data_PCOD8278229
_publ_section_title
;
Structure prediction by ZEFSAII (Michael W. Deem and Ramdas Pophale) SiO2 
 PCOD8278229
Probable space group: C M M A
;
_chemical_formula_sum "Si O2"
_cell_formula_units_Z 112
_cell_length_a 19.885900
_cell_length_b 15.905383
_cell_length_c 19.425684
_cell_angle_alpha 90.000000
_cell_angle_beta 90.000000
_cell_angle_gamma 90.000000
_cell_volume 6144.205068
_symmetry_space_group_name_H-M "C M M A"
_symmetry_group_IT_number 67
_symmetry_cell_setting 'orthorhombic'
loop_
_space_group_symop_operation_xyz
x,y,z
-x,1/2-y,z
x,-y,-z
-x,1/2+y,-z
-x,-y,-z
x,1/2+y,-z
-x,y,z
x,1/2-y,z
1/2+x,1/2+y,z
1/2-x,-y,z
1/2+x,1/2-y,-z
1/2-x,y,-z
1/2-x,1/2-y,-z
1/2+x,y,-z
1/2-x,1/2+y,z
1/2+x,-y,z
loop_
_atom_site_type_symbol
_atom_site_label
_atom_site_fract_x
_atom_site_fract_y
_atom_site_fract_z
Si Si1 0.669800 0.501471 0.577777
Si Si2 0.810973 0.601229 0.186656
Si Si3 0.182533 0.152025 0.963292
Si Si4 0.325468 0.657539 0.668874
Si Si5 0.576713 0.347546 0.922938
Si Si6 0.338234 0.410320 0.802748
Si Si7 0.165760 0.343747 0.339308
O O1 0.642504 0.500000 0.500000
O O2 0.750000 0.500000 0.579038
O O3 0.643461 0.583791 0.620366
O O4 0.639563 0.415211 0.608828
O O5 0.840099 0.614112 0.110330
O O6 0.845602 0.652139 0.249744
O O7 0.733284 0.630035 0.176142
O O8 0.822333 0.506884 0.212136
O O9 0.194846 0.250000 0.952752
O O10 0.250000 0.113316 0.000000
O O11 0.118463 0.130202 0.009363
O O12 0.348743 0.750000 0.641870
O O13 0.245624 0.649153 0.665938
O O14 0.500000 0.373367 0.936412
O O15 0.584234 0.250000 0.903815
O O16 0.605525 0.401401 0.860427
O O17 0.366210 0.364209 0.734903
O O18 0.143688 0.250000 0.363452
#
# Coordination Sequence:
#
# PCOD8278229 Si02
#       7
#    16  16  16  16  16  16  16
#     4   9  16  26  38  58  93 128 162 201 242 297
#     4  10  18  29  47  70  94 123 166 220 255 290
#     4  10  19  32  49  70  95 125 171 219 257 304
#     4   9  16  26  41  62  90 125 165 206 251 294
#     4  10  21  36  51  70 100 134 167 209 264 319
#     4  10  18  30  47  68  95 124 164 212 254 300
#     4   9  16  26  42  62  87 124 167 203 244 298
#
# _framework density 18.228558
#
# number of rings (size 3 to 8) (size 9 to 14) (size 15 to 20)
#    0.000    2.429    2.857    0.857    0.000    2.286 
#    0.000    4.286    0.000    0.000    0.000    0.000 
#    0.000    0.571    0.000    0.000    0.000    1.857 
#
# Total GULP energy -693915.041309 kJ/mol
# GULP energy per Si atom -12391.340023 kJ/mol
# Density = 1.818707 g / cm^3
# Si number density = 18.228558 Si / 1000 Ang^3
#
#
#
# Elastic Constant Matrix: (Units=GPa)
#
#
# Indices 1 2 3 4 5 6 
#
# 1 53.0786 17.1342 20.8210 0.0000 0.0000 0.0000
# 2 17.1342 113.7059 66.7136 0.0000 0.0000 0.0000
# 3 20.8210 66.7136 140.0305 0.0000 0.0000 0.0000
# 4 0.0000 0.0000 0.0000 27.3193 0.0000 0.0000
# 5 0.0000 0.0000 0.0000 0.0000 7.8012 0.0000
# 6 0.0000 0.0000 0.0000 0.0000 0.0000 9.6392
#
#
#
# Elastic Compliance Matrix: (Units=1/GPa)
#
#
# Indices 1 2 3 4 5 6 
#
# 1 0.020265 -0.001785 -0.002163 0.000000 0.000000 0.000000
# 2 -0.001785 0.012364 -0.005625 0.000000 0.000000 0.000000
# 3 -0.002163 -0.005625 0.010143 0.000000 0.000000 0.000000
# 4 0.000000 0.000000 0.000000 0.036604 0.000000 0.000000
# 5 0.000000 0.000000 0.000000 0.000000 0.128185 0.000000
# 6 0.000000 0.000000 0.000000 0.000000 0.000000 0.103744
#
#
# Mechanical properties :
#
#
# Convention : Reuss Voigt Hill
#
# Bulk Modulus (GPa) = 42.32617 57.35029 49.83823
# Shear Modulus (GPa) = 14.77871 22.42833 18.60352
#
# Velocity S-wave (km/s) = 2.85045 3.51150 3.19810
# Velocity P-wave (km/s) = 5.83982 6.92611 6.40603
#
# Compressibility (1/GPa) = 0.02362605
#
# Stress axis : x y z
#
# Youngs Moduli (GPa) = 49.34734 80.88062 98.59198
#
# Poissons Ratio (x) = 0.14434 0.21324
# Poissons Ratio (y) = 0.08807 0.55459
# Poissons Ratio (z) = 0.10673 0.45496
#
# Static dielectric constant tensor:
#      x y z
#    x 2.713810 0.000000 0.000000 
#    y 0.000000 3.463290 0.000000 
#    z 0.000000 0.000000 3.462880 
# 
# 
# High freq. dielectric constant tensor:
#      x y z
#    x 1.621510 0.000000 0.000000 
#    y 0.000000 1.714610 0.000000 
#    z 0.000000 0.000000 1.714210 
# 
# From -- ./inp_files/35140.got.cif
#   From: 2010.03.12/outbox.cif.g09.slc.cpg/sg67_18_cif.got.tgz:35140.got - 2010.04.10 22:41:39.
