data_PCOD8278542
_publ_section_title
;
Structure prediction by ZEFSAII (Michael W. Deem and Ramdas Pophale) SiO2 
 PCOD8278542
Probable space group: C M M A
;
_chemical_formula_sum "Si O2"
_cell_formula_units_Z 72
_cell_length_a 15.395458
_cell_length_b 8.545558
_cell_length_c 25.258469
_cell_angle_alpha 90.000000
_cell_angle_beta 90.000000
_cell_angle_gamma 90.000000
_cell_volume 3323.074382
_symmetry_space_group_name_H-M "C M M A"
_symmetry_group_IT_number 67
_symmetry_cell_setting 'orthorhombic'
loop_
_space_group_symop_operation_xyz
x,y,z
-x,1/2-y,z
x,-y,-z
-x,1/2+y,-z
-x,-y,-z
x,1/2+y,-z
-x,y,z
x,1/2-y,z
1/2+x,1/2+y,z
1/2-x,-y,z
1/2+x,1/2-y,-z
1/2-x,y,-z
1/2-x,1/2-y,-z
1/2+x,y,-z
1/2-x,1/2+y,z
1/2+x,-y,z
loop_
_atom_site_type_symbol
_atom_site_label
_atom_site_fract_x
_atom_site_fract_y
_atom_site_fract_z
Si Si1 0.347489 0.564608 0.629080
Si Si2 0.653653 0.565113 0.261490
Si Si3 0.500000 0.935885 0.441303
Si Si4 0.099309 0.579340 0.948696
Si Si5 0.654980 0.067242 0.155632
O O1 0.344504 0.750000 0.625135
O O2 0.250000 0.500000 0.620447
O O3 0.386958 0.512794 0.686067
O O4 0.412025 0.497606 0.585393
O O5 0.651310 0.750000 0.268835
O O6 0.750000 0.500000 0.255404
O O7 0.607170 0.513797 0.206630
O O8 0.500000 0.750000 0.440399
O O9 0.500000 0.000000 0.500000
O O10 0.142932 0.750000 0.937767
O O11 0.102681 0.469016 0.897438
O O12 0.000000 0.606639 0.963338
O O13 0.145297 0.500000 0.000000
O O14 0.658453 0.250000 0.166833
O O15 0.750000 0.000000 0.146349
#
# Coordination Sequence:
#
# PCOD8278542 Si02
#       5
#    16  16   8  16  16
#     4  11  22  41  67  97 131 173 217 263 319 380
#     4  10  18  33  57  86 119 156 196 242 298 359
#     4  12  26  46  68  98 134 172 217 270 319 372
#     4  10  21  38  57  77 105 142 185 233 289 351
#     4  11  21  35  56  83 114 147 188 238 293 351
#
# _framework density 21.666682999999999
#
# number of rings (size 3 to 8) (size 9 to 14) (size 15 to 20)
#    0.000    1.333    0.000   10.333    0.000    2.222 
#    2.000    4.444    0.000    0.000    0.000    0.000 
#    0.000    0.000    0.000    0.000    0.000    0.000 
#
# Total GULP energy -446267.555248 kJ/mol
# GULP energy per Si atom -12396.320979 kJ/mol
# Density = 2.161737 g / cm^3
# Si number density = 21.666683 Si / 1000 Ang^3
#
#
#
# Elastic Constant Matrix: (Units=GPa)
#
#
# Indices 1 2 3 4 5 6 
#
# 1 59.9035 37.4867 46.3509 0.0000 0.0000 0.0000
# 2 37.4867 207.7529 68.8264 0.0000 0.0000 0.0000
# 3 46.3509 68.8264 204.7448 0.0000 0.0000 0.0000
# 4 0.0000 0.0000 0.0000 43.1880 0.0000 0.0000
# 5 0.0000 0.0000 0.0000 0.0000 20.4180 0.0000
# 6 0.0000 0.0000 0.0000 0.0000 0.0000 26.5815
#
#
#
# Elastic Compliance Matrix: (Units=1/GPa)
#
#
# Indices 1 2 3 4 5 6 
#
# 1 0.021362 -0.002535 -0.003984 0.000000 0.000000 0.000000
# 2 -0.002535 0.005717 -0.001348 0.000000 0.000000 0.000000
# 3 -0.003984 -0.001348 0.006239 0.000000 0.000000 0.000000
# 4 0.000000 0.000000 0.000000 0.023155 0.000000 0.000000
# 5 0.000000 0.000000 0.000000 0.000000 0.048976 0.000000
# 6 0.000000 0.000000 0.000000 0.000000 0.000000 0.037620
#
#
# Mechanical properties :
#
#
# Convention : Reuss Voigt Hill
#
# Bulk Modulus (GPa) = 56.86587 86.41436 71.64012
# Shear Modulus (GPa) = 30.36455 39.35332 34.85893
#
# Velocity S-wave (km/s) = 3.74764 4.26644 4.01543
# Velocity P-wave (km/s) = 6.71038 8.01499 7.39152
#
# Compressibility (1/GPa) = 0.01758524
#
# Stress axis : x y z
#
# Youngs Moduli (GPa) = 46.81124 174.90485 160.27629
#
# Poissons Ratio (x) = 0.44334 0.63855
# Poissons Ratio (y) = 0.11865 0.21607
# Poissons Ratio (z) = 0.18650 0.23579
#
# Static dielectric constant tensor:
#      x y z
#    x 3.505950 0.000000 0.000000 
#    y 0.000000 4.224520 0.000000 
#    z 0.000000 0.000000 4.506640 
# 
# 
# High freq. dielectric constant tensor:
#      x y z
#    x 1.817230 0.000000 0.000000 
#    y 0.000000 1.874500 0.000000 
#    z 0.000000 0.000000 1.869680 
# 
# From -- ./inp_files/42129.got.cif
#   From: 2010.03.12/outbox.cif.g09.slc.cpg/sg67_22_cif.got.tgz:42129.got - 2010.04.10 22:41:39.
