data_PCOD8278502
_publ_section_title
;
Structure prediction by ZEFSAII (Michael W. Deem and Ramdas Pophale) SiO2 
 PCOD8278502
Probable space group: C M M A
;
_chemical_formula_sum "Si O2"
_cell_formula_units_Z 96
_cell_length_a 9.229836
_cell_length_b 28.816632
_cell_length_c 20.459487
_cell_angle_alpha 90.000000
_cell_angle_beta 90.000000
_cell_angle_gamma 90.000000
_cell_volume 5441.666787
_symmetry_space_group_name_H-M "C M M A"
_symmetry_group_IT_number 67
_symmetry_cell_setting 'orthorhombic'
loop_
_space_group_symop_operation_xyz
x,y,z
-x,1/2-y,z
x,-y,-z
-x,1/2+y,-z
-x,-y,-z
x,1/2+y,-z
-x,y,z
x,1/2-y,z
1/2+x,1/2+y,z
1/2-x,-y,z
1/2+x,1/2-y,-z
1/2-x,y,-z
1/2-x,1/2-y,-z
1/2+x,y,-z
1/2-x,1/2+y,z
1/2+x,-y,z
loop_
_atom_site_type_symbol
_atom_site_label
_atom_site_fract_x
_atom_site_fract_y
_atom_site_fract_z
Si Si1 0.170298 0.855289 0.319227
Si Si2 0.671118 0.142344 0.065247
Si Si3 0.169382 0.303448 0.433162
Si Si4 0.669097 0.955128 0.878123
Si Si5 0.667709 0.955398 0.728702
Si Si6 0.172115 0.697832 0.190469
O O1 0.263443 0.836080 0.378413
O O2 0.202898 0.910036 0.313958
O O3 0.226065 0.830378 0.253448
O O4 0.000000 0.845613 0.330836
O O5 0.500000 0.148097 0.056529
O O6 0.714301 0.089218 0.079461
O O7 0.730058 0.173797 0.124627
O O8 0.750000 0.159491 0.000000
O O9 0.195895 0.250000 0.413443
O O10 0.250000 0.315523 0.500000
O O11 0.000000 0.314301 0.441517
O O12 0.500000 0.964736 0.882924
O O13 0.716228 0.945826 0.803274
O O14 0.750000 0.000000 0.907004
O O15 0.500000 0.967426 0.725924
O O16 0.750000 0.000000 0.699208
O O17 0.233513 0.750000 0.194149
O O18 0.000000 0.697228 0.189287
#
# Coordination Sequence:
#
# PCOD8278502 Si02
#       6
#    16  16  16  16  16  16
#     4  10  18  32  56  82 105 134 174 216 257 304
#     4  10  20  34  49  68  96 129 167 211 257 307
#     4  10  21  36  54  80 114 147 177 210 251 301
#     4   9  17  31  49  69  96 126 162 207 254 307
#     4   9  17  30  50  76 104 133 168 210 256 308
#     4   9  17  31  52  74  96 128 170 211 254 307
#
# _framework density 17.641653999999999
#
# number of rings (size 3 to 8) (size 9 to 14) (size 15 to 20)
#    0.000    2.500    1.667    1.000    0.000    3.667 
#    0.000    2.500    0.000    1.500    0.000    3.500 
#    0.000    0.000    0.000    0.000    0.000    0.000 
#
# Total GULP energy -595230.982415 kJ/mol
# GULP energy per Si atom -12400.645467 kJ/mol
# Density = 1.760150 g / cm^3
# Si number density = 17.641654 Si / 1000 Ang^3
#
#
#
# Elastic Constant Matrix: (Units=GPa)
#
#
# Indices 1 2 3 4 5 6 
#
# 1 54.5736 47.7507 48.4613 0.0000 0.0000 0.0000
# 2 47.7507 120.4626 63.9235 0.0000 0.0000 0.0000
# 3 48.4613 63.9235 117.5044 0.0000 0.0000 0.0000
# 4 0.0000 0.0000 0.0000 26.2294 0.0000 0.0000
# 5 0.0000 0.0000 0.0000 0.0000 30.8936 0.0000
# 6 0.0000 0.0000 0.0000 0.0000 0.0000 24.7927
#
#
#
# Elastic Compliance Matrix: (Units=1/GPa)
#
#
# Indices 1 2 3 4 5 6 
#
# 1 0.034189 -0.008533 -0.009458 0.000000 0.000000 0.000000
# 2 -0.008533 0.013800 -0.003988 0.000000 0.000000 0.000000
# 3 -0.009458 -0.003988 0.014581 0.000000 0.000000 0.000000
# 4 0.000000 0.000000 0.000000 0.038125 0.000000 0.000000
# 5 0.000000 0.000000 0.000000 0.000000 0.032369 0.000000
# 6 0.000000 0.000000 0.000000 0.000000 0.000000 0.040334
#
#
# Mechanical properties :
#
#
# Convention : Reuss Voigt Hill
#
# Bulk Modulus (GPa) = 53.73226 68.09017 60.91122
# Shear Modulus (GPa) = 22.36522 25.21016 23.78769
#
# Velocity S-wave (km/s) = 3.56441 3.78433 3.67602
# Velocity P-wave (km/s) = 6.88940 7.60098 7.25392
#
# Compressibility (1/GPa) = 0.01861079
#
# Stress axis : x y z
#
# Youngs Moduli (GPa) = 29.24901 72.46265 68.58456
#
# Poissons Ratio (x) = 0.61836 0.64868
# Poissons Ratio (y) = 0.24960 0.27352
# Poissons Ratio (z) = 0.27664 0.28898
#
# Static dielectric constant tensor:
#      x y z
#    x 3.043050 0.000000 0.000000 
#    y 0.000000 3.421570 0.000000 
#    z 0.000000 0.000000 3.156410 
# 
# 
# High freq. dielectric constant tensor:
#      x y z
#    x 1.660620 0.000000 0.000000 
#    y 0.000000 1.687840 0.000000 
#    z 0.000000 0.000000 1.670040 
# 
# From -- ./inp_files/37204.got.cif
#   From: 2010.03.12/outbox.cif.g09.slc.cpg/sg67_19_cif.got.tgz:37204.got - 2010.04.10 22:41:39.
