data_PCOD8278725
_publ_section_title
;
Structure prediction by ZEFSAII (Michael W. Deem and Ramdas Pophale) SiO2 
 PCOD8278725
Probable space group: C M M A
;
_chemical_formula_sum "Si O2"
_cell_formula_units_Z 128
_cell_length_a 16.770277
_cell_length_b 17.854529
_cell_length_c 26.745565
_cell_angle_alpha 90.000000
_cell_angle_beta 90.000000
_cell_angle_gamma 90.000000
_cell_volume 8008.301419
_symmetry_space_group_name_H-M "C M M A"
_symmetry_group_IT_number 67
_symmetry_cell_setting 'orthorhombic'
loop_
_space_group_symop_operation_xyz
x,y,z
-x,1/2-y,z
x,-y,-z
-x,1/2+y,-z
-x,-y,-z
x,1/2+y,-z
-x,y,z
x,1/2-y,z
1/2+x,1/2+y,z
1/2-x,-y,z
1/2+x,1/2-y,-z
1/2-x,y,-z
1/2-x,1/2-y,-z
1/2+x,y,-z
1/2-x,1/2+y,z
1/2+x,-y,z
loop_
_atom_site_type_symbol
_atom_site_label
_atom_site_fract_x
_atom_site_fract_y
_atom_site_fract_z
Si Si1 0.315123 0.561313 0.626325
Si Si2 0.093232 0.462333 0.448510
Si Si3 0.909440 0.835945 0.183318
Si Si4 0.091663 0.834848 0.300756
Si Si5 0.215469 0.335490 0.444800
Si Si6 0.313484 0.332093 0.955821
Si Si7 0.084956 0.577403 0.025182
Si Si8 0.291053 0.423375 0.113416
O O1 0.250000 0.500000 0.644333
O O2 0.383623 0.517803 0.596241
O O3 0.353142 0.602971 0.673566
O O4 0.278206 0.625458 0.591700
O O5 0.122593 0.500000 0.500000
O O6 0.133065 0.381070 0.442693
O O7 0.000000 0.448147 0.448090
O O8 0.897296 0.750000 0.166219
O O9 0.896365 0.844285 0.241993
O O10 0.842030 0.886481 0.157599
O O11 0.000000 0.861341 0.169363
O O12 0.115735 0.750000 0.316723
O O13 0.000000 0.849192 0.315849
O O14 0.199779 0.250000 0.427437
O O15 0.250000 0.337065 0.500000
O O16 0.336690 0.250000 0.937570
O O17 0.281442 0.372375 0.905974
O O18 0.250000 0.330796 0.000000
O O19 0.391293 0.368551 0.979737
O O20 0.150542 0.564806 0.067105
O O21 0.000000 0.606622 0.047766
O O22 0.069315 0.500000 0.000000
O O23 0.250000 0.500000 0.132290
#
# Coordination Sequence:
#
# PCOD8278725 Si02
#       8
#    16  16  16  16  16  16  16  16
#     4  10  19  30  51  72  96 126 159 197 239 289
#     4  10  19  31  46  65  94 128 161 197 236 280
#     4   9  19  35  53  72  96 126 159 199 245 290
#     4   9  18  34  53  73  98 123 155 203 249 289
#     4  10  19  31  46  65  94 128 162 198 233 276
#     4   9  18  30  45  66  91 121 157 196 236 276
#     4  10  19  31  46  65  93 126 162 193 229 276
#     4  11  19  30  49  72  96 128 156 197 239 287
#
# _framework density 15.983415000000001
#
# number of rings (size 3 to 8) (size 9 to 14) (size 15 to 20)
#    0.000    2.250    2.500    2.250    0.000    1.500 
#    0.000    0.000    0.000    0.000    0.000    0.000 
#    0.000    0.000    0.000   19.750    0.000    0.000 
#
# Total GULP energy -793227.763531 kJ/mol
# GULP energy per Si atom -12394.183805 kJ/mol
# Density = 1.594704 g / cm^3
# Si number density = 15.983415 Si / 1000 Ang^3
#
#
#
# Elastic Constant Matrix: (Units=GPa)
#
#
# Indices 1 2 3 4 5 6 
#
# 1 78.4564 51.6729 31.9158 0.0000 0.0000 0.0000
# 2 51.6729 128.3989 41.4283 0.0000 0.0000 0.0000
# 3 31.9158 41.4283 60.0838 0.0000 0.0000 0.0000
# 4 0.0000 0.0000 0.0000 26.8019 0.0000 0.0000
# 5 0.0000 0.0000 0.0000 0.0000 25.2686 0.0000
# 6 0.0000 0.0000 0.0000 0.0000 0.0000 48.9354
#
#
#
# Elastic Compliance Matrix: (Units=1/GPa)
#
#
# Indices 1 2 3 4 5 6 
#
# 1 0.018980 -0.005640 -0.006193 0.000000 0.000000 0.000000
# 2 -0.005640 0.011693 -0.005066 0.000000 0.000000 0.000000
# 3 -0.006193 -0.005066 0.023426 0.000000 0.000000 0.000000
# 4 0.000000 0.000000 0.000000 0.037311 0.000000 0.000000
# 5 0.000000 0.000000 0.000000 0.000000 0.039575 0.000000
# 6 0.000000 0.000000 0.000000 0.000000 0.000000 0.020435
#
#
# Mechanical properties :
#
#
# Convention : Reuss Voigt Hill
#
# Bulk Modulus (GPa) = 49.26065 57.44146 53.35106
# Shear Modulus (GPa) = 26.04370 29.66265 27.85317
#
# Velocity S-wave (km/s) = 4.04099 4.31262 4.17901
# Velocity P-wave (km/s) = 7.25669 7.79836 7.53240
#
# Compressibility (1/GPa) = 0.02030018
#
# Stress axis : x y z
#
# Youngs Moduli (GPa) = 52.68730 85.52360 42.68706
#
# Poissons Ratio (x) = 0.48236 0.26436
# Poissons Ratio (y) = 0.29716 0.21626
# Poissons Ratio (z) = 0.32629 0.43328
#
# Static dielectric constant tensor:
#      x y z
#    x 3.311020 0.000000 0.000000 
#    y 0.000000 3.171140 0.000000 
#    z 0.000000 0.000000 2.782210 
# 
# 
# High freq. dielectric constant tensor:
#      x y z
#    x 1.613830 0.000000 0.000000 
#    y 0.000000 1.621590 0.000000 
#    z 0.000000 0.000000 1.593190 
# 
# From -- ./inp_files/42255.got.cif
#   From: 2010.03.12/outbox.cif.g09.slc.cpg/sg67_22_cif.got.tgz:42255.got - 2010.04.10 22:41:39.
