data_PCOD8278941
_publ_section_title
;
Structure prediction by ZEFSAII (Michael W. Deem and Ramdas Pophale) SiO2 
 PCOD8278941
Probable space group: C M M A
;
_chemical_formula_sum "Si O2"
_cell_formula_units_Z 72
_cell_length_a 10.268824
_cell_length_b 25.642527
_cell_length_c 14.546365
_cell_angle_alpha 90.000000
_cell_angle_beta 90.000000
_cell_angle_gamma 90.000000
_cell_volume 3830.328419
_symmetry_space_group_name_H-M "C M M A"
_symmetry_group_IT_number 67
_symmetry_cell_setting 'orthorhombic'
loop_
_space_group_symop_operation_xyz
x,y,z
-x,1/2-y,z
x,-y,-z
-x,1/2+y,-z
-x,-y,-z
x,1/2+y,-z
-x,y,z
x,1/2-y,z
1/2+x,1/2+y,z
1/2-x,-y,z
1/2+x,1/2-y,-z
1/2-x,y,-z
1/2-x,1/2-y,-z
1/2+x,y,-z
1/2-x,1/2+y,z
1/2+x,-y,z
loop_
_atom_site_type_symbol
_atom_site_label
_atom_site_fract_x
_atom_site_fract_y
_atom_site_fract_z
Si Si1 0.654723 0.750000 0.414078
Si Si2 0.500000 0.939393 0.094238
Si Si3 0.347238 0.341639 0.721637
Si Si4 0.253259 0.560909 0.215227
Si Si5 0.000000 0.438505 0.893271
Si Si6 0.647025 0.811119 0.074749
O O1 0.500000 0.750000 0.439682
O O2 0.750000 0.750000 0.500000
O O3 0.693959 0.800872 0.355932
O O4 0.630958 0.922919 0.145836
O O5 0.500000 0.000785 0.088804
O O6 0.500000 0.912700 0.993771
O O7 0.500000 0.350099 0.717873
O O8 0.276677 0.398213 0.701103
O O9 0.301955 0.320775 0.821577
O O10 0.250000 0.500000 0.246615
O O11 0.123640 0.578223 0.164867
O O12 0.500000 0.835855 0.063486
O O13 0.634805 0.750000 0.057745
O O14 0.750000 0.834574 0.000000
#
# Coordination Sequence:
#
# PCOD8278941 Si02
#       6
#     8   8  16  16   8  16
#     4  10  22  44  71  92 110 136 177 232 293 354
#     4   9  16  30  46  67 105 156 206 237 274 316
#     4  10  19  37  61  81 110 151 189 225 277 344
#     4  10  19  32  50  75 108 151 194 233 278 325
#     4   9  18  28  44  71 107 150 202 253 268 294
#     4   9  17  31  50  75 108 149 189 224 266 321
#
# _framework density 18.797343999999999
#
# number of rings (size 3 to 8) (size 9 to 14) (size 15 to 20)
#    0.000    2.444    2.222    0.667    0.000    4.444 
#    4.000    0.000    0.000    0.667    0.000    3.111 
#    0.000    0.000    0.000    0.000    0.000    0.000 
#
# Total GULP energy -446042.420668 kJ/mol
# GULP energy per Si atom -12390.067241 kJ/mol
# Density = 1.875456 g / cm^3
# Si number density = 18.797344 Si / 1000 Ang^3
#
#
#
# Elastic Constant Matrix: (Units=GPa)
#
#
# Indices 1 2 3 4 5 6 
#
# 1 113.0846 45.0377 54.0274 0.0000 0.0000 0.0000
# 2 45.0377 108.8163 59.7894 0.0000 0.0000 0.0000
# 3 54.0274 59.7894 101.7534 0.0000 0.0000 0.0000
# 4 0.0000 0.0000 0.0000 12.3814 0.0000 0.0000
# 5 0.0000 0.0000 0.0000 0.0000 27.8945 0.0000
# 6 0.0000 0.0000 0.0000 0.0000 0.0000 31.8542
#
#
#
# Elastic Compliance Matrix: (Units=1/GPa)
#
#
# Indices 1 2 3 4 5 6 
#
# 1 0.012195 -0.002200 -0.005183 0.000000 0.000000 0.000000
# 2 -0.002200 0.013968 -0.007040 0.000000 0.000000 0.000000
# 3 -0.005183 -0.007040 0.016716 0.000000 0.000000 0.000000
# 4 0.000000 0.000000 0.000000 0.080766 0.000000 0.000000
# 5 0.000000 0.000000 0.000000 0.000000 0.035849 0.000000
# 6 0.000000 0.000000 0.000000 0.000000 0.000000 0.031393
#
#
# Mechanical properties :
#
#
# Convention : Reuss Voigt Hill
#
# Bulk Modulus (GPa) = 71.24938 71.26259 71.25599
# Shear Modulus (GPa) = 22.28064 25.41267 23.84666
#
# Velocity S-wave (km/s) = 3.44657 3.68085 3.56563
# Velocity P-wave (km/s) = 7.33653 7.48720 7.41225
#
# Compressibility (1/GPa) = 0.01403521
#
# Stress axis : x y z
#
# Youngs Moduli (GPa) = 82.00041 71.59130 59.82360
#
# Poissons Ratio (x) = 0.15749 0.31004
# Poissons Ratio (y) = 0.18039 0.42113
# Poissons Ratio (z) = 0.42497 0.50397
#
# Static dielectric constant tensor:
#      x y z
#    x 3.631300 0.000000 0.000000 
#    y 0.000000 3.860640 0.000000 
#    z 0.000000 0.000000 3.116760 
# 
# 
# High freq. dielectric constant tensor:
#      x y z
#    x 1.729900 0.000000 0.000000 
#    y 0.000000 1.761280 0.000000 
#    z 0.000000 0.000000 1.669170 
# 
# From -- ./inp_files/25334.got.cif
#   From: 2010.03.12/outbox.cif.g09.slc.cpg/sg67_13_cif.got.tgz:25334.got - 2010.04.10 22:41:39.
