data_PCOD8278690
_publ_section_title
;
Structure prediction by ZEFSAII (Michael W. Deem and Ramdas Pophale) SiO2 
 PCOD8278690
Probable space group: C M M A
;
_chemical_formula_sum "Si O2"
_cell_formula_units_Z 64
_cell_length_a 24.007939
_cell_length_b 10.341512
_cell_length_c 14.303221
_cell_angle_alpha 90.000000
_cell_angle_beta 90.000000
_cell_angle_gamma 90.000000
_cell_volume 3551.180671
_symmetry_space_group_name_H-M "C M M A"
_symmetry_group_IT_number 67
_symmetry_cell_setting 'orthorhombic'
loop_
_space_group_symop_operation_xyz
x,y,z
-x,1/2-y,z
x,-y,-z
-x,1/2+y,-z
-x,-y,-z
x,1/2+y,-z
-x,y,z
x,1/2-y,z
1/2+x,1/2+y,z
1/2-x,-y,z
1/2+x,1/2-y,-z
1/2-x,y,-z
1/2-x,1/2-y,-z
1/2+x,y,-z
1/2-x,1/2+y,z
1/2+x,-y,z
loop_
_atom_site_type_symbol
_atom_site_label
_atom_site_fract_x
_atom_site_fract_y
_atom_site_fract_z
Si Si1 0.000000 0.396636 0.918431
Si Si2 0.939959 0.888608 0.615651
Si Si3 0.414680 0.395298 0.240925
Si Si4 0.203991 0.398019 0.686582
Si Si5 0.151574 0.500000 0.500000
O O1 0.056776 0.419206 0.859269
O O2 0.000000 0.250000 0.958345
O O3 0.000000 0.500000 0.000000
O O4 0.933968 0.750000 0.668170
O O5 0.000000 0.893680 0.563354
O O6 0.940639 0.004444 0.688139
O O7 0.889350 0.892342 0.542736
O O8 0.429175 0.250000 0.275132
O O9 0.347674 0.412870 0.241497
O O10 0.226670 0.250000 0.688350
O O11 0.250000 0.500000 0.722065
O O12 0.188588 0.432842 0.579560
#
# Coordination Sequence:
#
# PCOD8278690 Si02
#       5
#     8  16  16  16   8
#     4  10  20  36  60  87 112 133 158 199 254 319
#     4  10  19  30  47  72 102 137 179 223 260 304
#     4   9  19  36  55  76 105 140 170 203 259 321
#     4  10  21  35  52  72  99 139 183 222 258 298
#     4  10  20  32  46  68 102 141 183 224 266 302
#
# _framework density 18.022175000000001
#
# number of rings (size 3 to 8) (size 9 to 14) (size 15 to 20)
#    0.000    2.250    1.250    1.500    0.000    8.000 
#    0.000    0.000    0.000    0.750    0.000    5.250 
#    0.000    0.000    0.000    0.000    0.000    0.000 
#
# Total GULP energy -396435.575846 kJ/mol
# GULP energy per Si atom -12388.611745 kJ/mol
# Density = 1.798116 g / cm^3
# Si number density = 18.022175 Si / 1000 Ang^3
#
#
#
# Elastic Constant Matrix: (Units=GPa)
#
#
# Indices 1 2 3 4 5 6 
#
# 1 107.1871 64.8207 35.3697 0.0000 0.0000 0.0000
# 2 64.8207 150.3219 51.9033 0.0000 0.0000 0.0000
# 3 35.3697 51.9033 71.8995 0.0000 0.0000 0.0000
# 4 0.0000 0.0000 0.0000 28.1266 0.0000 0.0000
# 5 0.0000 0.0000 0.0000 0.0000 32.4871 0.0000
# 6 0.0000 0.0000 0.0000 0.0000 0.0000 26.9340
#
#
#
# Elastic Compliance Matrix: (Units=1/GPa)
#
#
# Indices 1 2 3 4 5 6 
#
# 1 0.013139 -0.004574 -0.003161 0.000000 0.000000 0.000000
# 2 -0.004574 0.010453 -0.005296 0.000000 0.000000 0.000000
# 3 -0.003161 -0.005296 0.019287 0.000000 0.000000 0.000000
# 4 0.000000 0.000000 0.000000 0.035554 0.000000 0.000000
# 5 0.000000 0.000000 0.000000 0.000000 0.030781 0.000000
# 6 0.000000 0.000000 0.000000 0.000000 0.000000 0.037128
#
#
# Mechanical properties :
#
#
# Convention : Reuss Voigt Hill
#
# Bulk Modulus (GPa) = 59.46797 70.39955 64.93376
# Shear Modulus (GPa) = 28.08831 29.33054 28.70942
#
# Velocity S-wave (km/s) = 3.95212 4.03857 3.99558
# Velocity P-wave (km/s) = 7.34128 7.80348 7.57590
#
# Compressibility (1/GPa) = 0.01681578
#
# Stress axis : x y z
#
# Youngs Moduli (GPa) = 76.11024 95.66274 51.84923
#
# Poissons Ratio (x) = 0.43756 0.16392
# Poissons Ratio (y) = 0.34813 0.27460
# Poissons Ratio (z) = 0.24062 0.50663
#
# Static dielectric constant tensor:
#      x y z
#    x 3.565320 0.000000 0.000000 
#    y 0.000000 3.584840 0.000000 
#    z 0.000000 0.000000 2.857900 
# 
# 
# High freq. dielectric constant tensor:
#      x y z
#    x 1.708450 0.000000 0.000000 
#    y 0.000000 1.721290 0.000000 
#    z 0.000000 0.000000 1.635480 
# 
# From -- ./inp_files/25005.got.cif
#   From: 2010.03.12/outbox.cif.g09.slc.cpg/sg67_13_cif.got.tgz:25005.got - 2010.04.10 22:41:39.
