data_PCOD8278492
_publ_section_title
;
Structure prediction by ZEFSAII (Michael W. Deem and Ramdas Pophale) SiO2 
 PCOD8278492
Probable space group: C M M A
;
_chemical_formula_sum "Si O2"
_cell_formula_units_Z 88
_cell_length_a 9.734033
_cell_length_b 23.833959
_cell_length_c 20.748550
_cell_angle_alpha 90.000000
_cell_angle_beta 90.000000
_cell_angle_gamma 90.000000
_cell_volume 4813.674875
_symmetry_space_group_name_H-M "C M M A"
_symmetry_group_IT_number 67
_symmetry_cell_setting 'orthorhombic'
loop_
_space_group_symop_operation_xyz
x,y,z
-x,1/2-y,z
x,-y,-z
-x,1/2+y,-z
-x,-y,-z
x,1/2+y,-z
-x,y,z
x,1/2-y,z
1/2+x,1/2+y,z
1/2-x,-y,z
1/2+x,1/2-y,-z
1/2-x,y,-z
1/2-x,1/2-y,-z
1/2+x,y,-z
1/2-x,1/2+y,z
1/2+x,-y,z
loop_
_atom_site_type_symbol
_atom_site_label
_atom_site_fract_x
_atom_site_fract_y
_atom_site_fract_z
Si Si1 0.837929 0.554011 0.733106
Si Si2 0.340231 0.142214 0.197126
Si Si3 0.652299 0.750000 0.585687
Si Si4 0.653144 0.551570 0.413910
Si Si5 0.156024 0.814273 0.057077
Si Si6 0.250000 0.149839 0.500000
Si Si7 0.162398 0.750000 0.274480
O O1 0.750000 0.500000 0.748801
O O2 0.771521 0.597692 0.781371
O O3 0.812044 0.570918 0.658581
O O4 0.000000 0.545825 0.747533
O O5 0.500000 0.126739 0.213441
O O6 0.321833 0.149589 0.121001
O O7 0.288743 0.196418 0.235281
O O8 0.500000 0.750000 0.610749
O O9 0.668319 0.692410 0.545939
O O10 0.734470 0.750000 0.653787
O O11 0.500000 0.526723 0.418205
O O12 0.750000 0.500000 0.436982
O O13 0.658483 0.607779 0.457243
O O14 0.195499 0.750000 0.072648
O O15 0.000000 0.818578 0.033222
O O16 0.250000 0.838891 0.000000
O O17 0.000000 0.750000 0.276530
#
# Coordination Sequence:
#
# PCOD8278492 Si02
#       7
#    16  16   8  16  16   8   8
#     4  10  21  37  55  77 104 137 176 221 272 319
#     4  10  18  32  55  80 108 142 179 218 259 307
#     4  10  21  33  48  72 102 138 177 212 253 314
#     4  10  22  38  56  78 104 132 171 224 275 323
#     4   9  17  30  49  77 112 148 180 215 254 300
#     4  11  21  34  52  74 101 139 176 214 264 319
#     4   9  17  31  51  75 102 135 175 214 256 310
#
# _framework density 18.281251000000001
#
# number of rings (size 3 to 8) (size 9 to 14) (size 15 to 20)
#    0.000    2.182    0.909    2.455    0.000    3.636 
#    0.000    0.455    0.000    3.818    0.000    3.818 
#    0.000    0.000    0.000    0.000    0.000    0.000 
#
# Total GULP energy -545188.427826 kJ/mol
# GULP energy per Si atom -12390.646087 kJ/mol
# Density = 1.823964 g / cm^3
# Si number density = 18.281251 Si / 1000 Ang^3
#
#
#
# Elastic Constant Matrix: (Units=GPa)
#
#
# Indices 1 2 3 4 5 6 
#
# 1 101.7426 54.9978 54.7088 0.0000 0.0000 0.0000
# 2 54.9978 107.8424 56.7693 0.0000 0.0000 0.0000
# 3 54.7088 56.7693 112.8969 0.0000 0.0000 0.0000
# 4 0.0000 0.0000 0.0000 61.0899 0.0000 0.0000
# 5 0.0000 0.0000 0.0000 0.0000 28.9639 0.0000
# 6 0.0000 0.0000 0.0000 0.0000 0.0000 23.3412
#
#
#
# Elastic Compliance Matrix: (Units=1/GPa)
#
#
# Indices 1 2 3 4 5 6 
#
# 1 0.015220 -0.005276 -0.004723 0.000000 0.000000 0.000000
# 2 -0.005276 0.014440 -0.004704 0.000000 0.000000 0.000000
# 3 -0.004723 -0.004704 0.013512 0.000000 0.000000 0.000000
# 4 0.000000 0.000000 0.000000 0.016369 0.000000 0.000000
# 5 0.000000 0.000000 0.000000 0.000000 0.034526 0.000000
# 6 0.000000 0.000000 0.000000 0.000000 0.000000 0.042843
#
#
# Mechanical properties :
#
#
# Convention : Reuss Voigt Hill
#
# Bulk Modulus (GPa) = 72.64276 72.82596 72.73436
# Shear Modulus (GPa) = 29.25627 33.07939 31.16783
#
# Velocity S-wave (km/s) = 4.00477 4.25840 4.13353
# Velocity P-wave (km/s) = 7.82347 8.00634 7.91544
#
# Compressibility (1/GPa) = 0.01376600
#
# Stress axis : x y z
#
# Youngs Moduli (GPa) = 65.70259 69.25288 74.01040
#
# Poissons Ratio (x) = 0.36538 0.34951
# Poissons Ratio (y) = 0.34665 0.34816
# Poissons Ratio (z) = 0.31028 0.32578
#
# Static dielectric constant tensor:
#      x y z
#    x 3.254900 0.000000 0.000000 
#    y 0.000000 2.355740 0.000000 
#    z 0.000000 0.000000 3.464450 
# 
# 
# High freq. dielectric constant tensor:
#      x y z
#    x 1.697220 0.000000 0.000000 
#    y 0.000000 1.697170 0.000000 
#    z 0.000000 0.000000 1.714880 
# 
# From -- ./inp_files/40734.got.cif
#   From: 2010.03.12/outbox.cif.g09.slc.cpg/sg67_21_cif.got.tgz:40734.got - 2010.04.10 22:41:39.
