data_PCOD8278532
_publ_section_title
;
Structure prediction by ZEFSAII (Michael W. Deem and Ramdas Pophale) SiO2 
 PCOD8278532
Probable space group: C M M A
;
_chemical_formula_sum "Si O2"
_cell_formula_units_Z 96
_cell_length_a 8.677976
_cell_length_b 23.704677
_cell_length_c 25.570990
_cell_angle_alpha 90.000000
_cell_angle_beta 90.000000
_cell_angle_gamma 90.000000
_cell_volume 5260.173016
_symmetry_space_group_name_H-M "C M M A"
_symmetry_group_IT_number 67
_symmetry_cell_setting 'orthorhombic'
loop_
_space_group_symop_operation_xyz
x,y,z
-x,1/2-y,z
x,-y,-z
-x,1/2+y,-z
-x,-y,-z
x,1/2+y,-z
-x,y,z
x,1/2-y,z
1/2+x,1/2+y,z
1/2-x,-y,z
1/2+x,1/2-y,-z
1/2-x,y,-z
1/2-x,1/2-y,-z
1/2+x,y,-z
1/2-x,1/2+y,z
1/2+x,-y,z
loop_
_atom_site_type_symbol
_atom_site_label
_atom_site_fract_x
_atom_site_fract_y
_atom_site_fract_z
Si Si1 0.182585 0.372784 0.154992
Si Si2 0.682057 0.061668 0.252778
Si Si3 0.316728 0.750000 0.287776
Si Si4 0.817973 0.864164 0.660778
Si Si5 0.681588 0.686070 0.445830
Si Si6 0.818087 0.250000 0.172552
Si Si7 0.182667 0.061730 0.052916
O O1 0.260438 0.397033 0.206979
O O2 0.234423 0.307812 0.144625
O O3 0.240140 0.404443 0.103384
O O4 0.000000 0.378235 0.163062
O O5 0.500000 0.057549 0.250685
O O6 0.733888 0.084377 0.309834
O O7 0.750000 0.000000 0.243035
O O8 0.500000 0.750000 0.289557
O O9 0.255583 0.694091 0.315382
O O10 0.246401 0.750000 0.230143
O O11 0.772427 0.858867 0.599474
O O12 0.000000 0.872274 0.668680
O O13 0.500000 0.688552 0.450572
O O14 0.742232 0.750000 0.433834
O O15 0.750000 0.662971 0.500000
O O16 0.000000 0.250000 0.177612
O O17 0.000000 0.059628 0.049039
O O18 0.250000 0.000000 0.059064
O O19 0.250000 0.090128 0.000000
#
# Coordination Sequence:
#
# PCOD8278532 Si02
#       7
#    16  16   8  16  16   8  16
#     4  10  20  36  58  82 108 142 179 215 258 316
#     4  12  25  38  54  78 107 139 175 221 271 317
#     4   9  14  26  53  78 102 140 178 210 249 310
#     4  10  18  33  55  78 106 143 182 216 258 314
#     4   9  17  29  49  77 109 144 179 215 258 309
#     4   9  16  30  55  80 106 142 178 208 249 316
#     4  10  20  34  55  79 104 137 179 224 268 311
#
# _framework density 18.250350999999998
#
# number of rings (size 3 to 8) (size 9 to 14) (size 15 to 20)
#    0.000    2.000    2.500    3.000    0.000    3.333 
#    0.000    2.083    0.000    0.500    0.000    3.500 
#    0.000    0.000    0.000    0.000    0.000    0.000 
#
# Total GULP energy -594959.818294 kJ/mol
# GULP energy per Si atom -12394.996214 kJ/mol
# Density = 1.820881 g / cm^3
# Si number density = 18.250351 Si / 1000 Ang^3
#
#
#
# Elastic Constant Matrix: (Units=GPa)
#
#
# Indices 1 2 3 4 5 6 
#
# 1 58.4058 26.3738 36.5309 0.0000 0.0000 0.0000
# 2 26.3738 95.5890 51.6582 0.0000 0.0000 0.0000
# 3 36.5309 51.6582 144.3799 0.0000 0.0000 0.0000
# 4 0.0000 0.0000 0.0000 29.1983 0.0000 0.0000
# 5 0.0000 0.0000 0.0000 0.0000 28.1987 0.0000
# 6 0.0000 0.0000 0.0000 0.0000 0.0000 18.5096
#
#
#
# Elastic Compliance Matrix: (Units=1/GPa)
#
#
# Indices 1 2 3 4 5 6 
#
# 1 0.021337 -0.003681 -0.004081 0.000000 0.000000 0.000000
# 2 -0.003681 0.013604 -0.003936 0.000000 0.000000 0.000000
# 3 -0.004081 -0.003936 0.009367 0.000000 0.000000 0.000000
# 4 0.000000 0.000000 0.000000 0.034249 0.000000 0.000000
# 5 0.000000 0.000000 0.000000 0.000000 0.035463 0.000000
# 6 0.000000 0.000000 0.000000 0.000000 0.000000 0.054026
#
#
# Mechanical properties :
#
#
# Convention : Reuss Voigt Hill
#
# Bulk Modulus (GPa) = 47.82281 58.61116 53.21699
# Shear Modulus (GPa) = 25.19993 27.43544 26.31768
#
# Velocity S-wave (km/s) = 3.71993 3.88143 3.80154
# Velocity P-wave (km/s) = 6.68664 7.22994 6.96359
#
# Compressibility (1/GPa) = 0.02091052
#
# Stress axis : x y z
#
# Youngs Moduli (GPa) = 46.86757 73.50616 106.75582
#
# Poissons Ratio (x) = 0.27060 0.43572
# Poissons Ratio (y) = 0.17253 0.42020
# Poissons Ratio (z) = 0.19129 0.28933
#
# Static dielectric constant tensor:
#      x y z
#    x 3.162010 0.000000 0.000000 
#    y 0.000000 3.473750 0.000000 
#    z 0.000000 0.000000 3.852520 
# 
# 
# High freq. dielectric constant tensor:
#      x y z
#    x 1.687090 0.000000 0.000000 
#    y 0.000000 1.693080 0.000000 
#    z 0.000000 0.000000 1.714070 
# 
# From -- ./inp_files/43684.got.cif
#   From: 2010.03.12/outbox.cif.g09.slc.cpg/sg67_22_cif.got.tgz:43684.got - 2010.04.10 22:41:39.
