data_PCOD8278546
_publ_section_title
;
Structure prediction by ZEFSAII (Michael W. Deem and Ramdas Pophale) SiO2 
 PCOD8278546
Probable space group: C M M A
;
_chemical_formula_sum "Si O2"
_cell_formula_units_Z 80
_cell_length_a 28.612371
_cell_length_b 17.922106
_cell_length_c 7.680409
_cell_angle_alpha 90.000000
_cell_angle_beta 90.000000
_cell_angle_gamma 90.000000
_cell_volume 3938.467238
_symmetry_space_group_name_H-M "C M M A"
_symmetry_group_IT_number 67
_symmetry_cell_setting 'orthorhombic'
loop_
_space_group_symop_operation_xyz
x,y,z
-x,1/2-y,z
x,-y,-z
-x,1/2+y,-z
-x,-y,-z
x,1/2+y,-z
-x,y,z
x,1/2-y,z
1/2+x,1/2+y,z
1/2-x,-y,z
1/2+x,1/2-y,-z
1/2-x,y,-z
1/2-x,1/2-y,-z
1/2+x,y,-z
1/2-x,1/2+y,z
1/2+x,-y,z
loop_
_atom_site_type_symbol
_atom_site_label
_atom_site_fract_x
_atom_site_fract_y
_atom_site_fract_z
Si Si1 0.644304 0.074390 0.285378
Si Si2 0.947565 0.336293 0.217870
Si Si3 0.948162 0.927155 0.111499
Si Si4 0.854161 0.403118 0.329461
Si Si5 0.303729 0.836220 0.011880
O O1 0.588277 0.083445 0.267794
O O2 0.660362 0.109778 0.469125
O O3 0.668701 0.115015 0.126446
O O4 0.657155 0.987535 0.275990
O O5 0.934930 0.250000 0.242595
O O6 0.909465 0.385995 0.317685
O O7 0.000000 0.354077 0.288934
O O8 0.945472 0.355061 0.012983
O O9 0.000000 0.936080 0.192053
O O10 0.934444 0.000000 0.000000
O O11 0.823577 0.349999 0.205784
O O12 0.310484 0.750000 0.964612
O O13 0.250000 0.860018 0.000000
#
# Coordination Sequence:
#
# PCOD8278546 Si02
#       5
#    16  16  16  16  16
#     4  11  23  39  63  93 125 162 202 250 307 365
#     4  10  20  35  57  86 124 166 204 246 294 347
#     4  10  18  33  59  89 123 165 208 246 292 355
#     4  11  23  39  62  94 126 159 205 252 301 366
#     4  11  25  45  67  89 118 157 201 255 317 375
#
# _framework density 20.312470000000001
#
# number of rings (size 3 to 8) (size 9 to 14) (size 15 to 20)
#    0.000    1.400    4.000    1.200    0.000    4.800 
#    0.000    6.000    0.000    2.400    0.000    0.000 
#    0.000    0.000    0.000    0.000    0.000    0.000 
#
# Total GULP energy -495994.761400 kJ/mol
# GULP energy per Si atom -12399.869035 kJ/mol
# Density = 2.026624 g / cm^3
# Si number density = 20.312470 Si / 1000 Ang^3
#
#
#
# Elastic Constant Matrix: (Units=GPa)
#
#
# Indices 1 2 3 4 5 6 
#
# 1 114.6295 29.6530 45.4165 0.0000 0.0000 0.0000
# 2 29.6530 74.5869 31.7068 0.0000 0.0000 0.0000
# 3 45.4165 31.7068 98.4931 0.0000 0.0000 0.0000
# 4 0.0000 0.0000 0.0000 20.1297 0.0000 0.0000
# 5 0.0000 0.0000 0.0000 0.0000 11.0429 0.0000
# 6 0.0000 0.0000 0.0000 0.0000 0.0000 29.4052
#
#
#
# Elastic Compliance Matrix: (Units=1/GPa)
#
#
# Indices 1 2 3 4 5 6 
#
# 1 0.011089 -0.002589 -0.004280 0.000000 0.000000 0.000000
# 2 -0.002589 0.016137 -0.004001 0.000000 0.000000 0.000000
# 3 -0.004280 -0.004001 0.013414 0.000000 0.000000 0.000000
# 4 0.000000 0.000000 0.000000 0.049678 0.000000 0.000000
# 5 0.000000 0.000000 0.000000 0.000000 0.090556 0.000000
# 6 0.000000 0.000000 0.000000 0.000000 0.000000 0.034008
#
#
# Mechanical properties :
#
#
# Convention : Reuss Voigt Hill
#
# Bulk Modulus (GPa) = 52.90762 55.69577 54.30169
# Shear Modulus (GPa) = 20.58264 24.17778 22.38021
#
# Velocity S-wave (km/s) = 3.18669 3.45380 3.32293
# Velocity P-wave (km/s) = 6.29630 6.58666 6.44311
#
# Compressibility (1/GPa) = 0.01890087
#
# Stress axis : x y z
#
# Youngs Moduli (GPa) = 90.17731 61.96784 74.54627
#
# Poissons Ratio (x) = 0.16045 0.31905
# Poissons Ratio (y) = 0.23350 0.29826
# Poissons Ratio (z) = 0.38595 0.24793
#
# Static dielectric constant tensor:
#      x y z
#    x 3.896340 0.000000 0.000000 
#    y 0.000000 3.675160 0.000000 
#    z 0.000000 0.000000 3.530280 
# 
# 
# High freq. dielectric constant tensor:
#      x y z
#    x 1.796340 0.000000 0.000000 
#    y 0.000000 1.796240 0.000000 
#    z 0.000000 0.000000 1.775080 
# 
# From -- ./inp_files/13516.got.cif
#   From: 2010.03.12/outbox.cif.g09.slc.cpg/sg67_7_cif.got.tgz:13516.got - 2010.04.10 22:41:39.
