data_PCOD8278324
_publ_section_title
;
Structure prediction by ZEFSAII (Michael W. Deem and Ramdas Pophale) SiO2 
 PCOD8278324
Probable space group: C M M A
;
_chemical_formula_sum "Si O2"
_cell_formula_units_Z 96
_cell_length_a 18.373486
_cell_length_b 16.384713
_cell_length_c 18.275064
_cell_angle_alpha 90.000000
_cell_angle_beta 90.000000
_cell_angle_gamma 90.000000
_cell_volume 5501.603756
_symmetry_space_group_name_H-M "C M M A"
_symmetry_group_IT_number 67
_symmetry_cell_setting 'orthorhombic'
loop_
_space_group_symop_operation_xyz
x,y,z
-x,1/2-y,z
x,-y,-z
-x,1/2+y,-z
-x,-y,-z
x,1/2+y,-z
-x,y,z
x,1/2-y,z
1/2+x,1/2+y,z
1/2-x,-y,z
1/2+x,1/2-y,-z
1/2-x,y,-z
1/2-x,1/2-y,-z
1/2+x,y,-z
1/2-x,1/2+y,z
1/2+x,-y,z
loop_
_atom_site_type_symbol
_atom_site_label
_atom_site_fract_x
_atom_site_fract_y
_atom_site_fract_z
Si Si1 0.085757 0.914474 0.466903
Si Si2 0.581858 0.250000 0.327443
Si Si3 0.831516 0.521775 0.164548
Si Si4 0.081235 0.577396 0.297035
Si Si5 0.580472 0.075594 0.945363
Si Si6 0.181044 0.157160 0.954385
Si Si7 0.164797 0.250000 0.525803
O O1 0.104419 0.924841 0.381544
O O2 0.127611 0.835448 0.502255
O O3 0.000000 0.901617 0.481006
O O4 0.113643 0.000000 0.500000
O O5 0.500000 0.250000 0.366507
O O6 0.586684 0.172517 0.274101
O O7 0.647512 0.250000 0.387024
O O8 0.750000 0.500000 0.180714
O O9 0.866559 0.527786 0.244422
O O10 0.870868 0.446771 0.124419
O O11 0.835513 0.604669 0.117652
O O12 0.000000 0.542594 0.286253
O O13 0.500000 0.098698 0.918219
O O14 0.613534 0.152155 0.989310
O O15 0.579237 0.000000 0.000000
O O16 0.194183 0.250000 0.929879
O O17 0.250000 0.121848 0.000000
O O18 0.250000 0.250000 0.500000
#
# Coordination Sequence:
#
# PCOD8278324 Si02
#       7
#    16   8  16  16  16  16   8
#     4   9  18  36  59  79 105 148 191 222 265 329
#     4   8  16  34  54  72 103 141 168 207 266 319
#     4  11  20  32  51  75 102 138 167 207 266 315
#     4   9  18  33  53  78 105 131 173 222 261 308
#     4   9  18  32  50  71  96 127 162 202 248 304
#     4  10  20  34  52  71  98 132 173 213 254 307
#     4  10  18  30  50  82 114 139 166 219 280 321
#
# _framework density 17.449456999999999
#
# number of rings (size 3 to 8) (size 9 to 14) (size 15 to 20)
#    0.000    2.500    1.667    2.250    1.167    1.333 
#    6.000    0.000    0.000    0.000    2.167    0.000 
#    0.000    0.000    0.000    0.000    0.000    0.000 
#
# Total GULP energy -594678.583061 kJ/mol
# GULP energy per Si atom -12389.137147 kJ/mol
# Density = 1.740974 g / cm^3
# Si number density = 17.449457 Si / 1000 Ang^3
#
#
#
# Elastic Constant Matrix: (Units=GPa)
#
#
# Indices 1 2 3 4 5 6 
#
# 1 121.6847 29.4932 45.7410 0.0000 0.0000 0.0000
# 2 29.4932 86.9431 28.8025 0.0000 0.0000 0.0000
# 3 45.7410 28.8025 67.6627 0.0000 0.0000 0.0000
# 4 0.0000 0.0000 0.0000 17.3621 0.0000 0.0000
# 5 0.0000 0.0000 0.0000 0.0000 30.7194 0.0000
# 6 0.0000 0.0000 0.0000 0.0000 0.0000 22.8321
#
#
#
# Elastic Compliance Matrix: (Units=1/GPa)
#
#
# Indices 1 2 3 4 5 6 
#
# 1 0.011183 -0.001501 -0.006921 0.000000 0.000000 0.000000
# 2 -0.001501 0.013591 -0.004771 0.000000 0.000000 0.000000
# 3 -0.006921 -0.004771 0.021489 0.000000 0.000000 0.000000
# 4 0.000000 0.000000 0.000000 0.057597 0.000000 0.000000
# 5 0.000000 0.000000 0.000000 0.000000 0.032553 0.000000
# 6 0.000000 0.000000 0.000000 0.000000 0.000000 0.043798
#
#
# Mechanical properties :
#
#
# Convention : Reuss Voigt Hill
#
# Bulk Modulus (GPa) = 50.30777 53.81819 52.06298
# Shear Modulus (GPa) = 23.44961 25.66632 24.55796
#
# Velocity S-wave (km/s) = 3.66984 3.83939 3.75557
# Velocity P-wave (km/s) = 6.84472 7.11082 6.97904
#
# Compressibility (1/GPa) = 0.01987764
#
# Stress axis : x y z
#
# Youngs Moduli (GPa) = 89.41820 73.57585 46.53550
#
# Poissons Ratio (x) = 0.11042 0.32209
# Poissons Ratio (y) = 0.13420 0.22202
# Poissons Ratio (z) = 0.61889 0.35103
#
# Static dielectric constant tensor:
#      x y z
#    x 3.331870 0.000000 0.000000 
#    y 0.000000 3.326010 0.000000 
#    z 0.000000 0.000000 2.952880 
# 
# 
# High freq. dielectric constant tensor:
#      x y z
#    x 1.673590 0.000000 0.000000 
#    y 0.000000 1.667630 0.000000 
#    z 0.000000 0.000000 1.646560 
# 
# From -- ./inp_files/39040.got.cif
#   From: 2010.03.12/outbox.cif.g09.slc.cpg/sg67_20_cif.got.tgz:39040.got - 2010.04.10 22:41:39.
