data_PCOD8278880
_publ_section_title
;
Structure prediction by ZEFSAII (Michael W. Deem and Ramdas Pophale) SiO2 
 PCOD8278880
Probable space group: C M M A
;
_chemical_formula_sum "Si O2"
_cell_formula_units_Z 104
_cell_length_a 27.506781
_cell_length_b 8.813330
_cell_length_c 23.400071
_cell_angle_alpha 90.000000
_cell_angle_beta 90.000000
_cell_angle_gamma 90.000000
_cell_volume 5672.793526
_symmetry_space_group_name_H-M "C M M A"
_symmetry_group_IT_number 67
_symmetry_cell_setting 'orthorhombic'
loop_
_space_group_symop_operation_xyz
x,y,z
-x,1/2-y,z
x,-y,-z
-x,1/2+y,-z
-x,-y,-z
x,1/2+y,-z
-x,y,z
x,1/2-y,z
1/2+x,1/2+y,z
1/2-x,-y,z
1/2+x,1/2-y,-z
1/2-x,y,-z
1/2-x,1/2-y,-z
1/2+x,y,-z
1/2-x,1/2+y,z
1/2+x,-y,z
loop_
_atom_site_type_symbol
_atom_site_label
_atom_site_fract_x
_atom_site_fract_y
_atom_site_fract_z
Si Si1 0.199492 0.568561 0.437634
Si Si2 0.872876 0.919382 0.646930
Si Si3 0.500000 0.076016 0.940364
Si Si4 0.202545 0.081752 0.252503
Si Si5 0.556253 0.929406 0.730353
Si Si6 0.604715 0.427811 0.937824
Si Si7 0.368399 0.572529 0.826306
O O1 0.191809 0.500000 0.500000
O O2 0.203711 0.750000 0.439525
O O3 0.250000 0.500000 0.411815
O O4 0.151637 0.521703 0.402044
O O5 0.885372 0.750000 0.623657
O O6 0.834523 0.905239 0.696659
O O7 0.921699 0.995566 0.672755
O O8 0.500000 0.250000 0.955076
O O9 0.449117 0.032517 0.910908
O O10 0.500000 0.000000 0.000000
O O11 0.213988 0.250000 0.228561
O O12 0.250000 0.000000 0.276772
O O13 0.181608 0.974713 0.203158
O O14 0.500000 0.979557 0.737248
O O15 0.561268 0.750000 0.722986
O O16 0.585881 0.983195 0.787068
O O17 0.614009 0.250000 0.944158
O O18 0.637643 0.496814 0.888547
O O19 0.614178 0.500000 0.000000
O O20 0.371445 0.750000 0.835359
#
# Coordination Sequence:
#
# PCOD8278880 Si02
#       7
#    16  16   8  16  16  16  16
#     4  11  21  34  53  79 112 146 179 217 261 310
#     4  10  20  34  53  79 108 140 178 215 258 309
#     4   8  16  28  42  62  88 120 156 194 235 284
#     4  10  20  34  53  76 103 133 168 211 256 304
#     4   9  19  35  53  75 104 139 177 217 261 307
#     4  10  19  32  48  69  97 130 167 207 253 305
#     4  10  20  33  51  75 102 133 169 209 256 307
#
# _framework density 18.333119
#
# number of rings (size 3 to 8) (size 9 to 14) (size 15 to 20)
#    0.000    2.154    0.000    4.154    1.077    4.615 
#    0.000    0.000    0.000    0.923    0.000    3.231 
#    0.000    0.000    0.000    0.000    0.000    0.000 
#
# Total GULP energy -644332.984532 kJ/mol
# GULP energy per Si atom -12391.018933 kJ/mol
# Density = 1.829139 g / cm^3
# Si number density = 18.333119 Si / 1000 Ang^3
#
#
#
# Elastic Constant Matrix: (Units=GPa)
#
#
# Indices 1 2 3 4 5 6 
#
# 1 61.8075 27.9987 16.7082 0.0000 0.0000 0.0000
# 2 27.9987 96.7458 38.5908 0.0000 0.0000 0.0000
# 3 16.7082 38.5908 75.5587 0.0000 0.0000 0.0000
# 4 0.0000 0.0000 0.0000 31.0038 0.0000 0.0000
# 5 0.0000 0.0000 0.0000 0.0000 -0.4284 0.0000
# 6 0.0000 0.0000 0.0000 0.0000 0.0000 27.1724
#
#
#
# Elastic Compliance Matrix: (Units=1/GPa)
#
#
# Indices 1 2 3 4 5 6 
#
# 1 0.018799 -0.004750 -0.001731 0.000000 0.000000 0.000000
# 2 -0.004750 0.014181 -0.006193 0.000000 0.000000 0.000000
# 3 -0.001731 -0.006193 0.016780 0.000000 0.000000 0.000000
# 4 0.000000 0.000000 0.000000 0.032254 0.000000 0.000000
# 5 0.000000 0.000000 0.000000 0.000000 -2.334153 0.000000
# 6 0.000000 0.000000 0.000000 0.000000 0.000000 0.036802
#
#
# Mechanical properties :
#
#
# Convention : Reuss Voigt Hill
#
# Bulk Modulus (GPa) = 40.96116 44.52304 42.74210
# Shear Modulus (GPa) = -2.29163 21.60385 9.65611
#
# Velocity S-wave (km/s) = -1.11924 3.43652 2.29749
# Velocity P-wave (km/s) = 4.55203 6.33123 5.51387
#
# Compressibility (1/GPa) = 0.02441337
#
# Stress axis : x y z
#
# Youngs Moduli (GPa) = 53.19452 70.51603 59.59379
#
# Poissons Ratio (x) = 0.33495 0.10315
# Poissons Ratio (y) = 0.25268 0.36904
# Poissons Ratio (z) = 0.09208 0.43667
#
# Static dielectric constant tensor:
#      x y z
#    x 3.513890 0.000000 0.000000 
#    y 0.000000 3.595240 0.000000 
#    z 0.000000 0.000000 3.292850 
# 
# 
# High freq. dielectric constant tensor:
#      x y z
#    x 1.692330 0.000000 0.000000 
#    y 0.000000 1.725680 0.000000 
#    z 0.000000 0.000000 1.695770 
# 
# From -- ./inp_files/39990.got.cif
#   From: 2010.03.12/outbox.cif.g09.slc.cpg/sg67_20_cif.got.tgz:39990.got - 2010.04.10 22:41:39.
