data_PCOD8278411
_publ_section_title
;
Structure prediction by ZEFSAII (Michael W. Deem and Ramdas Pophale) SiO2 
 PCOD8278411
Probable space group: C M M A
;
_chemical_formula_sum "Si O2"
_cell_formula_units_Z 80
_cell_length_a 25.066828
_cell_length_b 18.588645
_cell_length_c 8.855467
_cell_angle_alpha 90.000000
_cell_angle_beta 90.000000
_cell_angle_gamma 90.000000
_cell_volume 4126.278942
_symmetry_space_group_name_H-M "C M M A"
_symmetry_group_IT_number 67
_symmetry_cell_setting 'orthorhombic'
loop_
_space_group_symop_operation_xyz
x,y,z
-x,1/2-y,z
x,-y,-z
-x,1/2+y,-z
-x,-y,-z
x,1/2+y,-z
-x,y,z
x,1/2-y,z
1/2+x,1/2+y,z
1/2-x,-y,z
1/2+x,1/2-y,-z
1/2-x,y,-z
1/2-x,1/2-y,-z
1/2+x,y,-z
1/2-x,1/2+y,z
1/2+x,-y,z
loop_
_atom_site_type_symbol
_atom_site_label
_atom_site_fract_x
_atom_site_fract_y
_atom_site_fract_z
Si Si1 0.439170 0.832150 0.665612
Si Si2 0.360783 0.954389 0.638732
Si Si3 0.191786 0.575526 0.065354
Si Si4 0.940783 0.962763 0.841977
Si Si5 0.594719 0.331947 0.996020
O O1 0.500000 0.850074 0.615851
O O2 0.424481 0.750000 0.622933
O O3 0.396054 0.884978 0.586127
O O4 0.435618 0.843304 0.845843
O O5 0.312541 0.930206 0.750982
O O6 0.336030 0.000000 0.500000
O O7 0.400546 0.009690 0.717836
O O8 0.170750 0.500000 0.000000
O O9 0.250000 0.592025 0.000000
O O10 0.155388 0.640642 0.009168
O O11 0.935297 0.876875 0.866249
O O12 0.000000 0.981478 0.785668
O O13 0.927147 0.000000 0.000000
O O14 0.594999 0.250000 0.943195
#
# Coordination Sequence:
#
# PCOD8278411 Si02
#       5
#    16  16  16  16  16
#     4   9  17  30  50  79 115 155 193 225 264 322
#     4  11  21  35  55  83 113 149 184 229 281 334
#     4  10  19  37  61  80 105 137 183 241 282 332
#     4  11  19  32  53  79 112 150 191 229 263 311
#     4  10  18  31  53  82 112 144 187 235 278 319
#
# _framework density 19.387929
#
# number of rings (size 3 to 8) (size 9 to 14) (size 15 to 20)
#    0.000    1.800    6.000    1.200    0.000    3.200 
#    0.000    3.000    0.000    0.000    0.000    1.400 
#    0.000    0.000    0.000    0.000    0.000    0.000 
#
# Total GULP energy -495786.324211 kJ/mol
# GULP energy per Si atom -12394.658105 kJ/mol
# Density = 1.934380 g / cm^3
# Si number density = 19.387929 Si / 1000 Ang^3
#
#
#
# Elastic Constant Matrix: (Units=GPa)
#
#
# Indices 1 2 3 4 5 6 
#
# 1 91.5584 8.5646 25.2304 0.0000 0.0000 0.0000
# 2 8.5646 100.2180 8.8221 0.0000 0.0000 0.0000
# 3 25.2304 8.8221 46.4860 0.0000 0.0000 0.0000
# 4 0.0000 0.0000 0.0000 25.5189 0.0000 0.0000
# 5 0.0000 0.0000 0.0000 0.0000 17.0972 0.0000
# 6 0.0000 0.0000 0.0000 0.0000 0.0000 23.9315
#
#
#
# Elastic Compliance Matrix: (Units=1/GPa)
#
#
# Indices 1 2 3 4 5 6 
#
# 1 0.012867 -0.000493 -0.006890 0.000000 0.000000 0.000000
# 2 -0.000493 0.010167 -0.001662 0.000000 0.000000 0.000000
# 3 -0.006890 -0.001662 0.025567 0.000000 0.000000 0.000000
# 4 0.000000 0.000000 0.000000 0.039187 0.000000 0.000000
# 5 0.000000 0.000000 0.000000 0.000000 0.058489 0.000000
# 6 0.000000 0.000000 0.000000 0.000000 0.000000 0.041786
#
#
# Mechanical properties :
#
#
# Convention : Reuss Voigt Hill
#
# Bulk Modulus (GPa) = 32.77549 35.94408 34.35978
# Shear Modulus (GPa) = 23.11374 26.35254 24.73314
#
# Velocity S-wave (km/s) = 3.45653 3.69077 3.57557
# Velocity P-wave (km/s) = 5.73340 6.06152 5.89974
#
# Compressibility (1/GPa) = 0.03051060
#
# Stress axis : x y z
#
# Youngs Moduli (GPa) = 77.71981 98.36058 39.11327
#
# Poissons Ratio (x) = 0.04850 0.26949
# Poissons Ratio (y) = 0.03832 0.06500
# Poissons Ratio (z) = 0.53548 0.16346
#
# Static dielectric constant tensor:
#      x y z
#    x 3.372710 0.000000 0.000000 
#    y 0.000000 3.860090 0.000000 
#    z 0.000000 0.000000 3.286700 
# 
# 
# High freq. dielectric constant tensor:
#      x y z
#    x 1.743560 0.000000 0.000000 
#    y 0.000000 1.761480 0.000000 
#    z 0.000000 0.000000 1.712020 
# 
# From -- ./inp_files/9941.got.cif
#   From: 2010.03.12/outbox.cif.g09.slc.cpg/sg67_5_cif.got.tgz:9941.got - 2010.04.10 22:41:39.
