data_PCOD8278899
_publ_section_title
;
Structure prediction by ZEFSAII (Michael W. Deem and Ramdas Pophale) SiO2 
 PCOD8278899
Probable space group: C M M A
;
_chemical_formula_sum "Si O2"
_cell_formula_units_Z 80
_cell_length_a 9.413962
_cell_length_b 27.280087
_cell_length_c 18.434323
_cell_angle_alpha 90.000000
_cell_angle_beta 90.000000
_cell_angle_gamma 90.000000
_cell_volume 4734.186740
_symmetry_space_group_name_H-M "C M M A"
_symmetry_group_IT_number 67
_symmetry_cell_setting 'orthorhombic'
loop_
_space_group_symop_operation_xyz
x,y,z
-x,1/2-y,z
x,-y,-z
-x,1/2+y,-z
-x,-y,-z
x,1/2+y,-z
-x,y,z
x,1/2-y,z
1/2+x,1/2+y,z
1/2-x,-y,z
1/2+x,1/2-y,-z
1/2-x,y,-z
1/2-x,1/2-y,-z
1/2+x,y,-z
1/2-x,1/2+y,z
1/2+x,-y,z
loop_
_atom_site_type_symbol
_atom_site_label
_atom_site_fract_x
_atom_site_fract_y
_atom_site_fract_z
Si Si1 0.660339 0.308393 0.067494
Si Si2 0.000000 0.691725 0.382889
Si Si3 0.671398 0.950161 0.426465
Si Si4 0.156460 0.194500 0.201158
Si Si5 0.500000 0.192710 0.549045
Si Si6 0.715107 0.645796 0.346682
O O1 0.500000 0.328928 0.064271
O O2 0.661492 0.250000 0.064612
O O3 0.732405 0.326046 0.142373
O O4 0.750000 0.329758 0.000000
O O5 0.871569 0.666770 0.341524
O O6 0.000000 0.750000 0.372728
O O7 0.000000 0.675689 0.466357
O O8 0.500000 0.956606 0.438275
O O9 0.750000 0.931793 0.500000
O O10 0.702593 0.912132 0.361608
O O11 0.750000 0.000000 0.402574
O O12 0.197375 0.250000 0.225974
O O13 0.145981 0.158443 0.269788
O O14 0.000000 0.195162 0.164892
O O15 0.500000 0.250000 0.556837
O O16 0.359995 0.172437 0.586295
#
# Coordination Sequence:
#
# PCOD8278899 Si02
#       6
#    16   8  16  16   8  16
#     4   9  17  29  46  69  97 132 173 210 244 290
#     4  11  24  34  49  73 102 138 177 216 255 305
#     4  11  23  39  59  78  97 127 172 226 280 327
#     4  10  19  32  49  70 101 138 171 207 254 308
#     4  11  20  36  51  69  98 136 175 210 251 311
#     4  12  23  35  53  74 102 135 174 219 268 314
#
# _framework density 16.898361999999999
#
# number of rings (size 3 to 8) (size 9 to 14) (size 15 to 20)
#    0.000    1.400    2.000    5.400    4.200    4.000 
#    0.000    0.000    0.000    0.000    0.000    0.000 
#    0.000    0.800    0.000    5.800    0.000    1.800 
#
# Total GULP energy -495902.070444 kJ/mol
# GULP energy per Si atom -12397.551761 kJ/mol
# Density = 1.685990 g / cm^3
# Si number density = 16.898362 Si / 1000 Ang^3
#
#
#
# Elastic Constant Matrix: (Units=GPa)
#
#
# Indices 1 2 3 4 5 6 
#
# 1 137.0830 25.0320 34.7591 0.0000 0.0000 0.0000
# 2 25.0320 56.1492 44.4957 0.0000 0.0000 0.0000
# 3 34.7591 44.4957 80.1001 0.0000 0.0000 0.0000
# 4 0.0000 0.0000 0.0000 12.3469 0.0000 0.0000
# 5 0.0000 0.0000 0.0000 0.0000 30.0871 0.0000
# 6 0.0000 0.0000 0.0000 0.0000 0.0000 24.0896
#
#
#
# Elastic Compliance Matrix: (Units=1/GPa)
#
#
# Indices 1 2 3 4 5 6 
#
# 1 0.008267 -0.001505 -0.002751 0.000000 0.000000 0.000000
# 2 -0.001505 0.032089 -0.017172 0.000000 0.000000 0.000000
# 3 -0.002751 -0.017172 0.023217 0.000000 0.000000 0.000000
# 4 0.000000 0.000000 0.000000 0.080992 0.000000 0.000000
# 5 0.000000 0.000000 0.000000 0.000000 0.033237 0.000000
# 6 0.000000 0.000000 0.000000 0.000000 0.000000 0.041512
#
#
# Mechanical properties :
#
#
# Convention : Reuss Voigt Hill
#
# Bulk Modulus (GPa) = 48.27193 53.54511 50.90852
# Shear Modulus (GPa) = 18.58201 24.57443 21.57822
#
# Velocity S-wave (km/s) = 3.31967 3.81760 3.57731
# Velocity P-wave (km/s) = 6.58192 7.15454 6.87419
#
# Compressibility (1/GPa) = 0.02071597
#
# Stress axis : x y z
#
# Youngs Moduli (GPa) = 120.95724 31.16339 43.07102
#
# Poissons Ratio (x) = 0.04691 0.11850
# Poissons Ratio (y) = 0.18209 0.73962
# Poissons Ratio (z) = 0.33280 0.53514
#
# Static dielectric constant tensor:
#      x y z
#    x 3.454310 0.000000 0.000000 
#    y 0.000000 2.902060 0.000000 
#    z 0.000000 0.000000 3.026350 
# 
# 
# High freq. dielectric constant tensor:
#      x y z
#    x 1.678940 0.000000 0.000000 
#    y 0.000000 1.604680 0.000000 
#    z 0.000000 0.000000 1.635540 
# 
# From -- ./inp_files/32318.got.cif
#   From: 2010.03.12/outbox.cif.g09.slc.cpg/sg67_17_cif.got.tgz:32318.got - 2010.04.10 22:41:39.
