data_PCOD8278744
_publ_section_title
;
Structure prediction by ZEFSAII (Michael W. Deem and Ramdas Pophale) SiO2 
 PCOD8278744
Probable space group: C M M A
;
_chemical_formula_sum "Si O2"
_cell_formula_units_Z 96
_cell_length_a 8.992178
_cell_length_b 27.549759
_cell_length_c 24.138562
_cell_angle_alpha 90.000000
_cell_angle_beta 90.000000
_cell_angle_gamma 90.000000
_cell_volume 5979.902371
_symmetry_space_group_name_H-M "C M M A"
_symmetry_group_IT_number 67
_symmetry_cell_setting 'orthorhombic'
loop_
_space_group_symop_operation_xyz
x,y,z
-x,1/2-y,z
x,-y,-z
-x,1/2+y,-z
-x,-y,-z
x,1/2+y,-z
-x,y,z
x,1/2-y,z
1/2+x,1/2+y,z
1/2-x,-y,z
1/2+x,1/2-y,-z
1/2-x,y,-z
1/2-x,1/2-y,-z
1/2+x,y,-z
1/2-x,1/2+y,z
1/2+x,-y,z
loop_
_atom_site_type_symbol
_atom_site_label
_atom_site_fract_x
_atom_site_fract_y
_atom_site_fract_z
Si Si1 0.674632 0.304594 0.335666
Si Si2 0.173327 0.052025 0.051611
Si Si3 0.826677 0.051632 0.173528
Si Si4 0.324056 0.362909 0.444075
Si Si5 0.825409 0.448213 0.384683
Si Si6 0.327311 0.612192 0.276220
O O1 0.500000 0.305861 0.327047
O O2 0.737027 0.250000 0.330740
O O3 0.717956 0.324953 0.395992
O O4 0.745182 0.337176 0.287361
O O5 0.201339 0.075261 0.112401
O O6 0.000000 0.046812 0.039008
O O7 0.250000 0.000000 0.053658
O O8 0.250000 0.081475 0.000000
O O9 0.765812 0.089636 0.218833
O O10 0.000000 0.041994 0.183472
O O11 0.750000 0.000000 0.181181
O O12 0.500000 0.368737 0.451201
O O13 0.250000 0.342432 0.500000
O O14 0.251308 0.414876 0.430936
O O15 0.750000 0.500000 0.387988
O O16 0.793260 0.426464 0.324206
O O17 0.000000 0.452186 0.397198
O O18 0.500000 0.624364 0.272193
#
# Coordination Sequence:
#
# PCOD8278744 Si02
#       6
#    16  16  16  16  16  16
#     4   9  19  35  52  69  89 112 137 170 215 262
#     4   9  15  23  35  52  79 115 152 186 215 245
#     4   9  17  27  40  61  89 120 152 184 216 250
#     4  10  20  34  50  68  90 113 140 174 210 251
#     4  10  19  31  47  66  89 117 147 177 211 251
#     4   9  18  31  46  66  90 114 144 180 215 256
#
# _framework density 16.053773
#
# number of rings (size 3 to 8) (size 9 to 14) (size 15 to 20)
#    0.000    2.667    0.000    2.500    0.000    3.667 
#    0.000    1.667    0.000    0.000    0.000    0.000 
#    0.000    0.667    0.000    1.500    0.000    3.000 
#
# Total GULP energy -595008.160977 kJ/mol
# GULP energy per Si atom -12396.003354 kJ/mol
# Density = 1.601723 g / cm^3
# Si number density = 16.053773 Si / 1000 Ang^3
#
#
#
# Elastic Constant Matrix: (Units=GPa)
#
#
# Indices 1 2 3 4 5 6 
#
# 1 65.0715 36.6409 43.9690 0.0000 0.0000 0.0000
# 2 36.6409 105.4474 50.5987 0.0000 0.0000 0.0000
# 3 43.9690 50.5987 129.1852 0.0000 0.0000 0.0000
# 4 0.0000 0.0000 0.0000 8.5390 0.0000 0.0000
# 5 0.0000 0.0000 0.0000 0.0000 24.0301 0.0000
# 6 0.0000 0.0000 0.0000 0.0000 0.0000 22.0038
#
#
#
# Elastic Compliance Matrix: (Units=1/GPa)
#
#
# Indices 1 2 3 4 5 6 
#
# 1 0.021881 -0.004962 -0.005504 0.000000 0.000000 0.000000
# 2 -0.004962 0.012804 -0.003326 0.000000 0.000000 0.000000
# 3 -0.005504 -0.003326 0.010917 0.000000 0.000000 0.000000
# 4 0.000000 0.000000 0.000000 0.117110 0.000000 0.000000
# 5 0.000000 0.000000 0.000000 0.000000 0.041615 0.000000
# 6 0.000000 0.000000 0.000000 0.000000 0.000000 0.045447
#
#
# Mechanical properties :
#
#
# Convention : Reuss Voigt Hill
#
# Bulk Modulus (GPa) = 55.50183 62.45794 58.97988
# Shear Modulus (GPa) = 17.64531 22.14761 19.89646
#
# Velocity S-wave (km/s) = 3.31892 3.71831 3.52428
# Velocity P-wave (km/s) = 7.02385 7.57789 7.30612
#
# Compressibility (1/GPa) = 0.01801742
#
# Stress axis : x y z
#
# Youngs Moduli (GPa) = 45.70237 78.10299 91.60253
#
# Poissons Ratio (x) = 0.38756 0.50415
# Poissons Ratio (y) = 0.22678 0.30467
# Poissons Ratio (z) = 0.25153 0.25977
#
# Static dielectric constant tensor:
#      x y z
#    x 3.102380 0.000000 0.000000 
#    y 0.000000 2.843560 0.000000 
#    z 0.000000 0.000000 3.714750 
# 
# 
# High freq. dielectric constant tensor:
#      x y z
#    x 1.626280 0.000000 0.000000 
#    y 0.000000 1.577010 0.000000 
#    z 0.000000 0.000000 1.623510 
# 
# From -- ./inp_files/40778.got.cif
#   From: 2010.03.12/outbox.cif.g09.slc.cpg/sg67_21_cif.got.tgz:40778.got - 2010.04.10 22:41:39.
