data_PCOD8278691
_publ_section_title
;
Structure prediction by ZEFSAII (Michael W. Deem and Ramdas Pophale) SiO2 
 PCOD8278691
Probable space group: C M M A
;
_chemical_formula_sum "Si O2"
_cell_formula_units_Z 104
_cell_length_a 8.824741
_cell_length_b 24.462299
_cell_length_c 26.332827
_cell_angle_alpha 90.000000
_cell_angle_beta 90.000000
_cell_angle_gamma 90.000000
_cell_volume 5684.558290
_symmetry_space_group_name_H-M "C M M A"
_symmetry_group_IT_number 67
_symmetry_cell_setting 'orthorhombic'
loop_
_space_group_symop_operation_xyz
x,y,z
-x,1/2-y,z
x,-y,-z
-x,1/2+y,-z
-x,-y,-z
x,1/2+y,-z
-x,y,z
x,1/2-y,z
1/2+x,1/2+y,z
1/2-x,-y,z
1/2+x,1/2-y,-z
1/2-x,y,-z
1/2-x,1/2-y,-z
1/2+x,y,-z
1/2-x,1/2+y,z
1/2+x,-y,z
loop_
_atom_site_type_symbol
_atom_site_label
_atom_site_fract_x
_atom_site_fract_y
_atom_site_fract_z
Si Si1 0.824558 0.169964 0.129642
Si Si2 0.824087 0.865468 0.366204
Si Si3 0.322510 0.250000 0.054776
Si Si4 0.178552 0.750000 0.326797
Si Si5 0.822923 0.554885 0.831579
Si Si6 0.820045 0.056672 0.445336
Si Si7 0.674623 0.750000 0.217500
Si Si8 0.824449 0.054404 0.724082
O O1 0.726360 0.195621 0.084782
O O2 0.788999 0.105478 0.131167
O O3 0.782946 0.196718 0.184027
O O4 0.000000 0.182019 0.117683
O O5 0.767491 0.803290 0.358148
O O6 0.721937 0.892971 0.409231
O O7 0.796575 0.895281 0.312974
O O8 0.000000 0.868657 0.382572
O O9 0.500000 0.250000 0.048195
O O10 0.250000 0.250000 0.000000
O O11 0.233855 0.750000 0.269249
O O12 0.000000 0.750000 0.322492
O O13 0.750000 0.500000 0.855272
O O14 0.752833 0.568587 0.777152
O O15 0.000000 0.545622 0.824342
O O16 0.750000 0.069469 0.500000
O O17 0.000000 0.050579 0.449343
O O18 0.750000 0.000000 0.423790
O O19 0.500000 0.750000 0.232942
O O20 0.000000 0.042828 0.733463
O O21 0.750000 0.000000 0.699959
#
# Coordination Sequence:
#
# PCOD8278691 Si02
#       8
#    16  16   8   8  16  16   8  16
#     4   9  19  35  53  76 107 142 177 216 262 308
#     4  10  21  36  52  74 104 138 174 212 255 302
#     4  11  22  36  58  83 106 133 168 217 267 312
#     4  10  21  35  51  73 107 145 178 214 252 296
#     4  10  19  31  49  73 106 144 179 215 254 302
#     4  11  22  38  61  84 104 126 157 203 256 310
#     4   9  17  31  51  74 103 138 180 223 258 300
#     4  10  19  30  47  72 104 138 175 217 258 303
#
# _framework density 18.295176000000001
#
# number of rings (size 3 to 8) (size 9 to 14) (size 15 to 20)
#    0.000    2.000    0.000    6.231    0.000    5.538 
#    0.000    0.385    0.000    0.462    0.000    3.231 
#    0.000    0.000    0.000    0.000    0.000    0.000 
#
# Total GULP energy -644843.817314 kJ/mol
# GULP energy per Si atom -12400.842641 kJ/mol
# Density = 1.825354 g / cm^3
# Si number density = 18.295176 Si / 1000 Ang^3
#
#
#
# Elastic Constant Matrix: (Units=GPa)
#
#
# Indices 1 2 3 4 5 6 
#
# 1 121.9012 65.4260 55.6116 0.0000 0.0000 0.0000
# 2 65.4260 156.2080 64.1538 0.0000 0.0000 0.0000
# 3 55.6116 64.1538 93.5873 0.0000 0.0000 0.0000
# 4 0.0000 0.0000 0.0000 12.2068 0.0000 0.0000
# 5 0.0000 0.0000 0.0000 0.0000 31.1506 0.0000
# 6 0.0000 0.0000 0.0000 0.0000 0.0000 26.4149
#
#
#
# Elastic Compliance Matrix: (Units=1/GPa)
#
#
# Indices 1 2 3 4 5 6 
#
# 1 0.012164 -0.002959 -0.005199 0.000000 0.000000 0.000000
# 2 -0.002959 0.009630 -0.004843 0.000000 0.000000 0.000000
# 3 -0.005199 -0.004843 0.017095 0.000000 0.000000 0.000000
# 4 0.000000 0.000000 0.000000 0.081922 0.000000 0.000000
# 5 0.000000 0.000000 0.000000 0.000000 0.032102 0.000000
# 6 0.000000 0.000000 0.000000 0.000000 0.000000 0.037857
#
#
# Mechanical properties :
#
#
# Convention : Reuss Voigt Hill
#
# Bulk Modulus (GPa) = 77.60815 82.45327 80.03071
# Shear Modulus (GPa) = 22.61748 26.38812 24.50280
#
# Velocity S-wave (km/s) = 3.51985 3.80195 3.66362
# Velocity P-wave (km/s) = 7.68318 8.02741 7.85718
#
# Compressibility (1/GPa) = 0.01288524
#
# Stress axis : x y z
#
# Youngs Moduli (GPa) = 82.21277 103.84038 58.49798
#
# Poissons Ratio (x) = 0.30729 0.30415
# Poissons Ratio (y) = 0.24329 0.28331
# Poissons Ratio (z) = 0.42745 0.50290
#
# Static dielectric constant tensor:
#      x y z
#    x 3.420480 0.000000 0.000000 
#    y 0.000000 5.628950 0.000000 
#    z 0.000000 0.000000 3.114530 
# 
# 
# High freq. dielectric constant tensor:
#      x y z
#    x 1.715500 0.000000 0.000000 
#    y 0.000000 1.717120 0.000000 
#    z 0.000000 0.000000 1.684880 
# 
# From -- ./inp_files/41058.got.cif
#   From: 2010.03.12/outbox.cif.g09.slc.cpg/sg67_21_cif.got.tgz:41058.got - 2010.04.10 22:41:39.
