data_PCOD8278777
_publ_section_title
;
Structure prediction by ZEFSAII (Michael W. Deem and Ramdas Pophale) SiO2 
 PCOD8278777
Probable space group: C M M A
;
_chemical_formula_sum "Si O2"
_cell_formula_units_Z 96
_cell_length_a 17.869634
_cell_length_b 26.251694
_cell_length_c 11.599027
_cell_angle_alpha 90.000000
_cell_angle_beta 90.000000
_cell_angle_gamma 90.000000
_cell_volume 5441.198256
_symmetry_space_group_name_H-M "C M M A"
_symmetry_group_IT_number 67
_symmetry_cell_setting 'orthorhombic'
loop_
_space_group_symop_operation_xyz
x,y,z
-x,1/2-y,z
x,-y,-z
-x,1/2+y,-z
-x,-y,-z
x,1/2+y,-z
-x,y,z
x,1/2-y,z
1/2+x,1/2+y,z
1/2-x,-y,z
1/2+x,1/2-y,-z
1/2-x,y,-z
1/2-x,1/2-y,-z
1/2+x,y,-z
1/2-x,1/2+y,z
1/2+x,-y,z
loop_
_atom_site_type_symbol
_atom_site_label
_atom_site_fract_x
_atom_site_fract_y
_atom_site_fract_z
Si Si1 0.673693 0.933698 0.802919
Si Si2 0.414001 0.606659 0.348422
Si Si3 0.913520 0.551409 0.429852
Si Si4 0.158364 0.547306 0.833198
Si Si5 0.412742 0.380934 0.011294
Si Si6 0.088624 0.806365 0.814693
O O1 0.644725 0.937797 0.672079
O O2 0.761892 0.924471 0.815466
O O3 0.660631 0.988034 0.863604
O O4 0.631786 0.887293 0.868305
O O5 0.500000 0.607982 0.316014
O O6 0.401561 0.600272 0.485018
O O7 0.382470 0.555557 0.288804
O O8 0.379055 0.657976 0.289688
O O9 0.894276 0.500000 0.500000
O O10 0.000000 0.549521 0.386120
O O11 0.109628 0.571363 0.933777
O O12 0.500000 0.382250 0.040646
O O13 0.390797 0.329874 0.940492
O O14 0.124755 0.750000 0.804868
O O15 0.000000 0.802211 0.803822
#
# Coordination Sequence:
#
# PCOD8278777 Si02
#       6
#    16  16  16  16  16  16
#     4  11  21  31  45  69 103 138 163 194 239 290
#     4   9  17  31  50  72  95 125 166 206 241 281
#     4  10  19  31  48  70 100 132 166 200 233 285
#     4  10  20  32  45  68  98 136 168 198 229 290
#     4  10  20  32  50  72  95 125 164 204 251 293
#     4   8  15  30  53  76  94 117 160 215 257 291
#
# _framework density 17.643173000000001
#
# number of rings (size 3 to 8) (size 9 to 14) (size 15 to 20)
#    0.000    2.333    1.667    3.000    0.000    4.667 
#    0.000    0.000    0.000    9.000    0.000    9.333 
#    0.000    0.000    0.000    0.000    0.000    0.000 
#
# Total GULP energy -594679.748900 kJ/mol
# GULP energy per Si atom -12389.161435 kJ/mol
# Density = 1.760302 g / cm^3
# Si number density = 17.643173 Si / 1000 Ang^3
#
#
#
# Elastic Constant Matrix: (Units=GPa)
#
#
# Indices 1 2 3 4 5 6 
#
# 1 25.6038 14.1434 16.7570 0.0000 0.0000 0.0000
# 2 14.1434 78.0058 23.4991 0.0000 0.0000 0.0000
# 3 16.7570 23.4991 61.2424 0.0000 0.0000 0.0000
# 4 0.0000 0.0000 0.0000 17.6406 0.0000 0.0000
# 5 0.0000 0.0000 0.0000 0.0000 14.5192 0.0000
# 6 0.0000 0.0000 0.0000 0.0000 0.0000 11.2267
#
#
#
# Elastic Compliance Matrix: (Units=1/GPa)
#
#
# Indices 1 2 3 4 5 6 
#
# 1 0.049612 -0.005547 -0.011446 0.000000 0.000000 0.000000
# 2 -0.005547 0.015115 -0.004282 0.000000 0.000000 0.000000
# 3 -0.011446 -0.004282 0.021104 0.000000 0.000000 0.000000
# 4 0.000000 0.000000 0.000000 0.056687 0.000000 0.000000
# 5 0.000000 0.000000 0.000000 0.000000 0.068874 0.000000
# 6 0.000000 0.000000 0.000000 0.000000 0.000000 0.089074
#
#
# Mechanical properties :
#
#
# Convention : Reuss Voigt Hill
#
# Bulk Modulus (GPa) = 23.10535 30.40567 26.75551
# Shear Modulus (GPa) = 13.98822 16.04080 15.01451
#
# Velocity S-wave (km/s) = 2.81880 3.01853 2.92037
# Velocity P-wave (km/s) = 4.87016 5.42400 5.15453
#
# Compressibility (1/GPa) = 0.04328002
#
# Stress axis : x y z
#
# Youngs Moduli (GPa) = 20.15636 66.15822 47.38542
#
# Poissons Ratio (x) = 0.36699 0.54239
# Poissons Ratio (y) = 0.11181 0.20291
# Poissons Ratio (z) = 0.23072 0.28329
#
# Static dielectric constant tensor:
#      x y z
#    x 3.192560 0.000000 0.000000 
#    y 0.000000 3.410530 0.000000 
#    z 0.000000 0.000000 3.375390 
# 
# 
# High freq. dielectric constant tensor:
#      x y z
#    x 1.668810 0.000000 0.000000 
#    y 0.000000 1.650730 0.000000 
#    z 0.000000 0.000000 1.681390 
# 
# From -- ./inp_files/19827.got.cif
#   From: 2010.03.12/outbox.cif.g09.slc.cpg/sg67_10_cif.got.tgz:19827.got - 2010.04.10 22:41:39.
