data_PCOD8278470
_publ_section_title
;
Structure prediction by ZEFSAII (Michael W. Deem and Ramdas Pophale) SiO2 
 PCOD8278470
Probable space group: C M M A
;
_chemical_formula_sum "Si O2"
_cell_formula_units_Z 128
_cell_length_a 18.267753
_cell_length_b 17.475453
_cell_length_c 22.952194
_cell_angle_alpha 90.000000
_cell_angle_beta 90.000000
_cell_angle_gamma 90.000000
_cell_volume 7327.195500
_symmetry_space_group_name_H-M "C M M A"
_symmetry_group_IT_number 67
_symmetry_cell_setting 'orthorhombic'
loop_
_space_group_symop_operation_xyz
x,y,z
-x,1/2-y,z
x,-y,-z
-x,1/2+y,-z
-x,-y,-z
x,1/2+y,-z
-x,y,z
x,1/2-y,z
1/2+x,1/2+y,z
1/2-x,-y,z
1/2+x,1/2-y,-z
1/2-x,y,-z
1/2-x,1/2-y,-z
1/2+x,y,-z
1/2-x,1/2+y,z
1/2+x,-y,z
loop_
_atom_site_type_symbol
_atom_site_label
_atom_site_fract_x
_atom_site_fract_y
_atom_site_fract_z
Si Si1 0.207932 0.161511 0.823261
Si Si2 0.084600 0.461228 0.822520
Si Si3 0.831119 0.334662 0.477270
Si Si4 0.675620 0.956825 0.378402
Si Si5 0.080844 0.559615 0.447447
Si Si6 0.916733 0.456853 0.058447
Si Si7 0.789595 0.661461 0.941053
Si Si8 0.811486 0.062571 0.245279
O O1 0.188956 0.250000 0.812219
O O2 0.134215 0.113500 0.809502
O O3 0.232217 0.145937 0.889449
O O4 0.277215 0.139850 0.781864
O O5 0.090621 0.481443 0.890296
O O6 0.114124 0.534493 0.785939
O O7 0.000000 0.444877 0.804891
O O8 0.858934 0.250000 0.461062
O O9 0.750000 0.333443 0.500000
O O10 0.838287 0.384833 0.419535
O O11 0.877730 0.364798 0.531845
O O12 0.672227 0.925339 0.313179
O O13 0.750000 0.000000 0.394490
O O14 0.614174 0.021297 0.389455
O O15 0.084128 0.500000 0.500000
O O16 0.000000 0.584814 0.430641
O O17 0.863549 0.385637 0.069425
O O18 0.000000 0.425572 0.054464
O O19 0.893367 0.500000 0.000000
O O20 0.812719 0.750000 0.944022
O O21 0.750000 0.634748 0.000000
O O22 0.750000 0.000000 0.234022
#
# Coordination Sequence:
#
# PCOD8278470 Si02
#       8
#    16  16  16  16  16  16  16  16
#     4  10  20  35  54  78 109 141 178 225 275 325
#     4  10  20  35  54  77 107 142 182 226 274 325
#     4  10  19  31  51  79 110 140 174 214 260 313
#     4  10  18  32  54  78 102 138 179 221 258 305
#     4   9  18  31  50  75 102 135 171 210 258 308
#     4  10  20  33  52  78 105 138 181 230 281 330
#     4  10  20  33  52  78 106 140 180 224 277 335
#     4   9  19  34  54  77 103 139 183 225 263 312
#
# _framework density 17.469166999999999
#
# number of rings (size 3 to 8) (size 9 to 14) (size 15 to 20)
#    0.000    2.250    2.500    0.750    0.000    3.000 
#    0.000    0.000    0.000    4.875    0.000    3.500 
#    0.000    0.000    0.000    0.000    0.000    0.000 
#
# Total GULP energy -793510.891135 kJ/mol
# GULP energy per Si atom -12398.607674 kJ/mol
# Density = 1.742941 g / cm^3
# Si number density = 17.469167 Si / 1000 Ang^3
#
#
#
# Elastic Constant Matrix: (Units=GPa)
#
#
# Indices 1 2 3 4 5 6 
#
# 1 117.1202 59.0756 30.4553 0.0000 0.0000 0.0000
# 2 59.0756 98.8750 34.9162 0.0000 0.0000 0.0000
# 3 30.4553 34.9162 89.6871 0.0000 0.0000 0.0000
# 4 0.0000 0.0000 0.0000 24.1800 0.0000 0.0000
# 5 0.0000 0.0000 0.0000 0.0000 11.6462 0.0000
# 6 0.0000 0.0000 0.0000 0.0000 0.0000 39.9329
#
#
#
# Elastic Compliance Matrix: (Units=1/GPa)
#
#
# Indices 1 2 3 4 5 6 
#
# 1 0.012402 -0.006867 -0.001538 0.000000 0.000000 0.000000
# 2 -0.006867 0.015528 -0.003713 0.000000 0.000000 0.000000
# 3 -0.001538 -0.003713 0.013118 0.000000 0.000000 0.000000
# 4 0.000000 0.000000 0.000000 0.041357 0.000000 0.000000
# 5 0.000000 0.000000 0.000000 0.000000 0.085865 0.000000
# 6 0.000000 0.000000 0.000000 0.000000 0.000000 0.025042
#
#
# Mechanical properties :
#
#
# Convention : Reuss Voigt Hill
#
# Bulk Modulus (GPa) = 59.48427 61.61962 60.55195
# Shear Modulus (GPa) = 22.40638 27.23415 24.82026
#
# Velocity S-wave (km/s) = 3.58526 3.95268 3.77344
# Velocity P-wave (km/s) = 7.15987 7.49543 7.32957
#
# Compressibility (1/GPa) = 0.01681117
#
# Stress axis : x y z
#
# Youngs Moduli (GPa) = 80.63397 64.40069 76.23213
#
# Poissons Ratio (x) = 0.44222 0.11725
# Poissons Ratio (y) = 0.55368 0.28308
# Poissons Ratio (z) = 0.12402 0.23915
#
# Static dielectric constant tensor:
#      x y z
#    x 3.306450 0.000000 0.000000 
#    y 0.000000 3.263190 0.000000 
#    z 0.000000 0.000000 3.222200 
# 
# 
# High freq. dielectric constant tensor:
#      x y z
#    x 1.675020 0.000000 0.000000 
#    y 0.000000 1.663180 0.000000 
#    z 0.000000 0.000000 1.672080 
# 
# From -- ./inp_files/42243.got.cif
#   From: 2010.03.12/outbox.cif.g09.slc.cpg/sg67_22_cif.got.tgz:42243.got - 2010.04.10 22:41:39.
