data_PCOD8278450
_publ_section_title
;
Structure prediction by ZEFSAII (Michael W. Deem and Ramdas Pophale) SiO2 
 PCOD8278450
Probable space group: C M M A
;
_chemical_formula_sum "Si O2"
_cell_formula_units_Z 104
_cell_length_a 8.698313
_cell_length_b 29.573050
_cell_length_c 20.221451
_cell_angle_alpha 90.000000
_cell_angle_beta 90.000000
_cell_angle_gamma 90.000000
_cell_volume 5201.677996
_symmetry_space_group_name_H-M "C M M A"
_symmetry_group_IT_number 67
_symmetry_cell_setting 'orthorhombic'
loop_
_space_group_symop_operation_xyz
x,y,z
-x,1/2-y,z
x,-y,-z
-x,1/2+y,-z
-x,-y,-z
x,1/2+y,-z
-x,y,z
x,1/2-y,z
1/2+x,1/2+y,z
1/2-x,-y,z
1/2+x,1/2-y,-z
1/2-x,y,-z
1/2-x,1/2-y,-z
1/2+x,y,-z
1/2-x,1/2+y,z
1/2+x,-y,z
loop_
_atom_site_type_symbol
_atom_site_label
_atom_site_fract_x
_atom_site_fract_y
_atom_site_fract_z
Si Si1 0.329242 0.955088 0.907201
Si Si2 0.679543 0.630251 0.302942
Si Si3 0.328649 0.544487 0.751915
Si Si4 0.317595 0.250000 0.572760
Si Si5 0.682775 0.698653 0.191885
Si Si6 0.319778 0.840959 0.571482
Si Si7 0.681767 0.640560 0.067962
O O1 0.500000 0.949353 0.937725
O O2 0.342869 0.961276 0.829497
O O3 0.229383 0.911516 0.925088
O O4 0.250000 0.000000 0.937534
O O5 0.500000 0.633318 0.319223
O O6 0.715378 0.585909 0.261282
O O7 0.734761 0.673237 0.259130
O O8 0.773654 0.623654 0.371867
O O9 0.500000 0.551511 0.721549
O O10 0.250000 0.500000 0.720377
O O11 0.500000 0.250000 0.574557
O O12 0.250000 0.250000 0.500000
O O13 0.252581 0.204460 0.604731
O O14 0.500000 0.699468 0.188816
O O15 0.748285 0.750000 0.192320
O O16 0.746986 0.671081 0.128434
O O17 0.500000 0.836157 0.561598
O O18 0.250000 0.853555 0.500000
O O19 0.500000 0.643590 0.065979
O O20 0.750000 0.660762 0.000000
#
# Coordination Sequence:
#
# PCOD8278450 Si02
#       7
#    16  16  16   8  16  16  16
#     4  10  20  35  57  84 116 149 186 233 290 350
#     4  11  21  36  61  89 118 155 197 241 293 349
#     4  10  20  35  58  87 119 151 190 238 291 349
#     4  10  18  32  52  76 108 150 193 236 285 344
#     4   9  20  38  59  84 114 151 196 242 288 341
#     4  11  22  37  55  82 118 157 199 244 294 350
#     4  11  22  38  59  83 114 152 195 241 292 348
#
# _framework density 19.993547
#
# number of rings (size 3 to 8) (size 9 to 14) (size 15 to 20)
#    0.000    1.692    1.538    4.846    1.077    1.846 
#    0.000    1.538    0.000    5.538    0.000    3.231 
#    0.000    0.000    0.000    0.000    0.000    0.000 
#
# Total GULP energy -644639.656475 kJ/mol
# GULP energy per Si atom -12396.916471 kJ/mol
# Density = 1.994804 g / cm^3
# Si number density = 19.993547 Si / 1000 Ang^3
#
#
#
# Elastic Constant Matrix: (Units=GPa)
#
#
# Indices 1 2 3 4 5 6 
#
# 1 115.4903 24.4818 39.9338 0.0000 0.0000 0.0000
# 2 24.4818 111.0424 37.5491 0.0000 0.0000 0.0000
# 3 39.9338 37.5491 102.7619 0.0000 0.0000 0.0000
# 4 0.0000 0.0000 0.0000 -4.4841 0.0000 0.0000
# 5 0.0000 0.0000 0.0000 0.0000 29.0877 0.0000
# 6 0.0000 0.0000 0.0000 0.0000 0.0000 29.7592
#
#
#
# Elastic Compliance Matrix: (Units=1/GPa)
#
#
# Indices 1 2 3 4 5 6 
#
# 1 0.010104 -0.001027 -0.003551 0.000000 0.000000 0.000000
# 2 -0.001027 0.010380 -0.003394 0.000000 0.000000 0.000000
# 3 -0.003551 -0.003394 0.012351 0.000000 0.000000 0.000000
# 4 0.000000 0.000000 0.000000 -0.223008 0.000000 0.000000
# 5 0.000000 0.000000 0.000000 0.000000 0.034379 0.000000
# 6 0.000000 0.000000 0.000000 0.000000 0.000000 0.033603
#
#
# Mechanical properties :
#
#
# Convention : Reuss Voigt Hill
#
# Bulk Modulus (GPa) = 59.20132 59.24711 59.22421
# Shear Modulus (GPa) = -49.69367 26.02787 -11.83290
#
# Velocity S-wave (km/s) = -4.99087 3.61198 -2.43541
# Velocity P-wave (km/s) = 1.88076 6.86241 4.66666
#
# Compressibility (1/GPa) = 0.01689152
#
# Stress axis : x y z
#
# Youngs Moduli (GPa) = 98.96678 96.34357 80.96273
#
# Poissons Ratio (x) = 0.09893 0.28753
# Poissons Ratio (y) = 0.10162 0.27476
# Poissons Ratio (z) = 0.35147 0.32696
#
# Static dielectric constant tensor:
#      x y z
#    x 3.644060 0.000000 0.000000 
#    y 0.000000 4.236240 0.000000 
#    z 0.000000 0.000000 3.631780 
# 
# 
# High freq. dielectric constant tensor:
#      x y z
#    x 1.779140 0.000000 0.000000 
#    y 0.000000 1.770960 0.000000 
#    z 0.000000 0.000000 1.775380 
# 
# From -- ./inp_files/37488.got.cif
#   From: 2010.03.12/outbox.cif.g09.slc.cpg/sg67_19_cif.got.tgz:37488.got - 2010.04.10 22:41:39.
