data_PCOD8278003
_publ_section_title
;
Structure prediction by ZEFSAII (Michael W. Deem and Ramdas Pophale) SiO2 
 PCOD8278003
Probable space group: C M M A
;
_chemical_formula_sum "Si O2"
_cell_formula_units_Z 96
_cell_length_a 27.372272
_cell_length_b 8.819965
_cell_length_c 23.993841
_cell_angle_alpha 90.000000
_cell_angle_beta 90.000000
_cell_angle_gamma 90.000000
_cell_volume 5792.652623
_symmetry_space_group_name_H-M "C M M A"
_symmetry_group_IT_number 67
_symmetry_cell_setting 'orthorhombic'
loop_
_space_group_symop_operation_xyz
x,y,z
-x,1/2-y,z
x,-y,-z
-x,1/2+y,-z
-x,-y,-z
x,1/2+y,-z
-x,y,z
x,1/2-y,z
1/2+x,1/2+y,z
1/2-x,-y,z
1/2+x,1/2-y,-z
1/2-x,y,-z
1/2-x,1/2-y,-z
1/2+x,y,-z
1/2-x,1/2+y,z
1/2+x,-y,z
loop_
_atom_site_type_symbol
_atom_site_label
_atom_site_fract_x
_atom_site_fract_y
_atom_site_fract_z
Si Si1 0.197709 0.572781 0.665624
Si Si2 0.944563 0.571559 0.170173
Si Si3 0.896358 0.573481 0.057605
Si Si4 0.145936 0.925535 0.779918
Si Si5 0.300605 0.571766 0.880058
Si Si6 0.804060 0.069082 0.555006
O O1 0.205472 0.750000 0.652887
O O2 0.250000 0.500000 0.679975
O O3 0.161237 0.545263 0.716581
O O4 0.171809 0.490818 0.612401
O O5 0.934986 0.750000 0.176137
O O6 0.932500 0.520019 0.106947
O O7 0.909190 0.486397 0.213168
O O8 0.000000 0.527067 0.184492
O O9 0.900728 0.750000 0.048533
O O10 0.841181 0.526698 0.074192
O O11 0.912746 0.500000 0.000000
O O12 0.147882 0.750000 0.795889
O O13 0.183808 0.011925 0.819585
O O14 0.294348 0.750000 0.874951
O O15 0.250000 0.500000 0.900018
O O16 0.803772 0.250000 0.552157
O O17 0.830926 0.000000 0.500000
O O18 0.750000 0.000000 0.556463
#
# Coordination Sequence:
#
# PCOD8278003 Si02
#       6
#    16  16  16  16  16  16
#     4  10  19  29  42  64  93 124 158 192 225 263
#     4   9  19  36  54  70  91 118 146 181 229 280
#     4   9  19  33  48  68  92 117 147 183 222 268
#     4  10  20  32  48  70  94 119 151 191 230 272
#     4  10  20  33  48  66  91 122 154 187 224 268
#     4  10  17  26  40  58  85 122 161 196 228 261
#
# _framework density 16.572717999999998
#
# number of rings (size 3 to 8) (size 9 to 14) (size 15 to 20)
#    0.000    2.333    0.000    6.000    0.000    8.333 
#    0.000    1.667    0.000    0.000    0.000    0.000 
#    0.000    0.667    0.000    2.167    0.000    3.500 
#
# Total GULP energy -595103.277666 kJ/mol
# GULP energy per Si atom -12397.984951 kJ/mol
# Density = 1.653500 g / cm^3
# Si number density = 16.572718 Si / 1000 Ang^3
#
#
#
# Elastic Constant Matrix: (Units=GPa)
#
#
# Indices 1 2 3 4 5 6 
#
# 1 69.0004 25.5759 27.6632 0.0000 0.0000 0.0000
# 2 25.5759 86.7936 45.3784 0.0000 0.0000 0.0000
# 3 27.6632 45.3784 106.5923 0.0000 0.0000 0.0000
# 4 0.0000 0.0000 0.0000 30.2952 0.0000 0.0000
# 5 0.0000 0.0000 0.0000 0.0000 11.9717 0.0000
# 6 0.0000 0.0000 0.0000 0.0000 0.0000 18.5978
#
#
#
# Elastic Compliance Matrix: (Units=1/GPa)
#
#
# Indices 1 2 3 4 5 6 
#
# 1 0.016949 -0.003466 -0.002923 0.000000 0.000000 0.000000
# 2 -0.003466 0.015529 -0.005711 0.000000 0.000000 0.000000
# 3 -0.002923 -0.005711 0.012572 0.000000 0.000000 0.000000
# 4 0.000000 0.000000 0.000000 0.033008 0.000000 0.000000
# 5 0.000000 0.000000 0.000000 0.000000 0.083530 0.000000
# 6 0.000000 0.000000 0.000000 0.000000 0.000000 0.053770
#
#
# Mechanical properties :
#
#
# Convention : Reuss Voigt Hill
#
# Bulk Modulus (GPa) = 47.96515 51.06902 49.51708
# Shear Modulus (GPa) = 20.28318 23.09088 21.68703
#
# Velocity S-wave (km/s) = 3.50221 3.73675 3.62138
# Velocity P-wave (km/s) = 6.73491 7.03561 6.88690
#
# Compressibility (1/GPa) = 0.02084847
#
# Stress axis : x y z
#
# Youngs Moduli (GPa) = 58.99918 64.39501 79.54415
#
# Poissons Ratio (x) = 0.22321 0.23252
# Poissons Ratio (y) = 0.20451 0.45431
# Poissons Ratio (z) = 0.17246 0.36779
#
# Static dielectric constant tensor:
#      x y z
#    x 2.943130 0.000000 0.000000 
#    y 0.000000 3.200740 0.000000 
#    z 0.000000 0.000000 3.546490 
# 
# 
# High freq. dielectric constant tensor:
#      x y z
#    x 1.598930 0.000000 0.000000 
#    y 0.000000 1.652060 0.000000 
#    z 0.000000 0.000000 1.640330 
# 
# From -- ./inp_files/40928.got.cif
#   From: 2010.03.12/outbox.cif.g09.slc.cpg/sg67_21_cif.got.tgz:40928.got - 2010.04.10 22:41:39.
