data_PCOD8278106
_publ_section_title
;
Structure prediction by ZEFSAII (Michael W. Deem and Ramdas Pophale) SiO2 
 PCOD8278106
Probable space group: C M M A
;
_chemical_formula_sum "Si O2"
_cell_formula_units_Z 80
_cell_length_a 8.688699
_cell_length_b 18.561935
_cell_length_c 26.304453
_cell_angle_alpha 90.000000
_cell_angle_beta 90.000000
_cell_angle_gamma 90.000000
_cell_volume 4242.357613
_symmetry_space_group_name_H-M "C M M A"
_symmetry_group_IT_number 67
_symmetry_cell_setting 'orthorhombic'
loop_
_space_group_symop_operation_xyz
x,y,z
-x,1/2-y,z
x,-y,-z
-x,1/2+y,-z
-x,-y,-z
x,1/2+y,-z
-x,y,z
x,1/2-y,z
1/2+x,1/2+y,z
1/2-x,-y,z
1/2+x,1/2-y,-z
1/2-x,y,-z
1/2-x,1/2-y,-z
1/2+x,y,-z
1/2-x,1/2+y,z
1/2+x,-y,z
loop_
_atom_site_type_symbol
_atom_site_label
_atom_site_fract_x
_atom_site_fract_y
_atom_site_fract_z
Si Si1 0.180385 0.420973 0.450849
Si Si2 0.682923 0.580048 0.050567
Si Si3 0.820616 0.665944 0.756887
Si Si4 0.818735 0.921313 0.153268
Si Si5 0.680290 0.077981 0.660149
O O1 0.250000 0.500000 0.451218
O O2 0.250000 0.377918 0.500000
O O3 0.225189 0.388417 0.395410
O O4 0.000000 0.424289 0.458339
O O5 0.500000 0.580221 0.048760
O O6 0.750000 0.500000 0.051190
O O7 0.743578 0.615585 0.102812
O O8 0.750000 0.619839 0.000000
O O9 0.786000 0.750000 0.755547
O O10 0.717842 0.630854 0.800390
O O11 0.765068 0.633614 0.703069
O O12 0.000000 0.649599 0.767222
O O13 0.000000 0.928877 0.145355
O O14 0.750000 0.000000 0.164564
O O15 0.500000 0.066260 0.662449
O O16 0.750000 0.000000 0.670730
#
# Coordination Sequence:
#
# PCOD8278106 Si02
#       5
#    16  16  16  16  16
#     4   9  15  24  40  65  95 123 154 193 241 292
#     4  10  17  28  47  74 106 136 167 204 250 297
#     4  10  21  37  54  72  98 133 171 211 257 306
#     4  11  21  34  53  78 106 135 171 211 252 299
#     4   9  18  31  49  73  98 127 163 204 248 297
#
# _framework density 18.857438999999999
#
# number of rings (size 3 to 8) (size 9 to 14) (size 15 to 20)
#    0.000    2.200    0.000    7.200    0.000    3.600 
#    0.000    0.000    0.000    1.200    0.000    0.000 
#    0.000    0.000    0.000    0.000    0.000    5.400 
#
# Total GULP energy -495675.548850 kJ/mol
# GULP energy per Si atom -12391.888721 kJ/mol
# Density = 1.881452 g / cm^3
# Si number density = 18.857439 Si / 1000 Ang^3
#
#
#
# Elastic Constant Matrix: (Units=GPa)
#
#
# Indices 1 2 3 4 5 6 
#
# 1 120.0135 27.4207 70.1352 0.0000 0.0000 0.0000
# 2 27.4207 56.9762 51.2146 0.0000 0.0000 0.0000
# 3 70.1352 51.2146 202.9993 0.0000 0.0000 0.0000
# 4 0.0000 0.0000 0.0000 -9.5087 0.0000 0.0000
# 5 0.0000 0.0000 0.0000 0.0000 36.6618 0.0000
# 6 0.0000 0.0000 0.0000 0.0000 0.0000 14.9054
#
#
#
# Elastic Compliance Matrix: (Units=1/GPa)
#
#
# Indices 1 2 3 4 5 6 
#
# 1 0.010680 -0.002358 -0.003095 0.000000 0.000000 0.000000
# 2 -0.002358 0.023219 -0.005043 0.000000 0.000000 0.000000
# 3 -0.003095 -0.005043 0.007268 0.000000 0.000000 0.000000
# 4 0.000000 0.000000 0.000000 -0.105167 0.000000 0.000000
# 5 0.000000 0.000000 0.000000 0.000000 0.027276 0.000000
# 6 0.000000 0.000000 0.000000 0.000000 0.000000 0.067090
#
#
# Mechanical properties :
#
#
# Convention : Reuss Voigt Hill
#
# Bulk Modulus (GPa) = 49.56732 75.28109 62.42420
# Shear Modulus (GPa) = 86.08336 23.82625 54.95481
#
# Velocity S-wave (km/s) = 6.76377 3.55842 5.40421
# Velocity P-wave (km/s) = 9.34562 7.54261 8.49210
#
# Compressibility (1/GPa) = 0.02017458
#
# Stress axis : x y z
#
# Youngs Moduli (GPa) = 93.63480 43.06763 137.59315
#
# Poissons Ratio (x) = 0.10155 0.42584
# Poissons Ratio (y) = 0.22078 0.69393
# Poissons Ratio (z) = 0.28980 0.21721
#
# Static dielectric constant tensor:
#      x y z
#    x 3.411430 0.000000 0.000000 
#    y 0.000000 2.839040 0.000000 
#    z 0.000000 0.000000 5.213390 
# 
# 
# High freq. dielectric constant tensor:
#      x y z
#    x 1.740060 0.000000 0.000000 
#    y 0.000000 1.662240 0.000000 
#    z 0.000000 0.000000 1.770620 
# 
# From -- ./inp_files/43269.got.cif
#   From: 2010.03.12/outbox.cif.g09.slc.cpg/sg67_22_cif.got.tgz:43269.got - 2010.04.10 22:41:39.
