data_PCOD8278206
_publ_section_title
;
Structure prediction by ZEFSAII (Michael W. Deem and Ramdas Pophale) SiO2 
 PCOD8278206
Probable space group: C M M A
;
_chemical_formula_sum "Si O2"
_cell_formula_units_Z 96
_cell_length_a 17.707967
_cell_length_b 26.374379
_cell_length_c 11.852774
_cell_angle_alpha 90.000000
_cell_angle_beta 90.000000
_cell_angle_gamma 90.000000
_cell_volume 5535.679660
_symmetry_space_group_name_H-M "C M M A"
_symmetry_group_IT_number 67
_symmetry_cell_setting 'orthorhombic'
loop_
_space_group_symop_operation_xyz
x,y,z
-x,1/2-y,z
x,-y,-z
-x,1/2+y,-z
-x,-y,-z
x,1/2+y,-z
-x,y,z
x,1/2-y,z
1/2+x,1/2+y,z
1/2-x,-y,z
1/2+x,1/2-y,-z
1/2-x,y,-z
1/2-x,1/2-y,-z
1/2+x,y,-z
1/2-x,1/2+y,z
1/2+x,-y,z
loop_
_atom_site_type_symbol
_atom_site_label
_atom_site_fract_x
_atom_site_fract_y
_atom_site_fract_z
Si Si1 0.085310 0.387258 0.660668
Si Si2 0.409507 0.946272 0.454709
Si Si3 0.912077 0.928735 0.797200
Si Si4 0.415662 0.458790 0.138511
Si Si5 0.837862 0.621394 0.994077
Si Si6 0.089989 0.692594 0.165654
O O1 0.121238 0.401804 0.539276
O O2 0.088935 0.438795 0.733663
O O3 0.123631 0.340426 0.728944
O O4 0.000000 0.370338 0.638593
O O5 0.500000 0.948235 0.455088
O O6 0.379474 0.933133 0.329765
O O7 0.377800 0.000000 0.500000
O O8 0.000000 0.914012 0.794926
O O9 0.899056 0.981697 0.862191
O O10 0.865723 0.885646 0.864759
O O11 0.500000 0.447767 0.090364
O O12 0.355504 0.430177 0.061454
O O13 0.880401 0.669368 0.048548
O O14 0.750000 0.632787 0.000000
O O15 0.118661 0.750000 0.178777
O O16 0.000000 0.689054 0.162644
#
# Coordination Sequence:
#
# PCOD8278206 Si02
#       6
#    16  16  16  16  16  16
#     4   8  13  24  44  72  97 116 148 194 242 285
#     4   9  14  23  43  73 102 126 153 191 238 289
#     4  10  18  28  46  71 100 132 165 197 239 290
#     4   9  16  28  46  66  92 127 165 200 232 280
#     4  11  22  32  44  67  97 133 162 203 245 294
#     4   9  18  34  56  75  90 116 160 213 257 291
#
# _framework density 17.342044000000001
#
# number of rings (size 3 to 8) (size 9 to 14) (size 15 to 20)
#    0.000    2.667    1.667    3.000    0.000    3.000 
#    0.000    0.000    0.000    5.000    0.000    5.833 
#    0.000    0.000    0.000    0.000    0.000    0.000 
#
# Total GULP energy -594849.591515 kJ/mol
# GULP energy per Si atom -12392.699823 kJ/mol
# Density = 1.730257 g / cm^3
# Si number density = 17.342044 Si / 1000 Ang^3
#
#
#
# Elastic Constant Matrix: (Units=GPa)
#
#
# Indices 1 2 3 4 5 6 
#
# 1 31.0295 18.3379 22.1514 0.0000 0.0000 0.0000
# 2 18.3379 97.8747 48.9363 0.0000 0.0000 0.0000
# 3 22.1514 48.9363 114.6383 0.0000 0.0000 0.0000
# 4 0.0000 0.0000 0.0000 17.7652 0.0000 0.0000
# 5 0.0000 0.0000 0.0000 0.0000 4.3264 0.0000
# 6 0.0000 0.0000 0.0000 0.0000 0.0000 6.9295
#
#
#
# Elastic Compliance Matrix: (Units=1/GPa)
#
#
# Indices 1 2 3 4 5 6 
#
# 1 0.038874 -0.004485 -0.005597 0.000000 0.000000 0.000000
# 2 -0.004485 0.013507 -0.004899 0.000000 0.000000 0.000000
# 3 -0.005597 -0.004899 0.011896 0.000000 0.000000 0.000000
# 4 0.000000 0.000000 0.000000 0.056290 0.000000 0.000000
# 5 0.000000 0.000000 0.000000 0.000000 0.231138 0.000000
# 6 0.000000 0.000000 0.000000 0.000000 0.000000 0.144310
#
#
# Mechanical properties :
#
#
# Convention : Reuss Voigt Hill
#
# Bulk Modulus (GPa) = 29.14242 46.93262 38.03752
# Shear Modulus (GPa) = 9.30381 16.07869 12.69125
#
# Velocity S-wave (km/s) = 2.31874 3.04822 2.70815
# Velocity P-wave (km/s) = 4.89997 6.28574 5.63561
#
# Compressibility (1/GPa) = 0.03431424
#
# Stress axis : x y z
#
# Youngs Moduli (GPa) = 25.72446 74.03576 84.06243
#
# Poissons Ratio (x) = 0.33205 0.47049
# Poissons Ratio (y) = 0.11537 0.41184
# Poissons Ratio (z) = 0.14398 0.36271
#
# Static dielectric constant tensor:
#      x y z
#    x 2.730420 0.000000 0.000000 
#    y 0.000000 3.152430 0.000000 
#    z 0.000000 0.000000 3.482160 
# 
# 
# High freq. dielectric constant tensor:
#      x y z
#    x 1.617070 0.000000 0.000000 
#    y 0.000000 1.642080 0.000000 
#    z 0.000000 0.000000 1.679890 
# 
# From -- ./inp_files/19799.got.cif
#   From: 2010.03.12/outbox.cif.g09.slc.cpg/sg67_10_cif.got.tgz:19799.got - 2010.04.10 22:41:39.
