data_PCOD8278598
_publ_section_title
;
Structure prediction by ZEFSAII (Michael W. Deem and Ramdas Pophale) SiO2 
 PCOD8278598
Probable space group: C M M A
;
_chemical_formula_sum "Si O2"
_cell_formula_units_Z 128
_cell_length_a 24.941514
_cell_length_b 18.406252
_cell_length_c 18.593752
_cell_angle_alpha 90.000000
_cell_angle_beta 90.000000
_cell_angle_gamma 90.000000
_cell_volume 8536.015800
_symmetry_space_group_name_H-M "C M M A"
_symmetry_group_IT_number 67
_symmetry_cell_setting 'orthorhombic'
loop_
_space_group_symop_operation_xyz
x,y,z
-x,1/2-y,z
x,-y,-z
-x,1/2+y,-z
-x,-y,-z
x,1/2+y,-z
-x,y,z
x,1/2-y,z
1/2+x,1/2+y,z
1/2-x,-y,z
1/2+x,1/2-y,-z
1/2-x,y,-z
1/2-x,1/2-y,-z
1/2+x,y,-z
1/2-x,1/2+y,z
1/2+x,-y,z
loop_
_atom_site_type_symbol
_atom_site_label
_atom_site_fract_x
_atom_site_fract_y
_atom_site_fract_z
Si Si1 0.935897 0.062040 0.835727
Si Si2 0.558508 0.556532 0.064199
Si Si3 0.643955 0.667708 0.431245
Si Si4 0.938625 0.419807 0.674558
Si Si5 0.651768 0.830633 0.601060
Si Si6 0.435683 0.668917 0.957646
Si Si7 0.939134 0.046019 0.432876
Si Si8 0.747284 0.082478 0.585606
O O1 0.914997 0.073350 0.755001
O O2 0.916391 0.129765 0.884306
O O3 0.000000 0.056689 0.836822
O O4 0.912313 0.985966 0.869627
O O5 0.500000 0.581565 0.091729
O O6 0.551034 0.500000 0.000000
O O7 0.587689 0.627169 0.029041
O O8 0.638734 0.750000 0.399837
O O9 0.652063 0.672707 0.515727
O O10 0.590594 0.621301 0.416980
O O11 0.693073 0.625262 0.392668
O O12 0.903646 0.363109 0.629911
O O13 0.935348 0.498850 0.639029
O O14 0.000000 0.391247 0.674525
O O15 0.657883 0.750000 0.633239
O O16 0.702920 0.878015 0.624382
O O17 0.500000 0.668158 0.960774
O O18 0.412260 0.750000 0.957496
O O19 0.000000 0.066104 0.453284
O O20 0.913664 0.000000 0.500000
O O21 0.750000 0.082940 0.500000
O O22 0.750000 0.000000 0.614478
#
# Coordination Sequence:
#
# PCOD8278598 Si02
#       8
#    16  16  16  16  16  16  16  16
#     4   8  14  23  34  49  71 100 137 173 205 247
#     4   7  10  18  31  46  65  90 122 160 194 225
#     4  10  19  30  46  63  79 100 132 176 225 266
#     4  10  19  29  41  56  77 113 150 179 217 264
#     4  10  19  29  40  59  85 103 126 169 219 267
#     4   8  12  18  31  51  73  96 124 164 209 247
#     4  10  19  31  45  59  79 107 145 185 214 249
#     4   9  17  28  46  64  79  99 124 165 215 265
#
# _framework density 14.995286
#
# number of rings (size 3 to 8) (size 9 to 14) (size 15 to 20)
#    0.000    3.000    1.250    2.625    1.750    2.500 
#    0.000    2.500    0.000    0.750    0.000    3.500 
#    0.000    0.000    0.000    0.000    0.000   50.625 
#
# Total GULP energy -792879.297323 kJ/mol
# GULP energy per Si atom -12388.739021 kJ/mol
# Density = 1.496116 g / cm^3
# Si number density = 14.995286 Si / 1000 Ang^3
#
#
#
# Elastic Constant Matrix: (Units=GPa)
#
#
# Indices 1 2 3 4 5 6 
#
# 1 60.0564 44.1060 11.7258 0.0000 0.0000 0.0000
# 2 44.1060 130.8001 29.2459 0.0000 0.0000 0.0000
# 3 11.7258 29.2459 38.1327 0.0000 0.0000 0.0000
# 4 0.0000 0.0000 0.0000 11.8832 0.0000 0.0000
# 5 0.0000 0.0000 0.0000 0.0000 3.2998 0.0000
# 6 0.0000 0.0000 0.0000 0.0000 0.0000 13.0984
#
#
#
# Elastic Compliance Matrix: (Units=1/GPa)
#
#
# Indices 1 2 3 4 5 6 
#
# 1 0.022186 -0.007188 -0.001309 0.000000 0.000000 0.000000
# 2 -0.007188 0.011557 -0.006653 0.000000 0.000000 0.000000
# 3 -0.001309 -0.006653 0.031729 0.000000 0.000000 0.000000
# 4 0.000000 0.000000 0.000000 0.084153 0.000000 0.000000
# 5 0.000000 0.000000 0.000000 0.000000 0.303049 0.000000
# 6 0.000000 0.000000 0.000000 0.000000 0.000000 0.076345
#
#
# Mechanical properties :
#
#
# Convention : Reuss Voigt Hill
#
# Bulk Modulus (GPa) = 28.43252 44.34941 36.39097
# Shear Modulus (GPa) = 8.75591 15.25037 12.00314
#
# Velocity S-wave (km/s) = 2.41905 3.19252 2.83231
# Velocity P-wave (km/s) = 5.17731 6.57490 5.91751
#
# Compressibility (1/GPa) = 0.03517099
#
# Stress axis : x y z
#
# Youngs Moduli (GPa) = 45.07380 86.52943 31.51662
#
# Poissons Ratio (x) = 0.62201 0.04126
# Poissons Ratio (y) = 0.32401 0.20968
# Poissons Ratio (z) = 0.05900 0.57568
#
# Static dielectric constant tensor:
#      x y z
#    x 2.590100 0.000000 0.000000 
#    y 0.000000 3.194660 0.000000 
#    z 0.000000 0.000000 2.796920 
# 
# 
# High freq. dielectric constant tensor:
#      x y z
#    x 1.528110 0.000000 0.000000 
#    y 0.000000 1.583460 0.000000 
#    z 0.000000 0.000000 1.537180 
# 
# From -- ./inp_files/39770.got.cif
#   From: 2010.03.12/outbox.cif.g09.slc.cpg/sg67_20_cif.got.tgz:39770.got - 2010.04.10 22:41:39.
