data_PCOD8278004
_publ_section_title
;
Structure prediction by ZEFSAII (Michael W. Deem and Ramdas Pophale) SiO2 
 PCOD8278004
Probable space group: C M M A
;
_chemical_formula_sum "Si O2"
_cell_formula_units_Z 96
_cell_length_a 10.212373
_cell_length_b 26.940628
_cell_length_c 22.470810
_cell_angle_alpha 90.000000
_cell_angle_beta 90.000000
_cell_angle_gamma 90.000000
_cell_volume 6182.343216
_symmetry_space_group_name_H-M "C M M A"
_symmetry_group_IT_number 67
_symmetry_cell_setting 'orthorhombic'
loop_
_space_group_symop_operation_xyz
x,y,z
-x,1/2-y,z
x,-y,-z
-x,1/2+y,-z
-x,-y,-z
x,1/2+y,-z
-x,y,z
x,1/2-y,z
1/2+x,1/2+y,z
1/2-x,-y,z
1/2+x,1/2-y,-z
1/2-x,y,-z
1/2-x,1/2-y,-z
1/2+x,y,-z
1/2-x,1/2+y,z
1/2+x,-y,z
loop_
_atom_site_type_symbol
_atom_site_label
_atom_site_fract_x
_atom_site_fract_y
_atom_site_fract_z
Si Si1 0.000000 0.558398 0.064223
Si Si2 0.349200 0.858112 0.553109
Si Si3 0.500000 0.940580 0.068935
Si Si4 0.344640 0.695040 0.671737
Si Si5 0.752970 0.441067 0.860962
Si Si6 0.652838 0.601375 0.741712
Si Si7 0.352317 0.457583 0.377226
O O1 0.000000 0.499368 0.062368
O O2 0.127050 0.577214 0.098833
O O3 0.000000 0.581513 0.997868
O O4 0.500000 0.846969 0.534295
O O5 0.250000 0.847375 0.500000
O O6 0.301760 0.822057 0.606114
O O7 0.336982 0.914763 0.574014
O O8 0.374999 0.921757 0.105249
O O9 0.500000 0.694652 0.673170
O O10 0.288041 0.750000 0.685370
O O11 0.296901 0.656008 0.721751
O O12 0.750000 0.500000 0.851649
O O13 0.759285 0.415275 0.796940
O O14 0.500000 0.601515 0.759594
O O15 0.677374 0.563172 0.688273
O O16 0.500000 0.479198 0.379412
O O17 0.250000 0.500000 0.393869
#
# Coordination Sequence:
#
# PCOD8278004 Si02
#       7
#     8  16   8  16  16  16  16
#     4   9  16  28  40  56  87 123 154 183 211 241
#     4   9  18  31  47  67  91 114 142 178 216 259
#     4   9  18  26  38  60  87 121 156 181 207 249
#     4   8  15  29  49  69  87 109 139 181 226 263
#     4  10  17  26  41  61  88 121 151 180 213 249
#     4   9  16  28  44  63  87 112 145 184 220 258
#     4   9  18  31  44  61  87 119 149 181 215 248
#
# _framework density 15.528093
#
# number of rings (size 3 to 8) (size 9 to 14) (size 15 to 20)
#    0.000    3.000    0.833    3.000    0.000    3.333 
#    1.500    1.667    1.833    0.000    0.000    0.000 
#    0.000    4.000    0.000    0.000    0.000    0.000 
#
# Total GULP energy -595016.905326 kJ/mol
# GULP energy per Si atom -12396.185528 kJ/mol
# Density = 1.549275 g / cm^3
# Si number density = 15.528093 Si / 1000 Ang^3
#
#
#
# Elastic Constant Matrix: (Units=GPa)
#
#
# Indices 1 2 3 4 5 6 
#
# 1 81.8123 24.7873 44.0788 0.0000 0.0000 0.0000
# 2 24.7873 65.4976 25.2864 0.0000 0.0000 0.0000
# 3 44.0788 25.2864 105.2117 0.0000 0.0000 0.0000
# 4 0.0000 0.0000 0.0000 14.5479 0.0000 0.0000
# 5 0.0000 0.0000 0.0000 0.0000 29.3198 0.0000
# 6 0.0000 0.0000 0.0000 0.0000 0.0000 10.2873
#
#
#
# Elastic Compliance Matrix: (Units=1/GPa)
#
#
# Indices 1 2 3 4 5 6 
#
# 1 0.016679 -0.003984 -0.006030 0.000000 0.000000 0.000000
# 2 -0.003984 0.017781 -0.002604 0.000000 0.000000 0.000000
# 3 -0.006030 -0.002604 0.012657 0.000000 0.000000 0.000000
# 4 0.000000 0.000000 0.000000 0.068739 0.000000 0.000000
# 5 0.000000 0.000000 0.000000 0.000000 0.034107 0.000000
# 6 0.000000 0.000000 0.000000 0.000000 0.000000 0.097208
#
#
# Mechanical properties :
#
#
# Convention : Reuss Voigt Hill
#
# Bulk Modulus (GPa) = 45.70432 48.98074 47.34253
# Shear Modulus (GPa) = 17.87626 21.38893 19.63259
#
# Velocity S-wave (km/s) = 3.39665 3.71541 3.55960
# Velocity P-wave (km/s) = 6.69926 7.07230 6.88831
#
# Compressibility (1/GPa) = 0.02187977
#
# Stress axis : x y z
#
# Youngs Moduli (GPa) = 59.95497 56.24005 79.00788
#
# Poissons Ratio (x) = 0.22407 0.47644
# Poissons Ratio (y) = 0.23887 0.20576
# Poissons Ratio (z) = 0.36155 0.14647
#
# Static dielectric constant tensor:
#      x y z
#    x 2.854070 0.000000 0.000000 
#    y 0.000000 2.874840 0.000000 
#    z 0.000000 0.000000 2.970410 
# 
# 
# High freq. dielectric constant tensor:
#      x y z
#    x 1.582490 0.000000 0.000000 
#    y 0.000000 1.559810 0.000000 
#    z 0.000000 0.000000 1.599070 
# 
# From -- ./inp_files/41610.got.cif
#   From: 2010.03.12/outbox.cif.g09.slc.cpg/sg67_21_cif.got.tgz:41610.got - 2010.04.10 22:41:39.
