data_PCOD8278316
_publ_section_title
;
Structure prediction by ZEFSAII (Michael W. Deem and Ramdas Pophale) SiO2 
 PCOD8278316
Probable space group: C M M A
;
_chemical_formula_sum "Si O2"
_cell_formula_units_Z 72
_cell_length_a 10.264630
_cell_length_b 15.237015
_cell_length_c 22.949564
_cell_angle_alpha 90.000000
_cell_angle_beta 90.000000
_cell_angle_gamma 90.000000
_cell_volume 3589.365082
_symmetry_space_group_name_H-M "C M M A"
_symmetry_group_IT_number 67
_symmetry_cell_setting 'orthorhombic'
loop_
_space_group_symop_operation_xyz
x,y,z
-x,1/2-y,z
x,-y,-z
-x,1/2+y,-z
-x,-y,-z
x,1/2+y,-z
-x,y,z
x,1/2-y,z
1/2+x,1/2+y,z
1/2-x,-y,z
1/2+x,1/2-y,-z
1/2-x,y,-z
1/2-x,1/2-y,-z
1/2+x,y,-z
1/2-x,1/2+y,z
1/2+x,-y,z
loop_
_atom_site_type_symbol
_atom_site_label
_atom_site_fract_x
_atom_site_fract_y
_atom_site_fract_z
Si Si1 0.000000 0.104784 0.064233
Si Si2 0.650601 0.074440 0.624606
Si Si3 0.350516 0.250000 0.552427
Si Si4 0.000000 0.104737 0.932649
Si Si5 0.853343 0.849985 0.747275
Si Si6 0.251866 0.896279 0.132537
O O1 0.874320 0.142496 0.097424
O O2 0.000000 0.999994 0.065354
O O3 0.000000 0.141049 0.998417
O O4 0.500000 0.044214 0.616395
O O5 0.676919 0.163816 0.590280
O O6 0.683007 0.089722 0.692531
O O7 0.750000 0.000000 0.601138
O O8 0.500000 0.250000 0.529714
O O9 0.250000 0.250000 0.500000
O O10 0.124010 0.142289 0.898112
O O11 0.843538 0.750000 0.726216
O O12 0.754636 0.867291 0.800164
O O13 0.000000 0.872126 0.768588
O O14 0.250000 0.000000 0.129035
#
# Coordination Sequence:
#
# PCOD8278316 Si02
#       6
#     8  16   8   8  16  16
#     4   9  16  30  47  73  99 139 183 228 287 359
#     4  10  21  40  65  94 126 167 212 259 306 356
#     4  10  22  42  68  96 136 176 211 251 298 356
#     4   9  18  28  47  71 107 135 173 238 297 351
#     4  10  19  35  58  79 109 151 199 241 294 364
#     4  10  18  30  50  76 102 135 184 236 293 355
#
# _framework density 20.059256999999999
#
# number of rings (size 3 to 8) (size 9 to 14) (size 15 to 20)
#    0.000    2.222    2.222    1.333    0.000    4.000 
#    2.000    2.778    0.000    4.000    0.000    0.000 
#    0.000    0.000    0.000    0.000    0.000    0.000 
#
# Total GULP energy -446382.125751 kJ/mol
# GULP energy per Si atom -12399.503493 kJ/mol
# Density = 2.001360 g / cm^3
# Si number density = 20.059257 Si / 1000 Ang^3
#
#
#
# Elastic Constant Matrix: (Units=GPa)
#
#
# Indices 1 2 3 4 5 6 
#
# 1 149.3613 52.8270 73.7406 0.0000 0.0000 0.0000
# 2 52.8270 75.0133 30.9879 0.0000 0.0000 0.0000
# 3 73.7406 30.9879 120.2194 0.0000 0.0000 0.0000
# 4 0.0000 0.0000 0.0000 21.8396 0.0000 0.0000
# 5 0.0000 0.0000 0.0000 0.0000 35.4770 0.0000
# 6 0.0000 0.0000 0.0000 0.0000 0.0000 17.5389
#
#
#
# Elastic Compliance Matrix: (Units=1/GPa)
#
#
# Indices 1 2 3 4 5 6 
#
# 1 0.011486 -0.005795 -0.005551 0.000000 0.000000 0.000000
# 2 -0.005795 0.017844 -0.001045 0.000000 0.000000 0.000000
# 3 -0.005551 -0.001045 0.011992 0.000000 0.000000 0.000000
# 4 0.000000 0.000000 0.000000 0.045788 0.000000 0.000000
# 5 0.000000 0.000000 0.000000 0.000000 0.028187 0.000000
# 6 0.000000 0.000000 0.000000 0.000000 0.000000 0.057016
#
#
# Mechanical properties :
#
#
# Convention : Reuss Voigt Hill
#
# Bulk Modulus (GPa) = 60.46206 73.30056 66.88131
# Shear Modulus (GPa) = 24.67802 27.44031 26.05917
#
# Velocity S-wave (km/s) = 3.51131 3.70261 3.60823
# Velocity P-wave (km/s) = 6.82980 7.40948 7.12554
#
# Compressibility (1/GPa) = 0.01653930
#
# Stress axis : x y z
#
# Youngs Moduli (GPa) = 87.06557 56.04184 83.38580
#
# Poissons Ratio (x) = 0.32478 0.46290
# Poissons Ratio (y) = 0.50457 0.08711
# Poissons Ratio (z) = 0.48332 0.05855
#
# Static dielectric constant tensor:
#      x y z
#    x 3.767890 0.000000 0.000000 
#    y 0.000000 3.327260 0.000000 
#    z 0.000000 0.000000 3.591740 
# 
# 
# High freq. dielectric constant tensor:
#      x y z
#    x 1.778220 0.000000 0.000000 
#    y 0.000000 1.766630 0.000000 
#    z 0.000000 0.000000 1.783310 
# 
# From -- ./inp_files/43144.got.cif
#   From: 2010.03.12/outbox.cif.g09.slc.cpg/sg67_22_cif.got.tgz:43144.got - 2010.04.10 22:41:39.
