data_PCOD8278993
_publ_section_title
;
Structure prediction by ZEFSAII (Michael W. Deem and Ramdas Pophale) SiO2 
 PCOD8278993
Probable space group: C M M A
;
_chemical_formula_sum "Si O2"
_cell_formula_units_Z 96
_cell_length_a 8.794022
_cell_length_b 19.101391
_cell_length_c 30.302853
_cell_angle_alpha 90.000000
_cell_angle_beta 90.000000
_cell_angle_gamma 90.000000
_cell_volume 5090.214238
_symmetry_space_group_name_H-M "C M M A"
_symmetry_group_IT_number 67
_symmetry_cell_setting 'orthorhombic'
loop_
_space_group_symop_operation_xyz
x,y,z
-x,1/2-y,z
x,-y,-z
-x,1/2+y,-z
-x,-y,-z
x,1/2+y,-z
-x,y,z
x,1/2-y,z
1/2+x,1/2+y,z
1/2-x,-y,z
1/2+x,1/2-y,-z
1/2-x,y,-z
1/2-x,1/2-y,-z
1/2+x,y,-z
1/2-x,1/2+y,z
1/2+x,-y,z
loop_
_atom_site_type_symbol
_atom_site_label
_atom_site_fract_x
_atom_site_fract_y
_atom_site_fract_z
Si Si1 0.819481 0.671986 0.873985
Si Si2 0.822400 0.669592 0.372581
Si Si3 0.818812 0.925185 0.953790
Si Si4 0.178760 0.572764 0.697721
Si Si5 0.679434 0.927574 0.202211
Si Si6 0.179525 0.426146 0.546164
O O1 0.749451 0.750000 0.875328
O O2 0.765446 0.630051 0.917065
O O3 0.760041 0.633842 0.829653
O O4 0.000000 0.675715 0.873090
O O5 0.773569 0.750000 0.377239
O O6 0.733270 0.637017 0.331679
O O7 0.775864 0.631291 0.417693
O O8 0.000000 0.661155 0.363136
O O9 0.000000 0.931435 0.957326
O O10 0.750000 0.000000 0.940691
O O11 0.750000 0.898835 0.000000
O O12 0.250000 0.500000 0.680705
O O13 0.231083 0.588963 0.747792
O O14 0.000000 0.564952 0.693896
O O15 0.500000 0.935149 0.198792
O O16 0.750000 0.000000 0.185484
O O17 0.250000 0.500000 0.561024
O O18 0.250000 0.400774 0.500000
O O19 0.000000 0.434947 0.540795
#
# Coordination Sequence:
#
# PCOD8278993 Si02
#       6
#    16  16  16  16  16  16
#     4   9  18  32  50  73 101 133 166 202 249 300
#     4  10  22  38  54  76 109 144 174 211 261 311
#     4  10  19  32  52  74  97 128 165 206 249 295
#     4  10  20  34  55  81 105 135 175 217 259 304
#     4   9  18  33  54  77 101 130 167 211 252 296
#     4  10  20  35  56  79 103 134 173 215 258 304
#
# _framework density 18.859717
#
# number of rings (size 3 to 8) (size 9 to 14) (size 15 to 20)
#    0.000    2.333    0.000    3.500    0.000    5.000 
#    0.000    2.500    0.000    4.000    0.000    0.000 
#    0.000    0.000    0.000    0.000    0.000    0.000 
#
# Total GULP energy -595289.201841 kJ/mol
# GULP energy per Si atom -12401.858372 kJ/mol
# Density = 1.881679 g / cm^3
# Si number density = 18.859717 Si / 1000 Ang^3
#
#
#
# Elastic Constant Matrix: (Units=GPa)
#
#
# Indices 1 2 3 4 5 6 
#
# 1 53.9174 39.7383 41.2909 0.0000 0.0000 0.0000
# 2 39.7383 164.1909 103.8197 0.0000 0.0000 0.0000
# 3 41.2909 103.8197 138.9779 0.0000 0.0000 0.0000
# 4 0.0000 0.0000 0.0000 19.9834 0.0000 0.0000
# 5 0.0000 0.0000 0.0000 0.0000 17.4973 0.0000
# 6 0.0000 0.0000 0.0000 0.0000 0.0000 25.0361
#
#
#
# Elastic Compliance Matrix: (Units=1/GPa)
#
#
# Indices 1 2 3 4 5 6 
#
# 1 0.024548 -0.002520 -0.005411 0.000000 0.000000 0.000000
# 2 -0.002520 0.011801 -0.008067 0.000000 0.000000 0.000000
# 3 -0.005411 -0.008067 0.014829 0.000000 0.000000 0.000000
# 4 0.000000 0.000000 0.000000 0.050042 0.000000 0.000000
# 5 0.000000 0.000000 0.000000 0.000000 0.057152 0.000000
# 6 0.000000 0.000000 0.000000 0.000000 0.000000 0.039942
#
#
# Mechanical properties :
#
#
# Convention : Reuss Voigt Hill
#
# Bulk Modulus (GPa) = 52.13041 80.75378 66.44210
# Shear Modulus (GPa) = 21.12341 23.98583 22.55462
#
# Velocity S-wave (km/s) = 3.35031 3.57010 3.46195
# Velocity P-wave (km/s) = 6.53202 7.73985 7.16144
#
# Compressibility (1/GPa) = 0.01918266
#
# Stress axis : x y z
#
# Youngs Moduli (GPa) = 40.73687 84.73629 67.43374
#
# Poissons Ratio (x) = 0.21352 0.36488
# Poissons Ratio (y) = 0.10265 0.54400
# Poissons Ratio (z) = 0.22042 0.68359
#
# Static dielectric constant tensor:
#      x y z
#    x 3.307390 0.000000 0.000000 
#    y 0.000000 3.588460 0.000000 
#    z 0.000000 0.000000 3.662550 
# 
# 
# High freq. dielectric constant tensor:
#      x y z
#    x 1.720730 0.000000 0.000000 
#    y 0.000000 1.729790 0.000000 
#    z 0.000000 0.000000 1.745830 
# 
# From -- ./inp_files/43459.got.cif
#   From: 2010.03.12/outbox.cif.g09.slc.cpg/sg67_22_cif.got.tgz:43459.got - 2010.04.10 22:41:39.
