data_PCOD8278895
_publ_section_title
;
Structure prediction by ZEFSAII (Michael W. Deem and Ramdas Pophale) SiO2 
 PCOD8278895
Probable space group: C M M A
;
_chemical_formula_sum "Si O2"
_cell_formula_units_Z 88
_cell_length_a 8.886931
_cell_length_b 30.596456
_cell_length_c 17.897776
_cell_angle_alpha 90.000000
_cell_angle_beta 90.000000
_cell_angle_gamma 90.000000
_cell_volume 4866.559096
_symmetry_space_group_name_H-M "C M M A"
_symmetry_group_IT_number 67
_symmetry_cell_setting 'orthorhombic'
loop_
_space_group_symop_operation_xyz
x,y,z
-x,1/2-y,z
x,-y,-z
-x,1/2+y,-z
-x,-y,-z
x,1/2+y,-z
-x,y,z
x,1/2-y,z
1/2+x,1/2+y,z
1/2-x,-y,z
1/2+x,1/2-y,-z
1/2-x,y,-z
1/2-x,1/2-y,-z
1/2+x,y,-z
1/2-x,1/2+y,z
1/2+x,-y,z
loop_
_atom_site_type_symbol
_atom_site_label
_atom_site_fract_x
_atom_site_fract_y
_atom_site_fract_z
Si Si1 0.178316 0.700372 0.079247
Si Si2 0.675809 0.133700 0.202532
Si Si3 0.824565 0.750000 0.577889
Si Si4 0.320610 0.455731 0.268527
Si Si5 0.173903 0.073418 0.421614
Si Si6 0.171827 0.662335 0.652791
O O1 0.222452 0.750000 0.105035
O O2 0.245380 0.663287 0.135703
O O3 0.000000 0.696622 0.072254
O O4 0.250000 0.689488 0.000000
O O5 0.500000 0.134256 0.190846
O O6 0.730612 0.083043 0.210942
O O7 0.715391 0.155925 0.279850
O O8 0.750000 0.750000 0.500000
O O9 0.770371 0.792395 0.621014
O O10 0.000000 0.750000 0.565561
O O11 0.500000 0.458567 0.273738
O O12 0.250000 0.500000 0.234869
O O13 0.256137 0.449555 0.352065
O O14 0.250000 0.059731 0.500000
O O15 0.188599 0.125503 0.410847
O O16 0.000000 0.058491 0.422818
O O17 0.000000 0.663863 0.682097
#
# Coordination Sequence:
#
# PCOD8278895 Si02
#       6
#    16  16   8  16  16  16
#     4   9  18  33  53  80 111 139 167 199 239 289
#     4   9  19  34  53  76 102 132 166 205 247 295
#     4  10  20  32  44  64  93 128 169 212 251 292
#     4  10  20  35  53  74  99 128 166 210 257 304
#     4  10  19  32  49  69  95 128 166 211 260 307
#     4   9  19  32  46  67  96 129 168 210 251 296
#
# _framework density 18.082592000000002
#
# number of rings (size 3 to 8) (size 9 to 14) (size 15 to 20)
#    0.000    2.545    0.000    1.636    1.273    3.273 
#    0.000    1.818    0.000    0.545    0.000    3.818 
#    0.000    0.000    0.000    0.000    0.000    0.000 
#
# Total GULP energy -545297.172316 kJ/mol
# GULP energy per Si atom -12393.117553 kJ/mol
# Density = 1.804143 g / cm^3
# Si number density = 18.082592 Si / 1000 Ang^3
#
#
#
# Elastic Constant Matrix: (Units=GPa)
#
#
# Indices 1 2 3 4 5 6 
#
# 1 32.0428 36.7270 25.4988 0.0000 0.0000 0.0000
# 2 36.7270 150.8503 63.1662 0.0000 0.0000 0.0000
# 3 25.4988 63.1662 93.0582 0.0000 0.0000 0.0000
# 4 0.0000 0.0000 0.0000 17.3216 0.0000 0.0000
# 5 0.0000 0.0000 0.0000 0.0000 27.1535 0.0000
# 6 0.0000 0.0000 0.0000 0.0000 0.0000 24.1029
#
#
#
# Elastic Compliance Matrix: (Units=1/GPa)
#
#
# Indices 1 2 3 4 5 6 
#
# 1 0.046375 -0.008340 -0.007046 0.000000 0.000000 0.000000
# 2 -0.008340 0.010761 -0.005019 0.000000 0.000000 0.000000
# 3 -0.007046 -0.005019 0.016084 0.000000 0.000000 0.000000
# 4 0.000000 0.000000 0.000000 0.057731 0.000000 0.000000
# 5 0.000000 0.000000 0.000000 0.000000 0.036828 0.000000
# 6 0.000000 0.000000 0.000000 0.000000 0.000000 0.041489
#
#
# Mechanical properties :
#
#
# Convention : Reuss Voigt Hill
#
# Bulk Modulus (GPa) = 30.85587 58.52614 44.69100
# Shear Modulus (GPa) = 19.16579 23.75289 21.45934
#
# Velocity S-wave (km/s) = 3.25915 3.62826 3.44865
# Velocity P-wave (km/s) = 5.59139 7.07027 6.37386
#
# Compressibility (1/GPa) = 0.03240875
#
# Stress axis : x y z
#
# Youngs Moduli (GPa) = 21.56349 92.92407 62.17508
#
# Poissons Ratio (x) = 0.77502 0.43807
# Poissons Ratio (y) = 0.17985 0.31208
# Poissons Ratio (z) = 0.15193 0.46642
#
# Static dielectric constant tensor:
#      x y z
#    x 3.250770 0.000000 0.000000 
#    y 0.000000 3.802430 0.000000 
#    z 0.000000 0.000000 3.201090 
# 
# 
# High freq. dielectric constant tensor:
#      x y z
#    x 1.698100 0.000000 0.000000 
#    y 0.000000 1.714040 0.000000 
#    z 0.000000 0.000000 1.673860 
# 
# From -- ./inp_files/32438.got.cif
#   From: 2010.03.12/outbox.cif.g09.slc.cpg/sg67_17_cif.got.tgz:32438.got - 2010.04.10 22:41:39.
