data_PCOD8278702
_publ_section_title
;
Structure prediction by ZEFSAII (Michael W. Deem and Ramdas Pophale) SiO2 
 PCOD8278702
Probable space group: C M M A
;
_chemical_formula_sum "Si O2"
_cell_formula_units_Z 96
_cell_length_a 17.063832
_cell_length_b 25.778064
_cell_length_c 12.206166
_cell_angle_alpha 90.000000
_cell_angle_beta 90.000000
_cell_angle_gamma 90.000000
_cell_volume 5369.157405
_symmetry_space_group_name_H-M "C M M A"
_symmetry_group_IT_number 67
_symmetry_cell_setting 'orthorhombic'
loop_
_space_group_symop_operation_xyz
x,y,z
-x,1/2-y,z
x,-y,-z
-x,1/2+y,-z
-x,-y,-z
x,1/2+y,-z
-x,y,z
x,1/2-y,z
1/2+x,1/2+y,z
1/2-x,-y,z
1/2+x,1/2-y,-z
1/2-x,y,-z
1/2-x,1/2-y,-z
1/2+x,y,-z
1/2-x,1/2+y,z
1/2+x,-y,z
loop_
_atom_site_type_symbol
_atom_site_label
_atom_site_fract_x
_atom_site_fract_y
_atom_site_fract_z
Si Si1 0.263023 0.441019 0.128485
Si Si2 0.587375 0.380999 0.150385
Si Si3 0.148172 0.690831 0.324592
Si Si4 0.813740 0.152449 0.245147
Si Si5 0.908913 0.809987 0.562469
Si Si6 0.911044 0.191627 0.048834
O O1 0.250000 0.500000 0.163620
O O2 0.353150 0.428817 0.158134
O O3 0.205067 0.405307 0.200966
O O4 0.250000 0.431994 0.000000
O O5 0.500000 0.403264 0.134796
O O6 0.589088 0.345988 0.258884
O O7 0.614655 0.345883 0.048740
O O8 0.123694 0.750000 0.302257
O O9 0.236492 0.681522 0.285864
O O10 0.139374 0.678049 0.452550
O O11 0.875297 0.151293 0.345091
O O12 0.851655 0.185453 0.148242
O O13 0.897147 0.750000 0.598730
O O14 0.000000 0.822382 0.543500
O O15 0.904766 0.250000 0.003984
O O16 0.000000 0.179409 0.087594
#
# Coordination Sequence:
#
# PCOD8278702 Si02
#       6
#    16  16  16  16  16  16
#     4  10  21  40  58  77 105 136 177 233 277 319
#     4  10  20  35  54  79 109 143 180 218 265 319
#     4  10  20  32  52  79 111 149 187 218 251 307
#     4  11  20  33  54  78 105 142 181 224 269 321
#     4  10  20  34  52  78 113 148 180 215 258 313
#     4  10  19  30  47  77 115 146 172 209 263 325
#
# _framework density 17.879899999999999
#
# number of rings (size 3 to 8) (size 9 to 14) (size 15 to 20)
#    0.000    1.833    1.667    3.500    0.000    4.333 
#    0.000    5.833    0.000    8.000    0.000    5.833 
#    0.000    0.000    0.000    0.000    0.000    0.000 
#
# Total GULP energy -595268.765053 kJ/mol
# GULP energy per Si atom -12401.432605 kJ/mol
# Density = 1.783920 g / cm^3
# Si number density = 17.879900 Si / 1000 Ang^3
#
#
#
# Elastic Constant Matrix: (Units=GPa)
#
#
# Indices 1 2 3 4 5 6 
#
# 1 92.3733 48.2673 37.8459 0.0000 0.0000 0.0000
# 2 48.2673 108.0468 49.7656 0.0000 0.0000 0.0000
# 3 37.8459 49.7656 100.6062 0.0000 0.0000 0.0000
# 4 0.0000 0.0000 0.0000 21.1836 0.0000 0.0000
# 5 0.0000 0.0000 0.0000 0.0000 33.4331 0.0000
# 6 0.0000 0.0000 0.0000 0.0000 0.0000 9.0162
#
#
#
# Elastic Compliance Matrix: (Units=1/GPa)
#
#
# Indices 1 2 3 4 5 6 
#
# 1 0.014777 -0.005233 -0.002970 0.000000 0.000000 0.000000
# 2 -0.005233 0.013839 -0.004877 0.000000 0.000000 0.000000
# 3 -0.002970 -0.004877 0.013470 0.000000 0.000000 0.000000
# 4 0.000000 0.000000 0.000000 0.047206 0.000000 0.000000
# 5 0.000000 0.000000 0.000000 0.000000 0.029910 0.000000
# 6 0.000000 0.000000 0.000000 0.000000 0.000000 0.110911
#
#
# Mechanical properties :
#
#
# Convention : Reuss Voigt Hill
#
# Bulk Modulus (GPa) = 62.79445 63.64264 63.21855
# Shear Modulus (GPa) = 19.11438 23.73642 21.42540
#
# Velocity S-wave (km/s) = 3.27317 3.64751 3.46540
# Velocity P-wave (km/s) = 7.03429 7.30827 7.17259
#
# Compressibility (1/GPa) = 0.01592497
#
# Stress axis : x y z
#
# Youngs Moduli (GPa) = 67.67263 72.25711 74.24147
#
# Poissons Ratio (x) = 0.37814 0.22051
# Poissons Ratio (y) = 0.35415 0.36209
# Poissons Ratio (z) = 0.20100 0.35241
#
# Static dielectric constant tensor:
#      x y z
#    x 3.455600 0.000000 0.000000 
#    y 0.000000 3.040790 0.000000 
#    z 0.000000 0.000000 3.390500 
# 
# 
# High freq. dielectric constant tensor:
#      x y z
#    x 1.705780 0.000000 0.000000 
#    y 0.000000 1.657040 0.000000 
#    z 0.000000 0.000000 1.697460 
# 
# From -- ./inp_files/19604.got.cif
#   From: 2010.03.12/outbox.cif.g09.slc.cpg/sg67_10_cif.got.tgz:19604.got - 2010.04.10 22:41:39.
