data_PCOD8278290
_publ_section_title
;
Structure prediction by ZEFSAII (Michael W. Deem and Ramdas Pophale) SiO2 
 PCOD8278290
Probable space group: C M M A
;
_chemical_formula_sum "Si O2"
_cell_formula_units_Z 72
_cell_length_a 30.431716
_cell_length_b 8.744874
_cell_length_c 14.429350
_cell_angle_alpha 90.000000
_cell_angle_beta 90.000000
_cell_angle_gamma 90.000000
_cell_volume 3839.960584
_symmetry_space_group_name_H-M "C M M A"
_symmetry_group_IT_number 67
_symmetry_cell_setting 'orthorhombic'
loop_
_space_group_symop_operation_xyz
x,y,z
-x,1/2-y,z
x,-y,-z
-x,1/2+y,-z
-x,-y,-z
x,1/2+y,-z
-x,y,z
x,1/2-y,z
1/2+x,1/2+y,z
1/2-x,-y,z
1/2+x,1/2-y,-z
1/2-x,y,-z
1/2-x,1/2-y,-z
1/2+x,y,-z
1/2-x,1/2+y,z
1/2+x,-y,z
loop_
_atom_site_type_symbol
_atom_site_label
_atom_site_fract_x
_atom_site_fract_y
_atom_site_fract_z
Si Si1 0.296956 0.430235 0.403171
Si Si2 0.630605 0.573825 0.283202
Si Si3 0.951136 0.930015 0.597251
Si Si4 0.000000 0.431284 0.897967
Si Si5 0.412205 0.073160 0.901877
O O1 0.314432 0.500000 0.500000
O O2 0.292387 0.250000 0.414209
O O3 0.250000 0.500000 0.376894
O O4 0.330303 0.469307 0.320741
O O5 0.640357 0.750000 0.308762
O O6 0.584402 0.519220 0.326871
O O7 0.627266 0.552411 0.171884
O O8 0.952016 0.750000 0.585716
O O9 0.000000 0.989707 0.626133
O O10 0.936291 0.000000 0.500000
O O11 0.044937 0.495358 0.853733
O O12 0.000000 0.250000 0.896203
O O13 0.000000 0.500000 0.000000
O O14 0.423060 0.250000 0.919258
O O15 0.398304 0.000000 0.000000
#
# Coordination Sequence:
#
# PCOD8278290 Si02
#       5
#    16  16  16   8  16
#     4  11  22  38  61  86 115 143 177 222 272 328
#     4  10  21  35  55  80 107 143 185 225 273 329
#     4   9  18  32  49  70 101 140 178 215 257 312
#     4  10  18  30  48  70  99 136 183 232 276 322
#     4  10  20  34  53  75 106 144 185 232 279 328
#
# _framework density 18.750192999999999
#
# number of rings (size 3 to 8) (size 9 to 14) (size 15 to 20)
#    0.000    2.000    0.000    6.333    1.556    4.444 
#    0.000    0.000    0.000    0.667    0.000    4.667 
#    0.000    0.000    0.000    0.000    0.000    0.000 
#
# Total GULP energy -446326.791616 kJ/mol
# GULP energy per Si atom -12397.966434 kJ/mol
# Density = 1.870752 g / cm^3
# Si number density = 18.750193 Si / 1000 Ang^3
#
#
#
# Elastic Constant Matrix: (Units=GPa)
#
#
# Indices 1 2 3 4 5 6 
#
# 1 88.2158 49.9231 55.5694 0.0000 0.0000 0.0000
# 2 49.9231 125.0334 45.0769 0.0000 0.0000 0.0000
# 3 55.5694 45.0769 96.6364 0.0000 0.0000 0.0000
# 4 0.0000 0.0000 0.0000 26.5843 0.0000 0.0000
# 5 0.0000 0.0000 0.0000 0.0000 39.7607 0.0000
# 6 0.0000 0.0000 0.0000 0.0000 0.0000 27.7346
#
#
#
# Elastic Compliance Matrix: (Units=1/GPa)
#
#
# Indices 1 2 3 4 5 6 
#
# 1 0.019715 -0.004550 -0.009215 0.000000 0.000000 0.000000
# 2 -0.004550 0.010665 -0.002358 0.000000 0.000000 0.000000
# 3 -0.009215 -0.002358 0.016747 0.000000 0.000000 0.000000
# 4 0.000000 0.000000 0.000000 0.037616 0.000000 0.000000
# 5 0.000000 0.000000 0.000000 0.000000 0.025150 0.000000
# 6 0.000000 0.000000 0.000000 0.000000 0.000000 0.036056
#
#
# Mechanical properties :
#
#
# Convention : Reuss Voigt Hill
#
# Bulk Modulus (GPa) = 67.19881 67.89159 67.54520
# Shear Modulus (GPa) = 27.29920 29.43701 28.36811
#
# Velocity S-wave (km/s) = 3.81982 3.96657 3.89389
# Velocity P-wave (km/s) = 7.44120 7.56738 7.50456
#
# Compressibility (1/GPa) = 0.01488121
#
# Stress axis : x y z
#
# Youngs Moduli (GPa) = 50.72226 93.76707 59.71248
#
# Poissons Ratio (x) = 0.42662 0.55023
# Poissons Ratio (y) = 0.23078 0.14082
# Poissons Ratio (z) = 0.46739 0.22114
#
# Static dielectric constant tensor:
#      x y z
#    x 3.583950 0.000000 0.000000 
#    y 0.000000 3.438040 0.000000 
#    z 0.000000 0.000000 3.310360 
# 
# 
# High freq. dielectric constant tensor:
#      x y z
#    x 1.710990 0.000000 0.000000 
#    y 0.000000 1.733160 0.000000 
#    z 0.000000 0.000000 1.719290 
# 
# From -- ./inp_files/30985.got.cif
#   From: 2010.03.12/outbox.cif.g09.slc.cpg/sg67_16_cif.got.tgz:30985.got - 2010.04.10 22:41:39.
