data_PCOD8278717
_publ_section_title
;
Structure prediction by ZEFSAII (Michael W. Deem and Ramdas Pophale) SiO2 
 PCOD8278717
Probable space group: C M M A
;
_chemical_formula_sum "Si O2"
_cell_formula_units_Z 104
_cell_length_a 8.891946
_cell_length_b 27.110038
_cell_length_c 21.201232
_cell_angle_alpha 90.000000
_cell_angle_beta 90.000000
_cell_angle_gamma 90.000000
_cell_volume 5110.790059
_symmetry_space_group_name_H-M "C M M A"
_symmetry_group_IT_number 67
_symmetry_cell_setting 'orthorhombic'
loop_
_space_group_symop_operation_xyz
x,y,z
-x,1/2-y,z
x,-y,-z
-x,1/2+y,-z
-x,-y,-z
x,1/2+y,-z
-x,y,z
x,1/2-y,z
1/2+x,1/2+y,z
1/2-x,-y,z
1/2+x,1/2-y,-z
1/2-x,y,-z
1/2-x,1/2-y,-z
1/2+x,y,-z
1/2-x,1/2+y,z
1/2+x,-y,z
loop_
_atom_site_type_symbol
_atom_site_label
_atom_site_fract_x
_atom_site_fract_y
_atom_site_fract_z
Si Si1 0.675290 0.949096 0.819739
Si Si2 0.323145 0.750000 0.932341
Si Si3 0.327611 0.694313 0.599655
Si Si4 0.178484 0.550419 0.686437
Si Si5 0.826313 0.396398 0.439806
Si Si6 0.173938 0.842577 0.152235
Si Si7 0.167964 0.694191 0.729194
O O1 0.500000 0.960561 0.809605
O O2 0.747636 0.933959 0.752644
O O3 0.695192 0.901132 0.866716
O O4 0.750000 0.000000 0.846598
O O5 0.500000 0.750000 0.940791
O O6 0.271885 0.801300 0.898249
O O7 0.250000 0.750000 0.000000
O O8 0.500000 0.677674 0.592661
O O9 0.302408 0.750000 0.576807
O O10 0.222117 0.660773 0.556106
O O11 0.281818 0.688448 0.672232
O O12 0.250000 0.500000 0.663370
O O13 0.225550 0.586653 0.629718
O O14 0.000000 0.546592 0.695080
O O15 0.750000 0.424060 0.500000
O O16 0.000000 0.404273 0.449393
O O17 0.274442 0.838459 0.213865
O O18 0.000000 0.832058 0.168473
O O19 0.161866 0.750000 0.753357
O O20 0.000000 0.675886 0.709247
#
# Coordination Sequence:
#
# PCOD8278717 Si02
#       7
#    16   8  16  16  16  16  16
#     4  10  20  34  56  86 115 148 185 228 285 341
#     4  10  22  40  60  86 122 160 201 242 279 328
#     4  10  21  36  54  75 102 138 177 221 276 335
#     4  10  21  37  57  81 108 139 175 221 277 334
#     4  11  24  39  55  75 100 134 179 228 278 336
#     4  10  20  35  57  82 115 156 194 234 281 335
#     4  10  19  30  49  80 112 140 177 225 279 337
#
# _framework density 20.349105000000002
#
# number of rings (size 3 to 8) (size 9 to 14) (size 15 to 20)
#    0.000    1.846    0.769    4.154    0.000    8.923 
#    0.000    1.538    0.000    0.462    0.000    3.231 
#    0.000    0.000    0.000    0.000    0.000    0.000 
#
# Total GULP energy -644308.532134 kJ/mol
# GULP energy per Si atom -12390.548695 kJ/mol
# Density = 2.030279 g / cm^3
# Si number density = 20.349105 Si / 1000 Ang^3
#
#
#
# Elastic Constant Matrix: (Units=GPa)
#
#
# Indices 1 2 3 4 5 6 
#
# 1 61.4484 37.1689 12.8080 0.0000 0.0000 0.0000
# 2 37.1689 138.5154 44.3092 0.0000 0.0000 0.0000
# 3 12.8080 44.3092 42.7928 0.0000 0.0000 0.0000
# 4 0.0000 0.0000 0.0000 21.3973 0.0000 0.0000
# 5 0.0000 0.0000 0.0000 0.0000 28.3076 0.0000
# 6 0.0000 0.0000 0.0000 0.0000 0.0000 22.1545
#
#
#
# Elastic Compliance Matrix: (Units=1/GPa)
#
#
# Indices 1 2 3 4 5 6 
#
# 1 0.019438 -0.005016 -0.000624 0.000000 0.000000 0.000000
# 2 -0.005016 0.012090 -0.011017 0.000000 0.000000 0.000000
# 3 -0.000624 -0.011017 0.034962 0.000000 0.000000 0.000000
# 4 0.000000 0.000000 0.000000 0.046735 0.000000 0.000000
# 5 0.000000 0.000000 0.000000 0.000000 0.035326 0.000000
# 6 0.000000 0.000000 0.000000 0.000000 0.000000 0.045138
#
#
# Mechanical properties :
#
#
# Convention : Reuss Voigt Hill
#
# Bulk Modulus (GPa) = 30.14190 47.92541 39.03366
# Shear Modulus (GPa) = 21.00305 24.26990 22.63647
#
# Velocity S-wave (km/s) = 3.21617 3.45726 3.33889
# Velocity P-wave (km/s) = 5.35128 6.28805 5.83849
#
# Compressibility (1/GPa) = 0.03317641
#
# Stress axis : x y z
#
# Youngs Moduli (GPa) = 51.44517 82.71600 28.60249
#
# Poissons Ratio (x) = 0.41494 0.01784
# Poissons Ratio (y) = 0.25807 0.31510
# Poissons Ratio (z) = 0.03208 0.91124
#
# Static dielectric constant tensor:
#      x y z
#    x 3.748570 0.000000 0.000000 
#    y 0.000000 4.043010 0.000000 
#    z 0.000000 0.000000 3.407110 
# 
# 
# High freq. dielectric constant tensor:
#      x y z
#    x 1.801440 0.000000 0.000000 
#    y 0.000000 1.810090 0.000000 
#    z 0.000000 0.000000 1.753820 
# 
# From -- ./inp_files/37314.got.cif
#   From: 2010.03.12/outbox.cif.g09.slc.cpg/sg67_19_cif.got.tgz:37314.got - 2010.04.10 22:41:39.
