data_PCOD8278068
_publ_section_title
;
Structure prediction by ZEFSAII (Michael W. Deem and Ramdas Pophale) SiO2 
 PCOD8278068
Probable space group: C M M A
;
_chemical_formula_sum "Si O2"
_cell_formula_units_Z 80
_cell_length_a 18.308162
_cell_length_b 8.723218
_cell_length_c 25.934758
_cell_angle_alpha 90.000000
_cell_angle_beta 90.000000
_cell_angle_gamma 90.000000
_cell_volume 4141.938751
_symmetry_space_group_name_H-M "C M M A"
_symmetry_group_IT_number 67
_symmetry_cell_setting 'orthorhombic'
loop_
_space_group_symop_operation_xyz
x,y,z
-x,1/2-y,z
x,-y,-z
-x,1/2+y,-z
-x,-y,-z
x,1/2+y,-z
-x,y,z
x,1/2-y,z
1/2+x,1/2+y,z
1/2-x,-y,z
1/2+x,1/2-y,-z
1/2-x,y,-z
1/2-x,1/2-y,-z
1/2+x,y,-z
1/2-x,1/2+y,z
1/2+x,-y,z
loop_
_atom_site_type_symbol
_atom_site_label
_atom_site_fract_x
_atom_site_fract_y
_atom_site_fract_z
Si Si1 0.416984 0.068510 0.053206
Si Si2 0.084813 0.573191 0.757057
Si Si3 0.829103 0.929931 0.151367
Si Si4 0.168913 0.567827 0.448842
Si Si5 0.670948 0.070074 0.654499
O O1 0.500000 0.011914 0.062473
O O2 0.413568 0.250000 0.050016
O O3 0.367569 0.004746 0.099800
O O4 0.385889 0.000000 0.000000
O O5 0.098844 0.750000 0.771238
O O6 0.121561 0.468260 0.799813
O O7 0.118397 0.532792 0.701834
O O8 0.000000 0.532812 0.754896
O O9 0.820559 0.750000 0.147275
O O10 0.750000 0.000000 0.158413
O O11 0.128690 0.500000 0.500000
O O12 0.169173 0.750000 0.451284
O O13 0.250000 0.500000 0.447703
O O14 0.132717 0.508141 0.395729
O O15 0.679899 0.250000 0.644387
O O16 0.750000 0.000000 0.666805
#
# Coordination Sequence:
#
# PCOD8278068 Si02
#       5
#    16  16  16  16  16
#     4   9  19  36  57  81 109 143 182 222 266 317
#     4  10  22  39  58  80 107 141 180 222 271 326
#     4  11  23  38  57  82 112 144 181 226 272 320
#     4  10  17  27  45  71 103 136 172 213 260 312
#     4  10  19  32  51  76 106 137 173 217 263 313
#
# _framework density 19.314627999999999
#
# number of rings (size 3 to 8) (size 9 to 14) (size 15 to 20)
#    0.000    2.000    0.000    6.000    0.000    6.400 
#    0.000    4.000    0.000    0.600    0.000    0.000 
#    0.000    0.000    0.000    0.000    0.000    0.000 
#
# Total GULP energy -496006.169056 kJ/mol
# GULP energy per Si atom -12400.154226 kJ/mol
# Density = 1.927067 g / cm^3
# Si number density = 19.314628 Si / 1000 Ang^3
#
#
#
# Elastic Constant Matrix: (Units=GPa)
#
#
# Indices 1 2 3 4 5 6 
#
# 1 90.4763 29.7291 63.3513 0.0000 0.0000 0.0000
# 2 29.7291 94.1905 58.9449 0.0000 0.0000 0.0000
# 3 63.3513 58.9449 168.6036 0.0000 0.0000 0.0000
# 4 0.0000 0.0000 0.0000 35.4393 0.0000 0.0000
# 5 0.0000 0.0000 0.0000 0.0000 0.3030 0.0000
# 6 0.0000 0.0000 0.0000 0.0000 0.0000 11.5890
#
#
#
# Elastic Compliance Matrix: (Units=1/GPa)
#
#
# Indices 1 2 3 4 5 6 
#
# 1 0.015176 -0.001564 -0.005156 0.000000 0.000000 0.000000
# 2 -0.001564 0.013751 -0.004220 0.000000 0.000000 0.000000
# 3 -0.005156 -0.004220 0.009344 0.000000 0.000000 0.000000
# 4 0.000000 0.000000 0.000000 0.028217 0.000000 0.000000
# 5 0.000000 0.000000 0.000000 0.000000 3.300566 0.000000
# 6 0.000000 0.000000 0.000000 0.000000 0.000000 0.086289
#
#
# Mechanical properties :
#
#
# Convention : Reuss Voigt Hill
#
# Bulk Modulus (GPa) = 61.00330 73.03566 67.01948
# Shear Modulus (GPa) = 1.43650 22.88259 12.15955
#
# Velocity S-wave (km/s) = 0.86334 3.44572 2.51181
# Velocity P-wave (km/s) = 5.71370 7.32983 6.57164
#
# Compressibility (1/GPa) = 0.01639256
#
# Stress axis : x y z
#
# Youngs Moduli (GPa) = 65.89158 72.72100 107.02468
#
# Poissons Ratio (x) = 0.11371 0.55179
# Poissons Ratio (y) = 0.10303 0.45164
# Poissons Ratio (z) = 0.33972 0.30688
#
# Static dielectric constant tensor:
#      x y z
#    x 3.389500 0.000000 0.000000 
#    y 0.000000 3.510270 0.000000 
#    z 0.000000 0.000000 4.206690 
# 
# 
# High freq. dielectric constant tensor:
#      x y z
#    x 1.720120 0.000000 0.000000 
#    y 0.000000 1.756070 0.000000 
#    z 0.000000 0.000000 1.777670 
# 
# From -- ./inp_files/43276.got.cif
#   From: 2010.03.12/outbox.cif.g09.slc.cpg/sg67_22_cif.got.tgz:43276.got - 2010.04.10 22:41:39.
