data_PCOD8278375
_publ_section_title
;
Structure prediction by ZEFSAII (Michael W. Deem and Ramdas Pophale) SiO2 
 PCOD8278375
Probable space group: C M M A
;
_chemical_formula_sum "Si O2"
_cell_formula_units_Z 112
_cell_length_a 17.156309
_cell_length_b 21.585350
_cell_length_c 17.015670
_cell_angle_alpha 90.000000
_cell_angle_beta 90.000000
_cell_angle_gamma 90.000000
_cell_volume 6301.326878
_symmetry_space_group_name_H-M "C M M A"
_symmetry_group_IT_number 67
_symmetry_cell_setting 'orthorhombic'
loop_
_space_group_symop_operation_xyz
x,y,z
-x,1/2-y,z
x,-y,-z
-x,1/2+y,-z
-x,-y,-z
x,1/2+y,-z
-x,y,z
x,1/2-y,z
1/2+x,1/2+y,z
1/2-x,-y,z
1/2+x,1/2-y,-z
1/2-x,y,-z
1/2-x,1/2-y,-z
1/2+x,y,-z
1/2-x,1/2+y,z
1/2+x,-y,z
loop_
_atom_site_type_symbol
_atom_site_label
_atom_site_fract_x
_atom_site_fract_y
_atom_site_fract_z
Si Si1 0.592233 0.510952 0.289821
Si Si2 0.587828 0.322420 0.132073
Si Si3 0.407200 0.127942 0.296324
Si Si4 0.908855 0.024067 0.115442
Si Si5 0.907143 0.819097 0.459024
Si Si6 0.839638 0.587810 0.020723
Si Si7 0.592814 0.560140 0.451755
O O1 0.500000 0.507396 0.294385
O O2 0.625734 0.441830 0.301522
O O3 0.618201 0.537936 0.204995
O O4 0.622208 0.554146 0.361309
O O5 0.500000 0.349273 0.124132
O O6 0.587657 0.250000 0.123985
O O7 0.624037 0.341356 0.216176
O O8 0.640901 0.347343 0.061308
O O9 0.500000 0.128308 0.296231
O O10 0.376947 0.167104 0.370770
O O11 0.000000 0.008186 0.112308
O O12 0.861639 0.965637 0.082471
O O13 0.889060 0.082553 0.060249
O O14 0.877300 0.750000 0.484290
O O15 0.874313 0.874251 0.515097
O O16 0.000000 0.819977 0.461400
O O17 0.750000 0.583010 0.000000
O O18 0.623724 0.500000 0.500000
O O19 0.500000 0.561046 0.457807
#
# Coordination Sequence:
#
# PCOD8278375 Si02
#       7
#    16  16  16  16  16  16  16
#     4   9  15  23  40  62  85 115 151 193 232 275
#     4  10  19  31  48  69  95 127 161 197 237 282
#     4   9  14  23  38  61  89 118 154 192 234 277
#     4  10  18  31  50  68  90 120 159 201 240 285
#     4   9  15  21  32  53  86 124 155 186 230 282
#     4  11  21  32  47  69  96 122 155 192 245 296
#     4   9  14  21  33  53  83 117 149 183 228 284
#
# _framework density 17.774034
#
# number of rings (size 3 to 8) (size 9 to 14) (size 15 to 20)
#    0.000    2.429    2.857    3.000    0.000    2.000 
#    0.000    0.000    0.000    0.857    0.000    4.000 
#    0.000    8.000    0.000    2.714    0.000    2.857 
#
# Total GULP energy -694004.122529 kJ/mol
# GULP energy per Si atom -12392.930759 kJ/mol
# Density = 1.773358 g / cm^3
# Si number density = 17.774034 Si / 1000 Ang^3
#
#
#
# Elastic Constant Matrix: (Units=GPa)
#
#
# Indices 1 2 3 4 5 6 
#
# 1 38.5093 16.7747 28.0626 0.0000 0.0000 0.0000
# 2 16.7747 116.2610 76.2386 0.0000 0.0000 0.0000
# 3 28.0626 76.2386 165.5974 0.0000 0.0000 0.0000
# 4 0.0000 0.0000 0.0000 29.0415 0.0000 0.0000
# 5 0.0000 0.0000 0.0000 0.0000 1.8664 0.0000
# 6 0.0000 0.0000 0.0000 0.0000 0.0000 2.5358
#
#
#
# Elastic Compliance Matrix: (Units=1/GPa)
#
#
# Indices 1 2 3 4 5 6 
#
# 1 0.029788 -0.001415 -0.004397 0.000000 0.000000 0.000000
# 2 -0.001415 0.012388 -0.005464 0.000000 0.000000 0.000000
# 3 -0.004397 -0.005464 0.009299 0.000000 0.000000 0.000000
# 4 0.000000 0.000000 0.000000 0.034434 0.000000 0.000000
# 5 0.000000 0.000000 0.000000 0.000000 0.535792 0.000000
# 6 0.000000 0.000000 0.000000 0.000000 0.000000 0.394360
#
#
# Mechanical properties :
#
#
# Convention : Reuss Voigt Hill
#
# Bulk Modulus (GPa) = 34.57185 62.50217 48.53701
# Shear Modulus (GPa) = 4.76984 19.97485 12.37234
#
# Velocity S-wave (km/s) = 1.63995 3.35598 2.64122
# Velocity P-wave (km/s) = 4.80405 7.08929 6.05545
#
# Compressibility (1/GPa) = 0.02892526
#
# Stress axis : x y z
#
# Youngs Moduli (GPa) = 33.57063 80.72161 107.53662
#
# Poissons Ratio (x) = 0.11421 0.47279
# Poissons Ratio (y) = 0.04750 0.58754
# Poissons Ratio (z) = 0.14760 0.44103
#
# Static dielectric constant tensor:
#      x y z
#    x 2.777390 0.000000 0.000000 
#    y 0.000000 3.349910 0.000000 
#    z 0.000000 0.000000 3.746620 
# 
# 
# High freq. dielectric constant tensor:
#      x y z
#    x 1.621580 0.000000 0.000000 
#    y 0.000000 1.673410 0.000000 
#    z 0.000000 0.000000 1.701490 
# 
# From -- ./inp_files/34448.got.cif
#   From: 2010.03.12/outbox.cif.g09.slc.cpg/sg67_18_cif.got.tgz:34448.got - 2010.04.10 22:41:39.
