data_PCOD8278247
_publ_section_title
;
Structure prediction by ZEFSAII (Michael W. Deem and Ramdas Pophale) SiO2 
 PCOD8278247
Probable space group: C M M A
;
_chemical_formula_sum "Si O2"
_cell_formula_units_Z 72
_cell_length_a 16.167416
_cell_length_b 15.015368
_cell_length_c 15.162481
_cell_angle_alpha 90.000000
_cell_angle_beta 90.000000
_cell_angle_gamma 90.000000
_cell_volume 3680.839352
_symmetry_space_group_name_H-M "C M M A"
_symmetry_group_IT_number 67
_symmetry_cell_setting 'orthorhombic'
loop_
_space_group_symop_operation_xyz
x,y,z
-x,1/2-y,z
x,-y,-z
-x,1/2+y,-z
-x,-y,-z
x,1/2+y,-z
-x,y,z
x,1/2-y,z
1/2+x,1/2+y,z
1/2-x,-y,z
1/2+x,1/2-y,-z
1/2-x,y,-z
1/2-x,1/2-y,-z
1/2+x,y,-z
1/2-x,1/2+y,z
1/2+x,-y,z
loop_
_atom_site_type_symbol
_atom_site_label
_atom_site_fract_x
_atom_site_fract_y
_atom_site_fract_z
Si Si1 0.902204 0.064160 0.422431
Si Si2 0.095016 0.059123 0.924497
Si Si3 0.670853 0.250000 0.285395
Si Si4 0.406115 0.750000 0.896998
Si Si5 0.689092 0.750000 0.418231
Si Si6 0.597625 0.934241 0.727363
O O1 0.866336 0.162556 0.426073
O O2 0.000000 0.073101 0.429600
O O3 0.868464 0.000000 0.500000
O O4 0.874226 0.017793 0.331113
O O5 0.104130 0.161932 0.956190
O O6 0.134036 0.049806 0.826346
O O7 0.000000 0.028416 0.918713
O O8 0.140352 0.000000 0.000000
O O9 0.663484 0.250000 0.179201
O O10 0.763614 0.250000 0.324136
O O11 0.628310 0.158007 0.317729
O O12 0.500000 0.750000 0.854605
O O13 0.750000 0.750000 0.500000
O O14 0.500000 0.926033 0.732271
#
# Coordination Sequence:
#
# PCOD8278247 Si02
#       6
#    16  16   8   8   8  16
#     4  10  22  40  58  75 101 137 172 209 255 306
#     4   8  13  23  42  71 103 131 166 214 258 293
#     4  10  18  29  50  77 104 133 166 213 259 298
#     4   8  14  26  44  70 105 138 173 214 256 308
#     4  12  25  37  53  79 107 133 167 213 258 306
#     4   9  17  31  52  77 105 139 177 213 255 308
#
# _framework density 19.560756000000001
#
# number of rings (size 3 to 8) (size 9 to 14) (size 15 to 20)
#    0.000    2.667    0.000    4.000    0.000    3.111 
#    0.000    6.667    0.000    5.333    0.000   18.667 
#    0.000    0.000    0.000    0.000    0.000    3.556 
#
# Total GULP energy -445993.712429 kJ/mol
# GULP energy per Si atom -12388.714234 kJ/mol
# Density = 1.951624 g / cm^3
# Si number density = 19.560756 Si / 1000 Ang^3
#
#
#
# Elastic Constant Matrix: (Units=GPa)
#
#
# Indices 1 2 3 4 5 6 
#
# 1 25.9321 38.1351 31.8166 0.0000 0.0000 0.0000
# 2 38.1351 198.8850 87.2621 0.0000 0.0000 0.0000
# 3 31.8166 87.2621 111.5071 0.0000 0.0000 0.0000
# 4 0.0000 0.0000 0.0000 35.9585 0.0000 0.0000
# 5 0.0000 0.0000 0.0000 0.0000 14.6527 0.0000
# 6 0.0000 0.0000 0.0000 0.0000 0.0000 17.9744
#
#
#
# Elastic Compliance Matrix: (Units=1/GPa)
#
#
# Indices 1 2 3 4 5 6 
#
# 1 0.064465 -0.006534 -0.013281 0.000000 0.000000 0.000000
# 2 -0.006534 0.008319 -0.004646 0.000000 0.000000 0.000000
# 3 -0.013281 -0.004646 0.016394 0.000000 0.000000 0.000000
# 4 0.000000 0.000000 0.000000 0.027810 0.000000 0.000000
# 5 0.000000 0.000000 0.000000 0.000000 0.068247 0.000000
# 6 0.000000 0.000000 0.000000 0.000000 0.000000 0.055635
#
#
# Mechanical properties :
#
#
# Convention : Reuss Voigt Hill
#
# Bulk Modulus (GPa) = 24.84074 72.30573 48.57324
# Shear Modulus (GPa) = 16.49022 25.65782 21.07402
#
# Velocity S-wave (km/s) = 2.90664 3.62567 3.28588
# Velocity P-wave (km/s) = 4.89812 7.38730 6.26753
#
# Compressibility (1/GPa) = 0.04025644
#
# Stress axis : x y z
#
# Youngs Moduli (GPa) = 15.51222 120.20087 60.99977
#
# Poissons Ratio (x) = 0.78537 0.81013
# Poissons Ratio (y) = 0.10135 0.28342
# Poissons Ratio (z) = 0.20602 0.55848
#
# Static dielectric constant tensor:
#      x y z
#    x 3.155570 0.000000 0.000000 
#    y 0.000000 3.891820 0.000000 
#    z 0.000000 0.000000 3.800270 
# 
# 
# High freq. dielectric constant tensor:
#      x y z
#    x 1.717310 0.000000 0.000000 
#    y 0.000000 1.780440 0.000000 
#    z 0.000000 0.000000 1.751020 
# 
# From -- ./inp_files/28308.got.cif
#   From: 2010.03.12/outbox.cif.g09.slc.cpg/sg67_15_cif.got.tgz:28308.got - 2010.04.10 22:41:39.
