data_PCOD8278124
_publ_section_title
;
Structure prediction by ZEFSAII (Michael W. Deem and Ramdas Pophale) SiO2 
 PCOD8278124
Probable space group: C M M A
;
_chemical_formula_sum "Si O2"
_cell_formula_units_Z 64
_cell_length_a 17.831232
_cell_length_b 20.287143
_cell_length_c 8.874633
_cell_angle_alpha 90.000000
_cell_angle_beta 90.000000
_cell_angle_gamma 90.000000
_cell_volume 3210.351927
_symmetry_space_group_name_H-M "C M M A"
_symmetry_group_IT_number 67
_symmetry_cell_setting 'orthorhombic'
loop_
_space_group_symop_operation_xyz
x,y,z
-x,1/2-y,z
x,-y,-z
-x,1/2+y,-z
-x,-y,-z
x,1/2+y,-z
-x,y,z
x,1/2-y,z
1/2+x,1/2+y,z
1/2-x,-y,z
1/2+x,1/2-y,-z
1/2-x,y,-z
1/2-x,1/2-y,-z
1/2+x,y,-z
1/2-x,1/2+y,z
1/2+x,-y,z
loop_
_atom_site_type_symbol
_atom_site_label
_atom_site_fract_x
_atom_site_fract_y
_atom_site_fract_z
Si Si1 0.750000 0.601382 0.500000
Si Si2 0.000000 0.436438 0.889672
Si Si3 0.648859 0.623072 0.249330
Si Si4 0.000000 0.824723 0.863868
Si Si5 0.350256 0.530703 0.745069
Si Si6 0.750000 0.085520 0.000000
O O1 0.700003 0.647522 0.389930
O O2 0.692702 0.557165 0.598584
O O3 0.928787 0.433292 0.778733
O O4 0.000000 0.500000 0.000000
O O5 0.000000 0.371701 0.992053
O O6 0.572145 0.663333 0.241940
O O7 0.632330 0.545996 0.277015
O O8 0.694402 0.633053 0.093690
O O9 0.000000 0.750000 0.922121
O O10 0.297409 0.538965 0.889255
#
# Coordination Sequence:
#
# PCOD8278124 Si02
#       6
#     8   8  16   8  16   8
#     4  10  23  34  59 100 129 152 190 255 312 361
#     4  12  20  37  63  92 115 162 207 256 306 357
#     4  11  19  36  57  89 126 155 195 246 306 359
#     4  12  26  41  59  87 123 164 211 254 297 352
#     4  11  18  32  58  95 126 151 192 247 311 359
#     4  10  17  28  59  90 121 154 191 248 301 360
#
# _framework density 19.935509
#
# number of rings (size 3 to 8) (size 9 to 14) (size 15 to 20)
#    0.000    1.000    5.000    6.000    0.000    1.000 
#    0.000    3.750    0.000    3.000    0.000    0.000 
#    0.000    0.000    0.000    0.000    0.000    0.000 
#
# Total GULP energy -396686.057562 kJ/mol
# GULP energy per Si atom -12396.439299 kJ/mol
# Density = 1.989013 g / cm^3
# Si number density = 19.935509 Si / 1000 Ang^3
#
#
#
# Elastic Constant Matrix: (Units=GPa)
#
#
# Indices 1 2 3 4 5 6 
#
# 1 172.7219 44.0902 67.1549 0.0000 0.0000 0.0000
# 2 44.0902 73.4701 27.0895 0.0000 0.0000 0.0000
# 3 67.1549 27.0895 127.3043 0.0000 0.0000 0.0000
# 4 0.0000 0.0000 0.0000 12.2634 0.0000 0.0000
# 5 0.0000 0.0000 0.0000 0.0000 217.1296 0.0000
# 6 0.0000 0.0000 0.0000 0.0000 0.0000 2.9094
#
#
#
# Elastic Compliance Matrix: (Units=1/GPa)
#
#
# Indices 1 2 3 4 5 6 
#
# 1 0.008053 -0.003544 -0.003494 0.000000 0.000000 0.000000
# 2 -0.003544 0.016330 -0.001605 0.000000 0.000000 0.000000
# 3 -0.003494 -0.001605 0.010040 0.000000 0.000000 0.000000
# 4 0.000000 0.000000 0.000000 0.081543 0.000000 0.000000
# 5 0.000000 0.000000 0.000000 0.000000 0.004606 0.000000
# 6 0.000000 0.000000 0.000000 0.000000 0.000000 0.343709
#
#
# Mechanical properties :
#
#
# Convention : Reuss Voigt Hill
#
# Bulk Modulus (GPa) = 58.35728 72.24062 65.29895
# Shear Modulus (GPa) = 10.26107 62.13795 36.19951
#
# Velocity S-wave (km/s) = 2.27119 5.58902 4.26588
# Velocity P-wave (km/s) = 6.01783 8.82980 7.55578
#
# Compressibility (1/GPa) = 0.01713582
#
# Stress axis : x y z
#
# Youngs Moduli (GPa) = 124.18035 61.23756 99.60382
#
# Poissons Ratio (x) = 0.21705 0.34799
# Poissons Ratio (y) = 0.44014 0.15988
# Poissons Ratio (z) = 0.43386 0.09830
#
# Static dielectric constant tensor:
#      x y z
#    x 5.000010 0.000000 0.000000 
#    y 0.000000 2.961220 0.000000 
#    z 0.000000 0.000000 4.032360 
# 
# 
# High freq. dielectric constant tensor:
#      x y z
#    x 1.803160 0.000000 0.000000 
#    y 0.000000 1.708330 0.000000 
#    z 0.000000 0.000000 1.785470 
# 
# From -- ./inp_files/9440.got.cif
#   From: 2010.03.12/outbox.cif.g09.slc.cpg/sg67_5_cif.got.tgz:9440.got - 2010.04.10 22:41:39.
