data_PCOD8278300
_publ_section_title
;
Structure prediction by ZEFSAII (Michael W. Deem and Ramdas Pophale) SiO2 
 PCOD8278300
Probable space group: C M M A
;
_chemical_formula_sum "Si O2"
_cell_formula_units_Z 112
_cell_length_a 28.502100
_cell_length_b 9.739274
_cell_length_c 25.530574
_cell_angle_alpha 90.000000
_cell_angle_beta 90.000000
_cell_angle_gamma 90.000000
_cell_volume 7087.025947
_symmetry_space_group_name_H-M "C M M A"
_symmetry_group_IT_number 67
_symmetry_cell_setting 'orthorhombic'
loop_
_space_group_symop_operation_xyz
x,y,z
-x,1/2-y,z
x,-y,-z
-x,1/2+y,-z
-x,-y,-z
x,1/2+y,-z
-x,y,z
x,1/2-y,z
1/2+x,1/2+y,z
1/2-x,-y,z
1/2+x,1/2-y,-z
1/2-x,y,-z
1/2-x,1/2-y,-z
1/2+x,y,-z
1/2-x,1/2+y,z
1/2+x,-y,z
loop_
_atom_site_type_symbol
_atom_site_label
_atom_site_fract_x
_atom_site_fract_y
_atom_site_fract_z
Si Si1 0.605848 0.410822 0.746127
Si Si2 0.607802 0.089549 0.950738
Si Si3 0.792093 0.093333 0.094561
Si Si4 0.052819 0.913045 0.849129
Si Si5 0.944489 0.098983 0.543970
Si Si6 0.792442 0.407077 0.215285
Si Si7 0.945795 0.589073 0.338001
O O1 0.595054 0.250000 0.737247
O O2 0.580218 0.466758 0.798211
O O3 0.661285 0.437633 0.751036
O O4 0.587511 0.497340 0.697534
O O5 0.598024 0.250000 0.961709
O O6 0.662384 0.062654 0.939794
O O7 0.577986 0.034306 0.901574
O O8 0.591564 0.000000 0.000000
O O9 0.775927 0.250000 0.088666
O O10 0.803926 0.058786 0.154851
O O11 0.750000 0.000000 0.073034
O O12 0.053887 0.750000 0.849036
O O13 0.000000 0.970798 0.847675
O O14 0.922898 0.250000 0.535020
O O15 0.932840 0.047674 0.602468
O O16 0.000000 0.106630 0.537140
O O17 0.922023 0.000000 0.500000
O O18 0.776730 0.250000 0.221478
O O19 0.750000 0.500000 0.236659
O O20 0.936295 0.750000 0.328369
O O21 0.000000 0.554340 0.325879
#
# Coordination Sequence:
#
# PCOD8278300 Si02
#       7
#    16  16  16  16  16  16  16
#     4  10  18  30  49  71  91 115 153 193 223 265
#     4  10  20  34  49  66  88 112 141 180 221 264
#     4   9  17  31  49  67  89 112 137 172 217 268
#     4   9  17  31  50  67  85 114 148 181 222 265
#     4   8  14  25  40  58  85 123 162 196 228 261
#     4   9  17  30  48  69  91 114 144 181 222 271
#     4   9  18  30  42  63  98 132 158 190 233 271
#
# _framework density 15.803527000000001
#
# number of rings (size 3 to 8) (size 9 to 14) (size 15 to 20)
#    0.000    2.857    1.429    1.286    0.000    3.143 
#    0.000    3.571    0.000    0.857    0.000    0.000 
#    0.000    0.571    0.000    6.286    0.000    4.857 
#
# Total GULP energy -694310.533166 kJ/mol
# GULP energy per Si atom -12398.402378 kJ/mol
# Density = 1.576756 g / cm^3
# Si number density = 15.803527 Si / 1000 Ang^3
#
#
#
# Elastic Constant Matrix: (Units=GPa)
#
#
# Indices 1 2 3 4 5 6 
#
# 1 75.8852 41.0524 43.4393 0.0000 0.0000 0.0000
# 2 41.0524 60.6277 53.6741 0.0000 0.0000 0.0000
# 3 43.4393 53.6741 109.2942 0.0000 0.0000 0.0000
# 4 0.0000 0.0000 0.0000 29.3813 0.0000 0.0000
# 5 0.0000 0.0000 0.0000 0.0000 14.6108 0.0000
# 6 0.0000 0.0000 0.0000 0.0000 0.0000 21.3472
#
#
#
# Elastic Compliance Matrix: (Units=1/GPa)
#
#
# Indices 1 2 3 4 5 6 
#
# 1 0.021154 -0.012173 -0.002430 0.000000 0.000000 0.000000
# 2 -0.012173 0.036186 -0.012933 0.000000 0.000000 0.000000
# 3 -0.002430 -0.012933 0.016467 0.000000 0.000000 0.000000
# 4 0.000000 0.000000 0.000000 0.034035 0.000000 0.000000
# 5 0.000000 0.000000 0.000000 0.000000 0.068442 0.000000
# 6 0.000000 0.000000 0.000000 0.000000 0.000000 0.046844
#
#
# Mechanical properties :
#
#
# Convention : Reuss Voigt Hill
#
# Bulk Modulus (GPa) = 53.37303 58.01542 55.69423
# Shear Modulus (GPa) = 17.57811 20.24394 18.91102
#
# Velocity S-wave (km/s) = 3.33872 3.58295 3.46299
# Velocity P-wave (km/s) = 6.97918 7.34213 7.16295
#
# Compressibility (1/GPa) = 0.01873605
#
# Stress axis : x y z
#
# Youngs Moduli (GPa) = 47.27265 27.63489 60.72919
#
# Poissons Ratio (x) = 0.33639 0.14755
# Poissons Ratio (y) = 0.57544 0.78540
# Poissons Ratio (z) = 0.11486 0.35740
#
# Static dielectric constant tensor:
#      x y z
#    x 2.905410 0.000000 0.000000 
#    y 0.000000 2.963440 0.000000 
#    z 0.000000 0.000000 2.946600 
# 
# 
# High freq. dielectric constant tensor:
#      x y z
#    x 1.586960 0.000000 0.000000 
#    y 0.000000 1.594760 0.000000 
#    z 0.000000 0.000000 1.596800 
# 
# From -- ./inp_files/42652.got.cif
#   From: 2010.03.12/outbox.cif.g09.slc.cpg/sg67_22_cif.got.tgz:42652.got - 2010.04.10 22:41:39.
