data_PCOD8278857
_publ_section_title
;
Structure prediction by ZEFSAII (Michael W. Deem and Ramdas Pophale) SiO2 
 PCOD8278857
Probable space group: C M M A
;
_chemical_formula_sum "Si O2"
_cell_formula_units_Z 72
_cell_length_a 15.308659
_cell_length_b 9.177234
_cell_length_c 24.990622
_cell_angle_alpha 90.000000
_cell_angle_beta 90.000000
_cell_angle_gamma 90.000000
_cell_volume 3510.961121
_symmetry_space_group_name_H-M "C M M A"
_symmetry_group_IT_number 67
_symmetry_cell_setting 'orthorhombic'
loop_
_space_group_symop_operation_xyz
x,y,z
-x,1/2-y,z
x,-y,-z
-x,1/2+y,-z
-x,-y,-z
x,1/2+y,-z
-x,y,z
x,1/2-y,z
1/2+x,1/2+y,z
1/2-x,-y,z
1/2+x,1/2-y,-z
1/2-x,y,-z
1/2-x,1/2-y,-z
1/2+x,y,-z
1/2-x,1/2+y,z
1/2+x,-y,z
loop_
_atom_site_type_symbol
_atom_site_label
_atom_site_fract_x
_atom_site_fract_y
_atom_site_fract_z
Si Si1 0.399344 0.419435 0.450018
Si Si2 0.000000 0.079616 0.944081
Si Si3 0.603494 0.917069 0.230733
Si Si4 0.335897 0.577151 0.872759
Si Si5 0.395865 0.913229 0.666789
O O1 0.351876 0.500000 0.500000
O O2 0.500000 0.467310 0.449058
O O3 0.388419 0.250000 0.460168
O O4 0.359092 0.461803 0.391737
O O5 0.084645 0.031680 0.910844
O O6 0.000000 0.250000 0.955280
O O7 0.000000 0.000000 0.000000
O O8 0.500000 0.934493 0.225813
O O9 0.632707 0.750000 0.223498
O O10 0.648420 0.016540 0.186413
O O11 0.637256 0.974014 0.288302
O O12 0.323479 0.750000 0.869970
O O13 0.250000 0.500000 0.896968
O O14 0.500000 0.912035 0.664215
O O15 0.363266 0.750000 0.681014
#
# Coordination Sequence:
#
# PCOD8278857 Si02
#       5
#    16   8  16  16  16
#     4   8  13  20  30  47  76 118 167 219 278 338
#     4  10  24  44  68  94 126 164 201 240 289 340
#     4  10  19  31  51  79 109 145 189 239 292 347
#     4  11  23  41  63  91 123 160 201 243 293 347
#     4   8  14  24  38  58  88 130 177 226 283 347
#
# _framework density 20.507204999999999
#
# number of rings (size 3 to 8) (size 9 to 14) (size 15 to 20)
#    0.000    2.667    1.111    2.667    0.000    4.000 
#    0.000    6.667    0.000    0.000    0.000    0.000 
#    0.000    0.889    0.000    9.333    0.000   13.556 
#
# Total GULP energy -446249.373315 kJ/mol
# GULP energy per Si atom -12395.815925 kJ/mol
# Density = 2.046053 g / cm^3
# Si number density = 20.507205 Si / 1000 Ang^3
#
#
#
# Elastic Constant Matrix: (Units=GPa)
#
#
# Indices 1 2 3 4 5 6 
#
# 1 73.9503 43.3469 50.2291 0.0000 0.0000 0.0000
# 2 43.3469 92.4876 66.8818 0.0000 0.0000 0.0000
# 3 50.2291 66.8818 163.0820 0.0000 0.0000 0.0000
# 4 0.0000 0.0000 0.0000 44.4026 0.0000 0.0000
# 5 0.0000 0.0000 0.0000 0.0000 -3.4080 0.0000
# 6 0.0000 0.0000 0.0000 0.0000 0.0000 22.1897
#
#
#
# Elastic Compliance Matrix: (Units=1/GPa)
#
#
# Indices 1 2 3 4 5 6 
#
# 1 0.019792 -0.006920 -0.003258 0.000000 0.000000 0.000000
# 2 -0.006920 0.017790 -0.005165 0.000000 0.000000 0.000000
# 3 -0.003258 -0.005165 0.009253 0.000000 0.000000 0.000000
# 4 0.000000 0.000000 0.000000 0.022521 0.000000 0.000000
# 5 0.000000 0.000000 0.000000 0.000000 -0.293426 0.000000
# 6 0.000000 0.000000 0.000000 0.000000 0.000000 0.045066
#
#
# Mechanical properties :
#
#
# Convention : Reuss Voigt Hill
#
# Bulk Modulus (GPa) = 61.91827 72.27062 67.09445
# Shear Modulus (GPa) = -34.98092 23.90767 -5.53663
#
# Velocity S-wave (km/s) = -4.13460 3.41811 -1.64490
# Velocity P-wave (km/s) = 2.73236 7.13415 5.40194
#
# Compressibility (1/GPa) = 0.01615032
#
# Stress axis : x y z
#
# Youngs Moduli (GPa) = 50.52634 56.21042 108.06864
#
# Poissons Ratio (x) = 0.38898 0.35207
# Poissons Ratio (y) = 0.34964 0.55814
# Poissons Ratio (z) = 0.16461 0.29031
#
# Static dielectric constant tensor:
#      x y z
#    x 3.538800 0.000000 0.000000 
#    y 0.000000 3.670420 0.000000 
#    z 0.000000 0.000000 4.029810 
# 
# 
# High freq. dielectric constant tensor:
#      x y z
#    x 1.767960 0.000000 0.000000 
#    y 0.000000 1.798270 0.000000 
#    z 0.000000 0.000000 1.811230 
# 
# From -- ./inp_files/42119.got.cif
#   From: 2010.03.12/outbox.cif.g09.slc.cpg/sg67_22_cif.got.tgz:42119.got - 2010.04.10 22:41:39.
