data_PCOD8278528
_publ_section_title
;
Structure prediction by ZEFSAII (Michael W. Deem and Ramdas Pophale) SiO2 
 PCOD8278528
Probable space group: C M M A
;
_chemical_formula_sum "Si O2"
_cell_formula_units_Z 68
_cell_length_a 22.084189
_cell_length_b 15.768778
_cell_length_c 8.812359
_cell_angle_alpha 90.000000
_cell_angle_beta 90.000000
_cell_angle_gamma 90.000000
_cell_volume 3068.821835
_symmetry_space_group_name_H-M "C M M A"
_symmetry_group_IT_number 67
_symmetry_cell_setting 'orthorhombic'
loop_
_space_group_symop_operation_xyz
x,y,z
-x,1/2-y,z
x,-y,-z
-x,1/2+y,-z
-x,-y,-z
x,1/2+y,-z
-x,y,z
x,1/2-y,z
1/2+x,1/2+y,z
1/2-x,-y,z
1/2+x,1/2-y,-z
1/2-x,y,-z
1/2-x,1/2-y,-z
1/2+x,y,-z
1/2-x,1/2+y,z
1/2+x,-y,z
loop_
_atom_site_type_symbol
_atom_site_label
_atom_site_fract_x
_atom_site_fract_y
_atom_site_fract_z
Si Si1 0.000000 0.879501 0.542678
Si Si2 0.000000 0.157093 0.131172
Si Si3 0.132701 0.250000 0.877468
Si Si4 0.373019 0.588991 0.074067
Si Si5 0.500000 0.750000 0.725296
Si Si6 0.368171 0.419345 0.581770
Si Si7 0.317941 0.750000 0.556937
O O1 0.000000 0.832150 0.381831
O O2 0.060087 0.936100 0.561633
O O3 0.000000 0.819084 0.690614
O O4 0.944820 0.099500 0.079058
O O5 0.000000 0.250000 0.049955
O O6 0.061958 0.250000 0.824564
O O7 0.179026 0.250000 0.737978
O O8 0.151396 0.332058 0.976627
O O9 0.346285 0.588347 0.244408
O O10 0.354654 0.500000 0.000000
O O11 0.335763 0.500000 0.500000
O O12 0.352776 0.332242 0.500000
O O13 0.250000 0.750000 0.500000
#
# Coordination Sequence:
#
# PCOD8278528 Si02
#       7
#     8   8   8  16   4  16   8
#     4  10  19  34  64  98 132 170 218 260 318 403
#     4  10  18  33  54  87 133 177 207 251 318 389
#     4  12  23  40  64  96 137 165 215 273 332 385
#     4  11  23  38  60  94 131 170 210 262 327 391
#     4  12  20  32  64  94 138 170 216 260 338 390
#     4  11  23  44  69  97 133 174 217 266 324 401
#     4  12  27  46  70  94 122 173 228 276 327 387
#
# _framework density 22.158341
#
# number of rings (size 3 to 8) (size 9 to 14) (size 15 to 20)
#    0.000    0.941    4.118    3.529    3.294    0.471 
#    0.000    2.353    0.000    1.412    0.000    0.000 
#    0.000    0.000    0.000    0.000    0.000    0.000 
#
# Total GULP energy -421342.578806 kJ/mol
# GULP energy per Si atom -12392.428788 kJ/mol
# Density = 2.210791 g / cm^3
# Si number density = 22.158341 Si / 1000 Ang^3
#
#
#
# Elastic Constant Matrix: (Units=GPa)
#
#
# Indices 1 2 3 4 5 6 
#
# 1 57.0405 9.0436 24.3716 0.0000 0.0000 0.0000
# 2 9.0436 187.2001 90.6760 0.0000 0.0000 0.0000
# 3 24.3716 90.6760 193.5682 0.0000 0.0000 0.0000
# 4 0.0000 0.0000 0.0000 45.2909 0.0000 0.0000
# 5 0.0000 0.0000 0.0000 0.0000 11.4674 0.0000
# 6 0.0000 0.0000 0.0000 0.0000 0.0000 -4.3016
#
#
#
# Elastic Compliance Matrix: (Units=1/GPa)
#
#
# Indices 1 2 3 4 5 6 
#
# 1 0.018542 0.000304 -0.002477 0.000000 0.000000 0.000000
# 2 0.000304 0.006915 -0.003277 0.000000 0.000000 0.000000
# 3 -0.002477 -0.003277 0.007013 0.000000 0.000000 0.000000
# 4 0.000000 0.000000 0.000000 0.022079 0.000000 0.000000
# 5 0.000000 0.000000 0.000000 0.000000 0.087204 0.000000
# 6 0.000000 0.000000 0.000000 0.000000 0.000000 -0.232471
#
#
# Mechanical properties :
#
#
# Convention : Reuss Voigt Hill
#
# Bulk Modulus (GPa) = 46.36314 76.22124 61.29219
# Shear Modulus (GPa) = -68.84428 31.40586 -18.71921
#
# Velocity S-wave (km/s) = -5.58003 3.76884 -2.90969
# Velocity P-wave (km/s) = 4.53284 7.30835 4.05373
#
# Compressibility (1/GPa) = 0.02156886
#
# Stress axis : x y z
#
# Youngs Moduli (GPa) = 53.93305 144.61911 142.58625
#
# Poissons Ratio (x) = -0.04397 0.35318
# Poissons Ratio (y) = -0.01640 0.46732
# Poissons Ratio (z) = 0.13359 0.47398
#
# Static dielectric constant tensor:
#      x y z
#    x 3.592920 0.000000 0.000000 
#    y 0.000000 3.652680 0.000000 
#    z 0.000000 0.000000 4.359260 
# 
# 
# High freq. dielectric constant tensor:
#      x y z
#    x 1.821550 0.000000 0.000000 
#    y 0.000000 1.882350 0.000000 
#    z 0.000000 0.000000 1.895440 
# 
# From -- ./inp_files/10836.got.cif
#   From: 2010.03.12/outbox.cif.g09.slc.cpg/sg67_6_cif.got.tgz:10836.got - 2010.04.10 22:41:39.
