data_PCOD8278410
_publ_section_title
;
Structure prediction by ZEFSAII (Michael W. Deem and Ramdas Pophale) SiO2 
 PCOD8278410
Probable space group: C M M A
;
_chemical_formula_sum "Si O2"
_cell_formula_units_Z 96
_cell_length_a 25.718334
_cell_length_b 8.841828
_cell_length_c 23.543578
_cell_angle_alpha 90.000000
_cell_angle_beta 90.000000
_cell_angle_gamma 90.000000
_cell_volume 5353.741024
_symmetry_space_group_name_H-M "C M M A"
_symmetry_group_IT_number 67
_symmetry_cell_setting 'orthorhombic'
loop_
_space_group_symop_operation_xyz
x,y,z
-x,1/2-y,z
x,-y,-z
-x,1/2+y,-z
-x,-y,-z
x,1/2+y,-z
-x,y,z
x,1/2-y,z
1/2+x,1/2+y,z
1/2-x,-y,z
1/2+x,1/2-y,-z
1/2-x,y,-z
1/2-x,1/2-y,-z
1/2+x,y,-z
1/2-x,1/2+y,z
1/2+x,-y,z
loop_
_atom_site_type_symbol
_atom_site_label
_atom_site_fract_x
_atom_site_fract_y
_atom_site_fract_z
Si Si1 0.695293 0.428201 0.131089
Si Si2 0.000000 0.429261 0.127313
Si Si3 0.695984 0.073451 0.261927
Si Si4 0.000000 0.930072 0.745058
Si Si5 0.399875 0.928964 0.323063
Si Si6 0.058997 0.927790 0.556870
Si Si7 0.102152 0.569864 0.938201
O O1 0.696343 0.250000 0.118880
O O2 0.750000 0.500000 0.112950
O O3 0.683065 0.465134 0.196625
O O4 0.652136 0.508595 0.093841
O O5 0.000000 0.495652 0.191074
O O6 0.948927 0.487464 0.094947
O O7 0.000000 0.250000 0.130049
O O8 0.700725 0.250000 0.271978
O O9 0.750000 0.000000 0.280705
O O10 0.651716 0.007854 0.301693
O O11 0.051188 0.989985 0.713084
O O12 0.000000 0.750000 0.744276
O O13 0.394349 0.750000 0.315953
O O14 0.407455 0.976438 0.388613
O O15 0.059585 0.750000 0.549586
O O16 0.000000 0.986084 0.565675
O O17 0.083576 0.000000 0.500000
O O18 0.104798 0.750000 0.941905
O O19 0.099952 0.500000 0.000000
#
# Coordination Sequence:
#
# PCOD8278410 Si02
#       7
#    16   8  16   8  16  16  16
#     4  10  21  38  58  81 107 135 170 216 266 318
#     4   9  19  33  52  77 105 139 176 211 254 309
#     4  10  21  36  55  79 107 139 175 215 265 316
#     4   9  16  29  51  79 107 137 172 211 258 313
#     4  10  18  31  53  79 109 142 180 219 259 311
#     4   9  17  30  48  74 107 146 184 219 260 307
#     4  11  22  37  56  79 105 138 178 217 260 311
#
# _framework density 17.931386
#
# number of rings (size 3 to 8) (size 9 to 14) (size 15 to 20)
#    0.000    2.167    0.833    2.750    0.000    4.333 
#    0.000    3.333    0.000    4.500    0.000    3.500 
#    0.000    0.000    0.000    0.000    0.000    0.000 
#
# Total GULP energy -595299.158002 kJ/mol
# GULP energy per Si atom -12402.065792 kJ/mol
# Density = 1.789057 g / cm^3
# Si number density = 17.931386 Si / 1000 Ang^3
#
#
#
# Elastic Constant Matrix: (Units=GPa)
#
#
# Indices 1 2 3 4 5 6 
#
# 1 131.5290 41.8372 100.0733 0.0000 0.0000 0.0000
# 2 41.8372 56.6398 54.4794 0.0000 0.0000 0.0000
# 3 100.0733 54.4794 160.0621 0.0000 0.0000 0.0000
# 4 0.0000 0.0000 0.0000 26.6924 0.0000 0.0000
# 5 0.0000 0.0000 0.0000 0.0000 22.3557 0.0000
# 6 0.0000 0.0000 0.0000 0.0000 0.0000 25.3388
#
#
#
# Elastic Compliance Matrix: (Units=1/GPa)
#
#
# Indices 1 2 3 4 5 6 
#
# 1 0.014842 -0.003029 -0.008249 0.000000 0.000000 0.000000
# 2 -0.003029 0.026867 -0.007251 0.000000 0.000000 0.000000
# 3 -0.008249 -0.007251 0.013873 0.000000 0.000000 0.000000
# 4 0.000000 0.000000 0.000000 0.037464 0.000000 0.000000
# 5 0.000000 0.000000 0.000000 0.000000 0.044731 0.000000
# 6 0.000000 0.000000 0.000000 0.000000 0.000000 0.039465
#
#
# Mechanical properties :
#
#
# Convention : Reuss Voigt Hill
#
# Bulk Modulus (GPa) = 53.98135 82.33454 68.15794
# Shear Modulus (GPa) = 22.67835 25.00011 23.83923
#
# Velocity S-wave (km/s) = 3.56016 3.73796 3.65014
# Velocity P-wave (km/s) = 6.86072 8.04027 7.47380
#
# Compressibility (1/GPa) = 0.01852492
#
# Stress axis : x y z
#
# Youngs Moduli (GPa) = 67.37453 37.22026 72.08475
#
# Poissons Ratio (x) = 0.11276 0.59460
# Poissons Ratio (y) = 0.20410 0.52265
# Poissons Ratio (z) = 0.55575 0.26987
#
# Static dielectric constant tensor:
#      x y z
#    x 3.340510 0.000000 0.000000 
#    y 0.000000 3.197150 0.000000 
#    z 0.000000 0.000000 3.519690 
# 
# 
# High freq. dielectric constant tensor:
#      x y z
#    x 1.692920 0.000000 0.000000 
#    y 0.000000 1.683910 0.000000 
#    z 0.000000 0.000000 1.699590 
# 
# From -- ./inp_files/40804.got.cif
#   From: 2010.03.12/outbox.cif.g09.slc.cpg/sg67_21_cif.got.tgz:40804.got - 2010.04.10 22:41:39.
