data_PCOD8278131
_publ_section_title
;
Structure prediction by ZEFSAII (Michael W. Deem and Ramdas Pophale) SiO2 
 PCOD8278131
Probable space group: C M M A
;
_chemical_formula_sum "Si O2"
_cell_formula_units_Z 104
_cell_length_a 26.855827
_cell_length_b 8.886619
_cell_length_c 20.816248
_cell_angle_alpha 90.000000
_cell_angle_beta 90.000000
_cell_angle_gamma 90.000000
_cell_volume 4967.953759
_symmetry_space_group_name_H-M "C M M A"
_symmetry_group_IT_number 67
_symmetry_cell_setting 'orthorhombic'
loop_
_space_group_symop_operation_xyz
x,y,z
-x,1/2-y,z
x,-y,-z
-x,1/2+y,-z
-x,-y,-z
x,1/2+y,-z
-x,y,z
x,1/2-y,z
1/2+x,1/2+y,z
1/2-x,-y,z
1/2+x,1/2-y,-z
1/2-x,y,-z
1/2-x,1/2-y,-z
1/2+x,y,-z
1/2-x,1/2+y,z
1/2+x,-y,z
loop_
_atom_site_type_symbol
_atom_site_label
_atom_site_fract_x
_atom_site_fract_y
_atom_site_fract_z
Si Si1 0.398558 0.929452 0.069449
Si Si2 0.798703 0.430823 0.929077
Si Si3 0.444905 0.587392 0.596165
Si Si4 0.366944 0.000000 0.500000
Si Si5 0.890711 0.426272 0.298260
Si Si6 0.698174 0.417144 0.616762
Si Si7 0.556022 0.076777 0.183704
O O1 0.393561 0.750000 0.063155
O O2 0.349027 0.003948 0.101996
O O3 0.441700 0.977704 0.118549
O O4 0.410239 0.000000 0.000000
O O5 0.797545 0.250000 0.929645
O O6 0.750000 0.500000 0.893023
O O7 0.798959 0.500000 0.000000
O O8 0.500000 0.551747 0.568307
O O9 0.445193 0.750000 0.631754
O O10 0.404387 0.606454 0.539507
O O11 0.431586 0.457861 0.646867
O O12 0.331259 0.912255 0.450766
O O13 0.890674 0.250000 0.282645
O O14 0.837211 0.482523 0.326399
O O15 0.903643 0.517397 0.234474
O O16 0.712567 0.250000 0.635991
O O17 0.750000 0.500000 0.610347
O O18 0.500000 0.058269 0.211153
O O19 0.567899 0.250000 0.167590
#
# Coordination Sequence:
#
# PCOD8278131 Si02
#       7
#    16  16  16   8  16  16  16
#     4  11  22  38  60  88 123 160 198 241 292 349
#     4  10  17  29  50  78 112 149 189 230 276 329
#     4  10  20  34  54  81 114 153 196 242 293 347
#     4  10  20  34  54  82 118 156 198 242 290 342
#     4  10  22  40  60  84 113 147 191 241 294 351
#     4  10  22  38  58  84 115 152 194 240 289 344
#     4  11  24  42  64  89 116 149 192 240 292 352
#
# _framework density 20.934173000000001
#
# number of rings (size 3 to 8) (size 9 to 14) (size 15 to 20)
#    0.000    1.692    0.000    6.462    0.000    8.615 
#    0.000    0.769    0.000    1.846    0.000    0.000 
#    0.000    0.000    0.000    0.000    0.000    0.000 
#
# Total GULP energy -644387.353630 kJ/mol
# GULP energy per Si atom -12392.064493 kJ/mol
# Density = 2.088653 g / cm^3
# Si number density = 20.934173 Si / 1000 Ang^3
#
#
#
# Elastic Constant Matrix: (Units=GPa)
#
#
# Indices 1 2 3 4 5 6 
#
# 1 131.0339 45.9734 47.6630 0.0000 0.0000 0.0000
# 2 45.9734 138.2080 36.4788 0.0000 0.0000 0.0000
# 3 47.6630 36.4788 99.6125 0.0000 0.0000 0.0000
# 4 0.0000 0.0000 0.0000 28.8568 0.0000 0.0000
# 5 0.0000 0.0000 0.0000 0.0000 23.9894 0.0000
# 6 0.0000 0.0000 0.0000 0.0000 0.0000 22.6862
#
#
#
# Elastic Compliance Matrix: (Units=1/GPa)
#
#
# Indices 1 2 3 4 5 6 
#
# 1 0.009832 -0.002246 -0.003882 0.000000 0.000000 0.000000
# 2 -0.002246 0.008523 -0.002046 0.000000 0.000000 0.000000
# 3 -0.003882 -0.002046 0.012646 0.000000 0.000000 0.000000
# 4 0.000000 0.000000 0.000000 0.034654 0.000000 0.000000
# 5 0.000000 0.000000 0.000000 0.000000 0.041685 0.000000
# 6 0.000000 0.000000 0.000000 0.000000 0.000000 0.044080
#
#
# Mechanical properties :
#
#
# Convention : Reuss Voigt Hill
#
# Bulk Modulus (GPa) = 68.25121 69.89832 69.07477
# Shear Modulus (GPa) = 28.96020 31.02242 29.99131
#
# Velocity S-wave (km/s) = 3.72344 3.85373 3.78914
# Velocity P-wave (km/s) = 7.15254 7.29820 7.22574
#
# Compressibility (1/GPa) = 0.01465175
#
# Stress axis : x y z
#
# Youngs Moduli (GPa) = 101.71354 117.33432 79.07816
#
# Poissons Ratio (x) = 0.26351 0.30697
# Poissons Ratio (y) = 0.22843 0.16183
# Poissons Ratio (z) = 0.39483 0.24012
#
# Static dielectric constant tensor:
#      x y z
#    x 4.463860 0.000000 0.000000 
#    y 0.000000 3.750480 0.000000 
#    z 0.000000 0.000000 3.526740 
# 
# 
# High freq. dielectric constant tensor:
#      x y z
#    x 1.830680 0.000000 0.000000 
#    y 0.000000 1.824770 0.000000 
#    z 0.000000 0.000000 1.793210 
# 
# From -- ./inp_files/39966.got.cif
#   From: 2010.03.12/outbox.cif.g09.slc.cpg/sg67_20_cif.got.tgz:39966.got - 2010.04.10 22:41:39.
