data_PCOD8278603
_publ_section_title
;
Structure prediction by ZEFSAII (Michael W. Deem and Ramdas Pophale) SiO2 
 PCOD8278603
Probable space group: C M M A
;
_chemical_formula_sum "Si O2"
_cell_formula_units_Z 104
_cell_length_a 8.800363
_cell_length_b 25.784565
_cell_length_c 27.800700
_cell_angle_alpha 90.000000
_cell_angle_beta 90.000000
_cell_angle_gamma 90.000000
_cell_volume 6308.355023
_symmetry_space_group_name_H-M "C M M A"
_symmetry_group_IT_number 67
_symmetry_cell_setting 'orthorhombic'
loop_
_space_group_symop_operation_xyz
x,y,z
-x,1/2-y,z
x,-y,-z
-x,1/2+y,-z
-x,-y,-z
x,1/2+y,-z
-x,y,z
x,1/2-y,z
1/2+x,1/2+y,z
1/2-x,-y,z
1/2+x,1/2-y,-z
1/2-x,y,-z
1/2-x,1/2-y,-z
1/2+x,y,-z
1/2-x,1/2+y,z
1/2+x,-y,z
loop_
_atom_site_type_symbol
_atom_site_label
_atom_site_fract_x
_atom_site_fract_y
_atom_site_fract_z
Si Si1 0.829474 0.307452 0.212714
Si Si2 0.680378 0.750000 0.052362
Si Si3 0.822929 0.055250 0.349993
Si Si4 0.321964 0.336425 0.117502
Si Si5 0.324770 0.943892 0.454571
Si Si6 0.178299 0.602829 0.257753
Si Si7 0.821835 0.945628 0.157264
O O1 0.829021 0.250000 0.234091
O O2 0.714675 0.310306 0.168206
O O3 0.769153 0.343535 0.255101
O O4 0.000000 0.323456 0.196361
O O5 0.500000 0.750000 0.050425
O O6 0.732330 0.803758 0.077429
O O7 0.750000 0.750000 0.000000
O O8 0.803584 0.083918 0.402125
O O9 0.724379 0.080827 0.308706
O O10 0.000000 0.051975 0.334886
O O11 0.750000 0.000000 0.357020
O O12 0.500000 0.331326 0.106634
O O13 0.273757 0.397700 0.121747
O O14 0.500000 0.950779 0.466001
O O15 0.250000 0.912604 0.500000
O O16 0.250000 0.000000 0.452334
O O17 0.228074 0.566834 0.212360
O O18 0.000000 0.613146 0.255594
O O19 0.000000 0.952993 0.154634
O O20 0.750000 0.000000 0.140037
#
# Coordination Sequence:
#
# PCOD8278603 Si02
#       7
#    16   8  16  16  16  16  16
#     4  10  19  31  49  72  97 126 160 196 237 286
#     4  12  24  38  58  84 108 134 166 206 257 300
#     4  10  19  29  41  59  86 119 154 194 237 282
#     4  10  20  35  54  77 106 136 167 206 247 292
#     4   9  16  25  38  55  76 106 145 188 233 280
#     4  10  20  31  44  65  93 128 164 198 240 284
#     4   9  19  32  48  72 100 133 169 202 239 282
#
# _framework density 16.486072
#
# number of rings (size 3 to 8) (size 9 to 14) (size 15 to 20)
#    0.000    2.154    0.769    4.846    0.000    7.692 
#    0.000    0.000    0.000    0.462    0.000    3.231 
#    0.000    0.615    0.000    2.000    0.000    2.769 
#
# Total GULP energy -644240.261856 kJ/mol
# GULP energy per Si atom -12389.235805 kJ/mol
# Density = 1.644855 g / cm^3
# Si number density = 16.486072 Si / 1000 Ang^3
#
#
#
# Elastic Constant Matrix: (Units=GPa)
#
#
# Indices 1 2 3 4 5 6 
#
# 1 84.0790 43.0488 29.7119 0.0000 0.0000 0.0000
# 2 43.0488 98.3126 45.1442 0.0000 0.0000 0.0000
# 3 29.7119 45.1442 96.7096 0.0000 0.0000 0.0000
# 4 0.0000 0.0000 0.0000 19.2959 0.0000 0.0000
# 5 0.0000 0.0000 0.0000 0.0000 28.0972 0.0000
# 6 0.0000 0.0000 0.0000 0.0000 0.0000 24.8651
#
#
#
# Elastic Compliance Matrix: (Units=1/GPa)
#
#
# Indices 1 2 3 4 5 6 
#
# 1 0.015643 -0.005909 -0.002047 0.000000 0.000000 0.000000
# 2 -0.005909 0.015179 -0.005270 0.000000 0.000000 0.000000
# 3 -0.002047 -0.005270 0.013429 0.000000 0.000000 0.000000
# 4 0.000000 0.000000 0.000000 0.051824 0.000000 0.000000
# 5 0.000000 0.000000 0.000000 0.000000 0.035591 0.000000
# 6 0.000000 0.000000 0.000000 0.000000 0.000000 0.040217
#
#
# Mechanical properties :
#
#
# Convention : Reuss Voigt Hill
#
# Bulk Modulus (GPa) = 56.18787 57.21233 56.70010
# Shear Modulus (GPa) = 24.47743 25.19807 24.83775
#
# Velocity S-wave (km/s) = 3.85740 3.91378 3.88569
# Velocity P-wave (km/s) = 7.34816 7.42982 7.38910
#
# Compressibility (1/GPa) = 0.01779743
#
# Stress axis : x y z
#
# Youngs Moduli (GPa) = 63.92744 65.87945 74.46377
#
# Poissons Ratio (x) = 0.38931 0.15245
# Poissons Ratio (y) = 0.37778 0.39243
# Poissons Ratio (z) = 0.13088 0.34719
#
# Static dielectric constant tensor:
#      x y z
#    x 3.287950 0.000000 0.000000 
#    y 0.000000 3.154110 0.000000 
#    z 0.000000 0.000000 3.671880 
# 
# 
# High freq. dielectric constant tensor:
#      x y z
#    x 1.653770 0.000000 0.000000 
#    y 0.000000 1.602200 0.000000 
#    z 0.000000 0.000000 1.623050 
# 
# From -- ./inp_files/43840.got.cif
#   From: 2010.03.12/outbox.cif.g09.slc.cpg/sg67_22_cif.got.tgz:43840.got - 2010.04.10 22:41:39.
