data_PCOD8278878
_publ_section_title
;
Structure prediction by ZEFSAII (Michael W. Deem and Ramdas Pophale) SiO2 
 PCOD8278878
Probable space group: C M M A
;
_chemical_formula_sum "Si O2"
_cell_formula_units_Z 116
_cell_length_a 9.014529
_cell_length_b 29.574379
_cell_length_c 24.087726
_cell_angle_alpha 90.000000
_cell_angle_beta 90.000000
_cell_angle_gamma 90.000000
_cell_volume 6421.766004
_symmetry_space_group_name_H-M "C M M A"
_symmetry_group_IT_number 67
_symmetry_cell_setting 'orthorhombic'
loop_
_space_group_symop_operation_xyz
x,y,z
-x,1/2-y,z
x,-y,-z
-x,1/2+y,-z
-x,-y,-z
x,1/2+y,-z
-x,y,z
x,1/2-y,z
1/2+x,1/2+y,z
1/2-x,-y,z
1/2+x,1/2-y,-z
1/2-x,y,-z
1/2-x,1/2-y,-z
1/2+x,y,-z
1/2-x,1/2+y,z
1/2+x,-y,z
loop_
_atom_site_type_symbol
_atom_site_label
_atom_site_fract_x
_atom_site_fract_y
_atom_site_fract_z
Si Si1 0.827179 0.045248 0.895939
Si Si2 0.175788 0.953716 0.231157
Si Si3 0.175168 0.799192 0.727551
Si Si4 0.750000 0.000000 0.500000
Si Si5 0.331026 0.197405 0.851848
Si Si6 0.834526 0.042665 0.606529
Si Si7 0.325036 0.860391 0.943478
Si Si8 0.323987 0.108307 0.679782
O O1 0.781812 0.055704 0.832539
O O2 0.776242 0.087828 0.932435
O O3 0.000000 0.036402 0.900521
O O4 0.750000 0.000000 0.918712
O O5 0.248623 0.914433 0.267248
O O6 0.000000 0.955417 0.240855
O O7 0.250000 0.000000 0.251228
O O8 0.238503 0.750000 0.707818
O O9 0.232071 0.810816 0.789579
O O10 0.218166 0.838405 0.683711
O O11 0.000000 0.795342 0.732638
O O12 0.843901 0.033792 0.539859
O O13 0.500000 0.179737 0.857739
O O14 0.322992 0.250000 0.867075
O O15 0.225454 0.170598 0.893006
O O16 0.744738 0.088035 0.622731
O O17 0.000000 0.046096 0.630848
O O18 0.750000 0.000000 0.634949
O O19 0.500000 0.855930 0.949348
O O20 0.250000 0.843416 0.000000
O O21 0.500000 0.100619 0.680065
#
# Coordination Sequence:
#
# PCOD8278878 Si02
#       8
#    16  16  16   4  16  16  16  16
#     4   9  20  36  53  71  93 126 164 203 248 300
#     4  10  19  32  48  69 100 132 164 203 248 300
#     4   8  16  32  53  77 104 134 169 207 248 303
#     4   8  22  36  58  72 104 148 186 224 252 292
#     4   9  18  35  58  79  99 127 163 203 251 305
#     4  10  20  34  52  74 105 141 179 217 254 294
#     4  11  23  37  52  73  98 124 160 205 254 306
#     4  11  20  29  48  77 106 137 172 208 252 298
#
# _framework density 18.063566999999999
#
# number of rings (size 3 to 8) (size 9 to 14) (size 15 to 20)
#    0.414    1.931    0.000    3.931    0.000    2.483 
#    0.000    2.069    0.000    3.310    0.000    0.483 
#    0.000    0.000    0.000    0.000    0.000    0.000 
#
# Total GULP energy -718851.756846 kJ/mol
# GULP energy per Si atom -12393.995808 kJ/mol
# Density = 1.802245 g / cm^3
# Si number density = 18.063567 Si / 1000 Ang^3
#
#
#
# Elastic Constant Matrix: (Units=GPa)
#
#
# Indices 1 2 3 4 5 6 
#
# 1 84.2815 45.8099 26.6454 0.0000 0.0000 0.0000
# 2 45.8099 117.5989 50.5300 0.0000 0.0000 0.0000
# 3 26.6454 50.5300 75.6665 0.0000 0.0000 0.0000
# 4 0.0000 0.0000 0.0000 4.3065 0.0000 0.0000
# 5 0.0000 0.0000 0.0000 0.0000 17.9208 0.0000
# 6 0.0000 0.0000 0.0000 0.0000 0.0000 22.7013
#
#
#
# Elastic Compliance Matrix: (Units=1/GPa)
#
#
# Indices 1 2 3 4 5 6 
#
# 1 0.015258 -0.005098 -0.001969 0.000000 0.000000 0.000000
# 2 -0.005098 0.013629 -0.007306 0.000000 0.000000 0.000000
# 3 -0.001969 -0.007306 0.018788 0.000000 0.000000 0.000000
# 4 0.000000 0.000000 0.000000 0.232205 0.000000 0.000000
# 5 0.000000 0.000000 0.000000 0.000000 0.055801 0.000000
# 6 0.000000 0.000000 0.000000 0.000000 0.000000 0.044050
#
#
# Mechanical properties :
#
#
# Convention : Reuss Voigt Hill
#
# Bulk Modulus (GPa) = 52.82679 58.16863 55.49771
# Shear Modulus (GPa) = 12.05438 19.28983 15.67211
#
# Velocity S-wave (km/s) = 2.58608 3.27140 2.94872
# Velocity P-wave (km/s) = 6.18268 6.82213 6.51026
#
# Compressibility (1/GPa) = 0.01892979
#
# Stress axis : x y z
#
# Youngs Moduli (GPa) = 65.53828 73.37543 53.22520
#
# Poissons Ratio (x) = 0.37405 0.10479
# Poissons Ratio (y) = 0.33410 0.38886
# Poissons Ratio (z) = 0.12903 0.53608
#
# Static dielectric constant tensor:
#      x y z
#    x 3.213520 0.000000 0.000000 
#    y 0.000000 3.635340 0.000000 
#    z 0.000000 0.000000 3.160760 
# 
# 
# High freq. dielectric constant tensor:
#      x y z
#    x 1.693510 0.000000 0.000000 
#    y 0.000000 1.695750 0.000000 
#    z 0.000000 0.000000 1.679100 
# 
# From -- ./inp_files/41194.got.cif
#   From: 2010.03.12/outbox.cif.g09.slc.cpg/sg67_21_cif.got.tgz:41194.got - 2010.04.10 22:41:39.
