data_PCOD8278260
_publ_section_title
;
Structure prediction by ZEFSAII (Michael W. Deem and Ramdas Pophale) SiO2 
 PCOD8278260
Probable space group: C M M A
;
_chemical_formula_sum "Si O2"
_cell_formula_units_Z 104
_cell_length_a 8.624438
_cell_length_b 30.597085
_cell_length_c 23.027683
_cell_angle_alpha 90.000000
_cell_angle_beta 90.000000
_cell_angle_gamma 90.000000
_cell_volume 6076.606303
_symmetry_space_group_name_H-M "C M M A"
_symmetry_group_IT_number 67
_symmetry_cell_setting 'orthorhombic'
loop_
_space_group_symop_operation_xyz
x,y,z
-x,1/2-y,z
x,-y,-z
-x,1/2+y,-z
-x,-y,-z
x,1/2+y,-z
-x,y,z
x,1/2-y,z
1/2+x,1/2+y,z
1/2-x,-y,z
1/2+x,1/2-y,-z
1/2-x,y,-z
1/2-x,1/2-y,-z
1/2+x,y,-z
1/2-x,1/2+y,z
1/2+x,-y,z
loop_
_atom_site_type_symbol
_atom_site_label
_atom_site_fract_x
_atom_site_fract_y
_atom_site_fract_z
Si Si1 0.315888 0.130241 0.267111
Si Si2 0.183753 0.454363 0.315549
Si Si3 0.818349 0.927561 0.438800
Si Si4 0.184987 0.750000 0.437436
Si Si5 0.672161 0.198657 0.057507
Si Si6 0.681850 0.199930 0.821184
Si Si7 0.681355 0.162021 0.388583
O O1 0.500000 0.125310 0.265767
O O2 0.243228 0.081605 0.268587
O O3 0.264772 0.162667 0.216279
O O4 0.248953 0.150841 0.326195
O O5 0.250000 0.500000 0.291917
O O6 0.242157 0.448971 0.382063
O O7 0.000000 0.454430 0.316009
O O8 0.750000 0.945409 0.500000
O O9 0.783335 0.875676 0.435543
O O10 0.000000 0.938127 0.436878
O O11 0.250000 0.750000 0.500000
O O12 0.257530 0.707469 0.407157
O O13 0.000000 0.750000 0.437666
O O14 0.500000 0.178619 0.066366
O O15 0.657424 0.250000 0.048403
O O16 0.778883 0.188038 0.112620
O O17 0.750000 0.177663 0.000000
O O18 0.500000 0.196563 0.811317
O O19 0.738558 0.250000 0.806489
O O20 0.500000 0.168433 0.381335
#
# Coordination Sequence:
#
# PCOD8278260 Si02
#       7
#    16  16  16   8  16  16  16
#     4  10  20  35  53  74  98 129 167 208 251 300
#     4  11  22  38  57  76  98 125 156 199 252 308
#     4  10  19  33  50  72  96 122 154 194 243 301
#     4  10  18  30  44  62  84 114 153 194 235 280
#     4   9  16  27  44  67  97 136 178 217 256 296
#     4  10  20  32  47  72 106 142 179 217 252 293
#     4   8  17  30  46  64  88 119 156 196 240 288
#
# _framework density 17.114816000000001
#
# number of rings (size 3 to 8) (size 9 to 14) (size 15 to 20)
#    0.000    2.308    0.000    4.615    1.077    3.077 
#    0.000    5.385    0.000    0.000    0.000    0.000 
#    0.000    0.615    0.000    6.154    0.000    4.000 
#
# Total GULP energy -644415.122314 kJ/mol
# GULP energy per Si atom -12392.598506 kJ/mol
# Density = 1.707586 g / cm^3
# Si number density = 17.114816 Si / 1000 Ang^3
#
#
#
# Elastic Constant Matrix: (Units=GPa)
#
#
# Indices 1 2 3 4 5 6 
#
# 1 93.9373 39.6393 29.8299 0.0000 0.0000 0.0000
# 2 39.6393 112.5648 40.4665 0.0000 0.0000 0.0000
# 3 29.8299 40.4665 83.8588 0.0000 0.0000 0.0000
# 4 0.0000 0.0000 0.0000 11.5474 0.0000 0.0000
# 5 0.0000 0.0000 0.0000 0.0000 29.5689 0.0000
# 6 0.0000 0.0000 0.0000 0.0000 0.0000 22.0716
#
#
#
# Elastic Compliance Matrix: (Units=1/GPa)
#
#
# Indices 1 2 3 4 5 6 
#
# 1 0.013076 -0.003548 -0.002939 0.000000 0.000000 0.000000
# 2 -0.003548 0.011711 -0.004389 0.000000 0.000000 0.000000
# 3 -0.002939 -0.004389 0.015088 0.000000 0.000000 0.000000
# 4 0.000000 0.000000 0.000000 0.086599 0.000000 0.000000
# 5 0.000000 0.000000 0.000000 0.000000 0.033819 0.000000
# 6 0.000000 0.000000 0.000000 0.000000 0.000000 0.045307
#
#
# Mechanical properties :
#
#
# Convention : Reuss Voigt Hill
#
# Bulk Modulus (GPa) = 55.17975 56.69248 55.93612
# Shear Modulus (GPa) = 21.42295 24.66594 23.04444
#
# Velocity S-wave (km/s) = 3.54180 3.80044 3.67340
# Velocity P-wave (km/s) = 7.00262 7.24255 7.12360
#
# Compressibility (1/GPa) = 0.01812259
#
# Stress axis : x y z
#
# Youngs Moduli (GPa) = 76.47647 85.38928 66.27636
#
# Poissons Ratio (x) = 0.30296 0.19480
# Poissons Ratio (y) = 0.27134 0.29090
# Poissons Ratio (z) = 0.22478 0.37479
#
# Static dielectric constant tensor:
#      x y z
#    x 3.105180 0.000000 0.000000 
#    y 0.000000 3.256580 0.000000 
#    z 0.000000 0.000000 3.139880 
# 
# 
# High freq. dielectric constant tensor:
#      x y z
#    x 1.665020 0.000000 0.000000 
#    y 0.000000 1.643490 0.000000 
#    z 0.000000 0.000000 1.641490 
# 
# From -- ./inp_files/37497.got.cif
#   From: 2010.03.12/outbox.cif.g09.slc.cpg/sg67_19_cif.got.tgz:37497.got - 2010.04.10 22:41:39.
