data_PCOD8278453
_publ_section_title
;
Structure prediction by ZEFSAII (Michael W. Deem and Ramdas Pophale) SiO2 
 PCOD8278453
Probable space group: C M M A
;
_chemical_formula_sum "Si O2"
_cell_formula_units_Z 104
_cell_length_a 8.630255
_cell_length_b 29.268333
_cell_length_c 20.109815
_cell_angle_alpha 90.000000
_cell_angle_beta 90.000000
_cell_angle_gamma 90.000000
_cell_volume 5079.602064
_symmetry_space_group_name_H-M "C M M A"
_symmetry_group_IT_number 67
_symmetry_cell_setting 'orthorhombic'
loop_
_space_group_symop_operation_xyz
x,y,z
-x,1/2-y,z
x,-y,-z
-x,1/2+y,-z
-x,-y,-z
x,1/2+y,-z
-x,y,z
x,1/2-y,z
1/2+x,1/2+y,z
1/2-x,-y,z
1/2+x,1/2-y,-z
1/2-x,y,-z
1/2-x,1/2-y,-z
1/2+x,y,-z
1/2-x,1/2+y,z
1/2+x,-y,z
loop_
_atom_site_type_symbol
_atom_site_label
_atom_site_fract_x
_atom_site_fract_y
_atom_site_fract_z
Si Si1 0.180816 0.132207 0.700534
Si Si2 0.181786 0.657330 0.572271
Si Si3 0.828116 0.545010 0.754226
Si Si4 0.317361 0.303197 0.806827
Si Si5 0.316329 0.250000 0.426596
Si Si6 0.817336 0.357824 0.931027
Si Si7 0.328120 0.545454 0.090121
O O1 0.266353 0.122368 0.629520
O O2 0.215258 0.087577 0.743451
O O3 0.242410 0.176374 0.740031
O O4 0.000000 0.138147 0.687893
O O5 0.250000 0.644833 0.500000
O O6 0.249664 0.704020 0.605266
O O7 0.000000 0.660462 0.563424
O O8 0.750000 0.500000 0.721941
O O9 0.844951 0.538331 0.831994
O O10 0.000000 0.552716 0.723178
O O11 0.500000 0.310399 0.801834
O O12 0.271550 0.250000 0.811799
O O13 0.257722 0.329685 0.871234
O O14 0.500000 0.250000 0.425246
O O15 0.250000 0.250000 0.500000
O O16 0.778011 0.411350 0.926921
O O17 0.000000 0.350772 0.928110
O O18 0.750000 0.337754 0.000000
O O19 0.500000 0.552806 0.059357
O O20 0.250000 0.500000 0.059117
#
# Coordination Sequence:
#
# PCOD8278453 Si02
#       7
#    16  16  16  16   8  16  16
#     4  12  24  39  63  93 126 163 206 252 305 363
#     4  11  22  38  58  84 121 162 206 253 307 365
#     4  10  20  36  61  91 125 160 200 249 304 361
#     4  11  25  45  66  90 122 159 205 257 309 361
#     4  10  18  32  52  78 112 152 197 242 293 356
#     4  12  25  42  65  90 122 161 205 252 307 365
#     4  10  20  36  60  89 125 159 198 245 303 365
#
# _framework density 20.474045
#
# number of rings (size 3 to 8) (size 9 to 14) (size 15 to 20)
#    0.000    1.077    1.538    7.154    1.077    3.077 
#    0.000    1.538    0.000    0.462    0.000    3.231 
#    0.000    0.000    0.000    0.000    0.000    0.000 
#
# Total GULP energy -644769.524755 kJ/mol
# GULP energy per Si atom -12399.413938 kJ/mol
# Density = 2.042744 g / cm^3
# Si number density = 20.474045 Si / 1000 Ang^3
#
#
#
# Elastic Constant Matrix: (Units=GPa)
#
#
# Indices 1 2 3 4 5 6 
#
# 1 155.9166 32.0016 40.8312 0.0000 0.0000 0.0000
# 2 32.0016 93.1357 26.6104 0.0000 0.0000 0.0000
# 3 40.8312 26.6104 101.7531 0.0000 0.0000 0.0000
# 4 0.0000 0.0000 0.0000 26.8737 0.0000 0.0000
# 5 0.0000 0.0000 0.0000 0.0000 34.3971 0.0000
# 6 0.0000 0.0000 0.0000 0.0000 0.0000 29.3145
#
#
#
# Elastic Compliance Matrix: (Units=1/GPa)
#
#
# Indices 1 2 3 4 5 6 
#
# 1 0.007448 -0.001843 -0.002507 0.000000 0.000000 0.000000
# 2 -0.001843 0.012060 -0.002414 0.000000 0.000000 0.000000
# 3 -0.002507 -0.002414 0.011465 0.000000 0.000000 0.000000
# 4 0.000000 0.000000 0.000000 0.037211 0.000000 0.000000
# 5 0.000000 0.000000 0.000000 0.000000 0.029072 0.000000
# 6 0.000000 0.000000 0.000000 0.000000 0.000000 0.034113
#
#
# Mechanical properties :
#
#
# Convention : Reuss Voigt Hill
#
# Bulk Modulus (GPa) = 57.32300 61.07686 59.19993
# Shear Modulus (GPa) = 33.17554 34.87456 34.02505
#
# Velocity S-wave (km/s) = 4.02975 4.13165 4.08102
# Velocity P-wave (km/s) = 7.05057 7.25650 7.15428
#
# Compressibility (1/GPa) = 0.01744501
#
# Stress axis : x y z
#
# Youngs Moduli (GPa) = 134.25578 82.91792 87.22141
#
# Poissons Ratio (x) = 0.15282 0.21866
# Poissons Ratio (y) = 0.24744 0.21059
# Poissons Ratio (z) = 0.33657 0.20020
#
# Static dielectric constant tensor:
#      x y z
#    x 3.958780 0.000000 0.000000 
#    y 0.000000 3.123650 0.000000 
#    z 0.000000 0.000000 3.746610 
# 
# 
# High freq. dielectric constant tensor:
#      x y z
#    x 1.821520 0.000000 0.000000 
#    y 0.000000 1.789200 0.000000 
#    z 0.000000 0.000000 1.798060 
# 
# From -- ./inp_files/37291.got.cif
#   From: 2010.03.12/outbox.cif.g09.slc.cpg/sg67_19_cif.got.tgz:37291.got - 2010.04.10 22:41:39.
