data_PCOD8278176
_publ_section_title
;
Structure prediction by ZEFSAII (Michael W. Deem and Ramdas Pophale) SiO2 
 PCOD8278176
Probable space group: C M M A
;
_chemical_formula_sum "Si O2"
_cell_formula_units_Z 104
_cell_length_a 25.775328
_cell_length_b 9.056174
_cell_length_c 30.436820
_cell_angle_alpha 90.000000
_cell_angle_beta 90.000000
_cell_angle_gamma 90.000000
_cell_volume 7104.740740
_symmetry_space_group_name_H-M "C M M A"
_symmetry_group_IT_number 67
_symmetry_cell_setting 'orthorhombic'
loop_
_space_group_symop_operation_xyz
x,y,z
-x,1/2-y,z
x,-y,-z
-x,1/2+y,-z
-x,-y,-z
x,1/2+y,-z
-x,y,z
x,1/2-y,z
1/2+x,1/2+y,z
1/2-x,-y,z
1/2+x,1/2-y,-z
1/2-x,y,-z
1/2-x,1/2-y,-z
1/2+x,y,-z
1/2-x,1/2+y,z
1/2+x,-y,z
loop_
_atom_site_type_symbol
_atom_site_label
_atom_site_fract_x
_atom_site_fract_y
_atom_site_fract_z
Si Si1 0.598545 0.575358 0.398500
Si Si2 0.561929 0.915091 0.212720
Si Si3 0.058100 0.073935 0.308153
Si Si4 0.696814 0.927291 0.453587
Si Si5 0.500000 0.925911 0.453089
Si Si6 0.938114 0.915684 0.128344
Si Si7 0.061862 0.583730 0.957164
O O1 0.595062 0.750000 0.398023
O O2 0.594047 0.515893 0.348235
O O3 0.652929 0.524291 0.418993
O O4 0.550679 0.515982 0.427337
O O5 0.500000 0.912080 0.212184
O O6 0.583471 0.750000 0.205170
O O7 0.579882 0.978971 0.260483
O O8 0.584002 0.016047 0.173564
O O9 0.056064 0.250000 0.307151
O O10 0.000000 0.012862 0.316137
O O11 0.702005 0.750000 0.458414
O O12 0.681851 0.000000 0.500000
O O13 0.750000 0.000000 0.436289
O O14 0.500000 0.750000 0.458298
O O15 0.500000 0.000000 0.500000
O O16 0.917124 0.750000 0.124408
O O17 0.000000 0.919691 0.128687
O O18 0.916611 0.006060 0.086714
O O19 0.083052 0.750000 0.958156
O O20 0.000000 0.581308 0.957231
O O21 0.083472 0.500000 0.000000
#
# Coordination Sequence:
#
# PCOD8278176 Si02
#       7
#    16  16  16  16   8  16  16
#     4   9  16  26  42  62  80  99 123 152 185 222
#     4   8  13  20  32  47  60  77 102 132 163 199
#     4   8  12  21  37  56  74  90 113 144 177 214
#     4  10  19  31  46  62  79 101 128 156 185 218
#     4  10  18  28  42  60  82 102 122 148 181 222
#     4   9  15  21  28  38  54  76 101 129 163 204
#     4   9  15  21  28  37  50  68  94 130 172 215
#
# _framework density 14.638113000000001
#
# number of rings (size 3 to 8) (size 9 to 14) (size 15 to 20)
#    0.000    3.077    0.769    3.231    0.000    3.692 
#    0.000    0.769    0.000    2.769    0.000    0.000 
#    0.000    0.000    0.000    0.000    0.000    0.000 
#
# Total GULP energy -644382.630369 kJ/mol
# GULP energy per Si atom -12391.973661 kJ/mol
# Density = 1.460480 g / cm^3
# Si number density = 14.638113 Si / 1000 Ang^3
#
#
#
# Elastic Constant Matrix: (Units=GPa)
#
#
# Indices 1 2 3 4 5 6 
#
# 1 47.7073 19.9553 44.3258 0.0000 0.0000 0.0000
# 2 19.9553 75.1391 54.9833 0.0000 0.0000 0.0000
# 3 44.3258 54.9833 164.3885 0.0000 0.0000 0.0000
# 4 0.0000 0.0000 0.0000 20.8799 0.0000 0.0000
# 5 0.0000 0.0000 0.0000 0.0000 7.8379 0.0000
# 6 0.0000 0.0000 0.0000 0.0000 0.0000 7.7571
#
#
#
# Elastic Compliance Matrix: (Units=1/GPa)
#
#
# Indices 1 2 3 4 5 6 
#
# 1 0.028335 -0.002561 -0.006784 0.000000 0.000000 0.000000
# 2 -0.002561 0.017853 -0.005281 0.000000 0.000000 0.000000
# 3 -0.006784 -0.005281 0.009679 0.000000 0.000000 0.000000
# 4 0.000000 0.000000 0.000000 0.047893 0.000000 0.000000
# 5 0.000000 0.000000 0.000000 0.000000 0.127584 0.000000
# 6 0.000000 0.000000 0.000000 0.000000 0.000000 0.128915
#
#
# Mechanical properties :
#
#
# Convention : Reuss Voigt Hill
#
# Bulk Modulus (GPa) = 37.57191 58.41816 47.99504
# Shear Modulus (GPa) = 12.55075 18.49301 15.52188
#
# Velocity S-wave (km/s) = 2.93132 3.55821 3.25987
# Velocity P-wave (km/s) = 6.09752 7.54162 6.85769
#
# Compressibility (1/GPa) = 0.02661563
#
# Stress axis : x y z
#
# Youngs Moduli (GPa) = 35.29160 56.01284 103.32122
#
# Poissons Ratio (x) = 0.14346 0.70090
# Poissons Ratio (y) = 0.09039 0.54561
# Poissons Ratio (z) = 0.23941 0.29579
#
# Static dielectric constant tensor:
#      x y z
#    x 2.416990 0.000000 0.000000 
#    y 0.000000 2.752060 0.000000 
#    z 0.000000 0.000000 3.242530 
# 
# 
# High freq. dielectric constant tensor:
#      x y z
#    x 1.480780 0.000000 0.000000 
#    y 0.000000 1.546000 0.000000 
#    z 0.000000 0.000000 1.578040 
# 
# From -- ./inp_files/46031.got.cif
#   From: 2010.03.12/outbox.cif.g09.slc.cpg/sg67_24_cif.got.tgz:46031.got - 2010.04.10 22:41:39.
