data_PCOD8278091
_publ_section_title
;
Structure prediction by ZEFSAII (Michael W. Deem and Ramdas Pophale) SiO2 
 PCOD8278091
Probable space group: C M M A
;
_chemical_formula_sum "Si O2"
_cell_formula_units_Z 112
_cell_length_a 20.125821
_cell_length_b 17.783968
_cell_length_c 18.375450
_cell_angle_alpha 90.000000
_cell_angle_beta 90.000000
_cell_angle_gamma 90.000000
_cell_volume 6576.885141
_symmetry_space_group_name_H-M "C M M A"
_symmetry_group_IT_number 67
_symmetry_cell_setting 'orthorhombic'
loop_
_space_group_symop_operation_xyz
x,y,z
-x,1/2-y,z
x,-y,-z
-x,1/2+y,-z
-x,-y,-z
x,1/2+y,-z
-x,y,z
x,1/2-y,z
1/2+x,1/2+y,z
1/2-x,-y,z
1/2+x,1/2-y,-z
1/2-x,y,-z
1/2-x,1/2-y,-z
1/2+x,y,-z
1/2-x,1/2+y,z
1/2+x,-y,z
loop_
_atom_site_type_symbol
_atom_site_label
_atom_site_fract_x
_atom_site_fract_y
_atom_site_fract_z
Si Si1 0.077190 0.484496 0.917884
Si Si2 0.075476 0.337832 0.573492
Si Si3 0.815603 0.661053 0.538201
Si Si4 0.925059 0.668118 0.151964
Si Si5 0.353332 0.613648 0.710823
Si Si6 0.792207 0.163134 0.301895
Si Si7 0.678178 0.028468 0.797992
O O1 0.089666 0.395605 0.907460
O O2 0.124458 0.530846 0.863126
O O3 0.000000 0.506854 0.903777
O O4 0.098877 0.500000 0.000000
O O5 0.087147 0.250000 0.589711
O O6 0.119725 0.365799 0.505865
O O7 0.094213 0.384003 0.645554
O O8 0.000000 0.355422 0.552489
O O9 0.808055 0.750000 0.537537
O O10 0.750000 0.625479 0.500000
O O11 0.824918 0.635798 0.622082
O O12 0.913339 0.750000 0.115472
O O13 0.877680 0.661166 0.220610
O O14 0.000000 0.659982 0.181148
O O15 0.285982 0.652714 0.684923
O O16 0.344597 0.526852 0.733413
O O17 0.808915 0.250000 0.283626
O O18 0.817908 0.112254 0.235064
O O19 0.750000 0.000000 0.827738
#
# Coordination Sequence:
#
# PCOD8278091 Si02
#       7
#    16  16  16  16  16  16  16
#     4   9  18  34  54  73  98 134 166 194 243 304
#     4  10  18  27  44  72  99 124 161 205 245 291
#     4   9  16  28  46  67  92 129 169 202 242 290
#     4   9  16  26  44  73 102 124 151 192 243 296
#     4  10  17  28  46  69  99 127 154 196 252 300
#     4  10  18  31  51  69  92 129 172 208 241 288
#     4   9  20  34  50  75 102 125 160 201 242 297
#
# _framework density 17.029337000000002
#
# number of rings (size 3 to 8) (size 9 to 14) (size 15 to 20)
#    0.000    2.571    1.429    1.714    0.000    2.000 
#    0.000    2.143    0.000    3.000    0.000    6.000 
#    0.000    0.000    0.000    0.000    0.000    0.000 
#
# Total GULP energy -694277.230739 kJ/mol
# GULP energy per Si atom -12397.807692 kJ/mol
# Density = 1.699058 g / cm^3
# Si number density = 17.029337 Si / 1000 Ang^3
#
#
#
# Elastic Constant Matrix: (Units=GPa)
#
#
# Indices 1 2 3 4 5 6 
#
# 1 103.9976 31.8742 63.4454 0.0000 0.0000 0.0000
# 2 31.8742 76.7108 47.1034 0.0000 0.0000 0.0000
# 3 63.4454 47.1034 119.7952 0.0000 0.0000 0.0000
# 4 0.0000 0.0000 0.0000 18.3509 0.0000 0.0000
# 5 0.0000 0.0000 0.0000 0.0000 31.9054 0.0000
# 6 0.0000 0.0000 0.0000 0.0000 0.0000 18.0185
#
#
#
# Elastic Compliance Matrix: (Units=1/GPa)
#
#
# Indices 1 2 3 4 5 6 
#
# 1 0.014374 -0.001711 -0.006940 0.000000 0.000000 0.000000
# 2 -0.001711 0.017389 -0.005931 0.000000 0.000000 0.000000
# 3 -0.006940 -0.005931 0.014355 0.000000 0.000000 0.000000
# 4 0.000000 0.000000 0.000000 0.054493 0.000000 0.000000
# 5 0.000000 0.000000 0.000000 0.000000 0.031343 0.000000
# 6 0.000000 0.000000 0.000000 0.000000 0.000000 0.055499
#
#
# Mechanical properties :
#
#
# Convention : Reuss Voigt Hill
#
# Bulk Modulus (GPa) = 58.98387 65.03885 62.01136
# Shear Modulus (GPa) = 22.49544 24.19367 23.34455
#
# Velocity S-wave (km/s) = 3.63847 3.77331 3.70651
# Velocity P-wave (km/s) = 7.23624 7.56697 7.40345
#
# Compressibility (1/GPa) = 0.01695379
#
# Stress axis : x y z
#
# Youngs Moduli (GPa) = 69.57120 57.50803 69.66191
#
# Poissons Ratio (x) = 0.09841 0.48343
# Poissons Ratio (y) = 0.11905 0.41317
# Poissons Ratio (z) = 0.48281 0.34108
#
# Static dielectric constant tensor:
#      x y z
#    x 3.244770 0.000000 0.000000 
#    y 0.000000 3.043090 0.000000 
#    z 0.000000 0.000000 3.074110 
# 
# 
# High freq. dielectric constant tensor:
#      x y z
#    x 1.655240 0.000000 0.000000 
#    y 0.000000 1.637770 0.000000 
#    z 0.000000 0.000000 1.644510 
# 
# From -- ./inp_files/35115.got.cif
#   From: 2010.03.12/outbox.cif.g09.slc.cpg/sg67_18_cif.got.tgz:35115.got - 2010.04.10 22:41:39.
