data_PCOD8278637
_publ_section_title
;
Structure prediction by ZEFSAII (Michael W. Deem and Ramdas Pophale) SiO2 
 PCOD8278637
Probable space group: C M M A
;
_chemical_formula_sum "Si O2"
_cell_formula_units_Z 120
_cell_length_a 27.405155
_cell_length_b 9.173527
_cell_length_c 25.841892
_cell_angle_alpha 90.000000
_cell_angle_beta 90.000000
_cell_angle_gamma 90.000000
_cell_volume 6496.701506
_symmetry_space_group_name_H-M "C M M A"
_symmetry_group_IT_number 67
_symmetry_cell_setting 'orthorhombic'
loop_
_space_group_symop_operation_xyz
x,y,z
-x,1/2-y,z
x,-y,-z
-x,1/2+y,-z
-x,-y,-z
x,1/2+y,-z
-x,y,z
x,1/2-y,z
1/2+x,1/2+y,z
1/2-x,-y,z
1/2+x,1/2-y,-z
1/2-x,y,-z
1/2-x,1/2-y,-z
1/2+x,y,-z
1/2-x,1/2+y,z
1/2+x,-y,z
loop_
_atom_site_type_symbol
_atom_site_label
_atom_site_fract_x
_atom_site_fract_y
_atom_site_fract_z
Si Si1 0.500000 0.923423 0.554662
Si Si2 0.801994 0.424333 0.049921
Si Si3 0.200518 0.420721 0.639316
Si Si4 0.094019 0.920830 0.379447
Si Si5 0.056175 0.085100 0.285316
Si Si6 0.446639 0.087432 0.184211
Si Si7 0.649852 0.913878 0.860117
Si Si8 0.796875 0.417117 0.756756
O O1 0.500000 0.750000 0.548055
O O2 0.449325 0.976349 0.582359
O O3 0.500000 0.000000 0.500000
O O4 0.798211 0.250000 0.043308
O O5 0.750000 0.500000 0.055114
O O6 0.830214 0.462532 0.102211
O O7 0.828084 0.500000 0.000000
O O8 0.211365 0.250000 0.635417
O O9 0.250000 0.500000 0.618618
O O10 0.151075 0.458394 0.605398
O O11 0.189026 0.469753 0.698753
O O12 0.088125 0.750000 0.372863
O O13 0.087800 0.989402 0.323577
O O14 0.074587 0.250000 0.288770
O O15 0.000000 0.070216 0.301599
O O16 0.064883 0.030440 0.227680
O O17 0.500000 0.059633 0.160203
O O18 0.443228 0.250000 0.208976
O O19 0.408676 0.073548 0.137029
O O20 0.667847 0.750000 0.875781
O O21 0.661729 0.946330 0.799656
O O22 0.782433 0.250000 0.754020
O O23 0.750000 0.500000 0.778080
#
# Coordination Sequence:
#
# PCOD8278637 Si02
#       8
#     8  16  16  16  16  16  16  16
#     4  10  22  38  58  82 106 134 172 222 277 326
#     4  11  22  37  56  77 100 126 159 204 258 313
#     4   9  18  32  50  74 105 139 177 213 248 300
#     4  10  19  34  55  76 101 139 180 215 260 321
#     4  10  19  29  45  74 108 139 174 217 259 300
#     4   9  18  32  50  71 101 142 179 210 247 299
#     4  10  19  32  50  73 100 132 172 213 255 303
#     4   9  17  28  43  66  99 134 165 201 240 285
#
# _framework density 18.470911000000001
#
# number of rings (size 3 to 8) (size 9 to 14) (size 15 to 20)
#    0.000    2.267    0.667    3.200    0.000    5.867 
#    0.000    2.667    0.000    0.800    0.000    2.800 
#    0.000    0.000    0.000    0.000    0.000    0.000 
#
# Total GULP energy -743390.334703 kJ/mol
# GULP energy per Si atom -12389.838912 kJ/mol
# Density = 1.842887 g / cm^3
# Si number density = 18.470911 Si / 1000 Ang^3
#
#
#
# Elastic Constant Matrix: (Units=GPa)
#
#
# Indices 1 2 3 4 5 6 
#
# 1 126.5731 43.6714 46.7754 0.0000 0.0000 0.0000
# 2 43.6714 54.4583 26.6108 0.0000 0.0000 0.0000
# 3 46.7754 26.6108 52.2310 0.0000 0.0000 0.0000
# 4 0.0000 0.0000 0.0000 24.5879 0.0000 0.0000
# 5 0.0000 0.0000 0.0000 0.0000 18.4284 0.0000
# 6 0.0000 0.0000 0.0000 0.0000 0.0000 23.0593
#
#
#
# Elastic Compliance Matrix: (Units=1/GPa)
#
#
# Indices 1 2 3 4 5 6 
#
# 1 0.013323 -0.006463 -0.008639 0.000000 0.000000 0.000000
# 2 -0.006463 0.027584 -0.008266 0.000000 0.000000 0.000000
# 3 -0.008639 -0.008266 0.031094 0.000000 0.000000 0.000000
# 4 0.000000 0.000000 0.000000 0.040670 0.000000 0.000000
# 5 0.000000 0.000000 0.000000 0.000000 0.054264 0.000000
# 6 0.000000 0.000000 0.000000 0.000000 0.000000 0.043366
#
#
# Mechanical properties :
#
#
# Convention : Reuss Voigt Hill
#
# Bulk Modulus (GPa) = 39.57906 51.93084 45.75495
# Shear Modulus (GPa) = 18.83532 20.96209 19.89870
#
# Velocity S-wave (km/s) = 3.19678 3.37244 3.28578
# Velocity P-wave (km/s) = 5.92454 6.58334 6.26261
#
# Compressibility (1/GPa) = 0.02526589
#
# Stress axis : x y z
#
# Youngs Moduli (GPa) = 75.05931 36.25226 32.16105
#
# Poissons Ratio (x) = 0.23429 0.27783
# Poissons Ratio (y) = 0.48508 0.26585
# Poissons Ratio (z) = 0.64841 0.29967
#
# Static dielectric constant tensor:
#      x y z
#    x 3.742810 0.000000 0.000000 
#    y 0.000000 3.425910 0.000000 
#    z 0.000000 0.000000 3.187270 
# 
# 
# High freq. dielectric constant tensor:
#      x y z
#    x 1.724850 0.000000 0.000000 
#    y 0.000000 1.713980 0.000000 
#    z 0.000000 0.000000 1.673360 
# 
# From -- ./inp_files/45010.got.cif
#   From: 2010.03.12/outbox.cif.g09.slc.cpg/sg67_23_cif.got.tgz:45010.got - 2010.04.10 22:41:39.
