data_PCOD8278565
_publ_section_title
;
Structure prediction by ZEFSAII (Michael W. Deem and Ramdas Pophale) SiO2 
 PCOD8278565
Probable space group: C M M A
;
_chemical_formula_sum "Si O2"
_cell_formula_units_Z 96
_cell_length_a 23.394451
_cell_length_b 17.687089
_cell_length_c 12.039550
_cell_angle_alpha 90.000000
_cell_angle_beta 90.000000
_cell_angle_gamma 90.000000
_cell_volume 4981.721832
_symmetry_space_group_name_H-M "C M M A"
_symmetry_group_IT_number 67
_symmetry_cell_setting 'orthorhombic'
loop_
_space_group_symop_operation_xyz
x,y,z
-x,1/2-y,z
x,-y,-z
-x,1/2+y,-z
-x,-y,-z
x,1/2+y,-z
-x,y,z
x,1/2-y,z
1/2+x,1/2+y,z
1/2-x,-y,z
1/2+x,1/2-y,-z
1/2-x,y,-z
1/2-x,1/2-y,-z
1/2+x,y,-z
1/2-x,1/2+y,z
1/2+x,-y,z
loop_
_atom_site_type_symbol
_atom_site_label
_atom_site_fract_x
_atom_site_fract_y
_atom_site_fract_z
Si Si1 0.688994 0.660928 0.638380
Si Si2 0.121275 0.580726 0.549984
Si Si3 0.380963 0.160983 0.153239
Si Si4 0.311298 0.665452 0.053966
Si Si5 0.288707 0.924688 0.271217
Si Si6 0.500000 0.660994 0.749996
Si Si7 0.500000 0.910608 0.506872
O O1 0.684680 0.750000 0.630301
O O2 0.664228 0.628348 0.525311
O O3 0.654791 0.627140 0.744047
O O4 0.754442 0.636940 0.656082
O O5 0.109508 0.500000 0.500000
O O6 0.150296 0.565548 0.668735
O O7 0.058010 0.620477 0.554220
O O8 0.371510 0.250000 0.153015
O O9 0.446547 0.138341 0.172693
O O10 0.356702 0.131214 0.035405
O O11 0.329970 0.750000 0.095312
O O12 0.306441 0.605264 0.151414
O O13 0.250000 0.673468 0.000000
O O14 0.250000 0.000000 0.263999
O O15 0.500000 0.750000 0.720472
O O16 0.500000 0.615673 0.635248
O O17 0.500000 0.000000 0.500000
#
# Coordination Sequence:
#
# PCOD8278565 Si02
#       7
#    16  16  16  16  16   8   8
#     4  11  21  36  61  89 118 155 200 248 299 358
#     4  11  23  40  57  86 120 162 197 248 302 355
#     4   9  18  34  58  87 116 147 196 253 296 341
#     4  10  20  38  59  82 115 154 195 242 299 358
#     4  12  24  37  58  86 126 159 196 242 305 369
#     4  10  18  34  61  90 115 153 209 257 292 349
#     4  10  22  38  61  82 118 165 200 236 298 357
#
# _framework density 19.270446
#
# number of rings (size 3 to 8) (size 9 to 14) (size 15 to 20)
#    0.000    1.500    5.000    1.000    0.000    2.333 
#    0.000    0.833    0.000    0.000    0.000    3.500 
#    0.000    0.000    0.000    0.000    0.000    0.000 
#
# Total GULP energy -594903.374287 kJ/mol
# GULP energy per Si atom -12393.820298 kJ/mol
# Density = 1.922659 g / cm^3
# Si number density = 19.270446 Si / 1000 Ang^3
#
#
#
# Elastic Constant Matrix: (Units=GPa)
#
#
# Indices 1 2 3 4 5 6 
#
# 1 137.0487 21.0601 70.7414 0.0000 0.0000 0.0000
# 2 21.0601 48.3919 48.9616 0.0000 0.0000 0.0000
# 3 70.7414 48.9616 122.4080 0.0000 0.0000 0.0000
# 4 0.0000 0.0000 0.0000 27.1028 0.0000 0.0000
# 5 0.0000 0.0000 0.0000 0.0000 33.8483 0.0000
# 6 0.0000 0.0000 0.0000 0.0000 0.0000 17.4969
#
#
#
# Elastic Compliance Matrix: (Units=1/GPa)
#
#
# Indices 1 2 3 4 5 6 
#
# 1 0.010599 0.002662 -0.007190 0.000000 0.000000 0.000000
# 2 0.002662 0.035381 -0.015691 0.000000 0.000000 0.000000
# 3 -0.007190 -0.015691 0.018601 0.000000 0.000000 0.000000
# 4 0.000000 0.000000 0.000000 0.036897 0.000000 0.000000
# 5 0.000000 0.000000 0.000000 0.000000 0.029544 0.000000
# 6 0.000000 0.000000 0.000000 0.000000 0.000000 0.057153
#
#
# Mechanical properties :
#
#
# Convention : Reuss Voigt Hill
#
# Bulk Modulus (GPa) = 41.41837 65.48609 53.45223
# Shear Modulus (GPa) = 21.12743 26.82863 23.97803
#
# Velocity S-wave (km/s) = 3.31473 3.73529 3.53128
# Velocity P-wave (km/s) = 6.01580 7.25669 6.66519
#
# Compressibility (1/GPa) = 0.02414387
#
# Stress axis : x y z
#
# Youngs Moduli (GPa) = 94.34884 28.26349 53.76146
#
# Poissons Ratio (x) = -0.07524 0.38655
# Poissons Ratio (y) = -0.25117 0.84355
# Poissons Ratio (z) = 0.67838 0.44347
#
# Static dielectric constant tensor:
#      x y z
#    x 4.149170 0.000000 0.000000 
#    y 0.000000 3.404610 0.000000 
#    z 0.000000 0.000000 5.575210 
# 
# 
# High freq. dielectric constant tensor:
#      x y z
#    x 1.757550 0.000000 0.000000 
#    y 0.000000 1.732250 0.000000 
#    z 0.000000 0.000000 1.739500 
# 
# From -- ./inp_files/21997.got.cif
#   From: 2010.03.12/outbox.cif.g09.slc.cpg/sg67_11_cif.got.tgz:21997.got - 2010.04.10 22:41:39.
