data_PCOD8278314
_publ_section_title
;
Structure prediction by ZEFSAII (Michael W. Deem and Ramdas Pophale) SiO2 
 PCOD8278314
Probable space group: C M M A
;
_chemical_formula_sum "Si O2"
_cell_formula_units_Z 80
_cell_length_a 17.970354
_cell_length_b 25.857711
_cell_length_c 9.478102
_cell_angle_alpha 90.000000
_cell_angle_beta 90.000000
_cell_angle_gamma 90.000000
_cell_volume 4404.210701
_symmetry_space_group_name_H-M "C M M A"
_symmetry_group_IT_number 67
_symmetry_cell_setting 'orthorhombic'
loop_
_space_group_symop_operation_xyz
x,y,z
-x,1/2-y,z
x,-y,-z
-x,1/2+y,-z
-x,-y,-z
x,1/2+y,-z
-x,y,z
x,1/2-y,z
1/2+x,1/2+y,z
1/2-x,-y,z
1/2+x,1/2-y,-z
1/2-x,y,-z
1/2-x,1/2-y,-z
1/2+x,y,-z
1/2-x,1/2+y,z
1/2+x,-y,z
loop_
_atom_site_type_symbol
_atom_site_label
_atom_site_fract_x
_atom_site_fract_y
_atom_site_fract_z
Si Si1 0.675137 0.574283 0.791940
Si Si2 0.158579 0.954762 0.754138
Si Si3 0.834782 0.385456 0.495393
Si Si4 0.415273 0.116543 0.951246
Si Si5 0.912336 0.308185 0.290010
O O1 0.764383 0.571830 0.808528
O O2 0.650015 0.515058 0.780640
O O3 0.642157 0.604073 0.656259
O O4 0.640680 0.605870 0.921094
O O5 0.153445 0.939642 0.589154
O O6 0.090478 0.930598 0.840824
O O7 0.750000 0.367650 0.500000
O O8 0.880004 0.339401 0.422820
O O9 0.500000 0.120559 0.006505
O O10 0.391024 0.167615 0.862822
O O11 0.880733 0.250000 0.293555
O O12 0.000000 0.309263 0.309082
#
# Coordination Sequence:
#
# PCOD8278314 Si02
#       5
#    16  16  16  16  16
#     4  10  18  30  50  75 101 129 162 200 238 283
#     4   9  18  32  49  70 102 139 162 183 235 303
#     4   9  18  32  52  76 100 125 162 205 242 286
#     4  10  20  32  48  71  97 128 167 206 242 286
#     4   9  19  37  55  68  92 133 170 201 251 310
#
# _framework density 18.164435000000001
#
# number of rings (size 3 to 8) (size 9 to 14) (size 15 to 20)
#    0.000    2.600    0.000    1.800    0.000    6.800 
#    0.000    1.000    0.000   24.000    0.000    0.000 
#    0.000    0.000    0.000    0.000    0.000    0.000 
#
# Total GULP energy -495673.765441 kJ/mol
# GULP energy per Si atom -12391.844136 kJ/mol
# Density = 1.812309 g / cm^3
# Si number density = 18.164435 Si / 1000 Ang^3
#
#
#
# Elastic Constant Matrix: (Units=GPa)
#
#
# Indices 1 2 3 4 5 6 
#
# 1 34.2691 27.9959 35.9402 0.0000 0.0000 0.0000
# 2 27.9959 110.4878 49.2850 0.0000 0.0000 0.0000
# 3 35.9402 49.2850 122.4822 0.0000 0.0000 0.0000
# 4 0.0000 0.0000 0.0000 12.2495 0.0000 0.0000
# 5 0.0000 0.0000 0.0000 0.0000 25.9885 0.0000
# 6 0.0000 0.0000 0.0000 0.0000 0.0000 22.2840
#
#
#
# Elastic Compliance Matrix: (Units=1/GPa)
#
#
# Indices 1 2 3 4 5 6 
#
# 1 0.046078 -0.006879 -0.010753 0.000000 0.000000 0.000000
# 2 -0.006879 0.012058 -0.002833 0.000000 0.000000 0.000000
# 3 -0.010753 -0.002833 0.012460 0.000000 0.000000 0.000000
# 4 0.000000 0.000000 0.000000 0.081636 0.000000 0.000000
# 5 0.000000 0.000000 0.000000 0.000000 0.038479 0.000000
# 6 0.000000 0.000000 0.000000 0.000000 0.000000 0.044875
#
#
# Mechanical properties :
#
#
# Convention : Reuss Voigt Hill
#
# Bulk Modulus (GPa) = 33.70963 54.85347 44.28155
# Shear Modulus (GPa) = 17.45795 22.37228 19.91511
#
# Velocity S-wave (km/s) = 3.10353 3.51330 3.31475
# Velocity P-wave (km/s) = 5.60722 6.83531 6.25150
#
# Compressibility (1/GPa) = 0.02966511
#
# Stress axis : x y z
#
# Youngs Moduli (GPa) = 21.70253 82.93506 80.25867
#
# Poissons Ratio (x) = 0.57050 0.86300
# Poissons Ratio (y) = 0.14929 0.22740
# Poissons Ratio (z) = 0.23336 0.23498
#
# Static dielectric constant tensor:
#      x y z
#    x 3.306170 0.000000 0.000000 
#    y 0.000000 3.349600 0.000000 
#    z 0.000000 0.000000 3.469700 
# 
# 
# High freq. dielectric constant tensor:
#      x y z
#    x 1.691820 0.000000 0.000000 
#    y 0.000000 1.688140 0.000000 
#    z 0.000000 0.000000 1.710060 
# 
# From -- ./inp_files/9902.got.cif
#   From: 2010.03.12/outbox.cif.g09.slc.cpg/sg67_5_cif.got.tgz:9902.got - 2010.04.10 22:41:39.
