data_PCOD8278681
_publ_section_title
;
Structure prediction by ZEFSAII (Michael W. Deem and Ramdas Pophale) SiO2 
 PCOD8278681
Probable space group: C M M A
;
_chemical_formula_sum "Si O2"
_cell_formula_units_Z 104
_cell_length_a 26.575348
_cell_length_b 8.880756
_cell_length_c 24.518112
_cell_angle_alpha 90.000000
_cell_angle_beta 90.000000
_cell_angle_gamma 90.000000
_cell_volume 5786.499538
_symmetry_space_group_name_H-M "C M M A"
_symmetry_group_IT_number 67
_symmetry_cell_setting 'orthorhombic'
loop_
_space_group_symop_operation_xyz
x,y,z
-x,1/2-y,z
x,-y,-z
-x,1/2+y,-z
-x,-y,-z
x,1/2+y,-z
-x,y,z
x,1/2-y,z
1/2+x,1/2+y,z
1/2-x,-y,z
1/2+x,1/2-y,-z
1/2-x,y,-z
1/2-x,1/2-y,-z
1/2+x,y,-z
1/2-x,1/2+y,z
1/2+x,-y,z
loop_
_atom_site_type_symbol
_atom_site_label
_atom_site_fract_x
_atom_site_fract_y
_atom_site_fract_z
Si Si1 0.000000 0.571371 0.559045
Si Si2 0.056967 0.583980 0.261010
Si Si3 0.301051 0.072442 0.349448
Si Si4 0.557859 0.072419 0.944656
Si Si5 0.409097 0.074345 0.376701
Si Si6 0.699385 0.070861 0.768242
Si Si7 0.396537 0.573532 0.165764
O O1 0.000000 0.500000 0.500000
O O2 0.051970 0.522127 0.587965
O O3 0.000000 0.750000 0.555003
O O4 0.076229 0.750000 0.244093
O O5 0.087083 0.525500 0.313530
O O6 0.061941 0.475444 0.209595
O O7 0.000000 0.588573 0.280522
O O8 0.292674 0.250000 0.341307
O O9 0.349524 0.043368 0.389419
O O10 0.250000 0.000000 0.375126
O O11 0.311823 0.998929 0.290751
O O12 0.500000 0.024506 0.935237
O O13 0.563201 0.250000 0.950016
O O14 0.590484 0.006870 0.893944
O O15 0.579283 0.000000 0.000000
O O16 0.422766 0.250000 0.384823
O O17 0.702947 0.250000 0.762662
O O18 0.657351 0.020145 0.811847
O O19 0.750000 0.000000 0.792583
O O20 0.399974 0.750000 0.160865
#
# Coordination Sequence:
#
# PCOD8278681 Si02
#       7
#     8  16  16  16  16  16  16
#     4  12  26  42  64  88 114 152 193 232 271 320
#     4  10  19  31  48  73 107 142 171 207 258 315
#     4  10  19  32  53  79 112 150 184 224 271 321
#     4   9  18  33  50  68  93 125 163 209 259 310
#     4  10  20  37  57  80 115 151 183 225 272 319
#     4  10  19  30  46  70 102 136 172 212 258 316
#     4  10  20  32  48  71 100 132 168 214 262 315
#
# _framework density 17.972868999999999
#
# number of rings (size 3 to 8) (size 9 to 14) (size 15 to 20)
#    0.000    2.000    2.308    3.000    0.000    4.000 
#    0.000    1.538    0.000    0.923    0.000    6.462 
#    0.000    0.000    0.000    0.000    0.000    0.000 
#
# Total GULP energy -644469.938904 kJ/mol
# GULP energy per Si atom -12393.652671 kJ/mol
# Density = 1.793196 g / cm^3
# Si number density = 17.972869 Si / 1000 Ang^3
#
#
#
# Elastic Constant Matrix: (Units=GPa)
#
#
# Indices 1 2 3 4 5 6 
#
# 1 127.8120 49.7658 51.1555 0.0000 0.0000 0.0000
# 2 49.7658 54.9824 23.2512 0.0000 0.0000 0.0000
# 3 51.1555 23.2512 68.3888 0.0000 0.0000 0.0000
# 4 0.0000 0.0000 0.0000 26.4549 0.0000 0.0000
# 5 0.0000 0.0000 0.0000 0.0000 13.4630 0.0000
# 6 0.0000 0.0000 0.0000 0.0000 0.0000 26.8064
#
#
#
# Elastic Compliance Matrix: (Units=1/GPa)
#
#
# Indices 1 2 3 4 5 6 
#
# 1 0.014862 -0.010220 -0.007642 0.000000 0.000000 0.000000
# 2 -0.010220 0.028270 -0.001966 0.000000 0.000000 0.000000
# 3 -0.007642 -0.001966 0.021007 0.000000 0.000000 0.000000
# 4 0.000000 0.000000 0.000000 0.037800 0.000000 0.000000
# 5 0.000000 0.000000 0.000000 0.000000 0.074278 0.000000
# 6 0.000000 0.000000 0.000000 0.000000 0.000000 0.037305
#
#
# Mechanical properties :
#
#
# Convention : Reuss Voigt Hill
#
# Bulk Modulus (GPa) = 40.84751 55.50311 48.17531
# Shear Modulus (GPa) = 19.13215 21.81225 20.47220
#
# Velocity S-wave (km/s) = 3.26621 3.48749 3.37866
# Velocity P-wave (km/s) = 6.08283 6.86771 6.48715
#
# Compressibility (1/GPa) = 0.02448130
#
# Stress axis : x y z
#
# Youngs Moduli (GPa) = 67.28471 35.37337 47.60234
#
# Poissons Ratio (x) = 0.36153 0.36379
# Poissons Ratio (y) = 0.68767 0.09361
# Poissons Ratio (z) = 0.51421 0.06956
#
# Static dielectric constant tensor:
#      x y z
#    x 4.156200 0.000000 0.000000 
#    y 0.000000 3.307810 0.000000 
#    z 0.000000 0.000000 3.242230 
# 
# 
# High freq. dielectric constant tensor:
#      x y z
#    x 1.704050 0.000000 0.000000 
#    y 0.000000 1.695030 0.000000 
#    z 0.000000 0.000000 1.665810 
# 
# From -- ./inp_files/42775.got.cif
#   From: 2010.03.12/outbox.cif.g09.slc.cpg/sg67_22_cif.got.tgz:42775.got - 2010.04.10 22:41:39.
