data_PCOD8278054
_publ_section_title
;
Structure prediction by ZEFSAII (Michael W. Deem and Ramdas Pophale) SiO2 
 PCOD8278054
Probable space group: C M M A
;
_chemical_formula_sum "Si O2"
_cell_formula_units_Z 96
_cell_length_a 23.663922
_cell_length_b 8.702166
_cell_length_c 25.849980
_cell_angle_alpha 90.000000
_cell_angle_beta 90.000000
_cell_angle_gamma 90.000000
_cell_volume 5323.218589
_symmetry_space_group_name_H-M "C M M A"
_symmetry_group_IT_number 67
_symmetry_cell_setting 'orthorhombic'
loop_
_space_group_symop_operation_xyz
x,y,z
-x,1/2-y,z
x,-y,-z
-x,1/2+y,-z
-x,-y,-z
x,1/2+y,-z
-x,y,z
x,1/2-y,z
1/2+x,1/2+y,z
1/2-x,-y,z
1/2+x,1/2-y,-z
1/2-x,y,-z
1/2-x,1/2-y,-z
1/2+x,y,-z
1/2-x,1/2+y,z
1/2+x,-y,z
loop_
_atom_site_type_symbol
_atom_site_label
_atom_site_fract_x
_atom_site_fract_y
_atom_site_fract_z
Si Si1 0.886861 0.568349 0.054110
Si Si2 0.000000 0.431149 0.216377
Si Si3 0.311608 0.931325 0.655694
Si Si4 0.688584 0.430597 0.149737
Si Si5 0.812772 0.432678 0.448571
Si Si6 0.384866 0.569392 0.754750
Si Si7 0.000000 0.567631 0.901361
O O1 0.894258 0.750000 0.050479
O O2 0.839984 0.520539 0.095982
O O3 0.946136 0.494727 0.068788
O O4 0.865496 0.500000 0.000000
O O5 0.054496 0.489760 0.247004
O O6 0.000000 0.494771 0.157508
O O7 0.000000 0.250000 0.216049
O O8 0.305475 0.750000 0.647825
O O9 0.352009 0.974927 0.702847
O O10 0.250000 0.000000 0.667201
O O11 0.340750 0.006273 0.604544
O O12 0.694401 0.250000 0.155082
O O13 0.750000 0.500000 0.153478
O O14 0.650449 0.495198 0.196534
O O15 0.843919 0.500000 0.500000
O O16 0.812632 0.250000 0.450509
O O17 0.750000 0.500000 0.447774
O O18 0.394244 0.750000 0.759932
O O19 0.000000 0.750000 0.903351
#
# Coordination Sequence:
#
# PCOD8278054 Si02
#       7
#    16   8  16  16  16  16   8
#     4  11  23  39  59  81 108 139 174 215 263 317
#     4  11  23  36  58  85 106 133 172 221 266 311
#     4  10  19  31  50  77 109 145 181 219 263 314
#     4  10  22  38  57  79 105 141 176 212 259 312
#     4  10  17  27  44  68 103 143 183 224 264 310
#     4  10  21  38  57  78 107 141 177 215 264 321
#     4  11  22  38  59  85 108 133 171 217 268 315
#
# _framework density 18.034203000000002
#
# number of rings (size 3 to 8) (size 9 to 14) (size 15 to 20)
#    0.000    1.667    1.667    5.250    0.000    4.333 
#    0.000    1.667    0.000    0.000    0.000    0.583 
#    0.000    0.000    0.000    0.000    0.000    0.000 
#
# Total GULP energy -595273.782113 kJ/mol
# GULP energy per Si atom -12401.537127 kJ/mol
# Density = 1.799316 g / cm^3
# Si number density = 18.034203 Si / 1000 Ang^3
#
#
#
# Elastic Constant Matrix: (Units=GPa)
#
#
# Indices 1 2 3 4 5 6 
#
# 1 116.1675 37.3149 64.3960 0.0000 0.0000 0.0000
# 2 37.3149 83.6993 63.1138 0.0000 0.0000 0.0000
# 3 64.3960 63.1138 169.6014 0.0000 0.0000 0.0000
# 4 0.0000 0.0000 0.0000 30.8942 0.0000 0.0000
# 5 0.0000 0.0000 0.0000 0.0000 132.4763 0.0000
# 6 0.0000 0.0000 0.0000 0.0000 0.0000 28.3375
#
#
#
# Elastic Compliance Matrix: (Units=1/GPa)
#
#
# Indices 1 2 3 4 5 6 
#
# 1 0.011267 -0.002498 -0.003348 0.000000 0.000000 0.000000
# 2 -0.002498 0.017162 -0.005438 0.000000 0.000000 0.000000
# 3 -0.003348 -0.005438 0.009191 0.000000 0.000000 0.000000
# 4 0.000000 0.000000 0.000000 0.032369 0.000000 0.000000
# 5 0.000000 0.000000 0.000000 0.000000 0.007549 0.000000
# 6 0.000000 0.000000 0.000000 0.000000 0.000000 0.035289
#
#
# Mechanical properties :
#
#
# Convention : Reuss Voigt Hill
#
# Bulk Modulus (GPa) = 66.44089 77.67972 72.06030
# Shear Modulus (GPa) = 35.60973 51.98450 43.79712
#
# Velocity S-wave (km/s) = 4.44843 5.37476 4.93339
# Velocity P-wave (km/s) = 7.95652 9.03795 8.51442
#
# Compressibility (1/GPa) = 0.01505097
#
# Stress axis : x y z
#
# Youngs Moduli (GPa) = 88.75651 58.26926 108.80152
#
# Poissons Ratio (x) = 0.14557 0.36429
# Poissons Ratio (y) = 0.22173 0.59164
# Poissons Ratio (z) = 0.29718 0.31686
#
# Static dielectric constant tensor:
#      x y z
#    x 3.020710 0.000000 0.000000 
#    y 0.000000 3.357530 0.000000 
#    z 0.000000 0.000000 4.082100 
# 
# 
# High freq. dielectric constant tensor:
#      x y z
#    x 1.667980 0.000000 0.000000 
#    y 0.000000 1.707770 0.000000 
#    z 0.000000 0.000000 1.716420 
# 
# From -- ./inp_files/42609.got.cif
#   From: 2010.03.12/outbox.cif.g09.slc.cpg/sg67_22_cif.got.tgz:42609.got - 2010.04.10 22:41:39.
