data_PCOD8278842
_publ_section_title
;
Structure prediction by ZEFSAII (Michael W. Deem and Ramdas Pophale) SiO2 
 PCOD8278842
Probable space group: C M M A
;
_chemical_formula_sum "Si O2"
_cell_formula_units_Z 112
_cell_length_a 17.512931
_cell_length_b 16.616039
_cell_length_c 19.561378
_cell_angle_alpha 90.000000
_cell_angle_beta 90.000000
_cell_angle_gamma 90.000000
_cell_volume 5692.273842
_symmetry_space_group_name_H-M "C M M A"
_symmetry_group_IT_number 67
_symmetry_cell_setting 'orthorhombic'
loop_
_space_group_symop_operation_xyz
x,y,z
-x,1/2-y,z
x,-y,-z
-x,1/2+y,-z
-x,-y,-z
x,1/2+y,-z
-x,y,z
x,1/2-y,z
1/2+x,1/2+y,z
1/2-x,-y,z
1/2+x,1/2-y,-z
1/2-x,y,-z
1/2-x,1/2-y,-z
1/2+x,y,-z
1/2-x,1/2+y,z
1/2+x,-y,z
loop_
_atom_site_type_symbol
_atom_site_label
_atom_site_fract_x
_atom_site_fract_y
_atom_site_fract_z
Si Si1 0.307658 0.428354 0.182345
Si Si2 0.084927 0.345718 0.289108
Si Si3 0.668958 0.154151 0.579221
Si Si4 0.335507 0.842528 0.151028
Si Si5 0.087481 0.655472 0.292001
Si Si6 0.339787 0.154979 0.430051
Si Si7 0.411018 0.518927 0.078295
O O1 0.250000 0.500000 0.204012
O O2 0.255593 0.356975 0.150729
O O3 0.355390 0.396616 0.246467
O O4 0.366440 0.454519 0.124004
O O5 0.083929 0.250000 0.292729
O O6 0.120167 0.382924 0.358538
O O7 0.133799 0.374109 0.224316
O O8 0.000000 0.380744 0.280891
O O9 0.666316 0.250000 0.584245
O O10 0.634884 0.124384 0.505800
O O11 0.755346 0.122073 0.587389
O O12 0.354440 0.750000 0.137623
O O13 0.379021 0.891707 0.092240
O O14 0.105550 0.750000 0.281585
O O15 0.101130 0.629421 0.370997
O O16 0.000000 0.636300 0.272914
O O17 0.334091 0.250000 0.434412
O O18 0.500000 0.514059 0.096215
O O19 0.394548 0.500000 0.000000
#
# Coordination Sequence:
#
# PCOD8278842 Si02
#       7
#    16  16  16  16  16  16  16
#     4  10  21  36  56  80 107 142 182 218 259 314
#     4   9  16  25  41  69 103 134 167 215 273 322
#     4   8  13  22  37  60  97 139 173 213 266 322
#     4  10  20  35  58  85 111 140 177 224 269 309
#     4  10  19  31  50  77 110 143 177 222 269 316
#     4   8  14  24  39  63  97 138 178 215 264 319
#     4  10  22  41  62  83 111 144 175 211 259 319
#
# _framework density 19.675792000000001
#
# number of rings (size 3 to 8) (size 9 to 14) (size 15 to 20)
#    0.000    2.714    0.000    3.000    0.000    6.286 
#    0.000    5.000    0.000    1.714    0.000   17.000 
#    0.000   24.000    0.000    0.000    0.000    0.000 
#
# Total GULP energy -694131.199284 kJ/mol
# GULP energy per Si atom -12395.199987 kJ/mol
# Density = 1.963101 g / cm^3
# Si number density = 19.675792 Si / 1000 Ang^3
#
#
#
# Elastic Constant Matrix: (Units=GPa)
#
#
# Indices 1 2 3 4 5 6 
#
# 1 125.6679 40.1069 72.3659 0.0000 0.0000 0.0000
# 2 40.1069 47.7137 52.0047 0.0000 0.0000 0.0000
# 3 72.3659 52.0047 131.4196 0.0000 0.0000 0.0000
# 4 0.0000 0.0000 0.0000 17.8339 0.0000 0.0000
# 5 0.0000 0.0000 0.0000 0.0000 38.5193 0.0000
# 6 0.0000 0.0000 0.0000 0.0000 0.0000 21.1939
#
#
#
# Elastic Compliance Matrix: (Units=1/GPa)
#
#
# Indices 1 2 3 4 5 6 
#
# 1 0.012350 -0.005221 -0.004735 0.000000 0.000000 0.000000
# 2 -0.005221 0.039060 -0.012582 0.000000 0.000000 0.000000
# 3 -0.004735 -0.012582 0.015195 0.000000 0.000000 0.000000
# 4 0.000000 0.000000 0.000000 0.056073 0.000000 0.000000
# 5 0.000000 0.000000 0.000000 0.000000 0.025961 0.000000
# 6 0.000000 0.000000 0.000000 0.000000 0.000000 0.047183
#
#
# Mechanical properties :
#
#
# Convention : Reuss Voigt Hill
#
# Bulk Modulus (GPa) = 46.44491 70.41736 58.43114
# Shear Modulus (GPa) = 20.15527 24.86436 22.50981
#
# Velocity S-wave (km/s) = 3.20405 3.55872 3.38603
# Velocity P-wave (km/s) = 6.11099 7.26309 6.71181
#
# Compressibility (1/GPa) = 0.02153088
#
# Stress axis : x y z
#
# Youngs Moduli (GPa) = 80.97077 25.60154 65.81044
#
# Poissons Ratio (x) = 0.13366 0.31159
# Poissons Ratio (y) = 0.42273 0.82802
# Poissons Ratio (z) = 0.38337 0.32212
#
# Static dielectric constant tensor:
#      x y z
#    x 3.736050 0.000000 0.000000 
#    y 0.000000 3.213660 0.000000 
#    z 0.000000 0.000000 3.711110 
# 
# 
# High freq. dielectric constant tensor:
#      x y z
#    x 1.772560 0.000000 0.000000 
#    y 0.000000 1.727870 0.000000 
#    z 0.000000 0.000000 1.767670 
# 
# From -- ./inp_files/39067.got.cif
#   From: 2010.03.12/outbox.cif.g09.slc.cpg/sg67_20_cif.got.tgz:39067.got - 2010.04.10 22:41:39.
