data_PCOD8278336
_publ_section_title
;
Structure prediction by ZEFSAII (Michael W. Deem and Ramdas Pophale) SiO2 
 PCOD8278336
Probable space group: C M M A
;
_chemical_formula_sum "Si O2"
_cell_formula_units_Z 88
_cell_length_a 10.599680
_cell_length_b 19.071569
_cell_length_c 22.044012
_cell_angle_alpha 90.000000
_cell_angle_beta 90.000000
_cell_angle_gamma 90.000000
_cell_volume 4456.252764
_symmetry_space_group_name_H-M "C M M A"
_symmetry_group_IT_number 67
_symmetry_cell_setting 'orthorhombic'
loop_
_space_group_symop_operation_xyz
x,y,z
-x,1/2-y,z
x,-y,-z
-x,1/2+y,-z
-x,-y,-z
x,1/2+y,-z
-x,y,z
x,1/2-y,z
1/2+x,1/2+y,z
1/2-x,-y,z
1/2+x,1/2-y,-z
1/2-x,y,-z
1/2-x,1/2-y,-z
1/2+x,y,-z
1/2-x,1/2+y,z
1/2+x,-y,z
loop_
_atom_site_type_symbol
_atom_site_label
_atom_site_fract_x
_atom_site_fract_y
_atom_site_fract_z
Si Si1 0.750000 0.000000 0.353777
Si Si2 0.798046 0.750000 0.432586
Si Si3 0.000000 0.584496 0.934388
Si Si4 0.147611 0.250000 0.315727
Si Si5 0.000000 0.582502 0.073281
Si Si6 0.146658 0.605821 0.740324
Si Si7 0.637933 0.599250 0.549097
Si Si8 0.254666 0.580478 0.130363
O O1 0.838066 0.048746 0.312428
O O2 0.659822 0.047183 0.395264
O O3 0.750000 0.750000 0.500000
O O4 0.682710 0.750000 0.386116
O O5 0.874677 0.678010 0.423924
O O6 0.000000 0.501338 0.924467
O O7 0.874538 0.616586 0.902815
O O8 0.000000 0.607986 0.004029
O O9 0.198363 0.319211 0.282402
O O10 0.000000 0.250000 0.313781
O O11 0.876824 0.614183 0.107304
O O12 0.233285 0.586826 0.797411
O O13 0.000000 0.607877 0.759541
O O14 0.500000 0.581540 0.519980
O O15 0.750000 0.590574 0.500000
O O16 0.250000 0.500000 0.110585
#
# Coordination Sequence:
#
# PCOD8278336 Si02
#       8
#     8   8   8   8   8  16  16  16
#     4  12  23  38  62  88 123 154 200 248 306 356
#     4  10  21  41  63  88 116 153 199 245 294 353
#     4   9  16  30  48  77 117 157 196 239 285 350
#     4  10  22  41  64  86 115 158 209 246 293 356
#     4   9  18  28  48  79 117 157 192 235 301 346
#     4  11  22  38  59  86 118 160 201 246 297 359
#     4  11  25  43  65  92 122 157 197 248 302 359
#     4  10  18  30  51  80 117 153 195 244 292 346
#
# _framework density 19.747532
#
# number of rings (size 3 to 8) (size 9 to 14) (size 15 to 20)
#    0.000    1.636    3.636    1.636    0.000    7.273 
#    1.636    0.000    0.000    0.000    0.000    3.818 
#    0.000    0.000    0.000    0.000    0.000    0.000 
#
# Total GULP energy -545425.773428 kJ/mol
# GULP energy per Si atom -12396.040305 kJ/mol
# Density = 1.970259 g / cm^3
# Si number density = 19.747532 Si / 1000 Ang^3
#
#
#
# Elastic Constant Matrix: (Units=GPa)
#
#
# Indices 1 2 3 4 5 6 
#
# 1 149.0134 34.2294 73.4917 0.0000 0.0000 0.0000
# 2 34.2294 84.8019 36.1595 0.0000 0.0000 0.0000
# 3 73.4917 36.1595 124.5538 0.0000 0.0000 0.0000
# 4 0.0000 0.0000 0.0000 9.3190 0.0000 0.0000
# 5 0.0000 0.0000 0.0000 0.0000 39.5687 0.0000
# 6 0.0000 0.0000 0.0000 0.0000 0.0000 9.7823
#
#
#
# Elastic Compliance Matrix: (Units=1/GPa)
#
#
# Indices 1 2 3 4 5 6 
#
# 1 0.009670 -0.001678 -0.005219 0.000000 0.000000 0.000000
# 2 -0.001678 0.013749 -0.003002 0.000000 0.000000 0.000000
# 3 -0.005219 -0.003002 0.011979 0.000000 0.000000 0.000000
# 4 0.000000 0.000000 0.000000 0.107307 0.000000 0.000000
# 5 0.000000 0.000000 0.000000 0.000000 0.025273 0.000000
# 6 0.000000 0.000000 0.000000 0.000000 0.000000 0.102225
#
#
# Mechanical properties :
#
#
# Convention : Reuss Voigt Hill
#
# Bulk Modulus (GPa) = 64.09270 71.79226 67.94248
# Shear Modulus (GPa) = 16.93764 26.03323 21.48543
#
# Velocity S-wave (km/s) = 2.93184 3.63478 3.30207
# Velocity P-wave (km/s) = 6.63230 7.35184 7.00132
#
# Compressibility (1/GPa) = 0.01560240
#
# Stress axis : x y z
#
# Youngs Moduli (GPa) = 103.41291 72.73070 83.47819
#
# Poissons Ratio (x) = 0.12204 0.43563
# Poissons Ratio (y) = 0.17353 0.25056
# Poissons Ratio (z) = 0.53966 0.21830
#
# Static dielectric constant tensor:
#      x y z
#    x 3.669340 0.000000 0.000000 
#    y 0.000000 3.982750 0.000000 
#    z 0.000000 0.000000 3.560940 
# 
# 
# High freq. dielectric constant tensor:
#      x y z
#    x 1.771880 0.000000 0.000000 
#    y 0.000000 1.740530 0.000000 
#    z 0.000000 0.000000 1.772150 
# 
# From -- ./inp_files/40736.got.cif
#   From: 2010.03.12/outbox.cif.g09.slc.cpg/sg67_21_cif.got.tgz:40736.got - 2010.04.10 22:41:39.
