data_PCOD8278996
_publ_section_title
;
Structure prediction by ZEFSAII (Michael W. Deem and Ramdas Pophale) SiO2 
 PCOD8278996
Probable space group: C M M A
;
_chemical_formula_sum "Si O2"
_cell_formula_units_Z 96
_cell_length_a 18.697734
_cell_length_b 8.747968
_cell_length_c 31.080334
_cell_angle_alpha 90.000000
_cell_angle_beta 90.000000
_cell_angle_gamma 90.000000
_cell_volume 5083.722546
_symmetry_space_group_name_H-M "C M M A"
_symmetry_group_IT_number 67
_symmetry_cell_setting 'orthorhombic'
loop_
_space_group_symop_operation_xyz
x,y,z
-x,1/2-y,z
x,-y,-z
-x,1/2+y,-z
-x,-y,-z
x,1/2+y,-z
-x,y,z
x,1/2-y,z
1/2+x,1/2+y,z
1/2-x,-y,z
1/2+x,1/2-y,-z
1/2-x,y,-z
1/2-x,1/2-y,-z
1/2+x,y,-z
1/2-x,1/2+y,z
1/2+x,-y,z
loop_
_atom_site_type_symbol
_atom_site_label
_atom_site_fract_x
_atom_site_fract_y
_atom_site_fract_z
Si Si1 0.828415 0.568323 0.125598
Si Si2 0.327420 0.068301 0.286971
Si Si3 0.581209 0.069378 0.044507
Si Si4 0.418926 0.069871 0.543512
Si Si5 0.580357 0.431396 0.206156
Si Si6 0.327094 0.068076 0.623946
O O1 0.823034 0.750000 0.126595
O O2 0.750000 0.500000 0.127650
O O3 0.868100 0.509894 0.082650
O O4 0.873997 0.506081 0.165981
O O5 0.320814 0.250000 0.290308
O O6 0.382038 0.015381 0.250102
O O7 0.250000 0.000000 0.276111
O O8 0.357603 0.000614 0.331622
O O9 0.500000 0.014133 0.053572
O O10 0.584225 0.250000 0.041077
O O11 0.610233 0.000000 0.000000
O O12 0.500000 0.011985 0.548682
O O13 0.414106 0.250000 0.539750
O O14 0.376996 0.011332 0.585231
O O15 0.384926 0.000000 0.500000
O O16 0.500000 0.499409 0.204458
O O17 0.576878 0.250000 0.203821
O O18 0.323303 0.250000 0.627630
O O19 0.250000 0.000000 0.614294
#
# Coordination Sequence:
#
# PCOD8278996 Si02
#       6
#    16  16  16  16  16  16
#     4  10  20  34  53  75 101 133 167 205 249 297
#     4  10  19  32  52  75 100 130 163 201 245 292
#     4   9  18  33  53  75  99 131 169 207 249 295
#     4   9  19  35  53  73  98 130 166 204 247 292
#     4   9  18  33  53  76 100 128 166 208 246 290
#     4  10  20  34  52  74 102 133 165 202 244 293
#
# _framework density 18.883800000000001
#
# number of rings (size 3 to 8) (size 9 to 14) (size 15 to 20)
#    0.000    2.500    0.000    3.000    0.000    5.333 
#    0.000    4.167    0.000    5.000    0.000    0.000 
#    0.000    0.000    0.000    0.000    0.000    0.000 
#
# Total GULP energy -595213.048298 kJ/mol
# GULP energy per Si atom -12400.271840 kJ/mol
# Density = 1.884082 g / cm^3
# Si number density = 18.883800 Si / 1000 Ang^3
#
#
#
# Elastic Constant Matrix: (Units=GPa)
#
#
# Indices 1 2 3 4 5 6 
#
# 1 132.0259 26.8500 113.1548 0.0000 0.0000 0.0000
# 2 26.8500 39.3626 39.6304 0.0000 0.0000 0.0000
# 3 113.1548 39.6304 209.2323 0.0000 0.0000 0.0000
# 4 0.0000 0.0000 0.0000 26.5948 0.0000 0.0000
# 5 0.0000 0.0000 0.0000 0.0000 42.6994 0.0000
# 6 0.0000 0.0000 0.0000 0.0000 0.0000 24.3233
#
#
#
# Elastic Compliance Matrix: (Units=1/GPa)
#
#
# Indices 1 2 3 4 5 6 
#
# 1 0.014304 -0.002433 -0.007275 0.000000 0.000000 0.000000
# 2 -0.002433 0.031805 -0.004709 0.000000 0.000000 0.000000
# 3 -0.007275 -0.004709 0.009606 0.000000 0.000000 0.000000
# 4 0.000000 0.000000 0.000000 0.037601 0.000000 0.000000
# 5 0.000000 0.000000 0.000000 0.000000 0.023420 0.000000
# 6 0.000000 0.000000 0.000000 0.000000 0.000000 0.041113
#
#
# Mechanical properties :
#
#
# Convention : Reuss Voigt Hill
#
# Bulk Modulus (GPa) = 37.19941 82.21013 59.70477
# Shear Modulus (GPa) = 25.55697 32.12254 28.83976
#
# Velocity S-wave (km/s) = 3.68282 4.12887 3.91221
# Velocity P-wave (km/s) = 6.15030 8.14612 7.21753
#
# Compressibility (1/GPa) = 0.02688214
#
# Stress axis : x y z
#
# Youngs Moduli (GPa) = 69.90939 31.44193 104.10520
#
# Poissons Ratio (x) = 0.07648 0.75738
# Poissons Ratio (y) = 0.17006 0.49018
# Poissons Ratio (z) = 0.50860 0.14805
#
# Static dielectric constant tensor:
#      x y z
#    x 3.538400 0.000000 0.000000 
#    y 0.000000 3.232610 0.000000 
#    z 0.000000 0.000000 3.793220 
# 
# 
# High freq. dielectric constant tensor:
#      x y z
#    x 1.730850 0.000000 0.000000 
#    y 0.000000 1.713640 0.000000 
#    z 0.000000 0.000000 1.751950 
# 
# From -- ./inp_files/44604.got.cif
#   From: 2010.03.12/outbox.cif.g09.slc.cpg/sg67_23_cif.got.tgz:44604.got - 2010.04.10 22:41:39.
