data_PCOD8278156
_publ_section_title
;
Structure prediction by ZEFSAII (Michael W. Deem and Ramdas Pophale) SiO2 
 PCOD8278156
Probable space group: C M M A
;
_chemical_formula_sum "Si O2"
_cell_formula_units_Z 88
_cell_length_a 29.570900
_cell_length_b 16.304394
_cell_length_c 9.849116
_cell_angle_alpha 90.000000
_cell_angle_beta 90.000000
_cell_angle_gamma 90.000000
_cell_volume 4748.609497
_symmetry_space_group_name_H-M "C M M A"
_symmetry_group_IT_number 67
_symmetry_cell_setting 'orthorhombic'
loop_
_space_group_symop_operation_xyz
x,y,z
-x,1/2-y,z
x,-y,-z
-x,1/2+y,-z
-x,-y,-z
x,1/2+y,-z
-x,y,z
x,1/2-y,z
1/2+x,1/2+y,z
1/2-x,-y,z
1/2+x,1/2-y,-z
1/2-x,y,-z
1/2-x,1/2-y,-z
1/2+x,y,-z
1/2-x,1/2+y,z
1/2+x,-y,z
loop_
_atom_site_type_symbol
_atom_site_label
_atom_site_fract_x
_atom_site_fract_y
_atom_site_fract_z
Si Si1 0.385947 0.657020 0.455443
Si Si2 0.051432 0.344071 0.694992
Si Si3 0.641582 0.160172 0.834713
Si Si4 0.385654 0.077046 0.085185
Si Si5 0.800035 0.007635 0.205239
Si Si6 0.325798 0.000000 0.500000
O O1 0.366461 0.750000 0.484083
O O2 0.432660 0.646960 0.538337
O O3 0.392864 0.645611 0.292722
O O4 0.353855 0.584505 0.506336
O O5 0.055933 0.250000 0.743190
O O6 0.081528 0.401649 0.791231
O O7 0.000000 0.374612 0.703161
O O8 0.662999 0.250000 0.826010
O O9 0.683163 0.098346 0.829153
O O10 0.615496 0.151522 0.977683
O O11 0.335207 0.057594 0.141487
O O12 0.404901 0.000000 0.000000
O O13 0.750000 0.000000 0.141291
O O14 0.795281 0.996931 0.366587
#
# Coordination Sequence:
#
# PCOD8278156 Si02
#       6
#    16  16  16  16  16   8
#     4   9  18  34  57  81 106 142 184 227 276 332
#     4  10  20  36  58  82 109 143 187 235 280 329
#     4   9  19  35  55  77 109 145 180 223 277 332
#     4  10  20  35  55  79 111 147 184 223 275 331
#     4  10  20  34  55  81 110 144 186 229 275 331
#     4  10  17  34  59  78 110 144 181 228 289 328
#
# _framework density 18.531741
#
# number of rings (size 3 to 8) (size 9 to 14) (size 15 to 20)
#    0.000    2.364    1.818    0.818    0.000    3.636 
#    0.000    5.000    0.000    7.636    0.000    0.000 
#    0.000    0.000    0.000    0.000    0.000    0.000 
#
# Total GULP energy -545121.831611 kJ/mol
# GULP energy per Si atom -12389.132537 kJ/mol
# Density = 1.848956 g / cm^3
# Si number density = 18.531741 Si / 1000 Ang^3
#
#
#
# Elastic Constant Matrix: (Units=GPa)
#
#
# Indices 1 2 3 4 5 6 
#
# 1 125.6700 48.2034 56.8061 0.0000 0.0000 0.0000
# 2 48.2034 86.8853 40.9593 0.0000 0.0000 0.0000
# 3 56.8061 40.9593 123.2300 0.0000 0.0000 0.0000
# 4 0.0000 0.0000 0.0000 26.7603 0.0000 0.0000
# 5 0.0000 0.0000 0.0000 0.0000 9.9874 0.0000
# 6 0.0000 0.0000 0.0000 0.0000 0.0000 18.5993
#
#
#
# Elastic Compliance Matrix: (Units=1/GPa)
#
#
# Indices 1 2 3 4 5 6 
#
# 1 0.011396 -0.004561 -0.003737 0.000000 0.000000 0.000000
# 2 -0.004561 0.015473 -0.003041 0.000000 0.000000 0.000000
# 3 -0.003737 -0.003041 0.010848 0.000000 0.000000 0.000000
# 4 0.000000 0.000000 0.000000 0.037369 0.000000 0.000000
# 5 0.000000 0.000000 0.000000 0.000000 0.100127 0.000000
# 6 0.000000 0.000000 0.000000 0.000000 0.000000 0.053765
#
#
# Mechanical properties :
#
#
# Convention : Reuss Voigt Hill
#
# Bulk Modulus (GPa) = 66.48846 69.74698 68.11772
# Shear Modulus (GPa) = 19.48034 23.72383 21.60208
#
# Velocity S-wave (km/s) = 3.24572 3.58183 3.41791
# Velocity P-wave (km/s) = 7.07123 7.40434 7.23970
#
# Compressibility (1/GPa) = 0.01504020
#
# Stress axis : x y z
#
# Youngs Moduli (GPa) = 87.74946 64.62872 92.17910
#
# Poissons Ratio (x) = 0.29474 0.34452
# Poissons Ratio (y) = 0.40019 0.28028
# Poissons Ratio (z) = 0.32796 0.19651
#
# Static dielectric constant tensor:
#      x y z
#    x 3.008020 0.000000 0.000000 
#    y 0.000000 3.539440 0.000000 
#    z 0.000000 0.000000 3.815530 
# 
# 
# High freq. dielectric constant tensor:
#      x y z
#    x 1.675170 0.000000 0.000000 
#    y 0.000000 1.724650 0.000000 
#    z 0.000000 0.000000 1.743730 
# 
# From -- ./inp_files/14644.got.cif
#   From: 2010.03.12/outbox.cif.g09.slc.cpg/sg67_8_cif.got.tgz:14644.got - 2010.04.10 22:41:39.
