data_PCOD8278696
_publ_section_title
;
Structure prediction by ZEFSAII (Michael W. Deem and Ramdas Pophale) SiO2 
 PCOD8278696
Probable space group: C M M A
;
_chemical_formula_sum "Si O2"
_cell_formula_units_Z 96
_cell_length_a 9.187577
_cell_length_b 30.383980
_cell_length_c 19.999959
_cell_angle_alpha 90.000000
_cell_angle_beta 90.000000
_cell_angle_gamma 90.000000
_cell_volume 5583.091671
_symmetry_space_group_name_H-M "C M M A"
_symmetry_group_IT_number 67
_symmetry_cell_setting 'orthorhombic'
loop_
_space_group_symop_operation_xyz
x,y,z
-x,1/2-y,z
x,-y,-z
-x,1/2+y,-z
-x,-y,-z
x,1/2+y,-z
-x,y,z
x,1/2-y,z
1/2+x,1/2+y,z
1/2-x,-y,z
1/2+x,1/2-y,-z
1/2-x,y,-z
1/2-x,1/2-y,-z
1/2+x,y,-z
1/2-x,1/2+y,z
1/2+x,-y,z
loop_
_atom_site_type_symbol
_atom_site_label
_atom_site_fract_x
_atom_site_fract_y
_atom_site_fract_z
Si Si1 0.164197 0.958125 0.830684
Si Si2 0.669275 0.799936 0.933840
Si Si3 0.173091 0.636005 0.683755
Si Si4 0.172533 0.130483 0.821296
Si Si5 0.169810 0.199642 0.434249
Si Si6 0.840932 0.960068 0.672173
O O1 0.253270 0.914089 0.848369
O O2 0.154196 0.963990 0.751678
O O3 0.000000 0.955626 0.860512
O O4 0.250000 0.000000 0.861733
O O5 0.500000 0.802845 0.949514
O O6 0.716240 0.750000 0.915790
O O7 0.712173 0.830854 0.872370
O O8 0.750000 0.816804 0.000000
O O9 0.260672 0.646048 0.751036
O O10 0.220034 0.672250 0.630053
O O11 0.221229 0.588288 0.654360
O O12 0.000000 0.636097 0.699333
O O13 0.000000 0.122809 0.813860
O O14 0.213489 0.250000 0.420207
O O15 0.250000 0.181582 0.500000
O O16 0.000000 0.193962 0.447177
O O17 0.000000 0.965301 0.640850
O O18 0.750000 0.000000 0.640256
#
# Coordination Sequence:
#
# PCOD8278696 Si02
#       6
#    16  16  16  16  16  16
#     4   9  16  27  44  67  96 128 160 193 233 282
#     4   9  19  35  52  70  94 126 163 200 239 287
#     4   9  18  31  46  68  97 125 154 192 237 282
#     4  10  19  30  47  73 101 126 157 199 243 283
#     4   9  18  33  51  69  91 121 157 195 237 288
#     4   8  14  24  39  60  87 117 148 182 219 263
#
# _framework density 17.194773999999999
#
# number of rings (size 3 to 8) (size 9 to 14) (size 15 to 20)
#    0.000    3.000    0.000    2.000    0.000    6.667 
#    0.000    0.000    0.000    1.000    0.000    7.000 
#    0.000    0.000    0.000    0.000    0.000    0.000 
#
# Total GULP energy -595030.063550 kJ/mol
# GULP energy per Si atom -12396.459657 kJ/mol
# Density = 1.715564 g / cm^3
# Si number density = 17.194774 Si / 1000 Ang^3
#
#
#
# Elastic Constant Matrix: (Units=GPa)
#
#
# Indices 1 2 3 4 5 6 
#
# 1 81.0034 59.8302 51.0887 0.0000 0.0000 0.0000
# 2 59.8302 126.4742 72.9937 0.0000 0.0000 0.0000
# 3 51.0887 72.9937 84.2907 0.0000 0.0000 0.0000
# 4 0.0000 0.0000 0.0000 2.6823 0.0000 0.0000
# 5 0.0000 0.0000 0.0000 0.0000 22.6559 0.0000
# 6 0.0000 0.0000 0.0000 0.0000 0.0000 28.2527
#
#
#
# Elastic Compliance Matrix: (Units=1/GPa)
#
#
# Indices 1 2 3 4 5 6 
#
# 1 0.021646 -0.005334 -0.008501 0.000000 0.000000 0.000000
# 2 -0.005334 0.017121 -0.011594 0.000000 0.000000 0.000000
# 3 -0.008501 -0.011594 0.027056 0.000000 0.000000 0.000000
# 4 0.000000 0.000000 0.000000 0.372815 0.000000 0.000000
# 5 0.000000 0.000000 0.000000 0.000000 0.044139 0.000000
# 6 0.000000 0.000000 0.000000 0.000000 0.000000 0.035395
#
#
# Mechanical properties :
#
#
# Convention : Reuss Voigt Hill
#
# Bulk Modulus (GPa) = 66.81529 73.28817 70.05173
# Shear Modulus (GPa) = 8.71053 17.90856 13.30954
#
# Velocity S-wave (km/s) = 2.25318 3.23075 2.78519
# Velocity P-wave (km/s) = 6.76102 7.52541 7.15343
#
# Compressibility (1/GPa) = 0.01496663
#
# Stress axis : x y z
#
# Youngs Moduli (GPa) = 46.19731 58.40709 36.96034
#
# Poissons Ratio (x) = 0.31153 0.31420
# Poissons Ratio (y) = 0.24641 0.42851
# Poissons Ratio (z) = 0.39272 0.67716
#
# Static dielectric constant tensor:
#      x y z
#    x 3.330220 0.000000 0.000000 
#    y 0.000000 3.469930 0.000000 
#    z 0.000000 0.000000 2.844390 
# 
# 
# High freq. dielectric constant tensor:
#      x y z
#    x 1.668110 0.000000 0.000000 
#    y 0.000000 1.675410 0.000000 
#    z 0.000000 0.000000 1.618760 
# 
# From -- ./inp_files/37182.got.cif
#   From: 2010.03.12/outbox.cif.g09.slc.cpg/sg67_19_cif.got.tgz:37182.got - 2010.04.10 22:41:39.
