data_PCOD8278576
_publ_section_title
;
Structure prediction by ZEFSAII (Michael W. Deem and Ramdas Pophale) SiO2 
 PCOD8278576
Probable space group: C M M A
;
_chemical_formula_sum "Si O2"
_cell_formula_units_Z 64
_cell_length_a 32.284715
_cell_length_b 10.300017
_cell_length_c 9.601287
_cell_angle_alpha 90.000000
_cell_angle_beta 90.000000
_cell_angle_gamma 90.000000
_cell_volume 3192.745858
_symmetry_space_group_name_H-M "C M M A"
_symmetry_group_IT_number 67
_symmetry_cell_setting 'orthorhombic'
loop_
_space_group_symop_operation_xyz
x,y,z
-x,1/2-y,z
x,-y,-z
-x,1/2+y,-z
-x,-y,-z
x,1/2+y,-z
-x,y,z
x,1/2-y,z
1/2+x,1/2+y,z
1/2-x,-y,z
1/2+x,1/2-y,-z
1/2-x,y,-z
1/2-x,1/2-y,-z
1/2+x,y,-z
1/2-x,1/2+y,z
1/2+x,-y,z
loop_
_atom_site_type_symbol
_atom_site_label
_atom_site_fract_x
_atom_site_fract_y
_atom_site_fract_z
Si Si1 0.411602 0.522085 0.745390
Si Si2 0.417354 0.250000 0.696356
Si Si3 0.153060 0.000000 0.500000
Si Si4 0.547091 0.250000 0.398061
Si Si5 0.704612 0.750000 0.438113
Si Si6 0.141632 0.500000 0.000000
Si Si7 0.330770 0.250000 0.844021
O O1 0.436324 0.383371 0.759206
O O2 0.375507 0.502352 0.634615
O O3 0.445305 0.625955 0.698635
O O4 0.389096 0.564055 0.886882
O O5 0.421826 0.250000 0.528560
O O6 0.369352 0.250000 0.738937
O O7 0.181928 0.875236 0.501421
O O8 0.500000 0.250000 0.451989
O O9 0.750000 0.750000 0.500000
O O10 0.707205 0.750000 0.266645
O O11 0.169471 0.381551 0.061500
#
# Coordination Sequence:
#
# PCOD8278576 Si02
#       7
#    16   8   8   8   8   8   8
#     4  11  20  37  63  90 112 164 214 255 302 368
#     4  10  18  36  58  83 120 151 205 263 292 361
#     4  12  19  42  67  88 126 160 220 260 291 374
#     4  12  23  35  55  92 128 159 205 268 324 365
#     4  12  24  38  63 100 132 157 201 260 317 372
#     4  10  20  36  67  91 122 160 218 260 302 368
#     4  10  19  39  60  98 123 161 217 255 308 380
#
# _framework density 20.045442999999999
#
# number of rings (size 3 to 8) (size 9 to 14) (size 15 to 20)
#    0.000    1.000    7.500    1.875    0.000    2.000 
#    0.000    0.625    0.000   12.000    0.000    0.000 
#    0.000    0.000    0.000    0.000    0.000    0.000 
#
# Total GULP energy -396579.141313 kJ/mol
# GULP energy per Si atom -12393.098166 kJ/mol
# Density = 1.999982 g / cm^3
# Si number density = 20.045443 Si / 1000 Ang^3
#
#
#
# Elastic Constant Matrix: (Units=GPa)
#
#
# Indices 1 2 3 4 5 6 
#
# 1 72.2695 40.9015 31.0190 0.0000 0.0000 0.0000
# 2 40.9015 180.0571 31.4049 0.0000 0.0000 0.0000
# 3 31.0190 31.4049 110.1650 0.0000 0.0000 0.0000
# 4 0.0000 0.0000 0.0000 31.0433 0.0000 0.0000
# 5 0.0000 0.0000 0.0000 0.0000 28.6401 0.0000
# 6 0.0000 0.0000 0.0000 0.0000 0.0000 34.3827
#
#
#
# Elastic Compliance Matrix: (Units=1/GPa)
#
#
# Indices 1 2 3 4 5 6 
#
# 1 0.017383 -0.003257 -0.003966 0.000000 0.000000 0.000000
# 2 -0.003257 0.006455 -0.000923 0.000000 0.000000 0.000000
# 3 -0.003966 -0.000923 0.010457 0.000000 0.000000 0.000000
# 4 0.000000 0.000000 0.000000 0.032213 0.000000 0.000000
# 5 0.000000 0.000000 0.000000 0.000000 0.034916 0.000000
# 6 0.000000 0.000000 0.000000 0.000000 0.000000 0.029084
#
#
# Mechanical properties :
#
#
# Convention : Reuss Voigt Hill
#
# Bulk Modulus (GPa) = 55.54735 63.23805 59.39270
# Shear Modulus (GPa) = 32.72246 36.09098 34.40672
#
# Velocity S-wave (km/s) = 4.04470 4.24778 4.14748
# Velocity P-wave (km/s) = 7.04157 7.46150 7.25457
#
# Compressibility (1/GPa) = 0.01800266
#
# Stress axis : x y z
#
# Youngs Moduli (GPa) = 57.52889 154.92820 95.62887
#
# Poissons Ratio (x) = 0.50458 0.37926
# Poissons Ratio (y) = 0.18736 0.08826
# Poissons Ratio (z) = 0.22816 0.14300
#
# Static dielectric constant tensor:
#      x y z
#    x 3.157190 0.000000 0.000000 
#    y 0.000000 4.673930 0.000000 
#    z 0.000000 0.000000 1.182960 
# 
# 
# High freq. dielectric constant tensor:
#      x y z
#    x 1.729700 0.000000 0.000000 
#    y 0.000000 1.815870 0.000000 
#    z 0.000000 0.000000 1.783980 
# 
# From -- ./inp_files/14411.got.cif
#   From: 2010.03.12/outbox.cif.g09.slc.cpg/sg67_8_cif.got.tgz:14411.got - 2010.04.10 22:41:39.
