data_PCOD8278724
_publ_section_title
;
Structure prediction by ZEFSAII (Michael W. Deem and Ramdas Pophale) SiO2 
 PCOD8278724
Probable space group: C M M A
;
_chemical_formula_sum "Si O2"
_cell_formula_units_Z 96
_cell_length_a 19.985364
_cell_length_b 22.304577
_cell_length_c 11.375687
_cell_angle_alpha 90.000000
_cell_angle_beta 90.000000
_cell_angle_gamma 90.000000
_cell_volume 5070.884142
_symmetry_space_group_name_H-M "C M M A"
_symmetry_group_IT_number 67
_symmetry_cell_setting 'orthorhombic'
loop_
_space_group_symop_operation_xyz
x,y,z
-x,1/2-y,z
x,-y,-z
-x,1/2+y,-z
-x,-y,-z
x,1/2+y,-z
-x,y,z
x,1/2-y,z
1/2+x,1/2+y,z
1/2-x,-y,z
1/2+x,1/2-y,-z
1/2-x,y,-z
1/2-x,1/2-y,-z
1/2+x,y,-z
1/2-x,1/2+y,z
1/2+x,-y,z
loop_
_atom_site_type_symbol
_atom_site_label
_atom_site_fract_x
_atom_site_fract_y
_atom_site_fract_z
Si Si1 0.771298 0.181960 0.778811
Si Si2 0.827357 0.516053 0.259192
Si Si3 0.822031 0.097117 0.954715
Si Si4 0.363729 0.610479 0.204862
Si Si5 0.423829 0.318986 0.604842
Si Si6 0.819957 0.619327 0.435311
O O1 0.748250 0.250000 0.792799
O O2 0.814363 0.162278 0.892483
O O3 0.708915 0.137681 0.767939
O O4 0.813597 0.172710 0.660027
O O5 0.750000 0.500000 0.252290
O O6 0.849867 0.549611 0.139353
O O7 0.869427 0.454688 0.266895
O O8 0.842475 0.557511 0.372206
O O9 0.750000 0.073840 0.000000
O O10 0.873347 0.104462 0.063844
O O11 0.418652 0.654516 0.262340
O O12 0.500000 0.323505 0.561081
O O13 0.399458 0.250000 0.603973
O O14 0.377012 0.360101 0.524522
O O15 0.750000 0.607916 0.500000
#
# Coordination Sequence:
#
# PCOD8278724 Si02
#       6
#    16  16  16  16  16  16
#     4  10  19  30  50  83 115 142 181 234 283 328
#     4  11  18  32  53  86 121 151 179 229 293 342
#     4   9  18  29  50  81 119 150 176 222 283 343
#     4  11  20  32  54  83 114 148 187 228 282 341
#     4  11  25  43  59  78 111 156 197 238 295 352
#     4  11  21  36  57  83 112 147 193 242 285 341
#
# _framework density 18.931609000000002
#
# number of rings (size 3 to 8) (size 9 to 14) (size 15 to 20)
#    0.000    1.500    6.667    1.500    0.000    6.667 
#    0.000    1.667    0.000    6.000    0.000    9.333 
#    0.000    0.000    0.000    0.000    0.000    0.000 
#
# Total GULP energy -595020.902029 kJ/mol
# GULP energy per Si atom -12396.268792 kJ/mol
# Density = 1.888852 g / cm^3
# Si number density = 18.931609 Si / 1000 Ang^3
#
#
#
# Elastic Constant Matrix: (Units=GPa)
#
#
# Indices 1 2 3 4 5 6 
#
# 1 46.8599 25.1741 35.4591 0.0000 0.0000 0.0000
# 2 25.1741 149.7907 63.4277 0.0000 0.0000 0.0000
# 3 35.4591 63.4277 114.3735 0.0000 0.0000 0.0000
# 4 0.0000 0.0000 0.0000 23.8812 0.0000 0.0000
# 5 0.0000 0.0000 0.0000 0.0000 15.9279 0.0000
# 6 0.0000 0.0000 0.0000 0.0000 0.0000 10.8785
#
#
#
# Elastic Compliance Matrix: (Units=1/GPa)
#
#
# Indices 1 2 3 4 5 6 
#
# 1 0.028089 -0.001350 -0.007959 0.000000 0.000000 0.000000
# 2 -0.001350 0.008790 -0.004456 0.000000 0.000000 0.000000
# 3 -0.007959 -0.004456 0.013682 0.000000 0.000000 0.000000
# 4 0.000000 0.000000 0.000000 0.041874 0.000000 0.000000
# 5 0.000000 0.000000 0.000000 0.000000 0.062783 0.000000
# 6 0.000000 0.000000 0.000000 0.000000 0.000000 0.091925
#
#
# Mechanical properties :
#
#
# Convention : Reuss Voigt Hill
#
# Bulk Modulus (GPa) = 43.42325 62.12731 52.77528
# Shear Modulus (GPa) = 17.70856 22.60172 20.15514
#
# Velocity S-wave (km/s) = 3.06174 3.45898 3.26641
# Velocity P-wave (km/s) = 5.95699 6.98861 6.49332
#
# Compressibility (1/GPa) = 0.02302914
#
# Stress axis : x y z
#
# Youngs Moduli (GPa) = 35.60168 113.76948 73.08855
#
# Poissons Ratio (x) = 0.15361 0.58175
# Poissons Ratio (y) = 0.04807 0.32567
# Poissons Ratio (z) = 0.28337 0.50694
#
# Static dielectric constant tensor:
#      x y z
#    x 2.896380 0.000000 0.000000 
#    y 0.000000 3.736550 0.000000 
#    z 0.000000 0.000000 3.901590 
# 
# 
# High freq. dielectric constant tensor:
#      x y z
#    x 1.658050 0.000000 0.000000 
#    y 0.000000 1.751110 0.000000 
#    z 0.000000 0.000000 1.755460 
# 
# From -- ./inp_files/19658.got.cif
#   From: 2010.03.12/outbox.cif.g09.slc.cpg/sg67_10_cif.got.tgz:19658.got - 2010.04.10 22:41:39.
