data_PCOD8278376
_publ_section_title
;
Structure prediction by ZEFSAII (Michael W. Deem and Ramdas Pophale) SiO2 
 PCOD8278376
Probable space group: C M M A
;
_chemical_formula_sum "Si O2"
_cell_formula_units_Z 96
_cell_length_a 25.841949
_cell_length_b 17.636784
_cell_length_c 12.942045
_cell_angle_alpha 90.000000
_cell_angle_beta 90.000000
_cell_angle_gamma 90.000000
_cell_volume 5898.581259
_symmetry_space_group_name_H-M "C M M A"
_symmetry_group_IT_number 67
_symmetry_cell_setting 'orthorhombic'
loop_
_space_group_symop_operation_xyz
x,y,z
-x,1/2-y,z
x,-y,-z
-x,1/2+y,-z
-x,-y,-z
x,1/2+y,-z
-x,y,z
x,1/2-y,z
1/2+x,1/2+y,z
1/2-x,-y,z
1/2+x,1/2-y,-z
1/2-x,y,-z
1/2-x,1/2-y,-z
1/2+x,y,-z
1/2-x,1/2+y,z
1/2+x,-y,z
loop_
_atom_site_type_symbol
_atom_site_label
_atom_site_fract_x
_atom_site_fract_y
_atom_site_fract_z
Si Si1 0.559132 0.957837 0.276860
Si Si2 0.558644 0.836992 0.446926
Si Si3 0.710823 0.063392 0.253740
Si Si4 0.222664 0.337220 0.109355
Si Si5 0.373708 0.061790 0.416120
Si Si6 0.140887 0.535328 0.890878
O O1 0.500000 0.977949 0.254347
O O2 0.565661 0.879600 0.338634
O O3 0.587652 0.949331 0.168212
O O4 0.583001 0.025780 0.342996
O O5 0.500000 0.849326 0.488519
O O6 0.570854 0.750000 0.425116
O O7 0.599851 0.866135 0.530515
O O8 0.740963 0.134084 0.203343
O O9 0.675428 0.090560 0.349650
O O10 0.750000 0.000000 0.297265
O O11 0.676609 0.025975 0.164827
O O12 0.208957 0.250000 0.131702
O O13 0.169988 0.384535 0.102608
O O14 0.250000 0.347704 0.000000
O O15 0.354864 0.000000 0.500000
O O16 0.125971 0.500000 0.000000
#
# Coordination Sequence:
#
# PCOD8278376 Si02
#       6
#    16  16  16  16  16  16
#     4   9  18  31  48  71  96 122 157 198 235 277
#     4   9  17  30  49  71  96 128 161 194 235 281
#     4   9  18  30  48  70  96 128 157 195 239 280
#     4  10  19  31  49  71  94 122 158 197 237 282
#     4   9  17  30  48  71  97 127 162 197 232 275
#     4  10  18  31  50  69  93 123 157 194 237 283
#
# _framework density 16.275099999999998
#
# number of rings (size 3 to 8) (size 9 to 14) (size 15 to 20)
#    0.000    2.667    1.667    0.500    0.000    4.000 
#    0.000    0.000    0.000    0.000    0.000    9.333 
#    0.000    0.000    0.000    0.000    0.000    0.000 
#
# Total GULP energy -595161.248627 kJ/mol
# GULP energy per Si atom -12399.192680 kJ/mol
# Density = 1.623806 g / cm^3
# Si number density = 16.275100 Si / 1000 Ang^3
#
#
#
# Elastic Constant Matrix: (Units=GPa)
#
#
# Indices 1 2 3 4 5 6 
#
# 1 100.3063 42.8387 65.8674 0.0000 0.0000 0.0000
# 2 42.8387 87.5704 44.2153 0.0000 0.0000 0.0000
# 3 65.8674 44.2153 100.6979 0.0000 0.0000 0.0000
# 4 0.0000 0.0000 0.0000 14.9684 0.0000 0.0000
# 5 0.0000 0.0000 0.0000 0.0000 31.7252 0.0000
# 6 0.0000 0.0000 0.0000 0.0000 0.0000 19.8387
#
#
#
# Elastic Compliance Matrix: (Units=1/GPa)
#
#
# Indices 1 2 3 4 5 6 
#
# 1 0.018389 -0.003755 -0.010380 0.000000 0.000000 0.000000
# 2 -0.003755 0.015439 -0.004323 0.000000 0.000000 0.000000
# 3 -0.010380 -0.004323 0.018618 0.000000 0.000000 0.000000
# 4 0.000000 0.000000 0.000000 0.066807 0.000000 0.000000
# 5 0.000000 0.000000 0.000000 0.000000 0.031521 0.000000
# 6 0.000000 0.000000 0.000000 0.000000 0.000000 0.050407
#
#
# Mechanical properties :
#
#
# Convention : Reuss Voigt Hill
#
# Bulk Modulus (GPa) = 64.38660 66.04637 65.21648
# Shear Modulus (GPa) = 20.55302 22.35000 21.45151
#
# Velocity S-wave (km/s) = 3.55752 3.70978 3.63444
# Velocity P-wave (km/s) = 7.51810 7.68240 7.60069
#
# Compressibility (1/GPa) = 0.01553118
#
# Stress axis : x y z
#
# Youngs Moduli (GPa) = 54.37998 64.77112 53.71049
#
# Poissons Ratio (x) = 0.24321 0.55750
# Poissons Ratio (y) = 0.20419 0.23219
# Poissons Ratio (z) = 0.56445 0.28000
#
# Static dielectric constant tensor:
#      x y z
#    x 3.117640 0.000000 0.000000 
#    y 0.000000 2.945430 0.000000 
#    z 0.000000 0.000000 3.080900 
# 
# 
# High freq. dielectric constant tensor:
#      x y z
#    x 1.624960 0.000000 0.000000 
#    y 0.000000 1.614220 0.000000 
#    z 0.000000 0.000000 1.622980 
# 
# From -- ./inp_files/19647.got.cif
#   From: 2010.03.12/outbox.cif.g09.slc.cpg/sg67_10_cif.got.tgz:19647.got - 2010.04.10 22:41:39.
