data_PCOD8278217
_publ_section_title
;
Structure prediction by ZEFSAII (Michael W. Deem and Ramdas Pophale) SiO2 
 PCOD8278217
Probable space group: C M M A
;
_chemical_formula_sum "Si O2"
_cell_formula_units_Z 80
_cell_length_a 21.738020
_cell_length_b 9.688855
_cell_length_c 15.265688
_cell_angle_alpha 90.000000
_cell_angle_beta 90.000000
_cell_angle_gamma 90.000000
_cell_volume 3215.206139
_symmetry_space_group_name_H-M "C M M A"
_symmetry_group_IT_number 67
_symmetry_cell_setting 'orthorhombic'
loop_
_space_group_symop_operation_xyz
x,y,z
-x,1/2-y,z
x,-y,-z
-x,1/2+y,-z
-x,-y,-z
x,1/2+y,-z
-x,y,z
x,1/2-y,z
1/2+x,1/2+y,z
1/2-x,-y,z
1/2+x,1/2-y,-z
1/2-x,y,-z
1/2-x,1/2-y,-z
1/2+x,y,-z
1/2-x,1/2+y,z
1/2+x,-y,z
loop_
_atom_site_type_symbol
_atom_site_label
_atom_site_fract_x
_atom_site_fract_y
_atom_site_fract_z
Si Si1 0.109568 0.250000 0.858621
Si Si2 0.299361 0.250000 0.782483
Si Si3 0.070385 0.250000 0.671265
Si Si4 0.666274 0.026487 0.903614
Si Si5 0.436011 0.750000 0.285095
Si Si6 0.793723 0.750000 0.585298
Si Si7 0.930561 0.250000 0.049698
Si Si8 0.896638 0.026470 0.405999
O O1 0.065045 0.250000 0.775765
O O2 0.153617 0.383433 0.854557
O O3 0.068253 0.250000 0.944716
O O4 0.285760 0.385696 0.842415
O O5 0.374343 0.250000 0.771081
O O6 0.265765 0.250000 0.686566
O O7 0.111516 0.378657 0.639545
O O8 0.000000 0.250000 0.634346
O O9 0.603018 0.112075 0.916130
O O10 0.695597 0.000000 0.000000
O O11 0.500000 0.750000 0.228651
O O12 0.441136 0.615916 0.346171
O O13 0.750000 0.750000 0.500000
O O14 0.832560 0.608852 0.579983
O O15 0.000000 0.250000 0.083993
O O16 0.927626 0.000000 0.500000
#
# Coordination Sequence:
#
# PCOD8278217 Si02
#       8
#     8   8   8  16   8   8   8  16
#     4  10  18  29  43  68 105 146 204 265 303 352
#     4   9  18  35  53  78 116 156 212 268 308 381
#     4  12  23  33  53  85 120 162 205 256 322 378
#     4   9  18  30  47  70 104 155 205 255 319 375
#     4  10  20  34  54  78 113 173 226 261 312 373
#     4  10  22  42  66  86 111 161 213 267 341 403
#     4   9  18  29  40  59  96 152 210 257 305 361
#     4  10  22  39  57  82 116 153 201 264 318 387
#
# _framework density 24.881764
#
# number of rings (size 3 to 8) (size 9 to 14) (size 15 to 20)
#    0.000    2.400    0.000    5.100    0.000    8.800 
#    0.000    0.500    0.000    0.000    0.000    0.000 
#    0.000    0.000    0.000  237.600    0.000    6.200 
#
# Total GULP energy -495530.612850 kJ/mol
# GULP energy per Si atom -12388.265321 kJ/mol
# Density = 2.482513 g / cm^3
# Si number density = 24.881764 Si / 1000 Ang^3
#
#
#
# Elastic Constant Matrix: (Units=GPa)
#
#
# Indices 1 2 3 4 5 6 
#
# 1 82.4813 22.5582 10.5542 0.0000 0.0000 0.0000
# 2 22.5582 211.7862 59.5410 0.0000 0.0000 0.0000
# 3 10.5542 59.5410 201.5109 0.0000 0.0000 0.0000
# 4 0.0000 0.0000 0.0000 30.5053 0.0000 0.0000
# 5 0.0000 0.0000 0.0000 0.0000 7.2574 0.0000
# 6 0.0000 0.0000 0.0000 0.0000 0.0000 5.5092
#
#
#
# Elastic Compliance Matrix: (Units=1/GPa)
#
#
# Indices 1 2 3 4 5 6 
#
# 1 0.012503 -0.001252 -0.000285 0.000000 0.000000 0.000000
# 2 -0.001252 0.005275 -0.001493 0.000000 0.000000 0.000000
# 3 -0.000285 -0.001493 0.005419 0.000000 0.000000 0.000000
# 4 0.000000 0.000000 0.000000 0.032781 0.000000 0.000000
# 5 0.000000 0.000000 0.000000 0.000000 0.137790 0.000000
# 6 0.000000 0.000000 0.000000 0.000000 0.000000 0.181515
#
#
# Mechanical properties :
#
#
# Convention : Reuss Voigt Hill
#
# Bulk Modulus (GPa) = 58.35371 75.67614 67.01492
# Shear Modulus (GPa) = 12.91810 35.52939 24.22375
#
# Velocity S-wave (km/s) = 2.28102 3.78289 3.12357
# Velocity P-wave (km/s) = 5.51731 7.03994 6.32461
#
# Compressibility (1/GPa) = 0.01713687
#
# Stress axis : x y z
#
# Youngs Moduli (GPa) = 79.98251 189.58085 184.55016
#
# Poissons Ratio (x) = 0.23728 0.05260
# Poissons Ratio (y) = 0.10010 0.27553
# Poissons Ratio (z) = 0.02280 0.28305
#
# Static dielectric constant tensor:
#      x y z
#    x 3.779040 0.000000 0.000000 
#    y 0.000000 4.691240 0.000000 
#    z 0.000000 0.000000 4.923860 
# 
# 
# High freq. dielectric constant tensor:
#      x y z
#    x 1.949900 0.000000 0.000000 
#    y 0.000000 2.005570 0.000000 
#    z 0.000000 0.000000 2.014840 
# 
# From -- ./inp_files/35840.got.cif
#   From: 2010.03.12/outbox.cif.g09.slc.cpg/sg67_18_cif.got.tgz:35840.got - 2010.04.10 22:41:39.
