data_PCOD8278541
_publ_section_title
;
Structure prediction by ZEFSAII (Michael W. Deem and Ramdas Pophale) SiO2 
 PCOD8278541
Probable space group: C M M A
;
_chemical_formula_sum "Si O2"
_cell_formula_units_Z 96
_cell_length_a 15.612979
_cell_length_b 18.782143
_cell_length_c 15.137592
_cell_angle_alpha 90.000000
_cell_angle_beta 90.000000
_cell_angle_gamma 90.000000
_cell_volume 4439.026258
_symmetry_space_group_name_H-M "C M M A"
_symmetry_group_IT_number 67
_symmetry_cell_setting 'orthorhombic'
loop_
_space_group_symop_operation_xyz
x,y,z
-x,1/2-y,z
x,-y,-z
-x,1/2+y,-z
-x,-y,-z
x,1/2+y,-z
-x,y,z
x,1/2-y,z
1/2+x,1/2+y,z
1/2-x,-y,z
1/2+x,1/2-y,-z
1/2-x,y,-z
1/2-x,1/2-y,-z
1/2+x,y,-z
1/2-x,1/2+y,z
1/2+x,-y,z
loop_
_atom_site_type_symbol
_atom_site_label
_atom_site_fract_x
_atom_site_fract_y
_atom_site_fract_z
Si Si1 0.404213 0.406277 0.222020
Si Si2 0.899482 0.666978 0.856608
Si Si3 0.398228 0.329194 0.053802
Si Si4 0.897708 0.669266 0.393545
Si Si5 0.165192 0.546667 0.736119
Si Si6 0.903404 0.926157 0.550214
O O1 0.500000 0.375820 0.219021
O O2 0.360665 0.382195 0.129214
O O3 0.357807 0.370473 0.307401
O O4 0.408656 0.491464 0.234000
O O5 0.883156 0.750000 0.834555
O O6 0.841119 0.618150 0.793526
O O7 0.000000 0.649289 0.843574
O O8 0.866860 0.649204 0.955915
O O9 0.500000 0.330730 0.049560
O O10 0.365882 0.250000 0.077792
O O11 0.865875 0.750000 0.392544
O O12 0.864726 0.632769 0.483637
O O13 0.000000 0.662135 0.391666
O O14 0.250000 0.500000 0.753956
O O15 0.157903 0.569828 0.634497
O O16 0.000000 0.906310 0.580923
O O17 0.904475 0.000000 0.500000
#
# Coordination Sequence:
#
# PCOD8278541 Si02
#       6
#    16  16  16  16  16  16
#     4  10  18  33  57  85 116 150 192 243 297 356
#     4   9  19  39  65  90 117 154 205 256 296 347
#     4   8  15  30  57  90 118 147 189 245 301 345
#     4   9  17  30  54  87 114 140 183 239 292 348
#     4  12  25  38  55  83 119 159 195 243 304 364
#     4  10  19  36  59  81 108 145 192 240 293 355
#
# _framework density 21.626363999999999
#
# number of rings (size 3 to 8) (size 9 to 14) (size 15 to 20)
#    0.000    2.333    1.667    3.000    0.000    3.667 
#    0.000    7.500    0.000    3.000    0.000    0.000 
#    0.000    0.000    0.000    0.000    0.000    0.000 
#
# Total GULP energy -594939.924798 kJ/mol
# GULP energy per Si atom -12394.581767 kJ/mol
# Density = 2.157714 g / cm^3
# Si number density = 21.626364 Si / 1000 Ang^3
#
#
#
# Elastic Constant Matrix: (Units=GPa)
#
#
# Indices 1 2 3 4 5 6 
#
# 1 34.6422 15.2437 29.8978 0.0000 0.0000 0.0000
# 2 15.2437 136.8502 88.7184 0.0000 0.0000 0.0000
# 3 29.8978 88.7184 184.9394 0.0000 0.0000 0.0000
# 4 0.0000 0.0000 0.0000 43.9536 0.0000 0.0000
# 5 0.0000 0.0000 0.0000 0.0000 6.6305 0.0000
# 6 0.0000 0.0000 0.0000 0.0000 0.0000 20.8755
#
#
#
# Elastic Compliance Matrix: (Units=1/GPa)
#
#
# Indices 1 2 3 4 5 6 
#
# 1 0.033557 -0.000321 -0.005271 0.000000 0.000000 0.000000
# 2 -0.000321 0.010609 -0.005037 0.000000 0.000000 0.000000
# 3 -0.005271 -0.005037 0.008676 0.000000 0.000000 0.000000
# 4 0.000000 0.000000 0.000000 0.022751 0.000000 0.000000
# 5 0.000000 0.000000 0.000000 0.000000 0.150818 0.000000
# 6 0.000000 0.000000 0.000000 0.000000 0.000000 0.047903
#
#
# Mechanical properties :
#
#
# Convention : Reuss Voigt Hill
#
# Bulk Modulus (GPa) = 31.66249 69.35017 50.50633
# Shear Modulus (GPa) = 16.33460 29.13006 22.73233
#
# Velocity S-wave (km/s) = 2.75127 3.67409 3.24565
# Velocity P-wave (km/s) = 4.97646 7.08065 6.11967
#
# Compressibility (1/GPa) = 0.03158311
#
# Stress axis : x y z
#
# Youngs Moduli (GPa) = 29.80021 94.26334 115.26374
#
# Poissons Ratio (x) = 0.03023 0.60756
# Poissons Ratio (y) = 0.00956 0.58061
# Poissons Ratio (z) = 0.15708 0.47483
#
# Static dielectric constant tensor:
#      x y z
#    x 3.420350 0.000000 0.000000 
#    y 0.000000 3.975220 0.000000 
#    z 0.000000 0.000000 4.202910 
# 
# 
# High freq. dielectric constant tensor:
#      x y z
#    x 1.805590 0.000000 0.000000 
#    y 0.000000 1.845050 0.000000 
#    z 0.000000 0.000000 1.861310 
# 
# From -- ./inp_files/27159.got.cif
#   From: 2010.03.12/outbox.cif.g09.slc.cpg/sg67_14_cif.got.tgz:27159.got - 2010.04.10 22:41:39.
