data_PCOD8278807
_publ_section_title
;
Structure prediction by ZEFSAII (Michael W. Deem and Ramdas Pophale) SiO2 
 PCOD8278807
Probable space group: C M M A
;
_chemical_formula_sum "Si O2"
_cell_formula_units_Z 72
_cell_length_a 9.243637
_cell_length_b 26.236486
_cell_length_c 16.261928
_cell_angle_alpha 90.000000
_cell_angle_beta 90.000000
_cell_angle_gamma 90.000000
_cell_volume 3943.851767
_symmetry_space_group_name_H-M "C M M A"
_symmetry_group_IT_number 67
_symmetry_cell_setting 'orthorhombic'
loop_
_space_group_symop_operation_xyz
x,y,z
-x,1/2-y,z
x,-y,-z
-x,1/2+y,-z
-x,-y,-z
x,1/2+y,-z
-x,y,z
x,1/2-y,z
1/2+x,1/2+y,z
1/2-x,-y,z
1/2+x,1/2-y,-z
1/2-x,y,-z
1/2-x,1/2-y,-z
1/2+x,y,-z
1/2-x,1/2+y,z
1/2+x,-y,z
loop_
_atom_site_type_symbol
_atom_site_label
_atom_site_fract_x
_atom_site_fract_y
_atom_site_fract_z
Si Si1 0.830948 0.101103 0.250395
Si Si2 0.336532 0.194575 0.651294
Si Si3 0.838982 0.046346 0.614571
Si Si4 0.250000 0.631607 0.500000
Si Si5 0.170995 0.447128 0.080496
O O1 0.771661 0.156932 0.278618
O O2 0.742631 0.059080 0.300639
O O3 0.804766 0.093166 0.153723
O O4 0.000000 0.095436 0.273548
O O5 0.500000 0.205193 0.675163
O O6 0.255342 0.250000 0.650665
O O7 0.335992 0.168090 0.561874
O O8 0.852535 0.094620 0.553423
O O9 0.000000 0.027744 0.635625
O O10 0.750000 0.000000 0.572933
O O11 0.250000 0.500000 0.102978
O O12 0.000000 0.456399 0.064759
O O13 0.250000 0.423946 0.000000
#
# Coordination Sequence:
#
# PCOD8278807 Si02
#       5
#    16  16  16   8  16
#     4   9  19  34  51  73 100 129 163 200 241 290
#     4   9  17  31  51  71  92 122 162 206 246 286
#     4  11  22  33  48  69  97 133 168 203 243 290
#     4  10  20  32  46  68  98 126 164 204 248 292
#     4  10  19  31  49  74 102 130 159 192 232 282
#
# _framework density 18.256264999999999
#
# number of rings (size 3 to 8) (size 9 to 14) (size 15 to 20)
#    0.000    2.222    0.000    4.000    0.000    7.111 
#    0.000    0.000    0.000    6.667    0.000    0.000 
#    0.000    0.000    0.000    0.000    0.000    0.889 
#
# Total GULP energy -446066.689295 kJ/mol
# GULP energy per Si atom -12390.741369 kJ/mol
# Density = 1.821471 g / cm^3
# Si number density = 18.256265 Si / 1000 Ang^3
#
#
#
# Elastic Constant Matrix: (Units=GPa)
#
#
# Indices 1 2 3 4 5 6 
#
# 1 96.6980 37.4861 36.1499 0.0000 0.0000 0.0000
# 2 37.4861 123.8059 62.5236 0.0000 0.0000 0.0000
# 3 36.1499 62.5236 131.6912 0.0000 0.0000 0.0000
# 4 0.0000 0.0000 0.0000 14.2981 0.0000 0.0000
# 5 0.0000 0.0000 0.0000 0.0000 20.9690 0.0000
# 6 0.0000 0.0000 0.0000 0.0000 0.0000 15.0605
#
#
#
# Elastic Compliance Matrix: (Units=1/GPa)
#
#
# Indices 1 2 3 4 5 6 
#
# 1 0.012138 -0.002621 -0.002088 0.000000 0.000000 0.000000
# 2 -0.002621 0.011191 -0.004594 0.000000 0.000000 0.000000
# 3 -0.002088 -0.004594 0.010347 0.000000 0.000000 0.000000
# 4 0.000000 0.000000 0.000000 0.069939 0.000000 0.000000
# 5 0.000000 0.000000 0.000000 0.000000 0.047690 0.000000
# 6 0.000000 0.000000 0.000000 0.000000 0.000000 0.066399
#
#
# Mechanical properties :
#
#
# Convention : Reuss Voigt Hill
#
# Bulk Modulus (GPa) = 66.34862 69.39050 67.86956
# Shear Modulus (GPa) = 20.71836 24.46786 22.59311
#
# Velocity S-wave (km/s) = 3.37243 3.66491 3.52171
# Velocity P-wave (km/s) = 7.18235 7.48334 7.33439
#
# Compressibility (1/GPa) = 0.01507190
#
# Stress axis : x y z
#
# Youngs Moduli (GPa) = 82.38636 89.36150 96.64207
#
# Poissons Ratio (x) = 0.23421 0.20175
# Poissons Ratio (y) = 0.21592 0.44393
# Poissons Ratio (z) = 0.17199 0.41048
#
# Static dielectric constant tensor:
#      x y z
#    x 3.205470 0.000000 0.000000 
#    y 0.000000 3.748310 0.000000 
#    z 0.000000 0.000000 3.329530 
# 
# 
# High freq. dielectric constant tensor:
#      x y z
#    x 1.692780 0.000000 0.000000 
#    y 0.000000 1.700000 0.000000 
#    z 0.000000 0.000000 1.699390 
# 
# From -- ./inp_files/32056.got.cif
#   From: 2010.03.12/outbox.cif.g09.slc.cpg/sg67_17_cif.got.tgz:32056.got - 2010.04.10 22:41:39.
