data_PCOD8278042
_publ_section_title
;
Structure prediction by ZEFSAII (Michael W. Deem and Ramdas Pophale) SiO2 
 PCOD8278042
Probable space group: C M M A
;
_chemical_formula_sum "Si O2"
_cell_formula_units_Z 104
_cell_length_a 26.605093
_cell_length_b 8.823531
_cell_length_c 24.802134
_cell_angle_alpha 90.000000
_cell_angle_beta 90.000000
_cell_angle_gamma 90.000000
_cell_volume 5822.322357
_symmetry_space_group_name_H-M "C M M A"
_symmetry_group_IT_number 67
_symmetry_cell_setting 'orthorhombic'
loop_
_space_group_symop_operation_xyz
x,y,z
-x,1/2-y,z
x,-y,-z
-x,1/2+y,-z
-x,-y,-z
x,1/2+y,-z
-x,y,z
x,1/2-y,z
1/2+x,1/2+y,z
1/2-x,-y,z
1/2+x,1/2-y,-z
1/2-x,y,-z
1/2-x,1/2-y,-z
1/2+x,y,-z
1/2-x,1/2+y,z
1/2+x,-y,z
loop_
_atom_site_type_symbol
_atom_site_label
_atom_site_fract_x
_atom_site_fract_y
_atom_site_fract_z
Si Si1 0.595025 0.427649 0.383459
Si Si2 0.500000 0.070337 0.558445
Si Si3 0.056549 0.073529 0.730133
Si Si4 0.442169 0.415239 0.834169
Si Si5 0.798341 0.430548 0.940568
Si Si6 0.898570 0.929036 0.942551
Si Si7 0.697913 0.930036 0.558375
O O1 0.585063 0.250000 0.393297
O O2 0.550983 0.518440 0.412675
O O3 0.592264 0.469370 0.320049
O O4 0.650478 0.474573 0.404129
O O5 0.500000 0.250000 0.554791
O O6 0.500000 0.000000 0.500000
O O7 0.053146 0.250000 0.738141
O O8 0.000000 0.009961 0.719184
O O9 0.081890 0.012431 0.785653
O O10 0.500000 0.406848 0.820032
O O11 0.416448 0.250000 0.832108
O O12 0.438017 0.474234 0.895913
O O13 0.796802 0.250000 0.941243
O O14 0.750000 0.500000 0.909215
O O15 0.849203 0.495140 0.915543
O O16 0.798207 0.500000 0.000000
O O17 0.892009 0.750000 0.951883
O O18 0.914643 0.000000 0.000000
O O19 0.704041 0.750000 0.553677
O O20 0.687148 0.000000 0.500000
O O21 0.750000 0.000000 0.582121
#
# Coordination Sequence:
#
# PCOD8278042 Si02
#       7
#    16   8  16  16  16  16  16
#     4  10  20  36  55  77 107 140 175 219 266 312
#     4  12  24  34  50  78 112 146 173 210 261 314
#     4   9  17  32  54  75  98 128 166 211 255 305
#     4   9  19  34  50  70  99 131 166 209 252 296
#     4  10  17  27  44  66  92 120 152 189 232 289
#     4  10  19  31  47  69  98 129 162 204 251 300
#     4  10  20  34  54  76 105 142 180 222 261 307
#
# _framework density 17.862287999999999
#
# number of rings (size 3 to 8) (size 9 to 14) (size 15 to 20)
#    0.000    2.154    0.769    5.308    0.000    4.615 
#    0.000    0.000    0.000    0.923    0.000    4.308 
#    0.000    0.000    0.000    0.000    0.000    0.000 
#
# Total GULP energy -644211.624038 kJ/mol
# GULP energy per Si atom -12388.685078 kJ/mol
# Density = 1.782163 g / cm^3
# Si number density = 17.862288 Si / 1000 Ang^3
#
#
#
# Elastic Constant Matrix: (Units=GPa)
#
#
# Indices 1 2 3 4 5 6 
#
# 1 94.2665 45.2693 58.4267 0.0000 0.0000 0.0000
# 2 45.2693 99.9688 53.6451 0.0000 0.0000 0.0000
# 3 58.4267 53.6451 138.2302 0.0000 0.0000 0.0000
# 4 0.0000 0.0000 0.0000 24.4723 0.0000 0.0000
# 5 0.0000 0.0000 0.0000 0.0000 17.5457 0.0000
# 6 0.0000 0.0000 0.0000 0.0000 0.0000 22.8496
#
#
#
# Elastic Compliance Matrix: (Units=1/GPa)
#
#
# Indices 1 2 3 4 5 6 
#
# 1 0.015843 -0.004523 -0.004941 0.000000 0.000000 0.000000
# 2 -0.004523 0.013925 -0.003493 0.000000 0.000000 0.000000
# 3 -0.004941 -0.003493 0.010678 0.000000 0.000000 0.000000
# 4 0.000000 0.000000 0.000000 0.040863 0.000000 0.000000
# 5 0.000000 0.000000 0.000000 0.000000 0.056994 0.000000
# 6 0.000000 0.000000 0.000000 0.000000 0.000000 0.043764
#
#
# Mechanical properties :
#
#
# Convention : Reuss Voigt Hill
#
# Bulk Modulus (GPa) = 68.80665 71.90530 70.35597
# Shear Modulus (GPa) = 23.49355 24.64847 24.07101
#
# Velocity S-wave (km/s) = 3.63059 3.71875 3.67493
# Velocity P-wave (km/s) = 7.49527 7.66692 7.58158
#
# Compressibility (1/GPa) = 0.01453348
#
# Stress axis : x y z
#
# Youngs Moduli (GPa) = 63.12079 71.81175 93.64819
#
# Poissons Ratio (x) = 0.32477 0.46273
# Poissons Ratio (y) = 0.28547 0.32708
# Poissons Ratio (z) = 0.31189 0.25081
#
# Static dielectric constant tensor:
#      x y z
#    x 4.787600 0.000000 0.000000 
#    y 0.000000 3.447070 0.000000 
#    z 0.000000 0.000000 3.030090 
# 
# 
# High freq. dielectric constant tensor:
#      x y z
#    x 1.680740 0.000000 0.000000 
#    y 0.000000 1.697590 0.000000 
#    z 0.000000 0.000000 1.675910 
# 
# From -- ./inp_files/42948.got.cif
#   From: 2010.03.12/outbox.cif.g09.slc.cpg/sg67_22_cif.got.tgz:42948.got - 2010.04.10 22:41:39.
