data_PCOD8278114
_publ_section_title
;
Structure prediction by ZEFSAII (Michael W. Deem and Ramdas Pophale) SiO2 
 PCOD8278114
Probable space group: C M M A
;
_chemical_formula_sum "Si O2"
_cell_formula_units_Z 80
_cell_length_a 18.101982
_cell_length_b 8.605346
_cell_length_c 25.997706
_cell_angle_alpha 90.000000
_cell_angle_beta 90.000000
_cell_angle_gamma 90.000000
_cell_volume 4049.761933
_symmetry_space_group_name_H-M "C M M A"
_symmetry_group_IT_number 67
_symmetry_cell_setting 'orthorhombic'
loop_
_space_group_symop_operation_xyz
x,y,z
-x,1/2-y,z
x,-y,-z
-x,1/2+y,-z
-x,-y,-z
x,1/2+y,-z
-x,y,z
x,1/2-y,z
1/2+x,1/2+y,z
1/2-x,-y,z
1/2+x,1/2-y,-z
1/2-x,y,-z
1/2-x,1/2-y,-z
1/2+x,y,-z
1/2-x,1/2+y,z
1/2+x,-y,z
loop_
_atom_site_type_symbol
_atom_site_label
_atom_site_fract_x
_atom_site_fract_y
_atom_site_fract_z
Si Si1 0.083464 0.433476 0.946676
Si Si2 0.087183 0.572066 0.749855
Si Si3 0.667673 0.066173 0.551384
Si Si4 0.669056 0.932460 0.655556
Si Si5 0.831336 0.065373 0.846246
O O1 0.083792 0.250000 0.949902
O O2 0.135644 0.491487 0.900647
O O3 0.000000 0.495495 0.937426
O O4 0.115593 0.500000 0.000000
O O5 0.112924 0.750000 0.743033
O O6 0.117055 0.469869 0.703159
O O7 0.117160 0.504665 0.802700
O O8 0.000000 0.556931 0.750950
O O9 0.667420 0.250000 0.549374
O O10 0.626986 0.000000 0.500000
O O11 0.750000 0.000000 0.552195
O O12 0.630888 0.006748 0.604385
O O13 0.676125 0.750000 0.647503
O O14 0.750000 0.000000 0.666503
O O15 0.830645 0.250000 0.841404
O O16 0.750000 0.000000 0.839676
#
# Coordination Sequence:
#
# PCOD8278114 Si02
#       5
#    16  16  16  16  16
#     4   9  19  36  58  83 112 148 188 229 274 326
#     4  11  24  41  60  82 109 143 184 229 279 336
#     4  10  17  28  47  75 110 145 184 227 275 327
#     4  11  21  35  56  82 113 147 185 229 278 329
#     4  11  23  39  59  84 115 148 186 231 279 330
#
# _framework density 19.754248
#
# number of rings (size 3 to 8) (size 9 to 14) (size 15 to 20)
#    0.000    1.600    0.000    7.800    0.000    4.400 
#    0.000    4.000    0.000    0.600    0.000    0.000 
#    0.000    0.000    0.000    0.000    0.000    0.000 
#
# Total GULP energy -496045.063504 kJ/mol
# GULP energy per Si atom -12401.126588 kJ/mol
# Density = 1.970929 g / cm^3
# Si number density = 19.754248 Si / 1000 Ang^3
#
#
#
# Elastic Constant Matrix: (Units=GPa)
#
#
# Indices 1 2 3 4 5 6 
#
# 1 52.3029 32.8410 38.0853 0.0000 0.0000 0.0000
# 2 32.8410 135.0060 53.5522 0.0000 0.0000 0.0000
# 3 38.0853 53.5522 161.0300 0.0000 0.0000 0.0000
# 4 0.0000 0.0000 0.0000 49.2204 0.0000 0.0000
# 5 0.0000 0.0000 0.0000 0.0000 -30.3489 0.0000
# 6 0.0000 0.0000 0.0000 0.0000 0.0000 22.0348
#
#
#
# Elastic Compliance Matrix: (Units=1/GPa)
#
#
# Indices 1 2 3 4 5 6 
#
# 1 0.025112 -0.004323 -0.004502 0.000000 0.000000 0.000000
# 2 -0.004323 0.009277 -0.002063 0.000000 0.000000 0.000000
# 3 -0.004502 -0.002063 0.007961 0.000000 0.000000 0.000000
# 4 0.000000 0.000000 0.000000 0.020317 0.000000 0.000000
# 5 0.000000 0.000000 0.000000 0.000000 -0.032950 0.000000
# 6 0.000000 0.000000 0.000000 0.000000 0.000000 0.045383
#
#
# Mechanical properties :
#
#
# Convention : Reuss Voigt Hill
#
# Bulk Modulus (GPa) = 48.60313 66.36621 57.48467
# Shear Modulus (GPa) = 48.20157 23.10530 35.65344
#
# Velocity S-wave (km/s) = 4.94506 3.42371 4.25296
# Velocity P-wave (km/s) = 7.56717 7.02124 7.29931
#
# Compressibility (1/GPa) = 0.02057480
#
# Stress axis : x y z
#
# Youngs Moduli (GPa) = 39.82219 107.79507 125.61780
#
# Poissons Ratio (x) = 0.46599 0.56547
# Poissons Ratio (y) = 0.17215 0.25911
# Poissons Ratio (z) = 0.17926 0.22235
#
# Static dielectric constant tensor:
#      x y z
#    x 3.336120 0.000000 0.000000 
#    y 0.000000 3.706740 0.000000 
#    z 0.000000 0.000000 4.456620 
# 
# 
# High freq. dielectric constant tensor:
#      x y z
#    x 1.736910 0.000000 0.000000 
#    y 0.000000 1.783760 0.000000 
#    z 0.000000 0.000000 1.797700 
# 
# From -- ./inp_files/44417.got.cif
#   From: 2010.03.12/outbox.cif.g09.slc.cpg/sg67_23_cif.got.tgz:44417.got - 2010.04.10 22:41:39.
