data_PCOD8278867
_publ_section_title
;
Structure prediction by ZEFSAII (Michael W. Deem and Ramdas Pophale) SiO2 
 PCOD8278867
Probable space group: C M M A
;
_chemical_formula_sum "Si O2"
_cell_formula_units_Z 112
_cell_length_a 19.081646
_cell_length_b 25.062350
_cell_length_c 12.472198
_cell_angle_alpha 90.000000
_cell_angle_beta 90.000000
_cell_angle_gamma 90.000000
_cell_volume 5964.590358
_symmetry_space_group_name_H-M "C M M A"
_symmetry_group_IT_number 67
_symmetry_cell_setting 'orthorhombic'
loop_
_space_group_symop_operation_xyz
x,y,z
-x,1/2-y,z
x,-y,-z
-x,1/2+y,-z
-x,-y,-z
x,1/2+y,-z
-x,y,z
x,1/2-y,z
1/2+x,1/2+y,z
1/2-x,-y,z
1/2+x,1/2-y,-z
1/2-x,y,-z
1/2-x,1/2-y,-z
1/2+x,y,-z
1/2-x,1/2+y,z
1/2+x,-y,z
loop_
_atom_site_type_symbol
_atom_site_label
_atom_site_fract_x
_atom_site_fract_y
_atom_site_fract_z
Si Si1 0.417274 0.312086 0.708938
Si Si2 0.329571 0.887485 0.884017
Si Si3 0.169630 0.499285 0.790238
Si Si4 0.918350 0.649073 0.479963
Si Si5 0.577571 0.038061 0.401143
Si Si6 0.832468 0.115487 0.127870
Si Si7 0.581205 0.308750 0.256338
O O1 0.500000 0.323131 0.719100
O O2 0.400571 0.250000 0.725462
O O3 0.386948 0.329758 0.592293
O O4 0.377270 0.344904 0.799635
O O5 0.249648 0.873924 0.854401
O O6 0.376644 0.854633 0.802531
O O7 0.343447 0.950666 0.872201
O O8 0.350446 0.871875 0.004477
O O9 0.250000 0.500000 0.753332
O O10 0.123859 0.491867 0.685262
O O11 0.147659 0.554338 0.846731
O O12 0.885560 0.592597 0.442002
O O13 0.904201 0.690703 0.384207
O O14 0.000000 0.640271 0.500638
O O15 0.500000 0.050269 0.352505
O O16 0.569125 0.000000 0.500000
O O17 0.500000 0.319742 0.233160
O O18 0.603209 0.250000 0.214569
#
# Coordination Sequence:
#
# PCOD8278867 Si02
#       7
#    16  16  16  16  16  16  16
#     4  10  21  38  59  83 113 149 190 232 275 329
#     4  10  21  39  58  80 111 148 187 231 281 333
#     4  10  20  36  57  82 109 145 186 230 274 331
#     4   9  17  33  56  81 111 145 179 219 274 333
#     4  10  19  31  52  82 115 146 178 220 271 329
#     4  10  22  38  58  81 110 148 189 231 280 332
#     4  10  20  35  58  85 110 141 185 233 278 327
#
# _framework density 18.777484999999999
#
# number of rings (size 3 to 8) (size 9 to 14) (size 15 to 20)
#    0.000    2.143    1.429    1.714    0.000    7.143 
#    0.000    3.571    0.000    4.286    0.000    0.000 
#    0.000    0.000    0.000    0.000    0.000    0.000 
#
# Total GULP energy -694295.828202 kJ/mol
# GULP energy per Si atom -12398.139789 kJ/mol
# Density = 1.873475 g / cm^3
# Si number density = 18.777485 Si / 1000 Ang^3
#
#
#
# Elastic Constant Matrix: (Units=GPa)
#
#
# Indices 1 2 3 4 5 6 
#
# 1 59.6871 49.4653 54.6915 0.0000 0.0000 0.0000
# 2 49.4653 125.4338 55.3193 0.0000 0.0000 0.0000
# 3 54.6915 55.3193 123.8387 0.0000 0.0000 0.0000
# 4 0.0000 0.0000 0.0000 24.3339 0.0000 0.0000
# 5 0.0000 0.0000 0.0000 0.0000 87.4444 0.0000
# 6 0.0000 0.0000 0.0000 0.0000 0.0000 29.9239
#
#
#
# Elastic Compliance Matrix: (Units=1/GPa)
#
#
# Indices 1 2 3 4 5 6 
#
# 1 0.034117 -0.008480 -0.011279 0.000000 0.000000 0.000000
# 2 -0.008480 0.012036 -0.001632 0.000000 0.000000 0.000000
# 3 -0.011279 -0.001632 0.013785 0.000000 0.000000 0.000000
# 4 0.000000 0.000000 0.000000 0.041095 0.000000 0.000000
# 5 0.000000 0.000000 0.000000 0.000000 0.011436 0.000000
# 6 0.000000 0.000000 0.000000 0.000000 0.000000 0.033418
#
#
# Mechanical properties :
#
#
# Convention : Reuss Voigt Hill
#
# Bulk Modulus (GPa) = 58.28579 69.76797 64.02688
# Shear Modulus (GPa) = 25.72197 38.30600 32.01398
#
# Velocity S-wave (km/s) = 3.70514 4.52153 4.13354
# Velocity P-wave (km/s) = 7.02935 8.03086 7.54674
#
# Compressibility (1/GPa) = 0.01715684
#
# Stress axis : x y z
#
# Youngs Moduli (GPa) = 29.31118 83.08502 72.54179
#
# Poissons Ratio (x) = 0.70453 0.81822
# Poissons Ratio (y) = 0.24855 0.11836
# Poissons Ratio (z) = 0.33061 0.13556
#
# Static dielectric constant tensor:
#      x y z
#    x 3.299460 0.000000 0.000000 
#    y 0.000000 3.651100 0.000000 
#    z 0.000000 0.000000 3.460270 
# 
# 
# High freq. dielectric constant tensor:
#      x y z
#    x 1.703870 0.000000 0.000000 
#    y 0.000000 1.743470 0.000000 
#    z 0.000000 0.000000 1.732550 
# 
# From -- ./inp_files/21077.got.cif
#   From: 2010.03.12/outbox.cif.g09.slc.cpg/sg67_11_cif.got.tgz:21077.got - 2010.04.10 22:41:39.
