data_PCOD8278674
_publ_section_title
;
Structure prediction by ZEFSAII (Michael W. Deem and Ramdas Pophale) SiO2 
 PCOD8278674
Probable space group: C M M A
;
_chemical_formula_sum "Si O2"
_cell_formula_units_Z 96
_cell_length_a 16.630037
_cell_length_b 21.192537
_cell_length_c 14.113941
_cell_angle_alpha 90.000000
_cell_angle_beta 90.000000
_cell_angle_gamma 90.000000
_cell_volume 4974.213973
_symmetry_space_group_name_H-M "C M M A"
_symmetry_group_IT_number 67
_symmetry_cell_setting 'orthorhombic'
loop_
_space_group_symop_operation_xyz
x,y,z
-x,1/2-y,z
x,-y,-z
-x,1/2+y,-z
-x,-y,-z
x,1/2+y,-z
-x,y,z
x,1/2-y,z
1/2+x,1/2+y,z
1/2-x,-y,z
1/2+x,1/2-y,-z
1/2-x,y,-z
1/2-x,1/2-y,-z
1/2+x,y,-z
1/2-x,1/2+y,z
1/2+x,-y,z
loop_
_atom_site_type_symbol
_atom_site_label
_atom_site_fract_x
_atom_site_fract_y
_atom_site_fract_z
Si Si1 0.590136 0.988046 0.707581
Si Si2 0.149320 0.641339 0.322284
Si Si3 0.591162 0.319465 0.514620
Si Si4 0.594557 0.181100 0.128632
Si Si5 0.905079 0.956252 0.082155
Si Si6 0.797116 0.919271 0.597589
O O1 0.500000 0.017552 0.695780
O O2 0.584382 0.915378 0.675837
O O3 0.618676 0.987918 0.817500
O O4 0.657992 0.020157 0.641637
O O5 0.135266 0.684525 0.413436
O O6 0.140116 0.683295 0.228997
O O7 0.237756 0.610026 0.324676
O O8 0.500000 0.341374 0.501356
O O9 0.596629 0.250000 0.560567
O O10 0.633904 0.368073 0.583163
O O11 0.500000 0.175203 0.147993
O O12 0.613166 0.250000 0.078935
O O13 0.623856 0.117752 0.072483
O O14 0.000000 0.956602 0.070842
O O15 0.865693 0.000000 0.000000
O O16 0.750000 0.936750 0.500000
#
# Coordination Sequence:
#
# PCOD8278674 Si02
#       6
#    16  16  16  16  16  16
#     4  10  19  33  52  72  97 130 168 208 255 304
#     4  10  19  30  46  69  97 127 161 204 251 298
#     4  10  20  33  48  66  91 126 169 210 246 292
#     4   9  16  27  47  75 103 129 159 199 248 302
#     4   8  15  29  51  78 103 127 161 209 260 307
#     4  10  22  34  47  68  98 132 167 206 249 300
#
# _framework density 19.299531000000002
#
# number of rings (size 3 to 8) (size 9 to 14) (size 15 to 20)
#    0.000    2.500    0.000    4.000    0.000    9.667 
#    0.000    4.167    0.000    9.000    0.000    5.833 
#    0.000    0.000    0.000    0.000    0.000    0.000 
#
# Total GULP energy -594715.339791 kJ/mol
# GULP energy per Si atom -12389.902912 kJ/mol
# Density = 1.925560 g / cm^3
# Si number density = 19.299531 Si / 1000 Ang^3
#
#
#
# Elastic Constant Matrix: (Units=GPa)
#
#
# Indices 1 2 3 4 5 6 
#
# 1 62.1862 29.5826 13.8130 0.0000 0.0000 0.0000
# 2 29.5826 128.8385 47.6551 0.0000 0.0000 0.0000
# 3 13.8130 47.6551 66.7288 0.0000 0.0000 0.0000
# 4 0.0000 0.0000 0.0000 26.5382 0.0000 0.0000
# 5 0.0000 0.0000 0.0000 0.0000 17.0048 0.0000
# 6 0.0000 0.0000 0.0000 0.0000 0.0000 -4.7251
#
#
#
# Elastic Compliance Matrix: (Units=1/GPa)
#
#
# Indices 1 2 3 4 5 6 
#
# 1 0.018107 -0.003766 -0.001059 0.000000 0.000000 0.000000
# 2 -0.003766 0.011331 -0.007313 0.000000 0.000000 0.000000
# 3 -0.001059 -0.007313 0.020428 0.000000 0.000000 0.000000
# 4 0.000000 0.000000 0.000000 0.037682 0.000000 0.000000
# 5 0.000000 0.000000 0.000000 0.000000 0.058807 0.000000
# 6 0.000000 0.000000 0.000000 0.000000 0.000000 -0.211636
#
#
# Mechanical properties :
#
#
# Convention : Reuss Voigt Hill
#
# Bulk Modulus (GPa) = 39.07571 48.87274 43.97422
# Shear Modulus (GPa) = -153.96006 18.87712 -67.54147
#
# Velocity S-wave (km/s) = -8.94132 3.13087 -5.92220
# Velocity P-wave (km/s) = 9.29006 6.20065 4.89169
#
# Compressibility (1/GPa) = 0.02559135
#
# Stress axis : x y z
#
# Youngs Moduli (GPa) = 55.22595 88.25167 48.95320
#
# Poissons Ratio (x) = 0.33236 0.05183
# Poissons Ratio (y) = 0.20798 0.35798
# Poissons Ratio (z) = 0.05847 0.64536
#
# Static dielectric constant tensor:
#      x y z
#    x 3.371260 0.000000 0.000000 
#    y 0.000000 3.733610 0.000000 
#    z 0.000000 0.000000 3.391250 
# 
# 
# High freq. dielectric constant tensor:
#      x y z
#    x 1.735060 0.000000 0.000000 
#    y 0.000000 1.762230 0.000000 
#    z 0.000000 0.000000 1.711250 
# 
# From -- ./inp_files/27196.got.cif
#   From: 2010.03.12/outbox.cif.g09.slc.cpg/sg67_14_cif.got.tgz:27196.got - 2010.04.10 22:41:39.
