data_PCOD8278665
_publ_section_title
;
Structure prediction by ZEFSAII (Michael W. Deem and Ramdas Pophale) SiO2 
 PCOD8278665
Probable space group: C M M A
;
_chemical_formula_sum "Si O2"
_cell_formula_units_Z 72
_cell_length_a 8.670433
_cell_length_b 25.322869
_cell_length_c 19.558078
_cell_angle_alpha 90.000000
_cell_angle_beta 90.000000
_cell_angle_gamma 90.000000
_cell_volume 4294.176281
_symmetry_space_group_name_H-M "C M M A"
_symmetry_group_IT_number 67
_symmetry_cell_setting 'orthorhombic'
loop_
_space_group_symop_operation_xyz
x,y,z
-x,1/2-y,z
x,-y,-z
-x,1/2+y,-z
-x,-y,-z
x,1/2+y,-z
-x,y,z
x,1/2-y,z
1/2+x,1/2+y,z
1/2-x,-y,z
1/2+x,1/2-y,-z
1/2-x,y,-z
1/2-x,1/2-y,-z
1/2+x,y,-z
1/2-x,1/2+y,z
1/2+x,-y,z
loop_
_atom_site_type_symbol
_atom_site_label
_atom_site_fract_x
_atom_site_fract_y
_atom_site_fract_z
Si Si1 0.182220 0.556780 0.427974
Si Si2 0.820424 0.311524 0.791236
Si Si3 0.318649 0.352092 0.657494
Si Si4 0.326596 0.687203 0.068653
Si Si5 0.317844 0.250000 0.574901
O O1 0.250000 0.500000 0.408581
O O2 0.250000 0.577186 0.500000
O O3 0.228346 0.596947 0.368720
O O4 0.000000 0.552541 0.434540
O O5 0.779361 0.250000 0.782874
O O6 0.722019 0.344289 0.736680
O O7 0.771836 0.331806 0.866188
O O8 0.000000 0.322356 0.780040
O O9 0.500000 0.360880 0.648779
O O10 0.259027 0.301484 0.615072
O O11 0.500000 0.665302 0.075046
O O12 0.327063 0.750000 0.064589
O O13 0.250000 0.663659 0.000000
O O14 0.500000 0.250000 0.570135
O O15 0.250000 0.250000 0.500000
#
# Coordination Sequence:
#
# PCOD8278665 Si02
#       5
#    16  16  16  16   8
#     4  11  22  38  57  77  97 125 162 207 255 301
#     4  10  19  30  45  67  96 131 167 203 244 293
#     4  11  21  35  51  72  99 132 166 204 248 297
#     4   9  16  26  41  61  88 124 164 204 241 285
#     4  10  22  34  48  68  95 128 163 198 240 290
#
# _framework density 16.766895000000002
#
# number of rings (size 3 to 8) (size 9 to 14) (size 15 to 20)
#    0.000    1.778    1.111    5.333    0.000    7.111 
#    0.000    0.000    0.000    0.000    0.000    0.000 
#    0.000    0.889    0.000    8.889    0.000    5.778 
#
# Total GULP energy -446536.278351 kJ/mol
# GULP energy per Si atom -12403.785510 kJ/mol
# Density = 1.672873 g / cm^3
# Si number density = 16.766895 Si / 1000 Ang^3
#
#
#
# Elastic Constant Matrix: (Units=GPa)
#
#
# Indices 1 2 3 4 5 6 
#
# 1 98.5575 30.8807 33.3525 0.0000 0.0000 0.0000
# 2 30.8807 59.8250 41.6812 0.0000 0.0000 0.0000
# 3 33.3525 41.6812 125.3625 0.0000 0.0000 0.0000
# 4 0.0000 0.0000 0.0000 12.5791 0.0000 0.0000
# 5 0.0000 0.0000 0.0000 0.0000 35.6682 0.0000
# 6 0.0000 0.0000 0.0000 0.0000 0.0000 20.5403
#
#
#
# Elastic Compliance Matrix: (Units=1/GPa)
#
#
# Indices 1 2 3 4 5 6 
#
# 1 0.012321 -0.005305 -0.001514 0.000000 0.000000 0.000000
# 2 -0.005305 0.024039 -0.006581 0.000000 0.000000 0.000000
# 3 -0.001514 -0.006581 0.010568 0.000000 0.000000 0.000000
# 4 0.000000 0.000000 0.000000 0.079497 0.000000 0.000000
# 5 0.000000 0.000000 0.000000 0.000000 0.028036 0.000000
# 6 0.000000 0.000000 0.000000 0.000000 0.000000 0.048685
#
#
# Mechanical properties :
#
#
# Convention : Reuss Voigt Hill
#
# Bulk Modulus (GPa) = 49.68410 55.06374 52.37392
# Shear Modulus (GPa) = 21.12777 25.61291 23.37034
#
# Velocity S-wave (km/s) = 3.55362 3.91268 3.73746
# Velocity P-wave (km/s) = 6.82160 7.30234 7.06606
#
# Compressibility (1/GPa) = 0.02012716
#
# Stress axis : x y z
#
# Youngs Moduli (GPa) = 81.16267 41.59903 94.62642
#
# Poissons Ratio (x) = 0.22068 0.14328
# Poissons Ratio (y) = 0.43056 0.62276
# Poissons Ratio (z) = 0.12289 0.27377
#
# Static dielectric constant tensor:
#      x y z
#    x 3.274310 0.000000 0.000000 
#    y 0.000000 2.825510 0.000000 
#    z 0.000000 0.000000 3.221920 
# 
# 
# High freq. dielectric constant tensor:
#      x y z
#    x 1.664320 0.000000 0.000000 
#    y 0.000000 1.594940 0.000000 
#    z 0.000000 0.000000 1.653980 
# 
# From -- ./inp_files/25324.got.cif
#   From: 2010.03.12/outbox.cif.g09.slc.cpg/sg67_13_cif.got.tgz:25324.got - 2010.04.10 22:41:39.
