data_PCOD8278713
_publ_section_title
;
Structure prediction by ZEFSAII (Michael W. Deem and Ramdas Pophale) SiO2 
 PCOD8278713
Probable space group: C M M A
;
_chemical_formula_sum "Si O2"
_cell_formula_units_Z 120
_cell_length_a 8.752544
_cell_length_b 27.409951
_cell_length_c 25.803817
_cell_angle_alpha 90.000000
_cell_angle_beta 90.000000
_cell_angle_gamma 90.000000
_cell_volume 6190.511220
_symmetry_space_group_name_H-M "C M M A"
_symmetry_group_IT_number 67
_symmetry_cell_setting 'orthorhombic'
loop_
_space_group_symop_operation_xyz
x,y,z
-x,1/2-y,z
x,-y,-z
-x,1/2+y,-z
-x,-y,-z
x,1/2+y,-z
-x,y,z
x,1/2-y,z
1/2+x,1/2+y,z
1/2-x,-y,z
1/2+x,1/2-y,-z
1/2-x,y,-z
1/2-x,1/2-y,-z
1/2+x,y,-z
1/2-x,1/2+y,z
1/2+x,-y,z
loop_
_atom_site_type_symbol
_atom_site_label
_atom_site_fract_x
_atom_site_fract_y
_atom_site_fract_z
Si Si1 0.174228 0.804479 0.827749
Si Si2 0.820930 0.656469 0.622826
Si Si3 0.318658 0.949193 0.241230
Si Si4 0.319580 0.553114 0.051105
Si Si5 0.819583 0.750000 0.556323
Si Si6 0.328774 0.695358 0.720581
Si Si7 0.322985 0.450057 0.639788
Si Si8 0.322835 0.896021 0.852084
O O1 0.199438 0.750000 0.848810
O O2 0.210587 0.807649 0.767141
O O3 0.290577 0.838530 0.859590
O O4 0.000000 0.821527 0.835893
O O5 0.764959 0.699182 0.583621
O O6 0.729019 0.660228 0.675807
O O7 0.787564 0.599557 0.605851
O O8 0.000000 0.663375 0.633934
O O9 0.500000 0.948156 0.233664
O O10 0.269309 0.940819 0.300904
O O11 0.240337 0.908394 0.205339
O O12 0.250000 0.000000 0.221006
O O13 0.500000 0.551161 0.046052
O O14 0.250000 0.500000 0.052998
O O15 0.274227 0.578009 0.104246
O O16 0.250000 0.580201 0.000000
O O17 0.750000 0.750000 0.500000
O O18 0.000000 0.750000 0.552114
O O19 0.500000 0.679967 0.738462
O O20 0.330286 0.750000 0.697797
O O21 0.500000 0.461195 0.639217
O O22 0.250000 0.500000 0.616585
O O23 0.500000 0.908948 0.857708
#
# Coordination Sequence:
#
# PCOD8278713 Si02
#       8
#    16  16  16  16   8  16  16  16
#     4  10  21  36  53  74 105 145 184 222 264 316
#     4  10  19  34  55  78 105 143 182 221 271 329
#     4  10  19  32  49  74 109 146 182 220 262 314
#     4  11  22  39  60  83 109 136 172 218 272 328
#     4  10  22  38  58  82 110 140 178 228 283 332
#     4  10  19  30  48  78 111 142 178 220 264 316
#     4   9  19  33  51  75 106 141 181 219 260 316
#     4  12  23  35  53  78 107 141 181 224 273 324
#
# _framework density 19.384505000000001
#
# number of rings (size 3 to 8) (size 9 to 14) (size 15 to 20)
#    0.000    1.733    0.667    5.200    0.000    4.000 
#    0.000    0.000    0.000    0.800    0.000    2.800 
#    0.000    0.000    0.000    0.000    0.000    0.000 
#
# Total GULP energy -743651.747818 kJ/mol
# GULP energy per Si atom -12394.195797 kJ/mol
# Density = 1.934038 g / cm^3
# Si number density = 19.384505 Si / 1000 Ang^3
#
#
#
# Elastic Constant Matrix: (Units=GPa)
#
#
# Indices 1 2 3 4 5 6 
#
# 1 88.4339 38.7281 17.9440 0.0000 0.0000 0.0000
# 2 38.7281 129.0081 36.3419 0.0000 0.0000 0.0000
# 3 17.9440 36.3419 50.8556 0.0000 0.0000 0.0000
# 4 0.0000 0.0000 0.0000 15.5089 0.0000 0.0000
# 5 0.0000 0.0000 0.0000 0.0000 26.4368 0.0000
# 6 0.0000 0.0000 0.0000 0.0000 0.0000 31.2550
#
#
#
# Elastic Compliance Matrix: (Units=1/GPa)
#
#
# Indices 1 2 3 4 5 6 
#
# 1 0.013229 -0.003326 -0.002291 0.000000 0.000000 0.000000
# 2 -0.003326 0.010541 -0.006359 0.000000 0.000000 0.000000
# 3 -0.002291 -0.006359 0.025016 0.000000 0.000000 0.000000
# 4 0.000000 0.000000 0.000000 0.064479 0.000000 0.000000
# 5 0.000000 0.000000 0.000000 0.000000 0.037826 0.000000
# 6 0.000000 0.000000 0.000000 0.000000 0.000000 0.031995
#
#
# Mechanical properties :
#
#
# Convention : Reuss Voigt Hill
#
# Bulk Modulus (GPa) = 40.26720 50.48065 45.37393
# Shear Modulus (GPa) = 23.22143 26.32570 24.77357
#
# Velocity S-wave (km/s) = 3.46488 3.68921 3.57880
# Velocity P-wave (km/s) = 6.06837 6.65172 6.36673
#
# Compressibility (1/GPa) = 0.02483411
#
# Stress axis : x y z
#
# Youngs Moduli (GPa) = 75.58961 94.86419 39.97378
#
# Poissons Ratio (x) = 0.31552 0.09158
# Poissons Ratio (y) = 0.25141 0.25421
# Poissons Ratio (z) = 0.17318 0.60328
#
# Static dielectric constant tensor:
#      x y z
#    x 3.547570 0.000000 0.000000 
#    y 0.000000 3.950870 0.000000 
#    z 0.000000 0.000000 3.746990 
# 
# 
# High freq. dielectric constant tensor:
#      x y z
#    x 1.761010 0.000000 0.000000 
#    y 0.000000 1.768000 0.000000 
#    z 0.000000 0.000000 1.709100 
# 
# From -- ./inp_files/43899.got.cif
#   From: 2010.03.12/outbox.cif.g09.slc.cpg/sg67_22_cif.got.tgz:43899.got - 2010.04.10 22:41:39.
