data_PCOD8278251
_publ_section_title
;
Structure prediction by ZEFSAII (Michael W. Deem and Ramdas Pophale) SiO2 
 PCOD8278251
Probable space group: C M M A
;
_chemical_formula_sum "Si O2"
_cell_formula_units_Z 80
_cell_length_a 9.238961
_cell_length_b 23.334669
_cell_length_c 20.261392
_cell_angle_alpha 90.000000
_cell_angle_beta 90.000000
_cell_angle_gamma 90.000000
_cell_volume 4368.114941
_symmetry_space_group_name_H-M "C M M A"
_symmetry_group_IT_number 67
_symmetry_cell_setting 'orthorhombic'
loop_
_space_group_symop_operation_xyz
x,y,z
-x,1/2-y,z
x,-y,-z
-x,1/2+y,-z
-x,-y,-z
x,1/2+y,-z
-x,y,z
x,1/2-y,z
1/2+x,1/2+y,z
1/2-x,-y,z
1/2+x,1/2-y,-z
1/2-x,y,-z
1/2-x,1/2-y,-z
1/2+x,y,-z
1/2-x,1/2+y,z
1/2+x,-y,z
loop_
_atom_site_type_symbol
_atom_site_label
_atom_site_fract_x
_atom_site_fract_y
_atom_site_fract_z
Si Si1 0.836066 0.867557 0.199930
Si Si2 0.329913 0.126255 0.562726
Si Si3 0.670093 0.815345 0.934865
Si Si4 0.329959 0.250000 0.598766
Si Si5 0.828497 0.440093 0.304312
Si Si6 0.657684 0.750000 0.725962
O O1 0.788061 0.859529 0.123847
O O2 0.727591 0.909690 0.237964
O O3 0.827003 0.804533 0.228606
O O4 0.000000 0.891873 0.205585
O O5 0.500000 0.121243 0.550996
O O6 0.250000 0.096927 0.500000
O O7 0.273381 0.192134 0.564331
O O8 0.285170 0.096671 0.631233
O O9 0.500000 0.817031 0.947474
O O10 0.719094 0.750000 0.918501
O O11 0.750000 0.838099 0.000000
O O12 0.500000 0.250000 0.598945
O O13 0.285321 0.250000 0.674298
O O14 0.750000 0.500000 0.312705
O O15 0.000000 0.448499 0.298791
O O16 0.500000 0.750000 0.690340
#
# Coordination Sequence:
#
# PCOD8278251 Si02
#       6
#    16  16  16   8  16   8
#     4  10  19  34  56  82 113 147 183 224 269 320
#     4  10  22  37  56  80 109 142 176 219 271 327
#     4   9  17  30  49  79 118 153 183 215 258 316
#     4  10  19  35  53  79 115 141 173 221 267 324
#     4  11  24  41  59  80 105 139 185 234 279 324
#     4  10  18  29  52  83 110 143 180 217 268 324
#
# _framework density 18.314536
#
# number of rings (size 3 to 8) (size 9 to 14) (size 15 to 20)
#    0.000    2.000    3.000    0.900    0.000    3.600 
#    0.000    2.000    0.000    0.600    0.000    4.200 
#    0.000    0.000    0.000    0.000    0.000    0.000 
#
# Total GULP energy -495883.672912 kJ/mol
# GULP energy per Si atom -12397.091823 kJ/mol
# Density = 1.827285 g / cm^3
# Si number density = 18.314536 Si / 1000 Ang^3
#
#
#
# Elastic Constant Matrix: (Units=GPa)
#
#
# Indices 1 2 3 4 5 6 
#
# 1 54.0960 47.3474 58.2578 0.0000 0.0000 0.0000
# 2 47.3474 90.7782 47.0424 0.0000 0.0000 0.0000
# 3 58.2578 47.0424 150.3943 0.0000 0.0000 0.0000
# 4 0.0000 0.0000 0.0000 8.3276 0.0000 0.0000
# 5 0.0000 0.0000 0.0000 0.0000 36.6897 0.0000
# 6 0.0000 0.0000 0.0000 0.0000 0.0000 23.2689
#
#
#
# Elastic Compliance Matrix: (Units=1/GPa)
#
#
# Indices 1 2 3 4 5 6 
#
# 1 0.049075 -0.018791 -0.013132 0.000000 0.000000 0.000000
# 2 -0.018791 0.020342 0.000916 0.000000 0.000000 0.000000
# 3 -0.013132 0.000916 0.011450 0.000000 0.000000 0.000000
# 4 0.000000 0.000000 0.000000 0.120083 0.000000 0.000000
# 5 0.000000 0.000000 0.000000 0.000000 0.027256 0.000000
# 6 0.000000 0.000000 0.000000 0.000000 0.000000 0.042976
#
#
# Mechanical properties :
#
#
# Convention : Reuss Voigt Hill
#
# Bulk Modulus (GPa) = 53.04360 66.72932 59.88646
# Shear Modulus (GPa) = 14.72844 23.16529 18.94686
#
# Velocity S-wave (km/s) = 2.83891 3.56034 3.21989
# Velocity P-wave (km/s) = 6.30645 7.30860 6.82594
#
# Compressibility (1/GPa) = 0.01885242
#
# Stress axis : x y z
#
# Youngs Moduli (GPa) = 20.37699 49.15970 87.33856
#
# Poissons Ratio (x) = 0.92375 1.14696
# Poissons Ratio (y) = 0.38290 -0.08001
# Poissons Ratio (z) = 0.26760 -0.04504
#
# Static dielectric constant tensor:
#      x y z
#    x 3.331170 0.000000 0.000000 
#    y 0.000000 3.496640 0.000000 
#    z 0.000000 0.000000 3.503940 
# 
# 
# High freq. dielectric constant tensor:
#      x y z
#    x 1.706080 0.000000 0.000000 
#    y 0.000000 1.688660 0.000000 
#    z 0.000000 0.000000 1.716580 
# 
# From -- ./inp_files/32883.got.cif
#   From: 2010.03.12/outbox.cif.g09.slc.cpg/sg67_17_cif.got.tgz:32883.got - 2010.04.10 22:41:39.
