data_PCOD8278403
_publ_section_title
;
Structure prediction by ZEFSAII (Michael W. Deem and Ramdas Pophale) SiO2 
 PCOD8278403
Probable space group: C M M A
;
_chemical_formula_sum "Si O2"
_cell_formula_units_Z 64
_cell_length_a 16.060260
_cell_length_b 21.314259
_cell_length_c 8.706808
_cell_angle_alpha 90.000000
_cell_angle_beta 90.000000
_cell_angle_gamma 90.000000
_cell_volume 2980.449573
_symmetry_space_group_name_H-M "C M M A"
_symmetry_group_IT_number 67
_symmetry_cell_setting 'orthorhombic'
loop_
_space_group_symop_operation_xyz
x,y,z
-x,1/2-y,z
x,-y,-z
-x,1/2+y,-z
-x,-y,-z
x,1/2+y,-z
-x,y,z
x,1/2-y,z
1/2+x,1/2+y,z
1/2-x,-y,z
1/2+x,1/2-y,-z
1/2-x,y,-z
1/2-x,1/2-y,-z
1/2+x,y,-z
1/2-x,1/2+y,z
1/2+x,-y,z
loop_
_atom_site_type_symbol
_atom_site_label
_atom_site_fract_x
_atom_site_fract_y
_atom_site_fract_z
Si Si1 0.594884 0.679975 0.108562
Si Si2 0.841646 0.935996 0.065409
Si Si3 0.843082 0.182273 0.436636
Si Si4 0.158077 0.439174 0.572978
O O1 0.500000 0.675573 0.166701
O O2 0.612300 0.750000 0.039499
O O3 0.655638 0.668277 0.253796
O O4 0.608799 0.626883 0.979833
O O5 0.838873 0.944007 0.246298
O O6 0.750000 0.929318 0.000000
O O7 0.883846 0.000000 0.000000
O O8 0.887163 0.250000 0.467082
O O9 0.750000 0.186240 0.500000
O O10 0.889759 0.124950 0.523467
O O11 0.111933 0.500000 0.500000
O O12 0.250000 0.436099 0.500000
#
# Coordination Sequence:
#
# PCOD8278403 Si02
#       4
#    16  16  16  16
#     4  10  22  40  60  85 120 158 194 239 297 353
#     4  11  21  35  59  88 117 153 200 248 291 345
#     4   9  17  32  55  81 108 142 188 235 281 338
#     4  10  18  31  52  79 112 143 181 237 290 337
#
# _framework density 21.473272000000001
#
# number of rings (size 3 to 8) (size 9 to 14) (size 15 to 20)
#    0.000    2.000    0.000    7.500    0.000    2.000 
#    0.000    1.250    0.000    6.000    0.000    0.000 
#    0.000    0.000    0.000    0.000    0.000    0.000 
#
# Total GULP energy -396459.738005 kJ/mol
# GULP energy per Si atom -12389.366813 kJ/mol
# Density = 2.142440 g / cm^3
# Si number density = 21.473272 Si / 1000 Ang^3
#
#
#
# Elastic Constant Matrix: (Units=GPa)
#
#
# Indices 1 2 3 4 5 6 
#
# 1 39.5331 16.4052 23.4906 0.0000 0.0000 0.0000
# 2 16.4052 246.2661 99.5953 0.0000 0.0000 0.0000
# 3 23.4906 99.5953 186.8167 0.0000 0.0000 0.0000
# 4 0.0000 0.0000 0.0000 44.0526 0.0000 0.0000
# 5 0.0000 0.0000 0.0000 0.0000 13.3513 0.0000
# 6 0.0000 0.0000 0.0000 0.0000 0.0000 -78.2175
#
#
#
# Elastic Compliance Matrix: (Units=1/GPa)
#
#
# Indices 1 2 3 4 5 6 
#
# 1 0.027396 -0.000551 -0.003151 0.000000 0.000000 0.000000
# 2 -0.000551 0.005188 -0.002697 0.000000 0.000000 0.000000
# 3 -0.003151 -0.002697 0.007187 0.000000 0.000000 0.000000
# 4 0.000000 0.000000 0.000000 0.022700 0.000000 0.000000
# 5 0.000000 0.000000 0.000000 0.000000 0.074899 0.000000
# 6 0.000000 0.000000 0.000000 0.000000 0.000000 -0.012785
#
#
# Mechanical properties :
#
#
# Convention : Reuss Voigt Hill
#
# Bulk Modulus (GPa) = 37.07281 83.51090 60.29186
# Shear Modulus (GPa) = 34.15929 18.04562 26.10245
#
# Velocity S-wave (km/s) = 3.99279 2.90207 3.49030
# Velocity P-wave (km/s) = 6.20956 7.08551 6.66194
#
# Compressibility (1/GPa) = 0.02697395
#
# Stress axis : x y z
#
# Youngs Moduli (GPa) = 36.50137 192.75817 139.14694
#
# Poissons Ratio (x) = 0.10612 0.43850
# Poissons Ratio (y) = 0.02010 0.37521
# Poissons Ratio (z) = 0.11503 0.51977
#
# Static dielectric constant tensor:
#      x y z
#    x 3.212900 0.000000 0.000000 
#    y 0.000000 6.488440 0.000000 
#    z 0.000000 0.000000 3.697410 
# 
# 
# High freq. dielectric constant tensor:
#      x y z
#    x 1.781490 0.000000 0.000000 
#    y 0.000000 1.889900 0.000000 
#    z 0.000000 0.000000 1.836540 
# 
# From -- ./inp_files/9315.got.cif
#   From: 2010.03.12/outbox.cif.g09.slc.cpg/sg67_5_cif.got.tgz:9315.got - 2010.04.10 22:41:39.
