data_PCOD8278667
_publ_section_title
;
Structure prediction by ZEFSAII (Michael W. Deem and Ramdas Pophale) SiO2 
 PCOD8278667
Probable space group: C M M A
;
_chemical_formula_sum "Si O2"
_cell_formula_units_Z 112
_cell_length_a 16.426241
_cell_length_b 26.709671
_cell_length_c 13.354422
_cell_angle_alpha 90.000000
_cell_angle_beta 90.000000
_cell_angle_gamma 90.000000
_cell_volume 5859.112336
_symmetry_space_group_name_H-M "C M M A"
_symmetry_group_IT_number 67
_symmetry_cell_setting 'orthorhombic'
loop_
_space_group_symop_operation_xyz
x,y,z
-x,1/2-y,z
x,-y,-z
-x,1/2+y,-z
-x,-y,-z
x,1/2+y,-z
-x,y,z
x,1/2-y,z
1/2+x,1/2+y,z
1/2-x,-y,z
1/2+x,1/2-y,-z
1/2-x,y,-z
1/2-x,1/2-y,-z
1/2+x,y,-z
1/2-x,1/2+y,z
1/2+x,-y,z
loop_
_atom_site_type_symbol
_atom_site_label
_atom_site_fract_x
_atom_site_fract_y
_atom_site_fract_z
Si Si1 0.251204 0.942324 0.767885
Si Si2 0.645758 0.693118 0.272583
Si Si3 0.168769 0.612299 0.053245
Si Si4 0.092883 0.397234 0.149563
Si Si5 0.091046 0.807808 0.510742
Si Si6 0.594174 0.193800 0.185611
Si Si7 0.690245 0.852784 0.652073
O O1 0.309174 0.930393 0.864065
O O2 0.156449 0.930392 0.787834
O O3 0.286024 0.910753 0.673053
O O4 0.250000 0.000000 0.738735
O O5 0.639359 0.750000 0.235805
O O6 0.612019 0.660144 0.180535
O O7 0.591214 0.683239 0.370531
O O8 0.738237 0.681508 0.303755
O O9 0.137500 0.663477 0.098615
O O10 0.250000 0.629481 0.000000
O O11 0.105283 0.592856 0.969484
O O12 0.000000 0.411931 0.176445
O O13 0.111408 0.750000 0.484896
O O14 0.162995 0.842711 0.462884
O O15 0.000000 0.821542 0.472816
O O16 0.500000 0.194276 0.162231
O O17 0.629246 0.250000 0.188945
O O18 0.609404 0.165026 0.289607
#
# Coordination Sequence:
#
# PCOD8278667 Si02
#       7
#    16  16  16  16  16  16  16
#     4   9  20  39  57  75 100 131 170 218 272 325
#     4  10  20  33  51  76 108 146 182 213 251 308
#     4   9  19  33  51  73  98 133 172 212 256 315
#     4  10  20  34  52  76 105 135 172 217 262 307
#     4  10  19  31  50  79 112 142 174 213 256 305
#     4  10  19  30  45  70 105 137 165 206 260 314
#     4  10  19  32  53  75  99 134 174 217 263 314
#
# _framework density 19.115523
#
# number of rings (size 3 to 8) (size 9 to 14) (size 15 to 20)
#    0.000    2.286    0.000    3.857    0.000    6.571 
#    0.000    5.000    0.000    6.857    0.000    5.000 
#    0.000    0.000    0.000    0.000    0.000    0.000 
#
# Total GULP energy -694061.482649 kJ/mol
# GULP energy per Si atom -12393.955047 kJ/mol
# Density = 1.907202 g / cm^3
# Si number density = 19.115523 Si / 1000 Ang^3
#
#
#
# Elastic Constant Matrix: (Units=GPa)
#
#
# Indices 1 2 3 4 5 6 
#
# 1 87.4271 34.8930 15.5864 0.0000 0.0000 0.0000
# 2 34.8930 125.6414 21.4040 0.0000 0.0000 0.0000
# 3 15.5864 21.4040 39.9418 0.0000 0.0000 0.0000
# 4 0.0000 0.0000 0.0000 18.4705 0.0000 0.0000
# 5 0.0000 0.0000 0.0000 0.0000 23.7388 0.0000
# 6 0.0000 0.0000 0.0000 0.0000 0.0000 12.1923
#
#
#
# Elastic Compliance Matrix: (Units=1/GPa)
#
#
# Indices 1 2 3 4 5 6 
#
# 1 0.013302 -0.003092 -0.003534 0.000000 0.000000 0.000000
# 2 -0.003092 0.009478 -0.003872 0.000000 0.000000 0.000000
# 3 -0.003534 -0.003872 0.028490 0.000000 0.000000 0.000000
# 4 0.000000 0.000000 0.000000 0.054140 0.000000 0.000000
# 5 0.000000 0.000000 0.000000 0.000000 0.042125 0.000000
# 6 0.000000 0.000000 0.000000 0.000000 0.000000 0.082019
#
#
# Mechanical properties :
#
#
# Convention : Reuss Voigt Hill
#
# Bulk Modulus (GPa) = 33.03189 44.08635 38.55912
# Shear Modulus (GPa) = 19.18335 22.95545 21.06940
#
# Velocity S-wave (km/s) = 3.17132 3.46913 3.32356
# Velocity P-wave (km/s) = 5.54323 6.25777 5.91130
#
# Compressibility (1/GPa) = 0.03027377
#
# Stress axis : x y z
#
# Youngs Moduli (GPa) = 75.17520 105.51203 35.09948
#
# Poissons Ratio (x) = 0.32627 0.12404
# Poissons Ratio (y) = 0.23246 0.13591
# Poissons Ratio (z) = 0.26566 0.40856
#
# Static dielectric constant tensor:
#      x y z
#    x 3.664160 0.000000 0.000000 
#    y 0.000000 3.215320 0.000000 
#    z 0.000000 0.000000 3.613350 
# 
# 
# High freq. dielectric constant tensor:
#      x y z
#    x 1.754720 0.000000 0.000000 
#    y 0.000000 1.709630 0.000000 
#    z 0.000000 0.000000 1.735930 
# 
# From -- ./inp_files/27668.got.cif
#   From: 2010.03.12/outbox.cif.g09.slc.cpg/sg67_14_cif.got.tgz:27668.got - 2010.04.10 22:41:39.
