data_PCOD8278104
_publ_section_title
;
Structure prediction by ZEFSAII (Michael W. Deem and Ramdas Pophale) SiO2 
 PCOD8278104
Probable space group: C M M A
;
_chemical_formula_sum "Si O2"
_cell_formula_units_Z 88
_cell_length_a 8.739264
_cell_length_b 16.581564
_cell_length_c 30.086383
_cell_angle_alpha 90.000000
_cell_angle_beta 90.000000
_cell_angle_gamma 90.000000
_cell_volume 4359.837778
_symmetry_space_group_name_H-M "C M M A"
_symmetry_group_IT_number 67
_symmetry_cell_setting 'orthorhombic'
loop_
_space_group_symop_operation_xyz
x,y,z
-x,1/2-y,z
x,-y,-z
-x,1/2+y,-z
-x,-y,-z
x,1/2+y,-z
-x,y,z
x,1/2-y,z
1/2+x,1/2+y,z
1/2-x,-y,z
1/2+x,1/2-y,-z
1/2-x,y,-z
1/2-x,1/2-y,-z
1/2+x,y,-z
1/2-x,1/2+y,z
1/2+x,-y,z
loop_
_atom_site_type_symbol
_atom_site_label
_atom_site_fract_x
_atom_site_fract_y
_atom_site_fract_z
Si Si1 0.818130 0.589754 0.455863
Si Si2 0.167325 0.657985 0.286771
Si Si3 0.181767 0.586860 0.098580
Si Si4 0.679084 0.082153 0.198032
Si Si5 0.818107 0.750000 0.048584
Si Si6 0.821679 0.086753 0.368362
O O1 0.750000 0.500000 0.454482
O O2 0.750000 0.633602 0.500000
O O3 0.760048 0.632445 0.410288
O O4 0.000000 0.589175 0.458120
O O5 0.141763 0.750000 0.295385
O O6 0.224868 0.646408 0.235925
O O7 0.293409 0.630341 0.321846
O O8 0.000000 0.614704 0.293520
O O9 0.250000 0.500000 0.081647
O O10 0.241013 0.604179 0.148926
O O11 0.239229 0.666285 0.071732
O O12 0.000000 0.579307 0.095011
O O13 0.500000 0.072151 0.193539
O O14 0.750000 0.000000 0.215725
O O15 0.000000 0.750000 0.047465
O O16 0.750000 0.750000 0.000000
O O17 0.000000 0.081729 0.378490
O O18 0.750000 0.000000 0.362837
#
# Coordination Sequence:
#
# PCOD8278104 Si02
#       6
#    16  16  16  16   8  16
#     4  10  17  28  47  73 102 130 167 214 266 318
#     4  10  21  35  52  76 105 139 176 216 264 321
#     4   9  19  36  58  84 114 150 192 238 289 343
#     4   9  18  33  55  80 106 138 178 222 270 324
#     4  10  22  38  58  84 116 154 196 240 289 346
#     4  11  21  34  52  74 103 138 176 217 264 316
#
# _framework density 20.184238000000001
#
# number of rings (size 3 to 8) (size 9 to 14) (size 15 to 20)
#    0.000    2.182    0.000    5.455    1.273    3.636 
#    0.000    1.818    0.000    0.545    0.000    0.000 
#    0.000    0.000    0.000    0.000    0.000    0.000 
#
# Total GULP energy -545127.597988 kJ/mol
# GULP energy per Si atom -12389.263591 kJ/mol
# Density = 2.013830 g / cm^3
# Si number density = 20.184238 Si / 1000 Ang^3
#
#
#
# Elastic Constant Matrix: (Units=GPa)
#
#
# Indices 1 2 3 4 5 6 
#
# 1 95.9722 29.3642 46.6348 0.0000 0.0000 0.0000
# 2 29.3642 91.4391 57.6841 0.0000 0.0000 0.0000
# 3 46.6348 57.6841 147.7779 0.0000 0.0000 0.0000
# 4 0.0000 0.0000 0.0000 4.3130 0.0000 0.0000
# 5 0.0000 0.0000 0.0000 0.0000 31.7345 0.0000
# 6 0.0000 0.0000 0.0000 0.0000 0.0000 20.0840
#
#
#
# Elastic Compliance Matrix: (Units=1/GPa)
#
#
# Indices 1 2 3 4 5 6 
#
# 1 0.012587 -0.002038 -0.003176 0.000000 0.000000 0.000000
# 2 -0.002038 0.014839 -0.005149 0.000000 0.000000 0.000000
# 3 -0.003176 -0.005149 0.009779 0.000000 0.000000 0.000000
# 4 0.000000 0.000000 0.000000 0.231855 0.000000 0.000000
# 5 0.000000 0.000000 0.000000 0.000000 0.031511 0.000000
# 6 0.000000 0.000000 0.000000 0.000000 0.000000 0.049791
#
#
# Mechanical properties :
#
#
# Convention : Reuss Voigt Hill
#
# Bulk Modulus (GPa) = 60.68862 66.95061 63.81961
# Shear Modulus (GPa) = 13.27730 24.66005 18.96868
#
# Velocity S-wave (km/s) = 2.56755 3.49914 3.06890
# Velocity P-wave (km/s) = 6.23878 7.04039 6.65167
#
# Compressibility (1/GPa) = 0.01647755
#
# Stress axis : x y z
#
# Youngs Moduli (GPa) = 79.44829 67.38956 102.25729
#
# Poissons Ratio (x) = 0.13735 0.32482
# Poissons Ratio (y) = 0.16193 0.52654
# Poissons Ratio (z) = 0.25236 0.34700
#
# Static dielectric constant tensor:
#      x y z
#    x 3.648460 0.000000 0.000000 
#    y 0.000000 3.427630 0.000000 
#    z 0.000000 0.000000 4.533550 
# 
# 
# High freq. dielectric constant tensor:
#      x y z
#    x 1.780990 0.000000 0.000000 
#    y 0.000000 1.755280 0.000000 
#    z 0.000000 0.000000 1.807090 
# 
# From -- ./inp_files/45241.got.cif
#   From: 2010.03.12/outbox.cif.g09.slc.cpg/sg67_23_cif.got.tgz:45241.got - 2010.04.10 22:41:39.
