data_PCOD8278263
_publ_section_title
;
Structure prediction by ZEFSAII (Michael W. Deem and Ramdas Pophale) SiO2 
 PCOD8278263
Probable space group: C M M A
;
_chemical_formula_sum "Si O2"
_cell_formula_units_Z 120
_cell_length_a 25.756782
_cell_length_b 21.959199
_cell_length_c 11.698240
_cell_angle_alpha 90.000000
_cell_angle_beta 90.000000
_cell_angle_gamma 90.000000
_cell_volume 6616.504675
_symmetry_space_group_name_H-M "C M M A"
_symmetry_group_IT_number 67
_symmetry_cell_setting 'orthorhombic'
loop_
_space_group_symop_operation_xyz
x,y,z
-x,1/2-y,z
x,-y,-z
-x,1/2+y,-z
-x,-y,-z
x,1/2+y,-z
-x,y,z
x,1/2-y,z
1/2+x,1/2+y,z
1/2-x,-y,z
1/2+x,1/2-y,-z
1/2-x,y,-z
1/2-x,1/2-y,-z
1/2+x,y,-z
1/2-x,1/2+y,z
1/2+x,-y,z
loop_
_atom_site_type_symbol
_atom_site_label
_atom_site_fract_x
_atom_site_fract_y
_atom_site_fract_z
Si Si1 0.250000 0.598691 0.500000
Si Si2 0.370808 0.682012 0.771915
Si Si3 0.842504 0.816684 0.487459
Si Si4 0.442964 0.415265 0.286739
Si Si5 0.738144 0.179873 0.131652
Si Si6 0.378577 0.521909 0.373050
Si Si7 0.727117 0.939109 0.267591
Si Si8 0.943533 0.127798 0.457365
O O1 0.199624 0.637373 0.537767
O O2 0.238053 0.561280 0.384818
O O3 0.393594 0.750000 0.782493
O O4 0.348038 0.669835 0.646137
O O5 0.417668 0.635353 0.797493
O O6 0.323637 0.671246 0.858457
O O7 0.820390 0.750000 0.510021
O O8 0.897652 0.822554 0.553413
O O9 0.500000 0.434234 0.238906
O O10 0.402091 0.469794 0.293222
O O11 0.450512 0.387043 0.410620
O O12 0.753346 0.250000 0.172191
O O13 0.766958 0.125134 0.200100
O O14 0.750000 0.171131 0.000000
O O15 0.359090 0.500000 0.500000
O O16 0.332986 0.552458 0.300036
O O17 0.426391 0.568041 0.389020
O O18 0.750000 0.000000 0.202619
O O19 0.000000 0.150653 0.410614
#
# Coordination Sequence:
#
# PCOD8278263 Si02
#       8
#     8  16  16  16  16  16  16  16
#     4  12  20  32  48  78 111 150 177 214 267 332
#     4   9  17  31  49  72  99 128 168 218 266 312
#     4  10  19  29  45  69 103 141 177 218 263 315
#     4   9  17  28  46  70 101 139 173 214 264 317
#     4  10  22  41  60  78 106 144 181 222 275 332
#     4  10  18  30  45  70 103 141 183 218 259 311
#     4  12  23  33  54  82 111 145 181 224 268 322
#     4   9  17  29  43  64  98 142 185 218 253 305
#
# _framework density 18.136462999999999
#
# number of rings (size 3 to 8) (size 9 to 14) (size 15 to 20)
#    0.000    2.000    2.667    2.400    1.867    2.933 
#    0.000    2.667    0.000    0.000    0.000    2.800 
#    0.000    2.133    0.000    0.000    0.000    0.000 
#
# Total GULP energy -743355.790657 kJ/mol
# GULP energy per Si atom -12389.263178 kJ/mol
# Density = 1.809518 g / cm^3
# Si number density = 18.136463 Si / 1000 Ang^3
#
#
#
# Elastic Constant Matrix: (Units=GPa)
#
#
# Indices 1 2 3 4 5 6 
#
# 1 127.8029 52.1429 25.7444 0.0000 0.0000 0.0000
# 2 52.1429 109.0211 37.2030 0.0000 0.0000 0.0000
# 3 25.7444 37.2030 47.1294 0.0000 0.0000 0.0000
# 4 0.0000 0.0000 0.0000 14.4015 0.0000 0.0000
# 5 0.0000 0.0000 0.0000 0.0000 36.6716 0.0000
# 6 0.0000 0.0000 0.0000 0.0000 0.0000 16.7003
#
#
#
# Elastic Compliance Matrix: (Units=1/GPa)
#
#
# Indices 1 2 3 4 5 6 
#
# 1 0.009898 -0.003954 -0.002286 0.000000 0.000000 0.000000
# 2 -0.003954 0.014134 -0.008997 0.000000 0.000000 0.000000
# 3 -0.002286 -0.008997 0.029569 0.000000 0.000000 0.000000
# 4 0.000000 0.000000 0.000000 0.069437 0.000000 0.000000
# 5 0.000000 0.000000 0.000000 0.000000 0.027269 0.000000
# 6 0.000000 0.000000 0.000000 0.000000 0.000000 0.059879
#
#
# Mechanical properties :
#
#
# Convention : Reuss Voigt Hill
#
# Bulk Modulus (GPa) = 43.23891 57.12600 50.18245
# Shear Modulus (GPa) = 20.13131 24.81222 22.47177
#
# Velocity S-wave (km/s) = 3.33527 3.70278 3.52382
# Velocity P-wave (km/s) = 6.22291 7.06024 6.65476
#
# Compressibility (1/GPa) = 0.02312732
#
# Stress axis : x y z
#
# Youngs Moduli (GPa) = 101.02801 70.75137 33.81945
#
# Poissons Ratio (x) = 0.27977 0.07729
# Poissons Ratio (y) = 0.39949 0.30428
# Poissons Ratio (z) = 0.23090 0.63656
#
# Static dielectric constant tensor:
#      x y z
#    x 3.603050 0.000000 0.000000 
#    y 0.000000 3.634420 0.000000 
#    z 0.000000 0.000000 2.803930 
# 
# 
# High freq. dielectric constant tensor:
#      x y z
#    x 1.710220 0.000000 0.000000 
#    y 0.000000 1.717510 0.000000 
#    z 0.000000 0.000000 1.624760 
# 
# From -- ./inp_files/23193.got.cif
#   From: 2010.03.12/outbox.cif.g09.slc.cpg/sg67_12_cif.got.tgz:23193.got - 2010.04.10 22:41:39.
