data_PCOD8278150
_publ_section_title
;
Structure prediction by ZEFSAII (Michael W. Deem and Ramdas Pophale) SiO2 
 PCOD8278150
Probable space group: C M M A
;
_chemical_formula_sum "Si O2"
_cell_formula_units_Z 80
_cell_length_a 25.138125
_cell_length_b 17.923760
_cell_length_c 9.724577
_cell_angle_alpha 90.000000
_cell_angle_beta 90.000000
_cell_angle_gamma 90.000000
_cell_volume 4381.599930
_symmetry_space_group_name_H-M "C M M A"
_symmetry_group_IT_number 67
_symmetry_cell_setting 'orthorhombic'
loop_
_space_group_symop_operation_xyz
x,y,z
-x,1/2-y,z
x,-y,-z
-x,1/2+y,-z
-x,-y,-z
x,1/2+y,-z
-x,y,z
x,1/2-y,z
1/2+x,1/2+y,z
1/2-x,-y,z
1/2+x,1/2-y,-z
1/2-x,y,-z
1/2-x,1/2-y,-z
1/2+x,y,-z
1/2-x,1/2+y,z
1/2+x,-y,z
loop_
_atom_site_type_symbol
_atom_site_label
_atom_site_fract_x
_atom_site_fract_y
_atom_site_fract_z
Si Si1 0.310551 0.917900 0.034756
Si Si2 0.151955 0.549333 0.688139
Si Si3 0.192709 0.400231 0.573605
Si Si4 0.938958 0.525882 0.157760
Si Si5 0.368837 0.166050 0.189133
O O1 0.318281 0.901893 0.195913
O O2 0.250000 0.919556 0.000000
O O3 0.337132 0.851915 0.949855
O O4 0.336245 0.000000 0.000000
O O5 0.190382 0.478045 0.657894
O O6 0.148641 0.597394 0.548858
O O7 0.093215 0.529145 0.741023
O O8 0.250000 0.385100 0.500000
O O9 0.172178 0.338432 0.681099
O O10 0.918510 0.609501 0.190774
O O11 0.000000 0.521844 0.202212
O O12 0.932033 0.500000 0.000000
O O13 0.390960 0.250000 0.181875
#
# Coordination Sequence:
#
# PCOD8278150 Si02
#       5
#    16  16  16  16  16
#     4  11  19  31  56  81 107 139 183 231 267 314
#     4  10  17  32  53  82 107 131 184 233 270 306
#     4  10  20  32  52  81 113 151 179 211 261 327
#     4  10  19  36  60  84 104 132 184 241 282 318
#     4  11  22  38  52  78 117 148 181 220 273 333
#
# _framework density 18.258171999999998
#
# number of rings (size 3 to 8) (size 9 to 14) (size 15 to 20)
#    0.000    1.600    6.000    2.400    2.800    1.200 
#    0.000    9.000    0.000    0.000    0.000    0.000 
#    0.000    0.000    0.000    0.000    0.000    0.000 
#
# Total GULP energy -495629.643122 kJ/mol
# GULP energy per Si atom -12390.741078 kJ/mol
# Density = 1.821662 g / cm^3
# Si number density = 18.258172 Si / 1000 Ang^3
#
#
#
# Elastic Constant Matrix: (Units=GPa)
#
#
# Indices 1 2 3 4 5 6 
#
# 1 128.9886 28.3125 49.7701 0.0000 0.0000 0.0000
# 2 28.3125 65.8057 36.8490 0.0000 0.0000 0.0000
# 3 49.7701 36.8490 131.5144 0.0000 0.0000 0.0000
# 4 0.0000 0.0000 0.0000 55.2144 0.0000 0.0000
# 5 0.0000 0.0000 0.0000 0.0000 30.0630 0.0000
# 6 0.0000 0.0000 0.0000 0.0000 0.0000 11.9020
#
#
#
# Elastic Compliance Matrix: (Units=1/GPa)
#
#
# Indices 1 2 3 4 5 6 
#
# 1 0.009396 -0.002433 -0.002874 0.000000 0.000000 0.000000
# 2 -0.002433 0.018654 -0.004306 0.000000 0.000000 0.000000
# 3 -0.002874 -0.004306 0.009898 0.000000 0.000000 0.000000
# 4 0.000000 0.000000 0.000000 0.018111 0.000000 0.000000
# 5 0.000000 0.000000 0.000000 0.000000 0.033264 0.000000
# 6 0.000000 0.000000 0.000000 0.000000 0.000000 0.084020
#
#
# Mechanical properties :
#
#
# Convention : Reuss Voigt Hill
#
# Bulk Modulus (GPa) = 53.41388 61.79687 57.60537
# Shear Modulus (GPa) = 25.14980 33.52768 29.33874
#
# Velocity S-wave (km/s) = 3.71543 4.28987 4.01294
# Velocity P-wave (km/s) = 6.90827 7.64571 7.28633
#
# Compressibility (1/GPa) = 0.01872173
#
# Stress axis : x y z
#
# Youngs Moduli (GPa) = 106.43312 53.60700 101.03235
#
# Poissons Ratio (x) = 0.13043 0.29036
# Poissons Ratio (y) = 0.25896 0.43504
# Poissons Ratio (z) = 0.30588 0.23083
#
# Static dielectric constant tensor:
#      x y z
#    x 3.103430 0.000000 0.000000 
#    y 0.000000 3.036650 0.000000 
#    z 0.000000 0.000000 3.910100 
# 
# 
# High freq. dielectric constant tensor:
#      x y z
#    x 1.696290 0.000000 0.000000 
#    y 0.000000 1.656680 0.000000 
#    z 0.000000 0.000000 1.729300 
# 
# From -- ./inp_files/14691.got.cif
#   From: 2010.03.12/outbox.cif.g09.slc.cpg/sg67_8_cif.got.tgz:14691.got - 2010.04.10 22:41:39.
