data_PCOD8278626
_publ_section_title
;
Structure prediction by ZEFSAII (Michael W. Deem and Ramdas Pophale) SiO2 
 PCOD8278626
Probable space group: C M M A
;
_chemical_formula_sum "Si O2"
_cell_formula_units_Z 112
_cell_length_a 17.633277
_cell_length_b 17.417298
_cell_length_c 21.277365
_cell_angle_alpha 90.000000
_cell_angle_beta 90.000000
_cell_angle_gamma 90.000000
_cell_volume 6534.790304
_symmetry_space_group_name_H-M "C M M A"
_symmetry_group_IT_number 67
_symmetry_cell_setting 'orthorhombic'
loop_
_space_group_symop_operation_xyz
x,y,z
-x,1/2-y,z
x,-y,-z
-x,1/2+y,-z
-x,-y,-z
x,1/2+y,-z
-x,y,z
x,1/2-y,z
1/2+x,1/2+y,z
1/2-x,-y,z
1/2+x,1/2-y,-z
1/2-x,y,-z
1/2-x,1/2-y,-z
1/2+x,y,-z
1/2-x,1/2+y,z
1/2+x,-y,z
loop_
_atom_site_type_symbol
_atom_site_label
_atom_site_fract_x
_atom_site_fract_y
_atom_site_fract_z
Si Si1 0.911025 0.880091 0.387067
Si Si2 0.088008 0.837247 0.248304
Si Si3 0.811809 0.062057 0.841832
Si Si4 0.212057 0.661117 0.932777
Si Si5 0.167325 0.164263 0.488819
Si Si6 0.912562 0.537619 0.932190
Si Si7 0.083142 0.464007 0.431066
O O1 0.890846 0.839536 0.321891
O O2 0.875768 0.833930 0.444852
O O3 0.000000 0.880427 0.400297
O O4 0.882822 0.969521 0.385733
O O5 0.100550 0.750000 0.224329
O O6 0.144363 0.895849 0.214269
O O7 0.000000 0.861513 0.237661
O O8 0.769029 0.126509 0.881819
O O9 0.750000 0.000000 0.816448
O O10 0.875312 0.020511 0.883158
O O11 0.197515 0.750000 0.917344
O O12 0.131050 0.618697 0.931352
O O13 0.250000 0.649171 0.000000
O O14 0.170752 0.250000 0.461538
O O15 0.250000 0.129772 0.500000
O O16 0.132134 0.113093 0.433069
O O17 0.000000 0.552412 0.913833
O O18 0.905404 0.500000 0.000000
O O19 0.080339 0.500000 0.500000
O O20 0.000000 0.439517 0.407675
#
# Coordination Sequence:
#
# PCOD8278626 Si02
#       7
#    16  16  16  16  16  16  16
#     4   9  18  33  52  71  96 131 168 202 243 300
#     4  10  20  35  55  79 106 134 169 215 259 302
#     4  10  20  34  53  75 104 136 172 207 252 311
#     4  10  19  32  51  73 102 136 168 209 256 304
#     4  10  19  29  43  70 102 130 158 199 250 295
#     4  10  19  32  51  73 101 135 170 211 251 299
#     4   8  15  28  45  66  89 118 159 198 232 282
#
# _framework density 17.139035
#
# number of rings (size 3 to 8) (size 9 to 14) (size 15 to 20)
#    0.000    2.429    1.429    2.571    0.000    4.571 
#    2.571    0.000    0.000    0.000    0.000    0.000 
#    0.000    4.000    0.000    0.000    0.000    0.000 
#
# Total GULP energy -694128.697867 kJ/mol
# GULP energy per Si atom -12395.155319 kJ/mol
# Density = 1.710003 g / cm^3
# Si number density = 17.139035 Si / 1000 Ang^3
#
#
#
# Elastic Constant Matrix: (Units=GPa)
#
#
# Indices 1 2 3 4 5 6 
#
# 1 95.3946 53.2031 25.0723 0.0000 0.0000 0.0000
# 2 53.2031 105.8036 21.2483 0.0000 0.0000 0.0000
# 3 25.0723 21.2483 45.7749 0.0000 0.0000 0.0000
# 4 0.0000 0.0000 0.0000 22.4306 0.0000 0.0000
# 5 0.0000 0.0000 0.0000 0.0000 39.7419 0.0000
# 6 0.0000 0.0000 0.0000 0.0000 0.0000 5.8240
#
#
#
# Elastic Compliance Matrix: (Units=1/GPa)
#
#
# Indices 1 2 3 4 5 6 
#
# 1 0.015710 -0.006806 -0.005445 0.000000 0.000000 0.000000
# 2 -0.006806 0.013372 -0.002479 0.000000 0.000000 0.000000
# 3 -0.005445 -0.002479 0.025979 0.000000 0.000000 0.000000
# 4 0.000000 0.000000 0.000000 0.044582 0.000000 0.000000
# 5 0.000000 0.000000 0.000000 0.000000 0.025162 0.000000
# 6 0.000000 0.000000 0.000000 0.000000 0.000000 0.171703
#
#
# Mechanical properties :
#
#
# Convention : Reuss Voigt Hill
#
# Bulk Modulus (GPa) = 39.06288 49.55782 44.31035
# Shear Modulus (GPa) = 14.94753 23.42925 19.18839
#
# Velocity S-wave (km/s) = 2.95639 3.70132 3.34963
# Velocity P-wave (km/s) = 5.87324 6.87345 6.39294
#
# Compressibility (1/GPa) = 0.02559975
#
# Stress axis : x y z
#
# Youngs Moduli (GPa) = 63.65442 74.78444 38.49189
#
# Poissons Ratio (x) = 0.50899 0.20961
# Poissons Ratio (y) = 0.43324 0.09543
# Poissons Ratio (z) = 0.34663 0.18540
#
# Static dielectric constant tensor:
#      x y z
#    x 3.280870 0.000000 0.000000 
#    y 0.000000 3.387990 0.000000 
#    z 0.000000 0.000000 2.978870 
# 
# 
# High freq. dielectric constant tensor:
#      x y z
#    x 1.663980 0.000000 0.000000 
#    y 0.000000 1.671460 0.000000 
#    z 0.000000 0.000000 1.629660 
# 
# From -- ./inp_files/39081.got.cif
#   From: 2010.03.12/outbox.cif.g09.slc.cpg/sg67_20_cif.got.tgz:39081.got - 2010.04.10 22:41:39.
