data_PCOD8278848
_publ_section_title
;
Structure prediction by ZEFSAII (Michael W. Deem and Ramdas Pophale) SiO2 
 PCOD8278848
Probable space group: C M M A
;
_chemical_formula_sum "Si O2"
_cell_formula_units_Z 80
_cell_length_a 24.349686
_cell_length_b 33.757622
_cell_length_c 5.222199
_cell_angle_alpha 90.000000
_cell_angle_beta 90.000000
_cell_angle_gamma 90.000000
_cell_volume 4292.582279
_symmetry_space_group_name_H-M "C M M A"
_symmetry_group_IT_number 67
_symmetry_cell_setting 'orthorhombic'
loop_
_space_group_symop_operation_xyz
x,y,z
-x,1/2-y,z
x,-y,-z
-x,1/2+y,-z
-x,-y,-z
x,1/2+y,-z
-x,y,z
x,1/2-y,z
1/2+x,1/2+y,z
1/2-x,-y,z
1/2+x,1/2-y,-z
1/2-x,y,-z
1/2-x,1/2-y,-z
1/2+x,y,-z
1/2-x,1/2+y,z
1/2+x,-y,z
loop_
_atom_site_type_symbol
_atom_site_label
_atom_site_fract_x
_atom_site_fract_y
_atom_site_fract_z
Si Si1 0.893245 0.573411 0.638172
Si Si2 0.273811 0.545170 0.251327
Si Si3 0.562378 0.959947 0.882855
Si Si4 0.565402 0.841964 0.407381
Si Si5 0.935320 0.706011 0.091173
O O1 0.838450 0.552721 0.745953
O O2 0.906589 0.550163 0.378121
O O3 0.895609 0.619585 0.568084
O O4 0.934614 0.571061 0.881793
O O5 0.250000 0.500000 0.252147
O O6 0.250000 0.567337 0.500000
O O7 0.250000 0.566598 0.000000
O O8 0.500000 0.965717 0.797432
O O9 0.588051 0.000000 0.000000
O O10 0.500000 0.852594 0.412374
O O11 0.582298 0.815163 0.647686
O O12 0.584025 0.819175 0.152667
O O13 0.908823 0.750000 0.082246
O O14 0.000000 0.710351 0.079595
#
# Coordination Sequence:
#
# PCOD8278848 Si02
#       5
#    16  16  16  16  16
#     4  12  23  37  59  78 111 147 187 241 288 328
#     4  10  23  39  58  79  98 133 188 243 296 339
#     4  11  24  37  53  79 110 147 188 224 272 340
#     4  10  19  31  50  78 112 147 181 218 270 328
#     4   9  17  30  49  75 111 151 183 211 251 319
#
# _framework density 18.636799
#
# number of rings (size 3 to 8) (size 9 to 14) (size 15 to 20)
#    0.000    1.600    0.000    5.400    8.400    5.600 
#    0.000    0.000    0.000    0.000    0.000    0.000 
#    0.000   16.000    0.000    0.000    0.000    0.000 
#
# Total GULP energy -495577.683852 kJ/mol
# GULP energy per Si atom -12389.442096 kJ/mol
# Density = 1.859438 g / cm^3
# Si number density = 18.636799 Si / 1000 Ang^3
#
#
#
# Elastic Constant Matrix: (Units=GPa)
#
#
# Indices 1 2 3 4 5 6 
#
# 1 57.7933 53.4250 43.7512 0.0000 0.0000 0.0000
# 2 53.4250 108.5747 44.0181 0.0000 0.0000 0.0000
# 3 43.7512 44.0181 187.1734 0.0000 0.0000 0.0000
# 4 0.0000 0.0000 0.0000 10.0153 0.0000 0.0000
# 5 0.0000 0.0000 0.0000 0.0000 44.5587 0.0000
# 6 0.0000 0.0000 0.0000 0.0000 0.0000 17.2504
#
#
#
# Elastic Compliance Matrix: (Units=1/GPa)
#
#
# Indices 1 2 3 4 5 6 
#
# 1 0.034937 -0.015343 -0.004558 0.000000 0.000000 0.000000
# 2 -0.015343 0.016919 -0.000393 0.000000 0.000000 0.000000
# 3 -0.004558 -0.000393 0.006500 0.000000 0.000000 0.000000
# 4 0.000000 0.000000 0.000000 0.099848 0.000000 0.000000
# 5 0.000000 0.000000 0.000000 0.000000 0.022442 0.000000
# 6 0.000000 0.000000 0.000000 0.000000 0.000000 0.057970
#
#
# Mechanical properties :
#
#
# Convention : Reuss Voigt Hill
#
# Bulk Modulus (GPa) = 56.27768 70.65891 63.46830
# Shear Modulus (GPa) = 17.53606 28.52134 23.02870
#
# Velocity S-wave (km/s) = 3.07080 3.91625 3.51901
# Velocity P-wave (km/s) = 6.54490 7.64495 7.11621
#
# Compressibility (1/GPa) = 0.01776903
#
# Stress axis : x y z
#
# Youngs Moduli (GPa) = 28.62285 59.10483 153.83672
#
# Poissons Ratio (x) = 0.90685 0.70121
# Poissons Ratio (y) = 0.43916 0.06038
# Poissons Ratio (z) = 0.13047 0.02320
#
# Static dielectric constant tensor:
#      x y z
#    x 3.011770 0.000000 0.000000 
#    y 0.000000 3.447960 0.000000 
#    z 0.000000 0.000000 4.556330 
# 
# 
# High freq. dielectric constant tensor:
#      x y z
#    x 1.670580 0.000000 0.000000 
#    y 0.000000 1.704570 0.000000 
#    z 0.000000 0.000000 1.764220 
# 
# From -- ./inp_files/3541.got.cif
#   From: 2010.03.12/outbox.cif.g09.slc.cpg/sg67_2_cif.got.tgz:3541.got - 2010.04.10 22:41:39.
