data_PCOD8278649
_publ_section_title
;
Structure prediction by ZEFSAII (Michael W. Deem and Ramdas Pophale) SiO2 
 PCOD8278649
Probable space group: C M M A
;
_chemical_formula_sum "Si O2"
_cell_formula_units_Z 104
_cell_length_a 25.137389
_cell_length_b 8.813659
_cell_length_c 30.105609
_cell_angle_alpha 90.000000
_cell_angle_beta 90.000000
_cell_angle_gamma 90.000000
_cell_volume 6669.969169
_symmetry_space_group_name_H-M "C M M A"
_symmetry_group_IT_number 67
_symmetry_cell_setting 'orthorhombic'
loop_
_space_group_symop_operation_xyz
x,y,z
-x,1/2-y,z
x,-y,-z
-x,1/2+y,-z
-x,-y,-z
x,1/2+y,-z
-x,y,z
x,1/2-y,z
1/2+x,1/2+y,z
1/2-x,-y,z
1/2+x,1/2-y,-z
1/2-x,y,-z
1/2-x,1/2-y,-z
1/2+x,y,-z
1/2-x,1/2+y,z
1/2+x,-y,z
loop_
_atom_site_type_symbol
_atom_site_label
_atom_site_fract_x
_atom_site_fract_y
_atom_site_fract_z
Si Si1 0.937677 0.573689 0.810939
Si Si2 0.436575 0.079285 0.455716
Si Si3 0.063223 0.920211 0.278903
Si Si4 0.000000 0.071547 0.951972
Si Si5 0.807155 0.069176 0.046379
Si Si6 0.936538 0.420795 0.367074
Si Si7 0.602758 0.570888 0.897296
O O1 0.924747 0.750000 0.817541
O O2 0.917764 0.522306 0.762397
O O3 0.905637 0.474017 0.846306
O O4 0.000000 0.539603 0.816658
O O5 0.500000 0.074767 0.455839
O O6 0.415194 0.250000 0.454925
O O7 0.414090 0.000000 0.500000
O O8 0.414253 0.995487 0.412111
O O9 0.085347 0.750000 0.273224
O O10 0.000000 0.919275 0.281291
O O11 0.086255 0.989816 0.324468
O O12 0.948254 0.016675 0.925369
O O13 0.000000 0.250000 0.957415
O O14 0.000000 0.000000 0.000000
O O15 0.803434 0.250000 0.042501
O O16 0.750000 0.000000 0.057958
O O17 0.846657 0.020925 0.085286
O O18 0.828390 0.000000 0.000000
O O19 0.915206 0.250000 0.364686
O O20 0.000000 0.424708 0.367031
O O21 0.612589 0.750000 0.901258
#
# Coordination Sequence:
#
# PCOD8278649 Si02
#       7
#    16  16  16   8  16  16  16
#     4  10  19  30  44  63  86 113 142 173 209 253
#     4   9  15  21  28  38  53  74 102 139 186 237
#     4   9  16  25  37  51  69  95 125 159 197 241
#     4  10  22  34  48  68  94 122 148 174 209 252
#     4  11  22  38  57  77  96 120 149 182 217 255
#     4   9  15  22  31  43  59  80 110 148 189 236
#     4  11  21  35  51  71  95 123 150 180 216 258
#
# _framework density 15.592276999999999
#
# number of rings (size 3 to 8) (size 9 to 14) (size 15 to 20)
#    0.000    2.154    0.769    4.615    0.000    8.615 
#    0.000    0.000    0.000    0.000    0.000    0.000 
#    0.000    0.000    0.000    0.000    0.000    0.000 
#
# Total GULP energy -644848.275176 kJ/mol
# GULP energy per Si atom -12400.928369 kJ/mol
# Density = 1.555679 g / cm^3
# Si number density = 15.592277 Si / 1000 Ang^3
#
#
#
# Elastic Constant Matrix: (Units=GPa)
#
#
# Indices 1 2 3 4 5 6 
#
# 1 32.2730 22.5945 26.9792 0.0000 0.0000 0.0000
# 2 22.5945 111.9007 47.1994 0.0000 0.0000 0.0000
# 3 26.9792 47.1994 131.8285 0.0000 0.0000 0.0000
# 4 0.0000 0.0000 0.0000 35.9235 0.0000 0.0000
# 5 0.0000 0.0000 0.0000 0.0000 5.3457 0.0000
# 6 0.0000 0.0000 0.0000 0.0000 0.0000 13.6178
#
#
#
# Elastic Compliance Matrix: (Units=1/GPa)
#
#
# Indices 1 2 3 4 5 6 
#
# 1 0.040015 -0.005448 -0.006239 0.000000 0.000000 0.000000
# 2 -0.005448 0.011268 -0.002919 0.000000 0.000000 0.000000
# 3 -0.006239 -0.002919 0.009908 0.000000 0.000000 0.000000
# 4 0.000000 0.000000 0.000000 0.027837 0.000000 0.000000
# 5 0.000000 0.000000 0.000000 0.000000 0.187066 0.000000
# 6 0.000000 0.000000 0.000000 0.000000 0.000000 0.073433
#
#
# Mechanical properties :
#
#
# Convention : Reuss Voigt Hill
#
# Bulk Modulus (GPa) = 31.27109 52.17204 41.72157
# Shear Modulus (GPa) = 12.84031 22.92602 17.88317
#
# Velocity S-wave (km/s) = 2.87279 3.83867 3.39030
# Velocity P-wave (km/s) = 5.57700 7.29246 6.49165
#
# Compressibility (1/GPa) = 0.03197842
#
# Stress axis : x y z
#
# Youngs Moduli (GPa) = 24.99045 88.74728 100.93269
#
# Poissons Ratio (x) = 0.48352 0.62968
# Poissons Ratio (y) = 0.13616 0.29466
# Poissons Ratio (z) = 0.15591 0.25908
#
# Static dielectric constant tensor:
#      x y z
#    x 2.420020 0.000000 0.000000 
#    y 0.000000 3.163780 0.000000 
#    z 0.000000 0.000000 3.145830 
# 
# 
# High freq. dielectric constant tensor:
#      x y z
#    x 1.513670 0.000000 0.000000 
#    y 0.000000 1.620030 0.000000 
#    z 0.000000 0.000000 1.612950 
# 
# From -- ./inp_files/44826.got.cif
#   From: 2010.03.12/outbox.cif.g09.slc.cpg/sg67_23_cif.got.tgz:44826.got - 2010.04.10 22:41:39.
