data_PCOD8278095
_publ_section_title
;
Structure prediction by ZEFSAII (Michael W. Deem and Ramdas Pophale) SiO2 
 PCOD8278095
Probable space group: C M M A
;
_chemical_formula_sum "Si O2"
_cell_formula_units_Z 72
_cell_length_a 15.813518
_cell_length_b 8.644454
_cell_length_c 24.730523
_cell_angle_alpha 90.000000
_cell_angle_beta 90.000000
_cell_angle_gamma 90.000000
_cell_volume 3380.643425
_symmetry_space_group_name_H-M "C M M A"
_symmetry_group_IT_number 67
_symmetry_cell_setting 'orthorhombic'
loop_
_space_group_symop_operation_xyz
x,y,z
-x,1/2-y,z
x,-y,-z
-x,1/2+y,-z
-x,-y,-z
x,1/2+y,-z
-x,y,z
x,1/2-y,z
1/2+x,1/2+y,z
1/2-x,-y,z
1/2+x,1/2-y,-z
1/2-x,y,-z
1/2-x,1/2-y,-z
1/2+x,y,-z
1/2-x,1/2+y,z
1/2+x,-y,z
loop_
_atom_site_type_symbol
_atom_site_label
_atom_site_fract_x
_atom_site_fract_y
_atom_site_fract_z
Si Si1 0.904320 0.576760 0.765440
Si Si2 0.844253 0.567034 0.553908
Si Si3 0.000000 0.066777 0.940482
Si Si4 0.339114 0.932555 0.120348
Si Si5 0.658297 0.930072 0.661744
O O1 0.880549 0.750000 0.745765
O O2 0.846341 0.527621 0.815863
O O3 0.895405 0.459825 0.715515
O O4 0.000000 0.570657 0.786670
O O5 0.890342 0.500000 0.500000
O O6 0.844197 0.750000 0.550896
O O7 0.750000 0.500000 0.555725
O O8 0.887717 0.509580 0.609636
O O9 0.000000 0.250000 0.942276
O O10 0.915433 0.011340 0.911052
O O11 0.000000 0.000000 0.000000
O O12 0.342972 0.750000 0.110048
O O13 0.250000 0.000000 0.099235
O O14 0.665501 0.750000 0.649789
O O15 0.750000 0.000000 0.672271
#
# Coordination Sequence:
#
# PCOD8278095 Si02
#       5
#    16  16   8  16  16
#     4  10  21  39  61  86 120 160 201 253 313 373
#     4  10  17  28  46  70 102 140 184 238 300 365
#     4  12  26  46  72 102 138 180 223 272 323 380
#     4  11  23  43  69 101 136 176 221 271 325 386
#     4  11  21  33  51  79 112 148 194 246 300 367
#
# _framework density 21.297720999999999
#
# number of rings (size 3 to 8) (size 9 to 14) (size 15 to 20)
#    0.000    1.333    1.111    8.333    0.000    4.444 
#    0.000    2.222    0.000    0.667    0.000    0.000 
#    0.000    0.000    0.000    0.000    0.000    0.000 
#
# Total GULP energy -446388.966490 kJ/mol
# GULP energy per Si atom -12399.693514 kJ/mol
# Density = 2.124925 g / cm^3
# Si number density = 21.297721 Si / 1000 Ang^3
#
#
#
# Elastic Constant Matrix: (Units=GPa)
#
#
# Indices 1 2 3 4 5 6 
#
# 1 101.6888 43.4978 48.9730 0.0000 0.0000 0.0000
# 2 43.4978 188.8612 75.9312 0.0000 0.0000 0.0000
# 3 48.9730 75.9312 138.7154 0.0000 0.0000 0.0000
# 4 0.0000 0.0000 0.0000 38.7975 0.0000 0.0000
# 5 0.0000 0.0000 0.0000 0.0000 10.2382 0.0000
# 6 0.0000 0.0000 0.0000 0.0000 0.0000 27.6054
#
#
#
# Elastic Compliance Matrix: (Units=1/GPa)
#
#
# Indices 1 2 3 4 5 6 
#
# 1 0.012120 -0.001373 -0.003527 0.000000 0.000000 0.000000
# 2 -0.001373 0.006945 -0.003317 0.000000 0.000000 0.000000
# 3 -0.003527 -0.003317 0.010270 0.000000 0.000000 0.000000
# 4 0.000000 0.000000 0.000000 0.025775 0.000000 0.000000
# 5 0.000000 0.000000 0.000000 0.000000 0.097674 0.000000
# 6 0.000000 0.000000 0.000000 0.000000 0.000000 0.036225
#
#
# Mechanical properties :
#
#
# Convention : Reuss Voigt Hill
#
# Bulk Modulus (GPa) = 77.51811 85.11882 81.31847
# Shear Modulus (GPa) = 23.83880 32.71910 28.27895
#
# Velocity S-wave (km/s) = 3.34924 3.92378 3.64784
# Velocity P-wave (km/s) = 7.17168 7.78338 7.48378
#
# Compressibility (1/GPa) = 0.01290021
#
# Stress axis : x y z
#
# Youngs Moduli (GPa) = 82.50775 143.99670 97.37382
#
# Poissons Ratio (x) = 0.19776 0.34346
# Poissons Ratio (y) = 0.11331 0.32294
# Poissons Ratio (z) = 0.29102 0.47757
#
# Static dielectric constant tensor:
#      x y z
#    x 3.559380 0.000000 0.000000 
#    y 0.000000 3.934460 0.000000 
#    z 0.000000 0.000000 4.331310 
# 
# 
# High freq. dielectric constant tensor:
#      x y z
#    x 1.809060 0.000000 0.000000 
#    y 0.000000 1.845340 0.000000 
#    z 0.000000 0.000000 1.850310 
# 
# From -- ./inp_files/44241.got.cif
#   From: 2010.03.12/outbox.cif.g09.slc.cpg/sg67_23_cif.got.tgz:44241.got - 2010.04.10 22:41:39.
