data_PCOD8278755
_publ_section_title
;
Structure prediction by ZEFSAII (Michael W. Deem and Ramdas Pophale) SiO2 
 PCOD8278755
Probable space group: C M M A
;
_chemical_formula_sum "Si O2"
_cell_formula_units_Z 96
_cell_length_a 27.462368
_cell_length_b 9.001405
_cell_length_c 23.720025
_cell_angle_alpha 90.000000
_cell_angle_beta 90.000000
_cell_angle_gamma 90.000000
_cell_volume 5863.587728
_symmetry_space_group_name_H-M "C M M A"
_symmetry_group_IT_number 67
_symmetry_cell_setting 'orthorhombic'
loop_
_space_group_symop_operation_xyz
x,y,z
-x,1/2-y,z
x,-y,-z
-x,1/2+y,-z
-x,-y,-z
x,1/2+y,-z
-x,y,z
x,1/2-y,z
1/2+x,1/2+y,z
1/2-x,-y,z
1/2+x,1/2-y,-z
1/2-x,y,-z
1/2-x,1/2-y,-z
1/2+x,y,-z
1/2-x,1/2+y,z
1/2+x,-y,z
loop_
_atom_site_type_symbol
_atom_site_label
_atom_site_fract_x
_atom_site_fract_y
_atom_site_fract_z
Si Si1 0.945425 0.924309 0.277831
Si Si2 0.639780 0.577043 0.333024
Si Si3 0.444555 0.424953 0.056742
Si Si4 0.301360 0.073616 0.557191
Si Si5 0.801655 0.925338 0.776431
Si Si6 0.887683 0.424542 0.833044
O O1 0.945153 0.750000 0.287259
O O2 0.925664 0.966184 0.216090
O O3 0.000000 0.988233 0.283605
O O4 0.911648 0.995127 0.326011
O O5 0.629459 0.750000 0.327702
O O6 0.661095 0.533762 0.393587
O O7 0.677803 0.526840 0.284792
O O8 0.500000 0.475932 0.068542
O O9 0.441702 0.250000 0.049133
O O10 0.411231 0.477807 0.108469
O O11 0.424290 0.500000 0.000000
O O12 0.294606 0.250000 0.549799
O O13 0.321951 0.000000 0.500000
O O14 0.250000 0.000000 0.572794
O O15 0.796093 0.750000 0.782272
O O16 0.750000 0.000000 0.785613
O O17 0.837787 0.985556 0.824657
O O18 0.876073 0.250000 0.832886
#
# Coordination Sequence:
#
# PCOD8278755 Si02
#       6
#    16  16  16  16  16  16
#     4   9  17  29  47  70  93 119 152 187 223 266
#     4   9  19  32  46  67  94 122 150 183 224 269
#     4   9  17  29  46  68  94 123 153 185 222 265
#     4  10  19  31  47  68  93 120 151 185 224 268
#     4  10  19  31  47  68  93 120 151 185 224 269
#     4   9  17  30  47  67  93 123 152 184 224 267
#
# _framework density 16.372228
#
# number of rings (size 3 to 8) (size 9 to 14) (size 15 to 20)
#    0.000    2.667    0.000    2.500    0.000    5.000 
#    0.000    0.000    0.000    4.000    0.000    3.500 
#    0.000    0.000    0.000    0.000    0.000    0.000 
#
# Total GULP energy -595242.314114 kJ/mol
# GULP energy per Si atom -12400.881544 kJ/mol
# Density = 1.633496 g / cm^3
# Si number density = 16.372228 Si / 1000 Ang^3
#
#
#
# Elastic Constant Matrix: (Units=GPa)
#
#
# Indices 1 2 3 4 5 6 
#
# 1 141.4761 50.3955 76.9963 0.0000 0.0000 0.0000
# 2 50.3955 52.0167 44.6938 0.0000 0.0000 0.0000
# 3 76.9963 44.6938 125.8029 0.0000 0.0000 0.0000
# 4 0.0000 0.0000 0.0000 27.6949 0.0000 0.0000
# 5 0.0000 0.0000 0.0000 0.0000 26.0776 0.0000
# 6 0.0000 0.0000 0.0000 0.0000 0.0000 28.7908
#
#
#
# Elastic Compliance Matrix: (Units=1/GPa)
#
#
# Indices 1 2 3 4 5 6 
#
# 1 0.012553 -0.008004 -0.004840 0.000000 0.000000 0.000000
# 2 -0.008004 0.032774 -0.006745 0.000000 0.000000 0.000000
# 3 -0.004840 -0.006745 0.013307 0.000000 0.000000 0.000000
# 4 0.000000 0.000000 0.000000 0.036108 0.000000 0.000000
# 5 0.000000 0.000000 0.000000 0.000000 0.038347 0.000000
# 6 0.000000 0.000000 0.000000 0.000000 0.000000 0.034733
#
#
# Mechanical properties :
#
#
# Convention : Reuss Voigt Hill
#
# Bulk Modulus (GPa) = 51.39262 73.71857 62.55559
# Shear Modulus (GPa) = 23.42074 26.32666 24.87370
#
# Velocity S-wave (km/s) = 3.78632 4.01435 3.90200
# Velocity P-wave (km/s) = 7.11149 8.16156 7.65455
#
# Compressibility (1/GPa) = 0.01945805
#
# Stress axis : x y z
#
# Youngs Moduli (GPa) = 79.66071 30.51163 75.14663
#
# Poissons Ratio (x) = 0.24421 0.36368
# Poissons Ratio (y) = 0.63758 0.50687
# Poissons Ratio (z) = 0.38553 0.20580
#
# Static dielectric constant tensor:
#      x y z
#    x 3.093700 0.000000 0.000000 
#    y 0.000000 3.064350 0.000000 
#    z 0.000000 0.000000 3.115500 
# 
# 
# High freq. dielectric constant tensor:
#      x y z
#    x 1.621540 0.000000 0.000000 
#    y 0.000000 1.632030 0.000000 
#    z 0.000000 0.000000 1.621130 
# 
# From -- ./inp_files/40913.got.cif
#   From: 2010.03.12/outbox.cif.g09.slc.cpg/sg67_21_cif.got.tgz:40913.got - 2010.04.10 22:41:39.
