data_PCOD8278074
_publ_section_title
;
Structure prediction by ZEFSAII (Michael W. Deem and Ramdas Pophale) SiO2 
 PCOD8278074
Probable space group: C M M A
;
_chemical_formula_sum "Si O2"
_cell_formula_units_Z 96
_cell_length_a 24.931623
_cell_length_b 18.998121
_cell_length_c 11.782903
_cell_angle_alpha 90.000000
_cell_angle_beta 90.000000
_cell_angle_gamma 90.000000
_cell_volume 5581.019025
_symmetry_space_group_name_H-M "C M M A"
_symmetry_group_IT_number 67
_symmetry_cell_setting 'orthorhombic'
loop_
_space_group_symop_operation_xyz
x,y,z
-x,1/2-y,z
x,-y,-z
-x,1/2+y,-z
-x,-y,-z
x,1/2+y,-z
-x,y,z
x,1/2-y,z
1/2+x,1/2+y,z
1/2-x,-y,z
1/2+x,1/2-y,-z
1/2-x,y,-z
1/2-x,1/2-y,-z
1/2+x,y,-z
1/2-x,1/2+y,z
1/2+x,-y,z
loop_
_atom_site_type_symbol
_atom_site_label
_atom_site_fract_x
_atom_site_fract_y
_atom_site_fract_z
Si Si1 0.311365 0.416409 0.993277
Si Si2 0.353771 0.571656 0.245216
Si Si3 0.751082 0.916021 0.626839
Si Si4 0.438430 0.931678 0.430879
Si Si5 0.651167 0.094732 0.230963
Si Si6 0.938649 0.169317 0.633732
O O1 0.345889 0.395198 0.880918
O O2 0.308886 0.500000 0.000000
O O3 0.250000 0.388000 0.000000
O O4 0.342007 0.382426 0.100168
O O5 0.306663 0.607504 0.317635
O O6 0.409174 0.586389 0.311898
O O7 0.350083 0.488504 0.238171
O O8 0.750000 0.886332 0.500000
O O9 0.701875 0.880435 0.694152
O O10 0.750000 0.000000 0.629527
O O11 0.500000 0.947099 0.399654
O O12 0.431069 0.863926 0.509761
O O13 0.414899 0.000000 0.500000
O O14 0.596579 0.129077 0.273799
O O15 0.920662 0.250000 0.625920
O O16 0.000000 0.161581 0.674038
#
# Coordination Sequence:
#
# PCOD8278074 Si02
#       6
#    16  16  16  16  16  16
#     4   9  16  28  44  73 107 138 169 206 256 309
#     4  10  17  27  47  76 106 133 167 213 263 308
#     4   9  16  22  39  71 101 127 162 205 255 308
#     4  10  19  32  52  76 103 134 170 217 271 316
#     4  10  17  29  48  71 104 138 171 212 255 305
#     4  10  21  36  54  75 102 139 177 213 262 320
#
# _framework density 17.201160000000002
#
# number of rings (size 3 to 8) (size 9 to 14) (size 15 to 20)
#    0.000    2.333    3.333    1.000    2.333    0.000 
#    0.000    0.833    0.000    9.000    0.000    2.333 
#    0.000    0.000    0.000    0.000    0.000    0.000 
#
# Total GULP energy -594845.346297 kJ/mol
# GULP energy per Si atom -12392.611381 kJ/mol
# Density = 1.716201 g / cm^3
# Si number density = 17.201160 Si / 1000 Ang^3
#
#
#
# Elastic Constant Matrix: (Units=GPa)
#
#
# Indices 1 2 3 4 5 6 
#
# 1 98.1284 14.8374 73.5618 0.0000 0.0000 0.0000
# 2 14.8374 27.0607 21.2892 0.0000 0.0000 0.0000
# 3 73.5618 21.2892 168.1405 0.0000 0.0000 0.0000
# 4 0.0000 0.0000 0.0000 8.1969 0.0000 0.0000
# 5 0.0000 0.0000 0.0000 0.0000 26.3857 0.0000
# 6 0.0000 0.0000 0.0000 0.0000 0.0000 10.5970
#
#
#
# Elastic Compliance Matrix: (Units=1/GPa)
#
#
# Indices 1 2 3 4 5 6 
#
# 1 0.015458 -0.003504 -0.006319 0.000000 0.000000 0.000000
# 2 -0.003504 0.041837 -0.003764 0.000000 0.000000 0.000000
# 3 -0.006319 -0.003764 0.009189 0.000000 0.000000 0.000000
# 4 0.000000 0.000000 0.000000 0.121997 0.000000 0.000000
# 5 0.000000 0.000000 0.000000 0.000000 0.037899 0.000000
# 6 0.000000 0.000000 0.000000 0.000000 0.000000 0.094366
#
#
# Mechanical properties :
#
#
# Convention : Reuss Voigt Hill
#
# Bulk Modulus (GPa) = 25.43992 56.96737 41.20365
# Shear Modulus (GPa) = 13.84954 21.27866 17.56410
#
# Velocity S-wave (km/s) = 2.84060 3.52099 3.19893
# Velocity P-wave (km/s) = 5.05771 7.05124 6.13598
#
# Compressibility (1/GPa) = 0.03930829
#
# Stress axis : x y z
#
# Youngs Moduli (GPa) = 64.69288 23.90252 108.83031
#
# Poissons Ratio (x) = 0.08376 0.68771
# Poissons Ratio (y) = 0.22669 0.40965
# Poissons Ratio (z) = 0.40880 0.08997
#
# Static dielectric constant tensor:
#      x y z
#    x 3.283900 0.000000 0.000000 
#    y 0.000000 2.723190 0.000000 
#    z 0.000000 0.000000 3.600430 
# 
# 
# High freq. dielectric constant tensor:
#      x y z
#    x 1.665350 0.000000 0.000000 
#    y 0.000000 1.603190 0.000000 
#    z 0.000000 0.000000 1.670200 
# 
# From -- ./inp_files/19775.got.cif
#   From: 2010.03.12/outbox.cif.g09.slc.cpg/sg67_10_cif.got.tgz:19775.got - 2010.04.10 22:41:39.
