data_PCOD8278539
_publ_section_title
;
Structure prediction by ZEFSAII (Michael W. Deem and Ramdas Pophale) SiO2 
 PCOD8278539
Probable space group: C M M A
;
_chemical_formula_sum "Si O2"
_cell_formula_units_Z 96
_cell_length_a 18.224131
_cell_length_b 13.292827
_cell_length_c 21.390361
_cell_angle_alpha 90.000000
_cell_angle_beta 90.000000
_cell_angle_gamma 90.000000
_cell_volume 5181.819671
_symmetry_space_group_name_H-M "C M M A"
_symmetry_group_IT_number 67
_symmetry_cell_setting 'orthorhombic'
loop_
_space_group_symop_operation_xyz
x,y,z
-x,1/2-y,z
x,-y,-z
-x,1/2+y,-z
-x,-y,-z
x,1/2+y,-z
-x,y,z
x,1/2-y,z
1/2+x,1/2+y,z
1/2-x,-y,z
1/2+x,1/2-y,-z
1/2-x,y,-z
1/2-x,1/2-y,-z
1/2+x,y,-z
1/2-x,1/2+y,z
1/2+x,-y,z
loop_
_atom_site_type_symbol
_atom_site_label
_atom_site_fract_x
_atom_site_fract_y
_atom_site_fract_z
Si Si1 0.418483 0.926566 0.557777
Si Si2 0.586895 0.036598 0.189009
Si Si3 0.837096 0.750000 0.999808
Si Si4 0.586641 0.250000 0.632636
Si Si5 0.083865 0.139462 0.099349
Si Si6 0.413380 0.250000 0.131930
Si Si7 0.836079 0.750000 0.499175
Si Si8 0.913253 0.962006 0.679893
O O1 0.500000 0.882146 0.571621
O O2 0.360162 0.843750 0.541370
O O3 0.384797 0.980523 0.618683
O O4 0.425380 0.000000 0.500000
O O5 0.500000 0.025991 0.191210
O O6 0.609613 0.149863 0.170223
O O7 0.620529 0.011526 0.257335
O O8 0.616843 0.951018 0.141224
O O9 0.867031 0.750000 0.069377
O O10 0.750000 0.750000 0.000000
O O11 0.867684 0.649927 0.964100
O O12 0.500000 0.250000 0.616196
O O13 0.628936 0.250000 0.567442
O O14 0.609968 0.345565 0.674089
O O15 0.087015 0.250000 0.134138
O O16 0.000000 0.114831 0.080254
O O17 0.500000 0.250000 0.116909
O O18 0.750000 0.750000 0.500000
O O19 0.000000 0.969978 0.682269
#
# Coordination Sequence:
#
# PCOD8278539 Si02
#       8
#    16  16   8   8  16   8   8  16
#     4  10  19  35  57  81 108 140 182 232 285 330
#     4   9  18  32  54  85 112 144 181 226 278 329
#     4  10  20  35  56  82 110 142 186 226 271 322
#     4  10  18  33  56  83 108 133 180 235 278 320
#     4   8  16  32  54  80 109 136 176 224 274 317
#     4  10  20  35  54  79 116 146 179 219 270 335
#     4  12  24  35  52  78 110 145 181 226 279 340
#     4   9  18  31  55  85 110 138 180 230 278 327
#
# _framework density 18.526311
#
# number of rings (size 3 to 8) (size 9 to 14) (size 15 to 20)
#    0.500    2.000    1.667    1.250    1.167    1.667 
#    0.000    6.667    0.000    6.000    0.000    0.000 
#    0.000    0.000    0.000    0.000    0.000    0.000 
#
# Total GULP energy -594811.112877 kJ/mol
# GULP energy per Si atom -12391.898185 kJ/mol
# Density = 1.848414 g / cm^3
# Si number density = 18.526311 Si / 1000 Ang^3
#
#
#
# Elastic Constant Matrix: (Units=GPa)
#
#
# Indices 1 2 3 4 5 6 
#
# 1 69.0688 43.8241 40.4467 0.0000 0.0000 0.0000
# 2 43.8241 152.1201 82.9569 0.0000 0.0000 0.0000
# 3 40.4467 82.9569 164.1488 0.0000 0.0000 0.0000
# 4 0.0000 0.0000 0.0000 34.6849 0.0000 0.0000
# 5 0.0000 0.0000 0.0000 0.0000 7.4783 0.0000
# 6 0.0000 0.0000 0.0000 0.0000 0.0000 10.8430
#
#
#
# Elastic Compliance Matrix: (Units=1/GPa)
#
#
# Indices 1 2 3 4 5 6 
#
# 1 0.018470 -0.003919 -0.002570 0.000000 0.000000 0.000000
# 2 -0.003919 0.009906 -0.004041 0.000000 0.000000 0.000000
# 3 -0.002570 -0.004041 0.008767 0.000000 0.000000 0.000000
# 4 0.000000 0.000000 0.000000 0.028831 0.000000 0.000000
# 5 0.000000 0.000000 0.000000 0.000000 0.133719 0.000000
# 6 0.000000 0.000000 0.000000 0.000000 0.000000 0.092226
#
#
# Mechanical properties :
#
#
# Convention : Reuss Voigt Hill
#
# Bulk Modulus (GPa) = 62.17632 79.97702 71.07667
# Shear Modulus (GPa) = 15.70635 25.14190 20.42413
#
# Velocity S-wave (km/s) = 2.91484 3.68787 3.32390
# Velocity P-wave (km/s) = 6.70539 7.83562 7.29244
#
# Compressibility (1/GPa) = 0.01608329
#
# Stress axis : x y z
#
# Youngs Moduli (GPa) = 54.14070 100.94434 114.05788
#
# Poissons Ratio (x) = 0.39564 0.29317
# Poissons Ratio (y) = 0.21220 0.46088
# Poissons Ratio (z) = 0.13916 0.40789
#
# Static dielectric constant tensor:
#      x y z
#    x 2.935470 0.000000 0.000000 
#    y 0.000000 3.565330 0.000000 
#    z 0.000000 0.000000 3.576230 
# 
# 
# High freq. dielectric constant tensor:
#      x y z
#    x 1.666480 0.000000 0.000000 
#    y 0.000000 1.724630 0.000000 
#    z 0.000000 0.000000 1.719360 
# 
# From -- ./inp_files/42194.got.cif
#   From: 2010.03.12/outbox.cif.g09.slc.cpg/sg67_22_cif.got.tgz:42194.got - 2010.04.10 22:41:39.
