data_PCOD8278644
_publ_section_title
;
Structure prediction by ZEFSAII (Michael W. Deem and Ramdas Pophale) SiO2 
 PCOD8278644
Probable space group: C M M A
;
_chemical_formula_sum "Si O2"
_cell_formula_units_Z 96
_cell_length_a 9.065461
_cell_length_b 30.514237
_cell_length_c 20.847871
_cell_angle_alpha 90.000000
_cell_angle_beta 90.000000
_cell_angle_gamma 90.000000
_cell_volume 5767.055355
_symmetry_space_group_name_H-M "C M M A"
_symmetry_group_IT_number 67
_symmetry_cell_setting 'orthorhombic'
loop_
_space_group_symop_operation_xyz
x,y,z
-x,1/2-y,z
x,-y,-z
-x,1/2+y,-z
-x,-y,-z
x,1/2+y,-z
-x,y,z
x,1/2-y,z
1/2+x,1/2+y,z
1/2-x,-y,z
1/2+x,1/2-y,-z
1/2-x,y,-z
1/2-x,1/2-y,-z
1/2+x,y,-z
1/2-x,1/2+y,z
1/2+x,-y,z
loop_
_atom_site_type_symbol
_atom_site_label
_atom_site_fract_x
_atom_site_fract_y
_atom_site_fract_z
Si Si1 0.673152 0.368951 0.704993
Si Si2 0.336057 0.040856 0.426085
Si Si3 0.326805 0.629539 0.438944
Si Si4 0.663442 0.957991 0.723345
Si Si5 0.172057 0.799967 0.811338
Si Si6 0.666116 0.302195 0.062020
O O1 0.500000 0.379343 0.705359
O O2 0.721660 0.354478 0.632551
O O3 0.751732 0.412085 0.733179
O O4 0.716648 0.328302 0.749700
O O5 0.500000 0.047580 0.456336
O O6 0.226038 0.079840 0.443148
O O7 0.355966 0.033691 0.351214
O O8 0.250000 0.000000 0.456445
O O9 0.500000 0.634129 0.448436
O O10 0.250000 0.654858 0.500000
O O11 0.500000 0.954989 0.755066
O O12 0.750000 0.000000 0.753603
O O13 0.218538 0.750000 0.796514
O O14 0.256141 0.818905 0.873250
O O15 0.000000 0.803358 0.826775
O O16 0.500000 0.320113 0.060901
O O17 0.670498 0.250000 0.060086
O O18 0.750000 0.321450 0.000000
#
# Coordination Sequence:
#
# PCOD8278644 Si02
#       6
#    16  16  16  16  16  16
#     4   9  18  31  46  64  87 115 148 187 229 273
#     4   9  16  26  39  56  77 101 130 166 211 265
#     4  10  19  30  42  56  75 102 138 180 226 272
#     4   9  16  26  42  62  85 113 144 180 222 268
#     4   9  17  30  48  69  93 122 154 186 221 262
#     4   9  16  26  42  66  96 127 154 179 210 253
#
# _framework density 16.646276
#
# number of rings (size 3 to 8) (size 9 to 14) (size 15 to 20)
#    0.000    2.833    0.000    2.000    0.000    7.667 
#    0.000    1.667    0.000    0.500    0.000    0.000 
#    0.000    0.667    0.000    7.000    0.000    4.167 
#
# Total GULP energy -594748.294920 kJ/mol
# GULP energy per Si atom -12390.589478 kJ/mol
# Density = 1.660839 g / cm^3
# Si number density = 16.646276 Si / 1000 Ang^3
#
#
#
# Elastic Constant Matrix: (Units=GPa)
#
#
# Indices 1 2 3 4 5 6 
#
# 1 86.2216 34.4609 49.5343 0.0000 0.0000 0.0000
# 2 34.4609 58.1960 46.3990 0.0000 0.0000 0.0000
# 3 49.5343 46.3990 116.6801 0.0000 0.0000 0.0000
# 4 0.0000 0.0000 0.0000 3.2188 0.0000 0.0000
# 5 0.0000 0.0000 0.0000 0.0000 24.7602 0.0000
# 6 0.0000 0.0000 0.0000 0.0000 0.0000 10.6183
#
#
#
# Elastic Compliance Matrix: (Units=1/GPa)
#
#
# Indices 1 2 3 4 5 6 
#
# 1 0.016748 -0.006221 -0.004636 0.000000 0.000000 0.000000
# 2 -0.006221 0.027471 -0.008283 0.000000 0.000000 0.000000
# 3 -0.004636 -0.008283 0.013833 0.000000 0.000000 0.000000
# 4 0.000000 0.000000 0.000000 0.310674 0.000000 0.000000
# 5 0.000000 0.000000 0.000000 0.000000 0.040387 0.000000
# 6 0.000000 0.000000 0.000000 0.000000 0.000000 0.094177
#
#
# Mechanical properties :
#
#
# Convention : Reuss Voigt Hill
#
# Bulk Modulus (GPa) = 50.57924 57.98733 54.28329
# Shear Modulus (GPa) = 9.12142 16.43304 12.77723
#
# Velocity S-wave (km/s) = 2.34338 3.14537 2.77352
# Velocity P-wave (km/s) = 6.14594 6.93554 6.55265
#
# Compressibility (1/GPa) = 0.01977096
#
# Stress axis : x y z
#
# Youngs Moduli (GPa) = 59.70906 36.40187 72.29341
#
# Poissons Ratio (x) = 0.22645 0.33516
# Poissons Ratio (y) = 0.37145 0.59882
# Poissons Ratio (z) = 0.27682 0.30152
#
# Static dielectric constant tensor:
#      x y z
#    x 3.356310 0.000000 0.000000 
#    y 0.000000 2.780090 0.000000 
#    z 0.000000 0.000000 3.284960 
# 
# 
# High freq. dielectric constant tensor:
#      x y z
#    x 1.655630 0.000000 0.000000 
#    y 0.000000 1.589510 0.000000 
#    z 0.000000 0.000000 1.625990 
# 
# From -- ./inp_files/40789.got.cif
#   From: 2010.03.12/outbox.cif.g09.slc.cpg/sg67_21_cif.got.tgz:40789.got - 2010.04.10 22:41:39.
