data_PCOD8278315
_publ_section_title
;
Structure prediction by ZEFSAII (Michael W. Deem and Ramdas Pophale) SiO2 
 PCOD8278315
Probable space group: C M M A
;
_chemical_formula_sum "Si O2"
_cell_formula_units_Z 80
_cell_length_a 16.608343
_cell_length_b 22.224602
_cell_length_c 11.596658
_cell_angle_alpha 90.000000
_cell_angle_beta 90.000000
_cell_angle_gamma 90.000000
_cell_volume 4280.486653
_symmetry_space_group_name_H-M "C M M A"
_symmetry_group_IT_number 67
_symmetry_cell_setting 'orthorhombic'
loop_
_space_group_symop_operation_xyz
x,y,z
-x,1/2-y,z
x,-y,-z
-x,1/2+y,-z
-x,-y,-z
x,1/2+y,-z
-x,y,z
x,1/2-y,z
1/2+x,1/2+y,z
1/2-x,-y,z
1/2+x,1/2-y,-z
1/2-x,y,-z
1/2-x,1/2-y,-z
1/2+x,y,-z
1/2-x,1/2+y,z
1/2+x,-y,z
loop_
_atom_site_type_symbol
_atom_site_label
_atom_site_fract_x
_atom_site_fract_y
_atom_site_fract_z
Si Si1 0.351833 0.376886 0.257034
Si Si2 0.405491 0.750000 0.750498
Si Si3 0.407572 0.374668 0.516397
Si Si4 0.845906 0.750000 0.506748
Si Si5 0.198196 0.942615 0.687396
Si Si6 0.093177 0.993446 0.131227
O O1 0.365097 0.311045 0.199004
O O2 0.397189 0.380237 0.379506
O O3 0.256862 0.387906 0.276191
O O4 0.390006 0.425717 0.172203
O O5 0.500000 0.750000 0.777540
O O6 0.389433 0.750000 0.615493
O O7 0.500000 0.383998 0.549503
O O8 0.376586 0.310699 0.568189
O O9 0.355773 0.426158 0.577687
O O10 0.750000 0.750000 0.500000
O O11 0.250000 0.000000 0.649243
O O12 0.142699 0.957966 0.796123
O O13 0.000000 0.009321 0.145114
O O14 0.121854 0.000000 0.000000
#
# Coordination Sequence:
#
# PCOD8278315 Si02
#       6
#    16   8  16   8  16  16
#     4  10  20  34  54  80 106 135 173 217 261 307
#     4  10  18  32  52  76 104 134 174 217 258 299
#     4  11  20  33  52  78 110 141 176 214 260 310
#     4  10  18  30  50  75 106 141 174 210 257 313
#     4  10  22  35  51  75 108 141 174 212 260 314
#     4  10  21  38  58  78 101 134 176 218 263 312
#
# _framework density 18.689463
#
# number of rings (size 3 to 8) (size 9 to 14) (size 15 to 20)
#    0.000    1.800    0.000    7.500    0.000    9.200 
#    0.000    5.000    0.000    3.600    0.000    2.800 
#    0.000    0.000    0.000    0.000    0.000    0.000 
#
# Total GULP energy -495989.054136 kJ/mol
# GULP energy per Si atom -12399.726353 kJ/mol
# Density = 1.864693 g / cm^3
# Si number density = 18.689463 Si / 1000 Ang^3
#
#
#
# Elastic Constant Matrix: (Units=GPa)
#
#
# Indices 1 2 3 4 5 6 
#
# 1 130.2341 62.0969 32.5158 0.0000 0.0000 0.0000
# 2 62.0969 124.7016 48.9585 0.0000 0.0000 0.0000
# 3 32.5158 48.9585 77.4279 0.0000 0.0000 0.0000
# 4 0.0000 0.0000 0.0000 9.9266 0.0000 0.0000
# 5 0.0000 0.0000 0.0000 0.0000 22.7349 0.0000
# 6 0.0000 0.0000 0.0000 0.0000 0.0000 28.6136
#
#
#
# Elastic Compliance Matrix: (Units=1/GPa)
#
#
# Indices 1 2 3 4 5 6 
#
# 1 0.010186 -0.004513 -0.001424 0.000000 0.000000 0.000000
# 2 -0.004513 0.012667 -0.006114 0.000000 0.000000 0.000000
# 3 -0.001424 -0.006114 0.017379 0.000000 0.000000 0.000000
# 4 0.000000 0.000000 0.000000 0.100739 0.000000 0.000000
# 5 0.000000 0.000000 0.000000 0.000000 0.043985 0.000000
# 6 0.000000 0.000000 0.000000 0.000000 0.000000 0.034948
#
#
# Mechanical properties :
#
#
# Convention : Reuss Voigt Hill
#
# Bulk Modulus (GPa) = 61.99722 68.83401 65.41562
# Shear Modulus (GPa) = 20.04940 24.84118 22.44529
#
# Velocity S-wave (km/s) = 3.27886 3.64971 3.46925
# Velocity P-wave (km/s) = 6.89774 7.39398 7.15017
#
# Compressibility (1/GPa) = 0.01612976
#
# Stress axis : x y z
#
# Youngs Moduli (GPa) = 98.17471 78.94513 57.53997
#
# Poissons Ratio (x) = 0.35630 0.08193
# Poissons Ratio (y) = 0.44309 0.35181
# Poissons Ratio (z) = 0.13978 0.48268
#
# Static dielectric constant tensor:
#      x y z
#    x 3.634900 0.000000 0.000000 
#    y 0.000000 4.173470 0.000000 
#    z 0.000000 0.000000 3.094710 
# 
# 
# High freq. dielectric constant tensor:
#      x y z
#    x 1.744140 0.000000 0.000000 
#    y 0.000000 1.736790 0.000000 
#    z 0.000000 0.000000 1.681370 
# 
# From -- ./inp_files/17981.got.cif
#   From: 2010.03.12/outbox.cif.g09.slc.cpg/sg67_9_cif.got.tgz:17981.got - 2010.04.10 22:41:39.
