data_PCOD8278096
_publ_section_title
;
Structure prediction by ZEFSAII (Michael W. Deem and Ramdas Pophale) SiO2 
 PCOD8278096
Probable space group: C M M A
;
_chemical_formula_sum "Si O2"
_cell_formula_units_Z 80
_cell_length_a 18.623543
_cell_length_b 8.729557
_cell_length_c 26.353692
_cell_angle_alpha 90.000000
_cell_angle_beta 90.000000
_cell_angle_gamma 90.000000
_cell_volume 4284.458860
_symmetry_space_group_name_H-M "C M M A"
_symmetry_group_IT_number 67
_symmetry_cell_setting 'orthorhombic'
loop_
_space_group_symop_operation_xyz
x,y,z
-x,1/2-y,z
x,-y,-z
-x,1/2+y,-z
-x,-y,-z
x,1/2+y,-z
-x,y,z
x,1/2-y,z
1/2+x,1/2+y,z
1/2-x,-y,z
1/2+x,1/2-y,-z
1/2-x,y,-z
1/2-x,1/2-y,-z
1/2+x,y,-z
1/2-x,1/2+y,z
1/2+x,-y,z
loop_
_atom_site_type_symbol
_atom_site_label
_atom_site_fract_x
_atom_site_fract_y
_atom_site_fract_z
Si Si1 0.670288 0.932302 0.050374
Si Si2 0.585567 0.921399 0.659265
Si Si3 0.327992 0.430084 0.152218
Si Si4 0.918885 0.569437 0.450376
Si Si5 0.415285 0.924209 0.239368
O O1 0.670346 0.750000 0.048291
O O2 0.750000 0.000000 0.051294
O O3 0.634462 0.992389 0.102496
O O4 0.630753 0.000000 0.000000
O O5 0.500000 0.918882 0.655409
O O6 0.613428 0.750000 0.671376
O O7 0.616080 0.978253 0.604213
O O8 0.611672 0.033385 0.704022
O O9 0.320493 0.250000 0.143149
O O10 0.250000 0.500000 0.163056
O O11 0.378544 0.462653 0.199734
O O12 0.878017 0.500000 0.500000
O O13 0.917434 0.750000 0.454786
O O14 0.000000 0.505321 0.450889
O O15 0.500000 0.948491 0.234922
O O16 0.392781 0.750000 0.227930
#
# Coordination Sequence:
#
# PCOD8278096 Si02
#       5
#    16  16  16  16  16
#     4  10  17  28  46  70  98 125 156 192 234 280
#     4   8  14  25  39  56  81 115 153 190 230 278
#     4  11  21  34  52  74 100 128 160 198 240 282
#     4   8  13  20  31  49  75 107 143 183 227 274
#     4  10  20  33  49  70  96 127 163 200 238 284
#
# _framework density 18.672135999999998
#
# number of rings (size 3 to 8) (size 9 to 14) (size 15 to 20)
#    0.000    2.600    0.000    7.200    0.000    2.000 
#    0.000    4.000    0.000    0.600    0.000    0.000 
#    0.000    0.800    0.000    8.400    0.000   12.200 
#
# Total GULP energy -495621.254236 kJ/mol
# GULP energy per Si atom -12390.531356 kJ/mol
# Density = 1.862964 g / cm^3
# Si number density = 18.672136 Si / 1000 Ang^3
#
#
#
# Elastic Constant Matrix: (Units=GPa)
#
#
# Indices 1 2 3 4 5 6 
#
# 1 14.9650 17.2425 24.7743 0.0000 0.0000 0.0000
# 2 17.2425 123.1733 60.9689 0.0000 0.0000 0.0000
# 3 24.7743 60.9689 181.3746 0.0000 0.0000 0.0000
# 4 0.0000 0.0000 0.0000 40.1683 0.0000 0.0000
# 5 0.0000 0.0000 0.0000 0.0000 -138.9286 0.0000
# 6 0.0000 0.0000 0.0000 0.0000 0.0000 14.8212
#
#
#
# Elastic Compliance Matrix: (Units=1/GPa)
#
#
# Indices 1 2 3 4 5 6 
#
# 1 0.092532 -0.008034 -0.009939 0.000000 0.000000 0.000000
# 2 -0.008034 0.010437 -0.002411 0.000000 0.000000 0.000000
# 3 -0.009939 -0.002411 0.007681 0.000000 0.000000 0.000000
# 4 0.000000 0.000000 0.000000 0.024895 0.000000 0.000000
# 5 0.000000 0.000000 0.000000 0.000000 -0.007198 0.000000
# 6 0.000000 0.000000 0.000000 0.000000 0.000000 0.067471
#
#
# Mechanical properties :
#
#
# Convention : Reuss Voigt Hill
#
# Bulk Modulus (GPa) = 14.30945 58.38716 36.34830
# Shear Modulus (GPa) = 19.23965 -2.35267 8.44349
#
# Velocity S-wave (km/s) = 3.21346 -1.12371 2.12880
# Velocity P-wave (km/s) = 4.63126 5.44554 5.05482
#
# Compressibility (1/GPa) = 0.06988390
#
# Stress axis : x y z
#
# Youngs Moduli (GPa) = 10.80702 95.81653 130.18419
#
# Poissons Ratio (x) = 0.76976 1.29386
# Poissons Ratio (y) = 0.08682 0.31386
# Poissons Ratio (z) = 0.10741 0.23101
#
# Static dielectric constant tensor:
#      x y z
#    x 2.689910 0.000000 0.000000 
#    y 0.000000 3.420310 0.000000 
#    z 0.000000 0.000000 4.435110 
# 
# 
# High freq. dielectric constant tensor:
#      x y z
#    x 1.631820 0.000000 0.000000 
#    y 0.000000 1.731200 0.000000 
#    z 0.000000 0.000000 1.760820 
# 
# From -- ./inp_files/44441.got.cif
#   From: 2010.03.12/outbox.cif.g09.slc.cpg/sg67_23_cif.got.tgz:44441.got - 2010.04.10 22:41:39.
