data_PCOD8278966
_publ_section_title
;
Structure prediction by ZEFSAII (Michael W. Deem and Ramdas Pophale) SiO2 
 PCOD8278966
Probable space group: C M M A
;
_chemical_formula_sum "Si O2"
_cell_formula_units_Z 96
_cell_length_a 27.806496
_cell_length_b 17.289626
_cell_length_c 11.224961
_cell_angle_alpha 90.000000
_cell_angle_beta 90.000000
_cell_angle_gamma 90.000000
_cell_volume 5396.556210
_symmetry_space_group_name_H-M "C M M A"
_symmetry_group_IT_number 67
_symmetry_cell_setting 'orthorhombic'
loop_
_space_group_symop_operation_xyz
x,y,z
-x,1/2-y,z
x,-y,-z
-x,1/2+y,-z
-x,-y,-z
x,1/2+y,-z
-x,y,z
x,1/2-y,z
1/2+x,1/2+y,z
1/2-x,-y,z
1/2+x,1/2-y,-z
1/2-x,y,-z
1/2-x,1/2-y,-z
1/2+x,y,-z
1/2-x,1/2+y,z
1/2+x,-y,z
loop_
_atom_site_type_symbol
_atom_site_label
_atom_site_fract_x
_atom_site_fract_y
_atom_site_fract_z
Si Si1 0.153414 0.663649 0.498979
Si Si2 0.209838 0.941665 0.319504
Si Si3 0.267143 0.159434 0.867846
Si Si4 0.448080 0.533773 0.304964
Si Si5 0.350206 0.918653 0.249165
Si Si6 0.447222 0.115018 0.441424
O O1 0.174808 0.750000 0.500084
O O2 0.188190 0.608799 0.424618
O O3 0.155237 0.630275 0.630889
O O4 0.099405 0.670217 0.443491
O O5 0.232194 0.884813 0.221771
O O6 0.250000 0.000000 0.371541
O O7 0.168670 0.993845 0.260590
O O8 0.265294 0.250000 0.839702
O O9 0.321859 0.127570 0.853880
O O10 0.250000 0.140615 0.000000
O O11 0.500000 0.550312 0.244541
O O12 0.406994 0.570695 0.219913
O O13 0.445720 0.569981 0.435079
O O14 0.441279 0.442274 0.328362
O O15 0.500000 0.157232 0.430907
#
# Coordination Sequence:
#
# PCOD8278966 Si02
#       6
#    16  16  16  16  16  16
#     4  11  20  30  46  73 108 136 164 201 250 301
#     4  10  21  34  51  70  95 130 169 210 243 296
#     4  10  22  39  55  72  95 123 161 210 262 309
#     4   8  13  25  46  71  99 130 165 201 239 284
#     4  10  19  32  51  75 101 131 168 205 245 294
#     4   8  14  25  43  67  99 137 168 195 233 287
#
# _framework density 17.789123
#
# number of rings (size 3 to 8) (size 9 to 14) (size 15 to 20)
#    0.000    2.500    1.667    2.500    0.000    8.000 
#    0.000    4.167    0.000    1.500    0.000    3.500 
#    0.000    2.667    0.000    0.000    0.000    0.000 
#
# Total GULP energy -594671.572680 kJ/mol
# GULP energy per Si atom -12388.991097 kJ/mol
# Density = 1.774863 g / cm^3
# Si number density = 17.789123 Si / 1000 Ang^3
#
#
#
# Elastic Constant Matrix: (Units=GPa)
#
#
# Indices 1 2 3 4 5 6 
#
# 1 146.5322 47.9025 47.2253 0.0000 0.0000 0.0000
# 2 47.9025 93.7201 29.6079 0.0000 0.0000 0.0000
# 3 47.2253 29.6079 52.2443 0.0000 0.0000 0.0000
# 4 0.0000 0.0000 0.0000 12.1442 0.0000 0.0000
# 5 0.0000 0.0000 0.0000 0.0000 17.6180 0.0000
# 6 0.0000 0.0000 0.0000 0.0000 0.0000 62.1580
#
#
#
# Elastic Compliance Matrix: (Units=1/GPa)
#
#
# Indices 1 2 3 4 5 6 
#
# 1 0.010200 -0.002802 -0.007632 0.000000 0.000000 0.000000
# 2 -0.002802 0.013767 -0.005269 0.000000 0.000000 0.000000
# 3 -0.007632 -0.005269 0.029026 0.000000 0.000000 0.000000
# 4 0.000000 0.000000 0.000000 0.082344 0.000000 0.000000
# 5 0.000000 0.000000 0.000000 0.000000 0.056760 0.000000
# 6 0.000000 0.000000 0.000000 0.000000 0.000000 0.016088
#
#
# Mechanical properties :
#
#
# Convention : Reuss Voigt Hill
#
# Bulk Modulus (GPa) = 46.32595 60.21865 53.27230
# Shear Modulus (GPa) = 20.26034 29.56810 24.91422
#
# Velocity S-wave (km/s) = 3.37845 4.08136 3.74643
# Velocity P-wave (km/s) = 6.42781 7.49232 6.98039
#
# Compressibility (1/GPa) = 0.02158618
#
# Stress axis : x y z
#
# Youngs Moduli (GPa) = 98.03598 72.63759 34.45222
#
# Poissons Ratio (x) = 0.20357 0.26295
# Poissons Ratio (y) = 0.27474 0.18152
# Poissons Ratio (z) = 0.74823 0.38271
#
# Static dielectric constant tensor:
#      x y z
#    x 3.964330 0.000000 0.000000 
#    y 0.000000 3.286990 0.000000 
#    z 0.000000 0.000000 2.821450 
# 
# 
# High freq. dielectric constant tensor:
#      x y z
#    x 1.707790 0.000000 0.000000 
#    y 0.000000 1.685870 0.000000 
#    z 0.000000 0.000000 1.627110 
# 
# From -- ./inp_files/19790.got.cif
#   From: 2010.03.12/outbox.cif.g09.slc.cpg/sg67_10_cif.got.tgz:19790.got - 2010.04.10 22:41:39.
