data_PCOD8278204
_publ_section_title
;
Structure prediction by ZEFSAII (Michael W. Deem and Ramdas Pophale) SiO2 
 PCOD8278204
Probable space group: C M M A
;
_chemical_formula_sum "Si O2"
_cell_formula_units_Z 128
_cell_length_a 24.453237
_cell_length_b 25.550707
_cell_length_c 11.362268
_cell_angle_alpha 90.000000
_cell_angle_beta 90.000000
_cell_angle_gamma 90.000000
_cell_volume 7099.116570
_symmetry_space_group_name_H-M "C M M A"
_symmetry_group_IT_number 67
_symmetry_cell_setting 'orthorhombic'
loop_
_space_group_symop_operation_xyz
x,y,z
-x,1/2-y,z
x,-y,-z
-x,1/2+y,-z
-x,-y,-z
x,1/2+y,-z
-x,y,z
x,1/2-y,z
1/2+x,1/2+y,z
1/2-x,-y,z
1/2+x,1/2-y,-z
1/2-x,y,-z
1/2-x,1/2-y,-z
1/2+x,y,-z
1/2-x,1/2+y,z
1/2+x,-y,z
loop_
_atom_site_type_symbol
_atom_site_label
_atom_site_fract_x
_atom_site_fract_y
_atom_site_fract_z
Si Si1 0.269238 0.159119 0.741778
Si Si2 0.147677 0.690372 0.326908
Si Si3 0.735601 0.057980 0.136934
Si Si4 0.130608 0.115872 0.865638
Si Si5 0.935296 0.142636 0.204910
Si Si6 0.936936 0.444553 0.033070
Si Si7 0.869699 0.311509 0.403236
Si Si8 0.157238 0.307342 0.058180
O O1 0.211562 0.179909 0.695571
O O2 0.268849 0.098369 0.781004
O O3 0.310789 0.167108 0.634938
O O4 0.291145 0.191327 0.854026
O O5 0.133966 0.750000 0.293171
O O6 0.113051 0.649709 0.247634
O O7 0.127716 0.678914 0.458281
O O8 0.671010 0.067456 0.160774
O O9 0.750000 0.000000 0.180876
O O10 0.750000 0.065051 0.000000
O O11 0.075886 0.095704 0.927650
O O12 0.166566 0.152917 0.951442
O O13 0.920461 0.083233 0.157800
O O14 0.916886 0.153313 0.339790
O O15 0.899797 0.182222 0.126314
O O16 0.000000 0.153454 0.190214
O O17 0.000000 0.455855 0.035410
O O18 0.907119 0.500000 0.000000
O O19 0.876783 0.250000 0.371817
O O20 0.153401 0.250000 0.002342
#
# Coordination Sequence:
#
# PCOD8278204 Si02
#       8
#    16  16  16  16  16  16  16  16
#     4  10  18  31  49  71  97 131 170 210 245 289
#     4  10  20  33  49  71 101 138 172 201 242 294
#     4  10  20  31  46  71 101 131 162 192 246 303
#     4  10  20  32  49  73 104 132 162 205 248 304
#     4   9  18  32  51  75  99 124 161 209 252 292
#     4   9  19  35  57  80  99 125 162 205 257 305
#     4  10  20  33  51  72  98 135 177 210 240 283
#     4  10  18  28  45  72 101 129 159 200 255 305
#
# _framework density 18.030411999999998
#
# number of rings (size 3 to 8) (size 9 to 14) (size 15 to 20)
#    0.000    2.250    1.250    3.000    1.750    2.000 
#    0.000    2.500    0.000   11.625    0.000    2.625 
#    0.000    0.000    0.000    0.000    0.000    0.000 
#
# Total GULP energy -793016.305607 kJ/mol
# GULP energy per Si atom -12390.879775 kJ/mol
# Density = 1.798937 g / cm^3
# Si number density = 18.030412 Si / 1000 Ang^3
#
#
#
# Elastic Constant Matrix: (Units=GPa)
#
#
# Indices 1 2 3 4 5 6 
#
# 1 25.9040 16.4087 16.1564 0.0000 0.0000 0.0000
# 2 16.4087 124.9672 57.5990 0.0000 0.0000 0.0000
# 3 16.1564 57.5990 97.8661 0.0000 0.0000 0.0000
# 4 0.0000 0.0000 0.0000 25.6356 0.0000 0.0000
# 5 0.0000 0.0000 0.0000 0.0000 16.7620 0.0000
# 6 0.0000 0.0000 0.0000 0.0000 0.0000 17.7036
#
#
#
# Elastic Compliance Matrix: (Units=1/GPa)
#
#
# Indices 1 2 3 4 5 6 
#
# 1 0.044026 -0.003336 -0.005305 0.000000 0.000000 0.000000
# 2 -0.003336 0.011234 -0.006061 0.000000 0.000000 0.000000
# 3 -0.005305 -0.006061 0.014661 0.000000 0.000000 0.000000
# 4 0.000000 0.000000 0.000000 0.039008 0.000000 0.000000
# 5 0.000000 0.000000 0.000000 0.000000 0.059659 0.000000
# 6 0.000000 0.000000 0.000000 0.000000 0.000000 0.056486
#
#
# Mechanical properties :
#
#
# Convention : Reuss Voigt Hill
#
# Bulk Modulus (GPa) = 24.68072 47.67394 36.17733
# Shear Modulus (GPa) = 18.65800 22.59179 20.62490
#
# Velocity S-wave (km/s) = 3.22033 3.54359 3.38582
# Velocity P-wave (km/s) = 5.24838 6.57579 5.94922
#
# Compressibility (1/GPa) = 0.04051745
#
# Stress axis : x y z
#
# Youngs Moduli (GPa) = 22.71399 89.01854 68.20852
#
# Poissons Ratio (x) = 0.29694 0.36184
# Poissons Ratio (y) = 0.07577 0.41340
# Poissons Ratio (z) = 0.12050 0.53953
#
# Static dielectric constant tensor:
#      x y z
#    x 3.168980 0.000000 0.000000 
#    y 0.000000 3.570870 0.000000 
#    z 0.000000 0.000000 3.367600 
# 
# 
# High freq. dielectric constant tensor:
#      x y z
#    x 1.682380 0.000000 0.000000 
#    y 0.000000 1.701970 0.000000 
#    z 0.000000 0.000000 1.681590 
# 
# From -- ./inp_files/23247.got.cif
#   From: 2010.03.12/outbox.cif.g09.slc.cpg/sg67_12_cif.got.tgz:23247.got - 2010.04.10 22:41:39.
