data_PCOD8278658
_publ_section_title
;
Structure prediction by ZEFSAII (Michael W. Deem and Ramdas Pophale) SiO2 
 PCOD8278658
Probable space group: C M M A
;
_chemical_formula_sum "Si O2"
_cell_formula_units_Z 96
_cell_length_a 27.122984
_cell_length_b 8.952364
_cell_length_c 23.783987
_cell_angle_alpha 90.000000
_cell_angle_beta 90.000000
_cell_angle_gamma 90.000000
_cell_volume 5775.104654
_symmetry_space_group_name_H-M "C M M A"
_symmetry_group_IT_number 67
_symmetry_cell_setting 'orthorhombic'
loop_
_space_group_symop_operation_xyz
x,y,z
-x,1/2-y,z
x,-y,-z
-x,1/2+y,-z
-x,-y,-z
x,1/2+y,-z
-x,y,z
x,1/2-y,z
1/2+x,1/2+y,z
1/2-x,-y,z
1/2+x,1/2-y,-z
1/2-x,y,-z
1/2-x,1/2-y,-z
1/2+x,y,-z
1/2-x,1/2+y,z
1/2+x,-y,z
loop_
_atom_site_type_symbol
_atom_site_label
_atom_site_fract_x
_atom_site_fract_y
_atom_site_fract_z
Si Si1 0.697626 0.073734 0.443583
Si Si2 0.445115 0.578378 0.734723
Si Si3 0.943368 0.925218 0.058184
Si Si4 0.898326 0.075590 0.163358
Si Si5 0.799717 0.575740 0.773235
Si Si6 0.349095 0.077467 0.328044
O O1 0.704541 0.250000 0.452415
O O2 0.660355 0.036603 0.392877
O O3 0.675183 0.000000 0.500000
O O4 0.750000 0.000000 0.429629
O O5 0.500000 0.547009 0.711243
O O6 0.439247 0.750000 0.753981
O O7 0.436459 0.476725 0.789077
O O8 0.406195 0.539405 0.685555
O O9 0.935246 0.750000 0.052723
O O10 0.000000 0.964836 0.072768
O O11 0.907954 0.988481 0.106074
O O12 0.927314 0.000000 0.000000
O O13 0.906135 0.250000 0.153018
O O14 0.842933 0.036986 0.182884
O O15 0.790701 0.750000 0.768191
O O16 0.750000 0.500000 0.795892
O O17 0.812949 0.516897 0.711302
O O18 0.337065 0.250000 0.316315
#
# Coordination Sequence:
#
# PCOD8278658 Si02
#       6
#    16  16  16  16  16  16
#     4  10  19  30  45  65  89 117 149 186 229 275
#     4   9  17  30  48  69  93 122 155 189 226 270
#     4  10  20  33  50  72  97 126 158 191 229 272
#     4  10  20  32  47  70  98 125 154 189 230 274
#     4  10  20  32  48  70  95 124 155 189 230 274
#     4   9  18  31  47  68  93 121 153 189 229 273
#
# _framework density 16.623075
#
# number of rings (size 3 to 8) (size 9 to 14) (size 15 to 20)
#    0.000    2.333    0.000    3.500    0.000    8.000 
#    0.000    0.000    0.000    1.000    0.000    3.500 
#    0.000    0.000    0.000    0.000    0.000    0.667 
#
# Total GULP energy -595275.803053 kJ/mol
# GULP energy per Si atom -12401.579230 kJ/mol
# Density = 1.658524 g / cm^3
# Si number density = 16.623075 Si / 1000 Ang^3
#
#
#
# Elastic Constant Matrix: (Units=GPa)
#
#
# Indices 1 2 3 4 5 6 
#
# 1 102.2676 45.4416 62.2447 0.0000 0.0000 0.0000
# 2 45.4416 82.7340 59.1035 0.0000 0.0000 0.0000
# 3 62.2447 59.1035 135.7395 0.0000 0.0000 0.0000
# 4 0.0000 0.0000 0.0000 28.5684 0.0000 0.0000
# 5 0.0000 0.0000 0.0000 0.0000 22.8030 0.0000
# 6 0.0000 0.0000 0.0000 0.0000 0.0000 22.8420
#
#
#
# Elastic Compliance Matrix: (Units=1/GPa)
#
#
# Indices 1 2 3 4 5 6 
#
# 1 0.014744 -0.004744 -0.004695 0.000000 0.000000 0.000000
# 2 -0.004744 0.019070 -0.006128 0.000000 0.000000 0.000000
# 3 -0.004695 -0.006128 0.012189 0.000000 0.000000 0.000000
# 4 0.000000 0.000000 0.000000 0.035004 0.000000 0.000000
# 5 0.000000 0.000000 0.000000 0.000000 0.043854 0.000000
# 6 0.000000 0.000000 0.000000 0.000000 0.000000 0.043779
#
#
# Mechanical properties :
#
#
# Convention : Reuss Voigt Hill
#
# Bulk Modulus (GPa) = 67.25918 72.70233 69.98075
# Shear Modulus (GPa) = 24.42234 25.10609 24.76421
#
# Velocity S-wave (km/s) = 3.83715 3.89049 3.86391
# Velocity P-wave (km/s) = 7.75763 8.00075 7.88013
#
# Compressibility (1/GPa) = 0.01486786
#
# Stress axis : x y z
#
# Youngs Moduli (GPa) = 67.82417 52.43737 82.04401
#
# Poissons Ratio (x) = 0.24875 0.38524
# Poissons Ratio (y) = 0.32174 0.50279
# Poissons Ratio (z) = 0.31847 0.32135
#
# Static dielectric constant tensor:
#      x y z
#    x 3.144850 0.000000 0.000000 
#    y 0.000000 3.246140 0.000000 
#    z 0.000000 0.000000 3.101690 
# 
# 
# High freq. dielectric constant tensor:
#      x y z
#    x 1.629250 0.000000 0.000000 
#    y 0.000000 1.653820 0.000000 
#    z 0.000000 0.000000 1.629450 
# 
# From -- ./inp_files/40915.got.cif
#   From: 2010.03.12/outbox.cif.g09.slc.cpg/sg67_21_cif.got.tgz:40915.got - 2010.04.10 22:41:39.
