data_PCOD8278476
_publ_section_title
;
Structure prediction by ZEFSAII (Michael W. Deem and Ramdas Pophale) SiO2 
 PCOD8278476
Probable space group: C M M A
;
_chemical_formula_sum "Si O2"
_cell_formula_units_Z 72
_cell_length_a 20.208573
_cell_length_b 8.839341
_cell_length_c 24.030016
_cell_angle_alpha 90.000000
_cell_angle_beta 90.000000
_cell_angle_gamma 90.000000
_cell_volume 4292.493001
_symmetry_space_group_name_H-M "C M M A"
_symmetry_group_IT_number 67
_symmetry_cell_setting 'orthorhombic'
loop_
_space_group_symop_operation_xyz
x,y,z
-x,1/2-y,z
x,-y,-z
-x,1/2+y,-z
-x,-y,-z
x,1/2+y,-z
-x,y,z
x,1/2-y,z
1/2+x,1/2+y,z
1/2-x,-y,z
1/2+x,1/2-y,-z
1/2-x,y,-z
1/2-x,1/2-y,-z
1/2+x,y,-z
1/2-x,1/2+y,z
1/2+x,-y,z
loop_
_atom_site_type_symbol
_atom_site_label
_atom_site_fract_x
_atom_site_fract_y
_atom_site_fract_z
Si Si1 0.000000 0.569854 0.939429
Si Si2 0.572912 0.578714 0.847434
Si Si3 0.074837 0.928720 0.557572
Si Si4 0.682065 0.928257 0.355059
Si Si5 0.818393 0.071435 0.228299
O O1 0.065508 0.508757 0.906733
O O2 0.000000 0.750000 0.942159
O O3 0.000000 0.500000 0.000000
O O4 0.500000 0.580866 0.818585
O O5 0.598304 0.750000 0.857573
O O6 0.622131 0.488915 0.808405
O O7 0.078923 0.750000 0.551666
O O8 0.121751 0.987824 0.607108
O O9 0.000000 0.981586 0.571090
O O10 0.099867 0.000000 0.500000
O O11 0.689469 0.750000 0.359353
O O12 0.667983 0.979118 0.291784
O O13 0.750000 0.000000 0.377265
O O14 0.813858 0.250000 0.222223
O O15 0.750000 0.000000 0.206737
#
# Coordination Sequence:
#
# PCOD8278476 Si02
#       5
#     8  16  16  16  16
#     4  10  18  32  54  80 108 140 175 212 253 294
#     4   9  19  33  50  76 106 135 171 213 252 295
#     4   9  18  33  50  68  92 122 159 202 249 300
#     4   9  19  33  49  70  95 126 162 202 248 300
#     4  10  19  32  51  73 101 136 171 209 258 310
#
# _framework density 16.773468999999999
#
# number of rings (size 3 to 8) (size 9 to 14) (size 15 to 20)
#    0.667    2.000    0.000    2.000    0.000    3.111 
#    0.000    4.444    0.000    3.333    0.000    4.667 
#    0.000    0.000    0.000    0.000    0.000    0.000 
#
# Total GULP energy -446253.108552 kJ/mol
# GULP energy per Si atom -12395.919682 kJ/mol
# Density = 1.673529 g / cm^3
# Si number density = 16.773469 Si / 1000 Ang^3
#
#
#
# Elastic Constant Matrix: (Units=GPa)
#
#
# Indices 1 2 3 4 5 6 
#
# 1 103.4110 37.8768 73.8172 0.0000 0.0000 0.0000
# 2 37.8768 75.5119 41.8785 0.0000 0.0000 0.0000
# 3 73.8172 41.8785 110.5542 0.0000 0.0000 0.0000
# 4 0.0000 0.0000 0.0000 29.0356 0.0000 0.0000
# 5 0.0000 0.0000 0.0000 0.0000 3.3747 0.0000
# 6 0.0000 0.0000 0.0000 0.0000 0.0000 30.6464
#
#
#
# Elastic Compliance Matrix: (Units=1/GPa)
#
#
# Indices 1 2 3 4 5 6 
#
# 1 0.019057 -0.003168 -0.011524 0.000000 0.000000 0.000000
# 2 -0.003168 0.017291 -0.004435 0.000000 0.000000 0.000000
# 3 -0.011524 -0.004435 0.018420 0.000000 0.000000 0.000000
# 4 0.000000 0.000000 0.000000 0.034441 0.000000 0.000000
# 5 0.000000 0.000000 0.000000 0.000000 0.296323 0.000000
# 6 0.000000 0.000000 0.000000 0.000000 0.000000 0.032630
#
#
# Mechanical properties :
#
#
# Convention : Reuss Voigt Hill
#
# Bulk Modulus (GPa) = 60.55316 66.29133 63.42225
# Shear Modulus (GPa) = 10.82436 21.67163 16.24799
#
# Velocity S-wave (km/s) = 2.54308 3.59837 3.11573
# Velocity P-wave (km/s) = 6.69343 7.54133 7.12999
#
# Compressibility (1/GPa) = 0.01651442
#
# Stress axis : x y z
#
# Youngs Moduli (GPa) = 52.47523 57.83194 54.28842
#
# Poissons Ratio (x) = 0.18318 0.62563
# Poissons Ratio (y) = 0.16622 0.24078
# Poissons Ratio (z) = 0.60474 0.25649
#
# Static dielectric constant tensor:
#      x y z
#    x 3.177440 0.000000 0.000000 
#    y 0.000000 3.177850 0.000000 
#    z 0.000000 0.000000 3.114460 
# 
# 
# High freq. dielectric constant tensor:
#      x y z
#    x 1.638330 0.000000 0.000000 
#    y 0.000000 1.655350 0.000000 
#    z 0.000000 0.000000 1.634640 
# 
# From -- ./inp_files/40566.got.cif
#   From: 2010.03.12/outbox.cif.g09.slc.cpg/sg67_21_cif.got.tgz:40566.got - 2010.04.10 22:41:39.
