data_PCOD8278898
_publ_section_title
;
Structure prediction by ZEFSAII (Michael W. Deem and Ramdas Pophale) SiO2 
 PCOD8278898
Probable space group: C M M A
;
_chemical_formula_sum "Si O2"
_cell_formula_units_Z 104
_cell_length_a 8.811201
_cell_length_b 20.374182
_cell_length_c 29.933115
_cell_angle_alpha 90.000000
_cell_angle_beta 90.000000
_cell_angle_gamma 90.000000
_cell_volume 5373.623121
_symmetry_space_group_name_H-M "C M M A"
_symmetry_group_IT_number 67
_symmetry_cell_setting 'orthorhombic'
loop_
_space_group_symop_operation_xyz
x,y,z
-x,1/2-y,z
x,-y,-z
-x,1/2+y,-z
-x,-y,-z
x,1/2+y,-z
-x,y,z
x,1/2-y,z
1/2+x,1/2+y,z
1/2-x,-y,z
1/2+x,1/2-y,-z
1/2-x,y,-z
1/2-x,1/2-y,-z
1/2+x,y,-z
1/2-x,1/2+y,z
1/2+x,-y,z
loop_
_atom_site_type_symbol
_atom_site_label
_atom_site_fract_x
_atom_site_fract_y
_atom_site_fract_z
Si Si1 0.321300 0.107925 0.950926
Si Si2 0.181626 0.068999 0.547873
Si Si3 0.323550 0.826448 0.194597
Si Si4 0.832202 0.672434 0.283982
Si Si5 0.178804 0.935295 0.135332
Si Si6 0.680472 0.676697 0.618265
Si Si7 0.327635 0.250000 0.953679
O O1 0.500000 0.092096 0.953334
O O2 0.237934 0.061627 0.915810
O O3 0.289322 0.181235 0.929668
O O4 0.250000 0.098479 0.000000
O O5 0.250000 0.087496 0.500000
O O6 0.238953 0.125511 0.581457
O O7 0.000000 0.064137 0.545117
O O8 0.250000 0.000000 0.564670
O O9 0.500000 0.838996 0.186530
O O10 0.281825 0.750000 0.186905
O O11 0.281203 0.849600 0.244761
O O12 0.230001 0.869346 0.159848
O O13 0.847700 0.750000 0.285015
O O14 0.766917 0.651079 0.332574
O O15 0.000000 0.641912 0.275156
O O16 0.000000 0.940105 0.136331
O O17 0.250000 0.000000 0.159064
O O18 0.500000 0.679826 0.618241
O O19 0.745152 0.750000 0.607889
O O20 0.500000 0.250000 0.967159
O O21 0.250000 0.250000 0.000000
#
# Coordination Sequence:
#
# PCOD8278898 Si02
#       7
#    16  16  16  16  16  16   8
#     4  10  20  37  59  86 116 150 186 226 274 323
#     4  10  19  32  49  69  99 139 181 223 269 321
#     4  10  21  38  61  88 117 148 183 225 273 327
#     4   8  14  29  54  81 107 137 177 222 268 322
#     4  12  26  43  61  84 114 150 189 231 278 329
#     4   8  15  29  51  77 103 134 175 224 273 319
#     4   8  16  30  52  80 112 142 172 214 262 306
#
# _framework density 19.353795000000002
#
# number of rings (size 3 to 8) (size 9 to 14) (size 15 to 20)
#    0.000    2.462    0.000    4.154    1.077    2.154 
#    0.000    3.846    0.000    5.077    0.000    0.000 
#    0.000    0.000    0.000    0.000    0.000    0.000 
#
# Total GULP energy -644373.940010 kJ/mol
# GULP energy per Si atom -12391.806539 kJ/mol
# Density = 1.930974 g / cm^3
# Si number density = 19.353795 Si / 1000 Ang^3
#
#
#
# Elastic Constant Matrix: (Units=GPa)
#
#
# Indices 1 2 3 4 5 6 
#
# 1 105.2060 47.4012 47.7573 0.0000 0.0000 0.0000
# 2 47.4012 95.5432 62.0006 0.0000 0.0000 0.0000
# 3 47.7573 62.0006 117.9009 0.0000 0.0000 0.0000
# 4 0.0000 0.0000 0.0000 14.3631 0.0000 0.0000
# 5 0.0000 0.0000 0.0000 0.0000 26.9982 0.0000
# 6 0.0000 0.0000 0.0000 0.0000 0.0000 23.5202
#
#
#
# Elastic Compliance Matrix: (Units=1/GPa)
#
#
# Indices 1 2 3 4 5 6 
#
# 1 0.012826 -0.004542 -0.002807 0.000000 0.000000 0.000000
# 2 -0.004542 0.017497 -0.007361 0.000000 0.000000 0.000000
# 3 -0.002807 -0.007361 0.013490 0.000000 0.000000 0.000000
# 4 0.000000 0.000000 0.000000 0.069623 0.000000 0.000000
# 5 0.000000 0.000000 0.000000 0.000000 0.037039 0.000000
# 6 0.000000 0.000000 0.000000 0.000000 0.000000 0.042517
#
#
# Mechanical properties :
#
#
# Convention : Reuss Voigt Hill
#
# Bulk Modulus (GPa) = 69.48131 70.32982 69.90556
# Shear Modulus (GPa) = 22.00626 23.74238 22.87432
#
# Velocity S-wave (km/s) = 3.37568 3.50631 3.44161
# Velocity P-wave (km/s) = 7.15347 7.26706 7.21049
#
# Compressibility (1/GPa) = 0.01439236
#
# Stress axis : x y z
#
# Youngs Moduli (GPa) = 77.96934 57.15390 74.13030
#
# Poissons Ratio (x) = 0.25957 0.20807
# Poissons Ratio (y) = 0.35411 0.54570
# Poissons Ratio (z) = 0.21885 0.42073
#
# Static dielectric constant tensor:
#      x y z
#    x 3.433140 0.000000 0.000000 
#    y 0.000000 3.771770 0.000000 
#    z 0.000000 0.000000 3.724820 
# 
# 
# High freq. dielectric constant tensor:
#      x y z
#    x 1.743920 0.000000 0.000000 
#    y 0.000000 1.745130 0.000000 
#    z 0.000000 0.000000 1.750650 
# 
# From -- ./inp_files/45355.got.cif
#   From: 2010.03.12/outbox.cif.g09.slc.cpg/sg67_23_cif.got.tgz:45355.got - 2010.04.10 22:41:39.
