data_PCOD8278516
_publ_section_title
;
Structure prediction by ZEFSAII (Michael W. Deem and Ramdas Pophale) SiO2 
 PCOD8278516
Probable space group: C M M A
;
_chemical_formula_sum "Si O2"
_cell_formula_units_Z 52
_cell_length_a 14.245276
_cell_length_b 21.002561
_cell_length_c 9.905422
_cell_angle_alpha 90.000000
_cell_angle_beta 90.000000
_cell_angle_gamma 90.000000
_cell_volume 2963.576247
_symmetry_space_group_name_H-M "C M M A"
_symmetry_group_IT_number 67
_symmetry_cell_setting 'orthorhombic'
loop_
_space_group_symop_operation_xyz
x,y,z
-x,1/2-y,z
x,-y,-z
-x,1/2+y,-z
-x,-y,-z
x,1/2+y,-z
-x,y,z
x,1/2-y,z
1/2+x,1/2+y,z
1/2-x,-y,z
1/2+x,1/2-y,-z
1/2-x,y,-z
1/2-x,1/2-y,-z
1/2+x,y,-z
1/2-x,1/2+y,z
1/2+x,-y,z
loop_
_atom_site_type_symbol
_atom_site_label
_atom_site_fract_x
_atom_site_fract_y
_atom_site_fract_z
Si Si1 0.805819 0.178192 0.362233
Si Si2 0.750000 0.000000 0.000000
Si Si3 0.000000 0.674430 0.218190
Si Si4 0.000000 0.174310 0.475828
Si Si5 0.693756 0.621603 0.875013
O O1 0.809511 0.250000 0.302610
O O2 0.750000 0.179224 0.500000
O O3 0.909522 0.150851 0.392650
O O4 0.754425 0.131710 0.259310
O O5 0.814398 0.954464 0.095254
O O6 0.909191 0.650718 0.137810
O O7 0.000000 0.750000 0.219702
O O8 0.000000 0.646992 0.371141
O O9 0.000000 0.250000 0.488103
O O10 0.750000 0.654534 0.000000
#
# Coordination Sequence:
#
# PCOD8278516 Si02
#       5
#    16   4   8   8  16
#     4  10  18  32  57  87 120 150 188 244 303 361
#     4   8  24  46  56  76 114 180 202 244 280 328
#     4  11  20  34  63  95 120 150 186 245 320 361
#     4   9  18  31  53  88 124 152 177 225 308 371
#     4  10  22  40  59  83 119 162 202 241 287 346
#
# _framework density 17.546368999999999
#
# number of rings (size 3 to 8) (size 9 to 14) (size 15 to 20)
#    0.923    1.231    3.077    0.923    0.000    4.308 
#    0.000    2.308    0.000    1.846    0.000    0.000 
#    0.000    0.000    0.000    0.000    0.000    0.000 
#
# Total GULP energy -322229.998252 kJ/mol
# GULP energy per Si atom -12393.461471 kJ/mol
# Density = 1.750643 g / cm^3
# Si number density = 17.546369 Si / 1000 Ang^3
#
#
#
# Elastic Constant Matrix: (Units=GPa)
#
#
# Indices 1 2 3 4 5 6 
#
# 1 169.5434 41.0622 56.7093 0.0000 0.0000 0.0000
# 2 41.0622 83.1132 42.1244 0.0000 0.0000 0.0000
# 3 56.7093 42.1244 95.1533 0.0000 0.0000 0.0000
# 4 0.0000 0.0000 0.0000 19.7786 0.0000 0.0000
# 5 0.0000 0.0000 0.0000 0.0000 36.4581 0.0000
# 6 0.0000 0.0000 0.0000 0.0000 0.0000 22.1275
#
#
#
# Elastic Compliance Matrix: (Units=1/GPa)
#
#
# Indices 1 2 3 4 5 6 
#
# 1 0.007587 -0.001878 -0.003691 0.000000 0.000000 0.000000
# 2 -0.001878 0.015977 -0.005954 0.000000 0.000000 0.000000
# 3 -0.003691 -0.005954 0.015345 0.000000 0.000000 0.000000
# 4 0.000000 0.000000 0.000000 0.050560 0.000000 0.000000
# 5 0.000000 0.000000 0.000000 0.000000 0.027429 0.000000
# 6 0.000000 0.000000 0.000000 0.000000 0.000000 0.045193
#
#
# Mechanical properties :
#
#
# Convention : Reuss Voigt Hill
#
# Bulk Modulus (GPa) = 63.03429 69.73353 66.38391
# Shear Modulus (GPa) = 26.25728 29.53378 27.89553
#
# Velocity S-wave (km/s) = 3.87260 4.10711 3.99158
# Velocity P-wave (km/s) = 7.48321 7.89429 7.69150
#
# Compressibility (1/GPa) = 0.01586438
#
# Stress axis : x y z
#
# Youngs Moduli (GPa) = 131.79606 62.58895 65.16957
#
# Poissons Ratio (x) = 0.11755 0.24051
# Poissons Ratio (y) = 0.24753 0.38801
# Poissons Ratio (z) = 0.48640 0.37264
#
# Static dielectric constant tensor:
#      x y z
#    x 3.672240 0.000000 0.000000 
#    y 0.000000 2.940920 0.000000 
#    z 0.000000 0.000000 2.487640 
# 
# 
# High freq. dielectric constant tensor:
#      x y z
#    x 1.688460 0.000000 0.000000 
#    y 0.000000 1.638140 0.000000 
#    z 0.000000 0.000000 1.680800 
# 
# From -- ./inp_files/7819.got.cif
#   From: 2010.03.12/outbox.cif.g09.slc.cpg/sg67_4_cif.got.tgz:7819.got - 2010.04.10 22:41:39.
