data_PCOD8278582
_publ_section_title
;
Structure prediction by ZEFSAII (Michael W. Deem and Ramdas Pophale) SiO2 
 PCOD8278582
Probable space group: C M M A
;
_chemical_formula_sum "Si O2"
_cell_formula_units_Z 80
_cell_length_a 23.888619
_cell_length_b 8.587927
_cell_length_c 20.571842
_cell_angle_alpha 90.000000
_cell_angle_beta 90.000000
_cell_angle_gamma 90.000000
_cell_volume 4220.389833
_symmetry_space_group_name_H-M "C M M A"
_symmetry_group_IT_number 67
_symmetry_cell_setting 'orthorhombic'
loop_
_space_group_symop_operation_xyz
x,y,z
-x,1/2-y,z
x,-y,-z
-x,1/2+y,-z
-x,-y,-z
x,1/2+y,-z
-x,y,z
x,1/2-y,z
1/2+x,1/2+y,z
1/2-x,-y,z
1/2+x,1/2-y,-z
1/2-x,y,-z
1/2-x,1/2-y,-z
1/2+x,y,-z
1/2-x,1/2+y,z
1/2+x,-y,z
loop_
_atom_site_type_symbol
_atom_site_label
_atom_site_fract_x
_atom_site_fract_y
_atom_site_fract_z
Si Si1 0.189219 0.565224 0.068822
Si Si2 0.500000 0.566898 0.376758
Si Si3 0.811492 0.433513 0.687223
Si Si4 0.000000 0.065320 0.766652
Si Si5 0.388049 0.934595 0.567991
Si Si6 0.381041 0.435187 0.190719
O O1 0.193007 0.750000 0.065393
O O2 0.250000 0.500000 0.087010
O O3 0.145450 0.506605 0.123077
O O4 0.168034 0.500000 0.000000
O O5 0.500000 0.750000 0.365949
O O6 0.500000 0.483431 0.307759
O O7 0.553319 0.516053 0.417935
O O8 0.807788 0.250000 0.692564
O O9 0.750000 0.500000 0.685786
O O10 0.843560 0.485402 0.622395
O O11 0.844654 0.501757 0.749428
O O12 0.944621 0.000909 0.803129
O O13 0.000000 0.250000 0.767626
O O14 0.396310 0.750000 0.565880
O O15 0.364684 0.000000 0.500000
O O16 0.381075 0.250000 0.193589
#
# Coordination Sequence:
#
# PCOD8278582 Si02
#       6
#    16   8  16   8  16  16
#     4  10  19  33  54  82 113 147 186 224 271 322
#     4  12  23  37  58  87 114 141 183 231 283 330
#     4  10  21  37  57  81 108 144 185 228 277 330
#     4  10  18  37  62  81 109 145 185 227 274 334
#     4  11  23  40  60  81 111 147 186 229 280 335
#     4   9  18  34  58  83 107 143 187 226 272 328
#
# _framework density 18.955596
#
# number of rings (size 3 to 8) (size 9 to 14) (size 15 to 20)
#    0.000    1.800    2.000    3.600    0.000    2.000 
#    0.000    5.500    0.000    0.000    0.000    0.000 
#    0.000    0.000    0.000    0.000    0.000    0.000 
#
# Total GULP energy -496065.324818 kJ/mol
# GULP energy per Si atom -12401.633120 kJ/mol
# Density = 1.891245 g / cm^3
# Si number density = 18.955596 Si / 1000 Ang^3
#
#
#
# Elastic Constant Matrix: (Units=GPa)
#
#
# Indices 1 2 3 4 5 6 
#
# 1 165.9482 24.2513 93.7044 0.0000 0.0000 0.0000
# 2 24.2513 16.2256 10.0152 0.0000 0.0000 0.0000
# 3 93.7044 10.0152 162.0082 0.0000 0.0000 0.0000
# 4 0.0000 0.0000 0.0000 22.7690 0.0000 0.0000
# 5 0.0000 0.0000 0.0000 0.0000 11.5413 0.0000
# 6 0.0000 0.0000 0.0000 0.0000 0.0000 23.2514
#
#
#
# Elastic Compliance Matrix: (Units=1/GPa)
#
#
# Indices 1 2 3 4 5 6 
#
# 1 0.011121 -0.013154 -0.005619 0.000000 0.000000 0.000000
# 2 -0.013154 0.079633 0.002685 0.000000 0.000000 0.000000
# 3 -0.005619 0.002685 0.009257 0.000000 0.000000 0.000000
# 4 0.000000 0.000000 0.000000 0.043919 0.000000 0.000000
# 5 0.000000 0.000000 0.000000 0.000000 0.086645 0.000000
# 6 0.000000 0.000000 0.000000 0.000000 0.000000 0.043008
#
#
# Mechanical properties :
#
#
# Convention : Reuss Voigt Hill
#
# Bulk Modulus (GPa) = 14.74153 66.68041 40.71097
# Shear Modulus (GPa) = 15.22667 25.92641 20.57654
#
# Velocity S-wave (km/s) = 2.83730 3.70231 3.29829
# Velocity P-wave (km/s) = 4.30435 7.31640 6.00238
#
# Compressibility (1/GPa) = 0.06783554
#
# Stress axis : x y z
#
# Youngs Moduli (GPa) = 89.91838 12.55758 108.02997
#
# Poissons Ratio (x) = 0.16518 0.60705
# Poissons Ratio (y) = 1.18275 -0.29007
# Poissons Ratio (z) = 0.50528 -0.03372
#
# Static dielectric constant tensor:
#      x y z
#    x 3.649520 0.000000 0.000000 
#    y 0.000000 3.289410 0.000000 
#    z 0.000000 0.000000 3.734370 
# 
# 
# High freq. dielectric constant tensor:
#      x y z
#    x 1.741020 0.000000 0.000000 
#    y 0.000000 1.720660 0.000000 
#    z 0.000000 0.000000 1.746330 
# 
# From -- ./inp_files/39507.got.cif
#   From: 2010.03.12/outbox.cif.g09.slc.cpg/sg67_20_cif.got.tgz:39507.got - 2010.04.10 22:41:39.
