data_PCOD8278790
_publ_section_title
;
Structure prediction by ZEFSAII (Michael W. Deem and Ramdas Pophale) SiO2 
 PCOD8278790
Probable space group: C M M A
;
_chemical_formula_sum "Si O2"
_cell_formula_units_Z 104
_cell_length_a 8.785833
_cell_length_b 26.474785
_cell_length_c 24.348674
_cell_angle_alpha 90.000000
_cell_angle_beta 90.000000
_cell_angle_gamma 90.000000
_cell_volume 5663.575586
_symmetry_space_group_name_H-M "C M M A"
_symmetry_group_IT_number 67
_symmetry_cell_setting 'orthorhombic'
loop_
_space_group_symop_operation_xyz
x,y,z
-x,1/2-y,z
x,-y,-z
-x,1/2+y,-z
-x,-y,-z
x,1/2+y,-z
-x,y,z
x,1/2-y,z
1/2+x,1/2+y,z
1/2-x,-y,z
1/2+x,1/2-y,-z
1/2-x,y,-z
1/2-x,1/2-y,-z
1/2+x,y,-z
1/2-x,1/2+y,z
1/2+x,-y,z
loop_
_atom_site_type_symbol
_atom_site_label
_atom_site_fract_x
_atom_site_fract_y
_atom_site_fract_z
Si Si1 0.176944 0.550356 0.232838
Si Si2 0.821325 0.192528 0.944483
Si Si3 0.318958 0.250000 0.440152
Si Si4 0.180189 0.552789 0.649258
Si Si5 0.822054 0.652039 0.373523
Si Si6 0.675689 0.349323 0.169688
Si Si7 0.170308 0.692112 0.729312
O O1 0.250000 0.500000 0.207044
O O2 0.265006 0.563805 0.288747
O O3 0.201362 0.592884 0.187027
O O4 0.000000 0.542280 0.247335
O O5 0.764803 0.250000 0.935150
O O6 0.768194 0.158716 0.892719
O O7 0.000000 0.190446 0.951596
O O8 0.750000 0.169614 0.000000
O O9 0.500000 0.250000 0.442300
O O10 0.250000 0.250000 0.500000
O O11 0.260878 0.199094 0.409753
O O12 0.250000 0.500000 0.627454
O O13 0.237448 0.599466 0.610921
O O14 0.000000 0.549156 0.646556
O O15 0.787603 0.663029 0.309779
O O16 0.000000 0.644022 0.381793
O O17 0.500000 0.333047 0.175527
O O18 0.774838 0.313209 0.208307
O O19 0.170672 0.750000 0.712275
O O20 0.000000 0.669602 0.722288
#
# Coordination Sequence:
#
# PCOD8278790 Si02
#       7
#    16  16   8  16  16  16  16
#     4  10  19  31  48  72 103 139 175 216 264 323
#     4   9  18  33  51  71  95 128 170 215 265 319
#     4  10  24  42  64  88 116 156 197 234 277 328
#     4  11  21  34  54  82 114 151 188 231 280 332
#     4  11  21  37  57  82 114 152 189 227 275 329
#     4  10  20  33  51  72 100 138 176 214 266 332
#     4  11  22  32  47  77 111 142 176 220 271 323
#
# _framework density 18.362959
#
# number of rings (size 3 to 8) (size 9 to 14) (size 15 to 20)
#    0.000    1.692    2.308    4.154    0.000    4.000 
#    0.000    1.538    0.000    0.923    0.000    6.462 
#    0.000    0.000    0.000    0.000    0.000    0.000 
#
# Total GULP energy -644789.327888 kJ/mol
# GULP energy per Si atom -12399.794767 kJ/mol
# Density = 1.832116 g / cm^3
# Si number density = 18.362959 Si / 1000 Ang^3
#
#
#
# Elastic Constant Matrix: (Units=GPa)
#
#
# Indices 1 2 3 4 5 6 
#
# 1 88.6927 50.9258 28.0904 0.0000 0.0000 0.0000
# 2 50.9258 133.6671 50.3368 0.0000 0.0000 0.0000
# 3 28.0904 50.3368 82.4878 0.0000 0.0000 0.0000
# 4 0.0000 0.0000 0.0000 17.0657 0.0000 0.0000
# 5 0.0000 0.0000 0.0000 0.0000 26.4420 0.0000
# 6 0.0000 0.0000 0.0000 0.0000 0.0000 30.1457
#
#
#
# Elastic Compliance Matrix: (Units=1/GPa)
#
#
# Indices 1 2 3 4 5 6 
#
# 1 0.014697 -0.004823 -0.002062 0.000000 0.000000 0.000000
# 2 -0.004823 0.011296 -0.005251 0.000000 0.000000 0.000000
# 3 -0.002062 -0.005251 0.016029 0.000000 0.000000 0.000000
# 4 0.000000 0.000000 0.000000 0.058597 0.000000 0.000000
# 5 0.000000 0.000000 0.000000 0.000000 0.037819 0.000000
# 6 0.000000 0.000000 0.000000 0.000000 0.000000 0.033172
#
#
# Mechanical properties :
#
#
# Convention : Reuss Voigt Hill
#
# Bulk Modulus (GPa) = 56.33375 62.61705 59.47540
# Shear Modulus (GPa) = 24.77708 26.43031 25.60369
#
# Velocity S-wave (km/s) = 3.67726 3.79796 3.73810
# Velocity P-wave (km/s) = 6.98385 7.30797 7.14775
#
# Compressibility (1/GPa) = 0.01775135
#
# Stress axis : x y z
#
# Youngs Moduli (GPa) = 68.04014 88.52541 62.38540
#
# Poissons Ratio (x) = 0.42696 0.12863
# Poissons Ratio (y) = 0.32816 0.32758
# Poissons Ratio (z) = 0.14029 0.46484
#
# Static dielectric constant tensor:
#      x y z
#    x 3.406290 0.000000 0.000000 
#    y 0.000000 3.699330 0.000000 
#    z 0.000000 0.000000 3.188090 
# 
# 
# High freq. dielectric constant tensor:
#      x y z
#    x 1.717680 0.000000 0.000000 
#    y 0.000000 1.719900 0.000000 
#    z 0.000000 0.000000 1.676820 
# 
# From -- ./inp_files/40996.got.cif
#   From: 2010.03.12/outbox.cif.g09.slc.cpg/sg67_21_cif.got.tgz:40996.got - 2010.04.10 22:41:39.
