data_PCOD8278812
_publ_section_title
;
Structure prediction by ZEFSAII (Michael W. Deem and Ramdas Pophale) SiO2 
 PCOD8278812
Probable space group: C M M A
;
_chemical_formula_sum "Si O2"
_cell_formula_units_Z 80
_cell_length_a 19.124820
_cell_length_b 7.806109
_cell_length_c 29.636302
_cell_angle_alpha 90.000000
_cell_angle_beta 90.000000
_cell_angle_gamma 90.000000
_cell_volume 4424.416255
_symmetry_space_group_name_H-M "C M M A"
_symmetry_group_IT_number 67
_symmetry_cell_setting 'orthorhombic'
loop_
_space_group_symop_operation_xyz
x,y,z
-x,1/2-y,z
x,-y,-z
-x,1/2+y,-z
-x,-y,-z
x,1/2+y,-z
-x,y,z
x,1/2-y,z
1/2+x,1/2+y,z
1/2-x,-y,z
1/2+x,1/2-y,-z
1/2-x,y,-z
1/2-x,1/2-y,-z
1/2+x,y,-z
1/2-x,1/2+y,z
1/2+x,-y,z
loop_
_atom_site_type_symbol
_atom_site_label
_atom_site_fract_x
_atom_site_fract_y
_atom_site_fract_z
Si Si1 0.669615 0.952461 0.144461
Si Si2 0.582989 0.250000 0.711629
Si Si3 0.916772 0.942288 0.451161
Si Si4 0.416524 0.250000 0.610522
Si Si5 0.419495 0.441652 0.226748
Si Si6 0.170700 0.447826 0.046536
O O1 0.658892 0.750000 0.149803
O O2 0.644278 0.022418 0.094705
O O3 0.750000 0.000000 0.152600
O O4 0.622714 0.049594 0.180453
O O5 0.500000 0.250000 0.708675
O O6 0.614191 0.250000 0.661184
O O7 0.609789 0.420576 0.737293
O O8 0.889649 0.750000 0.439677
O O9 0.000000 0.943498 0.451782
O O10 0.888313 0.000000 0.500000
O O11 0.888748 0.078323 0.414329
O O12 0.500000 0.250000 0.610446
O O13 0.500000 0.482850 0.215637
O O14 0.411197 0.250000 0.247053
O O15 0.163808 0.250000 0.052465
O O16 0.250000 0.500000 0.040043
O O17 0.129767 0.500000 0.000000
#
# Coordination Sequence:
#
# PCOD8278812 Si02
#       6
#    16   8  16   8  16  16
#     4  10  19  31  49  74  99 123 158 202 240 286
#     4   9  18  32  46  62  88 119 159 203 236 279
#     4   9  14  20  31  48  73 105 142 184 227 269
#     4   9  16  24  36  54  76 108 148 191 230 266
#     4  10  20  34  52  70  92 126 164 203 246 290
#     4   9  16  25  40  63  93 123 148 182 231 282
#
# _framework density 18.081479999999999
#
# number of rings (size 3 to 8) (size 9 to 14) (size 15 to 20)
#    0.000    2.600    2.000    1.800    0.000    3.200 
#    0.000    4.000    0.000    0.600    0.000    0.000 
#    0.000    0.000    0.000    0.000    0.000    3.000 
#
# Total GULP energy -495538.335993 kJ/mol
# GULP energy per Si atom -12388.458400 kJ/mol
# Density = 1.804033 g / cm^3
# Si number density = 18.081480 Si / 1000 Ang^3
#
#
#
# Elastic Constant Matrix: (Units=GPa)
#
#
# Indices 1 2 3 4 5 6 
#
# 1 20.6023 14.9709 24.4981 0.0000 0.0000 0.0000
# 2 14.9709 131.9625 72.8642 0.0000 0.0000 0.0000
# 3 24.4981 72.8642 174.6961 0.0000 0.0000 0.0000
# 4 0.0000 0.0000 0.0000 29.8922 0.0000 0.0000
# 5 0.0000 0.0000 0.0000 0.0000 -19.7113 0.0000
# 6 0.0000 0.0000 0.0000 0.0000 0.0000 12.2440
#
#
#
# Elastic Compliance Matrix: (Units=1/GPa)
#
#
# Indices 1 2 3 4 5 6 
#
# 1 0.059016 -0.002762 -0.007124 0.000000 0.000000 0.000000
# 2 -0.002762 0.009975 -0.003773 0.000000 0.000000 0.000000
# 3 -0.007124 -0.003773 0.008297 0.000000 0.000000 0.000000
# 4 0.000000 0.000000 0.000000 0.033454 0.000000 0.000000
# 5 0.000000 0.000000 0.000000 0.000000 -0.050732 0.000000
# 6 0.000000 0.000000 0.000000 0.000000 0.000000 0.081672
#
#
# Mechanical properties :
#
#
# Convention : Reuss Voigt Hill
#
# Bulk Modulus (GPa) = 20.01196 61.32526 40.66861
# Shear Modulus (GPa) = 26.93158 18.81350 22.87254
#
# Velocity S-wave (km/s) = 3.86353 3.22915 3.56050
# Velocity P-wave (km/s) = 5.56724 6.92047 6.28041
#
# Compressibility (1/GPa) = 0.04997012
#
# Stress axis : x y z
#
# Youngs Moduli (GPa) = 16.94449 100.25550 120.52617
#
# Poissons Ratio (x) = 0.27687 0.85865
# Poissons Ratio (y) = 0.04679 0.45475
# Poissons Ratio (z) = 0.12072 0.37827
#
# Static dielectric constant tensor:
#      x y z
#    x 2.615980 0.000000 0.000000 
#    y 0.000000 3.611160 0.000000 
#    z 0.000000 0.000000 3.549160 
# 
# 
# High freq. dielectric constant tensor:
#      x y z
#    x 1.611120 0.000000 0.000000 
#    y 0.000000 1.719610 0.000000 
#    z 0.000000 0.000000 1.712750 
# 
# From -- ./inp_files/44471.got.cif
#   From: 2010.03.12/outbox.cif.g09.slc.cpg/sg67_23_cif.got.tgz:44471.got - 2010.04.10 22:41:39.
