data_PCOD8278726
_publ_section_title
;
Structure prediction by ZEFSAII (Michael W. Deem and Ramdas Pophale) SiO2 
 PCOD8278726
Probable space group: C M M A
;
_chemical_formula_sum "Si O2"
_cell_formula_units_Z 96
_cell_length_a 21.731989
_cell_length_b 18.497187
_cell_length_c 12.241037
_cell_angle_alpha 90.000000
_cell_angle_beta 90.000000
_cell_angle_gamma 90.000000
_cell_volume 4920.660186
_symmetry_space_group_name_H-M "C M M A"
_symmetry_group_IT_number 67
_symmetry_cell_setting 'orthorhombic'
loop_
_space_group_symop_operation_xyz
x,y,z
-x,1/2-y,z
x,-y,-z
-x,1/2+y,-z
-x,-y,-z
x,1/2+y,-z
-x,y,z
x,1/2-y,z
1/2+x,1/2+y,z
1/2-x,-y,z
1/2+x,1/2-y,-z
1/2-x,y,-z
1/2-x,1/2-y,-z
1/2+x,y,-z
1/2-x,1/2+y,z
1/2+x,-y,z
loop_
_atom_site_type_symbol
_atom_site_label
_atom_site_fract_x
_atom_site_fract_y
_atom_site_fract_z
Si Si1 0.634971 0.399340 0.662535
Si Si2 0.569869 0.573802 0.936154
Si Si3 0.069586 0.458097 0.699882
Si Si4 0.426774 0.168072 0.871938
Si Si5 0.243995 0.170561 0.628509
Si Si6 0.611572 0.666405 0.569137
O O1 0.614687 0.482460 0.643954
O O2 0.600239 0.374303 0.770125
O O3 0.709132 0.389398 0.678174
O O4 0.616976 0.349788 0.559591
O O5 0.500000 0.596336 0.914491
O O6 0.599843 0.565333 0.816374
O O7 0.576110 0.500000 0.000000
O O8 0.599642 0.635379 0.013946
O O9 0.062688 0.388415 0.621369
O O10 0.000000 0.489638 0.714674
O O11 0.500000 0.159214 0.867432
O O12 0.404874 0.250000 0.865783
O O13 0.258201 0.250000 0.680456
O O14 0.250000 0.177310 0.500000
O O15 0.172559 0.149471 0.642551
O O16 0.591244 0.750000 0.581758
#
# Coordination Sequence:
#
# PCOD8278726 Si02
#       6
#    16  16  16  16  16  16
#     4  11  19  33  57  82 110 139 176 228 281 322
#     4   9  17  34  53  70 102 143 179 220 266 313
#     4  11  23  36  54  80 112 148 183 218 269 334
#     4  10  19  30  51  83 110 138 182 229 274 326
#     4   8  16  33  55  77 104 140 181 223 266 314
#     4  10  22  38  54  77 111 148 185 224 267 322
#
# _framework density 19.509578000000001
#
# number of rings (size 3 to 8) (size 9 to 14) (size 15 to 20)
#    0.000    2.167    1.667    3.500    0.000    3.667 
#    0.000    4.167    0.000    1.000    0.000    3.500 
#    0.000    0.000    0.000    0.000    0.000    0.000 
#
# Total GULP energy -594749.046776 kJ/mol
# GULP energy per Si atom -12390.605141 kJ/mol
# Density = 1.946517 g / cm^3
# Si number density = 19.509578 Si / 1000 Ang^3
#
#
#
# Elastic Constant Matrix: (Units=GPa)
#
#
# Indices 1 2 3 4 5 6 
#
# 1 37.7612 31.3036 8.7718 0.0000 0.0000 0.0000
# 2 31.3036 111.7875 35.1989 0.0000 0.0000 0.0000
# 3 8.7718 35.1989 65.6322 0.0000 0.0000 0.0000
# 4 0.0000 0.0000 0.0000 -14.0170 0.0000 0.0000
# 5 0.0000 0.0000 0.0000 0.0000 11.2023 0.0000
# 6 0.0000 0.0000 0.0000 0.0000 0.0000 14.5090
#
#
#
# Elastic Compliance Matrix: (Units=1/GPa)
#
#
# Indices 1 2 3 4 5 6 
#
# 1 0.034514 -0.009881 0.000686 0.000000 0.000000 0.000000
# 2 -0.009881 0.013592 -0.005969 0.000000 0.000000 0.000000
# 3 0.000686 -0.005969 0.018346 0.000000 0.000000 0.000000
# 4 0.000000 0.000000 0.000000 -0.071342 0.000000 0.000000
# 5 0.000000 0.000000 0.000000 0.000000 0.089267 0.000000
# 6 0.000000 0.000000 0.000000 0.000000 0.000000 0.068923
#
#
# Mechanical properties :
#
#
# Convention : Reuss Voigt Hill
#
# Bulk Modulus (GPa) = 27.68175 40.63659 34.15917
# Shear Modulus (GPa) = 25.55342 11.66596 18.60969
#
# Velocity S-wave (km/s) = 3.62303 2.44798 3.09184
# Velocity P-wave (km/s) = 5.63217 5.37256 5.50390
#
# Compressibility (1/GPa) = 0.03612489
#
# Stress axis : x y z
#
# Youngs Moduli (GPa) = 28.97375 73.57316 54.50838
#
# Poissons Ratio (x) = 0.72698 -0.03741
# Poissons Ratio (y) = 0.28629 0.32535
# Poissons Ratio (z) = -0.01989 0.43914
#
# Static dielectric constant tensor:
#      x y z
#    x 3.792240 0.000000 0.000000 
#    y 0.000000 3.704950 0.000000 
#    z 0.000000 0.000000 3.518380 
# 
# 
# High freq. dielectric constant tensor:
#      x y z
#    x 1.726420 0.000000 0.000000 
#    y 0.000000 1.764690 0.000000 
#    z 0.000000 0.000000 1.750170 
# 
# From -- ./inp_files/21923.got.cif
#   From: 2010.03.12/outbox.cif.g09.slc.cpg/sg67_11_cif.got.tgz:21923.got - 2010.04.10 22:41:39.
