data_PCOD8278813
_publ_section_title
;
Structure prediction by ZEFSAII (Michael W. Deem and Ramdas Pophale) SiO2 
 PCOD8278813
Probable space group: C M M A
;
_chemical_formula_sum "Si O2"
_cell_formula_units_Z 128
_cell_length_a 19.776077
_cell_length_b 17.186953
_cell_length_c 21.351684
_cell_angle_alpha 90.000000
_cell_angle_beta 90.000000
_cell_angle_gamma 90.000000
_cell_volume 7257.234677
_symmetry_space_group_name_H-M "C M M A"
_symmetry_group_IT_number 67
_symmetry_cell_setting 'orthorhombic'
loop_
_space_group_symop_operation_xyz
x,y,z
-x,1/2-y,z
x,-y,-z
-x,1/2+y,-z
-x,-y,-z
x,1/2+y,-z
-x,y,z
x,1/2-y,z
1/2+x,1/2+y,z
1/2-x,-y,z
1/2+x,1/2-y,-z
1/2-x,y,-z
1/2-x,1/2-y,-z
1/2+x,y,-z
1/2-x,1/2+y,z
1/2+x,-y,z
loop_
_atom_site_type_symbol
_atom_site_label
_atom_site_fract_x
_atom_site_fract_y
_atom_site_fract_z
Si Si1 0.926016 0.004680 0.137988
Si Si2 0.234706 0.336391 0.869166
Si Si3 0.652504 0.576704 0.967260
Si Si4 0.325225 0.339808 0.476266
Si Si5 0.185091 0.947835 0.228673
Si Si6 0.077346 0.563369 0.554167
Si Si7 0.323945 0.535699 0.628273
Si Si8 0.883220 0.837391 0.910869
O O1 0.929662 0.096043 0.119288
O O2 0.000000 0.979641 0.160477
O O3 0.907840 0.950561 0.078595
O O4 0.876812 0.991181 0.195936
O O5 0.206150 0.250000 0.878872
O O6 0.213815 0.389429 0.927378
O O7 0.202636 0.365876 0.803931
O O8 0.315340 0.337847 0.869344
O O9 0.681963 0.500000 0.000000
O O10 0.627958 0.641858 0.016108
O O11 0.335078 0.250000 0.459385
O O12 0.250000 0.357752 0.500000
O O13 0.380864 0.362225 0.528906
O O14 0.336759 0.388808 0.413665
O O15 0.167535 0.935223 0.300958
O O16 0.250000 0.000000 0.219103
O O17 0.076141 0.500000 0.500000
O O18 0.118363 0.528738 0.613504
O O19 0.000000 0.586236 0.573103
O O20 0.250000 0.500000 0.615279
O O21 0.915184 0.750000 0.907689
#
# Coordination Sequence:
#
# PCOD8278813 Si02
#       8
#    16  16  16  16  16  16  16  16
#     4  10  21  36  52  72 102 136 173 215 266 317
#     4  10  19  32  51  77 106 133 168 217 271 321
#     4   9  19  30  50  74 101 132 170 213 265 321
#     4  10  19  32  53  83 116 149 178 214 267 317
#     4  10  20  36  56  77  99 138 182 223 263 306
#     4   9  18  32  53  81 111 145 178 217 264 313
#     4  10  19  33  56  80 106 139 184 226 259 309
#     4  10  19  31  49  75 103 131 166 212 268 324
#
# _framework density 17.637571000000001
#
# number of rings (size 3 to 8) (size 9 to 14) (size 15 to 20)
#    0.000    2.250    2.500    0.750    0.000    6.250 
#    0.000    0.000    0.000    9.750    0.000    7.000 
#    0.000    0.000    0.000    0.000    0.000    0.000 
#
# Total GULP energy -793390.058991 kJ/mol
# GULP energy per Si atom -12396.719672 kJ/mol
# Density = 1.759743 g / cm^3
# Si number density = 17.637571 Si / 1000 Ang^3
#
#
#
# Elastic Constant Matrix: (Units=GPa)
#
#
# Indices 1 2 3 4 5 6 
#
# 1 112.7643 30.0509 41.4314 0.0000 0.0000 0.0000
# 2 30.0509 93.7720 42.2231 0.0000 0.0000 0.0000
# 3 41.4314 42.2231 104.3634 0.0000 0.0000 0.0000
# 4 0.0000 0.0000 0.0000 20.1604 0.0000 0.0000
# 5 0.0000 0.0000 0.0000 0.0000 -316.2117 0.0000
# 6 0.0000 0.0000 0.0000 0.0000 0.0000 12.1927
#
#
#
# Elastic Compliance Matrix: (Units=1/GPa)
#
#
# Indices 1 2 3 4 5 6 
#
# 1 0.010637 -0.001843 -0.003477 0.000000 0.000000 0.000000
# 2 -0.001843 0.013359 -0.004673 0.000000 0.000000 0.000000
# 3 -0.003477 -0.004673 0.012853 0.000000 0.000000 0.000000
# 4 0.000000 0.000000 0.000000 0.049602 0.000000 0.000000
# 5 0.000000 0.000000 0.000000 0.000000 -0.003162 0.000000
# 6 0.000000 0.000000 0.000000 0.000000 0.000000 0.082016
#
#
# Mechanical properties :
#
#
# Convention : Reuss Voigt Hill
#
# Bulk Modulus (GPa) = 59.30416 59.81228 59.55822
# Shear Modulus (GPa) = 26.19009 -43.62544 -8.71767
#
# Velocity S-wave (km/s) = 3.85763 -4.97876 -2.22562
# Velocity P-wave (km/s) = 7.31700 0.96681 5.21887
#
# Compressibility (1/GPa) = 0.01686222
#
# Stress axis : x y z
#
# Youngs Moduli (GPa) = 94.01372 74.85599 77.80365
#
# Poissons Ratio (x) = 0.13797 0.27052
# Poissons Ratio (y) = 0.17328 0.36358
# Poissons Ratio (z) = 0.32689 0.34981
#
# Static dielectric constant tensor:
#      x y z
#    x 3.239010 0.000000 0.000000 
#    y 0.000000 3.335660 0.000000 
#    z 0.000000 0.000000 3.186150 
# 
# 
# High freq. dielectric constant tensor:
#      x y z
#    x 1.675780 0.000000 0.000000 
#    y 0.000000 1.679420 0.000000 
#    z 0.000000 0.000000 1.666340 
# 
# From -- ./inp_files/39422.got.cif
#   From: 2010.03.12/outbox.cif.g09.slc.cpg/sg67_20_cif.got.tgz:39422.got - 2010.04.10 22:41:39.
