data_PCOD8278967
_publ_section_title
;
Structure prediction by ZEFSAII (Michael W. Deem and Ramdas Pophale) SiO2 
 PCOD8278967
Probable space group: C M M A
;
_chemical_formula_sum "Si O2"
_cell_formula_units_Z 80
_cell_length_a 27.267626
_cell_length_b 9.063223
_cell_length_c 18.659178
_cell_angle_alpha 90.000000
_cell_angle_beta 90.000000
_cell_angle_gamma 90.000000
_cell_volume 4611.290709
_symmetry_space_group_name_H-M "C M M A"
_symmetry_group_IT_number 67
_symmetry_cell_setting 'orthorhombic'
loop_
_space_group_symop_operation_xyz
x,y,z
-x,1/2-y,z
x,-y,-z
-x,1/2+y,-z
-x,-y,-z
x,1/2+y,-z
-x,y,z
x,1/2-y,z
1/2+x,1/2+y,z
1/2-x,-y,z
1/2+x,1/2-y,-z
1/2-x,y,-z
1/2-x,1/2-y,-z
1/2+x,y,-z
1/2-x,1/2+y,z
1/2+x,-y,z
loop_
_atom_site_type_symbol
_atom_site_label
_atom_site_fract_x
_atom_site_fract_y
_atom_site_fract_z
Si Si1 0.055529 0.420675 0.159967
Si Si2 0.108136 0.924342 0.283834
Si Si3 0.852802 0.579926 0.927948
Si Si4 0.198895 0.575398 0.782559
Si Si5 0.055637 0.577341 0.428862
O O1 0.064780 0.250000 0.181708
O O2 0.066833 0.521905 0.228179
O O3 0.091660 0.463508 0.094697
O O4 0.000000 0.448337 0.134423
O O5 0.115676 0.750000 0.274538
O O6 0.089818 0.967583 0.362655
O O7 0.158990 0.008953 0.271565
O O8 0.848696 0.750000 0.945612
O O9 0.816197 0.535321 0.863884
O O10 0.836521 0.500000 0.000000
O O11 0.202169 0.750000 0.770907
O O12 0.250000 0.500000 0.764077
O O13 0.076587 0.500000 0.500000
O O14 0.057130 0.750000 0.442308
O O15 0.000000 0.524382 0.413134
#
# Coordination Sequence:
#
# PCOD8278967 Si02
#       5
#    16  16  16  16  16
#     4   9  18  32  48  68  97 133 170 205 243 290
#     4  10  19  32  51  75 102 130 164 206 247 289
#     4   9  19  33  48  69  97 127 161 201 245 295
#     4  10  21  37  55  75  97 124 161 203 250 300
#     4   9  18  31  48  74 107 139 169 199 233 278
#
# _framework density 17.348723
#
# number of rings (size 3 to 8) (size 9 to 14) (size 15 to 20)
#    0.000    2.600    0.000    3.000    0.000    7.600 
#    0.000    4.000    0.000    0.600    0.000    4.200 
#    0.000    0.000    0.000    0.000    0.000    0.000 
#
# Total GULP energy -496017.833990 kJ/mol
# GULP energy per Si atom -12400.445850 kJ/mol
# Density = 1.730924 g / cm^3
# Si number density = 17.348723 Si / 1000 Ang^3
#
#
#
# Elastic Constant Matrix: (Units=GPa)
#
#
# Indices 1 2 3 4 5 6 
#
# 1 97.2939 38.5512 38.9223 0.0000 0.0000 0.0000
# 2 38.5512 64.4319 49.5180 0.0000 0.0000 0.0000
# 3 38.9223 49.5180 115.4851 0.0000 0.0000 0.0000
# 4 0.0000 0.0000 0.0000 32.5531 0.0000 0.0000
# 5 0.0000 0.0000 0.0000 0.0000 14.7161 0.0000
# 6 0.0000 0.0000 0.0000 0.0000 0.0000 25.4163
#
#
#
# Elastic Compliance Matrix: (Units=1/GPa)
#
#
# Indices 1 2 3 4 5 6 
#
# 1 0.013678 -0.006922 -0.001642 0.000000 0.000000 0.000000
# 2 -0.006922 0.026651 -0.009095 0.000000 0.000000 0.000000
# 3 -0.001642 -0.009095 0.013112 0.000000 0.000000 0.000000
# 4 0.000000 0.000000 0.000000 0.030719 0.000000 0.000000
# 5 0.000000 0.000000 0.000000 0.000000 0.067953 0.000000
# 6 0.000000 0.000000 0.000000 0.000000 0.000000 0.039345
#
#
# Mechanical properties :
#
#
# Convention : Reuss Voigt Hill
#
# Bulk Modulus (GPa) = 55.17465 59.02155 57.09810
# Shear Modulus (GPa) = 21.47615 24.55171 23.01393
#
# Velocity S-wave (km/s) = 3.52221 3.76598 3.64613
# Velocity P-wave (km/s) = 6.95799 7.28043 7.12104
#
# Compressibility (1/GPa) = 0.01812427
#
# Stress axis : x y z
#
# Youngs Moduli (GPa) = 73.11202 37.52150 76.26508
#
# Poissons Ratio (x) = 0.25972 0.12522
# Poissons Ratio (y) = 0.50607 0.69361
# Poissons Ratio (z) = 0.12004 0.34125
#
# Static dielectric constant tensor:
#      x y z
#    x 3.216610 0.000000 0.000000 
#    y 0.000000 3.237790 0.000000 
#    z 0.000000 0.000000 3.121810 
# 
# 
# High freq. dielectric constant tensor:
#      x y z
#    x 1.665090 0.000000 0.000000 
#    y 0.000000 1.675410 0.000000 
#    z 0.000000 0.000000 1.657010 
# 
# From -- ./inp_files/32115.got.cif
#   From: 2010.03.12/outbox.cif.g09.slc.cpg/sg67_17_cif.got.tgz:32115.got - 2010.04.10 22:41:39.
