data_PCOD8278816
_publ_section_title
;
Structure prediction by ZEFSAII (Michael W. Deem and Ramdas Pophale) SiO2 
 PCOD8278816
Probable space group: C M M A
;
_chemical_formula_sum "Si O2"
_cell_formula_units_Z 104
_cell_length_a 26.506877
_cell_length_b 9.068508
_cell_length_c 23.913899
_cell_angle_alpha 90.000000
_cell_angle_beta 90.000000
_cell_angle_gamma 90.000000
_cell_volume 5748.371056
_symmetry_space_group_name_H-M "C M M A"
_symmetry_group_IT_number 67
_symmetry_cell_setting 'orthorhombic'
loop_
_space_group_symop_operation_xyz
x,y,z
-x,1/2-y,z
x,-y,-z
-x,1/2+y,-z
-x,-y,-z
x,1/2+y,-z
-x,y,z
x,1/2-y,z
1/2+x,1/2+y,z
1/2-x,-y,z
1/2+x,1/2-y,-z
1/2-x,y,-z
1/2-x,1/2-y,-z
1/2+x,y,-z
1/2-x,1/2+y,z
1/2+x,-y,z
loop_
_atom_site_type_symbol
_atom_site_label
_atom_site_fract_x
_atom_site_fract_y
_atom_site_fract_z
Si Si1 0.000000 0.575536 0.940578
Si Si2 0.557924 0.077137 0.556527
Si Si3 0.400846 0.076785 0.872298
Si Si4 0.801700 0.575977 0.143508
Si Si5 0.397292 0.580089 0.659732
Si Si6 0.057313 0.414688 0.772946
Si Si7 0.299164 0.079304 0.272681
O O1 0.948899 0.524710 0.908971
O O2 0.000000 0.750000 0.947483
O O3 0.000000 0.500000 0.000000
O O4 0.500000 0.033713 0.568867
O O5 0.564889 0.250000 0.549153
O O6 0.576815 0.000000 0.500000
O O7 0.592500 0.022283 0.606997
O O8 0.391500 0.250000 0.877094
O O9 0.349490 0.992158 0.890594
O O10 0.412164 0.034512 0.808116
O O11 0.798457 0.750000 0.132288
O O12 0.750000 0.500000 0.122086
O O13 0.810305 0.535285 0.208570
O O14 0.397347 0.750000 0.640202
O O15 0.439610 0.551025 0.707012
O O16 0.344744 0.532064 0.687500
O O17 0.080589 0.250000 0.783794
O O18 0.000000 0.419490 0.792359
O O19 0.288192 0.250000 0.276490
O O20 0.250000 0.000000 0.296303
#
# Coordination Sequence:
#
# PCOD8278816 Si02
#       7
#     8  16  16  16  16  16  16
#     4  10  24  42  60  84 114 152 197 236 279 328
#     4  10  21  36  53  74  99 132 174 217 264 317
#     4  11  21  35  54  81 115 148 183 231 278 325
#     4  10  19  34  54  81 113 150 190 227 275 334
#     4  10  19  33  51  74 104 138 175 216 262 319
#     4  10  19  31  49  75 108 146 180 214 267 329
#     4   9  18  31  48  72 105 139 175 213 257 314
#
# _framework density 18.092081
#
# number of rings (size 3 to 8) (size 9 to 14) (size 15 to 20)
#    0.000    2.000    2.308    1.846    0.000    4.615 
#    0.000    0.000    0.000    0.923    0.000    6.462 
#    0.000    0.000    0.000    0.000    0.000    0.000 
#
# Total GULP energy -644762.004844 kJ/mol
# GULP energy per Si atom -12399.269324 kJ/mol
# Density = 1.805090 g / cm^3
# Si number density = 18.092081 Si / 1000 Ang^3
#
#
#
# Elastic Constant Matrix: (Units=GPa)
#
#
# Indices 1 2 3 4 5 6 
#
# 1 132.8077 56.2644 41.8629 0.0000 0.0000 0.0000
# 2 56.2644 71.5387 32.1526 0.0000 0.0000 0.0000
# 3 41.8629 32.1526 66.2638 0.0000 0.0000 0.0000
# 4 0.0000 0.0000 0.0000 27.7320 0.0000 0.0000
# 5 0.0000 0.0000 0.0000 0.0000 15.2536 0.0000
# 6 0.0000 0.0000 0.0000 0.0000 0.0000 34.0857
#
#
#
# Elastic Compliance Matrix: (Units=1/GPa)
#
#
# Indices 1 2 3 4 5 6 
#
# 1 0.012011 -0.007720 -0.003843 0.000000 0.000000 0.000000
# 2 -0.007720 0.022839 -0.006205 0.000000 0.000000 0.000000
# 3 -0.003843 -0.006205 0.020529 0.000000 0.000000 0.000000
# 4 0.000000 0.000000 0.000000 0.036059 0.000000 0.000000
# 5 0.000000 0.000000 0.000000 0.000000 0.065558 0.000000
# 6 0.000000 0.000000 0.000000 0.000000 0.000000 0.029338
#
#
# Mechanical properties :
#
#
# Convention : Reuss Voigt Hill
#
# Bulk Modulus (GPa) = 50.38961 59.01890 54.70425
# Shear Modulus (GPa) = 21.88333 24.76960 23.32646
#
# Velocity S-wave (km/s) = 3.48164 3.70413 3.59460
# Velocity P-wave (km/s) = 6.63887 7.14047 6.89423
#
# Compressibility (1/GPa) = 0.01984536
#
# Stress axis : x y z
#
# Youngs Moduli (GPa) = 83.25387 43.78530 48.71060
#
# Poissons Ratio (x) = 0.33802 0.18717
# Poissons Ratio (y) = 0.64271 0.30223
# Poissons Ratio (z) = 0.31991 0.27167
#
# Static dielectric constant tensor:
#      x y z
#    x 3.561910 0.000000 0.000000 
#    y 0.000000 3.287630 0.000000 
#    z 0.000000 0.000000 3.056670 
# 
# 
# High freq. dielectric constant tensor:
#      x y z
#    x 1.708240 0.000000 0.000000 
#    y 0.000000 1.701980 0.000000 
#    z 0.000000 0.000000 1.667650 
# 
# From -- ./inp_files/42770.got.cif
#   From: 2010.03.12/outbox.cif.g09.slc.cpg/sg67_22_cif.got.tgz:42770.got - 2010.04.10 22:41:39.
