data_PCOD8278366
_publ_section_title
;
Structure prediction by ZEFSAII (Michael W. Deem and Ramdas Pophale) SiO2 
 PCOD8278366
Probable space group: C M M A
;
_chemical_formula_sum "Si O2"
_cell_formula_units_Z 64
_cell_length_a 16.609382
_cell_length_b 24.101635
_cell_length_c 7.796789
_cell_angle_alpha 90.000000
_cell_angle_beta 90.000000
_cell_angle_gamma 90.000000
_cell_volume 3121.158042
_symmetry_space_group_name_H-M "C M M A"
_symmetry_group_IT_number 67
_symmetry_cell_setting 'orthorhombic'
loop_
_space_group_symop_operation_xyz
x,y,z
-x,1/2-y,z
x,-y,-z
-x,1/2+y,-z
-x,-y,-z
x,1/2+y,-z
-x,y,z
x,1/2-y,z
1/2+x,1/2+y,z
1/2-x,-y,z
1/2+x,1/2-y,-z
1/2-x,y,-z
1/2-x,1/2-y,-z
1/2+x,y,-z
1/2-x,1/2+y,z
1/2+x,-y,z
loop_
_atom_site_type_symbol
_atom_site_label
_atom_site_fract_x
_atom_site_fract_y
_atom_site_fract_z
Si Si1 0.661910 0.865772 0.700279
Si Si2 0.830325 0.250000 0.879819
Si Si3 0.152924 0.867304 0.674737
Si Si4 0.091707 0.250000 0.214279
Si Si5 0.846393 0.562984 0.990789
O O1 0.661283 0.802032 0.755776
O O2 0.753852 0.882631 0.674285
O O3 0.617072 0.876257 0.517322
O O4 0.619554 0.904038 0.843907
O O5 0.750000 0.250000 0.000000
O O6 0.906209 0.250000 0.007961
O O7 0.139184 0.803422 0.719707
O O8 0.115785 0.908283 0.819712
O O9 0.000000 0.250000 0.279240
O O10 0.876897 0.500000 0.000000
O O11 0.750000 0.567054 0.000000
#
# Coordination Sequence:
#
# PCOD8278366 Si02
#       5
#    16   8  16   8  16
#     4  10  18  30  56  81 104 139 183 218 261 321
#     4  12  17  33  56  76 106 142 182 221 268 328
#     4  10  19  33  52  79 108 143 177 216 266 322
#     4  12  23  35  53  80 114 143 175 226 275 316
#     4   9  17  30  50  81 115 139 171 225 270 306
#
# _framework density 20.505210000000002
#
# number of rings (size 3 to 8) (size 9 to 14) (size 15 to 20)
#    0.000    1.750    5.000    1.500    0.000    3.000 
#    0.000    7.500    0.000    0.750    0.000    1.750 
#    0.000    0.000    0.000    0.000    0.000    0.000 
#
# Total GULP energy -396520.325751 kJ/mol
# GULP energy per Si atom -12391.260180 kJ/mol
# Density = 2.045854 g / cm^3
# Si number density = 20.505210 Si / 1000 Ang^3
#
#
#
# Elastic Constant Matrix: (Units=GPa)
#
#
# Indices 1 2 3 4 5 6 
#
# 1 18.8105 -4.5618 4.1602 0.0000 0.0000 0.0000
# 2 -4.5618 176.0303 107.0950 0.0000 0.0000 0.0000
# 3 4.1602 107.0950 233.1758 0.0000 0.0000 0.0000
# 4 0.0000 0.0000 0.0000 13.7861 0.0000 0.0000
# 5 0.0000 0.0000 0.0000 0.0000 5.6848 0.0000
# 6 0.0000 0.0000 0.0000 0.0000 0.0000 -0.8918
#
#
#
# Elastic Compliance Matrix: (Units=1/GPa)
#
#
# Indices 1 2 3 4 5 6 
#
# 1 0.054330 0.002772 -0.002243 0.000000 0.000000 0.000000
# 2 0.002772 0.008025 -0.003735 0.000000 0.000000 0.000000
# 3 -0.002243 -0.003735 0.006044 0.000000 0.000000 0.000000
# 4 0.000000 0.000000 0.000000 0.072537 0.000000 0.000000
# 5 0.000000 0.000000 0.000000 0.000000 0.175909 0.000000
# 6 0.000000 0.000000 0.000000 0.000000 0.000000 -1.121323
#
#
# Mechanical properties :
#
#
# Convention : Reuss Voigt Hill
#
# Bulk Modulus (GPa) = 16.13206 71.26704 43.69955
# Shear Modulus (GPa) = -6.43166 25.13737 9.35285
#
# Velocity S-wave (km/s) = -1.77297 3.50509 2.13802
# Velocity P-wave (km/s) = 1.92176 7.15625 5.23951
#
# Compressibility (1/GPa) = 0.06198838
#
# Stress axis : x y z
#
# Youngs Moduli (GPa) = 18.40597 124.60684 165.44697
#
# Poissons Ratio (x) = -0.34546 0.37104
# Poissons Ratio (y) = -0.05103 0.61800
# Poissons Ratio (z) = 0.04128 0.46545
#
# Static dielectric constant tensor:
#      x y z
#    x 3.059770 0.000000 0.000000 
#    y 0.000000 3.672440 0.000000 
#    z 0.000000 0.000000 4.489080 
# 
# 
# High freq. dielectric constant tensor:
#      x y z
#    x 1.726330 0.000000 0.000000 
#    y 0.000000 1.798340 0.000000 
#    z 0.000000 0.000000 1.826410 
# 
# From -- ./inp_files/11045.got.cif
#   From: 2010.03.12/outbox.cif.g09.slc.cpg/sg67_6_cif.got.tgz:11045.got - 2010.04.10 22:41:39.
