data_PCOD8278413
_publ_section_title
;
Structure prediction by ZEFSAII (Michael W. Deem and Ramdas Pophale) SiO2 
 PCOD8278413
Probable space group: C M M A
;
_chemical_formula_sum "Si O2"
_cell_formula_units_Z 112
_cell_length_a 25.402990
_cell_length_b 20.380801
_cell_length_c 11.793973
_cell_angle_alpha 90.000000
_cell_angle_beta 90.000000
_cell_angle_gamma 90.000000
_cell_volume 6106.132373
_symmetry_space_group_name_H-M "C M M A"
_symmetry_group_IT_number 67
_symmetry_cell_setting 'orthorhombic'
loop_
_space_group_symop_operation_xyz
x,y,z
-x,1/2-y,z
x,-y,-z
-x,1/2+y,-z
-x,-y,-z
x,1/2+y,-z
-x,y,z
x,1/2-y,z
1/2+x,1/2+y,z
1/2-x,-y,z
1/2+x,1/2-y,-z
1/2-x,y,-z
1/2-x,1/2-y,-z
1/2+x,y,-z
1/2-x,1/2+y,z
1/2+x,-y,z
loop_
_atom_site_type_symbol
_atom_site_label
_atom_site_fract_x
_atom_site_fract_y
_atom_site_fract_z
Si Si1 0.208498 0.556797 0.345260
Si Si2 0.228055 0.321698 0.374252
Si Si3 0.637236 0.393953 0.534483
Si Si4 0.940119 0.622003 0.336931
Si Si5 0.940812 0.066956 0.067529
Si Si6 0.892737 0.008085 0.280277
Si Si7 0.562366 0.823241 0.898487
O O1 0.250000 0.500000 0.355857
O O2 0.237844 0.624030 0.303889
O O3 0.183844 0.568679 0.468854
O O4 0.161951 0.532500 0.260929
O O5 0.232121 0.250000 0.314290
O O6 0.250000 0.315858 0.500000
O O7 0.165965 0.341263 0.383525
O O8 0.596565 0.361210 0.445206
O O9 0.607041 0.447482 0.608125
O O10 0.938480 0.545336 0.300893
O O11 0.917932 0.663168 0.229645
O O12 0.000000 0.641107 0.367417
O O13 0.903828 0.056190 0.175721
O O14 0.000000 0.086345 0.106335
O O15 0.915230 0.124437 0.989679
O O16 0.942533 0.000000 0.000000
O O17 0.500000 0.831974 0.896695
O O18 0.579634 0.750000 0.934849
#
# Coordination Sequence:
#
# PCOD8278413 Si02
#       7
#    16  16  16  16  16  16  16
#     4  10  18  31  54  75 103 140 180 219 271 323
#     4   9  18  31  49  73 105 141 181 220 256 311
#     4  10  21  29  50  82 112 149 178 219 269 336
#     4  10  19  31  48  78 117 147 179 226 276 323
#     4  10  19  35  56  76 105 142 184 231 267 311
#     4  11  20  29  51  84 106 141 180 225 272 333
#     4   9  18  34  56  77  99 142 194 229 264 311
#
# _framework density 18.342214999999999
#
# number of rings (size 3 to 8) (size 9 to 14) (size 15 to 20)
#    0.000    2.143    2.857    2.143    4.000    2.286 
#    0.000    2.857    0.000    0.429    0.000    4.000 
#    0.000    5.714    0.000    0.000    0.000    0.000 
#
# Total GULP energy -693978.516713 kJ/mol
# GULP energy per Si atom -12392.473513 kJ/mol
# Density = 1.830047 g / cm^3
# Si number density = 18.342215 Si / 1000 Ang^3
#
#
#
# Elastic Constant Matrix: (Units=GPa)
#
#
# Indices 1 2 3 4 5 6 
#
# 1 75.0927 35.6783 36.0707 0.0000 0.0000 0.0000
# 2 35.6783 123.8173 43.1277 0.0000 0.0000 0.0000
# 3 36.0707 43.1277 74.2602 0.0000 0.0000 0.0000
# 4 0.0000 0.0000 0.0000 22.6830 0.0000 0.0000
# 5 0.0000 0.0000 0.0000 0.0000 9.9512 0.0000
# 6 0.0000 0.0000 0.0000 0.0000 0.0000 19.0769
#
#
#
# Elastic Compliance Matrix: (Units=1/GPa)
#
#
# Indices 1 2 3 4 5 6 
#
# 1 0.018059 -0.002693 -0.007208 0.000000 0.000000 0.000000
# 2 -0.002693 0.010526 -0.004805 0.000000 0.000000 0.000000
# 3 -0.007208 -0.004805 0.019758 0.000000 0.000000 0.000000
# 4 0.000000 0.000000 0.000000 0.044086 0.000000 0.000000
# 5 0.000000 0.000000 0.000000 0.000000 0.100490 0.000000
# 6 0.000000 0.000000 0.000000 0.000000 0.000000 0.052419
#
#
# Mechanical properties :
#
#
# Convention : Reuss Voigt Hill
#
# Bulk Modulus (GPa) = 52.82365 55.88039 54.35202
# Shear Modulus (GPa) = 17.78979 20.89512 19.34246
#
# Velocity S-wave (km/s) = 3.11767 3.37884 3.25088
# Velocity P-wave (km/s) = 6.46694 6.76415 6.61721
#
# Compressibility (1/GPa) = 0.01893091
#
# Stress axis : x y z
#
# Youngs Moduli (GPa) = 55.37527 95.00168 50.61302
#
# Poissons Ratio (x) = 0.25585 0.36480
# Poissons Ratio (y) = 0.14913 0.24320
# Poissons Ratio (z) = 0.39912 0.45649
#
# Static dielectric constant tensor:
#      x y z
#    x 3.437650 0.000000 0.000000 
#    y 0.000000 3.733510 0.000000 
#    z 0.000000 0.000000 3.127690 
# 
# 
# High freq. dielectric constant tensor:
#      x y z
#    x 1.695780 0.000000 0.000000 
#    y 0.000000 1.713940 0.000000 
#    z 0.000000 0.000000 1.665110 
# 
# From -- ./inp_files/23143.got.cif
#   From: 2010.03.12/outbox.cif.g09.slc.cpg/sg67_12_cif.got.tgz:23143.got - 2010.04.10 22:41:39.
