data_PCOD8278272
_publ_section_title
;
Structure prediction by ZEFSAII (Michael W. Deem and Ramdas Pophale) SiO2 
 PCOD8278272
Probable space group: C M M A
;
_chemical_formula_sum "Si O2"
_cell_formula_units_Z 88
_cell_length_a 28.008299
_cell_length_b 8.698713
_cell_length_c 19.060720
_cell_angle_alpha 90.000000
_cell_angle_beta 90.000000
_cell_angle_gamma 90.000000
_cell_volume 4643.880525
_symmetry_space_group_name_H-M "C M M A"
_symmetry_group_IT_number 67
_symmetry_cell_setting 'orthorhombic'
loop_
_space_group_symop_operation_xyz
x,y,z
-x,1/2-y,z
x,-y,-z
-x,1/2+y,-z
-x,-y,-z
x,1/2+y,-z
-x,y,z
x,1/2-y,z
1/2+x,1/2+y,z
1/2-x,-y,z
1/2+x,1/2-y,-z
1/2-x,y,-z
1/2-x,1/2-y,-z
1/2+x,y,-z
1/2-x,1/2+y,z
1/2+x,-y,z
loop_
_atom_site_type_symbol
_atom_site_label
_atom_site_fract_x
_atom_site_fract_y
_atom_site_fract_z
Si Si1 0.553971 0.569687 0.190153
Si Si2 0.903041 0.568103 0.423324
Si Si3 0.885029 0.570395 0.076173
Si Si4 0.137248 0.931472 0.706389
Si Si5 0.500000 0.433394 0.577411
Si Si6 0.800461 0.431399 0.820876
O O1 0.500000 0.521373 0.210524
O O2 0.558092 0.750000 0.178208
O O3 0.568563 0.490380 0.117232
O O4 0.589550 0.516910 0.251829
O O5 0.892084 0.500000 0.500000
O O6 0.906910 0.750000 0.430015
O O7 0.862012 0.516230 0.369196
O O8 0.951582 0.497982 0.388518
O O9 0.890115 0.750000 0.068376
O O10 0.837295 0.523372 0.117981
O O11 0.882102 0.500000 0.000000
O O12 0.139987 0.750000 0.694880
O O13 0.183522 0.989416 0.748233
O O14 0.500000 0.250000 0.580288
O O15 0.500000 0.500000 0.500000
O O16 0.797260 0.250000 0.809566
O O17 0.750000 0.500000 0.844094
#
# Coordination Sequence:
#
# PCOD8278272 Si02
#       6
#    16  16  16  16   8  16
#     4   9  19  35  54  77 106 144 185 223 265 316
#     4  11  21  34  51  76 108 145 185 228 275 323
#     4  10  21  36  55  80 110 142 178 222 267 319
#     4  10  20  35  56  81 109 143 181 226 274 325
#     4  10  18  30  46  68 100 138 179 220 265 316
#     4  10  21  38  59  83 109 139 177 222 273 329
#
# _framework density 18.949669
#
# number of rings (size 3 to 8) (size 9 to 14) (size 15 to 20)
#    0.000    2.000    0.000    5.182    1.273    4.000 
#    0.000    1.818    0.000    0.545    0.000    3.818 
#    0.000    0.000    0.000    0.000    0.000    0.000 
#
# Total GULP energy -545632.878658 kJ/mol
# GULP energy per Si atom -12400.747242 kJ/mol
# Density = 1.890654 g / cm^3
# Si number density = 18.949669 Si / 1000 Ang^3
#
#
#
# Elastic Constant Matrix: (Units=GPa)
#
#
# Indices 1 2 3 4 5 6 
#
# 1 60.3014 18.3420 12.5357 0.0000 0.0000 0.0000
# 2 18.3420 98.4332 34.4492 0.0000 0.0000 0.0000
# 3 12.5357 34.4492 99.0483 0.0000 0.0000 0.0000
# 4 0.0000 0.0000 0.0000 31.6195 0.0000 0.0000
# 5 0.0000 0.0000 0.0000 0.0000 17.4463 0.0000
# 6 0.0000 0.0000 0.0000 0.0000 0.0000 30.0179
#
#
#
# Elastic Compliance Matrix: (Units=1/GPa)
#
#
# Indices 1 2 3 4 5 6 
#
# 1 0.017714 -0.002865 -0.001245 0.000000 0.000000 0.000000
# 2 -0.002865 0.012030 -0.003822 0.000000 0.000000 0.000000
# 3 -0.001245 -0.003822 0.011583 0.000000 0.000000 0.000000
# 4 0.000000 0.000000 0.000000 0.031626 0.000000 0.000000
# 5 0.000000 0.000000 0.000000 0.000000 0.057319 0.000000
# 6 0.000000 0.000000 0.000000 0.000000 0.000000 0.033313
#
#
# Mechanical properties :
#
#
# Convention : Reuss Voigt Hill
#
# Bulk Modulus (GPa) = 39.27251 43.15962 41.21606
# Shear Modulus (GPa) = 26.60464 28.64712 27.62588
#
# Velocity S-wave (km/s) = 3.75101 3.89234 3.82233
# Velocity P-wave (km/s) = 6.28727 6.55940 6.42478
#
# Compressibility (1/GPa) = 0.02546311
#
# Stress axis : x y z
#
# Youngs Moduli (GPa) = 56.45349 83.12211 86.33427
#
# Poissons Ratio (x) = 0.23814 0.10753
# Poissons Ratio (y) = 0.16173 0.32994
# Poissons Ratio (z) = 0.07031 0.31766
#
# Static dielectric constant tensor:
#      x y z
#    x 3.643010 0.000000 0.000000 
#    y 0.000000 3.492430 0.000000 
#    z 0.000000 0.000000 3.471750 
# 
# 
# High freq. dielectric constant tensor:
#      x y z
#    x 1.716680 0.000000 0.000000 
#    y 0.000000 1.749060 0.000000 
#    z 0.000000 0.000000 1.736140 
# 
# From -- ./inp_files/36138.got.cif
#   From: 2010.03.12/outbox.cif.g09.slc.cpg/sg67_19_cif.got.tgz:36138.got - 2010.04.10 22:41:39.
