data_PCOD8278984
_publ_section_title
;
Structure prediction by ZEFSAII (Michael W. Deem and Ramdas Pophale) SiO2 
 PCOD8278984
Probable space group: C M M A
;
_chemical_formula_sum "Si O2"
_cell_formula_units_Z 128
_cell_length_a 21.554821
_cell_length_b 25.778591
_cell_length_c 11.977513
_cell_angle_alpha 90.000000
_cell_angle_beta 90.000000
_cell_angle_gamma 90.000000
_cell_volume 6655.340009
_symmetry_space_group_name_H-M "C M M A"
_symmetry_group_IT_number 67
_symmetry_cell_setting 'orthorhombic'
loop_
_space_group_symop_operation_xyz
x,y,z
-x,1/2-y,z
x,-y,-z
-x,1/2+y,-z
-x,-y,-z
x,1/2+y,-z
-x,y,z
x,1/2-y,z
1/2+x,1/2+y,z
1/2-x,-y,z
1/2+x,1/2-y,-z
1/2-x,y,-z
1/2-x,1/2-y,-z
1/2+x,y,-z
1/2-x,1/2+y,z
1/2+x,-y,z
loop_
_atom_site_type_symbol
_atom_site_label
_atom_site_fract_x
_atom_site_fract_y
_atom_site_fract_z
Si Si1 0.758029 0.691282 0.200143
Si Si2 0.691348 0.811218 0.570617
Si Si3 0.425687 0.502718 0.126738
Si Si4 0.570678 0.401048 0.240056
Si Si5 0.622063 0.810973 0.153906
Si Si6 0.072091 0.372363 0.514040
Si Si7 0.880086 0.808497 0.097231
Si Si8 0.429196 0.404677 0.724955
O O1 0.742445 0.750000 0.233720
O O2 0.794287 0.665749 0.305719
O O3 0.691911 0.666496 0.169692
O O4 0.804830 0.688298 0.095434
O O5 0.687670 0.750000 0.571451
O O6 0.750000 0.831429 0.500000
O O7 0.624692 0.828114 0.521206
O O8 0.500000 0.504163 0.127702
O O9 0.397457 0.451473 0.186026
O O10 0.396724 0.552295 0.194697
O O11 0.400785 0.500000 0.000000
O O12 0.500000 0.403077 0.204731
O O13 0.578998 0.405596 0.373208
O O14 0.594112 0.347059 0.189581
O O15 0.615138 0.750000 0.183301
O O16 0.580348 0.845453 0.234963
O O17 0.598277 0.821388 0.027935
O O18 0.089262 0.407763 0.406282
O O19 0.000000 0.351177 0.504398
O O20 0.900876 0.750000 0.131260
O O21 0.500000 0.419038 0.734784
#
# Coordination Sequence:
#
# PCOD8278984 Si02
#       8
#    16  16  16  16  16  16  16  16
#     4   9  17  31  49  73 103 137 181 221 260 314
#     4  10  19  32  52  77 109 150 193 228 264 326
#     4   9  18  34  56  79 104 137 179 224 266 319
#     4  10  20  34  54  80 109 143 180 219 273 331
#     4  10  20  33  52  77 106 141 179 222 272 323
#     4  10  21  35  52  79 111 141 179 231 284 329
#     4  10  19  32  51  77 109 141 176 220 269 322
#     4  10  21  36  53  76 106 139 177 222 272 323
#
# _framework density 19.232676000000001
#
# number of rings (size 3 to 8) (size 9 to 14) (size 15 to 20)
#    0.000    2.250    1.250    1.875    0.000    5.750 
#    0.000    6.250    0.000    0.750    0.000    3.500 
#    0.000    0.000    0.000    0.000    0.000    0.000 
#
# Total GULP energy -792845.477820 kJ/mol
# GULP energy per Si atom -12388.210591 kJ/mol
# Density = 1.918890 g / cm^3
# Si number density = 19.232676 Si / 1000 Ang^3
#
#
#
# Elastic Constant Matrix: (Units=GPa)
#
#
# Indices 1 2 3 4 5 6 
#
# 1 22.7559 9.3431 24.9152 0.0000 0.0000 0.0000
# 2 9.3431 95.0690 66.1614 0.0000 0.0000 0.0000
# 3 24.9152 66.1614 143.3609 0.0000 0.0000 0.0000
# 4 0.0000 0.0000 0.0000 28.3891 0.0000 0.0000
# 5 0.0000 0.0000 0.0000 0.0000 25.2391 0.0000
# 6 0.0000 0.0000 0.0000 0.0000 0.0000 3.5819
#
#
#
# Elastic Compliance Matrix: (Units=1/GPa)
#
#
# Indices 1 2 3 4 5 6 
#
# 1 0.054485 0.001820 -0.010309 0.000000 0.000000 0.000000
# 2 0.001820 0.015556 -0.007495 0.000000 0.000000 0.000000
# 3 -0.010309 -0.007495 0.012226 0.000000 0.000000 0.000000
# 4 0.000000 0.000000 0.000000 0.035225 0.000000 0.000000
# 5 0.000000 0.000000 0.000000 0.000000 0.039621 0.000000
# 6 0.000000 0.000000 0.000000 0.000000 0.000000 0.279178
#
#
# Mechanical properties :
#
#
# Convention : Reuss Voigt Hill
#
# Bulk Modulus (GPa) = 19.88166 51.33616 35.60891
# Shear Modulus (GPa) = 10.30873 22.15976 16.23425
#
# Velocity S-wave (km/s) = 2.31768 3.39808 2.90849
# Velocity P-wave (km/s) = 4.18594 6.49200 5.46206
#
# Compressibility (1/GPa) = 0.05029762
#
# Stress axis : x y z
#
# Youngs Moduli (GPa) = 18.35381 64.28323 81.79165
#
# Poissons Ratio (x) = -0.11697 0.84318
# Poissons Ratio (y) = -0.03340 0.61307
# Poissons Ratio (z) = 0.18921 0.48183
#
# Static dielectric constant tensor:
#      x y z
#    x 3.400130 0.000000 0.000000 
#    y 0.000000 3.352670 0.000000 
#    z 0.000000 0.000000 3.832850 
# 
# 
# High freq. dielectric constant tensor:
#      x y z
#    x 1.724110 0.000000 0.000000 
#    y 0.000000 1.714150 0.000000 
#    z 0.000000 0.000000 1.768330 
# 
# From -- ./inp_files/22428.got.cif
#   From: 2010.03.12/outbox.cif.g09.slc.cpg/sg67_12_cif.got.tgz:22428.got - 2010.04.10 22:41:39.
