data_PCOD8278451
_publ_section_title
;
Structure prediction by ZEFSAII (Michael W. Deem and Ramdas Pophale) SiO2 
 PCOD8278451
Probable space group: C M M A
;
_chemical_formula_sum "Si O2"
_cell_formula_units_Z 104
_cell_length_a 8.794148
_cell_length_b 29.657063
_cell_length_c 20.010182
_cell_angle_alpha 90.000000
_cell_angle_beta 90.000000
_cell_angle_gamma 90.000000
_cell_volume 5218.827579
_symmetry_space_group_name_H-M "C M M A"
_symmetry_group_IT_number 67
_symmetry_cell_setting 'orthorhombic'
loop_
_space_group_symop_operation_xyz
x,y,z
-x,1/2-y,z
x,-y,-z
-x,1/2+y,-z
-x,-y,-z
x,1/2+y,-z
-x,y,z
x,1/2-y,z
1/2+x,1/2+y,z
1/2-x,-y,z
1/2+x,1/2-y,-z
1/2-x,y,-z
1/2-x,1/2-y,-z
1/2+x,y,-z
1/2-x,1/2+y,z
1/2+x,-y,z
loop_
_atom_site_type_symbol
_atom_site_label
_atom_site_fract_x
_atom_site_fract_y
_atom_site_fract_z
Si Si1 0.176868 0.129223 0.697315
Si Si2 0.320766 0.659774 0.427965
Si Si3 0.830838 0.543599 0.749471
Si Si4 0.822359 0.302291 0.811340
Si Si5 0.181281 0.250000 0.573333
Si Si6 0.681136 0.357292 0.931255
Si Si7 0.333872 0.543322 0.094079
O O1 0.274864 0.124138 0.628708
O O2 0.221395 0.085907 0.739810
O O3 0.218286 0.173140 0.741515
O O4 0.000000 0.128475 0.678630
O O5 0.500000 0.664694 0.437338
O O6 0.250000 0.647442 0.500000
O O7 0.246649 0.704709 0.394315
O O8 0.750000 0.500000 0.716370
O O9 0.847576 0.535980 0.827525
O O10 0.000000 0.550541 0.718295
O O11 0.775070 0.250000 0.804226
O O12 0.731018 0.324913 0.871422
O O13 0.000000 0.307573 0.827059
O O14 0.250000 0.250000 0.500000
O O15 0.000000 0.250000 0.574719
O O16 0.500000 0.357062 0.933188
O O17 0.745966 0.408423 0.921319
O O18 0.750000 0.337760 0.000000
O O19 0.500000 0.544326 0.061187
O O20 0.250000 0.500000 0.062062
#
# Coordination Sequence:
#
# PCOD8278451 Si02
#       7
#    16  16  16  16   8  16  16
#     4  11  22  37  61  90 120 156 195 243 298 352
#     4  11  22  37  56  83 118 159 201 245 295 352
#     4  10  19  35  58  87 119 152 193 240 292 351
#     4  10  23  42  62  86 115 151 196 245 294 346
#     4  10  18  32  52  76 110 150 193 238 285 344
#     4  11  23  40  60  85 115 153 195 242 292 350
#     4   9  19  34  55  82 115 149 186 232 288 348
#
# _framework density 19.927848000000001
#
# number of rings (size 3 to 8) (size 9 to 14) (size 15 to 20)
#    0.000    1.692    1.538    4.385    1.077    3.385 
#    0.000    1.538    0.000    0.462    0.000    3.231 
#    0.000    0.000    0.000    0.000    0.000    0.000 
#
# Total GULP energy -644589.118283 kJ/mol
# GULP energy per Si atom -12395.944582 kJ/mol
# Density = 1.988249 g / cm^3
# Si number density = 19.927848 Si / 1000 Ang^3
#
#
#
# Elastic Constant Matrix: (Units=GPa)
#
#
# Indices 1 2 3 4 5 6 
#
# 1 119.8125 43.7452 51.0130 0.0000 0.0000 0.0000
# 2 43.7452 117.2900 32.1559 0.0000 0.0000 0.0000
# 3 51.0130 32.1559 91.1163 0.0000 0.0000 0.0000
# 4 0.0000 0.0000 0.0000 -1.3223 0.0000 0.0000
# 5 0.0000 0.0000 0.0000 0.0000 25.4106 0.0000
# 6 0.0000 0.0000 0.0000 0.0000 0.0000 34.1972
#
#
#
# Elastic Compliance Matrix: (Units=1/GPa)
#
#
# Indices 1 2 3 4 5 6 
#
# 1 0.011765 -0.002859 -0.005578 0.000000 0.000000 0.000000
# 2 -0.002859 0.010134 -0.001976 0.000000 0.000000 0.000000
# 3 -0.005578 -0.001976 0.014795 0.000000 0.000000 0.000000
# 4 0.000000 0.000000 0.000000 -0.756265 0.000000 0.000000
# 5 0.000000 0.000000 0.000000 0.000000 0.039354 0.000000
# 6 0.000000 0.000000 0.000000 0.000000 0.000000 0.029242
#
#
# Mechanical properties :
#
#
# Convention : Reuss Voigt Hill
#
# Bulk Modulus (GPa) = 63.01599 64.67187 63.84393
# Shear Modulus (GPa) = -8.00179 25.07744 8.53782
#
# Velocity S-wave (km/s) = -2.00602 3.55126 2.07212
# Velocity P-wave (km/s) = 5.13081 7.02415 6.15077
#
# Compressibility (1/GPa) = 0.01586899
#
# Stress axis : x y z
#
# Youngs Moduli (GPa) = 84.99711 98.68001 67.58942
#
# Poissons Ratio (x) = 0.28210 0.37701
# Poissons Ratio (y) = 0.24298 0.13354
# Poissons Ratio (z) = 0.47412 0.19497
#
# Static dielectric constant tensor:
#      x y z
#    x 3.749910 0.000000 0.000000 
#    y 0.000000 4.048880 0.000000 
#    z 0.000000 0.000000 3.416520 
# 
# 
# High freq. dielectric constant tensor:
#      x y z
#    x 1.784440 0.000000 0.000000 
#    y 0.000000 1.771810 0.000000 
#    z 0.000000 0.000000 1.766090 
# 
# From -- ./inp_files/37293.got.cif
#   From: 2010.03.12/outbox.cif.g09.slc.cpg/sg67_19_cif.got.tgz:37293.got - 2010.04.10 22:41:39.
