data_PCOD8278320
_publ_section_title
;
Structure prediction by ZEFSAII (Michael W. Deem and Ramdas Pophale) SiO2 
 PCOD8278320
Probable space group: C M M A
;
_chemical_formula_sum "Si O2"
_cell_formula_units_Z 72
_cell_length_a 8.954197
_cell_length_b 20.862875
_cell_length_c 19.949550
_cell_angle_alpha 90.000000
_cell_angle_beta 90.000000
_cell_angle_gamma 90.000000
_cell_volume 3726.781275
_symmetry_space_group_name_H-M "C M M A"
_symmetry_group_IT_number 67
_symmetry_cell_setting 'orthorhombic'
loop_
_space_group_symop_operation_xyz
x,y,z
-x,1/2-y,z
x,-y,-z
-x,1/2+y,-z
-x,-y,-z
x,1/2+y,-z
-x,y,z
x,1/2-y,z
1/2+x,1/2+y,z
1/2-x,-y,z
1/2+x,1/2-y,-z
1/2-x,y,-z
1/2-x,1/2-y,-z
1/2+x,y,-z
1/2-x,1/2+y,z
1/2+x,-y,z
loop_
_atom_site_type_symbol
_atom_site_label
_atom_site_fract_x
_atom_site_fract_y
_atom_site_fract_z
Si Si1 0.326814 0.624626 0.569832
Si Si2 0.670829 0.064040 0.294457
Si Si3 0.667220 0.673966 0.065100
Si Si4 0.321552 0.750000 0.426729
Si Si5 0.677027 0.322420 0.201357
O O1 0.500000 0.641108 0.555408
O O2 0.250000 0.603373 0.500000
O O3 0.310082 0.569055 0.624892
O O4 0.244495 0.685320 0.605348
O O5 0.500000 0.056491 0.274431
O O6 0.733861 0.127848 0.258017
O O7 0.750000 0.000000 0.268695
O O8 0.500000 0.645784 0.068154
O O9 0.662624 0.750000 0.059423
O O10 0.755444 0.653261 0.131445
O O11 0.750000 0.644931 0.000000
O O12 0.500000 0.750000 0.426133
O O13 0.250000 0.750000 0.500000
O O14 0.500000 0.322258 0.194643
O O15 0.732840 0.250000 0.219464
#
# Coordination Sequence:
#
# PCOD8278320 Si02
#       5
#    16  16  16   8  16
#     4  10  20  35  55  78 105 139 179 224 275 329
#     4  10  23  39  57  78 106 146 182 225 276 328
#     4   9  16  27  47  78 113 144 175 216 264 311
#     4  10  18  30  50  78 106 134 165 212 269 320
#     4   9  18  34  56  80 106 141 183 221 265 319
#
# _framework density 19.319621000000001
#
# number of rings (size 3 to 8) (size 9 to 14) (size 15 to 20)
#    0.000    2.444    0.000    3.667    1.556    5.778 
#    0.000    2.222    0.000    0.667    0.000    4.667 
#    0.000    0.000    0.000    0.000    0.000    0.000 
#
# Total GULP energy -446186.807390 kJ/mol
# GULP energy per Si atom -12394.077983 kJ/mol
# Density = 1.927565 g / cm^3
# Si number density = 19.319621 Si / 1000 Ang^3
#
#
#
# Elastic Constant Matrix: (Units=GPa)
#
#
# Indices 1 2 3 4 5 6 
#
# 1 88.5151 39.6163 38.8935 0.0000 0.0000 0.0000
# 2 39.6163 93.6869 50.7818 0.0000 0.0000 0.0000
# 3 38.8935 50.7818 113.1517 0.0000 0.0000 0.0000
# 4 0.0000 0.0000 0.0000 12.4221 0.0000 0.0000
# 5 0.0000 0.0000 0.0000 0.0000 28.9405 0.0000
# 6 0.0000 0.0000 0.0000 0.0000 0.0000 25.9415
#
#
#
# Elastic Compliance Matrix: (Units=1/GPa)
#
#
# Indices 1 2 3 4 5 6 
#
# 1 0.014659 -0.004582 -0.002982 0.000000 0.000000 0.000000
# 2 -0.004582 0.015537 -0.005398 0.000000 0.000000 0.000000
# 3 -0.002982 -0.005398 0.012285 0.000000 0.000000 0.000000
# 4 0.000000 0.000000 0.000000 0.080501 0.000000 0.000000
# 5 0.000000 0.000000 0.000000 0.000000 0.034554 0.000000
# 6 0.000000 0.000000 0.000000 0.000000 0.000000 0.038548
#
#
# Mechanical properties :
#
#
# Convention : Reuss Voigt Hill
#
# Bulk Modulus (GPa) = 60.39847 61.54853 60.97350
# Shear Modulus (GPa) = 21.97527 24.53163 23.25345
#
# Velocity S-wave (km/s) = 3.37628 3.56726 3.47308
# Velocity P-wave (km/s) = 6.82127 6.99245 6.90739
#
# Compressibility (1/GPa) = 0.01655671
#
# Stress axis : x y z
#
# Youngs Moduli (GPa) = 68.21904 64.36091 81.39750
#
# Poissons Ratio (x) = 0.29491 0.24274
# Poissons Ratio (y) = 0.31259 0.43939
# Poissons Ratio (z) = 0.20344 0.34743
#
# Static dielectric constant tensor:
#      x y z
#    x 3.564790 0.000000 0.000000 
#    y 0.000000 3.635650 0.000000 
#    z 0.000000 0.000000 3.473330 
# 
# 
# High freq. dielectric constant tensor:
#      x y z
#    x 1.753980 0.000000 0.000000 
#    y 0.000000 1.717250 0.000000 
#    z 0.000000 0.000000 1.747300 
# 
# From -- ./inp_files/36779.got.cif
#   From: 2010.03.12/outbox.cif.g09.slc.cpg/sg67_19_cif.got.tgz:36779.got - 2010.04.10 22:41:39.
