data_PCOD8278207
_publ_section_title
;
Structure prediction by ZEFSAII (Michael W. Deem and Ramdas Pophale) SiO2 
 PCOD8278207
Probable space group: C M M A
;
_chemical_formula_sum "Si O2"
_cell_formula_units_Z 128
_cell_length_a 22.527779
_cell_length_b 23.691911
_cell_length_c 14.012416
_cell_angle_alpha 90.000000
_cell_angle_beta 90.000000
_cell_angle_gamma 90.000000
_cell_volume 7478.792635
_symmetry_space_group_name_H-M "C M M A"
_symmetry_group_IT_number 67
_symmetry_cell_setting 'orthorhombic'
loop_
_space_group_symop_operation_xyz
x,y,z
-x,1/2-y,z
x,-y,-z
-x,1/2+y,-z
-x,-y,-z
x,1/2+y,-z
-x,y,z
x,1/2-y,z
1/2+x,1/2+y,z
1/2-x,-y,z
1/2+x,1/2-y,-z
1/2-x,y,-z
1/2-x,1/2-y,-z
1/2+x,y,-z
1/2-x,1/2+y,z
1/2+x,-y,z
loop_
_atom_site_type_symbol
_atom_site_label
_atom_site_fract_x
_atom_site_fract_y
_atom_site_fract_z
Si Si1 0.761864 0.314741 0.610549
Si Si2 0.067176 0.812083 0.151628
Si Si3 0.567728 0.313897 0.499524
Si Si4 0.365635 0.684838 0.310855
Si Si5 0.067423 0.415024 0.973305
Si Si6 0.122189 0.870467 0.324544
Si Si7 0.430568 0.470513 0.217625
Si Si8 0.430449 0.095156 0.816518
O O1 0.784842 0.250000 0.619659
O O2 0.750000 0.328018 0.500000
O O3 0.704602 0.323647 0.677199
O O4 0.809765 0.360219 0.646570
O O5 0.084175 0.750000 0.116743
O O6 0.075301 0.850766 0.059679
O O7 0.109956 0.829336 0.236701
O O8 0.000000 0.815800 0.190905
O O9 0.500000 0.318153 0.530761
O O10 0.585155 0.250000 0.469534
O O11 0.605513 0.333549 0.589620
O O12 0.579837 0.355641 0.412651
O O13 0.381028 0.750000 0.286014
O O14 0.391343 0.644692 0.228768
O O15 0.092857 0.456574 0.890622
O O16 0.000000 0.433290 0.989405
O O17 0.096697 0.417720 0.077999
O O18 0.108306 0.935037 0.293720
O O19 0.500000 0.451733 0.224496
O O20 0.422890 0.536518 0.241712
O O21 0.500000 0.113365 0.819071
#
# Coordination Sequence:
#
# PCOD8278207 Si02
#       8
#    16  16  16  16  16  16  16  16
#     4  10  19  34  54  73  95 131 176 214 247 288
#     4   9  16  25  41  73 109 131 157 203 255 304
#     4  10  18  28  46  72 100 128 157 196 248 303
#     4  10  21  35  50  72 101 130 170 213 246 293
#     4   8  15  28  48  73 101 133 164 197 242 301
#     4  11  18  29  50  73  99 131 166 206 252 294
#     4   9  18  32  51  78 105 129 165 208 249 300
#     4  10  19  33  53  74 101 136 168 201 249 302
#
# _framework density 17.115062000000002
#
# number of rings (size 3 to 8) (size 9 to 14) (size 15 to 20)
#    0.000    2.375    1.250    3.750    0.000    3.750 
#    0.000    2.500    0.000    6.000    0.000   11.375 
#    0.000    0.000    0.000    0.000    0.000    0.000 
#
# Total GULP energy -793261.945522 kJ/mol
# GULP energy per Si atom -12394.717899 kJ/mol
# Density = 1.707611 g / cm^3
# Si number density = 17.115062 Si / 1000 Ang^3
#
#
#
# Elastic Constant Matrix: (Units=GPa)
#
#
# Indices 1 2 3 4 5 6 
#
# 1 71.1828 28.6767 28.2941 0.0000 0.0000 0.0000
# 2 28.6767 94.6928 37.7824 0.0000 0.0000 0.0000
# 3 28.2941 37.7824 78.7485 0.0000 0.0000 0.0000
# 4 0.0000 0.0000 0.0000 17.1535 0.0000 0.0000
# 5 0.0000 0.0000 0.0000 0.0000 10.6519 0.0000
# 6 0.0000 0.0000 0.0000 0.0000 0.0000 20.9517
#
#
#
# Elastic Compliance Matrix: (Units=1/GPa)
#
#
# Indices 1 2 3 4 5 6 
#
# 1 0.017230 -0.003398 -0.004560 0.000000 0.000000 0.000000
# 2 -0.003398 0.013731 -0.005367 0.000000 0.000000 0.000000
# 3 -0.004560 -0.005367 0.016912 0.000000 0.000000 0.000000
# 4 0.000000 0.000000 0.000000 0.058297 0.000000 0.000000
# 5 0.000000 0.000000 0.000000 0.000000 0.093880 0.000000
# 6 0.000000 0.000000 0.000000 0.000000 0.000000 0.047729
#
#
# Mechanical properties :
#
#
# Convention : Reuss Voigt Hill
#
# Bulk Modulus (GPa) = 47.12067 48.23674 47.67870
# Shear Modulus (GPa) = 17.76172 19.74280 18.75226
#
# Velocity S-wave (km/s) = 3.22496 3.40006 3.31366
# Velocity P-wave (km/s) = 6.43884 6.60748 6.52370
#
# Compressibility (1/GPa) = 0.02122211
#
# Stress axis : x y z
#
# Youngs Moduli (GPa) = 58.03821 72.82772 59.12935
#
# Poissons Ratio (x) = 0.24750 0.26964
# Poissons Ratio (y) = 0.19724 0.31734
# Poissons Ratio (z) = 0.26467 0.39086
#
# Static dielectric constant tensor:
#      x y z
#    x 2.965830 0.000000 0.000000 
#    y 0.000000 3.186630 0.000000 
#    z 0.000000 0.000000 3.202100 
# 
# 
# High freq. dielectric constant tensor:
#      x y z
#    x 1.628150 0.000000 0.000000 
#    y 0.000000 1.654840 0.000000 
#    z 0.000000 0.000000 1.655890 
# 
# From -- ./inp_files/22441.got.cif
#   From: 2010.03.12/outbox.cif.g09.slc.cpg/sg67_12_cif.got.tgz:22441.got - 2010.04.10 22:41:39.
