data_PCOD8278986
_publ_section_title
;
Structure prediction by ZEFSAII (Michael W. Deem and Ramdas Pophale) SiO2 
 PCOD8278986
Probable space group: C M M A
;
_chemical_formula_sum "Si O2"
_cell_formula_units_Z 80
_cell_length_a 9.691764
_cell_length_b 18.806105
_cell_length_c 24.257208
_cell_angle_alpha 90.000000
_cell_angle_beta 90.000000
_cell_angle_gamma 90.000000
_cell_volume 4421.223798
_symmetry_space_group_name_H-M "C M M A"
_symmetry_group_IT_number 67
_symmetry_cell_setting 'orthorhombic'
loop_
_space_group_symop_operation_xyz
x,y,z
-x,1/2-y,z
x,-y,-z
-x,1/2+y,-z
-x,-y,-z
x,1/2+y,-z
-x,y,z
x,1/2-y,z
1/2+x,1/2+y,z
1/2-x,-y,z
1/2+x,1/2-y,-z
1/2-x,y,-z
1/2-x,1/2-y,-z
1/2+x,y,-z
1/2-x,1/2+y,z
1/2+x,-y,z
loop_
_atom_site_type_symbol
_atom_site_label
_atom_site_fract_x
_atom_site_fract_y
_atom_site_fract_z
Si Si1 0.833738 0.571846 0.447916
Si Si2 0.339828 0.333241 0.759575
Si Si3 0.744730 0.084177 0.865911
Si Si4 0.500000 0.417297 0.941950
Si Si5 0.000000 0.914274 0.064600
Si Si6 0.843669 0.168067 0.656902
O O1 0.750000 0.500000 0.433638
O O2 0.750000 0.605099 0.500000
O O3 0.811438 0.624570 0.397682
O O4 0.000000 0.559850 0.459161
O O5 0.500000 0.354042 0.753701
O O6 0.320558 0.250000 0.771478
O O7 0.269045 0.377026 0.808054
O O8 0.261800 0.356498 0.704114
O O9 0.627993 0.109641 0.907366
O O10 0.875273 0.112440 0.898665
O O11 0.750000 0.000000 0.854757
O O12 0.500000 0.501894 0.944911
O O13 0.500000 0.381752 0.002807
O O14 0.820361 0.250000 0.641858
O O15 0.000000 0.154472 0.677626
#
# Coordination Sequence:
#
# PCOD8278986 Si02
#       6
#    16  16  16   8   8  16
#     4  10  20  35  56  83 114 147 177 214 262 310
#     4  10  21  37  55  74 103 142 177 214 263 314
#     4  10  19  32  51  78 103 131 173 217 260 312
#     4   9  16  32  49  73 107 133 166 215 258 311
#     4   9  18  28  51  77 101 135 168 209 266 311
#     4   9  20  38  57  78 104 138 182 224 261 305
#
# _framework density 18.094536000000002
#
# number of rings (size 3 to 8) (size 9 to 14) (size 15 to 20)
#    0.000    2.400    1.000    1.800    1.400    5.200 
#    0.000    2.000    0.000    3.600    0.000    0.000 
#    0.000    0.000    0.000    0.000    0.000    0.000 
#
# Total GULP energy -495702.778140 kJ/mol
# GULP energy per Si atom -12392.569453 kJ/mol
# Density = 1.805335 g / cm^3
# Si number density = 18.094536 Si / 1000 Ang^3
#
#
#
# Elastic Constant Matrix: (Units=GPa)
#
#
# Indices 1 2 3 4 5 6 
#
# 1 153.9270 40.1699 91.8558 0.0000 0.0000 0.0000
# 2 40.1699 41.0209 61.9646 0.0000 0.0000 0.0000
# 3 91.8558 61.9646 180.0546 0.0000 0.0000 0.0000
# 4 0.0000 0.0000 0.0000 -85.3998 0.0000 0.0000
# 5 0.0000 0.0000 0.0000 0.0000 49.9925 0.0000
# 6 0.0000 0.0000 0.0000 0.0000 0.0000 22.9500
#
#
#
# Elastic Compliance Matrix: (Units=1/GPa)
#
#
# Indices 1 2 3 4 5 6 
#
# 1 0.009676 -0.004204 -0.003489 0.000000 0.000000 0.000000
# 2 -0.004204 0.052598 -0.015956 0.000000 0.000000 0.000000
# 3 -0.003489 -0.015956 0.012825 0.000000 0.000000 0.000000
# 4 0.000000 0.000000 0.000000 -0.011710 0.000000 0.000000
# 5 0.000000 0.000000 0.000000 0.000000 0.020003 0.000000
# 6 0.000000 0.000000 0.000000 0.000000 0.000000 0.043573
#
#
# Mechanical properties :
#
#
# Convention : Reuss Voigt Hill
#
# Bulk Modulus (GPa) = 35.97244 84.77592 60.37418
# Shear Modulus (GPa) = 27.24312 9.57600 18.40956
#
# Velocity S-wave (km/s) = 3.88441 2.30298 3.19315
# Velocity P-wave (km/s) = 6.32785 7.35017 6.85808
#
# Compressibility (1/GPa) = 0.02779906
#
# Stress axis : x y z
#
# Youngs Moduli (GPa) = 103.34749 19.01211 77.97105
#
# Poissons Ratio (x) = 0.07994 0.27207
# Poissons Ratio (y) = 0.43452 1.24413
# Poissons Ratio (z) = 0.36062 0.30336
#
# Static dielectric constant tensor:
#      x y z
#    x 3.683530 0.000000 0.000000 
#    y 0.000000 3.050090 0.000000 
#    z 0.000000 0.000000 3.457260 
# 
# 
# High freq. dielectric constant tensor:
#      x y z
#    x 1.719950 0.000000 0.000000 
#    y 0.000000 1.668780 0.000000 
#    z 0.000000 0.000000 1.713070 
# 
# From -- ./inp_files/40609.got.cif
#   From: 2010.03.12/outbox.cif.g09.slc.cpg/sg67_21_cif.got.tgz:40609.got - 2010.04.10 22:41:39.
