data_PCOD8278872
_publ_section_title
;
Structure prediction by ZEFSAII (Michael W. Deem and Ramdas Pophale) SiO2 
 PCOD8278872
Probable space group: C M M A
;
_chemical_formula_sum "Si O2"
_cell_formula_units_Z 96
_cell_length_a 26.082341
_cell_length_b 26.503185
_cell_length_c 7.860262
_cell_angle_alpha 90.000000
_cell_angle_beta 90.000000
_cell_angle_gamma 90.000000
_cell_volume 5433.524866
_symmetry_space_group_name_H-M "C M M A"
_symmetry_group_IT_number 67
_symmetry_cell_setting 'orthorhombic'
loop_
_space_group_symop_operation_xyz
x,y,z
-x,1/2-y,z
x,-y,-z
-x,1/2+y,-z
-x,-y,-z
x,1/2+y,-z
-x,y,z
x,1/2-y,z
1/2+x,1/2+y,z
1/2-x,-y,z
1/2+x,1/2-y,-z
1/2-x,y,-z
1/2-x,1/2-y,-z
1/2+x,y,-z
1/2-x,1/2+y,z
1/2+x,-y,z
loop_
_atom_site_type_symbol
_atom_site_label
_atom_site_fract_x
_atom_site_fract_y
_atom_site_fract_z
Si Si1 0.232198 0.050945 0.810651
Si Si2 0.207955 0.131729 0.377773
Si Si3 0.858620 0.446406 0.589182
Si Si4 0.888561 0.690406 0.703688
Si Si5 0.440408 0.191797 0.051079
Si Si6 0.060488 0.366112 0.609343
O O1 0.259790 0.102967 0.764255
O O2 0.170913 0.052218 0.771887
O O3 0.250000 0.000000 0.708463
O O4 0.250000 0.042096 0.000000
O O5 0.250000 0.158289 0.500000
O O6 0.175445 0.088963 0.470678
O O7 0.171108 0.174509 0.301594
O O8 0.867079 0.500000 0.500000
O O9 0.914355 0.421513 0.614232
O O10 0.893756 0.750000 0.684201
O O11 0.920764 0.665608 0.552371
O O12 0.910336 0.671873 0.885229
O O13 0.500000 0.183121 0.014439
O O14 0.427806 0.250000 0.085359
O O15 0.422392 0.162141 0.218394
O O16 0.000000 0.372876 0.597842
#
# Coordination Sequence:
#
# PCOD8278872 Si02
#       6
#    16  16  16  16  16  16
#     4  10  19  31  54  80 100 134 175 220 266 315
#     4   9  19  33  51  76 105 137 174 220 267 321
#     4  10  19  34  53  76 107 141 178 222 268 320
#     4  10  20  34  55  78 106 143 180 222 272 325
#     4   9  18  33  54  78 103 136 183 231 268 311
#     4  10  21  35  54  80 109 144 182 224 271 321
#
# _framework density 17.668088000000001
#
# number of rings (size 3 to 8) (size 9 to 14) (size 15 to 20)
#    0.000    2.333    1.667    1.000    2.333    2.333 
#    0.000    0.000    0.000    0.500    0.000    8.167 
#    0.000    0.000    0.000    0.000    0.000    0.000 
#
# Total GULP energy -594801.588033 kJ/mol
# GULP energy per Si atom -12391.699751 kJ/mol
# Density = 1.762787 g / cm^3
# Si number density = 17.668088 Si / 1000 Ang^3
#
#
#
# Elastic Constant Matrix: (Units=GPa)
#
#
# Indices 1 2 3 4 5 6 
#
# 1 109.9372 52.1288 56.2831 0.0000 0.0000 0.0000
# 2 52.1288 73.8752 47.2558 0.0000 0.0000 0.0000
# 3 56.2831 47.2558 119.1365 0.0000 0.0000 0.0000
# 4 0.0000 0.0000 0.0000 14.3311 0.0000 0.0000
# 5 0.0000 0.0000 0.0000 0.0000 26.6771 0.0000
# 6 0.0000 0.0000 0.0000 0.0000 0.0000 29.0496
#
#
#
# Elastic Compliance Matrix: (Units=1/GPa)
#
#
# Indices 1 2 3 4 5 6 
#
# 1 0.014873 -0.008040 -0.003837 0.000000 0.000000 0.000000
# 2 -0.008040 0.022485 -0.005120 0.000000 0.000000 0.000000
# 3 -0.003837 -0.005120 0.012237 0.000000 0.000000 0.000000
# 4 0.000000 0.000000 0.000000 0.069778 0.000000 0.000000
# 5 0.000000 0.000000 0.000000 0.000000 0.037485 0.000000
# 6 0.000000 0.000000 0.000000 0.000000 0.000000 0.034424
#
#
# Mechanical properties :
#
#
# Convention : Reuss Voigt Hill
#
# Bulk Modulus (GPa) = 64.10258 68.25380 66.17819
# Shear Modulus (GPa) = 21.69395 23.83032 22.76213
#
# Velocity S-wave (km/s) = 3.50789 3.67655 3.59321
# Velocity P-wave (km/s) = 7.26411 7.53244 7.39950
#
# Compressibility (1/GPa) = 0.01560000
#
# Stress axis : x y z
#
# Youngs Moduli (GPa) = 67.23553 44.47359 81.71605
#
# Poissons Ratio (x) = 0.35759 0.31356
# Poissons Ratio (y) = 0.54060 0.41841
# Poissons Ratio (z) = 0.25799 0.22772
#
# Static dielectric constant tensor:
#      x y z
#    x 3.423820 0.000000 0.000000 
#    y 0.000000 3.350830 0.000000 
#    z 0.000000 0.000000 3.763540 
# 
# 
# High freq. dielectric constant tensor:
#      x y z
#    x 1.681830 0.000000 0.000000 
#    y 0.000000 1.677350 0.000000 
#    z 0.000000 0.000000 1.683530 
# 
# From -- ./inp_files/12605.got.cif
#   From: 2010.03.12/outbox.cif.g09.slc.cpg/sg67_7_cif.got.tgz:12605.got - 2010.04.10 22:41:39.
