data_PCOD8278940
_publ_section_title
;
Structure prediction by ZEFSAII (Michael W. Deem and Ramdas Pophale) SiO2 
 PCOD8278940
Probable space group: C M M A
;
_chemical_formula_sum "Si O2"
_cell_formula_units_Z 96
_cell_length_a 28.885510
_cell_length_b 8.598589
_cell_length_c 20.791425
_cell_angle_alpha 90.000000
_cell_angle_beta 90.000000
_cell_angle_gamma 90.000000
_cell_volume 5164.062461
_symmetry_space_group_name_H-M "C M M A"
_symmetry_group_IT_number 67
_symmetry_cell_setting 'orthorhombic'
loop_
_space_group_symop_operation_xyz
x,y,z
-x,1/2-y,z
x,-y,-z
-x,1/2+y,-z
-x,-y,-z
x,1/2+y,-z
-x,y,z
x,1/2-y,z
1/2+x,1/2+y,z
1/2-x,-y,z
1/2+x,1/2-y,-z
1/2-x,y,-z
1/2-x,1/2-y,-z
1/2+x,y,-z
1/2-x,1/2+y,z
1/2+x,-y,z
loop_
_atom_site_type_symbol
_atom_site_label
_atom_site_fract_x
_atom_site_fract_y
_atom_site_fract_z
Si Si1 0.699349 0.065312 0.432842
Si Si2 0.449916 0.565424 0.740331
Si Si3 0.857831 0.931660 0.933337
Si Si4 0.947700 0.930826 0.112455
Si Si5 0.800795 0.433788 0.816224
Si Si6 0.354394 0.064904 0.308722
O O1 0.701895 0.250000 0.436024
O O2 0.665901 0.004802 0.376208
O O3 0.679603 0.000000 0.500000
O O4 0.750000 0.000000 0.418755
O O5 0.500000 0.501193 0.715365
O O6 0.450883 0.750000 0.737090
O O7 0.442484 0.515125 0.813831
O O8 0.407080 0.500218 0.698186
O O9 0.847818 0.750000 0.930710
O O10 0.912761 0.966211 0.929531
O O11 0.832349 0.015458 0.875144
O O12 0.838164 0.000000 0.000000
O O13 0.934423 0.750000 0.104980
O O14 0.000000 0.961471 0.088324
O O15 0.798134 0.250000 0.814843
O O16 0.750000 0.500000 0.824752
O O17 0.823077 0.498140 0.749970
O O18 0.354620 0.250000 0.306807
#
# Coordination Sequence:
#
# PCOD8278940 Si02
#       6
#    16  16  16  16  16  16
#     4  10  19  32  50  75 108 144 179 217 260 310
#     4   8  13  25  50  81 107 133 169 212 259 310
#     4  12  25  40  57  78 106 143 181 222 272 324
#     4   9  17  33  58  83 108 139 175 219 271 322
#     4  11  22  39  59  81 108 135 175 225 272 326
#     4   9  17  30  53  81 109 139 174 218 263 311
#
# _framework density 18.590015999999999
#
# number of rings (size 3 to 8) (size 9 to 14) (size 15 to 20)
#    0.000    2.167    1.667    4.500    0.000    1.000 
#    0.000    4.167    0.000    0.500    0.000    0.000 
#    0.000    0.000    0.000    0.000    0.000    0.667 
#
# Total GULP energy -595088.285461 kJ/mol
# GULP energy per Si atom -12397.672614 kJ/mol
# Density = 1.854770 g / cm^3
# Si number density = 18.590016 Si / 1000 Ang^3
#
#
#
# Elastic Constant Matrix: (Units=GPa)
#
#
# Indices 1 2 3 4 5 6 
#
# 1 106.9524 19.7197 53.6392 0.0000 0.0000 0.0000
# 2 19.7197 53.0863 23.9505 0.0000 0.0000 0.0000
# 3 53.6392 23.9505 124.7172 0.0000 0.0000 0.0000
# 4 0.0000 0.0000 0.0000 18.3680 0.0000 0.0000
# 5 0.0000 0.0000 0.0000 0.0000 28.5450 0.0000
# 6 0.0000 0.0000 0.0000 0.0000 0.0000 24.0745
#
#
#
# Elastic Compliance Matrix: (Units=1/GPa)
#
#
# Indices 1 2 3 4 5 6 
#
# 1 0.012187 -0.002367 -0.004787 0.000000 0.000000 0.000000
# 2 -0.002367 0.021084 -0.003031 0.000000 0.000000 0.000000
# 3 -0.004787 -0.003031 0.010659 0.000000 0.000000 0.000000
# 4 0.000000 0.000000 0.000000 0.054443 0.000000 0.000000
# 5 0.000000 0.000000 0.000000 0.000000 0.035032 0.000000
# 6 0.000000 0.000000 0.000000 0.000000 0.000000 0.041538
#
#
# Mechanical properties :
#
#
# Convention : Reuss Voigt Hill
#
# Bulk Modulus (GPa) = 42.44485 53.26386 47.85436
# Shear Modulus (GPa) = 24.61035 26.69391 25.65213
#
# Velocity S-wave (km/s) = 3.64242 3.79347 3.71871
# Velocity P-wave (km/s) = 6.36956 6.92108 6.65104
#
# Compressibility (1/GPa) = 0.02355998
#
# Stress axis : x y z
#
# Youngs Moduli (GPa) = 82.05320 47.42924 93.81785
#
# Poissons Ratio (x) = 0.11229 0.44910
# Poissons Ratio (y) = 0.19426 0.28434
# Poissons Ratio (z) = 0.39278 0.14375
#
# Static dielectric constant tensor:
#      x y z
#    x 3.812560 0.000000 0.000000 
#    y 0.000000 3.111630 0.000000 
#    z 0.000000 0.000000 3.524950 
# 
# 
# High freq. dielectric constant tensor:
#      x y z
#    x 1.729260 0.000000 0.000000 
#    y 0.000000 1.694960 0.000000 
#    z 0.000000 0.000000 1.710990 
# 
# From -- ./inp_files/42705.got.cif
#   From: 2010.03.12/outbox.cif.g09.slc.cpg/sg67_22_cif.got.tgz:42705.got - 2010.04.10 22:41:39.
