data_PCOD8278442
_publ_section_title
;
Structure prediction by ZEFSAII (Michael W. Deem and Ramdas Pophale) SiO2 
 PCOD8278442
Probable space group: C M M A
;
_chemical_formula_sum "Si O2"
_cell_formula_units_Z 80
_cell_length_a 10.146243
_cell_length_b 26.044256
_cell_length_c 17.534046
_cell_angle_alpha 90.000000
_cell_angle_beta 90.000000
_cell_angle_gamma 90.000000
_cell_volume 4633.395329
_symmetry_space_group_name_H-M "C M M A"
_symmetry_group_IT_number 67
_symmetry_cell_setting 'orthorhombic'
loop_
_space_group_symop_operation_xyz
x,y,z
-x,1/2-y,z
x,-y,-z
-x,1/2+y,-z
-x,-y,-z
x,1/2+y,-z
-x,y,z
x,1/2-y,z
1/2+x,1/2+y,z
1/2-x,-y,z
1/2+x,1/2-y,-z
1/2-x,y,-z
1/2-x,1/2-y,-z
1/2+x,y,-z
1/2-x,1/2+y,z
1/2+x,-y,z
loop_
_atom_site_type_symbol
_atom_site_label
_atom_site_fract_x
_atom_site_fract_y
_atom_site_fract_z
Si Si1 0.848349 0.690496 0.432517
Si Si2 0.500000 0.690504 0.209060
Si Si3 0.730104 0.653861 0.727122
Si Si4 0.258363 0.557907 0.826837
Si Si5 0.500000 0.193503 0.174062
Si Si6 0.000000 0.899931 0.900484
Si Si7 0.000000 0.405976 0.919440
O O1 0.828670 0.750000 0.410268
O O2 0.750000 0.674622 0.500000
O O3 0.808621 0.655333 0.361195
O O4 0.000000 0.679898 0.456677
O O5 0.500000 0.750000 0.186609
O O6 0.624935 0.676491 0.260826
O O7 0.500000 0.658852 0.129689
O O8 0.719150 0.594751 0.754242
O O9 0.629059 0.688423 0.774310
O O10 0.250000 0.500000 0.795701
O O11 0.373653 0.563859 0.888671
O O12 0.125467 0.570743 0.869848
O O13 0.500000 0.250000 0.136991
O O14 0.500000 0.153047 0.106212
O O15 0.000000 0.903067 0.990534
#
# Coordination Sequence:
#
# PCOD8278442 Si02
#       7
#    16   8  16  16   8   8   8
#     4  10  20  33  52  80 111 138 164 199 247 301
#     4  10  20  32  50  72 103 143 175 206 253 308
#     4  10  20  34  52  75 103 137 174 212 249 301
#     4  10  21  36  54  75  98 133 177 219 263 303
#     4  10  18  32  52  74  99 135 177 210 249 306
#     4  10  21  35  48  76 107 129 170 220 265 312
#     4  10  21  33  52  76 101 133 172 216 267 316
#
# _framework density 17.265955000000002
#
# number of rings (size 3 to 8) (size 9 to 14) (size 15 to 20)
#    0.000    2.000    1.000    3.000    1.400    2.800 
#    0.000    0.000    0.000    7.800    0.000    1.400 
#    0.000    0.000    0.000    0.000    0.000    0.000 
#
# Total GULP energy -496088.463184 kJ/mol
# GULP energy per Si atom -12402.211580 kJ/mol
# Density = 1.722666 g / cm^3
# Si number density = 17.265955 Si / 1000 Ang^3
#
#
#
# Elastic Constant Matrix: (Units=GPa)
#
#
# Indices 1 2 3 4 5 6 
#
# 1 141.7341 36.2813 45.1677 0.0000 0.0000 0.0000
# 2 36.2813 129.3883 45.6693 0.0000 0.0000 0.0000
# 3 45.1677 45.6693 117.7984 0.0000 0.0000 0.0000
# 4 0.0000 0.0000 0.0000 15.4573 0.0000 0.0000
# 5 0.0000 0.0000 0.0000 0.0000 -48.0317 0.0000
# 6 0.0000 0.0000 0.0000 0.0000 0.0000 16.6292
#
#
#
# Elastic Compliance Matrix: (Units=1/GPa)
#
#
# Indices 1 2 3 4 5 6 
#
# 1 0.008247 -0.001386 -0.002625 0.000000 0.000000 0.000000
# 2 -0.001386 0.009187 -0.003030 0.000000 0.000000 0.000000
# 3 -0.002625 -0.003030 0.010670 0.000000 0.000000 0.000000
# 4 0.000000 0.000000 0.000000 0.064694 0.000000 0.000000
# 5 0.000000 0.000000 0.000000 0.000000 -0.020820 0.000000
# 6 0.000000 0.000000 0.000000 0.000000 0.000000 0.060135
#
#
# Mechanical properties :
#
#
# Convention : Reuss Voigt Hill
#
# Bulk Modulus (GPa) = 71.31667 71.46194 71.38931
# Shear Modulus (GPa) = 33.14120 14.26446 23.70283
#
# Velocity S-wave (km/s) = 4.38591 2.87742 3.70916
# Velocity P-wave (km/s) = 8.18796 7.24694 7.73178
#
# Compressibility (1/GPa) = 0.01402197
#
# Stress axis : x y z
#
# Youngs Moduli (GPa) = 121.26064 108.85091 93.71836
#
# Poissons Ratio (x) = 0.15087 0.24598
# Poissons Ratio (y) = 0.16807 0.28399
# Poissons Ratio (z) = 0.31827 0.32984
#
# Static dielectric constant tensor:
#      x y z
#    x 3.536680 0.000000 0.000000 
#    y 0.000000 3.201960 0.000000 
#    z 0.000000 0.000000 3.033150 
# 
# 
# High freq. dielectric constant tensor:
#      x y z
#    x 1.694970 0.000000 0.000000 
#    y 0.000000 1.656780 0.000000 
#    z 0.000000 0.000000 1.646370 
# 
# From -- ./inp_files/26270.got.cif
#   From: 2010.03.12/outbox.cif.g09.slc.cpg/sg67_14_cif.got.tgz:26270.got - 2010.04.10 22:41:39.
