data_PCOD8278303
_publ_section_title
;
Structure prediction by ZEFSAII (Michael W. Deem and Ramdas Pophale) SiO2 
 PCOD8278303
Probable space group: C M M A
;
_chemical_formula_sum "Si O2"
_cell_formula_units_Z 56
_cell_length_a 36.941381
_cell_length_b 8.752460
_cell_length_c 9.717974
_cell_angle_alpha 90.000000
_cell_angle_beta 90.000000
_cell_angle_gamma 90.000000
_cell_volume 3142.092704
_symmetry_space_group_name_H-M "C M M A"
_symmetry_group_IT_number 67
_symmetry_cell_setting 'orthorhombic'
loop_
_space_group_symop_operation_xyz
x,y,z
-x,1/2-y,z
x,-y,-z
-x,1/2+y,-z
-x,-y,-z
x,1/2+y,-z
-x,y,z
x,1/2-y,z
1/2+x,1/2+y,z
1/2-x,-y,z
1/2+x,1/2-y,-z
1/2-x,y,-z
1/2-x,1/2-y,-z
1/2+x,y,-z
1/2-x,1/2+y,z
1/2+x,-y,z
loop_
_atom_site_type_symbol
_atom_site_label
_atom_site_fract_x
_atom_site_fract_y
_atom_site_fract_z
Si Si1 0.500000 0.567471 0.152275
Si Si2 0.635906 0.428774 0.351284
Si Si3 0.784676 0.571493 0.350001
Si Si4 0.927061 0.067906 0.849187
O O1 0.500000 0.750000 0.153028
O O2 0.463427 0.501787 0.221810
O O3 0.500000 0.500000 0.000000
O O4 0.629286 0.500000 0.500000
O O5 0.631970 0.250000 0.373044
O O6 0.675752 0.467948 0.286964
O O7 0.606230 0.488728 0.244061
O O8 0.784811 0.500000 0.500000
O O9 0.778363 0.750000 0.359417
O O10 0.750000 0.500000 0.267151
O O11 0.930191 0.250000 0.858471
O O12 0.920778 0.000000 0.000000
#
# Coordination Sequence:
#
# PCOD8278303 Si02
#       4
#     8  16  16  16
#     4  10  18  30  49  72  93 120 156 194 230 274
#     4   9  19  32  48  70  98 125 155 193 235 277
#     4   9  15  25  41  64  90 119 152 189 227 269
#     4  10  19  33  51  72  95 123 156 194 233 276
#
# _framework density 17.822514999999999
#
# number of rings (size 3 to 8) (size 9 to 14) (size 15 to 20)
#    0.000    2.571    0.000    5.571    0.000    3.429 
#    0.000    0.714    0.000    0.857    0.000    6.000 
#    0.000    0.000    0.000    0.000    0.000    0.000 
#
# Total GULP energy -346869.684237 kJ/mol
# GULP energy per Si atom -12388.203008 kJ/mol
# Density = 1.778195 g / cm^3
# Si number density = 17.822515 Si / 1000 Ang^3
#
#
#
# Elastic Constant Matrix: (Units=GPa)
#
#
# Indices 1 2 3 4 5 6 
#
# 1 223.5600 68.2888 63.1138 0.0000 0.0000 0.0000
# 2 68.2888 90.4979 24.8884 0.0000 0.0000 0.0000
# 3 63.1138 24.8884 50.4035 0.0000 0.0000 0.0000
# 4 0.0000 0.0000 0.0000 17.7474 0.0000 0.0000
# 5 0.0000 0.0000 0.0000 0.0000 18.0682 0.0000
# 6 0.0000 0.0000 0.0000 0.0000 0.0000 1.9912
#
#
#
# Elastic Compliance Matrix: (Units=1/GPa)
#
#
# Indices 1 2 3 4 5 6 
#
# 1 0.007880 -0.003740 -0.008020 0.000000 0.000000 0.000000
# 2 -0.003740 0.014562 -0.002507 0.000000 0.000000 0.000000
# 3 -0.008020 -0.002507 0.031120 0.000000 0.000000 0.000000
# 4 0.000000 0.000000 0.000000 0.056346 0.000000 0.000000
# 5 0.000000 0.000000 0.000000 0.000000 0.055346 0.000000
# 6 0.000000 0.000000 0.000000 0.000000 0.000000 0.502219
#
#
# Mechanical properties :
#
#
# Convention : Reuss Voigt Hill
#
# Bulk Modulus (GPa) = 39.95612 75.22703 57.59157
# Shear Modulus (GPa) = 7.09876 21.43938 14.26907
#
# Velocity S-wave (km/s) = 1.99792 3.47210 2.83259
# Velocity P-wave (km/s) = 5.27160 7.64033 6.56370
#
# Compressibility (1/GPa) = 0.02502746
#
# Stress axis : x y z
#
# Youngs Moduli (GPa) = 126.90845 68.67266 32.13380
#
# Poissons Ratio (x) = 0.25686 0.25771
# Poissons Ratio (y) = 0.47468 0.08055
# Poissons Ratio (z) = 1.01778 0.17215
#
# Static dielectric constant tensor:
#      x y z
#    x 5.263940 0.000000 0.000000 
#    y 0.000000 3.409990 0.000000 
#    z 0.000000 0.000000 2.815380 
# 
# 
# High freq. dielectric constant tensor:
#      x y z
#    x 1.726200 0.000000 0.000000 
#    y 0.000000 1.702180 0.000000 
#    z 0.000000 0.000000 1.620220 
# 
# From -- ./inp_files/15722.got.cif
#   From: 2010.03.12/outbox.cif.g09.slc.cpg/sg67_8_cif.got.tgz:15722.got - 2010.04.10 22:41:39.
