data_PCOD8278632
_publ_section_title
;
Structure prediction by ZEFSAII (Michael W. Deem and Ramdas Pophale) SiO2 
 PCOD8278632
Probable space group: C M M A
;
_chemical_formula_sum "Si O2"
_cell_formula_units_Z 96
_cell_length_a 9.554788
_cell_length_b 26.559848
_cell_length_c 22.280028
_cell_angle_alpha 90.000000
_cell_angle_beta 90.000000
_cell_angle_gamma 90.000000
_cell_volume 5654.085519
_symmetry_space_group_name_H-M "C M M A"
_symmetry_group_IT_number 67
_symmetry_cell_setting 'orthorhombic'
loop_
_space_group_symop_operation_xyz
x,y,z
-x,1/2-y,z
x,-y,-z
-x,1/2+y,-z
-x,-y,-z
x,1/2+y,-z
-x,y,z
x,1/2-y,z
1/2+x,1/2+y,z
1/2-x,-y,z
1/2+x,1/2-y,-z
1/2-x,y,-z
1/2-x,1/2-y,-z
1/2+x,y,-z
1/2-x,1/2+y,z
1/2+x,-y,z
loop_
_atom_site_type_symbol
_atom_site_label
_atom_site_fract_x
_atom_site_fract_y
_atom_site_fract_z
Si Si1 0.764741 0.940943 0.145480
Si Si2 0.661417 0.692097 0.318215
Si Si3 0.157711 0.147581 0.443342
Si Si4 0.835123 0.951752 0.627765
Si Si5 0.500000 0.062597 0.924339
Si Si6 0.665090 0.895629 0.728193
Si Si7 0.000000 0.056134 0.943700
O O1 0.622895 0.919358 0.118768
O O2 0.817297 0.912345 0.203804
O O3 0.865142 0.926342 0.091508
O O4 0.750000 0.000000 0.160314
O O5 0.500000 0.674480 0.307299
O O6 0.681823 0.750000 0.300865
O O7 0.698641 0.683721 0.388100
O O8 0.769037 0.660076 0.278089
O O9 0.250000 0.161883 0.500000
O O10 0.178912 0.089705 0.424024
O O11 0.000000 0.157403 0.463640
O O12 0.756099 0.933507 0.687676
O O13 0.000000 0.963132 0.641496
O O14 0.750000 0.000000 0.603932
O O15 0.500000 0.004203 0.942169
O O16 0.500000 0.084988 0.991808
O O17 0.500000 0.895997 0.710372
#
# Coordination Sequence:
#
# PCOD8278632 Si02
#       7
#    16  16  16  16   8  16   8
#     4  10  19  29  45  70 102 139 175 208 243 286
#     4   9  20  39  58  75  99 128 160 205 259 310
#     4   9  19  34  52  76 102 131 164 201 244 297
#     4  10  21  35  51  71 101 138 175 211 249 289
#     4   9  18  26  48  64  95 143 180 205 237 291
#     4  11  21  33  50  74 104 131 168 213 254 303
#     4   9  16  32  40  66 101 137 176 211 245 275
#
# _framework density 16.978873
#
# number of rings (size 3 to 8) (size 9 to 14) (size 15 to 20)
#    0.000    2.333    0.833    3.000    2.333    6.333 
#    0.000    1.667    0.000    0.000    0.000    0.000 
#    0.000    4.000    0.000    0.000    0.000    0.000 
#
# Total GULP energy -594854.368950 kJ/mol
# GULP energy per Si atom -12392.799353 kJ/mol
# Density = 1.694023 g / cm^3
# Si number density = 16.978873 Si / 1000 Ang^3
#
#
#
# Elastic Constant Matrix: (Units=GPa)
#
#
# Indices 1 2 3 4 5 6 
#
# 1 128.5571 28.2524 38.1466 0.0000 0.0000 0.0000
# 2 28.2524 54.3553 13.6583 0.0000 0.0000 0.0000
# 3 38.1466 13.6583 74.1197 0.0000 0.0000 0.0000
# 4 0.0000 0.0000 0.0000 12.5327 0.0000 0.0000
# 5 0.0000 0.0000 0.0000 0.0000 37.1637 0.0000
# 6 0.0000 0.0000 0.0000 0.0000 0.0000 22.2105
#
#
#
# Elastic Compliance Matrix: (Units=1/GPa)
#
#
# Indices 1 2 3 4 5 6 
#
# 1 0.009976 -0.004084 -0.004382 0.000000 0.000000 0.000000
# 2 -0.004084 0.020963 -0.001761 0.000000 0.000000 0.000000
# 3 -0.004382 -0.001761 0.016071 0.000000 0.000000 0.000000
# 4 0.000000 0.000000 0.000000 0.079791 0.000000 0.000000
# 5 0.000000 0.000000 0.000000 0.000000 0.026908 0.000000
# 6 0.000000 0.000000 0.000000 0.000000 0.000000 0.045024
#
#
# Mechanical properties :
#
#
# Convention : Reuss Voigt Hill
#
# Bulk Modulus (GPa) = 37.65551 46.34960 42.00256
# Shear Modulus (GPa) = 21.92595 26.17969 24.05282
#
# Velocity S-wave (km/s) = 3.59746 3.93096 3.76790
# Velocity P-wave (km/s) = 6.28344 6.92538 6.61221
#
# Compressibility (1/GPa) = 0.02655654
#
# Stress axis : x y z
#
# Youngs Moduli (GPa) = 100.23571 47.70329 62.22254
#
# Poissons Ratio (x) = 0.19484 0.27265
# Poissons Ratio (y) = 0.40941 0.10956
# Poissons Ratio (z) = 0.43922 0.08400
#
# Static dielectric constant tensor:
#      x y z
#    x 3.443990 0.000000 0.000000 
#    y 0.000000 2.950140 0.000000 
#    z 0.000000 0.000000 3.093240 
# 
# 
# High freq. dielectric constant tensor:
#      x y z
#    x 1.673620 0.000000 0.000000 
#    y 0.000000 1.614800 0.000000 
#    z 0.000000 0.000000 1.650570 
# 
# From -- ./inp_files/40968.got.cif
#   From: 2010.03.12/outbox.cif.g09.slc.cpg/sg67_21_cif.got.tgz:40968.got - 2010.04.10 22:41:39.
