data_PCOD8278623
_publ_section_title
;
Structure prediction by ZEFSAII (Michael W. Deem and Ramdas Pophale) SiO2 
 PCOD8278623
Probable space group: C M M A
;
_chemical_formula_sum "Si O2"
_cell_formula_units_Z 96
_cell_length_a 8.660352
_cell_length_b 27.367905
_cell_length_c 23.920712
_cell_angle_alpha 90.000000
_cell_angle_beta 90.000000
_cell_angle_gamma 90.000000
_cell_volume 5669.584079
_symmetry_space_group_name_H-M "C M M A"
_symmetry_group_IT_number 67
_symmetry_cell_setting 'orthorhombic'
loop_
_space_group_symop_operation_xyz
x,y,z
-x,1/2-y,z
x,-y,-z
-x,1/2+y,-z
-x,-y,-z
x,1/2+y,-z
-x,y,z
x,1/2-y,z
1/2+x,1/2+y,z
1/2-x,-y,z
1/2+x,1/2-y,-z
1/2-x,y,-z
1/2-x,1/2-y,-z
1/2+x,y,-z
1/2-x,1/2+y,z
1/2+x,-y,z
loop_
_atom_site_type_symbol
_atom_site_label
_atom_site_fract_x
_atom_site_fract_y
_atom_site_fract_z
Si Si1 0.181086 0.140535 0.725811
Si Si2 0.173110 0.307991 0.944023
Si Si3 0.317659 0.051457 0.666295
Si Si4 0.683322 0.399398 0.440706
Si Si5 0.817668 0.696609 0.382702
Si Si6 0.180199 0.306555 0.171075
O O1 0.271207 0.090555 0.713479
O O2 0.231007 0.180596 0.679667
O O3 0.224236 0.160628 0.786215
O O4 0.000000 0.129451 0.722287
O O5 0.169045 0.250000 0.948581
O O6 0.274106 0.324235 0.890866
O O7 0.000000 0.328839 0.937959
O O8 0.250000 0.330121 0.000000
O O9 0.500000 0.048740 0.660634
O O10 0.246172 0.064232 0.606082
O O11 0.250000 0.000000 0.686325
O O12 0.500000 0.402910 0.441120
O O13 0.750000 0.415743 0.500000
O O14 0.740575 0.344013 0.426866
O O15 0.743504 0.750000 0.395721
O O16 0.000000 0.700513 0.386392
O O17 0.225991 0.250000 0.179773
O O18 0.000000 0.315043 0.180453
#
# Coordination Sequence:
#
# PCOD8278623 Si02
#       6
#    16  16  16  16  16  16
#     4  10  19  32  50  72  97 125 159 197 238 285
#     4   9  16  26  40  59  87 126 169 209 246 283
#     4  11  22  38  57  75  95 119 149 189 240 293
#     4  10  20  34  51  73  98 124 156 192 231 278
#     4   8  15  28  46  67  93 125 157 189 226 269
#     4  10  19  29  43  67  99 134 170 205 240 280
#
# _framework density 16.932459999999999
#
# number of rings (size 3 to 8) (size 9 to 14) (size 15 to 20)
#    0.000    2.333    0.000    5.000    0.000    4.333 
#    0.000    1.667    0.000    9.500    0.000    0.000 
#    0.000    0.667    0.000    6.667    0.000    4.333 
#
# Total GULP energy -595179.311770 kJ/mol
# GULP energy per Si atom -12399.568995 kJ/mol
# Density = 1.689392 g / cm^3
# Si number density = 16.932460 Si / 1000 Ang^3
#
#
#
# Elastic Constant Matrix: (Units=GPa)
#
#
# Indices 1 2 3 4 5 6 
#
# 1 85.2792 23.9833 24.7570 0.0000 0.0000 0.0000
# 2 23.9833 72.2020 21.0992 0.0000 0.0000 0.0000
# 3 24.7570 21.0992 97.9190 0.0000 0.0000 0.0000
# 4 0.0000 0.0000 0.0000 8.1933 0.0000 0.0000
# 5 0.0000 0.0000 0.0000 0.0000 30.2491 0.0000
# 6 0.0000 0.0000 0.0000 0.0000 0.0000 21.2133
#
#
#
# Elastic Compliance Matrix: (Units=1/GPa)
#
#
# Indices 1 2 3 4 5 6 
#
# 1 0.013536 -0.003731 -0.002618 0.000000 0.000000 0.000000
# 2 -0.003731 0.015809 -0.002463 0.000000 0.000000 0.000000
# 3 -0.002618 -0.002463 0.011405 0.000000 0.000000 0.000000
# 4 0.000000 0.000000 0.000000 0.122051 0.000000 0.000000
# 5 0.000000 0.000000 0.000000 0.000000 0.033059 0.000000
# 6 0.000000 0.000000 0.000000 0.000000 0.000000 0.047140
#
#
# Mechanical properties :
#
#
# Convention : Reuss Voigt Hill
#
# Bulk Modulus (GPa) = 43.24306 43.89769 43.57038
# Shear Modulus (GPa) = 18.63354 24.30185 21.46770
#
# Velocity S-wave (km/s) = 3.32092 3.79254 3.56454
# Velocity P-wave (km/s) = 6.34813 6.72007 6.53674
#
# Compressibility (1/GPa) = 0.02312510
#
# Stress axis : x y z
#
# Youngs Moduli (GPa) = 73.87948 63.25454 87.67882
#
# Poissons Ratio (x) = 0.23600 0.22957
# Poissons Ratio (y) = 0.27564 0.21597
# Poissons Ratio (z) = 0.19344 0.15581
#
# Static dielectric constant tensor:
#      x y z
#    x 3.161000 0.000000 0.000000 
#    y 0.000000 3.115400 0.000000 
#    z 0.000000 0.000000 3.187790 
# 
# 
# High freq. dielectric constant tensor:
#      x y z
#    x 1.658290 0.000000 0.000000 
#    y 0.000000 1.620510 0.000000 
#    z 0.000000 0.000000 1.648290 
# 
# From -- ./inp_files/39868.got.cif
#   From: 2010.03.12/outbox.cif.g09.slc.cpg/sg67_20_cif.got.tgz:39868.got - 2010.04.10 22:41:39.
