data_PCOD8278766
_publ_section_title
;
Structure prediction by ZEFSAII (Michael W. Deem and Ramdas Pophale) SiO2 
 PCOD8278766
Probable space group: C M M A
;
_chemical_formula_sum "Si O2"
_cell_formula_units_Z 88
_cell_length_a 26.070934
_cell_length_b 8.659459
_cell_length_c 22.447266
_cell_angle_alpha 90.000000
_cell_angle_beta 90.000000
_cell_angle_gamma 90.000000
_cell_volume 5067.698904
_symmetry_space_group_name_H-M "C M M A"
_symmetry_group_IT_number 67
_symmetry_cell_setting 'orthorhombic'
loop_
_space_group_symop_operation_xyz
x,y,z
-x,1/2-y,z
x,-y,-z
-x,1/2+y,-z
-x,-y,-z
x,1/2+y,-z
-x,y,z
x,1/2-y,z
1/2+x,1/2+y,z
1/2-x,-y,z
1/2+x,1/2-y,-z
1/2-x,y,-z
1/2-x,1/2-y,-z
1/2+x,y,-z
1/2-x,1/2+y,z
1/2+x,-y,z
loop_
_atom_site_type_symbol
_atom_site_label
_atom_site_fract_x
_atom_site_fract_y
_atom_site_fract_z
Si Si1 0.000000 0.935112 0.434348
Si Si2 0.693931 0.431478 0.059424
Si Si3 0.196070 0.434542 0.698803
Si Si4 0.090441 0.572106 0.352039
Si Si5 0.841756 0.427153 0.178857
Si Si6 0.555739 0.578328 0.238094
O O1 0.052493 0.999441 0.402536
O O2 0.000000 0.750000 0.433400
O O3 0.000000 0.000000 0.500000
O O4 0.696314 0.250000 0.053304
O O5 0.750000 0.500000 0.064140
O O6 0.665272 0.477342 0.119204
O O7 0.666508 0.500000 0.000000
O O8 0.197481 0.250000 0.701474
O O9 0.250000 0.500000 0.673485
O O10 0.149254 0.493124 0.655090
O O11 0.188301 0.499416 0.765413
O O12 0.095591 0.750000 0.366526
O O13 0.062605 0.548044 0.289269
O O14 0.823287 0.250000 0.171900
O O15 0.902592 0.441247 0.186998
O O16 0.500000 0.555157 0.208475
O O17 0.560988 0.750000 0.266885
#
# Coordination Sequence:
#
# PCOD8278766 Si02
#       6
#     8  16  16  16  16  16
#     4  10  20  34  52  76 102 130 163 204 245 286
#     4  11  21  34  50  68  91 121 158 198 242 289
#     4  10  19  31  48  72 100 131 163 199 243 293
#     4   9  18  32  50  71  99 131 163 199 243 290
#     4  10  19  31  47  70  99 128 159 197 240 289
#     4   9  17  29  48  73  99 126 157 195 240 286
#
# _framework density 17.364882000000001
#
# number of rings (size 3 to 8) (size 9 to 14) (size 15 to 20)
#    0.000    2.182    0.909    3.818    0.000    2.182 
#    0.000    0.000    0.000    1.091    0.000    3.818 
#    0.000    0.000    0.000    0.000    0.000    0.000 
#
# Total GULP energy -545161.840648 kJ/mol
# GULP energy per Si atom -12390.041833 kJ/mol
# Density = 1.732536 g / cm^3
# Si number density = 17.364882 Si / 1000 Ang^3
#
#
#
# Elastic Constant Matrix: (Units=GPa)
#
#
# Indices 1 2 3 4 5 6 
#
# 1 141.9020 34.4358 57.0503 0.0000 0.0000 0.0000
# 2 34.4358 74.4228 29.2780 0.0000 0.0000 0.0000
# 3 57.0503 29.2780 102.0342 0.0000 0.0000 0.0000
# 4 0.0000 0.0000 0.0000 24.8257 0.0000 0.0000
# 5 0.0000 0.0000 0.0000 0.0000 22.0475 0.0000
# 6 0.0000 0.0000 0.0000 0.0000 0.0000 18.0250
#
#
#
# Elastic Compliance Matrix: (Units=1/GPa)
#
#
# Indices 1 2 3 4 5 6 
#
# 1 0.009518 -0.002605 -0.004575 0.000000 0.000000 0.000000
# 2 -0.002605 0.015859 -0.003094 0.000000 0.000000 0.000000
# 3 -0.004575 -0.003094 0.013246 0.000000 0.000000 0.000000
# 4 0.000000 0.000000 0.000000 0.040281 0.000000 0.000000
# 5 0.000000 0.000000 0.000000 0.000000 0.045357 0.000000
# 6 0.000000 0.000000 0.000000 0.000000 0.000000 0.055478
#
#
# Mechanical properties :
#
#
# Convention : Reuss Voigt Hill
#
# Bulk Modulus (GPa) = 55.31963 62.20969 58.76466
# Shear Modulus (GPa) = 24.23509 26.15266 25.19388
#
# Velocity S-wave (km/s) = 3.73988 3.88502 3.81314
# Velocity P-wave (km/s) = 7.11163 7.48514 7.30077
#
# Compressibility (1/GPa) = 0.01807677
#
# Stress axis : x y z
#
# Youngs Moduli (GPa) = 105.06026 63.05489 75.49242
#
# Poissons Ratio (x) = 0.16423 0.34535
# Poissons Ratio (y) = 0.27363 0.23361
# Poissons Ratio (z) = 0.48061 0.19512
#
# Static dielectric constant tensor:
#      x y z
#    x 3.594000 0.000000 0.000000 
#    y 0.000000 3.318400 0.000000 
#    z 0.000000 0.000000 3.258910 
# 
# 
# High freq. dielectric constant tensor:
#      x y z
#    x 1.676310 0.000000 0.000000 
#    y 0.000000 1.675910 0.000000 
#    z 0.000000 0.000000 1.637990 
# 
# From -- ./inp_files/40138.got.cif
#   From: 2010.03.12/outbox.cif.g09.slc.cpg/sg67_21_cif.got.tgz:40138.got - 2010.04.10 22:41:39.
