data_PCOD8278421
_publ_section_title
;
Structure prediction by ZEFSAII (Michael W. Deem and Ramdas Pophale) SiO2 
 PCOD8278421
Probable space group: C M M A
;
_chemical_formula_sum "Si O2"
_cell_formula_units_Z 112
_cell_length_a 17.494560
_cell_length_b 29.205289
_cell_length_c 12.340834
_cell_angle_alpha 90.000000
_cell_angle_beta 90.000000
_cell_angle_gamma 90.000000
_cell_volume 6305.347739
_symmetry_space_group_name_H-M "C M M A"
_symmetry_group_IT_number 67
_symmetry_cell_setting 'orthorhombic'
loop_
_space_group_symop_operation_xyz
x,y,z
-x,1/2-y,z
x,-y,-z
-x,1/2+y,-z
-x,-y,-z
x,1/2+y,-z
-x,y,z
x,1/2-y,z
1/2+x,1/2+y,z
1/2-x,-y,z
1/2+x,1/2-y,-z
1/2-x,y,-z
1/2-x,1/2-y,-z
1/2+x,y,-z
1/2-x,1/2+y,z
1/2+x,-y,z
loop_
_atom_site_type_symbol
_atom_site_label
_atom_site_fract_x
_atom_site_fract_y
_atom_site_fract_z
Si Si1 0.590409 0.554334 0.338048
Si Si2 0.410667 0.455422 0.262304
Si Si3 0.087932 0.801202 0.750194
Si Si4 0.161065 0.800957 0.522705
Si Si5 0.411415 0.109108 0.457541
Si Si6 0.337619 0.451488 0.035178
Si Si7 0.589050 0.390065 0.866829
O O1 0.500000 0.558360 0.344465
O O2 0.613998 0.501337 0.326507
O O3 0.625410 0.577673 0.446541
O O4 0.622605 0.581161 0.233895
O O5 0.500000 0.458111 0.225573
O O6 0.395786 0.413489 0.342140
O O7 0.353618 0.446571 0.162554
O O8 0.100085 0.750000 0.795909
O O9 0.142542 0.810908 0.648467
O O10 0.108300 0.836500 0.846643
O O11 0.000000 0.808910 0.712262
O O12 0.129899 0.750000 0.492124
O O13 0.250000 0.803289 0.500000
O O14 0.122560 0.839962 0.450351
O O15 0.500000 0.114048 0.481964
O O16 0.375685 0.500000 0.000000
O O17 0.250000 0.452121 0.000000
O O18 0.374184 0.407506 0.977534
O O19 0.500000 0.398723 0.878055
#
# Coordination Sequence:
#
# PCOD8278421 Si02
#       7
#    16  16  16  16  16  16  16
#     4   9  16  29  51  79 104 130 163 204 255 303
#     4  10  20  34  53  75 104 139 174 209 250 309
#     4   9  17  31  53  80 103 125 163 216 263 300
#     4  10  20  32  48  73 105 139 172 206 251 306
#     4  10  19  33  53  78 106 136 170 209 255 305
#     4  11  23  36  50  72 102 138 176 217 255 298
#     4  10  18  31  56  79  99 129 167 213 261 301
#
# _framework density 17.762699999999999
#
# number of rings (size 3 to 8) (size 9 to 14) (size 15 to 20)
#    0.000    2.143    2.857    1.286    0.000    4.286 
#    0.000    0.000    0.000    2.143    0.000    2.000 
#    0.000    0.000    0.000    0.000    0.000    0.000 
#
# Total GULP energy -694184.340637 kJ/mol
# GULP energy per Si atom -12396.148940 kJ/mol
# Density = 1.772227 g / cm^3
# Si number density = 17.762700 Si / 1000 Ang^3
#
#
#
# Elastic Constant Matrix: (Units=GPa)
#
#
# Indices 1 2 3 4 5 6 
#
# 1 42.4791 41.1588 40.4524 0.0000 0.0000 0.0000
# 2 41.1588 153.6790 61.6371 0.0000 0.0000 0.0000
# 3 40.4524 61.6371 92.6083 0.0000 0.0000 0.0000
# 4 0.0000 0.0000 0.0000 22.3853 0.0000 0.0000
# 5 0.0000 0.0000 0.0000 0.0000 18.1199 0.0000
# 6 0.0000 0.0000 0.0000 0.0000 0.0000 13.6465
#
#
#
# Elastic Compliance Matrix: (Units=1/GPa)
#
#
# Indices 1 2 3 4 5 6 
#
# 1 0.043459 -0.005491 -0.015328 0.000000 0.000000 0.000000
# 2 -0.005491 0.009571 -0.003971 0.000000 0.000000 0.000000
# 3 -0.015328 -0.003971 0.020137 0.000000 0.000000 0.000000
# 4 0.000000 0.000000 0.000000 0.044672 0.000000 0.000000
# 5 0.000000 0.000000 0.000000 0.000000 0.055188 0.000000
# 6 0.000000 0.000000 0.000000 0.000000 0.000000 0.073279
#
#
# Mechanical properties :
#
#
# Convention : Reuss Voigt Hill
#
# Bulk Modulus (GPa) = 42.40106 63.91809 53.15958
# Shear Modulus (GPa) = 16.46100 20.53155 18.49628
#
# Velocity S-wave (km/s) = 3.04751 3.40351 3.23042
# Velocity P-wave (km/s) = 6.02542 7.17689 6.62622
#
# Compressibility (1/GPa) = 0.02358432
#
# Stress axis : x y z
#
# Youngs Moduli (GPa) = 23.01028 104.48746 49.66018
#
# Poissons Ratio (x) = 0.57378 0.76121
# Poissons Ratio (y) = 0.12636 0.19721
# Poissons Ratio (z) = 0.35271 0.41493
#
# Static dielectric constant tensor:
#      x y z
#    x 3.034300 0.000000 0.000000 
#    y 0.000000 3.602900 0.000000 
#    z 0.000000 0.000000 3.144530 
# 
# 
# High freq. dielectric constant tensor:
#      x y z
#    x 1.658630 0.000000 0.000000 
#    y 0.000000 1.699290 0.000000 
#    z 0.000000 0.000000 1.668360 
# 
# From -- ./inp_files/18643.got.cif
#   From: 2010.03.12/outbox.cif.g09.slc.cpg/sg67_10_cif.got.tgz:18643.got - 2010.04.10 22:41:39.
