data_PCOD8278112
_publ_section_title
;
Structure prediction by ZEFSAII (Michael W. Deem and Ramdas Pophale) SiO2 
 PCOD8278112
Probable space group: C M M A
;
_chemical_formula_sum "Si O2"
_cell_formula_units_Z 96
_cell_length_a 8.695112
_cell_length_b 18.220187
_cell_length_c 30.944640
_cell_angle_alpha 90.000000
_cell_angle_beta 90.000000
_cell_angle_gamma 90.000000
_cell_volume 4902.453071
_symmetry_space_group_name_H-M "C M M A"
_symmetry_group_IT_number 67
_symmetry_cell_setting 'orthorhombic'
loop_
_space_group_symop_operation_xyz
x,y,z
-x,1/2-y,z
x,-y,-z
-x,1/2+y,-z
-x,-y,-z
x,1/2+y,-z
-x,y,z
x,1/2-y,z
1/2+x,1/2+y,z
1/2-x,-y,z
1/2+x,1/2-y,-z
1/2-x,y,-z
1/2-x,1/2-y,-z
1/2+x,y,-z
1/2-x,1/2+y,z
1/2+x,-y,z
loop_
_atom_site_type_symbol
_atom_site_label
_atom_site_fract_x
_atom_site_fract_y
_atom_site_fract_z
Si Si1 0.180278 0.666487 0.628865
Si Si2 0.319142 0.080005 0.869913
Si Si3 0.180543 0.078149 0.454950
Si Si4 0.322305 0.335887 0.207389
Si Si5 0.317232 0.918457 0.957032
Si Si6 0.819679 0.079648 0.707187
O O1 0.238163 0.750000 0.632404
O O2 0.222876 0.637370 0.581384
O O3 0.265680 0.617312 0.663538
O O4 0.000000 0.660330 0.637600
O O5 0.500000 0.072066 0.877138
O O6 0.284565 0.132920 0.830199
O O7 0.243041 0.117857 0.912599
O O8 0.250000 0.000000 0.860224
O O9 0.250000 0.106780 0.500000
O O10 0.000000 0.068293 0.460511
O O11 0.250000 0.000000 0.441379
O O12 0.500000 0.354323 0.197213
O O13 0.293532 0.250000 0.211346
O O14 0.268132 0.371370 0.252255
O O15 0.500000 0.918348 0.958704
O O16 0.250000 0.000000 0.956374
O O17 0.250000 0.877972 0.000000
O O18 0.000000 0.071029 0.705043
O O19 0.750000 0.000000 0.712737
#
# Coordination Sequence:
#
# PCOD8278112 Si02
#       6
#    16  16  16  16  16  16
#     4  10  22  39  58  83 116 150 185 229 280 332
#     4  11  21  34  54  81 111 145 187 229 274 328
#     4  10  20  35  56  81 110 146 188 233 279 328
#     4  10  22  40  59  81 111 144 180 225 276 329
#     4  10  17  28  47  74 108 143 181 227 278 326
#     4  11  23  39  61  87 113 145 185 228 275 329
#
# _framework density 19.582034
#
# number of rings (size 3 to 8) (size 9 to 14) (size 15 to 20)
#    0.000    1.667    0.000    7.500    0.000    7.000 
#    0.000    0.000    0.000    0.500    0.000    0.000 
#    0.000    0.000    0.000    0.000    0.000    0.000 
#
# Total GULP energy -595292.216047 kJ/mol
# GULP energy per Si atom -12401.921168 kJ/mol
# Density = 1.953746 g / cm^3
# Si number density = 19.582034 Si / 1000 Ang^3
#
#
#
# Elastic Constant Matrix: (Units=GPa)
#
#
# Indices 1 2 3 4 5 6 
#
# 1 123.6076 41.7346 67.8201 0.0000 0.0000 0.0000
# 2 41.7346 96.5607 54.3312 0.0000 0.0000 0.0000
# 3 67.8201 54.3312 142.8231 0.0000 0.0000 0.0000
# 4 0.0000 0.0000 0.0000 5.8133 0.0000 0.0000
# 5 0.0000 0.0000 0.0000 0.0000 -47.1228 0.0000
# 6 0.0000 0.0000 0.0000 0.0000 0.0000 13.8259
#
#
#
# Elastic Compliance Matrix: (Units=1/GPa)
#
#
# Indices 1 2 3 4 5 6 
#
# 1 0.011356 -0.002384 -0.004485 0.000000 0.000000 0.000000
# 2 -0.002384 0.013677 -0.004071 0.000000 0.000000 0.000000
# 3 -0.004485 -0.004071 0.010680 0.000000 0.000000 0.000000
# 4 0.000000 0.000000 0.000000 0.172019 0.000000 0.000000
# 5 0.000000 0.000000 0.000000 0.000000 -0.021221 0.000000
# 6 0.000000 0.000000 0.000000 0.000000 0.000000 0.072328
#
#
# Mechanical properties :
#
#
# Convention : Reuss Voigt Hill
#
# Bulk Modulus (GPa) = 72.29427 76.75145 74.52286
# Shear Modulus (GPa) = 17.52350 7.77700 12.65025
#
# Velocity S-wave (km/s) = 2.99469 1.99502 2.54444
# Velocity P-wave (km/s) = 6.99689 6.67733 6.83897
#
# Compressibility (1/GPa) = 0.01383235
#
# Stress axis : x y z
#
# Youngs Moduli (GPa) = 88.05702 73.11451 93.63182
#
# Poissons Ratio (x) = 0.17434 0.41998
# Poissons Ratio (y) = 0.20997 0.38114
# Poissons Ratio (z) = 0.39498 0.29762
#
# Static dielectric constant tensor:
#      x y z
#    x 3.697790 0.000000 0.000000 
#    y 0.000000 3.281900 0.000000 
#    z 0.000000 0.000000 4.198370 
# 
# 
# High freq. dielectric constant tensor:
#      x y z
#    x 1.771920 0.000000 0.000000 
#    y 0.000000 1.739130 0.000000 
#    z 0.000000 0.000000 1.786870 
# 
# From -- ./inp_files/43441.got.cif
#   From: 2010.03.12/outbox.cif.g09.slc.cpg/sg67_22_cif.got.tgz:43441.got - 2010.04.10 22:41:39.
