data_PCOD8278998
_publ_section_title
;
Structure prediction by ZEFSAII (Michael W. Deem and Ramdas Pophale) SiO2 
 PCOD8278998
Probable space group: C M M A
;
_chemical_formula_sum "Si O2"
_cell_formula_units_Z 80
_cell_length_a 8.953039
_cell_length_b 18.466697
_cell_length_c 25.938053
_cell_angle_alpha 90.000000
_cell_angle_beta 90.000000
_cell_angle_gamma 90.000000
_cell_volume 4288.417633
_symmetry_space_group_name_H-M "C M M A"
_symmetry_group_IT_number 67
_symmetry_cell_setting 'orthorhombic'
loop_
_space_group_symop_operation_xyz
x,y,z
-x,1/2-y,z
x,-y,-z
-x,1/2+y,-z
-x,-y,-z
x,1/2+y,-z
-x,y,z
x,1/2-y,z
1/2+x,1/2+y,z
1/2-x,-y,z
1/2+x,1/2-y,-z
1/2-x,y,-z
1/2-x,1/2-y,-z
1/2+x,y,-z
1/2-x,1/2+y,z
1/2+x,-y,z
loop_
_atom_site_type_symbol
_atom_site_label
_atom_site_fract_x
_atom_site_fract_y
_atom_site_fract_z
Si Si1 0.322805 0.922101 0.247379
Si Si2 0.178048 0.576724 0.947064
Si Si3 0.675365 0.167192 0.653272
Si Si4 0.168165 0.163736 0.550411
Si Si5 0.823181 0.830837 0.849270
O O1 0.500000 0.930337 0.244990
O O2 0.271146 0.880058 0.298485
O O3 0.260819 0.877564 0.198375
O O4 0.250000 0.000000 0.246978
O O5 0.250000 0.500000 0.932422
O O6 0.224417 0.632836 0.902902
O O7 0.000000 0.568476 0.952807
O O8 0.250000 0.606015 0.000000
O O9 0.500000 0.161829 0.644447
O O10 0.723642 0.250000 0.663812
O O11 0.752836 0.135293 0.602184
O O12 0.174827 0.250000 0.549205
O O13 0.250000 0.131845 0.500000
O O14 0.000000 0.134649 0.550011
O O15 0.754787 0.750000 0.847072
O O16 0.000000 0.826618 0.844820
#
# Coordination Sequence:
#
# PCOD8278998 Si02
#       5
#    16  16  16  16  16
#     4  10  20  34  53  74  98 129 164 203 246 296
#     4  10  19  32  52  75 102 135 169 206 246 293
#     4   9  17  30  49  72  97 127 164 203 242 287
#     4   9  16  26  43  69 100 131 162 199 243 290
#     4   9  18  33  53  76 100 129 167 208 249 293
#
# _framework density 18.654900000000001
#
# number of rings (size 3 to 8) (size 9 to 14) (size 15 to 20)
#    0.000    2.600    0.000    3.000    0.000    6.000 
#    0.000    1.000    0.000    6.600    0.000    4.200 
#    0.000    0.000    0.000    0.000    0.000    0.000 
#
# Total GULP energy -495994.816098 kJ/mol
# GULP energy per Si atom -12399.870402 kJ/mol
# Density = 1.861244 g / cm^3
# Si number density = 18.654900 Si / 1000 Ang^3
#
#
#
# Elastic Constant Matrix: (Units=GPa)
#
#
# Indices 1 2 3 4 5 6 
#
# 1 58.0027 35.5498 57.7622 0.0000 0.0000 0.0000
# 2 35.5498 116.9245 96.1968 0.0000 0.0000 0.0000
# 3 57.7622 96.1968 198.8643 0.0000 0.0000 0.0000
# 4 0.0000 0.0000 0.0000 15.6805 0.0000 0.0000
# 5 0.0000 0.0000 0.0000 0.0000 25.8354 0.0000
# 6 0.0000 0.0000 0.0000 0.0000 0.0000 20.1221
#
#
#
# Elastic Compliance Matrix: (Units=1/GPa)
#
#
# Indices 1 2 3 4 5 6 
#
# 1 0.024751 -0.002675 -0.005895 0.000000 0.000000 0.000000
# 2 -0.002675 0.014496 -0.006235 0.000000 0.000000 0.000000
# 3 -0.005895 -0.006235 0.009757 0.000000 0.000000 0.000000
# 4 0.000000 0.000000 0.000000 0.063773 0.000000 0.000000
# 5 0.000000 0.000000 0.000000 0.000000 0.038707 0.000000
# 6 0.000000 0.000000 0.000000 0.000000 0.000000 0.049697
#
#
# Mechanical properties :
#
#
# Convention : Reuss Voigt Hill
#
# Bulk Modulus (GPa) = 51.56544 83.64547 67.60546
# Shear Modulus (GPa) = 21.07444 24.61313 22.84378
#
# Velocity S-wave (km/s) = 3.36475 3.63628 3.50315
# Velocity P-wave (km/s) = 6.54195 7.90985 7.25820
#
# Compressibility (1/GPa) = 0.01939283
#
# Stress axis : x y z
#
# Youngs Moduli (GPa) = 40.40269 68.98688 102.49242
#
# Poissons Ratio (x) = 0.18456 0.60420
# Poissons Ratio (y) = 0.10809 0.63903
# Poissons Ratio (z) = 0.23817 0.43012
#
# Static dielectric constant tensor:
#      x y z
#    x 3.258360 0.000000 0.000000 
#    y 0.000000 3.257320 0.000000 
#    z 0.000000 0.000000 3.704770 
# 
# 
# High freq. dielectric constant tensor:
#      x y z
#    x 1.705020 0.000000 0.000000 
#    y 0.000000 1.700180 0.000000 
#    z 0.000000 0.000000 1.744710 
# 
# From -- ./inp_files/43241.got.cif
#   From: 2010.03.12/outbox.cif.g09.slc.cpg/sg67_22_cif.got.tgz:43241.got - 2010.04.10 22:41:39.
