data_PCOD8278268
_publ_section_title
;
Structure prediction by ZEFSAII (Michael W. Deem and Ramdas Pophale) SiO2 
 PCOD8278268
Probable space group: C M M A
;
_chemical_formula_sum "Si O2"
_cell_formula_units_Z 80
_cell_length_a 30.330746
_cell_length_b 8.873324
_cell_length_c 19.896473
_cell_angle_alpha 90.000000
_cell_angle_beta 90.000000
_cell_angle_gamma 90.000000
_cell_volume 5354.828037
_symmetry_space_group_name_H-M "C M M A"
_symmetry_group_IT_number 67
_symmetry_cell_setting 'orthorhombic'
loop_
_space_group_symop_operation_xyz
x,y,z
-x,1/2-y,z
x,-y,-z
-x,1/2+y,-z
-x,-y,-z
x,1/2+y,-z
-x,y,z
x,1/2-y,z
1/2+x,1/2+y,z
1/2-x,-y,z
1/2+x,1/2-y,-z
1/2-x,y,-z
1/2-x,1/2-y,-z
1/2+x,y,-z
1/2-x,1/2+y,z
1/2+x,-y,z
loop_
_atom_site_type_symbol
_atom_site_label
_atom_site_fract_x
_atom_site_fract_y
_atom_site_fract_z
Si Si1 0.795406 0.570932 0.176279
Si Si2 0.619340 0.078776 0.794821
Si Si3 0.947514 0.080233 0.433641
Si Si4 0.154138 0.921031 0.932295
Si Si5 0.050831 0.927043 0.297737
O O1 0.793241 0.750000 0.178755
O O2 0.750000 0.500000 0.203001
O O3 0.835141 0.509172 0.224120
O O4 0.804305 0.511937 0.099762
O O5 0.621963 0.250000 0.767962
O O6 0.614727 0.076390 0.876592
O O7 0.577388 0.996028 0.764161
O O8 0.929441 0.250000 0.431303
O O9 0.000000 0.077279 0.436283
O O10 0.928129 0.000000 0.500000
O O11 0.930747 0.993283 0.367646
O O12 0.168842 0.750000 0.947575
O O13 0.137330 0.000000 0.000000
O O14 0.057588 0.750000 0.299609
O O15 0.000000 0.971824 0.287129
#
# Coordination Sequence:
#
# PCOD8278268 Si02
#       5
#    16  16  16  16  16
#     4  10  18  30  46  65  90 116 144 180 221 269
#     4   9  19  32  45  64  88 115 149 185 222 266
#     4   9  16  26  41  62  89 118 146 178 216 259
#     4   9  18  30  45  65  87 114 145 181 224 271
#     4  10  19  30  46  67  90 119 153 185 220 262
#
# _framework density 14.939788999999999
#
# number of rings (size 3 to 8) (size 9 to 14) (size 15 to 20)
#    1.200    1.400    0.000    3.600    0.000    4.000 
#    0.000    2.000    0.000    0.600    0.000    0.000 
#    0.000    0.800    0.000    8.000    0.000    5.200 
#
# Total GULP energy -495639.287905 kJ/mol
# GULP energy per Si atom -12390.982198 kJ/mol
# Density = 1.490579 g / cm^3
# Si number density = 14.939789 Si / 1000 Ang^3
#
#
#
# Elastic Constant Matrix: (Units=GPa)
#
#
# Indices 1 2 3 4 5 6 
#
# 1 62.3807 48.7111 41.6669 0.0000 0.0000 0.0000
# 2 48.7111 133.6507 37.7620 0.0000 0.0000 0.0000
# 3 41.6669 37.7620 51.8213 0.0000 0.0000 0.0000
# 4 0.0000 0.0000 0.0000 29.3579 0.0000 0.0000
# 5 0.0000 0.0000 0.0000 0.0000 3.8822 0.0000
# 6 0.0000 0.0000 0.0000 0.0000 0.0000 24.4070
#
#
#
# Elastic Compliance Matrix: (Units=1/GPa)
#
#
# Indices 1 2 3 4 5 6 
#
# 1 0.038901 -0.006725 -0.026378 0.000000 0.000000 0.000000
# 2 -0.006725 0.010585 -0.002306 0.000000 0.000000 0.000000
# 3 -0.026378 -0.002306 0.042186 0.000000 0.000000 0.000000
# 4 0.000000 0.000000 0.000000 0.034062 0.000000 0.000000
# 5 0.000000 0.000000 0.000000 0.000000 0.257585 0.000000
# 6 0.000000 0.000000 0.000000 0.000000 0.000000 0.040972
#
#
# Mechanical properties :
#
#
# Convention : Reuss Voigt Hill
#
# Bulk Modulus (GPa) = 47.95062 56.01476 51.98269
# Shear Modulus (GPa) = 9.95896 19.51026 14.73461
#
# Velocity S-wave (km/s) = 2.58467 3.61768 3.14390
# Velocity P-wave (km/s) = 6.40882 7.41790 6.93175
#
# Compressibility (1/GPa) = 0.02085479
#
# Stress axis : x y z
#
# Youngs Moduli (GPa) = 25.70629 94.47545 23.70446
#
# Poissons Ratio (x) = 0.63537 0.62527
# Poissons Ratio (y) = 0.17288 0.05465
# Poissons Ratio (z) = 0.67807 0.21783
#
# Static dielectric constant tensor:
#      x y z
#    x 2.541920 0.000000 0.000000 
#    y 0.000000 3.027180 0.000000 
#    z 0.000000 0.000000 2.771850 
# 
# 
# High freq. dielectric constant tensor:
#      x y z
#    x 1.526670 0.000000 0.000000 
#    y 0.000000 1.597500 0.000000 
#    z 0.000000 0.000000 1.551880 
# 
# From -- ./inp_files/36062.got.cif
#   From: 2010.03.12/outbox.cif.g09.slc.cpg/sg67_19_cif.got.tgz:36062.got - 2010.04.10 22:41:39.
