data_PCOD8278505
_publ_section_title
;
Structure prediction by ZEFSAII (Michael W. Deem and Ramdas Pophale) SiO2 
 PCOD8278505
Probable space group: C M M A
;
_chemical_formula_sum "Si O2"
_cell_formula_units_Z 104
_cell_length_a 18.102374
_cell_length_b 24.888736
_cell_length_c 12.196343
_cell_angle_alpha 90.000000
_cell_angle_beta 90.000000
_cell_angle_gamma 90.000000
_cell_volume 5495.003887
_symmetry_space_group_name_H-M "C M M A"
_symmetry_group_IT_number 67
_symmetry_cell_setting 'orthorhombic'
loop_
_space_group_symop_operation_xyz
x,y,z
-x,1/2-y,z
x,-y,-z
-x,1/2+y,-z
-x,-y,-z
x,1/2+y,-z
-x,y,z
x,1/2-y,z
1/2+x,1/2+y,z
1/2-x,-y,z
1/2+x,1/2-y,-z
1/2-x,y,-z
1/2-x,1/2-y,-z
1/2+x,y,-z
1/2-x,1/2+y,z
1/2+x,-y,z
loop_
_atom_site_type_symbol
_atom_site_label
_atom_site_fract_x
_atom_site_fract_y
_atom_site_fract_z
Si Si1 0.580063 0.476935 0.715430
Si Si2 0.750000 0.143863 0.000000
Si Si3 0.701988 0.188940 0.607052
Si Si4 0.414147 0.108041 0.540581
Si Si5 0.141422 0.089717 0.693733
Si Si6 0.778744 0.943856 0.831137
Si Si7 0.679550 0.810058 0.797579
O O1 0.500000 0.462238 0.763628
O O2 0.588602 0.450984 0.594840
O O3 0.584816 0.541428 0.713125
O O4 0.638557 0.450605 0.793527
O O5 0.709372 0.103553 0.917429
O O6 0.801558 0.182321 0.926354
O O7 0.674051 0.250000 0.598214
O O8 0.750000 0.174112 0.500000
O O9 0.628370 0.152069 0.615431
O O10 0.749618 0.181055 0.718141
O O11 0.500000 0.125189 0.519880
O O12 0.364443 0.105667 0.432141
O O13 0.224135 0.071178 0.729715
O O14 0.120640 0.143424 0.764377
O O15 0.750000 0.000000 0.883958
O O16 0.646913 0.750000 0.781446
#
# Coordination Sequence:
#
# PCOD8278505 Si02
#       7
#    16   8  16  16  16  16  16
#     4  10  21  35  52  80 115 149 185 228 281 336
#     4  10  18  32  56  82 110 134 178 240 280 326
#     4  10  20  36  56  79 112 148 185 229 273 328
#     4  11  21  32  51  81 116 151 187 228 277 335
#     4  10  19  33  52  77 112 148 182 226 273 330
#     4   9  19  33  54  79 105 144 187 229 277 334
#     4  10  20  34  56  82 107 141 185 235 281 325
#
# _framework density 18.926282
#
# number of rings (size 3 to 8) (size 9 to 14) (size 15 to 20)
#    0.000    2.000    1.538    3.231    0.000    1.538 
#    0.000    2.308    0.000   21.692    0.000    0.000 
#    0.000   14.769    0.000    0.000    0.000    0.000 
#
# Total GULP energy -644187.665240 kJ/mol
# GULP energy per Si atom -12388.224332 kJ/mol
# Density = 1.888321 g / cm^3
# Si number density = 18.926282 Si / 1000 Ang^3
#
#
#
# Elastic Constant Matrix: (Units=GPa)
#
#
# Indices 1 2 3 4 5 6 
#
# 1 76.7075 36.9354 32.8609 0.0000 0.0000 0.0000
# 2 36.9354 136.1086 29.2724 0.0000 0.0000 0.0000
# 3 32.8609 29.2724 86.5167 0.0000 0.0000 0.0000
# 4 0.0000 0.0000 0.0000 30.3844 0.0000 0.0000
# 5 0.0000 0.0000 0.0000 0.0000 7.2973 0.0000
# 6 0.0000 0.0000 0.0000 0.0000 0.0000 19.1690
#
#
#
# Elastic Compliance Matrix: (Units=1/GPa)
#
#
# Indices 1 2 3 4 5 6 
#
# 1 0.016965 -0.003470 -0.005269 0.000000 0.000000 0.000000
# 2 -0.003470 0.008634 -0.001603 0.000000 0.000000 0.000000
# 3 -0.005269 -0.001603 0.014102 0.000000 0.000000 0.000000
# 4 0.000000 0.000000 0.000000 0.032912 0.000000 0.000000
# 5 0.000000 0.000000 0.000000 0.000000 0.137037 0.000000
# 6 0.000000 0.000000 0.000000 0.000000 0.000000 0.052168
#
#
# Mechanical properties :
#
#
# Convention : Reuss Voigt Hill
#
# Bulk Modulus (GPa) = 52.58985 55.27448 53.93216
# Shear Modulus (GPa) = 17.31052 24.72105 21.01579
#
# Velocity S-wave (km/s) = 3.02756 3.61803 3.33588
# Velocity P-wave (km/s) = 6.32997 6.83535 6.58751
#
# Compressibility (1/GPa) = 0.01901508
#
# Stress axis : x y z
#
# Youngs Moduli (GPa) = 58.94490 115.82668 70.91054
#
# Poissons Ratio (x) = 0.40197 0.37366
# Poissons Ratio (y) = 0.20457 0.11367
# Poissons Ratio (z) = 0.31061 0.18567
#
# Static dielectric constant tensor:
#      x y z
#    x 3.171400 0.000000 0.000000 
#    y 0.000000 3.960650 0.000000 
#    z 0.000000 0.000000 3.439640 
# 
# 
# High freq. dielectric constant tensor:
#      x y z
#    x 1.697220 0.000000 0.000000 
#    y 0.000000 1.761100 0.000000 
#    z 0.000000 0.000000 1.723460 
# 
# From -- ./inp_files/19896.got.cif
#   From: 2010.03.12/outbox.cif.g09.slc.cpg/sg67_10_cif.got.tgz:19896.got - 2010.04.10 22:41:39.
