data_PCOD8278794
_publ_section_title
;
Structure prediction by ZEFSAII (Michael W. Deem and Ramdas Pophale) SiO2 
 PCOD8278794
Probable space group: C M M A
;
_chemical_formula_sum "Si O2"
_cell_formula_units_Z 104
_cell_length_a 8.953505
_cell_length_b 27.439400
_cell_length_c 23.642969
_cell_angle_alpha 90.000000
_cell_angle_beta 90.000000
_cell_angle_gamma 90.000000
_cell_volume 5808.576373
_symmetry_space_group_name_H-M "C M M A"
_symmetry_group_IT_number 67
_symmetry_cell_setting 'orthorhombic'
loop_
_space_group_symop_operation_xyz
x,y,z
-x,1/2-y,z
x,-y,-z
-x,1/2+y,-z
-x,-y,-z
x,1/2+y,-z
-x,y,z
x,1/2-y,z
1/2+x,1/2+y,z
1/2-x,-y,z
1/2+x,1/2-y,-z
1/2-x,y,-z
1/2-x,1/2-y,-z
1/2+x,y,-z
1/2-x,1/2+y,z
1/2+x,-y,z
loop_
_atom_site_type_symbol
_atom_site_label
_atom_site_fract_x
_atom_site_fract_y
_atom_site_fract_z
Si Si1 0.333774 0.046972 0.748733
Si Si2 0.831413 0.750000 0.557597
Si Si3 0.664857 0.125187 0.845810
Si Si4 0.324854 0.144896 0.561255
Si Si5 0.179868 0.050722 0.060752
Si Si6 0.323399 0.805690 0.764587
Si Si7 0.823817 0.117389 0.670973
O O1 0.500000 0.034575 0.726043
O O2 0.346780 0.084571 0.798678
O O3 0.230719 0.067732 0.699028
O O4 0.250000 0.000000 0.772865
O O5 0.750000 0.750000 0.500000
O O6 0.794171 0.699207 0.588252
O O7 0.000000 0.750000 0.538382
O O8 0.500000 0.146351 0.858810
O O9 0.728971 0.097157 0.900916
O O10 0.765100 0.169919 0.823049
O O11 0.500000 0.133136 0.555636
O O12 0.250000 0.137141 0.500000
O O13 0.248201 0.112673 0.608847
O O14 0.000000 0.045595 0.058376
O O15 0.250000 0.000000 0.084301
O O16 0.250000 0.061748 0.000000
O O17 0.500000 0.806476 0.768336
O O18 0.263850 0.750000 0.759334
O O19 0.269636 0.836358 0.709359
O O20 0.000000 0.118254 0.664385
#
# Coordination Sequence:
#
# PCOD8278794 Si02
#       7
#    16   8  16  16  16  16  16
#     4  10  19  33  52  74 100 128 162 203 247 294
#     4   8  16  28  42  62  88 118 154 190 229 276
#     4   9  19  33  50  74 102 133 168 205 246 295
#     4  10  19  32  48  69  96 128 164 202 245 294
#     4  10  19  31  48  74 106 137 170 205 248 297
#     4   9  19  34  51  73 100 131 167 207 250 295
#     4  10  20  33  50  73 100 130 163 201 247 296
#
# _framework density 17.90456
#
# number of rings (size 3 to 8) (size 9 to 14) (size 15 to 20)
#    0.000    2.462    0.000    2.769    1.077    3.385 
#    0.000    0.000    0.000    0.923    0.000    3.231 
#    0.000    0.000    0.000    0.000    0.000    0.000 
#
# Total GULP energy -644225.882077 kJ/mol
# GULP energy per Si atom -12388.959271 kJ/mol
# Density = 1.786381 g / cm^3
# Si number density = 17.904560 Si / 1000 Ang^3
#
#
#
# Elastic Constant Matrix: (Units=GPa)
#
#
# Indices 1 2 3 4 5 6 
#
# 1 71.1749 25.8533 32.1762 0.0000 0.0000 0.0000
# 2 25.8533 57.5444 19.2042 0.0000 0.0000 0.0000
# 3 32.1762 19.2042 84.0060 0.0000 0.0000 0.0000
# 4 0.0000 0.0000 0.0000 5.7115 0.0000 0.0000
# 5 0.0000 0.0000 0.0000 0.0000 28.8737 0.0000
# 6 0.0000 0.0000 0.0000 0.0000 0.0000 27.5471
#
#
#
# Elastic Compliance Matrix: (Units=1/GPa)
#
#
# Indices 1 2 3 4 5 6 
#
# 1 0.019079 -0.006639 -0.005790 0.000000 0.000000 0.000000
# 2 -0.006639 0.021124 -0.002286 0.000000 0.000000 0.000000
# 3 -0.005790 -0.002286 0.014644 0.000000 0.000000 0.000000
# 4 0.000000 0.000000 0.000000 0.175085 0.000000 0.000000
# 5 0.000000 0.000000 0.000000 0.000000 0.034634 0.000000
# 6 0.000000 0.000000 0.000000 0.000000 0.000000 0.036301
#
#
# Mechanical properties :
#
#
# Convention : Reuss Voigt Hill
#
# Bulk Modulus (GPa) = 39.34482 40.79921 40.07201
# Shear Modulus (GPa) = 14.75928 21.45924 18.10926
#
# Velocity S-wave (km/s) = 2.87423 3.46574 3.18375
# Velocity P-wave (km/s) = 5.74782 6.23311 5.99538
#
# Compressibility (1/GPa) = 0.02541631
#
# Stress axis : x y z
#
# Youngs Moduli (GPa) = 52.41355 47.34013 68.28669
#
# Poissons Ratio (x) = 0.31431 0.39537
# Poissons Ratio (y) = 0.34800 0.15610
# Poissons Ratio (z) = 0.30347 0.10822
#
# Static dielectric constant tensor:
#      x y z
#    x 3.457250 0.000000 0.000000 
#    y 0.000000 3.481750 0.000000 
#    z 0.000000 0.000000 3.277280 
# 
# 
# High freq. dielectric constant tensor:
#      x y z
#    x 1.702540 0.000000 0.000000 
#    y 0.000000 1.675110 0.000000 
#    z 0.000000 0.000000 1.679560 
# 
# From -- ./inp_files/39950.got.cif
#   From: 2010.03.12/outbox.cif.g09.slc.cpg/sg67_20_cif.got.tgz:39950.got - 2010.04.10 22:41:39.
