data_PCOD8278935
_publ_section_title
;
Structure prediction by ZEFSAII (Michael W. Deem and Ramdas Pophale) SiO2 
 PCOD8278935
Probable space group: C M M A
;
_chemical_formula_sum "Si O2"
_cell_formula_units_Z 112
_cell_length_a 19.628439
_cell_length_b 18.005217
_cell_length_c 17.767723
_cell_angle_alpha 90.000000
_cell_angle_beta 90.000000
_cell_angle_gamma 90.000000
_cell_volume 6279.367450
_symmetry_space_group_name_H-M "C M M A"
_symmetry_group_IT_number 67
_symmetry_cell_setting 'orthorhombic'
loop_
_space_group_symop_operation_xyz
x,y,z
-x,1/2-y,z
x,-y,-z
-x,1/2+y,-z
-x,-y,-z
x,1/2+y,-z
-x,y,z
x,1/2-y,z
1/2+x,1/2+y,z
1/2-x,-y,z
1/2+x,1/2-y,-z
1/2-x,y,-z
1/2-x,1/2-y,-z
1/2+x,y,-z
1/2-x,1/2+y,z
1/2+x,-y,z
loop_
_atom_site_type_symbol
_atom_site_label
_atom_site_fract_x
_atom_site_fract_y
_atom_site_fract_z
Si Si1 0.579131 0.976225 0.917859
Si Si2 0.818151 0.531629 0.804384
Si Si3 0.075119 0.337133 0.400511
Si Si4 0.578484 0.833672 0.828192
Si Si5 0.802615 0.837648 0.704975
Si Si6 0.339419 0.097982 0.306614
Si Si7 0.578341 0.072552 0.457209
O O1 0.500000 0.994983 0.909943
O O2 0.594773 0.889792 0.897656
O O3 0.617422 0.027916 0.858481
O O4 0.605657 0.000000 0.000000
O O5 0.750000 0.500000 0.845628
O O6 0.809477 0.618283 0.783767
O O7 0.827164 0.483340 0.728211
O O8 0.074381 0.250000 0.396327
O O9 0.135351 0.366561 0.347281
O O10 0.089119 0.358749 0.486664
O O11 0.000000 0.368424 0.375309
O O12 0.500000 0.841959 0.804270
O O13 0.594916 0.750000 0.855808
O O14 0.622524 0.851338 0.754756
O O15 0.805926 0.750000 0.720576
O O16 0.730417 0.861000 0.668903
O O17 0.382325 0.089267 0.381413
O O18 0.500000 0.060116 0.434819
O O19 0.607008 0.000000 0.500000
#
# Coordination Sequence:
#
# PCOD8278935 Si02
#       7
#    16  16  16  16  16  16  16
#     4   9  18  33  53  77 104 133 165 201 243 295
#     4   9  19  34  51  72  98 128 161 197 241 293
#     4   9  19  34  48  64  91 126 161 200 249 299
#     4   9  17  30  50  76 105 135 164 199 248 302
#     4  10  20  34  51  71  96 127 165 209 253 296
#     4  10  19  32  50  73  99 128 164 207 252 298
#     4  10  20  33  50  72  97 127 166 209 250 297
#
# _framework density 17.836192
#
# number of rings (size 3 to 8) (size 9 to 14) (size 15 to 20)
#    0.000    2.571    0.000    1.714    0.000    3.143 
#    0.000    4.286    0.000    0.857    0.000    6.000 
#    0.000    0.000    0.000    0.000    0.000    0.000 
#
# Total GULP energy -694172.432040 kJ/mol
# GULP energy per Si atom -12395.936286 kJ/mol
# Density = 1.779560 g / cm^3
# Si number density = 17.836192 Si / 1000 Ang^3
#
#
#
# Elastic Constant Matrix: (Units=GPa)
#
#
# Indices 1 2 3 4 5 6 
#
# 1 99.9823 43.9238 61.1919 0.0000 0.0000 0.0000
# 2 43.9238 84.3554 48.4397 0.0000 0.0000 0.0000
# 3 61.1919 48.4397 99.7110 0.0000 0.0000 0.0000
# 4 0.0000 0.0000 0.0000 19.3253 0.0000 0.0000
# 5 0.0000 0.0000 0.0000 0.0000 17.8800 0.0000
# 6 0.0000 0.0000 0.0000 0.0000 0.0000 24.1404
#
#
#
# Elastic Compliance Matrix: (Units=1/GPa)
#
#
# Indices 1 2 3 4 5 6 
#
# 1 0.016916 -0.003948 -0.008463 0.000000 0.000000 0.000000
# 2 -0.003948 0.017363 -0.006012 0.000000 0.000000 0.000000
# 3 -0.008463 -0.006012 0.018143 0.000000 0.000000 0.000000
# 4 0.000000 0.000000 0.000000 0.051746 0.000000 0.000000
# 5 0.000000 0.000000 0.000000 0.000000 0.055928 0.000000
# 6 0.000000 0.000000 0.000000 0.000000 0.000000 0.041424
#
#
# Mechanical properties :
#
#
# Convention : Reuss Voigt Hill
#
# Bulk Modulus (GPa) = 64.20334 65.68439 64.94387
# Shear Modulus (GPa) = 20.52897 20.96870 20.74884
#
# Velocity S-wave (km/s) = 3.39628 3.43246 3.41442
# Velocity P-wave (km/s) = 7.17313 7.25365 7.21351
#
# Compressibility (1/GPa) = 0.01557551
#
# Stress axis : x y z
#
# Youngs Moduli (GPa) = 59.11574 57.59495 55.11700
#
# Poissons Ratio (x) = 0.22740 0.46646
# Poissons Ratio (y) = 0.23341 0.33135
# Poissons Ratio (z) = 0.50030 0.34625
#
# Static dielectric constant tensor:
#      x y z
#    x 3.651010 0.000000 0.000000 
#    y 0.000000 3.366080 0.000000 
#    z 0.000000 0.000000 3.093510 
# 
# 
# High freq. dielectric constant tensor:
#      x y z
#    x 1.703960 0.000000 0.000000 
#    y 0.000000 1.693470 0.000000 
#    z 0.000000 0.000000 1.661030 
# 
# From -- ./inp_files/35087.got.cif
#   From: 2010.03.12/outbox.cif.g09.slc.cpg/sg67_18_cif.got.tgz:35087.got - 2010.04.10 22:41:39.
