data_PCOD8278538
_publ_section_title
;
Structure prediction by ZEFSAII (Michael W. Deem and Ramdas Pophale) SiO2 
 PCOD8278538
Probable space group: C M M A
;
_chemical_formula_sum "Si O2"
_cell_formula_units_Z 104
_cell_length_a 22.985080
_cell_length_b 29.235792
_cell_length_c 8.307909
_cell_angle_alpha 90.000000
_cell_angle_beta 90.000000
_cell_angle_gamma 90.000000
_cell_volume 5582.806995
_symmetry_space_group_name_H-M "C M M A"
_symmetry_group_IT_number 67
_symmetry_cell_setting 'orthorhombic'
loop_
_space_group_symop_operation_xyz
x,y,z
-x,1/2-y,z
x,-y,-z
-x,1/2+y,-z
-x,-y,-z
x,1/2+y,-z
-x,y,z
x,1/2-y,z
1/2+x,1/2+y,z
1/2-x,-y,z
1/2+x,1/2-y,-z
1/2-x,y,-z
1/2-x,1/2-y,-z
1/2+x,y,-z
1/2-x,1/2+y,z
1/2+x,-y,z
loop_
_atom_site_type_symbol
_atom_site_label
_atom_site_fract_x
_atom_site_fract_y
_atom_site_fract_z
Si Si1 0.184316 0.372753 0.497770
Si Si2 0.434649 0.966282 0.290791
Si Si3 0.590977 0.566808 0.635175
Si Si4 0.138469 0.109354 0.156302
Si Si5 0.172623 0.196497 0.755643
Si Si6 0.250000 0.140534 0.000000
Si Si7 0.434876 0.145991 0.123896
O O1 0.250000 0.390295 0.500000
O O2 0.154523 0.412030 0.606167
O O3 0.151984 0.366990 0.327301
O O4 0.181065 0.322519 0.575898
O O5 0.500000 0.968032 0.218041
O O6 0.440869 0.940411 0.463127
O O7 0.389230 0.940478 0.176862
O O8 0.406531 0.016467 0.290390
O O9 0.560113 0.601366 0.760025
O O10 0.200100 0.106752 0.065315
O O11 0.090779 0.136745 0.053676
O O12 0.183444 0.250000 0.758906
O O13 0.106289 0.185244 0.803834
O O14 0.221705 0.172962 0.865696
O O15 0.500000 0.165539 0.103534
#
# Coordination Sequence:
#
# PCOD8278538 Si02
#       7
#    16  16  16  16  16   8  16
#     4  10  19  37  57  78 113 147 184 232 282 333
#     4  10  18  33  56  82 110 142 194 241 269 324
#     4   9  19  33  55  83 108 148 189 227 284 327
#     4  10  21  34  55  79 109 148 186 230 277 332
#     4  10  21  36  60  86 107 138 182 228 279 340
#     4  10  19  38  56  79 114 144 178 225 279 344
#     4  10  20  36  57  80 114 149 180 226 285 337
#
# _framework density 18.628623000000001
#
# number of rings (size 3 to 8) (size 9 to 14) (size 15 to 20)
#    0.000    2.154    1.538    2.538    0.000    1.231 
#    0.000    9.231    3.385    0.000    0.000    0.000 
#    0.000    0.000    0.000    0.000    0.000    0.000 
#
# Total GULP energy -644299.938679 kJ/mol
# GULP energy per Si atom -12390.383436 kJ/mol
# Density = 1.858622 g / cm^3
# Si number density = 18.628623 Si / 1000 Ang^3
#
#
#
# Elastic Constant Matrix: (Units=GPa)
#
#
# Indices 1 2 3 4 5 6 
#
# 1 149.8892 52.8092 36.1466 0.0000 0.0000 0.0000
# 2 52.8092 102.5443 32.0225 0.0000 0.0000 0.0000
# 3 36.1466 32.0225 73.0404 0.0000 0.0000 0.0000
# 4 0.0000 0.0000 0.0000 17.8534 0.0000 0.0000
# 5 0.0000 0.0000 0.0000 0.0000 16.1378 0.0000
# 6 0.0000 0.0000 0.0000 0.0000 0.0000 13.9384
#
#
#
# Elastic Compliance Matrix: (Units=1/GPa)
#
#
# Indices 1 2 3 4 5 6 
#
# 1 0.008579 -0.003583 -0.002675 0.000000 0.000000 0.000000
# 2 -0.003583 0.012795 -0.003837 0.000000 0.000000 0.000000
# 3 -0.002675 -0.003837 0.016697 0.000000 0.000000 0.000000
# 4 0.000000 0.000000 0.000000 0.056012 0.000000 0.000000
# 5 0.000000 0.000000 0.000000 0.000000 0.061966 0.000000
# 6 0.000000 0.000000 0.000000 0.000000 0.000000 0.071744
#
#
# Mechanical properties :
#
#
# Convention : Reuss Voigt Hill
#
# Bulk Modulus (GPa) = 55.92064 63.04784 59.48424
# Shear Modulus (GPa) = 19.68953 23.21896 21.45424
#
# Velocity S-wave (km/s) = 3.25460 3.53429 3.39733
# Velocity P-wave (km/s) = 6.64884 7.11147 6.88404
#
# Compressibility (1/GPa) = 0.01788249
#
# Stress axis : x y z
#
# Youngs Moduli (GPa) = 116.56471 78.15523 59.89162
#
# Poissons Ratio (x) = 0.28001 0.16020
# Poissons Ratio (y) = 0.41762 0.22978
# Poissons Ratio (z) = 0.31179 0.29985
#
# Static dielectric constant tensor:
#      x y z
#    x 3.577940 0.000000 0.000000 
#    y 0.000000 3.165960 0.000000 
#    z 0.000000 0.000000 3.615260 
# 
# 
# High freq. dielectric constant tensor:
#      x y z
#    x 1.735710 0.000000 0.000000 
#    y 0.000000 1.694080 0.000000 
#    z 0.000000 0.000000 1.728600 
# 
# From -- ./inp_files/11729.got.cif
#   From: 2010.03.12/outbox.cif.g09.slc.cpg/sg67_6_cif.got.tgz:11729.got - 2010.04.10 22:41:39.
