data_PCOD8278109
_publ_section_title
;
Structure prediction by ZEFSAII (Michael W. Deem and Ramdas Pophale) SiO2 
 PCOD8278109
Probable space group: C M M A
;
_chemical_formula_sum "Si O2"
_cell_formula_units_Z 80
_cell_length_a 18.256354
_cell_length_b 8.658742
_cell_length_c 26.020739
_cell_angle_alpha 90.000000
_cell_angle_beta 90.000000
_cell_angle_gamma 90.000000
_cell_volume 4113.281898
_symmetry_space_group_name_H-M "C M M A"
_symmetry_group_IT_number 67
_symmetry_cell_setting 'orthorhombic'
loop_
_space_group_symop_operation_xyz
x,y,z
-x,1/2-y,z
x,-y,-z
-x,1/2+y,-z
-x,-y,-z
x,1/2+y,-z
-x,y,z
x,1/2-y,z
1/2+x,1/2+y,z
1/2-x,-y,z
1/2+x,1/2-y,-z
1/2-x,y,-z
1/2-x,1/2-y,-z
1/2+x,y,-z
1/2-x,1/2+y,z
1/2+x,-y,z
loop_
_atom_site_type_symbol
_atom_site_label
_atom_site_fract_x
_atom_site_fract_y
_atom_site_fract_z
Si Si1 0.083245 0.932969 0.553151
Si Si2 0.170147 0.067673 0.348704
Si Si3 0.414215 0.928486 0.247108
Si Si4 0.331459 0.933159 0.051175
Si Si5 0.829950 0.431264 0.844990
O O1 0.086594 0.750000 0.551030
O O2 0.132055 0.998287 0.599840
O O3 0.000000 0.990400 0.561473
O O4 0.115220 0.000000 0.500000
O O5 0.175484 0.250000 0.352014
O O6 0.121965 0.016541 0.300149
O O7 0.250000 0.000000 0.342281
O O8 0.500000 0.956580 0.252199
O O9 0.395815 0.750000 0.235256
O O10 0.383259 0.034528 0.202022
O O11 0.331665 0.750000 0.049130
O O12 0.250000 0.000000 0.051931
O O13 0.367598 0.992994 0.104120
O O14 0.371899 0.000000 0.000000
O O15 0.821800 0.250000 0.853687
O O16 0.750000 0.500000 0.833214
#
# Coordination Sequence:
#
# PCOD8278109 Si02
#       5
#    16  16  16  16  16
#     4   9  18  34  55  78 105 139 178 217 259 310
#     4  10  21  36  55  79 107 139 175 218 266 317
#     4  10  21  38  58  78 103 138 178 220 270 326
#     4  10  17  28  47  74 107 141 178 219 266 316
#     4  11  21  34  53  79 110 142 179 222 268 317
#
# _framework density 19.449190000000002
#
# number of rings (size 3 to 8) (size 9 to 14) (size 15 to 20)
#    0.000    2.000    0.000    6.600    0.000    6.400 
#    0.000    2.000    0.000    4.200    0.000    0.000 
#    0.000    0.000    0.000    0.000    0.000    0.000 
#
# Total GULP energy -496004.459829 kJ/mol
# GULP energy per Si atom -12400.111496 kJ/mol
# Density = 1.940492 g / cm^3
# Si number density = 19.449190 Si / 1000 Ang^3
#
#
#
# Elastic Constant Matrix: (Units=GPa)
#
#
# Indices 1 2 3 4 5 6 
#
# 1 86.4445 30.4932 63.4138 0.0000 0.0000 0.0000
# 2 30.4932 103.4850 58.1914 0.0000 0.0000 0.0000
# 3 63.4138 58.1914 187.5616 0.0000 0.0000 0.0000
# 4 0.0000 0.0000 0.0000 34.2764 0.0000 0.0000
# 5 0.0000 0.0000 0.0000 0.0000 28.5456 0.0000
# 6 0.0000 0.0000 0.0000 0.0000 0.0000 23.3302
#
#
#
# Elastic Compliance Matrix: (Units=1/GPa)
#
#
# Indices 1 2 3 4 5 6 
#
# 1 0.015715 -0.001990 -0.004696 0.000000 0.000000 0.000000
# 2 -0.001990 0.011957 -0.003037 0.000000 0.000000 0.000000
# 3 -0.004696 -0.003037 0.007861 0.000000 0.000000 0.000000
# 4 0.000000 0.000000 0.000000 0.029175 0.000000 0.000000
# 5 0.000000 0.000000 0.000000 0.000000 0.035032 0.000000
# 6 0.000000 0.000000 0.000000 0.000000 0.000000 0.042863
#
#
# Mechanical properties :
#
#
# Convention : Reuss Voigt Hill
#
# Bulk Modulus (GPa) = 62.15781 75.74310 68.95046
# Shear Modulus (GPa) = 29.86667 32.25664 31.06165
#
# Velocity S-wave (km/s) = 3.92296 4.07690 4.00067
# Velocity P-wave (km/s) = 7.24899 7.82241 7.54115
#
# Compressibility (1/GPa) = 0.01608808
#
# Stress axis : x y z
#
# Youngs Moduli (GPa) = 63.63446 83.63039 127.20404
#
# Poissons Ratio (x) = 0.16643 0.59731
# Poissons Ratio (y) = 0.12664 0.38631
# Poissons Ratio (z) = 0.29881 0.25398
#
# Static dielectric constant tensor:
#      x y z
#    x 3.138290 0.000000 0.000000 
#    y 0.000000 3.196460 0.000000 
#    z 0.000000 0.000000 4.334510 
# 
# 
# High freq. dielectric constant tensor:
#      x y z
#    x 1.724270 0.000000 0.000000 
#    y 0.000000 1.753860 0.000000 
#    z 0.000000 0.000000 1.784560 
# 
# From -- ./inp_files/44414.got.cif
#   From: 2010.03.12/outbox.cif.g09.slc.cpg/sg67_23_cif.got.tgz:44414.got - 2010.04.10 22:41:39.
