data_PCOD8278688
_publ_section_title
;
Structure prediction by ZEFSAII (Michael W. Deem and Ramdas Pophale) SiO2 
 PCOD8278688
Probable space group: C M M A
;
_chemical_formula_sum "Si O2"
_cell_formula_units_Z 88
_cell_length_a 16.214298
_cell_length_b 9.688816
_cell_length_c 29.796248
_cell_angle_alpha 90.000000
_cell_angle_beta 90.000000
_cell_angle_gamma 90.000000
_cell_volume 4680.911598
_symmetry_space_group_name_H-M "C M M A"
_symmetry_group_IT_number 67
_symmetry_cell_setting 'orthorhombic'
loop_
_space_group_symop_operation_xyz
x,y,z
-x,1/2-y,z
x,-y,-z
-x,1/2+y,-z
-x,-y,-z
x,1/2+y,-z
-x,y,z
x,1/2-y,z
1/2+x,1/2+y,z
1/2-x,-y,z
1/2+x,1/2-y,-z
1/2-x,y,-z
1/2-x,1/2-y,-z
1/2+x,y,-z
1/2-x,1/2+y,z
1/2+x,-y,z
loop_
_atom_site_type_symbol
_atom_site_label
_atom_site_fract_x
_atom_site_fract_y
_atom_site_fract_z
Si Si1 0.171335 0.912057 0.595405
Si Si2 0.401329 0.095834 0.960815
Si Si3 0.000000 0.589830 0.544199
Si Si4 0.088814 0.411059 0.317270
Si Si5 0.325787 0.910387 0.226698
Si Si6 0.591062 0.085898 0.863037
O O1 0.193563 0.750000 0.590925
O O2 0.157312 0.962583 0.647182
O O3 0.084647 0.945690 0.570748
O O4 0.250000 0.000000 0.576703
O O5 0.500000 0.093604 0.960798
O O6 0.369026 0.250000 0.970151
O O7 0.370877 0.042911 0.911624
O O8 0.364360 0.000000 0.000000
O O9 0.000000 0.500000 0.500000
O O10 0.000000 0.750000 0.531056
O O11 0.080424 0.250000 0.326801
O O12 0.107542 0.437915 0.265118
O O13 0.000000 0.481511 0.326721
O O14 0.301616 0.750000 0.223553
O O15 0.355352 0.968693 0.178465
O O16 0.250000 0.000000 0.242413
O O17 0.500000 0.021521 0.857943
O O18 0.584434 0.250000 0.860928
#
# Coordination Sequence:
#
# PCOD8278688 Si02
#       6
#    16  16   8  16  16  16
#     4  10  20  36  58  84 114 147 184 228 275 322
#     4   8  13  22  38  60  84 107 138 185 235 281
#     4  10  22  40  60  82 114 152 190 232 275 322
#     4   9  16  30  54  79 102 133 174 213 251 304
#     4  10  19  30  47  70  96 126 160 198 242 294
#     4   8  14  26  44  65  87 115 154 194 230 278
#
# _framework density 18.799758000000001
#
# number of rings (size 3 to 8) (size 9 to 14) (size 15 to 20)
#    0.000    2.909    0.909    2.182    0.000    3.273 
#    0.000    2.727    0.000    4.909    0.000    3.818 
#    0.000    0.000    0.000    0.000    0.000    0.000 
#
# Total GULP energy -545091.622029 kJ/mol
# GULP energy per Si atom -12388.445955 kJ/mol
# Density = 1.875697 g / cm^3
# Si number density = 18.799758 Si / 1000 Ang^3
#
#
#
# Elastic Constant Matrix: (Units=GPa)
#
#
# Indices 1 2 3 4 5 6 
#
# 1 99.7682 39.9071 36.0570 0.0000 0.0000 0.0000
# 2 39.9071 48.7731 44.4508 0.0000 0.0000 0.0000
# 3 36.0570 44.4508 123.3468 0.0000 0.0000 0.0000
# 4 0.0000 0.0000 0.0000 25.0811 0.0000 0.0000
# 5 0.0000 0.0000 0.0000 0.0000 -28.6850 0.0000
# 6 0.0000 0.0000 0.0000 0.0000 0.0000 22.1026
#
#
#
# Elastic Compliance Matrix: (Units=1/GPa)
#
#
# Indices 1 2 3 4 5 6 
#
# 1 0.014900 -0.012243 0.000056 0.000000 0.000000 0.000000
# 2 -0.012243 0.040590 -0.011049 0.000000 0.000000 0.000000
# 3 0.000056 -0.011049 0.012072 0.000000 0.000000 0.000000
# 4 0.000000 0.000000 0.000000 0.039871 0.000000 0.000000
# 5 0.000000 0.000000 0.000000 0.000000 -0.034861 0.000000
# 6 0.000000 0.000000 0.000000 0.000000 0.000000 0.045244
#
#
# Mechanical properties :
#
#
# Convention : Reuss Voigt Hill
#
# Bulk Modulus (GPa) = 47.41113 56.96866 52.18990
# Shear Modulus (GPa) = 29.18583 13.79795 21.49189
#
# Velocity S-wave (km/s) = 3.94440 2.71208 3.38479
# Velocity P-wave (km/s) = 6.78367 6.33844 6.56483
#
# Compressibility (1/GPa) = 0.02109209
#
# Stress axis : x y z
#
# Youngs Moduli (GPa) = 67.11420 24.63663 82.83382
#
# Poissons Ratio (x) = 0.30162 -0.00467
# Poissons Ratio (y) = 0.82167 0.91520
# Poissons Ratio (z) = -0.00378 0.27220
#
# Static dielectric constant tensor:
#      x y z
#    x 2.915500 0.000000 0.000000 
#    y 0.000000 3.090170 0.000000 
#    z 0.000000 0.000000 3.740940 
# 
# 
# High freq. dielectric constant tensor:
#      x y z
#    x 1.714830 0.000000 0.000000 
#    y 0.000000 1.681600 0.000000 
#    z 0.000000 0.000000 1.746810 
# 
# From -- ./inp_files/45759.got.cif
#   From: 2010.03.12/outbox.cif.g09.slc.cpg/sg67_23_cif.got.tgz:45759.got - 2010.04.10 22:41:39.
