data_PCOD8278141
_publ_section_title
;
Structure prediction by ZEFSAII (Michael W. Deem and Ramdas Pophale) SiO2 
 PCOD8278141
Probable space group: C M M A
;
_chemical_formula_sum "Si O2"
_cell_formula_units_Z 96
_cell_length_a 17.979894
_cell_length_b 23.089847
_cell_length_c 12.895870
_cell_angle_alpha 90.000000
_cell_angle_beta 90.000000
_cell_angle_gamma 90.000000
_cell_volume 5353.759138
_symmetry_space_group_name_H-M "C M M A"
_symmetry_group_IT_number 67
_symmetry_cell_setting 'orthorhombic'
loop_
_space_group_symop_operation_xyz
x,y,z
-x,1/2-y,z
x,-y,-z
-x,1/2+y,-z
-x,-y,-z
x,1/2+y,-z
-x,y,z
x,1/2-y,z
1/2+x,1/2+y,z
1/2-x,-y,z
1/2+x,1/2-y,-z
1/2-x,y,-z
1/2-x,1/2-y,-z
1/2+x,y,-z
1/2-x,1/2+y,z
1/2+x,-y,z
loop_
_atom_site_type_symbol
_atom_site_label
_atom_site_fract_x
_atom_site_fract_y
_atom_site_fract_z
Si Si1 0.772754 0.933572 0.888621
Si Si2 0.212155 0.349332 0.733768
Si Si3 0.296713 0.750000 0.895037
Si Si4 0.085264 0.366914 0.162557
Si Si5 0.359633 0.317958 0.633590
Si Si6 0.085522 0.181924 0.591041
Si Si7 0.086556 0.750000 0.951515
O O1 0.727267 0.910153 0.789308
O O2 0.860868 0.919692 0.872198
O O3 0.750000 0.000000 0.890852
O O4 0.750000 0.905972 0.000000
O O5 0.221199 0.305349 0.827738
O O6 0.272434 0.332616 0.645982
O O7 0.131501 0.350508 0.680830
O O8 0.250000 0.750000 0.000000
O O9 0.382459 0.750000 0.931378
O O10 0.092019 0.354918 0.285102
O O11 0.113302 0.307724 0.108036
O O12 0.000000 0.383070 0.134668
O O13 0.375862 0.250000 0.648829
O O14 0.385623 0.338478 0.520610
O O15 0.098338 0.250000 0.605785
O O16 0.000000 0.164363 0.604527
O O17 0.000000 0.750000 0.962230
#
# Coordination Sequence:
#
# PCOD8278141 Si02
#       7
#    16  16   8  16  16  16   8
#     4  10  22  40  58  76 102 140 190 233 268 311
#     4  11  20  33  53  76 106 140 180 220 268 324
#     4  12  20  30  48  75 103 138 172 211 267 326
#     4  10  19  33  55  84 112 138 176 226 277 323
#     4  10  17  30  52  80 110 144 174 215 259 322
#     4  10  20  32  48  77 115 146 172 208 261 327
#     4  10  20  30  47  79 114 140 165 211 280 342
#
# _framework density 17.931325999999999
#
# number of rings (size 3 to 8) (size 9 to 14) (size 15 to 20)
#    0.000    1.667    2.500    4.500    0.000    2.667 
#    0.000    3.333    0.000    8.000    0.000    5.833 
#    0.000    0.000    0.000    0.000    0.000    0.000 
#
# Total GULP energy -595087.920674 kJ/mol
# GULP energy per Si atom -12397.665014 kJ/mol
# Density = 1.789051 g / cm^3
# Si number density = 17.931326 Si / 1000 Ang^3
#
#
#
# Elastic Constant Matrix: (Units=GPa)
#
#
# Indices 1 2 3 4 5 6 
#
# 1 127.4349 44.0248 74.7459 0.0000 0.0000 0.0000
# 2 44.0248 62.2517 22.8824 0.0000 0.0000 0.0000
# 3 74.7459 22.8824 87.3905 0.0000 0.0000 0.0000
# 4 0.0000 0.0000 0.0000 21.5876 0.0000 0.0000
# 5 0.0000 0.0000 0.0000 0.0000 31.4961 0.0000
# 6 0.0000 0.0000 0.0000 0.0000 0.0000 22.8128
#
#
#
# Elastic Compliance Matrix: (Units=1/GPa)
#
#
# Indices 1 2 3 4 5 6 
#
# 1 0.018912 -0.008220 -0.014024 0.000000 0.000000 0.000000
# 2 -0.008220 0.021347 0.001441 0.000000 0.000000 0.000000
# 3 -0.014024 0.001441 0.023060 0.000000 0.000000 0.000000
# 4 0.000000 0.000000 0.000000 0.046323 0.000000 0.000000
# 5 0.000000 0.000000 0.000000 0.000000 0.031750 0.000000
# 6 0.000000 0.000000 0.000000 0.000000 0.000000 0.043835
#
#
# Mechanical properties :
#
#
# Convention : Reuss Voigt Hill
#
# Bulk Modulus (GPa) = 46.05178 62.26482 54.15830
# Shear Modulus (GPa) = 21.36104 24.20756 22.78430
#
# Velocity S-wave (km/s) = 3.45522 3.67824 3.56847
# Velocity P-wave (km/s) = 6.45416 7.26902 6.87368
#
# Compressibility (1/GPa) = 0.02171468
#
# Stress axis : x y z
#
# Youngs Moduli (GPa) = 52.87549 46.84400 43.36516
#
# Poissons Ratio (x) = 0.38507 0.60813
# Poissons Ratio (y) = 0.43465 -0.06250
# Poissons Ratio (z) = 0.74150 -0.06751
#
# Static dielectric constant tensor:
#      x y z
#    x 3.492920 0.000000 0.000000 
#    y 0.000000 2.845980 0.000000 
#    z 0.000000 0.000000 3.588290 
# 
# 
# High freq. dielectric constant tensor:
#      x y z
#    x 1.703900 0.000000 0.000000 
#    y 0.000000 1.647290 0.000000 
#    z 0.000000 0.000000 1.705490 
# 
# From -- ./inp_files/19719.got.cif
#   From: 2010.03.12/outbox.cif.g09.slc.cpg/sg67_10_cif.got.tgz:19719.got - 2010.04.10 22:41:39.
