data_PCOD8278620
_publ_section_title
;
Structure prediction by ZEFSAII (Michael W. Deem and Ramdas Pophale) SiO2 
 PCOD8278620
Probable space group: C M M A
;
_chemical_formula_sum "Si O2"
_cell_formula_units_Z 96
_cell_length_a 27.034866
_cell_length_b 8.917429
_cell_length_c 24.067418
_cell_angle_alpha 90.000000
_cell_angle_beta 90.000000
_cell_angle_gamma 90.000000
_cell_volume 5802.209186
_symmetry_space_group_name_H-M "C M M A"
_symmetry_group_IT_number 67
_symmetry_cell_setting 'orthorhombic'
loop_
_space_group_symop_operation_xyz
x,y,z
-x,1/2-y,z
x,-y,-z
-x,1/2+y,-z
-x,-y,-z
x,1/2+y,-z
-x,y,z
x,1/2-y,z
1/2+x,1/2+y,z
1/2-x,-y,z
1/2+x,1/2-y,-z
1/2-x,y,-z
1/2-x,1/2-y,-z
1/2+x,y,-z
1/2-x,1/2+y,z
1/2+x,-y,z
loop_
_atom_site_type_symbol
_atom_site_label
_atom_site_fract_x
_atom_site_fract_y
_atom_site_fract_z
Si Si1 0.358789 0.072059 0.273176
Si Si2 0.196578 0.424975 0.174841
Si Si3 0.056830 0.577287 0.662871
Si Si4 0.199191 0.076182 0.618877
Si Si5 0.399278 0.572883 0.558395
Si Si6 0.197078 0.576900 0.948272
O O1 0.364221 0.250000 0.268882
O O2 0.318814 0.025301 0.320035
O O3 0.342347 0.003716 0.214934
O O4 0.411708 0.003199 0.289076
O O5 0.202333 0.250000 0.189536
O O6 0.250000 0.500000 0.181447
O O7 0.173506 0.446507 0.112810
O O8 0.073333 0.750000 0.657369
O O9 0.064291 0.495925 0.604023
O O10 0.000000 0.563354 0.680620
O O11 0.209904 0.250000 0.618852
O O12 0.157342 0.033517 0.574077
O O13 0.250000 0.000000 0.601429
O O14 0.412846 0.500000 0.500000
O O15 0.407958 0.750000 0.556248
O O16 0.203074 0.750000 0.962360
O O17 0.250000 0.500000 0.945731
O O18 0.166877 0.500000 0.000000
#
# Coordination Sequence:
#
# PCOD8278620 Si02
#       6
#    16  16  16  16  16  16
#     4  10  20  33  49  70  95 123 156 193 233 278
#     4  10  19  29  43  66  96 130 166 201 236 275
#     4  10  21  37  56  75  94 118 147 184 235 287
#     4   9  19  32  46  66  91 121 154 186 222 264
#     4  10  21  36  52  72  96 121 153 189 226 273
#     4   9  16  25  38  57  85 123 164 202 236 270
#
# _framework density 16.545421999999999
#
# number of rings (size 3 to 8) (size 9 to 14) (size 15 to 20)
#    0.000    2.333    0.000    4.500    0.000    9.333 
#    0.000    1.667    0.000    0.000    0.000    0.000 
#    0.000    0.667    0.000    2.167    0.000    3.000 
#
# Total GULP energy -595066.578831 kJ/mol
# GULP energy per Si atom -12397.220392 kJ/mol
# Density = 1.650776 g / cm^3
# Si number density = 16.545422 Si / 1000 Ang^3
#
#
#
# Elastic Constant Matrix: (Units=GPa)
#
#
# Indices 1 2 3 4 5 6 
#
# 1 66.5875 38.5809 33.8858 0.0000 0.0000 0.0000
# 2 38.5809 111.9124 58.4288 0.0000 0.0000 0.0000
# 3 33.8858 58.4288 123.5805 0.0000 0.0000 0.0000
# 4 0.0000 0.0000 0.0000 31.1339 0.0000 0.0000
# 5 0.0000 0.0000 0.0000 0.0000 16.3565 0.0000
# 6 0.0000 0.0000 0.0000 0.0000 0.0000 24.7022
#
#
#
# Elastic Compliance Matrix: (Units=1/GPa)
#
#
# Indices 1 2 3 4 5 6 
#
# 1 0.019509 -0.005222 -0.002881 0.000000 0.000000 0.000000
# 2 -0.005222 0.013262 -0.004838 0.000000 0.000000 0.000000
# 3 -0.002881 -0.004838 0.011169 0.000000 0.000000 0.000000
# 4 0.000000 0.000000 0.000000 0.032119 0.000000 0.000000
# 5 0.000000 0.000000 0.000000 0.000000 0.061138 0.000000
# 6 0.000000 0.000000 0.000000 0.000000 0.000000 0.040482
#
#
# Mechanical properties :
#
#
# Convention : Reuss Voigt Hill
#
# Bulk Modulus (GPa) = 55.37416 62.65239 59.01328
# Shear Modulus (GPa) = 23.85714 25.85084 24.85399
#
# Velocity S-wave (km/s) = 3.80138 3.95703 3.87998
# Velocity P-wave (km/s) = 7.26691 7.66985 7.47109
#
# Compressibility (1/GPa) = 0.01805896
#
# Stress axis : x y z
#
# Youngs Moduli (GPa) = 51.25777 75.40464 89.53078
#
# Poissons Ratio (x) = 0.39374 0.25790
# Poissons Ratio (y) = 0.26765 0.43318
# Poissons Ratio (z) = 0.14765 0.36484
#
# Static dielectric constant tensor:
#      x y z
#    x 2.809420 0.000000 0.000000 
#    y 0.000000 3.276530 0.000000 
#    z 0.000000 0.000000 3.635370 
# 
# 
# High freq. dielectric constant tensor:
#      x y z
#    x 1.596250 0.000000 0.000000 
#    y 0.000000 1.657870 0.000000 
#    z 0.000000 0.000000 1.640020 
# 
# From -- ./inp_files/40792.got.cif
#   From: 2010.03.12/outbox.cif.g09.slc.cpg/sg67_21_cif.got.tgz:40792.got - 2010.04.10 22:41:39.
