data_PCOD8278328
_publ_section_title
;
Structure prediction by ZEFSAII (Michael W. Deem and Ramdas Pophale) SiO2 
 PCOD8278328
Probable space group: C M M A
;
_chemical_formula_sum "Si O2"
_cell_formula_units_Z 112
_cell_length_a 22.433886
_cell_length_b 23.221273
_cell_length_c 11.532864
_cell_angle_alpha 90.000000
_cell_angle_beta 90.000000
_cell_angle_gamma 90.000000
_cell_volume 6007.969283
_symmetry_space_group_name_H-M "C M M A"
_symmetry_group_IT_number 67
_symmetry_cell_setting 'orthorhombic'
loop_
_space_group_symop_operation_xyz
x,y,z
-x,1/2-y,z
x,-y,-z
-x,1/2+y,-z
-x,-y,-z
x,1/2+y,-z
-x,y,z
x,1/2-y,z
1/2+x,1/2+y,z
1/2-x,-y,z
1/2+x,1/2-y,-z
1/2-x,y,-z
1/2-x,1/2-y,-z
1/2+x,y,-z
1/2-x,1/2+y,z
1/2+x,-y,z
loop_
_atom_site_type_symbol
_atom_site_label
_atom_site_fract_x
_atom_site_fract_y
_atom_site_fract_z
Si Si1 0.567936 0.522791 0.216393
Si Si2 0.431501 0.605065 0.427564
Si Si3 0.621678 0.316392 0.157850
Si Si4 0.429871 0.592482 0.686948
Si Si5 0.430386 0.626340 0.065772
Si Si6 0.255287 0.815887 0.127250
Si Si7 0.368483 0.183566 0.738145
O O1 0.500000 0.515323 0.179338
O O2 0.573324 0.550752 0.343176
O O3 0.597740 0.459216 0.231771
O O4 0.594471 0.564254 0.114778
O O5 0.500000 0.627748 0.432215
O O6 0.408164 0.587128 0.554552
O O7 0.386539 0.654249 0.382665
O O8 0.601105 0.250000 0.142644
O O9 0.587448 0.344979 0.264857
O O10 0.691431 0.320145 0.189035
O O11 0.607861 0.352928 0.042855
O O12 0.500000 0.584586 0.690108
O O13 0.500000 0.623999 0.032091
O O14 0.421374 0.672245 0.169288
O O15 0.275568 0.750000 0.106595
O O16 0.306707 0.843429 0.208698
O O17 0.250000 0.845574 0.000000
O O18 0.360853 0.250000 0.710096
#
# Coordination Sequence:
#
# PCOD8278328 Si02
#       7
#    16  16  16  16  16  16  16
#     4   8  16  32  53  76  99 129 174 218 252 297
#     4   9  18  32  52  78 105 135 171 216 266 310
#     4  11  22  34  49  74 107 140 174 209 258 319
#     4  10  20  34  52  74 105 142 172 205 259 322
#     4  10  19  30  49  78 107 133 165 213 266 310
#     4   9  17  33  53  71  95 134 177 215 251 296
#     4  10  18  30  51  77 101 131 175 220 261 306
#
# _framework density 18.641905999999999
#
# number of rings (size 3 to 8) (size 9 to 14) (size 15 to 20)
#    0.000    2.429    1.429    2.571    0.000    5.714 
#    0.000    4.286    0.000    6.000    0.000    4.000 
#    0.000    0.000    0.000    0.000    0.000    0.000 
#
# Total GULP energy -693882.351193 kJ/mol
# GULP energy per Si atom -12390.756271 kJ/mol
# Density = 1.859948 g / cm^3
# Si number density = 18.641906 Si / 1000 Ang^3
#
#
#
# Elastic Constant Matrix: (Units=GPa)
#
#
# Indices 1 2 3 4 5 6 
#
# 1 47.9987 38.7876 26.4477 0.0000 0.0000 0.0000
# 2 38.7876 94.1424 47.3142 0.0000 0.0000 0.0000
# 3 26.4477 47.3142 69.6893 0.0000 0.0000 0.0000
# 4 0.0000 0.0000 0.0000 22.8649 0.0000 0.0000
# 5 0.0000 0.0000 0.0000 0.0000 23.5008 0.0000
# 6 0.0000 0.0000 0.0000 0.0000 0.0000 8.0969
#
#
#
# Elastic Compliance Matrix: (Units=1/GPa)
#
#
# Indices 1 2 3 4 5 6 
#
# 1 0.032295 -0.010847 -0.004892 0.000000 0.000000 0.000000
# 2 -0.010847 0.019768 -0.009304 0.000000 0.000000 0.000000
# 3 -0.004892 -0.009304 0.022523 0.000000 0.000000 0.000000
# 4 0.000000 0.000000 0.000000 0.043735 0.000000 0.000000
# 5 0.000000 0.000000 0.000000 0.000000 0.042552 0.000000
# 6 0.000000 0.000000 0.000000 0.000000 0.000000 0.123504
#
#
# Mechanical properties :
#
#
# Convention : Reuss Voigt Hill
#
# Bulk Modulus (GPa) = 40.81811 48.54772 44.68292
# Shear Modulus (GPa) = 14.59306 17.51125 16.05215
#
# Velocity S-wave (km/s) = 2.80091 3.06820 2.93760
# Velocity P-wave (km/s) = 5.69241 6.21696 5.96046
#
# Compressibility (1/GPa) = 0.02449893
#
# Stress axis : x y z
#
# Youngs Moduli (GPa) = 30.96459 50.58804 44.39973
#
# Poissons Ratio (x) = 0.54875 0.21719
# Poissons Ratio (y) = 0.33589 0.41310
# Poissons Ratio (z) = 0.15147 0.47068
#
# Static dielectric constant tensor:
#      x y z
#    x 3.269470 0.000000 0.000000 
#    y 0.000000 3.509910 0.000000 
#    z 0.000000 0.000000 3.438720 
# 
# 
# High freq. dielectric constant tensor:
#      x y z
#    x 1.691240 0.000000 0.000000 
#    y 0.000000 1.712110 0.000000 
#    z 0.000000 0.000000 1.719990 
# 
# From -- ./inp_files/21117.got.cif
#   From: 2010.03.12/outbox.cif.g09.slc.cpg/sg67_11_cif.got.tgz:21117.got - 2010.04.10 22:41:39.
