data_PCOD8278893
_publ_section_title
;
Structure prediction by ZEFSAII (Michael W. Deem and Ramdas Pophale) SiO2 
 PCOD8278893
Probable space group: C M M A
;
_chemical_formula_sum "Si O2"
_cell_formula_units_Z 96
_cell_length_a 27.559259
_cell_length_b 8.742883
_cell_length_c 24.409676
_cell_angle_alpha 90.000000
_cell_angle_beta 90.000000
_cell_angle_gamma 90.000000
_cell_volume 5881.447406
_symmetry_space_group_name_H-M "C M M A"
_symmetry_group_IT_number 67
_symmetry_cell_setting 'orthorhombic'
loop_
_space_group_symop_operation_xyz
x,y,z
-x,1/2-y,z
x,-y,-z
-x,1/2+y,-z
-x,-y,-z
x,1/2+y,-z
-x,y,z
x,1/2-y,z
1/2+x,1/2+y,z
1/2-x,-y,z
1/2+x,1/2-y,-z
1/2-x,y,-z
1/2-x,1/2-y,-z
1/2+x,y,-z
1/2-x,1/2+y,z
1/2+x,-y,z
loop_
_atom_site_type_symbol
_atom_site_label
_atom_site_fract_x
_atom_site_fract_y
_atom_site_fract_z
Si Si1 0.198049 0.568840 0.386350
Si Si2 0.696991 0.571220 0.947345
Si Si3 0.054914 0.570755 0.343334
Si Si4 0.855047 0.070043 0.722340
Si Si5 0.302869 0.930317 0.827685
Si Si6 0.392674 0.431098 0.557271
O O1 0.199082 0.750000 0.393256
O O2 0.250000 0.500000 0.400282
O O3 0.182534 0.519532 0.324954
O O4 0.159879 0.500323 0.429024
O O5 0.700599 0.750000 0.956698
O O6 0.750000 0.500000 0.946564
O O7 0.673753 0.532105 0.887731
O O8 0.668071 0.500000 0.000000
O O9 0.063314 0.750000 0.355704
O O10 0.090655 0.515660 0.294214
O O11 0.067297 0.478228 0.398011
O O12 0.000000 0.535916 0.325068
O O13 0.854969 0.250000 0.728391
O O14 0.838223 0.999710 0.780715
O O15 0.296651 0.750000 0.820869
O O16 0.250000 0.000000 0.820371
O O17 0.410655 0.500000 0.500000
O O18 0.388986 0.250000 0.553774
#
# Coordination Sequence:
#
# PCOD8278893 Si02
#       6
#    16  16  16  16  16  16
#     4  10  19  32  49  69  93 121 150 179 215 257
#     4   9  15  22  33  49  74 109 146 180 210 242
#     4   9  18  34  54  72  90 113 139 172 219 269
#     4   8  15  28  45  65  89 113 141 177 214 257
#     4   9  16  25  38  58  84 115 147 177 210 247
#     4  11  22  36  52  70  92 116 145 180 215 255
#
# _framework density 16.322512
#
# number of rings (size 3 to 8) (size 9 to 14) (size 15 to 20)
#    0.000    2.667    0.000    4.500    0.000    1.667 
#    0.000    5.000    0.000    0.000    0.000    0.000 
#    0.000    0.667    0.000    0.500    0.000    1.333 
#
# Total GULP energy -594825.901701 kJ/mol
# GULP energy per Si atom -12392.206285 kJ/mol
# Density = 1.628536 g / cm^3
# Si number density = 16.322512 Si / 1000 Ang^3
#
#
#
# Elastic Constant Matrix: (Units=GPa)
#
#
# Indices 1 2 3 4 5 6 
#
# 1 84.2509 22.1123 40.9373 0.0000 0.0000 0.0000
# 2 22.1123 65.1208 32.4051 0.0000 0.0000 0.0000
# 3 40.9373 32.4051 139.8283 0.0000 0.0000 0.0000
# 4 0.0000 0.0000 0.0000 13.7765 0.0000 0.0000
# 5 0.0000 0.0000 0.0000 0.0000 12.2897 0.0000
# 6 0.0000 0.0000 0.0000 0.0000 0.0000 17.6199
#
#
#
# Elastic Compliance Matrix: (Units=1/GPa)
#
#
# Indices 1 2 3 4 5 6 
#
# 1 0.014389 -0.003153 -0.003482 0.000000 0.000000 0.000000
# 2 -0.003153 0.018049 -0.003260 0.000000 0.000000 0.000000
# 3 -0.003482 -0.003260 0.008926 0.000000 0.000000 0.000000
# 4 0.000000 0.000000 0.000000 0.072587 0.000000 0.000000
# 5 0.000000 0.000000 0.000000 0.000000 0.081369 0.000000
# 6 0.000000 0.000000 0.000000 0.000000 0.000000 0.056754
#
#
# Mechanical properties :
#
#
# Convention : Reuss Voigt Hill
#
# Bulk Modulus (GPa) = 46.35075 53.34549 49.84812
# Shear Modulus (GPa) = 17.91761 21.65357 19.78559
#
# Velocity S-wave (km/s) = 3.31679 3.64621 3.48539
# Velocity P-wave (km/s) = 6.56708 7.10490 6.84128
#
# Compressibility (1/GPa) = 0.02157462
#
# Stress axis : x y z
#
# Youngs Moduli (GPa) = 69.49905 55.40528 112.02714
#
# Poissons Ratio (x) = 0.17470 0.39006
# Poissons Ratio (y) = 0.21914 0.36517
# Poissons Ratio (z) = 0.24198 0.18060
#
# Static dielectric constant tensor:
#      x y z
#    x 2.929760 0.000000 0.000000 
#    y 0.000000 3.026720 0.000000 
#    z 0.000000 0.000000 3.903190 
# 
# 
# High freq. dielectric constant tensor:
#      x y z
#    x 1.589030 0.000000 0.000000 
#    y 0.000000 1.624060 0.000000 
#    z 0.000000 0.000000 1.635250 
# 
# From -- ./inp_files/42702.got.cif
#   From: 2010.03.12/outbox.cif.g09.slc.cpg/sg67_22_cif.got.tgz:42702.got - 2010.04.10 22:41:39.
