data_PCOD8278194
_publ_section_title
;
Structure prediction by ZEFSAII (Michael W. Deem and Ramdas Pophale) SiO2 
 PCOD8278194
Probable space group: C M M A
;
_chemical_formula_sum "Si O2"
_cell_formula_units_Z 128
_cell_length_a 25.227803
_cell_length_b 16.348241
_cell_length_c 18.885324
_cell_angle_alpha 90.000000
_cell_angle_beta 90.000000
_cell_angle_gamma 90.000000
_cell_volume 7788.878018
_symmetry_space_group_name_H-M "C M M A"
_symmetry_group_IT_number 67
_symmetry_cell_setting 'orthorhombic'
loop_
_space_group_symop_operation_xyz
x,y,z
-x,1/2-y,z
x,-y,-z
-x,1/2+y,-z
-x,-y,-z
x,1/2+y,-z
-x,y,z
x,1/2-y,z
1/2+x,1/2+y,z
1/2-x,-y,z
1/2+x,1/2-y,-z
1/2-x,y,-z
1/2-x,1/2-y,-z
1/2+x,y,-z
1/2-x,1/2+y,z
1/2+x,-y,z
loop_
_atom_site_type_symbol
_atom_site_label
_atom_site_fract_x
_atom_site_fract_y
_atom_site_fract_z
Si Si1 0.437086 0.658946 0.080539
Si Si2 0.119018 0.526538 0.309842
Si Si3 0.160188 0.341277 0.507019
Si Si4 0.291546 0.072206 0.624052
Si Si5 0.937085 0.341007 0.920495
Si Si6 0.936778 0.500382 0.164465
Si Si7 0.941096 0.923470 0.448906
Si Si8 0.197504 0.840961 0.334526
O O1 0.500000 0.655602 0.081097
O O2 0.418903 0.750000 0.108226
O O3 0.415201 0.582771 0.126868
O O4 0.416233 0.646735 0.000495
O O5 0.155840 0.451461 0.333436
O O6 0.085036 0.498858 0.243423
O O7 0.078477 0.551365 0.371243
O O8 0.158133 0.601785 0.289576
O O9 0.168003 0.250000 0.478753
O O10 0.189673 0.399833 0.452902
O O11 0.097526 0.357687 0.514937
O O12 0.186849 0.355259 0.582481
O O13 0.260240 0.139010 0.672261
O O14 0.250000 0.000000 0.612066
O O15 0.918957 0.250000 0.892712
O O16 0.915182 0.416817 0.873788
O O17 0.000000 0.344422 0.919789
O O18 0.000000 0.500561 0.166360
O O19 0.000000 0.885375 0.441705
O O20 0.942303 0.000000 0.500000
O O21 0.185865 0.750000 0.308317
#
# Coordination Sequence:
#
# PCOD8278194 Si02
#       8
#    16  16  16  16  16  16  16  16
#     4   8  14  26  44  65  92 125 159 190 221 261
#     4  10  20  31  45  67  91 121 159 191 226 278
#     4  10  19  31  49  72  88 104 143 196 245 286
#     4  10  19  31  48  66  87 111 142 188 245 296
#     4   8  14  25  43  68  93 121 157 192 225 262
#     4  10  18  28  44  66  97 132 163 188 219 263
#     4  10  19  32  48  61  85 126 164 192 221 260
#     4   9  19  32  48  67  87 109 139 191 253 300
#
# _framework density 16.433689000000001
#
# number of rings (size 3 to 8) (size 9 to 14) (size 15 to 20)
#    0.000    2.625    1.250    2.250    0.000    5.750 
#    0.000    1.250    0.000    2.250    0.000    0.000 
#    0.000   18.000    0.000   29.250    0.000    2.250 
#
# Total GULP energy -793056.976646 kJ/mol
# GULP energy per Si atom -12391.515260 kJ/mol
# Density = 1.639628 g / cm^3
# Si number density = 16.433689 Si / 1000 Ang^3
#
#
#
# Elastic Constant Matrix: (Units=GPa)
#
#
# Indices 1 2 3 4 5 6 
#
# 1 53.0422 10.7319 11.7625 0.0000 0.0000 0.0000
# 2 10.7319 91.1914 32.8340 0.0000 0.0000 0.0000
# 3 11.7625 32.8340 58.0131 0.0000 0.0000 0.0000
# 4 0.0000 0.0000 0.0000 12.3638 0.0000 0.0000
# 5 0.0000 0.0000 0.0000 0.0000 18.0040 0.0000
# 6 0.0000 0.0000 0.0000 0.0000 0.0000 11.7479
#
#
#
# Elastic Compliance Matrix: (Units=1/GPa)
#
#
# Indices 1 2 3 4 5 6 
#
# 1 0.019830 -0.001113 -0.003391 0.000000 0.000000 0.000000
# 2 -0.001113 0.013835 -0.007605 0.000000 0.000000 0.000000
# 3 -0.003391 -0.007605 0.022229 0.000000 0.000000 0.000000
# 4 0.000000 0.000000 0.000000 0.080881 0.000000 0.000000
# 5 0.000000 0.000000 0.000000 0.000000 0.055543 0.000000
# 6 0.000000 0.000000 0.000000 0.000000 0.000000 0.085121
#
#
# Mechanical properties :
#
#
# Convention : Reuss Voigt Hill
#
# Bulk Modulus (GPa) = 31.56817 34.76705 33.16761
# Shear Modulus (GPa) = 16.01456 18.21769 17.11612
#
# Velocity S-wave (km/s) = 3.12508 3.33311 3.23077
# Velocity P-wave (km/s) = 5.68090 6.00123 5.84326
#
# Compressibility (1/GPa) = 0.03167747
#
# Stress axis : x y z
#
# Youngs Moduli (GPa) = 50.42864 72.28044 44.98620
#
# Poissons Ratio (x) = 0.08043 0.15254
# Poissons Ratio (y) = 0.05612 0.34210
# Poissons Ratio (z) = 0.17100 0.54967
#
# Static dielectric constant tensor:
#      x y z
#    x 3.112100 0.000000 0.000000 
#    y 0.000000 66.337170 0.000000 
#    z 0.000000 0.000000 2.810910 
# 
# 
# High freq. dielectric constant tensor:
#      x y z
#    x 1.604930 0.000000 0.000000 
#    y 0.000000 1.645160 0.000000 
#    z 0.000000 0.000000 1.602620 
# 
# From -- ./inp_files/35635.got.cif
#   From: 2010.03.12/outbox.cif.g09.slc.cpg/sg67_18_cif.got.tgz:35635.got - 2010.04.10 22:41:39.
