data_PCOD8278932
_publ_section_title
;
Structure prediction by ZEFSAII (Michael W. Deem and Ramdas Pophale) SiO2 
 PCOD8278932
Probable space group: C M M A
;
_chemical_formula_sum "Si O2"
_cell_formula_units_Z 88
_cell_length_a 28.065469
_cell_length_b 9.016853
_cell_length_c 19.012964
_cell_angle_alpha 90.000000
_cell_angle_beta 90.000000
_cell_angle_gamma 90.000000
_cell_volume 4811.462657
_symmetry_space_group_name_H-M "C M M A"
_symmetry_group_IT_number 67
_symmetry_cell_setting 'orthorhombic'
loop_
_space_group_symop_operation_xyz
x,y,z
-x,1/2-y,z
x,-y,-z
-x,1/2+y,-z
-x,-y,-z
x,1/2+y,-z
-x,y,z
x,1/2-y,z
1/2+x,1/2+y,z
1/2-x,-y,z
1/2+x,1/2-y,-z
1/2-x,y,-z
1/2-x,1/2-y,-z
1/2+x,y,-z
1/2-x,1/2+y,z
1/2+x,-y,z
loop_
_atom_site_type_symbol
_atom_site_label
_atom_site_fract_x
_atom_site_fract_y
_atom_site_fract_z
Si Si1 0.500000 0.917867 0.928716
Si Si2 0.896235 0.576709 0.075593
Si Si3 0.699431 0.076368 0.668547
Si Si4 0.375319 0.577824 0.572553
Si Si5 0.554747 0.920360 0.697517
Si Si6 0.628062 0.578486 0.207996
O O1 0.500000 0.750000 0.951982
O O2 0.449656 0.953005 0.890993
O O3 0.500000 0.000000 0.000000
O O4 0.884970 0.750000 0.066798
O O5 0.861756 0.505650 0.134182
O O6 0.888997 0.500000 0.000000
O O7 0.704751 0.250000 0.652233
O O8 0.673100 0.047991 0.742347
O O9 0.750000 0.000000 0.674679
O O10 0.670797 0.001060 0.605229
O O11 0.388643 0.500000 0.500000
O O12 0.363209 0.750000 0.560711
O O13 0.421258 0.556671 0.621730
O O14 0.500000 0.969825 0.691719
O O15 0.559345 0.750000 0.722205
O O16 0.580236 0.021137 0.755017
O O17 0.621121 0.750000 0.191205
#
# Coordination Sequence:
#
# PCOD8278932 Si02
#       6
#     8  16  16  16  16  16
#     4   8  16  28  42  64  94 130 169 206 245 290
#     4  10  19  32  50  73 104 141 179 219 262 309
#     4  10  21  38  59  81 106 134 171 216 265 320
#     4  10  20  35  55  80 110 141 175 216 261 309
#     4   9  19  35  53  74 104 144 185 219 255 303
#     4  10  21  35  52  78 107 137 174 218 265 315
#
# _framework density 18.289656999999998
#
# number of rings (size 3 to 8) (size 9 to 14) (size 15 to 20)
#    0.000    2.364    0.000    2.182    1.273    4.727 
#    0.000    1.818    0.000    0.545    0.000    3.818 
#    0.000    0.000    0.000    0.000    0.000    0.000 
#
# Total GULP energy -545435.695155 kJ/mol
# GULP energy per Si atom -12396.265799 kJ/mol
# Density = 1.824803 g / cm^3
# Si number density = 18.289657 Si / 1000 Ang^3
#
#
#
# Elastic Constant Matrix: (Units=GPa)
#
#
# Indices 1 2 3 4 5 6 
#
# 1 92.2575 39.2039 22.2396 0.0000 0.0000 0.0000
# 2 39.2039 109.2731 53.9932 0.0000 0.0000 0.0000
# 3 22.2396 53.9932 96.0350 0.0000 0.0000 0.0000
# 4 0.0000 0.0000 0.0000 38.2509 0.0000 0.0000
# 5 0.0000 0.0000 0.0000 0.0000 14.5483 0.0000
# 6 0.0000 0.0000 0.0000 0.0000 0.0000 25.7196
#
#
#
# Elastic Compliance Matrix: (Units=1/GPa)
#
#
# Indices 1 2 3 4 5 6 
#
# 1 0.012808 -0.004334 -0.000530 0.000000 0.000000 0.000000
# 2 -0.004334 0.014138 -0.006945 0.000000 0.000000 0.000000
# 3 -0.000530 -0.006945 0.014440 0.000000 0.000000 0.000000
# 4 0.000000 0.000000 0.000000 0.026143 0.000000 0.000000
# 5 0.000000 0.000000 0.000000 0.000000 0.068736 0.000000
# 6 0.000000 0.000000 0.000000 0.000000 0.000000 0.038881
#
#
# Mechanical properties :
#
#
# Convention : Reuss Voigt Hill
#
# Bulk Modulus (GPa) = 56.27533 58.71546 57.49539
# Shear Modulus (GPa) = 24.42757 27.84569 26.13663
#
# Velocity S-wave (km/s) = 3.65854 3.90613 3.78436
# Velocity P-wave (km/s) = 6.97727 7.24684 7.11333
#
# Compressibility (1/GPa) = 0.01776978
#
# Stress axis : x y z
#
# Youngs Moduli (GPa) = 78.07376 70.73265 69.25105
#
# Poissons Ratio (x) = 0.30652 0.03669
# Poissons Ratio (y) = 0.33833 0.48095
# Poissons Ratio (z) = 0.04136 0.49124
#
# Static dielectric constant tensor:
#      x y z
#    x 3.277830 0.000000 0.000000 
#    y 0.000000 3.492210 0.000000 
#    z 0.000000 0.000000 3.314680 
# 
# 
# High freq. dielectric constant tensor:
#      x y z
#    x 1.688910 0.000000 0.000000 
#    y 0.000000 1.723330 0.000000 
#    z 0.000000 0.000000 1.711430 
# 
# From -- ./inp_files/32397.got.cif
#   From: 2010.03.12/outbox.cif.g09.slc.cpg/sg67_17_cif.got.tgz:32397.got - 2010.04.10 22:41:39.
