data_PCOD8278944
_publ_section_title
;
Structure prediction by ZEFSAII (Michael W. Deem and Ramdas Pophale) SiO2 
 PCOD8278944
Probable space group: C M M A
;
_chemical_formula_sum "Si O2"
_cell_formula_units_Z 112
_cell_length_a 24.065816
_cell_length_b 14.856061
_cell_length_c 15.976769
_cell_angle_alpha 90.000000
_cell_angle_beta 90.000000
_cell_angle_gamma 90.000000
_cell_volume 5712.066066
_symmetry_space_group_name_H-M "C M M A"
_symmetry_group_IT_number 67
_symmetry_cell_setting 'orthorhombic'
loop_
_space_group_symop_operation_xyz
x,y,z
-x,1/2-y,z
x,-y,-z
-x,1/2+y,-z
-x,-y,-z
x,1/2+y,-z
-x,y,z
x,1/2-y,z
1/2+x,1/2+y,z
1/2-x,-y,z
1/2+x,1/2-y,-z
1/2-x,y,-z
1/2-x,1/2-y,-z
1/2+x,y,-z
1/2-x,1/2+y,z
1/2+x,-y,z
loop_
_atom_site_type_symbol
_atom_site_label
_atom_site_fract_x
_atom_site_fract_y
_atom_site_fract_z
Si Si1 0.662373 0.856762 0.034953
Si Si2 0.563289 0.010640 0.597396
Si Si3 0.654444 0.849311 0.851764
Si Si4 0.439836 0.143739 0.862909
Si Si5 0.874128 0.145927 0.296439
Si Si6 0.936603 0.645199 0.275165
Si Si7 0.231159 0.401098 0.193715
O O1 0.674243 0.750000 0.037919
O O2 0.599930 0.882506 0.061044
O O3 0.705483 0.900077 0.100116
O O4 0.666843 0.898297 0.941111
O O5 0.500000 0.044433 0.614333
O O6 0.609165 0.084150 0.625400
O O7 0.574097 0.000000 0.500000
O O8 0.572989 0.914182 0.641940
O O9 0.632603 0.750000 0.873638
O O10 0.605400 0.894023 0.796317
O O11 0.712462 0.842937 0.801824
O O12 0.500000 0.098854 0.877482
O O13 0.444767 0.250000 0.856672
O O14 0.414734 0.109279 0.775933
O O15 0.883835 0.250000 0.319970
O O16 0.810930 0.134933 0.264209
O O17 0.922784 0.750000 0.296289
O O18 0.000000 0.636035 0.242669
O O19 0.250000 0.500000 0.217871
#
# Coordination Sequence:
#
# PCOD8278944 Si02
#       7
#    16  16  16  16  16  16  16
#     4   9  18  30  45  71 105 139 182 232 273 319
#     4  10  21  37  59  87 115 143 177 220 275 337
#     4  10  19  32  51  72 100 141 185 228 274 326
#     4   8  14  26  45  70 103 141 176 214 265 320
#     4  10  20  35  56  83 113 144 183 230 279 333
#     4   9  19  36  56  79 109 145 185 228 276 337
#     4  11  21  33  51  74 104 143 185 231 278 326
#
# _framework density 19.607614999999999
#
# number of rings (size 3 to 8) (size 9 to 14) (size 15 to 20)
#    0.000    2.429    0.000    3.857    0.000    4.286 
#    0.000    4.286    0.000    3.857    0.000   14.000 
#    0.000    0.000    0.000    0.000    0.000    0.000 
#
# Total GULP energy -694021.665683 kJ/mol
# GULP energy per Si atom -12393.244030 kJ/mol
# Density = 1.956299 g / cm^3
# Si number density = 19.607615 Si / 1000 Ang^3
#
#
#
# Elastic Constant Matrix: (Units=GPa)
#
#
# Indices 1 2 3 4 5 6 
#
# 1 134.1526 18.8796 50.2162 0.0000 0.0000 0.0000
# 2 18.8796 63.4094 29.9548 0.0000 0.0000 0.0000
# 3 50.2162 29.9548 100.9224 0.0000 0.0000 0.0000
# 4 0.0000 0.0000 0.0000 27.1955 0.0000 0.0000
# 5 0.0000 0.0000 0.0000 0.0000 62.6579 0.0000
# 6 0.0000 0.0000 0.0000 0.0000 0.0000 26.6729
#
#
#
# Elastic Compliance Matrix: (Units=1/GPa)
#
#
# Indices 1 2 3 4 5 6 
#
# 1 0.009185 -0.000670 -0.004371 0.000000 0.000000 0.000000
# 2 -0.000670 0.018391 -0.005125 0.000000 0.000000 0.000000
# 3 -0.004371 -0.005125 0.013605 0.000000 0.000000 0.000000
# 4 0.000000 0.000000 0.000000 0.036771 0.000000 0.000000
# 5 0.000000 0.000000 0.000000 0.000000 0.015960 0.000000
# 6 0.000000 0.000000 0.000000 0.000000 0.000000 0.037491
#
#
# Mechanical properties :
#
#
# Convention : Reuss Voigt Hill
#
# Bulk Modulus (GPa) = 47.96630 55.17616 51.57123
# Shear Modulus (GPa) = 31.50903 36.60087 34.05495
#
# Velocity S-wave (km/s) = 4.01306 4.32518 4.17204
# Velocity P-wave (km/s) = 6.78153 7.29000 7.04036
#
# Compressibility (1/GPa) = 0.02084797
#
# Stress axis : x y z
#
# Youngs Moduli (GPa) = 108.87659 54.37377 73.50275
#
# Poissons Ratio (x) = 0.03641 0.32130
# Poissons Ratio (y) = 0.07291 0.37674
# Poissons Ratio (z) = 0.47593 0.27869
#
# Static dielectric constant tensor:
#      x y z
#    x 3.835510 0.000000 0.000000 
#    y 0.000000 3.418660 0.000000 
#    z 0.000000 0.000000 3.368050 
# 
# 
# High freq. dielectric constant tensor:
#      x y z
#    x 1.772200 0.000000 0.000000 
#    y 0.000000 1.756800 0.000000 
#    z 0.000000 0.000000 1.730820 
# 
# From -- ./inp_files/30178.got.cif
#   From: 2010.03.12/outbox.cif.g09.slc.cpg/sg67_16_cif.got.tgz:30178.got - 2010.04.10 22:41:39.
