data_PCOD8278390
_publ_section_title
;
Structure prediction by ZEFSAII (Michael W. Deem and Ramdas Pophale) SiO2 
 PCOD8278390
Probable space group: C M M A
;
_chemical_formula_sum "Si O2"
_cell_formula_units_Z 112
_cell_length_a 20.226619
_cell_length_b 16.899891
_cell_length_c 18.207882
_cell_angle_alpha 90.000000
_cell_angle_beta 90.000000
_cell_angle_gamma 90.000000
_cell_volume 6223.957632
_symmetry_space_group_name_H-M "C M M A"
_symmetry_group_IT_number 67
_symmetry_cell_setting 'orthorhombic'
loop_
_space_group_symop_operation_xyz
x,y,z
-x,1/2-y,z
x,-y,-z
-x,1/2+y,-z
-x,-y,-z
x,1/2+y,-z
-x,y,z
x,1/2-y,z
1/2+x,1/2+y,z
1/2-x,-y,z
1/2+x,1/2-y,-z
1/2-x,y,-z
1/2-x,1/2-y,-z
1/2+x,y,-z
1/2-x,1/2+y,z
1/2+x,-y,z
loop_
_atom_site_type_symbol
_atom_site_label
_atom_site_fract_x
_atom_site_fract_y
_atom_site_fract_z
Si Si1 0.180139 0.589997 0.528728
Si Si2 0.073845 0.164828 0.839935
Si Si3 0.146467 0.390678 0.705040
Si Si4 0.923086 0.493410 0.915733
Si Si5 0.319650 0.536023 0.201389
Si Si6 0.290397 0.657281 0.319159
Si Si7 0.574049 0.659059 0.570226
O O1 0.171953 0.500000 0.500000
O O2 0.250000 0.623833 0.500000
O O3 0.176900 0.603595 0.616572
O O4 0.120645 0.642246 0.498504
O O5 0.081189 0.250000 0.879450
O O6 0.122967 0.163825 0.771721
O O7 0.090049 0.098450 0.899247
O O8 0.000000 0.152297 0.808767
O O9 0.154955 0.479547 0.733717
O O10 0.212015 0.351971 0.671612
O O11 0.093290 0.394465 0.640019
O O12 0.873769 0.544398 0.863999
O O13 0.000000 0.518566 0.902442
O O14 0.902568 0.500000 0.000000
O O15 0.250000 0.500000 0.170898
O O16 0.310962 0.621997 0.239226
O O17 0.310794 0.750000 0.323912
O O18 0.500000 0.637023 0.546192
O O19 0.580188 0.750000 0.593977
#
# Coordination Sequence:
#
# PCOD8278390 Si02
#       7
#    16  16  16  16  16  16  16
#     4  11  23  37  56  74 102 143 187 231 275 328
#     4   9  16  27  46  75 106 131 161 209 266 317
#     4  10  18  31  51  74 102 135 169 212 270 327
#     4   9  18  34  55  78 106 143 183 217 260 323
#     4   9  20  35  54  79 108 137 173 219 264 320
#     4  11  21  34  55  78 103 139 184 226 272 329
#     4  11  22  34  50  76 106 133 170 223 277 327
#
# _framework density 17.994980999999999
#
# number of rings (size 3 to 8) (size 9 to 14) (size 15 to 20)
#    0.000    2.000    1.429    3.000    4.000    2.857 
#    0.000    1.429    0.000    2.143    0.000    6.000 
#    0.000    0.000    0.000    0.000    0.000    0.000 
#
# Total GULP energy -694179.041611 kJ/mol
# GULP energy per Si atom -12396.054314 kJ/mol
# Density = 1.795402 g / cm^3
# Si number density = 17.994981 Si / 1000 Ang^3
#
#
#
# Elastic Constant Matrix: (Units=GPa)
#
#
# Indices 1 2 3 4 5 6 
#
# 1 109.2482 30.7877 56.8769 0.0000 0.0000 0.0000
# 2 30.7877 75.1222 36.5918 0.0000 0.0000 0.0000
# 3 56.8769 36.5918 114.0290 0.0000 0.0000 0.0000
# 4 0.0000 0.0000 0.0000 16.8691 0.0000 0.0000
# 5 0.0000 0.0000 0.0000 0.0000 31.9752 0.0000
# 6 0.0000 0.0000 0.0000 0.0000 0.0000 22.4525
#
#
#
# Elastic Compliance Matrix: (Units=1/GPa)
#
#
# Indices 1 2 3 4 5 6 
#
# 1 0.012755 -0.002523 -0.005553 0.000000 0.000000 0.000000
# 2 -0.002523 0.016277 -0.003965 0.000000 0.000000 0.000000
# 3 -0.005553 -0.003965 0.012812 0.000000 0.000000 0.000000
# 4 0.000000 0.000000 0.000000 0.059280 0.000000 0.000000
# 5 0.000000 0.000000 0.000000 0.000000 0.031274 0.000000
# 6 0.000000 0.000000 0.000000 0.000000 0.000000 0.044538
#
#
# Mechanical properties :
#
#
# Convention : Reuss Voigt Hill
#
# Bulk Modulus (GPa) = 56.29667 60.76803 58.53235
# Shear Modulus (GPa) = 24.16180 25.86890 25.01535
#
# Velocity S-wave (km/s) = 3.66826 3.79563 3.73249
# Velocity P-wave (km/s) = 7.02097 7.28367 7.15353
#
# Compressibility (1/GPa) = 0.01776304
#
# Stress axis : x y z
#
# Youngs Moduli (GPa) = 78.39893 61.43684 78.05400
#
# Poissons Ratio (x) = 0.15500 0.43341
# Poissons Ratio (y) = 0.19779 0.30947
# Poissons Ratio (z) = 0.43532 0.24359
#
# Static dielectric constant tensor:
#      x y z
#    x 3.451430 0.000000 0.000000 
#    y 0.000000 3.253580 0.000000 
#    z 0.000000 0.000000 3.169970 
# 
# 
# High freq. dielectric constant tensor:
#      x y z
#    x 1.694870 0.000000 0.000000 
#    y 0.000000 1.687040 0.000000 
#    z 0.000000 0.000000 1.682190 
# 
# From -- ./inp_files/35079.got.cif
#   From: 2010.03.12/outbox.cif.g09.slc.cpg/sg67_18_cif.got.tgz:35079.got - 2010.04.10 22:41:39.
