data_PCOD8278771
_publ_section_title
;
Structure prediction by ZEFSAII (Michael W. Deem and Ramdas Pophale) SiO2 
 PCOD8278771
Probable space group: C M M A
;
_chemical_formula_sum "Si O2"
_cell_formula_units_Z 112
_cell_length_a 24.346420
_cell_length_b 17.419393
_cell_length_c 15.229262
_cell_angle_alpha 90.000000
_cell_angle_beta 90.000000
_cell_angle_gamma 90.000000
_cell_volume 6458.727854
_symmetry_space_group_name_H-M "C M M A"
_symmetry_group_IT_number 67
_symmetry_cell_setting 'orthorhombic'
loop_
_space_group_symop_operation_xyz
x,y,z
-x,1/2-y,z
x,-y,-z
-x,1/2+y,-z
-x,-y,-z
x,1/2+y,-z
-x,y,z
x,1/2-y,z
1/2+x,1/2+y,z
1/2-x,-y,z
1/2+x,1/2-y,-z
1/2-x,y,-z
1/2-x,1/2-y,-z
1/2+x,y,-z
1/2-x,1/2+y,z
1/2+x,-y,z
loop_
_atom_site_type_symbol
_atom_site_label
_atom_site_fract_x
_atom_site_fract_y
_atom_site_fract_z
Si Si1 0.876785 0.162132 0.810041
Si Si2 0.437761 0.897338 0.647351
Si Si3 0.777300 0.840834 0.303943
Si Si4 0.158143 0.159469 0.334339
Si Si5 0.152855 0.340715 0.534229
Si Si6 0.436497 0.034997 0.092665
Si Si7 0.438082 0.057575 0.735352
O O1 0.875449 0.250000 0.843259
O O2 0.917434 0.155818 0.727319
O O3 0.816258 0.133953 0.777260
O O4 0.897853 0.108596 0.889136
O O5 0.500000 0.875724 0.628226
O O6 0.404971 0.879367 0.558916
O O7 0.430415 0.986431 0.670269
O O8 0.777163 0.750000 0.310967
O O9 0.714809 0.869319 0.288135
O O10 0.800924 0.871623 0.397461
O O11 0.149865 0.250000 0.325433
O O12 0.165777 0.134381 0.435397
O O13 0.105791 0.122184 0.288282
O O14 0.146981 0.250000 0.541994
O O15 0.500000 0.062269 0.092892
O O16 0.427187 0.969725 0.165365
O O17 0.418794 0.000000 0.000000
O O18 0.500000 0.091099 0.726888
#
# Coordination Sequence:
#
# PCOD8278771 Si02
#       7
#    16  16  16  16  16  16  16
#     4   9  16  28  50  77  99 120 154 197 235 277
#     4   9  17  29  44  64  95 129 156 193 245 283
#     4   8  15  29  48  69  93 122 157 200 245 275
#     4  10  19  31  48  66  90 128 166 197 230 274
#     4   9  17  28  44  68  94 122 161 201 231 270
#     4   9  18  34  54  74  99 127 150 181 233 287
#     4   9  19  34  49  66  90 122 158 195 238 287
#
# _framework density 17.340876000000002
#
# number of rings (size 3 to 8) (size 9 to 14) (size 15 to 20)
#    0.000    3.000    0.000    3.000    0.000    5.143 
#    0.000   10.000    0.000    9.429    0.000    3.000 
#    0.000    0.000    0.000    0.000    0.000    0.000 
#
# Total GULP energy -694146.488830 kJ/mol
# GULP energy per Si atom -12395.473015 kJ/mol
# Density = 1.730141 g / cm^3
# Si number density = 17.340876 Si / 1000 Ang^3
#
#
#
# Elastic Constant Matrix: (Units=GPa)
#
#
# Indices 1 2 3 4 5 6 
#
# 1 139.2256 46.4211 55.0941 0.0000 0.0000 0.0000
# 2 46.4211 48.6293 47.4186 0.0000 0.0000 0.0000
# 3 55.0941 47.4186 77.7050 0.0000 0.0000 0.0000
# 4 0.0000 0.0000 0.0000 22.8558 0.0000 0.0000
# 5 0.0000 0.0000 0.0000 0.0000 22.1669 0.0000
# 6 0.0000 0.0000 0.0000 0.0000 0.0000 20.4597
#
#
#
# Elastic Compliance Matrix: (Units=1/GPa)
#
#
# Indices 1 2 3 4 5 6 
#
# 1 0.010888 -0.007078 -0.003401 0.000000 0.000000 0.000000
# 2 -0.007078 0.055381 -0.028777 0.000000 0.000000 0.000000
# 3 -0.003401 -0.028777 0.032842 0.000000 0.000000 0.000000
# 4 0.000000 0.000000 0.000000 0.043753 0.000000 0.000000
# 5 0.000000 0.000000 0.000000 0.000000 0.045112 0.000000
# 6 0.000000 0.000000 0.000000 0.000000 0.000000 0.048877
#
#
# Mechanical properties :
#
#
# Convention : Reuss Voigt Hill
#
# Bulk Modulus (GPa) = 48.54641 62.60306 55.57474
# Shear Modulus (GPa) = 15.51686 20.87156 18.19421
#
# Velocity S-wave (km/s) = 2.99459 3.47306 3.24266
# Velocity P-wave (km/s) = 6.32557 7.22930 6.79248
#
# Compressibility (1/GPa) = 0.02059884
#
# Stress axis : x y z
#
# Youngs Moduli (GPa) = 91.84245 18.05680 30.44920
#
# Poissons Ratio (x) = 0.12780 0.10356
# Poissons Ratio (y) = 0.65002 0.87625
# Poissons Ratio (z) = 0.31235 0.51963
#
# Static dielectric constant tensor:
#      x y z
#    x 3.536190 0.000000 0.000000 
#    y 0.000000 2.998350 0.000000 
#    z 0.000000 0.000000 3.061200 
# 
# 
# High freq. dielectric constant tensor:
#      x y z
#    x 1.677900 0.000000 0.000000 
#    y 0.000000 1.647270 0.000000 
#    z 0.000000 0.000000 1.640860 
# 
# From -- ./inp_files/30782.got.cif
#   From: 2010.03.12/outbox.cif.g09.slc.cpg/sg67_16_cif.got.tgz:30782.got - 2010.04.10 22:41:39.
