data_PCOD8278240
_publ_section_title
;
Structure prediction by ZEFSAII (Michael W. Deem and Ramdas Pophale) SiO2 
 PCOD8278240
Probable space group: C M M A
;
_chemical_formula_sum "Si O2"
_cell_formula_units_Z 128
_cell_length_a 17.784198
_cell_length_b 24.463038
_cell_length_c 16.187874
_cell_angle_alpha 90.000000
_cell_angle_beta 90.000000
_cell_angle_gamma 90.000000
_cell_volume 7042.623803
_symmetry_space_group_name_H-M "C M M A"
_symmetry_group_IT_number 67
_symmetry_cell_setting 'orthorhombic'
loop_
_space_group_symop_operation_xyz
x,y,z
-x,1/2-y,z
x,-y,-z
-x,1/2+y,-z
-x,-y,-z
x,1/2+y,-z
-x,y,z
x,1/2-y,z
1/2+x,1/2+y,z
1/2-x,-y,z
1/2+x,1/2-y,-z
1/2-x,y,-z
1/2-x,1/2-y,-z
1/2+x,y,-z
1/2-x,1/2+y,z
1/2+x,-y,z
loop_
_atom_site_type_symbol
_atom_site_label
_atom_site_fract_x
_atom_site_fract_y
_atom_site_fract_z
Si Si1 0.914982 0.315218 0.911446
Si Si2 0.322848 0.116768 0.550164
Si Si3 0.318797 0.866341 0.051451
Si Si4 0.172645 0.478918 0.321241
Si Si5 0.586740 0.094491 0.804321
Si Si6 0.582283 0.549484 0.563419
Si Si7 0.222829 0.812387 0.183133
Si Si8 0.847984 0.685206 0.700776
O O1 0.912280 0.250000 0.918450
O O2 0.860156 0.337203 0.837099
O O3 0.000000 0.335833 0.895386
O O4 0.883931 0.339718 0.996439
O O5 0.250000 0.135367 0.500000
O O6 0.306094 0.064183 0.607047
O O7 0.386092 0.102798 0.482851
O O8 0.352233 0.167516 0.605357
O O9 0.361979 0.907650 0.113065
O O10 0.277588 0.819179 0.104318
O O11 0.250000 0.895484 0.000000
O O12 0.250000 0.500000 0.279661
O O13 0.117165 0.453342 0.254225
O O14 0.132822 0.532160 0.359194
O O15 0.500000 0.083137 0.826753
O O16 0.591016 0.152811 0.756230
O O17 0.577363 0.500000 0.500000
O O18 0.500000 0.564850 0.596791
O O19 0.209098 0.750000 0.200484
O O20 0.265552 0.835122 0.264511
O O21 0.861905 0.750000 0.710065
#
# Coordination Sequence:
#
# PCOD8278240 Si02
#       8
#    16  16  16  16  16  16  16  16
#     4   9  15  22  38  65  92 122 166 216 255 282
#     4  10  18  29  49  73  97 127 169 213 248 306
#     4   9  16  27  43  65  96 134 165 197 243 294
#     4  10  18  31  52  75 101 129 162 205 262 313
#     4  10  20  32  49  78 108 133 169 210 249 298
#     4   9  17  28  47  73 100 123 150 200 267 315
#     4   8  14  26  40  57  86 126 170 208 242 285
#     4   9  19  32  46  66 100 144 177 202 240 293
#
# _framework density 18.175045000000001
#
# number of rings (size 3 to 8) (size 9 to 14) (size 15 to 20)
#    0.000    2.750    1.250    1.125    0.000    5.500 
#    0.000    0.000    0.000    1.125    0.000    3.500 
#    0.000    0.000    0.000    0.000    0.000    0.000 
#
# Total GULP energy -792917.685409 kJ/mol
# GULP energy per Si atom -12389.338835 kJ/mol
# Density = 1.813368 g / cm^3
# Si number density = 18.175045 Si / 1000 Ang^3
#
#
#
# Elastic Constant Matrix: (Units=GPa)
#
#
# Indices 1 2 3 4 5 6 
#
# 1 141.7098 27.2108 44.2282 0.0000 0.0000 0.0000
# 2 27.2108 40.8969 28.4495 0.0000 0.0000 0.0000
# 3 44.2282 28.4495 77.2470 0.0000 0.0000 0.0000
# 4 0.0000 0.0000 0.0000 17.9519 0.0000 0.0000
# 5 0.0000 0.0000 0.0000 0.0000 21.0992 0.0000
# 6 0.0000 0.0000 0.0000 0.0000 0.0000 16.7428
#
#
#
# Elastic Compliance Matrix: (Units=1/GPa)
#
#
# Indices 1 2 3 4 5 6 
#
# 1 0.008892 -0.003193 -0.003915 0.000000 0.000000 0.000000
# 2 -0.003193 0.034020 -0.010702 0.000000 0.000000 0.000000
# 3 -0.003915 -0.010702 0.019128 0.000000 0.000000 0.000000
# 4 0.000000 0.000000 0.000000 0.055704 0.000000 0.000000
# 5 0.000000 0.000000 0.000000 0.000000 0.047395 0.000000
# 6 0.000000 0.000000 0.000000 0.000000 0.000000 0.059727
#
#
# Mechanical properties :
#
#
# Convention : Reuss Voigt Hill
#
# Bulk Modulus (GPa) = 37.84735 51.07007 44.45871
# Shear Modulus (GPa) = 18.56717 21.82315 20.19516
#
# Velocity S-wave (km/s) = 3.19968 3.46890 3.33700
# Velocity P-wave (km/s) = 5.87534 6.64864 6.27391
#
# Compressibility (1/GPa) = 0.02642193
#
# Stress axis : x y z
#
# Youngs Moduli (GPa) = 112.46520 29.39423 52.27824
#
# Poissons Ratio (x) = 0.09384 0.20468
# Poissons Ratio (y) = 0.35905 0.55946
# Poissons Ratio (z) = 0.44032 0.31456
#
# Static dielectric constant tensor:
#      x y z
#    x 3.662210 0.000000 0.000000 
#    y 0.000000 2.924020 0.000000 
#    z 0.000000 0.000000 3.359030 
# 
# 
# High freq. dielectric constant tensor:
#      x y z
#    x 1.713010 0.000000 0.000000 
#    y 0.000000 1.655480 0.000000 
#    z 0.000000 0.000000 1.690320 
# 
# From -- ./inp_files/34579.got.cif
#   From: 2010.03.12/outbox.cif.g09.slc.cpg/sg67_18_cif.got.tgz:34579.got - 2010.04.10 22:41:39.
