data_PCOD8278729
_publ_section_title
;
Structure prediction by ZEFSAII (Michael W. Deem and Ramdas Pophale) SiO2 
 PCOD8278729
Probable space group: C M M A
;
_chemical_formula_sum "Si O2"
_cell_formula_units_Z 96
_cell_length_a 26.316537
_cell_length_b 21.115460
_cell_length_c 8.982683
_cell_angle_alpha 90.000000
_cell_angle_beta 90.000000
_cell_angle_gamma 90.000000
_cell_volume 4991.549249
_symmetry_space_group_name_H-M "C M M A"
_symmetry_group_IT_number 67
_symmetry_cell_setting 'orthorhombic'
loop_
_space_group_symop_operation_xyz
x,y,z
-x,1/2-y,z
x,-y,-z
-x,1/2+y,-z
-x,-y,-z
x,1/2+y,-z
-x,y,z
x,1/2-y,z
1/2+x,1/2+y,z
1/2-x,-y,z
1/2+x,1/2-y,-z
1/2-x,y,-z
1/2-x,1/2-y,-z
1/2+x,y,-z
1/2-x,1/2+y,z
1/2+x,-y,z
loop_
_atom_site_type_symbol
_atom_site_label
_atom_site_fract_x
_atom_site_fract_y
_atom_site_fract_z
Si Si1 0.099055 0.823052 0.561186
Si Si2 0.844356 0.500000 0.500000
Si Si3 0.500000 0.102523 0.517189
Si Si4 0.300290 0.129764 0.422391
Si Si5 0.500000 0.994057 0.749402
Si Si6 0.632896 0.424039 0.768324
Si Si7 0.580386 0.500000 0.000000
Si Si8 0.254293 0.074804 0.830488
O O1 0.089517 0.750000 0.595314
O O2 0.048954 0.853458 0.489516
O O3 0.148276 0.830366 0.452081
O O4 0.105749 0.859478 0.717890
O O5 0.807746 0.559157 0.481875
O O6 0.878869 0.519025 0.645524
O O7 0.500000 0.053264 0.385098
O O8 0.500000 0.065728 0.678784
O O9 0.250000 0.160158 0.500000
O O10 0.288618 0.118647 0.247799
O O11 0.547855 0.980399 0.856425
O O12 0.691525 0.405052 0.766974
O O13 0.616352 0.443994 0.935651
O O14 0.250000 0.000000 0.801814
O O15 0.250000 0.092950 0.000000
#
# Coordination Sequence:
#
# PCOD8278729 Si02
#       8
#    16   8   8  16   8  16   8  16
#     4  11  25  41  64  87 117 170 221 259 296 364
#     4  10  19  30  54  91 122 159 198 246 315 368
#     4  11  23  44  67  93 122 159 208 260 308 372
#     4  11  19  35  58  88 121 156 204 262 310 365
#     4  10  24  38  65  99 127 145 194 261 331 362
#     4  11  22  34  61  91 125 165 197 252 316 372
#     4  11  22  38  57 102 132 154 185 249 334 388
#     4  11  20  32  52  93 132 161 196 247 330 397
#
# _framework density 19.232506000000001
#
# number of rings (size 3 to 8) (size 9 to 14) (size 15 to 20)
#    0.000    1.167    6.667    1.500    4.667    0.333 
#    0.000    0.000    0.000    6.000    0.000    0.000 
#    0.000    0.000    0.000    0.000    0.000    0.000 
#
# Total GULP energy -594643.112945 kJ/mol
# GULP energy per Si atom -12388.398186 kJ/mol
# Density = 1.918873 g / cm^3
# Si number density = 19.232506 Si / 1000 Ang^3
#
#
#
# Elastic Constant Matrix: (Units=GPa)
#
#
# Indices 1 2 3 4 5 6 
#
# 1 110.8043 43.3078 40.4703 0.0000 0.0000 0.0000
# 2 43.3078 91.7303 35.4887 0.0000 0.0000 0.0000
# 3 40.4703 35.4887 121.9573 0.0000 0.0000 0.0000
# 4 0.0000 0.0000 0.0000 17.6508 0.0000 0.0000
# 5 0.0000 0.0000 0.0000 0.0000 39.8299 0.0000
# 6 0.0000 0.0000 0.0000 0.0000 0.0000 -4.4537
#
#
#
# Elastic Compliance Matrix: (Units=1/GPa)
#
#
# Indices 1 2 3 4 5 6 
#
# 1 0.011742 -0.004548 -0.002573 0.000000 0.000000 0.000000
# 2 -0.004548 0.014046 -0.002578 0.000000 0.000000 0.000000
# 3 -0.002573 -0.002578 0.009804 0.000000 0.000000 0.000000
# 4 0.000000 0.000000 0.000000 0.056655 0.000000 0.000000
# 5 0.000000 0.000000 0.000000 0.000000 0.025107 0.000000
# 6 0.000000 0.000000 0.000000 0.000000 0.000000 -0.224530
#
#
# Mechanical properties :
#
#
# Convention : Reuss Voigt Hill
#
# Bulk Modulus (GPa) = 61.75355 62.55839 62.15597
# Shear Modulus (GPa) = -60.69446 24.28707 -18.20369
#
# Velocity S-wave (km/s) = -5.62377 3.55746 -3.07987
# Velocity P-wave (km/s) = 3.16076 7.03364 4.44307
#
# Compressibility (1/GPa) = 0.01619340
#
# Stress axis : x y z
#
# Youngs Moduli (GPa) = 85.16114 71.19311 102.00312
#
# Poissons Ratio (x) = 0.32381 0.26246
# Poissons Ratio (y) = 0.38735 0.26297
# Poissons Ratio (z) = 0.21912 0.18354
#
# Static dielectric constant tensor:
#      x y z
#    x 3.934100 0.000000 0.000000 
#    y 0.000000 3.122790 0.000000 
#    z 0.000000 0.000000 4.149600 
# 
# 
# High freq. dielectric constant tensor:
#      x y z
#    x 1.769180 0.000000 0.000000 
#    y 0.000000 1.695540 0.000000 
#    z 0.000000 0.000000 1.748860 
# 
# From -- ./inp_files/13936.got.cif
#   From: 2010.03.12/outbox.cif.g09.slc.cpg/sg67_7_cif.got.tgz:13936.got - 2010.04.10 22:41:39.
