data_PCOD8278545
_publ_section_title
;
Structure prediction by ZEFSAII (Michael W. Deem and Ramdas Pophale) SiO2 
 PCOD8278545
Probable space group: C M M A
;
_chemical_formula_sum "Si O2"
_cell_formula_units_Z 64
_cell_length_a 8.527941
_cell_length_b 24.642464
_cell_length_c 14.822417
_cell_angle_alpha 90.000000
_cell_angle_beta 90.000000
_cell_angle_gamma 90.000000
_cell_volume 3114.923211
_symmetry_space_group_name_H-M "C M M A"
_symmetry_group_IT_number 67
_symmetry_cell_setting 'orthorhombic'
loop_
_space_group_symop_operation_xyz
x,y,z
-x,1/2-y,z
x,-y,-z
-x,1/2+y,-z
-x,-y,-z
x,1/2+y,-z
-x,y,z
x,1/2-y,z
1/2+x,1/2+y,z
1/2-x,-y,z
1/2+x,1/2-y,-z
1/2-x,y,-z
1/2-x,1/2-y,-z
1/2+x,y,-z
1/2-x,1/2+y,z
1/2+x,-y,z
loop_
_atom_site_type_symbol
_atom_site_label
_atom_site_fract_x
_atom_site_fract_y
_atom_site_fract_z
Si Si1 0.182063 0.750000 0.902341
Si Si2 0.315253 0.860744 0.400092
Si Si3 0.813666 0.867507 0.898912
Si Si4 0.315351 0.940010 0.745016
Si Si5 0.685326 0.750000 0.600436
O O1 0.230112 0.692512 0.856558
O O2 0.000000 0.750000 0.916567
O O3 0.250000 0.750000 0.000000
O O4 0.500000 0.856124 0.405384
O O5 0.250000 0.870183 0.500000
O O6 0.266264 0.910891 0.338988
O O7 0.249255 0.805198 0.354037
O O8 0.726557 0.911427 0.838749
O O9 0.000000 0.877588 0.896906
O O10 0.750000 0.873516 0.000000
O O11 0.500000 0.940262 0.729956
O O12 0.250000 0.000000 0.749492
O O13 0.500000 0.750000 0.602536
O O14 0.750000 0.750000 0.500000
#
# Coordination Sequence:
#
# PCOD8278545 Si02
#       5
#     8  16  16  16   8
#     4   8  16  31  56  87 121 153 189 232 286 349
#     4  11  22  40  64  92 124 160 198 245 300 358
#     4  10  20  38  62  91 123 159 197 243 298 356
#     4  12  26  44  62  86 117 156 205 255 301 357
#     4  10  18  33  58  91 125 159 197 242 294 355
#
# _framework density 20.546253
#
# number of rings (size 3 to 8) (size 9 to 14) (size 15 to 20)
#    0.000    1.500    0.000    7.875    0.000    3.000 
#    0.000    8.750    0.000    0.000    0.000    0.000 
#    0.000    0.000    0.000    0.000    0.000    0.000 
#
# Total GULP energy -396626.912225 kJ/mol
# GULP energy per Si atom -12394.591007 kJ/mol
# Density = 2.049949 g / cm^3
# Si number density = 20.546253 Si / 1000 Ang^3
#
#
#
# Elastic Constant Matrix: (Units=GPa)
#
#
# Indices 1 2 3 4 5 6 
#
# 1 156.3252 56.3862 35.2450 0.0000 0.0000 0.0000
# 2 56.3862 182.2968 59.1124 0.0000 0.0000 0.0000
# 3 35.2450 59.1124 90.5294 0.0000 0.0000 0.0000
# 4 0.0000 0.0000 0.0000 -125.3056 0.0000 0.0000
# 5 0.0000 0.0000 0.0000 0.0000 33.1170 0.0000
# 6 0.0000 0.0000 0.0000 0.0000 0.0000 33.2644
#
#
#
# Elastic Compliance Matrix: (Units=1/GPa)
#
#
# Indices 1 2 3 4 5 6 
#
# 1 0.007415 -0.001722 -0.001762 0.000000 0.000000 0.000000
# 2 -0.001722 0.007359 -0.004135 0.000000 0.000000 0.000000
# 3 -0.001762 -0.004135 0.014432 0.000000 0.000000 0.000000
# 4 0.000000 0.000000 0.000000 -0.007980 0.000000 0.000000
# 5 0.000000 0.000000 0.000000 0.000000 0.030196 0.000000
# 6 0.000000 0.000000 0.000000 0.000000 0.000000 0.030062
#
#
# Mechanical properties :
#
#
# Convention : Reuss Voigt Hill
#
# Bulk Modulus (GPa) = 71.59271 81.18206 76.38739
# Shear Modulus (GPa) = 49.32002 6.77570 28.04786
#
# Velocity S-wave (km/s) = 4.90474 1.81795 3.69875
# Velocity P-wave (km/s) = 8.18509 6.63357 7.44983
#
# Compressibility (1/GPa) = 0.01396790
#
# Stress axis : x y z
#
# Youngs Moduli (GPa) = 134.85323 135.88860 69.29001
#
# Poissons Ratio (x) = 0.23402 0.12212
# Poissons Ratio (y) = 0.23224 0.28649
# Poissons Ratio (z) = 0.23768 0.56185
#
# Static dielectric constant tensor:
#      x y z
#    x 3.668970 0.000000 0.000000 
#    y 0.000000 4.365170 0.000000 
#    z 0.000000 0.000000 3.595610 
# 
# 
# High freq. dielectric constant tensor:
#      x y z
#    x 1.821440 0.000000 0.000000 
#    y 0.000000 1.820060 0.000000 
#    z 0.000000 0.000000 1.790550 
# 
# From -- ./inp_files/24846.got.cif
#   From: 2010.03.12/outbox.cif.g09.slc.cpg/sg67_13_cif.got.tgz:24846.got - 2010.04.10 22:41:39.
