data_PCOD8278529
_publ_section_title
;
Structure prediction by ZEFSAII (Michael W. Deem and Ramdas Pophale) SiO2 
 PCOD8278529
Probable space group: C M M A
;
_chemical_formula_sum "Si O2"
_cell_formula_units_Z 96
_cell_length_a 8.933914
_cell_length_b 23.582516
_cell_length_c 25.538702
_cell_angle_alpha 90.000000
_cell_angle_beta 90.000000
_cell_angle_gamma 90.000000
_cell_volume 5380.600230
_symmetry_space_group_name_H-M "C M M A"
_symmetry_group_IT_number 67
_symmetry_cell_setting 'orthorhombic'
loop_
_space_group_symop_operation_xyz
x,y,z
-x,1/2-y,z
x,-y,-z
-x,1/2+y,-z
-x,-y,-z
x,1/2+y,-z
-x,y,z
x,1/2-y,z
1/2+x,1/2+y,z
1/2-x,-y,z
1/2+x,1/2-y,-z
1/2-x,y,-z
1/2-x,1/2-y,-z
1/2+x,y,-z
1/2-x,1/2+y,z
1/2+x,-y,z
loop_
_atom_site_type_symbol
_atom_site_label
_atom_site_fract_x
_atom_site_fract_y
_atom_site_fract_z
Si Si1 0.176118 0.184983 0.657014
Si Si2 0.176071 0.750000 0.076919
Si Si3 0.177024 0.439378 0.152015
Si Si4 0.165651 0.750000 0.818957
Si Si5 0.668042 0.182585 0.551165
Si Si6 0.170323 0.137276 0.246211
Si Si7 0.178010 0.632813 0.948598
O O1 0.227380 0.250000 0.668761
O O2 0.246487 0.162513 0.603113
O O3 0.228507 0.141792 0.702202
O O4 0.000000 0.181637 0.651471
O O5 0.203120 0.750000 0.138992
O O6 0.254078 0.695472 0.052267
O O7 0.000000 0.750000 0.064938
O O8 0.250000 0.500000 0.145723
O O9 0.229852 0.411546 0.206958
O O10 0.228953 0.400637 0.103373
O O11 0.000000 0.445571 0.151512
O O12 0.183360 0.804089 0.783452
O O13 0.000000 0.750000 0.846138
O O14 0.500000 0.158526 0.552772
O O15 0.667663 0.250000 0.548114
O O16 0.750000 0.157328 0.500000
O O17 0.000000 0.125120 0.263361
O O18 0.000000 0.635166 0.953430
O O19 0.250000 0.602517 0.000000
#
# Coordination Sequence:
#
# PCOD8278529 Si02
#       7
#    16   8  16   8  16  16  16
#     4  10  19  28  42  70 103 134 171 215 257 304
#     4  12  23  35  56  86 113 139 169 207 254 307
#     4  10  23  41  60  78 102 135 173 215 262 312
#     4  10  18  33  55  76 105 137 169 209 258 317
#     4   9  16  26  40  59  90 135 179 216 253 299
#     4  10  19  34  54  75 100 135 170 209 260 312
#     4  11  23  41  60  82 109 139 171 209 256 310
#
# _framework density 17.841875999999999
#
# number of rings (size 3 to 8) (size 9 to 14) (size 15 to 20)
#    0.000    1.833    2.500    2.500    0.000    5.667 
#    0.000    1.667    0.000    0.000    0.000    0.000 
#    0.000    0.667    0.000    7.000    0.000    4.167 
#
# Total GULP energy -595168.023957 kJ/mol
# GULP energy per Si atom -12399.333832 kJ/mol
# Density = 1.780127 g / cm^3
# Si number density = 17.841876 Si / 1000 Ang^3
#
#
#
# Elastic Constant Matrix: (Units=GPa)
#
#
# Indices 1 2 3 4 5 6 
#
# 1 89.0664 29.6925 65.1538 0.0000 0.0000 0.0000
# 2 29.6925 76.1286 40.7254 0.0000 0.0000 0.0000
# 3 65.1538 40.7254 157.3582 0.0000 0.0000 0.0000
# 4 0.0000 0.0000 0.0000 4.3324 0.0000 0.0000
# 5 0.0000 0.0000 0.0000 0.0000 38.5354 0.0000
# 6 0.0000 0.0000 0.0000 0.0000 0.0000 22.6779
#
#
#
# Elastic Compliance Matrix: (Units=1/GPa)
#
#
# Indices 1 2 3 4 5 6 
#
# 1 0.016784 -0.003283 -0.006100 0.000000 0.000000 0.000000
# 2 -0.003283 0.015889 -0.002753 0.000000 0.000000 0.000000
# 3 -0.006100 -0.002753 0.009593 0.000000 0.000000 0.000000
# 4 0.000000 0.000000 0.000000 0.230818 0.000000 0.000000
# 5 0.000000 0.000000 0.000000 0.000000 0.025950 0.000000
# 6 0.000000 0.000000 0.000000 0.000000 0.000000 0.044096
#
#
# Mechanical properties :
#
#
# Convention : Reuss Voigt Hill
#
# Bulk Modulus (GPa) = 55.57242 65.96630 60.76936
# Shear Modulus (GPa) = 13.39049 25.57459 19.48254
#
# Velocity S-wave (km/s) = 2.74251 3.79014 3.30806
# Velocity P-wave (km/s) = 6.42210 7.49710 6.98032
#
# Compressibility (1/GPa) = 0.01799454
#
# Stress axis : x y z
#
# Youngs Moduli (GPa) = 59.57982 62.93738 104.24345
#
# Poissons Ratio (x) = 0.20664 0.63586
# Poissons Ratio (y) = 0.19562 0.28695
# Poissons Ratio (z) = 0.36342 0.17325
#
# Static dielectric constant tensor:
#      x y z
#    x 3.361560 0.000000 0.000000 
#    y 0.000000 2.367760 0.000000 
#    z 0.000000 0.000000 3.555520 
# 
# 
# High freq. dielectric constant tensor:
#      x y z
#    x 1.695090 0.000000 0.000000 
#    y 0.000000 1.639370 0.000000 
#    z 0.000000 0.000000 1.705230 
# 
# From -- ./inp_files/40855.got.cif
#   From: 2010.03.12/outbox.cif.g09.slc.cpg/sg67_21_cif.got.tgz:40855.got - 2010.04.10 22:41:39.
