data_PCOD8278737
_publ_section_title
;
Structure prediction by ZEFSAII (Michael W. Deem and Ramdas Pophale) SiO2 
 PCOD8278737
Probable space group: C M M A
;
_chemical_formula_sum "Si O2"
_cell_formula_units_Z 80
_cell_length_a 27.199009
_cell_length_b 8.894040
_cell_length_c 20.875399
_cell_angle_alpha 90.000000
_cell_angle_beta 90.000000
_cell_angle_gamma 90.000000
_cell_volume 5049.948442
_symmetry_space_group_name_H-M "C M M A"
_symmetry_group_IT_number 67
_symmetry_cell_setting 'orthorhombic'
loop_
_space_group_symop_operation_xyz
x,y,z
-x,1/2-y,z
x,-y,-z
-x,1/2+y,-z
-x,-y,-z
x,1/2+y,-z
-x,y,z
x,1/2-y,z
1/2+x,1/2+y,z
1/2-x,-y,z
1/2+x,1/2-y,-z
1/2-x,y,-z
1/2-x,1/2-y,-z
1/2+x,y,-z
1/2-x,1/2+y,z
1/2+x,-y,z
loop_
_atom_site_type_symbol
_atom_site_label
_atom_site_fract_x
_atom_site_fract_y
_atom_site_fract_z
Si Si1 0.441887 0.077245 0.807398
Si Si2 0.199245 0.419385 0.362206
Si Si3 0.606395 0.580559 0.434955
Si Si4 0.611693 0.927843 0.690608
Si Si5 0.941509 0.580354 0.063427
O O1 0.500000 0.059660 0.800848
O O2 0.425467 0.250000 0.801379
O O3 0.417188 0.979022 0.752745
O O4 0.423328 0.013456 0.875282
O O5 0.209376 0.250000 0.338351
O O6 0.250000 0.500000 0.377437
O O7 0.166066 0.418661 0.427137
O O8 0.167781 0.507494 0.307512
O O9 0.590374 0.500000 0.500000
O O10 0.585521 0.750000 0.435752
O O11 0.584120 0.492814 0.373133
O O12 0.613050 0.750000 0.687001
O O13 0.920823 0.750000 0.067199
O O14 0.000000 0.582928 0.060728
O O15 0.920326 0.500000 0.000000
#
# Coordination Sequence:
#
# PCOD8278737 Si02
#       5
#    16  16  16  16  16
#     4  10  19  31  47  66  90 120 153 187 222 261
#     4   9  18  30  45  65  90 116 146 181 221 269
#     4   9  18  30  45  64  88 115 146 182 223 270
#     4  10  19  31  46  64  89 117 149 186 222 266
#     4   9  16  26  41  63  90 118 147 178 216 261
#
# _framework density 15.841745
#
# number of rings (size 3 to 8) (size 9 to 14) (size 15 to 20)
#    1.200    1.400    0.000    3.600    0.000    4.000 
#    0.000    2.000    0.000    0.600    0.000    0.000 
#    0.000    0.800    0.000    8.000    0.000    5.200 
#
# Total GULP energy -495649.127508 kJ/mol
# GULP energy per Si atom -12391.228188 kJ/mol
# Density = 1.580569 g / cm^3
# Si number density = 15.841745 Si / 1000 Ang^3
#
#
#
# Elastic Constant Matrix: (Units=GPa)
#
#
# Indices 1 2 3 4 5 6 
#
# 1 4.9652 9.1840 11.9587 0.0000 0.0000 0.0000
# 2 9.1840 149.1099 51.2362 0.0000 0.0000 0.0000
# 3 11.9587 51.2362 115.1580 0.0000 0.0000 0.0000
# 4 0.0000 0.0000 0.0000 33.5710 0.0000 0.0000
# 5 0.0000 0.0000 0.0000 0.0000 -18.6725 0.0000
# 6 0.0000 0.0000 0.0000 0.0000 0.0000 19.8047
#
#
#
# Elastic Compliance Matrix: (Units=1/GPa)
#
#
# Indices 1 2 3 4 5 6 
#
# 1 0.277379 -0.008484 -0.025030 0.000000 0.000000 0.000000
# 2 -0.008484 0.008176 -0.002757 0.000000 0.000000 0.000000
# 3 -0.025030 -0.002757 0.012510 0.000000 0.000000 0.000000
# 4 0.000000 0.000000 0.000000 0.029788 0.000000 0.000000
# 5 0.000000 0.000000 0.000000 0.000000 -0.053555 0.000000
# 6 0.000000 0.000000 0.000000 0.000000 0.000000 0.050493
#
#
# Mechanical properties :
#
#
# Convention : Reuss Voigt Hill
#
# Bulk Modulus (GPa) = 4.43411 45.99896 25.21654
# Shear Modulus (GPa) = 10.58186 20.06427 15.32306
#
# Velocity S-wave (km/s) = 2.58732 3.56271 3.11345
# Velocity P-wave (km/s) = 3.42501 6.78406 5.37374
#
# Compressibility (1/GPa) = 0.22552417
#
# Stress axis : x y z
#
# Youngs Moduli (GPa) = 3.60517 122.30537 79.93898
#
# Poissons Ratio (x) = 1.03760 2.00088
# Poissons Ratio (y) = 0.03059 0.22038
# Poissons Ratio (z) = 0.09024 0.33717
#
# Static dielectric constant tensor:
#      x y z
#    x 2.526900 0.000000 0.000000 
#    y 0.000000 3.202970 0.000000 
#    z 0.000000 0.000000 2.934230 
# 
# 
# High freq. dielectric constant tensor:
#      x y z
#    x 1.548960 0.000000 0.000000 
#    y 0.000000 1.634320 0.000000 
#    z 0.000000 0.000000 1.600770 
# 
# From -- ./inp_files/40096.got.cif
#   From: 2010.03.12/outbox.cif.g09.slc.cpg/sg67_21_cif.got.tgz:40096.got - 2010.04.10 22:41:39.
