data_PCOD8278773
_publ_section_title
;
Structure prediction by ZEFSAII (Michael W. Deem and Ramdas Pophale) SiO2 
 PCOD8278773
Probable space group: C M M A
;
_chemical_formula_sum "Si O2"
_cell_formula_units_Z 80
_cell_length_a 27.556036
_cell_length_b 10.343564
_cell_length_c 18.595526
_cell_angle_alpha 90.000000
_cell_angle_beta 90.000000
_cell_angle_gamma 90.000000
_cell_volume 5300.238555
_symmetry_space_group_name_H-M "C M M A"
_symmetry_group_IT_number 67
_symmetry_cell_setting 'orthorhombic'
loop_
_space_group_symop_operation_xyz
x,y,z
-x,1/2-y,z
x,-y,-z
-x,1/2+y,-z
-x,-y,-z
x,1/2+y,-z
-x,y,z
x,1/2-y,z
1/2+x,1/2+y,z
1/2-x,-y,z
1/2+x,1/2-y,-z
1/2-x,y,-z
1/2-x,1/2-y,-z
1/2+x,y,-z
1/2-x,1/2+y,z
1/2+x,-y,z
loop_
_atom_site_type_symbol
_atom_site_label
_atom_site_fract_x
_atom_site_fract_y
_atom_site_fract_z
Si Si1 0.057882 0.750000 0.936358
Si Si2 0.637652 0.495910 0.585163
Si Si3 0.057717 0.018221 0.161289
Si Si4 0.943858 0.401975 0.318480
Si Si5 0.806902 0.250000 0.586012
Si Si6 0.557868 0.750000 0.901269
Si Si7 0.198333 0.750000 0.584555
O O1 0.077677 0.877293 0.895800
O O2 0.000000 0.750000 0.936337
O O3 0.078073 0.750000 0.017419
O O4 0.629620 0.500000 0.500000
O O5 0.585160 0.482287 0.621589
O O6 0.663827 0.625161 0.612782
O O7 0.670874 0.377415 0.611481
O O8 0.076060 0.056012 0.240460
O O9 0.000000 0.021188 0.159874
O O10 0.077553 0.876741 0.139882
O O11 0.935889 0.250000 0.329522
O O12 0.000000 0.439533 0.327589
O O13 0.801015 0.250000 0.500947
O O14 0.752432 0.250000 0.617983
O O15 0.500000 0.750000 0.902512
#
# Coordination Sequence:
#
# PCOD8278773 Si02
#       7
#     8  16  16  16   8   8   8
#     4   9  14  23  38  56  77 104 140 178 217 260
#     4  10  19  31  48  68  87 111 148 187 221 262
#     4   9  16  26  39  56  78 109 147 180 215 258
#     4  10  19  32  47  59  82 123 162 190 217 258
#     4   9  18  29  47  71  91 104 131 179 230 277
#     4   9  16  23  36  58  81 100 132 188 229 250
#     4   9  16  31  49  67  89 112 131 167 228 287
#
# _framework density 15.09366
#
# number of rings (size 3 to 8) (size 9 to 14) (size 15 to 20)
#    0.000    2.600    2.000    1.200    0.000    6.000 
#    0.000    1.500    0.000    0.000    0.000    0.000 
#    0.000    0.000    0.000    0.000    0.000   70.000 
#
# Total GULP energy -495935.276749 kJ/mol
# GULP energy per Si atom -12398.381919 kJ/mol
# Density = 1.505931 g / cm^3
# Si number density = 15.093660 Si / 1000 Ang^3
#
#
#
# Elastic Constant Matrix: (Units=GPa)
#
#
# Indices 1 2 3 4 5 6 
#
# 1 62.6714 38.0894 34.1341 0.0000 0.0000 0.0000
# 2 38.0894 123.8021 31.4795 0.0000 0.0000 0.0000
# 3 34.1341 31.4795 58.9722 0.0000 0.0000 0.0000
# 4 0.0000 0.0000 0.0000 22.1660 0.0000 0.0000
# 5 0.0000 0.0000 0.0000 0.0000 1.4373 0.0000
# 6 0.0000 0.0000 0.0000 0.0000 0.0000 19.2889
#
#
#
# Elastic Compliance Matrix: (Units=1/GPa)
#
#
# Indices 1 2 3 4 5 6 
#
# 1 0.025494 -0.004734 -0.012229 0.000000 0.000000 0.000000
# 2 -0.004734 0.010225 -0.002718 0.000000 0.000000 0.000000
# 3 -0.012229 -0.002718 0.025487 0.000000 0.000000 0.000000
# 4 0.000000 0.000000 0.000000 0.045114 0.000000 0.000000
# 5 0.000000 0.000000 0.000000 0.000000 0.695768 0.000000
# 6 0.000000 0.000000 0.000000 0.000000 0.000000 0.051843
#
#
# Mechanical properties :
#
#
# Convention : Reuss Voigt Hill
#
# Bulk Modulus (GPa) = 45.78146 50.31686 48.04916
# Shear Modulus (GPa) = 5.55200 18.02793 11.78997
#
# Velocity S-wave (km/s) = 1.91999 3.45977 2.79789
# Velocity P-wave (km/s) = 5.94244 7.02629 6.50697
#
# Compressibility (1/GPa) = 0.02184290
#
# Stress axis : x y z
#
# Youngs Moduli (GPa) = 39.22461 97.79944 39.23623
#
# Poissons Ratio (x) = 0.46298 0.47984
# Poissons Ratio (y) = 0.18569 0.10664
# Poissons Ratio (z) = 0.47970 0.26582
#
# Static dielectric constant tensor:
#      x y z
#    x 2.551890 0.000000 0.000000 
#    y 0.000000 3.141440 0.000000 
#    z 0.000000 0.000000 2.803830 
# 
# 
# High freq. dielectric constant tensor:
#      x y z
#    x 1.524330 0.000000 0.000000 
#    y 0.000000 1.596810 0.000000 
#    z 0.000000 0.000000 1.559740 
# 
# From -- ./inp_files/35424.got.cif
#   From: 2010.03.12/outbox.cif.g09.slc.cpg/sg67_18_cif.got.tgz:35424.got - 2010.04.10 22:41:39.
