data_PCOD8278567
_publ_section_title
;
Structure prediction by ZEFSAII (Michael W. Deem and Ramdas Pophale) SiO2 
 PCOD8278567
Probable space group: C M M A
;
_chemical_formula_sum "Si O2"
_cell_formula_units_Z 72
_cell_length_a 14.366389
_cell_length_b 13.762068
_cell_length_c 17.855998
_cell_angle_alpha 90.000000
_cell_angle_beta 90.000000
_cell_angle_gamma 90.000000
_cell_volume 3530.331191
_symmetry_space_group_name_H-M "C M M A"
_symmetry_group_IT_number 67
_symmetry_cell_setting 'orthorhombic'
loop_
_space_group_symop_operation_xyz
x,y,z
-x,1/2-y,z
x,-y,-z
-x,1/2+y,-z
-x,-y,-z
x,1/2+y,-z
-x,y,z
x,1/2-y,z
1/2+x,1/2+y,z
1/2-x,-y,z
1/2+x,1/2-y,-z
1/2-x,y,-z
1/2-x,1/2-y,-z
1/2+x,y,-z
1/2-x,1/2+y,z
1/2+x,-y,z
loop_
_atom_site_type_symbol
_atom_site_label
_atom_site_fract_x
_atom_site_fract_y
_atom_site_fract_z
Si Si1 0.148122 0.858927 0.518462
Si Si2 0.500000 0.937472 0.370603
Si Si3 0.500000 0.137510 0.789232
Si Si4 0.894904 0.858845 0.018377
Si Si5 0.000000 0.146192 0.608358
Si Si6 0.348875 0.972725 0.119908
O O1 0.158301 0.750000 0.551178
O O2 0.250000 0.903219 0.500000
O O3 0.092914 0.922346 0.579784
O O4 0.091554 0.857134 0.441991
O O5 0.500000 0.865603 0.300522
O O6 0.500000 0.049536 0.340247
O O7 0.500000 0.250000 0.815082
O O8 0.408876 0.082120 0.818267
O O9 0.862192 0.750000 0.039618
O O10 0.000000 0.858199 0.985806
O O11 0.894929 0.926691 0.091814
O O12 0.831141 0.901808 0.951672
O O13 0.000000 0.250000 0.653532
O O14 0.250000 0.000000 0.156568
#
# Coordination Sequence:
#
# PCOD8278567 Si02
#       6
#    16   8   8  16   8  16
#     4   9  17  33  60  92 118 144 191 250 304 357
#     4  11  22  37  60  87 122 163 203 241 305 382
#     4  12  25  45  64  84 127 174 209 250 309 389
#     4  10  18  34  63  91 120 160 211 267 316 359
#     4   9  19  35  54  79 114 150 186 242 302 345
#     4  11  22  38  60  89 122 161 211 261 314 365
#
# _framework density 20.394687999999999
#
# number of rings (size 3 to 8) (size 9 to 14) (size 15 to 20)
#    0.000    1.778    2.222    5.667    0.000    4.444 
#    4.000    1.111    0.000    0.000    0.000    0.000 
#    0.000    0.000    0.000    0.000    0.000    0.000 
#
# Total GULP energy -446235.006184 kJ/mol
# GULP energy per Si atom -12395.416838 kJ/mol
# Density = 2.034827 g / cm^3
# Si number density = 20.394688 Si / 1000 Ang^3
#
#
#
# Elastic Constant Matrix: (Units=GPa)
#
#
# Indices 1 2 3 4 5 6 
#
# 1 148.1778 30.8832 29.0175 0.0000 0.0000 0.0000
# 2 30.8832 172.8951 24.9785 0.0000 0.0000 0.0000
# 3 29.0175 24.9785 51.2529 0.0000 0.0000 0.0000
# 4 0.0000 0.0000 0.0000 25.8471 0.0000 0.0000
# 5 0.0000 0.0000 0.0000 0.0000 22.8331 0.0000
# 6 0.0000 0.0000 0.0000 0.0000 0.0000 16.8946
#
#
#
# Elastic Compliance Matrix: (Units=1/GPa)
#
#
# Indices 1 2 3 4 5 6 
#
# 1 0.007692 -0.000801 -0.003964 0.000000 0.000000 0.000000
# 2 -0.000801 0.006305 -0.002619 0.000000 0.000000 0.000000
# 3 -0.003964 -0.002619 0.023032 0.000000 0.000000 0.000000
# 4 0.000000 0.000000 0.000000 0.038689 0.000000 0.000000
# 5 0.000000 0.000000 0.000000 0.000000 0.043796 0.000000
# 6 0.000000 0.000000 0.000000 0.000000 0.000000 0.059190
#
#
# Mechanical properties :
#
#
# Convention : Reuss Voigt Hill
#
# Bulk Modulus (GPa) = 44.92458 60.23156 52.57807
# Shear Modulus (GPa) = 24.88863 32.27807 28.58335
#
# Velocity S-wave (km/s) = 3.49714 3.98259 3.74774
# Velocity P-wave (km/s) = 6.19532 7.12356 6.67560
#
# Compressibility (1/GPa) = 0.02225953
#
# Stress axis : x y z
#
# Youngs Moduli (GPa) = 130.00533 158.59433 43.41753
#
# Poissons Ratio (x) = 0.12707 0.17213
# Poissons Ratio (y) = 0.10416 0.11373
# Poissons Ratio (z) = 0.51540 0.41541
#
# Static dielectric constant tensor:
#      x y z
#    x 3.754990 0.000000 0.000000 
#    y 0.000000 4.123770 0.000000 
#    z 0.000000 0.000000 3.077240 
# 
# 
# High freq. dielectric constant tensor:
#      x y z
#    x 1.804210 0.000000 0.000000 
#    y 0.000000 1.822670 0.000000 
#    z 0.000000 0.000000 1.732290 
# 
# From -- ./inp_files/33504.got.cif
#   From: 2010.03.12/outbox.cif.g09.slc.cpg/sg67_17_cif.got.tgz:33504.got - 2010.04.10 22:41:39.
