data_PCOD8278452
_publ_section_title
;
Structure prediction by ZEFSAII (Michael W. Deem and Ramdas Pophale) SiO2 
 PCOD8278452
Probable space group: C M M A
;
_chemical_formula_sum "Si O2"
_cell_formula_units_Z 104
_cell_length_a 28.745246
_cell_length_b 8.723738
_cell_length_c 20.454971
_cell_angle_alpha 90.000000
_cell_angle_beta 90.000000
_cell_angle_gamma 90.000000
_cell_volume 5129.411152
_symmetry_space_group_name_H-M "C M M A"
_symmetry_group_IT_number 67
_symmetry_cell_setting 'orthorhombic'
loop_
_space_group_symop_operation_xyz
x,y,z
-x,1/2-y,z
x,-y,-z
-x,1/2+y,-z
-x,-y,-z
x,1/2+y,-z
-x,y,z
x,1/2-y,z
1/2+x,1/2+y,z
1/2-x,-y,z
1/2+x,1/2-y,-z
1/2-x,y,-z
1/2-x,1/2-y,-z
1/2+x,y,-z
1/2-x,1/2+y,z
1/2+x,-y,z
loop_
_atom_site_type_symbol
_atom_site_label
_atom_site_fract_x
_atom_site_fract_y
_atom_site_fract_z
Si Si1 0.904653 0.431083 0.571095
Si Si2 0.051955 0.573527 0.098571
Si Si3 0.199280 0.432306 0.192631
Si Si4 0.550994 0.421166 0.767332
Si Si5 0.500000 0.433544 0.572353
Si Si6 0.639881 0.427128 0.685559
Si Si7 0.355263 0.071291 0.934889
O O1 0.894112 0.500000 0.500000
O O2 0.909495 0.250000 0.565169
O O3 0.860861 0.476071 0.618173
O O4 0.951969 0.502207 0.603122
O O5 0.063726 0.750000 0.084726
O O6 0.054521 0.545314 0.175860
O O7 0.089996 0.469052 0.063039
O O8 0.000000 0.530942 0.073084
O O9 0.200819 0.250000 0.191661
O O10 0.250000 0.500000 0.185368
O O11 0.177263 0.488969 0.261453
O O12 0.168542 0.493196 0.131429
O O13 0.500000 0.429135 0.733403
O O14 0.559382 0.250000 0.797212
O O15 0.588934 0.456080 0.713873
O O16 0.500000 0.250000 0.574427
O O17 0.500000 0.500000 0.500000
O O18 0.649570 0.250000 0.669278
O O19 0.347933 0.250000 0.938845
O O20 0.331561 0.000000 0.000000
#
# Coordination Sequence:
#
# PCOD8278452 Si02
#       7
#    16  16  16  16   8  16  16
#     4  11  22  36  54  83 119 160 203 246 291 344
#     4  10  20  34  54  83 119 158 198 241 285 336
#     4  10  23  43  66  90 118 149 191 241 301 362
#     4   9  17  31  53  80 113 154 194 235 287 343
#     4  10  18  32  52  76 114 164 207 246 287 338
#     4  10  20  37  59  86 117 154 196 240 292 354
#     4  11  23  41  62  88 118 155 196 240 291 351
#
# _framework density 20.275231999999999
#
# number of rings (size 3 to 8) (size 9 to 14) (size 15 to 20)
#    0.000    1.846    1.538    3.923    1.077    4.000 
#    0.000    1.538    0.000    0.462    0.000    3.231 
#    0.000    0.000    0.000    0.000    0.000    0.000 
#
# Total GULP energy -644571.247849 kJ/mol
# GULP energy per Si atom -12395.600920 kJ/mol
# Density = 2.022908 g / cm^3
# Si number density = 20.275232 Si / 1000 Ang^3
#
#
#
# Elastic Constant Matrix: (Units=GPa)
#
#
# Indices 1 2 3 4 5 6 
#
# 1 98.3995 31.2689 50.9797 0.0000 0.0000 0.0000
# 2 31.2689 87.0275 41.0185 0.0000 0.0000 0.0000
# 3 50.9797 41.0185 109.8198 0.0000 0.0000 0.0000
# 4 0.0000 0.0000 0.0000 31.6990 0.0000 0.0000
# 5 0.0000 0.0000 0.0000 0.0000 5.3207 0.0000
# 6 0.0000 0.0000 0.0000 0.0000 0.0000 28.1930
#
#
#
# Elastic Compliance Matrix: (Units=1/GPa)
#
#
# Indices 1 2 3 4 5 6 
#
# 1 0.013765 -0.002347 -0.005513 0.000000 0.000000 0.000000
# 2 -0.002347 0.014346 -0.004269 0.000000 0.000000 0.000000
# 3 -0.005513 -0.004269 0.013259 0.000000 0.000000 0.000000
# 4 0.000000 0.000000 0.000000 0.031547 0.000000 0.000000
# 5 0.000000 0.000000 0.000000 0.000000 0.187944 0.000000
# 6 0.000000 0.000000 0.000000 0.000000 0.000000 0.035470
#
#
# Mechanical properties :
#
#
# Convention : Reuss Voigt Hill
#
# Bulk Modulus (GPa) = 58.43788 60.19789 59.31788
# Shear Modulus (GPa) = 15.32366 24.50787 19.91577
#
# Velocity S-wave (km/s) = 2.75213 3.48049 3.13752
# Velocity P-wave (km/s) = 6.24370 6.77544 6.51500
#
# Compressibility (1/GPa) = 0.01711219
#
# Stress axis : x y z
#
# Youngs Moduli (GPa) = 72.64898 69.70625 75.41779
#
# Poissons Ratio (x) = 0.16361 0.41579
# Poissons Ratio (y) = 0.17052 0.32194
# Poissons Ratio (z) = 0.40052 0.29755
#
# Static dielectric constant tensor:
#      x y z
#    x 3.823100 0.000000 0.000000 
#    y 0.000000 3.546790 0.000000 
#    z 0.000000 0.000000 3.790890 
# 
# 
# High freq. dielectric constant tensor:
#      x y z
#    x 1.765800 0.000000 0.000000 
#    y 0.000000 1.784490 0.000000 
#    z 0.000000 0.000000 1.797040 
# 
# From -- ./inp_files/40218.got.cif
#   From: 2010.03.12/outbox.cif.g09.slc.cpg/sg67_21_cif.got.tgz:40218.got - 2010.04.10 22:41:39.
