data_PCOD8278198
_publ_section_title
;
Structure prediction by ZEFSAII (Michael W. Deem and Ramdas Pophale) SiO2 
 PCOD8278198
Probable space group: C M M A
;
_chemical_formula_sum "Si O2"
_cell_formula_units_Z 112
_cell_length_a 16.718227
_cell_length_b 27.065246
_cell_length_c 14.071583
_cell_angle_alpha 90.000000
_cell_angle_beta 90.000000
_cell_angle_gamma 90.000000
_cell_volume 6367.151055
_symmetry_space_group_name_H-M "C M M A"
_symmetry_group_IT_number 67
_symmetry_cell_setting 'orthorhombic'
loop_
_space_group_symop_operation_xyz
x,y,z
-x,1/2-y,z
x,-y,-z
-x,1/2+y,-z
-x,-y,-z
x,1/2+y,-z
-x,y,z
x,1/2-y,z
1/2+x,1/2+y,z
1/2-x,-y,z
1/2+x,1/2-y,-z
1/2-x,y,-z
1/2-x,1/2-y,-z
1/2+x,y,-z
1/2-x,1/2+y,z
1/2+x,-y,z
loop_
_atom_site_type_symbol
_atom_site_label
_atom_site_fract_x
_atom_site_fract_y
_atom_site_fract_z
Si Si1 0.345971 0.048592 0.847270
Si Si2 0.591578 0.531419 0.626891
Si Si3 0.163986 0.565340 0.551357
Si Si4 0.090770 0.878684 0.710595
Si Si5 0.835616 0.061401 0.814278
Si Si6 0.593415 0.804715 0.131810
Si Si7 0.840637 0.621858 0.009631
O O1 0.410722 0.071929 0.775554
O O2 0.259679 0.061836 0.802163
O O3 0.362292 0.990794 0.859502
O O4 0.353882 0.071530 0.951396
O O5 0.500000 0.514809 0.642697
O O6 0.597218 0.563950 0.531290
O O7 0.650894 0.483951 0.616189
O O8 0.622391 0.566313 0.712217
O O9 0.250000 0.567240 0.500000
O O10 0.146816 0.613203 0.617557
O O11 0.127693 0.834763 0.776723
O O12 0.000000 0.867465 0.678292
O O13 0.863313 0.107076 0.881926
O O14 0.500000 0.800148 0.146579
O O15 0.632508 0.750000 0.128405
O O16 0.607527 0.833156 0.032161
O O17 0.750000 0.640031 0.000000
#
# Coordination Sequence:
#
# PCOD8278198 Si02
#       7
#    16  16  16  16  16  16  16
#     4   9  17  28  45  66  98 134 170 200 231 281
#     4  11  21  30  43  67  99 132 171 204 232 277
#     4  11  21  32  48  66  92 129 167 202 244 289
#     4  10  18  32  52  72  96 125 163 210 250 291
#     4  10  18  28  45  66 100 139 170 199 231 278
#     4   9  19  35  55  77  98 123 159 206 261 311
#     4   9  18  31  47  73  99 130 168 203 241 285
#
# _framework density 17.590284
#
# number of rings (size 3 to 8) (size 9 to 14) (size 15 to 20)
#    0.000    2.143    1.429    3.857    2.000    2.571 
#    0.000    0.000    0.000    4.714    0.000    1.000 
#    0.000    3.429    0.000    0.000    0.000    0.000 
#
# Total GULP energy -693979.460111 kJ/mol
# GULP energy per Si atom -12392.490359 kJ/mol
# Density = 1.755025 g / cm^3
# Si number density = 17.590284 Si / 1000 Ang^3
#
#
#
# Elastic Constant Matrix: (Units=GPa)
#
#
# Indices 1 2 3 4 5 6 
#
# 1 52.9905 19.0218 28.8521 0.0000 0.0000 0.0000
# 2 19.0218 96.7702 48.9975 0.0000 0.0000 0.0000
# 3 28.8521 48.9975 109.8370 0.0000 0.0000 0.0000
# 4 0.0000 0.0000 0.0000 13.2741 0.0000 0.0000
# 5 0.0000 0.0000 0.0000 0.0000 23.5930 0.0000
# 6 0.0000 0.0000 0.0000 0.0000 0.0000 15.0860
#
#
#
# Elastic Compliance Matrix: (Units=1/GPa)
#
#
# Indices 1 2 3 4 5 6 
#
# 1 0.022268 -0.001828 -0.005034 0.000000 0.000000 0.000000
# 2 -0.001828 0.013499 -0.005541 0.000000 0.000000 0.000000
# 3 -0.005034 -0.005541 0.012899 0.000000 0.000000 0.000000
# 4 0.000000 0.000000 0.000000 0.075335 0.000000 0.000000
# 5 0.000000 0.000000 0.000000 0.000000 0.042385 0.000000
# 6 0.000000 0.000000 0.000000 0.000000 0.000000 0.066287
#
#
# Mechanical properties :
#
#
# Convention : Reuss Voigt Hill
#
# Bulk Modulus (GPa) = 41.91367 50.37118 46.14242
# Shear Modulus (GPa) = 18.83712 21.23904 20.03808
#
# Velocity S-wave (km/s) = 3.27598 3.47858 3.37880
# Velocity P-wave (km/s) = 6.17972 6.69567 6.44286
#
# Compressibility (1/GPa) = 0.02385856
#
# Stress axis : x y z
#
# Youngs Moduli (GPa) = 44.90651 74.07965 77.52708
#
# Poissons Ratio (x) = 0.13545 0.39026
# Poissons Ratio (y) = 0.08211 0.42962
# Poissons Ratio (z) = 0.22605 0.41051
#
# Static dielectric constant tensor:
#      x y z
#    x 3.196060 0.000000 0.000000 
#    y 0.000000 3.170990 0.000000 
#    z 0.000000 0.000000 3.500330 
# 
# 
# High freq. dielectric constant tensor:
#      x y z
#    x 1.668520 0.000000 0.000000 
#    y 0.000000 1.628060 0.000000 
#    z 0.000000 0.000000 1.687960 
# 
# From -- ./inp_files/27908.got.cif
#   From: 2010.03.12/outbox.cif.g09.slc.cpg/sg67_14_cif.got.tgz:27908.got - 2010.04.10 22:41:39.
