data_PCOD8278484
_publ_section_title
;
Structure prediction by ZEFSAII (Michael W. Deem and Ramdas Pophale) SiO2 
 PCOD8278484
Probable space group: C M M A
;
_chemical_formula_sum "Si O2"
_cell_formula_units_Z 72
_cell_length_a 8.679154
_cell_length_b 20.864379
_cell_length_c 19.959814
_cell_angle_alpha 90.000000
_cell_angle_beta 90.000000
_cell_angle_gamma 90.000000
_cell_volume 3614.426081
_symmetry_space_group_name_H-M "C M M A"
_symmetry_group_IT_number 67
_symmetry_cell_setting 'orthorhombic'
loop_
_space_group_symop_operation_xyz
x,y,z
-x,1/2-y,z
x,-y,-z
-x,1/2+y,-z
-x,-y,-z
x,1/2+y,-z
-x,y,z
x,1/2-y,z
1/2+x,1/2+y,z
1/2-x,-y,z
1/2+x,1/2-y,-z
1/2-x,y,-z
1/2-x,1/2-y,-z
1/2+x,y,-z
1/2-x,1/2+y,z
1/2+x,-y,z
loop_
_atom_site_type_symbol
_atom_site_label
_atom_site_fract_x
_atom_site_fract_y
_atom_site_fract_z
Si Si1 0.683707 0.250000 0.926020
Si Si2 0.171500 0.174005 0.566455
Si Si3 0.683394 0.064878 0.801204
Si Si4 0.817177 0.120111 0.926364
Si Si5 0.317953 0.322125 0.704973
O O1 0.500000 0.250000 0.923517
O O2 0.749201 0.185577 0.892914
O O3 0.750000 0.250000 0.000000
O O4 0.167489 0.250000 0.560198
O O5 0.250000 0.144464 0.500000
O O6 0.264953 0.153651 0.632234
O O7 0.000000 0.145773 0.572041
O O8 0.500000 0.062431 0.806211
O O9 0.759672 0.066143 0.875293
O O10 0.741836 0.126265 0.758855
O O11 0.750000 0.000000 0.767332
O O12 0.000000 0.123234 0.931820
O O13 0.750000 0.106399 0.000000
O O14 0.500000 0.320056 0.705323
O O15 0.254213 0.250000 0.721301
#
# Coordination Sequence:
#
# PCOD8278484 Si02
#       5
#     8  16  16  16  16
#     4  10  18  32  54  82 114 144 177 222 281 338
#     4   9  16  27  48  80 116 150 184 228 277 328
#     4  11  24  41  60  83 114 153 192 237 292 348
#     4  11  22  38  59  85 113 146 189 238 290 346
#     4   9  19  36  58  84 113 149 190 232 281 337
#
# _framework density 19.920175
#
# number of rings (size 3 to 8) (size 9 to 14) (size 15 to 20)
#    0.000    2.000    0.000    5.667    1.556    4.889 
#    0.000    2.222    0.000    0.667    0.000    4.667 
#    0.000    0.000    0.000    0.000    0.000    0.000 
#
# Total GULP energy -446270.515956 kJ/mol
# GULP energy per Si atom -12396.403221 kJ/mol
# Density = 1.987484 g / cm^3
# Si number density = 19.920175 Si / 1000 Ang^3
#
#
#
# Elastic Constant Matrix: (Units=GPa)
#
#
# Indices 1 2 3 4 5 6 
#
# 1 98.6188 41.3381 33.6549 0.0000 0.0000 0.0000
# 2 41.3381 97.2897 59.8602 0.0000 0.0000 0.0000
# 3 33.6549 59.8602 119.9525 0.0000 0.0000 0.0000
# 4 0.0000 0.0000 0.0000 11.6390 0.0000 0.0000
# 5 0.0000 0.0000 0.0000 0.0000 31.9406 0.0000
# 6 0.0000 0.0000 0.0000 0.0000 0.0000 27.7873
#
#
#
# Elastic Compliance Matrix: (Units=1/GPa)
#
#
# Indices 1 2 3 4 5 6 
#
# 1 0.012462 -0.004537 -0.001232 0.000000 0.000000 0.000000
# 2 -0.004537 0.016485 -0.006953 0.000000 0.000000 0.000000
# 3 -0.001232 -0.006953 0.012152 0.000000 0.000000 0.000000
# 4 0.000000 0.000000 0.000000 0.085918 0.000000 0.000000
# 5 0.000000 0.000000 0.000000 0.000000 0.031308 0.000000
# 6 0.000000 0.000000 0.000000 0.000000 0.000000 0.035988
#
#
# Mechanical properties :
#
#
# Convention : Reuss Voigt Hill
#
# Bulk Modulus (GPa) = 63.88249 65.06304 64.47277
# Shear Modulus (GPa) = 22.22454 26.34057 24.28256
#
# Velocity S-wave (km/s) = 3.34380 3.64030 3.49520
# Velocity P-wave (km/s) = 6.85907 7.09942 6.98028
#
# Compressibility (1/GPa) = 0.01565374
#
# Stress axis : x y z
#
# Youngs Moduli (GPa) = 80.24137 60.66269 82.28821
#
# Poissons Ratio (x) = 0.27522 0.10142
# Poissons Ratio (y) = 0.36405 0.57218
# Poissons Ratio (z) = 0.09890 0.42181
#
# Static dielectric constant tensor:
#      x y z
#    x 3.610430 0.000000 0.000000 
#    y 0.000000 4.336510 0.000000 
#    z 0.000000 0.000000 3.657760 
# 
# 
# High freq. dielectric constant tensor:
#      x y z
#    x 1.783660 0.000000 0.000000 
#    y 0.000000 1.750960 0.000000 
#    z 0.000000 0.000000 1.773330 
# 
# From -- ./inp_files/36733.got.cif
#   From: 2010.03.12/outbox.cif.g09.slc.cpg/sg67_19_cif.got.tgz:36733.got - 2010.04.10 22:41:39.
