data_PCOD8278720
_publ_section_title
;
Structure prediction by ZEFSAII (Michael W. Deem and Ramdas Pophale) SiO2 
 PCOD8278720
Probable space group: C M M A
;
_chemical_formula_sum "Si O2"
_cell_formula_units_Z 104
_cell_length_a 8.786311
_cell_length_b 24.876063
_cell_length_c 22.577320
_cell_angle_alpha 90.000000
_cell_angle_beta 90.000000
_cell_angle_gamma 90.000000
_cell_volume 4934.698326
_symmetry_space_group_name_H-M "C M M A"
_symmetry_group_IT_number 67
_symmetry_cell_setting 'orthorhombic'
loop_
_space_group_symop_operation_xyz
x,y,z
-x,1/2-y,z
x,-y,-z
-x,1/2+y,-z
-x,-y,-z
x,1/2+y,-z
-x,y,z
x,1/2-y,z
1/2+x,1/2+y,z
1/2-x,-y,z
1/2+x,1/2-y,-z
1/2-x,y,-z
1/2-x,1/2-y,-z
1/2+x,y,-z
1/2-x,1/2+y,z
1/2+x,-y,z
loop_
_atom_site_type_symbol
_atom_site_label
_atom_site_fract_x
_atom_site_fract_y
_atom_site_fract_z
Si Si1 0.678753 0.750000 0.435849
Si Si2 0.327359 0.912567 0.940213
Si Si3 0.668713 0.187923 0.763819
Si Si4 0.177922 0.057100 0.701648
Si Si5 0.326767 0.309691 0.120904
Si Si6 0.819948 0.556114 0.817769
Si Si7 0.673787 0.835985 0.645457
O O1 0.500000 0.750000 0.441724
O O2 0.750000 0.750000 0.500000
O O3 0.724974 0.804994 0.402549
O O4 0.500000 0.932743 0.941176
O O5 0.313526 0.847648 0.936789
O O6 0.249799 0.935648 0.882071
O O7 0.250000 0.933955 0.000000
O O8 0.500000 0.164646 0.749072
O O9 0.656708 0.250000 0.781403
O O10 0.728595 0.161841 0.826239
O O11 0.785555 0.185159 0.710277
O O12 0.262094 0.088395 0.758501
O O13 0.198570 0.099001 0.646622
O O14 0.000000 0.049290 0.717122
O O15 0.250000 0.000000 0.682094
O O16 0.500000 0.308072 0.143924
O O17 0.270905 0.250000 0.103036
O O18 0.750000 0.500000 0.794778
O O19 0.000000 0.556991 0.823242
O O20 0.500000 0.821280 0.631536
#
# Coordination Sequence:
#
# PCOD8278720 Si02
#       7
#     8  16  16  16  16  16  16
#     4  12  26  44  66  94 130 172 215 254 297 344
#     4  11  23  38  54  74 101 136 184 235 288 352
#     4  10  19  30  49  81 114 145 187 237 292 351
#     4  10  21  37  60  92 126 161 200 246 303 360
#     4   9  19  35  53  73 102 141 180 226 285 347
#     4  11  22  38  60  84 112 145 184 233 293 353
#     4  11  22  37  60  89 125 166 206 249 297 352
#
# _framework density 21.07525
#
# number of rings (size 3 to 8) (size 9 to 14) (size 15 to 20)
#    0.000    1.538    0.769    5.769    0.000    8.615 
#    0.000    1.538    0.000    0.462    0.000    3.231 
#    0.000    0.000    0.000    0.000    0.000    0.000 
#
# Total GULP energy -644464.551336 kJ/mol
# GULP energy per Si atom -12393.549064 kJ/mol
# Density = 2.102728 g / cm^3
# Si number density = 21.075250 Si / 1000 Ang^3
#
#
#
# Elastic Constant Matrix: (Units=GPa)
#
#
# Indices 1 2 3 4 5 6 
#
# 1 159.6998 38.0824 51.8428 0.0000 0.0000 0.0000
# 2 38.0824 62.1410 37.8184 0.0000 0.0000 0.0000
# 3 51.8428 37.8184 109.2872 0.0000 0.0000 0.0000
# 4 0.0000 0.0000 0.0000 22.8896 0.0000 0.0000
# 5 0.0000 0.0000 0.0000 0.0000 33.2917 0.0000
# 6 0.0000 0.0000 0.0000 0.0000 0.0000 29.3287
#
#
#
# Elastic Compliance Matrix: (Units=1/GPa)
#
#
# Indices 1 2 3 4 5 6 
#
# 1 0.007884 -0.003237 -0.002620 0.000000 0.000000 0.000000
# 2 -0.003237 0.021715 -0.005979 0.000000 0.000000 0.000000
# 3 -0.002620 -0.005979 0.012462 0.000000 0.000000 0.000000
# 4 0.000000 0.000000 0.000000 0.043688 0.000000 0.000000
# 5 0.000000 0.000000 0.000000 0.000000 0.030038 0.000000
# 6 0.000000 0.000000 0.000000 0.000000 0.000000 0.034096
#
#
# Mechanical properties :
#
#
# Convention : Reuss Voigt Hill
#
# Bulk Modulus (GPa) = 54.37912 65.17947 59.77929
# Shear Modulus (GPa) = 27.82661 30.66097 29.24379
#
# Velocity S-wave (km/s) = 3.63760 3.81837 3.72908
# Velocity P-wave (km/s) = 6.59554 7.10169 6.85329
#
# Compressibility (1/GPa) = 0.01838941
#
# Stress axis : x y z
#
# Youngs Moduli (GPa) = 126.83625 46.05116 80.24498
#
# Poissons Ratio (x) = 0.14908 0.21022
# Poissons Ratio (y) = 0.41062 0.47976
# Poissons Ratio (z) = 0.33228 0.27532
#
# Static dielectric constant tensor:
#      x y z
#    x 3.926720 0.000000 0.000000 
#    y 0.000000 5.000510 0.000000 
#    z 0.000000 0.000000 3.468080 
# 
# 
# High freq. dielectric constant tensor:
#      x y z
#    x 1.835380 0.000000 0.000000 
#    y 0.000000 1.853970 0.000000 
#    z 0.000000 0.000000 1.785570 
# 
# From -- ./inp_files/37321.got.cif
#   From: 2010.03.12/outbox.cif.g09.slc.cpg/sg67_19_cif.got.tgz:37321.got - 2010.04.10 22:41:39.
