data_PCOD8278970
_publ_section_title
;
Structure prediction by ZEFSAII (Michael W. Deem and Ramdas Pophale) SiO2 
 PCOD8278970
Probable space group: C M M A
;
_chemical_formula_sum "Si O2"
_cell_formula_units_Z 104
_cell_length_a 9.544432
_cell_length_b 21.068007
_cell_length_c 28.540318
_cell_angle_alpha 90.000000
_cell_angle_beta 90.000000
_cell_angle_gamma 90.000000
_cell_volume 5738.948796
_symmetry_space_group_name_H-M "C M M A"
_symmetry_group_IT_number 67
_symmetry_cell_setting 'orthorhombic'
loop_
_space_group_symop_operation_xyz
x,y,z
-x,1/2-y,z
x,-y,-z
-x,1/2+y,-z
-x,-y,-z
x,1/2+y,-z
-x,y,z
x,1/2-y,z
1/2+x,1/2+y,z
1/2-x,-y,z
1/2+x,1/2-y,-z
1/2-x,y,-z
1/2-x,1/2-y,-z
1/2+x,y,-z
1/2-x,1/2+y,z
1/2+x,-y,z
loop_
_atom_site_type_symbol
_atom_site_label
_atom_site_fract_x
_atom_site_fract_y
_atom_site_fract_z
Si Si1 0.000000 0.590923 0.544592
Si Si2 0.162647 0.825295 0.303802
Si Si3 0.828388 0.938125 0.950867
Si Si4 0.731421 0.868862 0.598337
Si Si5 0.165648 0.820715 0.885785
Si Si6 0.655766 0.175144 0.781990
Si Si7 0.500000 0.443106 0.441953
Si Si8 0.148279 0.750000 0.457133
O O1 0.126411 0.623908 0.570563
O O2 0.000000 0.602293 0.488570
O O3 0.000000 0.516219 0.547702
O O4 0.177932 0.750000 0.308030
O O5 0.247368 0.858883 0.346068
O O6 0.235496 0.851395 0.256466
O O7 0.000000 0.845818 0.304085
O O8 0.787555 0.875539 0.921466
O O9 0.000000 0.946926 0.955126
O O10 0.750000 0.000000 0.928094
O O11 0.750000 0.927742 0.000000
O O12 0.637430 0.930489 0.588717
O O13 0.654365 0.808640 0.577596
O O14 0.225068 0.750000 0.899723
O O15 0.216422 0.840866 0.833705
O O16 0.000000 0.815542 0.884428
O O17 0.500000 0.145338 0.774507
O O18 0.643113 0.250000 0.776795
O O19 0.250000 0.750000 0.500000
O O20 0.000000 0.750000 0.482947
#
# Coordination Sequence:
#
# PCOD8278970 Si02
#       8
#     8  16  16  16  16  16   8   8
#     4  11  26  39  61  83  97 136 185 221 246 305
#     4  10  19  34  51  76 110 142 167 201 264 326
#     4  10  19  32  51  75 108 150 189 227 269 323
#     4  12  23  38  58  82 110 136 169 213 265 318
#     4   8  15  30  52  79 107 138 179 227 279 319
#     4   8  15  29  52  78 103 131 172 221 261 311
#     4  11  22  45  61  75 103 138 179 215 258 307
#     4  12  24  38  56  80 114 144 162 206 271 326
#
# _framework density 18.121786
#
# number of rings (size 3 to 8) (size 9 to 14) (size 15 to 20)
#    0.000    2.000    2.308    3.692    2.154    1.538 
#    0.000    1.538    0.000    5.077    0.000    0.000 
#    0.000    0.000    0.000    0.000    0.000    0.000 
#
# Total GULP energy -644301.166467 kJ/mol
# GULP energy per Si atom -12390.407047 kJ/mol
# Density = 1.808054 g / cm^3
# Si number density = 18.121786 Si / 1000 Ang^3
#
#
#
# Elastic Constant Matrix: (Units=GPa)
#
#
# Indices 1 2 3 4 5 6 
#
# 1 89.0358 26.7228 36.5419 0.0000 0.0000 0.0000
# 2 26.7228 73.3167 50.2418 0.0000 0.0000 0.0000
# 3 36.5419 50.2418 115.4591 0.0000 0.0000 0.0000
# 4 0.0000 0.0000 0.0000 14.5185 0.0000 0.0000
# 5 0.0000 0.0000 0.0000 0.0000 30.0581 0.0000
# 6 0.0000 0.0000 0.0000 0.0000 0.0000 23.8181
#
#
#
# Elastic Compliance Matrix: (Units=1/GPa)
#
#
# Indices 1 2 3 4 5 6 
#
# 1 0.013299 -0.002797 -0.002992 0.000000 0.000000 0.000000
# 2 -0.002797 0.020023 -0.007828 0.000000 0.000000 0.000000
# 3 -0.002992 -0.007828 0.013014 0.000000 0.000000 0.000000
# 4 0.000000 0.000000 0.000000 0.068878 0.000000 0.000000
# 5 0.000000 0.000000 0.000000 0.000000 0.033269 0.000000
# 6 0.000000 0.000000 0.000000 0.000000 0.000000 0.041985
#
#
# Mechanical properties :
#
#
# Convention : Reuss Voigt Hill
#
# Bulk Modulus (GPa) = 52.34816 56.09160 54.21988
# Shear Modulus (GPa) = 22.31462 24.63263 23.47362
#
# Velocity S-wave (km/s) = 3.51289 3.69084 3.60297
# Velocity P-wave (km/s) = 6.73821 7.01305 6.87700
#
# Compressibility (1/GPa) = 0.01910287
#
# Stress axis : x y z
#
# Youngs Moduli (GPa) = 75.19461 49.94242 76.83900
#
# Poissons Ratio (x) = 0.13969 0.22989
# Poissons Ratio (y) = 0.21032 0.60148
# Poissons Ratio (z) = 0.22497 0.39094
#
# Static dielectric constant tensor:
#      x y z
#    x 3.409990 0.000000 0.000000 
#    y 0.000000 3.351300 0.000000 
#    z 0.000000 0.000000 3.590740 
# 
# 
# High freq. dielectric constant tensor:
#      x y z
#    x 1.696920 0.000000 0.000000 
#    y 0.000000 1.682460 0.000000 
#    z 0.000000 0.000000 1.700540 
# 
# From -- ./inp_files/43767.got.cif
#   From: 2010.03.12/outbox.cif.g09.slc.cpg/sg67_22_cif.got.tgz:43767.got - 2010.04.10 22:41:39.
