data_PCOD8278010
_publ_section_title
;
Structure prediction by ZEFSAII (Michael W. Deem and Ramdas Pophale) SiO2 
 PCOD8278010
Probable space group: C M M A
;
_chemical_formula_sum "Si O2"
_cell_formula_units_Z 112
_cell_length_a 19.812367
_cell_length_b 21.392512
_cell_length_c 16.296924
_cell_angle_alpha 90.000000
_cell_angle_beta 90.000000
_cell_angle_gamma 90.000000
_cell_volume 6907.227950
_symmetry_space_group_name_H-M "C M M A"
_symmetry_group_IT_number 67
_symmetry_cell_setting 'orthorhombic'
loop_
_space_group_symop_operation_xyz
x,y,z
-x,1/2-y,z
x,-y,-z
-x,1/2+y,-z
-x,-y,-z
x,1/2+y,-z
-x,y,z
x,1/2-y,z
1/2+x,1/2+y,z
1/2-x,-y,z
1/2+x,1/2-y,-z
1/2-x,y,-z
1/2-x,1/2-y,-z
1/2+x,y,-z
1/2-x,1/2+y,z
1/2+x,-y,z
loop_
_atom_site_type_symbol
_atom_site_label
_atom_site_fract_x
_atom_site_fract_y
_atom_site_fract_z
Si Si1 0.076144 0.492176 0.782005
Si Si2 0.576400 0.364600 0.784903
Si Si3 0.579911 0.559916 0.952204
Si Si4 0.326575 0.602261 0.492706
Si Si5 0.580519 0.319067 0.954733
Si Si6 0.423298 0.676401 0.389205
Si Si7 0.326020 0.990537 0.631835
O O1 0.080248 0.563465 0.811877
O O2 0.098780 0.447001 0.856356
O O3 0.125314 0.482452 0.707365
O O4 0.000000 0.476271 0.753795
O O5 0.500000 0.341336 0.773505
O O6 0.609124 0.327363 0.861582
O O7 0.609829 0.351076 0.695689
O O8 0.500000 0.559261 0.963911
O O9 0.610845 0.500000 0.000000
O O10 0.609501 0.626024 0.986139
O O11 0.250000 0.627459 0.500000
O O12 0.377862 0.657375 0.467938
O O13 0.340426 0.549852 0.424495
O O14 0.340568 0.572628 0.581298
O O15 0.500000 0.324669 0.951935
O O16 0.602626 0.250000 0.986739
O O17 0.500000 0.651477 0.402730
O O18 0.422362 0.750000 0.382460
O O19 0.250000 0.000000 0.664202
#
# Coordination Sequence:
#
# PCOD8278010 Si02
#       7
#    16  16  16  16  16  16  16
#     4  10  17  26  45  69  92 117 146 186 231 271
#     4   9  15  24  39  64  94 120 145 179 228 276
#     4   9  15  24  38  61  90 117 147 184 223 267
#     4   9  18  32  48  65  87 119 155 188 227 274
#     4   9  15  23  37  59  91 126 152 179 222 273
#     4  10  19  29  43  67  98 124 148 187 234 275
#     4   9  18  32  48  66  89 117 149 190 235 273
#
# _framework density 16.214898000000002
#
# number of rings (size 3 to 8) (size 9 to 14) (size 15 to 20)
#    0.000    2.714    2.857    1.286    0.000    2.571 
#    0.000    1.429    0.000    1.286    0.000    2.000 
#    0.000    1.143    0.000    0.000    0.000    0.000 
#
# Total GULP energy -693820.404618 kJ/mol
# GULP energy per Si atom -12389.650082 kJ/mol
# Density = 1.617799 g / cm^3
# Si number density = 16.214898 Si / 1000 Ang^3
#
#
#
# Elastic Constant Matrix: (Units=GPa)
#
#
# Indices 1 2 3 4 5 6 
#
# 1 48.1091 28.0232 52.2418 0.0000 0.0000 0.0000
# 2 28.0232 81.4842 47.9845 0.0000 0.0000 0.0000
# 3 52.2418 47.9845 106.2863 0.0000 0.0000 0.0000
# 4 0.0000 0.0000 0.0000 21.9409 0.0000 0.0000
# 5 0.0000 0.0000 0.0000 0.0000 9.2476 0.0000
# 6 0.0000 0.0000 0.0000 0.0000 0.0000 13.2602
#
#
#
# Elastic Compliance Matrix: (Units=1/GPa)
#
#
# Indices 1 2 3 4 5 6 
#
# 1 0.045245 -0.003357 -0.020723 0.000000 0.000000 0.000000
# 2 -0.003357 0.016966 -0.006010 0.000000 0.000000 0.000000
# 3 -0.020723 -0.006010 0.022308 0.000000 0.000000 0.000000
# 4 0.000000 0.000000 0.000000 0.045577 0.000000 0.000000
# 5 0.000000 0.000000 0.000000 0.000000 0.108136 0.000000
# 6 0.000000 0.000000 0.000000 0.000000 0.000000 0.075414
#
#
# Mechanical properties :
#
#
# Convention : Reuss Voigt Hill
#
# Bulk Modulus (GPa) = 41.08619 54.70873 47.89746
# Shear Modulus (GPa) = 13.09118 16.06508 14.57813
#
# Velocity S-wave (km/s) = 2.84448 3.15105 3.00168
# Velocity P-wave (km/s) = 6.01512 6.85944 6.45110
#
# Compressibility (1/GPa) = 0.02433908
#
# Stress axis : x y z
#
# Youngs Moduli (GPa) = 22.10198 58.94287 44.82779
#
# Poissons Ratio (x) = 0.19784 0.92898
# Poissons Ratio (y) = 0.07419 0.26940
# Poissons Ratio (z) = 0.45803 0.35422
#
# Static dielectric constant tensor:
#      x y z
#    x 2.692710 0.000000 0.000000 
#    y 0.000000 3.100070 0.000000 
#    z 0.000000 0.000000 3.209400 
# 
# 
# High freq. dielectric constant tensor:
#      x y z
#    x 1.570040 0.000000 0.000000 
#    y 0.000000 1.616590 0.000000 
#    z 0.000000 0.000000 1.623710 
# 
# From -- ./inp_files/34447.got.cif
#   From: 2010.03.12/outbox.cif.g09.slc.cpg/sg67_18_cif.got.tgz:34447.got - 2010.04.10 22:41:39.
