data_PCOD8278992
_publ_section_title
;
Structure prediction by ZEFSAII (Michael W. Deem and Ramdas Pophale) SiO2 
 PCOD8278992
Probable space group: C M M A
;
_chemical_formula_sum "Si O2"
_cell_formula_units_Z 64
_cell_length_a 18.952372
_cell_length_b 8.828398
_cell_length_c 20.889552
_cell_angle_alpha 90.000000
_cell_angle_beta 90.000000
_cell_angle_gamma 90.000000
_cell_volume 3495.220686
_symmetry_space_group_name_H-M "C M M A"
_symmetry_group_IT_number 67
_symmetry_cell_setting 'orthorhombic'
loop_
_space_group_symop_operation_xyz
x,y,z
-x,1/2-y,z
x,-y,-z
-x,1/2+y,-z
-x,-y,-z
x,1/2+y,-z
-x,y,z
x,1/2-y,z
1/2+x,1/2+y,z
1/2-x,-y,z
1/2+x,1/2-y,-z
1/2-x,y,-z
1/2-x,1/2-y,-z
1/2+x,y,-z
1/2-x,1/2+y,z
1/2+x,-y,z
loop_
_atom_site_type_symbol
_atom_site_label
_atom_site_fract_x
_atom_site_fract_y
_atom_site_fract_z
Si Si1 0.175025 0.069788 0.933101
Si Si2 0.173828 0.572572 0.298628
Si Si3 0.078826 0.570261 0.184187
Si Si4 0.326458 0.573521 0.560747
O O1 0.182299 0.250000 0.939114
O O2 0.118584 0.019740 0.880098
O O3 0.250000 0.000000 0.913194
O O4 0.148802 0.000000 0.000000
O O5 0.184890 0.750000 0.288401
O O6 0.250000 0.500000 0.289268
O O7 0.120116 0.505606 0.246085
O O8 0.139979 0.540102 0.369260
O O9 0.075247 0.750000 0.188373
O O10 0.000000 0.501346 0.183320
O O11 0.368940 0.500000 0.500000
O O12 0.320137 0.750000 0.547794
O O13 0.250000 0.500000 0.562353
#
# Coordination Sequence:
#
# PCOD8278992 Si02
#       4
#    16  16  16  16
#     4  10  19  32  52  74  96 122 151 187 228 270
#     4   9  17  29  47  69  91 118 153 191 229 270
#     4   9  18  32  49  69  93 122 156 191 226 267
#     4   9  15  23  38  62  89 115 144 182 227 269
#
# _framework density 18.310718000000001
#
# number of rings (size 3 to 8) (size 9 to 14) (size 15 to 20)
#    0.000    2.750    0.000    3.750    0.000    1.500 
#    0.000    1.250    0.000    6.750    0.000    0.000 
#    0.000    0.000    0.000    0.000    0.000    6.750 
#
# Total GULP energy -396529.394300 kJ/mol
# GULP energy per Si atom -12391.543572 kJ/mol
# Density = 1.826904 g / cm^3
# Si number density = 18.310718 Si / 1000 Ang^3
#
#
#
# Elastic Constant Matrix: (Units=GPa)
#
#
# Indices 1 2 3 4 5 6 
#
# 1 107.6814 27.2580 95.5317 0.0000 0.0000 0.0000
# 2 27.2580 62.2420 49.4503 0.0000 0.0000 0.0000
# 3 95.5317 49.4503 196.5584 0.0000 0.0000 0.0000
# 4 0.0000 0.0000 0.0000 -3.2928 0.0000 0.0000
# 5 0.0000 0.0000 0.0000 0.0000 6.9747 0.0000
# 6 0.0000 0.0000 0.0000 0.0000 0.0000 13.8559
#
#
#
# Elastic Compliance Matrix: (Units=1/GPa)
#
#
# Indices 1 2 3 4 5 6 
#
# 1 0.016382 -0.001061 -0.007695 0.000000 0.000000 0.000000
# 2 -0.001061 0.020148 -0.004554 0.000000 0.000000 0.000000
# 3 -0.007695 -0.004554 0.009973 0.000000 0.000000 0.000000
# 4 0.000000 0.000000 0.000000 -0.303692 0.000000 0.000000
# 5 0.000000 0.000000 0.000000 0.000000 0.143376 0.000000
# 6 0.000000 0.000000 0.000000 0.000000 0.000000 0.072172
#
#
# Mechanical properties :
#
#
# Convention : Reuss Voigt Hill
#
# Bulk Modulus (GPa) = 50.28880 78.99573 64.64226
# Shear Modulus (GPa) = -595.65413 16.45700 -289.59857
#
# Velocity S-wave (km/s) = -18.05574 3.00119 -12.58973
# Velocity P-wave (km/s) = 20.17810 7.43270 13.26482
#
# Compressibility (1/GPa) = 0.01988514
#
# Stress axis : x y z
#
# Youngs Moduli (GPa) = 61.04219 49.63153 100.26890
#
# Poissons Ratio (x) = 0.05264 0.77159
# Poissons Ratio (y) = 0.06474 0.45658
# Poissons Ratio (z) = 0.46973 0.22600
#
# Static dielectric constant tensor:
#      x y z
#    x 3.181120 0.000000 0.000000 
#    y 0.000000 3.239030 0.000000 
#    z 0.000000 0.000000 4.378580 
# 
# 
# High freq. dielectric constant tensor:
#      x y z
#    x 1.665560 0.000000 0.000000 
#    y 0.000000 1.693390 0.000000 
#    z 0.000000 0.000000 1.740010 
# 
# From -- ./inp_files/36565.got.cif
#   From: 2010.03.12/outbox.cif.g09.slc.cpg/sg67_19_cif.got.tgz:36565.got - 2010.04.10 22:41:39.
