data_PCOD8278057
_publ_section_title
;
Structure prediction by ZEFSAII (Michael W. Deem and Ramdas Pophale) SiO2 
 PCOD8278057
Probable space group: C M M A
;
_chemical_formula_sum "Si O2"
_cell_formula_units_Z 96
_cell_length_a 30.744177
_cell_length_b 8.700836
_cell_length_c 20.077740
_cell_angle_alpha 90.000000
_cell_angle_beta 90.000000
_cell_angle_gamma 90.000000
_cell_volume 5370.796294
_symmetry_space_group_name_H-M "C M M A"
_symmetry_group_IT_number 67
_symmetry_cell_setting 'orthorhombic'
loop_
_space_group_symop_operation_xyz
x,y,z
-x,1/2-y,z
x,-y,-z
-x,1/2+y,-z
-x,-y,-z
x,1/2+y,-z
-x,y,z
x,1/2-y,z
1/2+x,1/2+y,z
1/2-x,-y,z
1/2+x,1/2-y,-z
1/2-x,y,-z
1/2-x,1/2-y,-z
1/2+x,y,-z
1/2-x,1/2+y,z
1/2+x,-y,z
loop_
_atom_site_type_symbol
_atom_site_label
_atom_site_fract_x
_atom_site_fract_y
_atom_site_fract_z
Si Si1 0.382817 0.567715 0.670281
Si Si2 0.613646 0.571818 0.820379
Si Si3 0.208809 0.428818 0.813807
Si Si4 0.793696 0.430625 0.330921
Si Si5 0.550696 0.571181 0.429916
Si Si6 0.950566 0.931993 0.069702
O O1 0.378711 0.750000 0.670412
O O2 0.389883 0.503398 0.745711
O O3 0.338252 0.500198 0.638502
O O4 0.423923 0.514648 0.628228
O O5 0.602329 0.750000 0.815209
O O6 0.662502 0.547160 0.850337
O O7 0.579228 0.496214 0.871339
O O8 0.216391 0.250000 0.797598
O O9 0.250000 0.500000 0.855337
O O10 0.207067 0.525205 0.746266
O O11 0.793876 0.250000 0.341707
O O12 0.750000 0.500000 0.365654
O O13 0.565181 0.500000 0.500000
O O14 0.500000 0.541735 0.416705
O O15 0.562413 0.750000 0.429942
O O16 0.945923 0.750000 0.065673
O O17 0.000000 0.982872 0.084298
O O18 0.934141 0.000000 0.000000
#
# Coordination Sequence:
#
# PCOD8278057 Si02
#       6
#    16  16  16  16  16  16
#     4  10  19  32  51  76 102 129 164 205 248 291
#     4   8  16  29  46  69  96 124 155 194 238 285
#     4   9  15  25  41  63  91 122 156 193 235 283
#     4  10  17  27  44  68  99 132 164 199 241 288
#     4  10  21  37  55  75 100 132 168 204 244 292
#     4   9  17  31  49  67  89 120 157 194 235 286
#
# _framework density 17.874445999999999
#
# number of rings (size 3 to 8) (size 9 to 14) (size 15 to 20)
#    0.000    2.667    0.000    5.000    0.000    1.667 
#    0.000    6.667    0.000    3.000    0.000    7.000 
#    0.000    0.000    0.000    0.000    0.000    0.000 
#
# Total GULP energy -594841.262455 kJ/mol
# GULP energy per Si atom -12392.526301 kJ/mol
# Density = 1.783376 g / cm^3
# Si number density = 17.874446 Si / 1000 Ang^3
#
#
#
# Elastic Constant Matrix: (Units=GPa)
#
#
# Indices 1 2 3 4 5 6 
#
# 1 120.2586 41.4854 64.6955 0.0000 0.0000 0.0000
# 2 41.4854 84.1058 28.2337 0.0000 0.0000 0.0000
# 3 64.6955 28.2337 78.4073 0.0000 0.0000 0.0000
# 4 0.0000 0.0000 0.0000 19.8782 0.0000 0.0000
# 5 0.0000 0.0000 0.0000 0.0000 7.8538 0.0000
# 6 0.0000 0.0000 0.0000 0.0000 0.0000 30.2409
#
#
#
# Elastic Compliance Matrix: (Units=1/GPa)
#
#
# Indices 1 2 3 4 5 6 
#
# 1 0.016025 -0.003942 -0.011803 0.000000 0.000000 0.000000
# 2 -0.003942 0.014494 -0.001967 0.000000 0.000000 0.000000
# 3 -0.011803 -0.001967 0.023201 0.000000 0.000000 0.000000
# 4 0.000000 0.000000 0.000000 0.050306 0.000000 0.000000
# 5 0.000000 0.000000 0.000000 0.000000 0.127326 0.000000
# 6 0.000000 0.000000 0.000000 0.000000 0.000000 0.033068
#
#
# Mechanical properties :
#
#
# Convention : Reuss Voigt Hill
#
# Bulk Modulus (GPa) = 54.65400 61.28900 57.97150
# Shear Modulus (GPa) = 16.34288 21.48505 18.91396
#
# Velocity S-wave (km/s) = 3.02704 3.47075 3.25646
# Velocity P-wave (km/s) = 6.54678 7.10102 6.82952
#
# Compressibility (1/GPa) = 0.01829692
#
# Stress axis : x y z
#
# Youngs Moduli (GPa) = 62.40235 68.99206 43.10164
#
# Poissons Ratio (x) = 0.27198 0.50873
# Poissons Ratio (y) = 0.24600 0.08476
# Poissons Ratio (z) = 0.73654 0.13567
#
# Static dielectric constant tensor:
#      x y z
#    x 4.003990 0.000000 0.000000 
#    y 0.000000 3.246420 0.000000 
#    z 0.000000 0.000000 3.071810 
# 
# 
# High freq. dielectric constant tensor:
#      x y z
#    x 1.712920 0.000000 0.000000 
#    y 0.000000 1.687820 0.000000 
#    z 0.000000 0.000000 1.641270 
# 
# From -- ./inp_files/42701.got.cif
#   From: 2010.03.12/outbox.cif.g09.slc.cpg/sg67_22_cif.got.tgz:42701.got - 2010.04.10 22:41:39.
