data_PCOD8278624
_publ_section_title
;
Structure prediction by ZEFSAII (Michael W. Deem and Ramdas Pophale) SiO2 
 PCOD8278624
Probable space group: C M M A
;
_chemical_formula_sum "Si O2"
_cell_formula_units_Z 80
_cell_length_a 14.417351
_cell_length_b 23.293018
_cell_length_c 15.013738
_cell_angle_alpha 90.000000
_cell_angle_beta 90.000000
_cell_angle_gamma 90.000000
_cell_volume 5041.967790
_symmetry_space_group_name_H-M "C M M A"
_symmetry_group_IT_number 67
_symmetry_cell_setting 'orthorhombic'
loop_
_space_group_symop_operation_xyz
x,y,z
-x,1/2-y,z
x,-y,-z
-x,1/2+y,-z
-x,-y,-z
x,1/2+y,-z
-x,y,z
x,1/2-y,z
1/2+x,1/2+y,z
1/2-x,-y,z
1/2+x,1/2-y,-z
1/2-x,y,-z
1/2-x,1/2-y,-z
1/2+x,y,-z
1/2-x,1/2+y,z
1/2+x,-y,z
loop_
_atom_site_type_symbol
_atom_site_label
_atom_site_fract_x
_atom_site_fract_y
_atom_site_fract_z
Si Si1 0.103298 0.997145 0.605341
Si Si2 0.247112 0.407479 0.604955
Si Si3 0.000000 0.181662 0.018892
Si Si4 0.805758 0.818203 0.916123
Si Si5 0.803211 0.317952 0.744177
Si Si6 0.500000 0.682190 0.818132
O O1 0.157452 0.939160 0.633595
O O2 0.000000 0.997153 0.648033
O O3 0.096549 0.000000 0.500000
O O4 0.160961 0.052822 0.635523
O O5 0.250000 0.394889 0.500000
O O6 0.235416 0.347252 0.655011
O O7 0.088779 0.160000 0.074435
O O8 0.000000 0.250000 0.011971
O O9 0.000000 0.156145 0.918334
O O10 0.799321 0.750000 0.917729
O O11 0.760967 0.840495 0.824917
O O12 0.750000 0.843565 0.000000
O O13 0.795730 0.250000 0.730102
O O14 0.908796 0.337301 0.764259
O O15 0.500000 0.750000 0.828447
#
# Coordination Sequence:
#
# PCOD8278624 Si02
#       6
#    16  16   8  16  16   8
#     4   8  15  31  53  70  84 107 151 208 246 263
#     4   9  18  31  48  71  93 121 155 187 229 274
#     4   9  14  24  42  59  82 119 160 199 232 261
#     4   9  15  25  41  60  87 122 155 191 229 262
#     4  10  19  29  43  68 101 130 153 182 226 283
#     4   9  16  26  42  65  91 121 159 195 224 265
#
# _framework density 15.866820000000001
#
# number of rings (size 3 to 8) (size 9 to 14) (size 15 to 20)
#    0.000    3.000    2.000    1.200    1.400    0.400 
#    1.800    0.000    0.000    0.000    0.000    2.800 
#    0.000    8.000    0.000    0.000    0.000    0.000 
#
# Total GULP energy -495724.195863 kJ/mol
# GULP energy per Si atom -12393.104897 kJ/mol
# Density = 1.583071 g / cm^3
# Si number density = 15.866820 Si / 1000 Ang^3
#
#
#
# Elastic Constant Matrix: (Units=GPa)
#
#
# Indices 1 2 3 4 5 6 
#
# 1 148.1996 34.6199 48.1967 0.0000 0.0000 0.0000
# 2 34.6199 46.4846 38.1585 0.0000 0.0000 0.0000
# 3 48.1967 38.1585 81.6691 0.0000 0.0000 0.0000
# 4 0.0000 0.0000 0.0000 4.4492 0.0000 0.0000
# 5 0.0000 0.0000 0.0000 0.0000 21.0532 0.0000
# 6 0.0000 0.0000 0.0000 0.0000 0.0000 11.2332
#
#
#
# Elastic Compliance Matrix: (Units=1/GPa)
#
#
# Indices 1 2 3 4 5 6 
#
# 1 0.008722 -0.003683 -0.003427 0.000000 0.000000 0.000000
# 2 -0.003683 0.036452 -0.014858 0.000000 0.000000 0.000000
# 3 -0.003427 -0.014858 0.021209 0.000000 0.000000 0.000000
# 4 0.000000 0.000000 0.000000 0.224759 0.000000 0.000000
# 5 0.000000 0.000000 0.000000 0.000000 0.047499 0.000000
# 6 0.000000 0.000000 0.000000 0.000000 0.000000 0.089022
#
#
# Mechanical properties :
#
#
# Convention : Reuss Voigt Hill
#
# Bulk Modulus (GPa) = 44.54767 57.58929 51.06848
# Shear Modulus (GPa) = 10.43662 17.70567 14.07115
#
# Velocity S-wave (km/s) = 2.56747 3.34412 2.98120
# Velocity P-wave (km/s) = 6.07669 7.16136 6.64121
#
# Compressibility (1/GPa) = 0.02244786
#
# Stress axis : x y z
#
# Youngs Moduli (GPa) = 114.64653 27.43297 47.15004
#
# Poissons Ratio (x) = 0.10104 0.16156
# Poissons Ratio (y) = 0.42228 0.70056
# Poissons Ratio (z) = 0.39284 0.40760
#
# Static dielectric constant tensor:
#      x y z
#    x 3.547640 0.000000 0.000000 
#    y 0.000000 2.518260 0.000000 
#    z 0.000000 0.000000 2.816790 
# 
# 
# High freq. dielectric constant tensor:
#      x y z
#    x 1.627850 0.000000 0.000000 
#    y 0.000000 1.555110 0.000000 
#    z 0.000000 0.000000 1.590180 
# 
# From -- ./inp_files/18021.got.cif
#   From: 2010.03.12/outbox.cif.g09.slc.cpg/sg67_10_cif.got.tgz:18021.got - 2010.04.10 22:41:39.
