data_PCOD8278825
_publ_section_title
;
Structure prediction by ZEFSAII (Michael W. Deem and Ramdas Pophale) SiO2 
 PCOD8278825
Probable space group: C M M A
;
_chemical_formula_sum "Si O2"
_cell_formula_units_Z 96
_cell_length_a 9.907857
_cell_length_b 26.537697
_cell_length_c 22.188712
_cell_angle_alpha 90.000000
_cell_angle_beta 90.000000
_cell_angle_gamma 90.000000
_cell_volume 5834.115922
_symmetry_space_group_name_H-M "C M M A"
_symmetry_group_IT_number 67
_symmetry_cell_setting 'orthorhombic'
loop_
_space_group_symop_operation_xyz
x,y,z
-x,1/2-y,z
x,-y,-z
-x,1/2+y,-z
-x,-y,-z
x,1/2+y,-z
-x,y,z
x,1/2-y,z
1/2+x,1/2+y,z
1/2-x,-y,z
1/2+x,1/2-y,-z
1/2-x,y,-z
1/2-x,1/2-y,-z
1/2+x,y,-z
1/2-x,1/2+y,z
1/2+x,-y,z
loop_
_atom_site_type_symbol
_atom_site_label
_atom_site_fract_x
_atom_site_fract_y
_atom_site_fract_z
Si Si1 0.340507 0.692828 0.198516
Si Si2 0.268310 0.403920 0.862714
Si Si3 0.345744 0.453965 0.738954
Si Si4 0.157708 0.148331 0.321510
Si Si5 0.000000 0.446433 0.918100
Si Si6 0.500000 0.435928 0.943335
Si Si7 0.344689 0.690605 0.445679
O O1 0.500000 0.680489 0.193851
O O2 0.308299 0.750000 0.179534
O O3 0.259879 0.655381 0.153947
O O4 0.288580 0.683281 0.266783
O O5 0.327120 0.435055 0.806855
O O6 0.366288 0.409322 0.919391
O O7 0.125397 0.426397 0.880357
O O8 0.500000 0.471407 0.730972
O O9 0.250000 0.500000 0.722850
O O10 0.308148 0.409787 0.692151
O O11 0.218426 0.164722 0.385739
O O12 0.000000 0.157875 0.326213
O O13 0.000000 0.506404 0.922124
O O14 0.000000 0.425895 0.985650
O O15 0.500000 0.674460 0.458394
O O16 0.334679 0.750000 0.436427
O O17 0.250000 0.672045 0.500000
#
# Coordination Sequence:
#
# PCOD8278825 Si02
#       7
#    16  16  16  16   8   8  16
#     4   9  16  30  54  76  96 127 167 207 242 285
#     4  11  20  34  51  76  99 126 163 202 245 294
#     4  10  19  31  50  72  98 126 158 202 245 290
#     4   8  15  28  46  73  98 123 163 202 236 281
#     4  11  24  32  53  73 101 133 157 196 250 296
#     4  11  20  38  51  73  99 129 165 198 238 296
#     4   9  16  27  46  70  97 127 158 195 239 284
#
# _framework density 16.454936
#
# number of rings (size 3 to 8) (size 9 to 14) (size 15 to 20)
#    0.000    2.333    1.667    3.500    1.167    3.333 
#    0.000    1.250    1.833    3.500    0.000    3.500 
#    0.000    0.000    0.000    0.000    0.000    0.000 
#
# Total GULP energy -595111.521080 kJ/mol
# GULP energy per Si atom -12398.156689 kJ/mol
# Density = 1.641748 g / cm^3
# Si number density = 16.454936 Si / 1000 Ang^3
#
#
#
# Elastic Constant Matrix: (Units=GPa)
#
#
# Indices 1 2 3 4 5 6 
#
# 1 61.1470 27.9782 22.8833 0.0000 0.0000 0.0000
# 2 27.9782 84.2344 39.9757 0.0000 0.0000 0.0000
# 3 22.8833 39.9757 95.7881 0.0000 0.0000 0.0000
# 4 0.0000 0.0000 0.0000 26.8561 0.0000 0.0000
# 5 0.0000 0.0000 0.0000 0.0000 117.3225 0.0000
# 6 0.0000 0.0000 0.0000 0.0000 0.0000 37.3340
#
#
#
# Elastic Compliance Matrix: (Units=1/GPa)
#
#
# Indices 1 2 3 4 5 6 
#
# 1 0.019742 -0.005386 -0.002469 0.000000 0.000000 0.000000
# 2 -0.005386 0.016273 -0.005505 0.000000 0.000000 0.000000
# 3 -0.002469 -0.005505 0.013327 0.000000 0.000000 0.000000
# 4 0.000000 0.000000 0.000000 0.037236 0.000000 0.000000
# 5 0.000000 0.000000 0.000000 0.000000 0.008524 0.000000
# 6 0.000000 0.000000 0.000000 0.000000 0.000000 0.026785
#
#
# Mechanical properties :
#
#
# Convention : Reuss Voigt Hill
#
# Bulk Modulus (GPa) = 44.20131 46.98264 45.59198
# Shear Modulus (GPa) = 32.02146 46.32465 39.17306
#
# Velocity S-wave (km/s) = 4.41615 5.31164 4.88446
# Velocity P-wave (km/s) = 7.27485 8.13833 7.71867
#
# Compressibility (1/GPa) = 0.02262376
#
# Stress axis : x y z
#
# Youngs Moduli (GPa) = 50.65300 61.45207 75.03719
#
# Poissons Ratio (x) = 0.33096 0.18524
# Poissons Ratio (y) = 0.27280 0.41305
# Poissons Ratio (z) = 0.12504 0.33827
#
# Static dielectric constant tensor:
#      x y z
#    x 2.892800 0.000000 0.000000 
#    y 0.000000 3.133470 0.000000 
#    z 0.000000 0.000000 3.217440 
# 
# 
# High freq. dielectric constant tensor:
#      x y z
#    x 1.612130 0.000000 0.000000 
#    y 0.000000 1.626180 0.000000 
#    z 0.000000 0.000000 1.630000 
# 
# From -- ./inp_files/38002.got.cif
#   From: 2010.03.12/outbox.cif.g09.slc.cpg/sg67_20_cif.got.tgz:38002.got - 2010.04.10 22:41:39.
