data_PCOD8278584
_publ_section_title
;
Structure prediction by ZEFSAII (Michael W. Deem and Ramdas Pophale) SiO2 
 PCOD8278584
Probable space group: C M M A
;
_chemical_formula_sum "Si O2"
_cell_formula_units_Z 88
_cell_length_a 25.576536
_cell_length_b 20.984247
_cell_length_c 7.368332
_cell_angle_alpha 90.000000
_cell_angle_beta 90.000000
_cell_angle_gamma 90.000000
_cell_volume 3954.615828
_symmetry_space_group_name_H-M "C M M A"
_symmetry_group_IT_number 67
_symmetry_cell_setting 'orthorhombic'
loop_
_space_group_symop_operation_xyz
x,y,z
-x,1/2-y,z
x,-y,-z
-x,1/2+y,-z
-x,-y,-z
x,1/2+y,-z
-x,y,z
x,1/2-y,z
1/2+x,1/2+y,z
1/2-x,-y,z
1/2+x,1/2-y,-z
1/2-x,y,-z
1/2-x,1/2-y,-z
1/2+x,y,-z
1/2-x,1/2+y,z
1/2+x,-y,z
loop_
_atom_site_type_symbol
_atom_site_label
_atom_site_fract_x
_atom_site_fract_y
_atom_site_fract_z
Si Si1 0.109791 0.250000 0.976264
Si Si2 0.336957 0.946246 0.368256
Si Si3 0.057741 0.882276 0.039532
Si Si4 0.401903 0.750000 0.403835
Si Si5 0.690683 0.250000 0.315761
Si Si6 0.250000 0.645546 0.500000
Si Si7 0.056419 0.616504 0.611921
Si Si8 0.125920 0.500000 0.000000
O O1 0.081317 0.186052 0.901454
O O2 0.166850 0.250000 0.885739
O O3 0.115336 0.250000 0.192429
O O4 0.294429 0.891386 0.387957
O O5 0.394072 0.925747 0.446817
O O6 0.315445 0.000000 0.500000
O O7 0.338746 0.968890 0.158392
O O8 0.000000 0.888704 0.127524
O O9 0.053813 0.884116 0.826006
O O10 0.091790 0.944085 0.098030
O O11 0.350631 0.750000 0.522160
O O12 0.436338 0.688787 0.454050
O O13 0.725264 0.187049 0.338708
O O14 0.000000 0.591689 0.534815
#
# Coordination Sequence:
#
# PCOD8278584 Si02
#       8
#     8  16  16   8   8   8  16   8
#     4  10  22  37  67  95 130 170 219 275 328 394
#     4  11  24  44  66  93 130 170 218 267 328 388
#     4   9  18  36  63  98 135 175 215 264 326 394
#     4  10  18  39  64  91 133 161 206 267 323 392
#     4  11  24  44  70  92 122 170 217 279 337 386
#     4  11  25  48  70  90 129 171 216 292 338 377
#     4   9  18  35  64  96 130 166 206 258 322 390
#     4  10  23  40  69  96 134 176 219 269 324 408
#
# _framework density 22.252476999999999
#
# number of rings (size 3 to 8) (size 9 to 14) (size 15 to 20)
#    0.000    2.000    1.818    1.091    2.545    3.273 
#    0.000    9.091    0.000    0.000    0.000    0.000 
#    0.000    0.000    0.000    0.000    0.000    0.000 
#
# Total GULP energy -545325.347717 kJ/mol
# GULP energy per Si atom -12393.757903 kJ/mol
# Density = 2.220183 g / cm^3
# Si number density = 22.252477 Si / 1000 Ang^3
#
#
#
# Elastic Constant Matrix: (Units=GPa)
#
#
# Indices 1 2 3 4 5 6 
#
# 1 139.8721 52.3223 31.0354 0.0000 0.0000 0.0000
# 2 52.3223 135.3213 21.6910 0.0000 0.0000 0.0000
# 3 31.0354 21.6910 62.6597 0.0000 0.0000 0.0000
# 4 0.0000 0.0000 0.0000 -3.6354 0.0000 0.0000
# 5 0.0000 0.0000 0.0000 0.0000 48.1649 0.0000
# 6 0.0000 0.0000 0.0000 0.0000 0.0000 29.5866
#
#
#
# Elastic Compliance Matrix: (Units=1/GPa)
#
#
# Indices 1 2 3 4 5 6 
#
# 1 0.009011 -0.002931 -0.003448 0.000000 0.000000 0.000000
# 2 -0.002931 0.008778 -0.001587 0.000000 0.000000 0.000000
# 3 -0.003448 -0.001587 0.018216 0.000000 0.000000 0.000000
# 4 0.000000 0.000000 0.000000 -0.275071 0.000000 0.000000
# 5 0.000000 0.000000 0.000000 0.000000 0.020762 0.000000
# 6 0.000000 0.000000 0.000000 0.000000 0.000000 0.033799
#
#
# Mechanical properties :
#
#
# Convention : Reuss Voigt Hill
#
# Bulk Modulus (GPa) = 49.82008 60.88339 55.35173
# Shear Modulus (GPa) = -30.88692 30.34350 -0.27171
#
# Velocity S-wave (km/s) = -3.72966 3.69670 -0.34981
# Velocity P-wave (km/s) = 1.97231 6.75577 4.97647
#
# Compressibility (1/GPa) = 0.02007223
#
# Stress axis : x y z
#
# Youngs Moduli (GPa) = 110.97422 113.92667 54.89532
#
# Poissons Ratio (x) = 0.33396 0.18930
# Poissons Ratio (y) = 0.32531 0.08710
# Poissons Ratio (z) = 0.38269 0.18076
#
# Static dielectric constant tensor:
#      x y z
#    x 4.412550 0.000000 0.000000 
#    y 0.000000 4.519900 0.000000 
#    z 0.000000 0.000000 3.575390 
# 
# 
# High freq. dielectric constant tensor:
#      x y z
#    x 1.876580 0.000000 0.000000 
#    y 0.000000 1.890690 0.000000 
#    z 0.000000 0.000000 1.851810 
# 
# From -- ./inp_files/12528.got.cif
#   From: 2010.03.12/outbox.cif.g09.slc.cpg/sg67_7_cif.got.tgz:12528.got - 2010.04.10 22:41:39.
