data_PCOD8278822
_publ_section_title
;
Structure prediction by ZEFSAII (Michael W. Deem and Ramdas Pophale) SiO2 
 PCOD8278822
Probable space group: C M M A
;
_chemical_formula_sum "Si O2"
_cell_formula_units_Z 104
_cell_length_a 27.479109
_cell_length_b 17.097478
_cell_length_c 12.449099
_cell_angle_alpha 90.000000
_cell_angle_beta 90.000000
_cell_angle_gamma 90.000000
_cell_volume 5848.878786
_symmetry_space_group_name_H-M "C M M A"
_symmetry_group_IT_number 67
_symmetry_cell_setting 'orthorhombic'
loop_
_space_group_symop_operation_xyz
x,y,z
-x,1/2-y,z
x,-y,-z
-x,1/2+y,-z
-x,-y,-z
x,1/2+y,-z
-x,y,z
x,1/2-y,z
1/2+x,1/2+y,z
1/2-x,-y,z
1/2+x,1/2-y,-z
1/2-x,y,-z
1/2-x,1/2-y,-z
1/2+x,y,-z
1/2-x,1/2+y,z
1/2+x,-y,z
loop_
_atom_site_type_symbol
_atom_site_label
_atom_site_fract_x
_atom_site_fract_y
_atom_site_fract_z
Si Si1 0.900677 0.339258 0.018566
Si Si2 0.500000 0.443900 0.304287
Si Si3 0.000000 0.338703 0.900233
Si Si4 0.824405 0.446533 0.901793
Si Si5 0.000000 0.342616 0.493284
Si Si6 0.243841 0.837883 0.870956
Si Si7 0.919656 0.448413 0.398818
Si Si8 0.643403 0.591116 0.211317
O O1 0.883881 0.250000 0.015334
O O2 0.899640 0.370662 0.140569
O O3 0.954324 0.352192 0.976131
O O4 0.862079 0.384208 0.946473
O O5 0.500000 0.406230 0.187510
O O6 0.500000 0.370619 0.384341
O O7 0.548056 0.496411 0.321255
O O8 0.000000 0.250000 0.852184
O O9 0.783047 0.401776 0.832500
O O10 0.851359 0.500263 0.816533
O O11 0.803313 0.500000 0.000000
O O12 0.951808 0.375635 0.437034
O O13 0.000000 0.250000 0.486455
O O14 0.255591 0.750000 0.831645
O O15 0.192347 0.861162 0.818432
O O16 0.250000 0.842316 0.000000
O O17 0.901111 0.500000 0.500000
O O18 0.873643 0.410132 0.335600
#
# Coordination Sequence:
#
# PCOD8278822 Si02
#       8
#    16   8   8  16   8  16  16  16
#     4  10  20  32  45  71 109 143 171 209 255 313
#     4   9  17  36  54  73 102 144 186 224 260 313
#     4  10  20  31  47  73 111 149 177 204 252 322
#     4  10  19  31  50  72 100 138 181 215 249 312
#     4   9  18  33  58  80 101 137 188 240 276 315
#     4  11  20  32  51  76 108 141 173 217 263 317
#     4   9  20  37  55  77 106 136 182 237 279 309
#     4  11  21  32  52  77 102 140 178 217 269 322
#
# _framework density 17.781186000000002
#
# number of rings (size 3 to 8) (size 9 to 14) (size 15 to 20)
#    0.000    2.000    3.077    3.462    0.000    2.462 
#    0.000    5.000    0.000    2.769    0.000    1.077 
#    0.000    0.000    0.000    0.000    0.000    0.000 
#
# Total GULP energy -644441.423123 kJ/mol
# GULP energy per Si atom -12393.104291 kJ/mol
# Density = 1.774072 g / cm^3
# Si number density = 17.781186 Si / 1000 Ang^3
#
#
#
# Elastic Constant Matrix: (Units=GPa)
#
#
# Indices 1 2 3 4 5 6 
#
# 1 98.3907 52.7462 44.6989 0.0000 0.0000 0.0000
# 2 52.7462 140.3356 38.0041 0.0000 0.0000 0.0000
# 3 44.6989 38.0041 58.5430 0.0000 0.0000 0.0000
# 4 0.0000 0.0000 0.0000 16.0332 0.0000 0.0000
# 5 0.0000 0.0000 0.0000 0.0000 22.5106 0.0000
# 6 0.0000 0.0000 0.0000 0.0000 0.0000 21.7622
#
#
#
# Elastic Compliance Matrix: (Units=1/GPa)
#
#
# Indices 1 2 3 4 5 6 
#
# 1 0.016837 -0.003454 -0.010613 0.000000 0.000000 0.000000
# 2 -0.003454 0.009354 -0.003435 0.000000 0.000000 0.000000
# 3 -0.010613 -0.003435 0.027415 0.000000 0.000000 0.000000
# 4 0.000000 0.000000 0.000000 0.062370 0.000000 0.000000
# 5 0.000000 0.000000 0.000000 0.000000 0.044424 0.000000
# 6 0.000000 0.000000 0.000000 0.000000 0.000000 0.045951
#
#
# Mechanical properties :
#
#
# Convention : Reuss Voigt Hill
#
# Bulk Modulus (GPa) = 53.75989 63.12974 58.44482
# Shear Modulus (GPa) = 20.19745 22.84920 21.52333
#
# Velocity S-wave (km/s) = 3.37395 3.58861 3.48293
# Velocity P-wave (km/s) = 6.74373 7.26303 7.00819
#
# Compressibility (1/GPa) = 0.01860123
#
# Stress axis : x y z
#
# Youngs Moduli (GPa) = 59.39390 106.90243 36.47680
#
# Poissons Ratio (x) = 0.36926 0.38713
# Poissons Ratio (y) = 0.20516 0.12530
# Poissons Ratio (z) = 0.63034 0.36723
#
# Static dielectric constant tensor:
#      x y z
#    x 3.332130 0.000000 0.000000 
#    y 0.000000 3.674130 0.000000 
#    z 0.000000 0.000000 3.022950 
# 
# 
# High freq. dielectric constant tensor:
#      x y z
#    x 1.683590 0.000000 0.000000 
#    y 0.000000 1.708640 0.000000 
#    z 0.000000 0.000000 1.646240 
# 
# From -- ./inp_files/23020.got.cif
#   From: 2010.03.12/outbox.cif.g09.slc.cpg/sg67_12_cif.got.tgz:23020.got - 2010.04.10 22:41:39.
