data_PCOD8278616
_publ_section_title
;
Structure prediction by ZEFSAII (Michael W. Deem and Ramdas Pophale) SiO2 
 PCOD8278616
Probable space group: C M M A
;
_chemical_formula_sum "Si O2"
_cell_formula_units_Z 96
_cell_length_a 27.405888
_cell_length_b 8.949280
_cell_length_c 23.914799
_cell_angle_alpha 90.000000
_cell_angle_beta 90.000000
_cell_angle_gamma 90.000000
_cell_volume 5865.414519
_symmetry_space_group_name_H-M "C M M A"
_symmetry_group_IT_number 67
_symmetry_cell_setting 'orthorhombic'
loop_
_space_group_symop_operation_xyz
x,y,z
-x,1/2-y,z
x,-y,-z
-x,1/2+y,-z
-x,-y,-z
x,1/2+y,-z
-x,y,z
x,1/2-y,z
1/2+x,1/2+y,z
1/2-x,-y,z
1/2+x,1/2-y,-z
1/2-x,y,-z
1/2-x,1/2-y,-z
1/2+x,y,-z
1/2-x,1/2+y,z
1/2+x,-y,z
loop_
_atom_site_type_symbol
_atom_site_label
_atom_site_fract_x
_atom_site_fract_y
_atom_site_fract_z
Si Si1 0.197658 0.423735 0.675827
Si Si2 0.944125 0.576464 0.167764
Si Si3 0.888622 0.574985 0.056258
Si Si4 0.140629 0.923641 0.772080
Si Si5 0.301986 0.425158 0.883785
Si Si6 0.802169 0.077037 0.551970
O O1 0.205435 0.250000 0.688860
O O2 0.250000 0.500000 0.683835
O O3 0.158068 0.490950 0.717280
O O4 0.174876 0.447773 0.613503
O O5 0.936131 0.750000 0.181419
O O6 0.927808 0.541193 0.104531
O O7 0.912952 0.481305 0.211678
O O8 0.000000 0.527909 0.174445
O O9 0.880626 0.750000 0.047161
O O10 0.837060 0.499824 0.070792
O O11 0.909338 0.500000 0.000000
O O12 0.137352 0.750000 0.758324
O O13 0.178371 0.958006 0.821738
O O14 0.298500 0.250000 0.896066
O O15 0.250000 0.500000 0.890140
O O16 0.796534 0.250000 0.538103
O O17 0.832006 0.000000 0.500000
O O18 0.750000 0.000000 0.554224
#
# Coordination Sequence:
#
# PCOD8278616 Si02
#       6
#    16  16  16  16  16  16
#     4  10  19  29  43  65  94 128 163 196 230 270
#     4   9  19  36  55  72  92 119 147 180 228 279
#     4  10  20  34  51  71  94 118 147 182 220 266
#     4  10  20  32  48  70  94 120 152 191 231 272
#     4  10  20  33  48  67  91 120 153 186 223 265
#     4   9  16  25  38  57  84 121 161 197 230 263
#
# _framework density 16.36713
#
# number of rings (size 3 to 8) (size 9 to 14) (size 15 to 20)
#    0.000    2.333    0.000    3.500    0.000    7.000 
#    0.000    1.667    0.000    0.000    0.000    0.000 
#    0.000    0.667    0.000    2.167    0.000    3.000 
#
# Total GULP energy -595128.775139 kJ/mol
# GULP energy per Si atom -12398.516149 kJ/mol
# Density = 1.632988 g / cm^3
# Si number density = 16.367130 Si / 1000 Ang^3
#
#
#
# Elastic Constant Matrix: (Units=GPa)
#
#
# Indices 1 2 3 4 5 6 
#
# 1 81.2624 39.7814 38.8776 0.0000 0.0000 0.0000
# 2 39.7814 107.2520 64.5774 0.0000 0.0000 0.0000
# 3 38.8776 64.5774 118.4072 0.0000 0.0000 0.0000
# 4 0.0000 0.0000 0.0000 31.8364 0.0000 0.0000
# 5 0.0000 0.0000 0.0000 0.0000 13.1117 0.0000
# 6 0.0000 0.0000 0.0000 0.0000 0.0000 22.6551
#
#
#
# Elastic Compliance Matrix: (Units=1/GPa)
#
#
# Indices 1 2 3 4 5 6 
#
# 1 0.015697 -0.004049 -0.002946 0.000000 0.000000 0.000000
# 2 -0.004049 0.014927 -0.006812 0.000000 0.000000 0.000000
# 3 -0.002946 -0.006812 0.013128 0.000000 0.000000 0.000000
# 4 0.000000 0.000000 0.000000 0.031411 0.000000 0.000000
# 5 0.000000 0.000000 0.000000 0.000000 0.076268 0.000000
# 6 0.000000 0.000000 0.000000 0.000000 0.000000 0.044140
#
#
# Mechanical properties :
#
#
# Convention : Reuss Voigt Hill
#
# Bulk Modulus (GPa) = 61.95989 65.93271 63.94630
# Shear Modulus (GPa) = 21.87589 24.43299 23.15444
#
# Velocity S-wave (km/s) = 3.65989 3.86788 3.76532
# Velocity P-wave (km/s) = 7.46982 7.76649 7.61960
#
# Compressibility (1/GPa) = 0.01613947
#
# Stress axis : x y z
#
# Youngs Moduli (GPa) = 63.70582 66.99373 76.17530
#
# Poissons Ratio (x) = 0.27122 0.22441
# Poissons Ratio (y) = 0.25791 0.51887
# Poissons Ratio (z) = 0.18768 0.45633
#
# Static dielectric constant tensor:
#      x y z
#    x 2.790730 0.000000 0.000000 
#    y 0.000000 3.247190 0.000000 
#    z 0.000000 0.000000 3.651920 
# 
# 
# High freq. dielectric constant tensor:
#      x y z
#    x 1.588850 0.000000 0.000000 
#    y 0.000000 1.649480 0.000000 
#    z 0.000000 0.000000 1.634580 
# 
# From -- ./inp_files/37201.got.cif
#   From: 2010.03.12/outbox.cif.g09.slc.cpg/sg67_19_cif.got.tgz:37201.got - 2010.04.10 22:41:39.
