data_PCOD8278865
_publ_section_title
;
Structure prediction by ZEFSAII (Michael W. Deem and Ramdas Pophale) SiO2 
 PCOD8278865
Probable space group: C M M A
;
_chemical_formula_sum "Si O2"
_cell_formula_units_Z 52
_cell_length_a 15.410618
_cell_length_b 19.183281
_cell_length_c 10.592287
_cell_angle_alpha 90.000000
_cell_angle_beta 90.000000
_cell_angle_gamma 90.000000
_cell_volume 3131.357719
_symmetry_space_group_name_H-M "C M M A"
_symmetry_group_IT_number 67
_symmetry_cell_setting 'orthorhombic'
loop_
_space_group_symop_operation_xyz
x,y,z
-x,1/2-y,z
x,-y,-z
-x,1/2+y,-z
-x,-y,-z
x,1/2+y,-z
-x,y,z
x,1/2-y,z
1/2+x,1/2+y,z
1/2-x,-y,z
1/2+x,1/2-y,-z
1/2-x,y,-z
1/2-x,1/2-y,-z
1/2+x,y,-z
1/2-x,1/2+y,z
1/2+x,-y,z
loop_
_atom_site_type_symbol
_atom_site_label
_atom_site_fract_x
_atom_site_fract_y
_atom_site_fract_z
Si Si1 0.828946 0.456543 0.258005
Si Si2 0.750000 0.000000 0.500000
Si Si3 0.500000 0.327390 0.064376
Si Si4 0.000000 0.023062 0.853126
Si Si5 0.326048 0.671632 0.092351
O O1 0.750000 0.500000 0.193762
O O2 0.813767 0.454322 0.409996
O O3 0.917297 0.494027 0.219645
O O4 0.827494 0.376892 0.214407
O O5 0.500000 0.250000 0.130708
O O6 0.500000 0.392312 0.161280
O O7 0.416873 0.334871 0.977012
O O8 0.000000 0.000000 0.000000
O O9 0.308201 0.750000 0.139646
O O10 0.250000 0.646400 0.000000
#
# Coordination Sequence:
#
# PCOD8278865 Si02
#       5
#    16   4   8   8  16
#     4  10  21  36  53  75 111 139 189 224 253 315
#     4   8  24  38  52  72 106 156 186 232 244 284
#     4  10  20  32  46  84 118 127 162 211 277 343
#     4  12  20  31  60  87  98 143 175 216 296 327
#     4  10  19  31  52  80 110 139 165 220 288 328
#
# _framework density 16.606214999999999
#
# number of rings (size 3 to 8) (size 9 to 14) (size 15 to 20)
#    0.923    0.923    3.077    1.846    0.000    0.615 
#    0.000    0.769    0.000    0.000    0.000    0.000 
#    0.000    0.000    0.000    0.000    0.000    0.000 
#
# Total GULP energy -322186.680883 kJ/mol
# GULP energy per Si atom -12391.795419 kJ/mol
# Density = 1.656842 g / cm^3
# Si number density = 16.606215 Si / 1000 Ang^3
#
#
#
# Elastic Constant Matrix: (Units=GPa)
#
#
# Indices 1 2 3 4 5 6 
#
# 1 136.0528 36.9277 50.8718 0.0000 0.0000 0.0000
# 2 36.9277 137.7489 63.7916 0.0000 0.0000 0.0000
# 3 50.8718 63.7916 103.0130 0.0000 0.0000 0.0000
# 4 0.0000 0.0000 0.0000 22.0015 0.0000 0.0000
# 5 0.0000 0.0000 0.0000 0.0000 489.1049 0.0000
# 6 0.0000 0.0000 0.0000 0.0000 0.0000 27.2534
#
#
#
# Elastic Compliance Matrix: (Units=1/GPa)
#
#
# Indices 1 2 3 4 5 6 
#
# 1 0.009039 -0.000499 -0.004155 0.000000 0.000000 0.000000
# 2 -0.000499 0.010206 -0.006074 0.000000 0.000000 0.000000
# 3 -0.004155 -0.006074 0.015521 0.000000 0.000000 0.000000
# 4 0.000000 0.000000 0.000000 0.045452 0.000000 0.000000
# 5 0.000000 0.000000 0.000000 0.000000 0.002045 0.000000
# 6 0.000000 0.000000 0.000000 0.000000 0.000000 0.036693
#
#
# Mechanical properties :
#
#
# Convention : Reuss Voigt Hill
#
# Bulk Modulus (GPa) = 75.12883 75.55521 75.34202
# Shear Modulus (GPa) = 34.51928 122.68684 78.60306
#
# Velocity S-wave (km/s) = 4.56422 8.60468 6.88740
# Velocity P-wave (km/s) = 8.55077 12.01322 10.42673
#
# Compressibility (1/GPa) = 0.01331047
#
# Stress axis : x y z
#
# Youngs Moduli (GPa) = 110.63078 97.98005 64.43082
#
# Poissons Ratio (x) = 0.04890 0.26769
# Poissons Ratio (y) = 0.05522 0.39134
# Poissons Ratio (z) = 0.45964 0.59511
#
# Static dielectric constant tensor:
#      x y z
#    x 3.989610 0.000000 0.000000 
#    y 0.000000 3.433210 0.000000 
#    z 0.000000 0.000000 2.755030 
# 
# 
# High freq. dielectric constant tensor:
#      x y z
#    x 1.663490 0.000000 0.000000 
#    y 0.000000 1.648700 0.000000 
#    z 0.000000 0.000000 1.594030 
# 
# From -- ./inp_files/17364.got.cif
#   From: 2010.03.12/outbox.cif.g09.slc.cpg/sg67_9_cif.got.tgz:17364.got - 2010.04.10 22:41:39.
