data_PCOD8278137
_publ_section_title
;
Structure prediction by ZEFSAII (Michael W. Deem and Ramdas Pophale) SiO2 
 PCOD8278137
Probable space group: C M M A
;
_chemical_formula_sum "Si O2"
_cell_formula_units_Z 96
_cell_length_a 17.547109
_cell_length_b 25.648283
_cell_length_c 12.376521
_cell_angle_alpha 90.000000
_cell_angle_beta 90.000000
_cell_angle_gamma 90.000000
_cell_volume 5570.093097
_symmetry_space_group_name_H-M "C M M A"
_symmetry_group_IT_number 67
_symmetry_cell_setting 'orthorhombic'
loop_
_space_group_symop_operation_xyz
x,y,z
-x,1/2-y,z
x,-y,-z
-x,1/2+y,-z
-x,-y,-z
x,1/2+y,-z
-x,y,z
x,1/2-y,z
1/2+x,1/2+y,z
1/2-x,-y,z
1/2+x,1/2-y,-z
1/2-x,y,-z
1/2-x,1/2-y,-z
1/2+x,y,-z
1/2-x,1/2+y,z
1/2+x,-y,z
loop_
_atom_site_type_symbol
_atom_site_label
_atom_site_fract_x
_atom_site_fract_y
_atom_site_fract_z
Si Si1 0.198065 0.848103 0.248005
Si Si2 0.733543 0.940835 0.124668
Si Si3 0.863878 0.310133 0.300955
Si Si4 0.412959 0.190983 0.069462
Si Si5 0.084370 0.117392 0.126728
Si Si6 0.163817 0.807510 0.465122
O O1 0.213022 0.906074 0.202471
O O2 0.277422 0.817650 0.259058
O O3 0.142814 0.816877 0.169335
O O4 0.156563 0.848617 0.365981
O O5 0.644158 0.929283 0.144755
O O6 0.750000 0.000000 0.156629
O O7 0.750000 0.929163 0.000000
O O8 0.885926 0.250000 0.286520
O O9 0.919954 0.345534 0.231039
O O10 0.878085 0.327442 0.426028
O O11 0.500000 0.180017 0.105656
O O12 0.404176 0.250000 0.026639
O O13 0.388471 0.152146 0.974239
O O14 0.000000 0.093590 0.108170
O O15 0.133159 0.750000 0.429358
O O16 0.250000 0.800388 0.500000
#
# Coordination Sequence:
#
# PCOD8278137 Si02
#       6
#    16  16  16  16  16  16
#     4  10  17  30  50  69  96 132 167 209 250 296
#     4  10  20  36  53  74  98 124 170 223 254 296
#     4   9  17  28  48  74 100 134 169 199 234 289
#     4  10  19  29  43  69 103 132 156 190 242 303
#     4  10  20  34  50  73 104 133 160 200 254 301
#     4   8  14  26  45  71  99 128 165 203 238 283
#
# _framework density 17.234901000000001
#
# number of rings (size 3 to 8) (size 9 to 14) (size 15 to 20)
#    0.000    2.500    1.667    3.000    0.000    1.000 
#    0.000    5.833    0.000   13.500    0.000    1.167 
#    0.000    0.000    0.000    0.000    0.000    0.000 
#
# Total GULP energy -594892.925837 kJ/mol
# GULP energy per Si atom -12393.602622 kJ/mol
# Density = 1.719567 g / cm^3
# Si number density = 17.234901 Si / 1000 Ang^3
#
#
#
# Elastic Constant Matrix: (Units=GPa)
#
#
# Indices 1 2 3 4 5 6 
#
# 1 58.5429 34.5201 22.1594 0.0000 0.0000 0.0000
# 2 34.5201 100.8284 47.2767 0.0000 0.0000 0.0000
# 3 22.1594 47.2767 114.6207 0.0000 0.0000 0.0000
# 4 0.0000 0.0000 0.0000 22.3956 0.0000 0.0000
# 5 0.0000 0.0000 0.0000 0.0000 16.2637 0.0000
# 6 0.0000 0.0000 0.0000 0.0000 0.0000 4.4163
#
#
#
# Elastic Compliance Matrix: (Units=1/GPa)
#
#
# Indices 1 2 3 4 5 6 
#
# 1 0.021580 -0.006735 -0.001394 0.000000 0.000000 0.000000
# 2 -0.006735 0.014397 -0.004636 0.000000 0.000000 0.000000
# 3 -0.001394 -0.004636 0.010906 0.000000 0.000000 0.000000
# 4 0.000000 0.000000 0.000000 0.044652 0.000000 0.000000
# 5 0.000000 0.000000 0.000000 0.000000 0.061487 0.000000
# 6 0.000000 0.000000 0.000000 0.000000 0.000000 0.226432
#
#
# Mechanical properties :
#
#
# Convention : Reuss Voigt Hill
#
# Bulk Modulus (GPa) = 46.83075 53.54494 50.18784
# Shear Modulus (GPa) = 12.13290 19.95084 16.04187
#
# Velocity S-wave (km/s) = 2.65613 3.40602 3.05418
# Velocity P-wave (km/s) = 6.05291 6.82665 6.45139
#
# Compressibility (1/GPa) = 0.02135349
#
# Stress axis : x y z
#
# Youngs Moduli (GPa) = 46.33845 69.45668 91.68972
#
# Poissons Ratio (x) = 0.46776 0.12785
# Poissons Ratio (y) = 0.31207 0.42511
# Poissons Ratio (z) = 0.06461 0.32203
#
# Static dielectric constant tensor:
#      x y z
#    x 3.086160 0.000000 0.000000 
#    y 0.000000 2.938610 0.000000 
#    z 0.000000 0.000000 3.653090 
# 
# 
# High freq. dielectric constant tensor:
#      x y z
#    x 1.651520 0.000000 0.000000 
#    y 0.000000 1.631290 0.000000 
#    z 0.000000 0.000000 1.673150 
# 
# From -- ./inp_files/19814.got.cif
#   From: 2010.03.12/outbox.cif.g09.slc.cpg/sg67_10_cif.got.tgz:19814.got - 2010.04.10 22:41:39.
