data_PCOD8278196
_publ_section_title
;
Structure prediction by ZEFSAII (Michael W. Deem and Ramdas Pophale) SiO2 
 PCOD8278196
Probable space group: C M M A
;
_chemical_formula_sum "Si O2"
_cell_formula_units_Z 104
_cell_length_a 9.206768
_cell_length_b 26.784058
_cell_length_c 22.761015
_cell_angle_alpha 90.000000
_cell_angle_beta 90.000000
_cell_angle_gamma 90.000000
_cell_volume 5612.743574
_symmetry_space_group_name_H-M "C M M A"
_symmetry_group_IT_number 67
_symmetry_cell_setting 'orthorhombic'
loop_
_space_group_symop_operation_xyz
x,y,z
-x,1/2-y,z
x,-y,-z
-x,1/2+y,-z
-x,-y,-z
x,1/2+y,-z
-x,y,z
x,1/2-y,z
1/2+x,1/2+y,z
1/2-x,-y,z
1/2+x,1/2-y,-z
1/2-x,y,-z
1/2-x,1/2-y,-z
1/2+x,y,-z
1/2-x,1/2+y,z
1/2+x,-y,z
loop_
_atom_site_type_symbol
_atom_site_label
_atom_site_fract_x
_atom_site_fract_y
_atom_site_fract_z
Si Si1 0.160149 0.046606 0.626545
Si Si2 0.835109 0.191403 0.765376
Si Si3 0.173113 0.656497 0.360827
Si Si4 0.326915 0.050872 0.939638
Si Si5 0.839988 0.044984 0.764620
Si Si6 0.830607 0.621381 0.832600
Si Si7 0.172762 0.250000 0.561881
O O1 0.230468 0.101961 0.616161
O O2 0.146432 0.038299 0.695673
O O3 0.000000 0.044322 0.597851
O O4 0.250000 0.000000 0.598988
O O5 0.829059 0.250000 0.758140
O O6 0.771109 0.168022 0.704907
O O7 0.736935 0.176557 0.822877
O O8 0.000000 0.173055 0.776098
O O9 0.225820 0.700346 0.404059
O O10 0.000000 0.654413 0.358236
O O11 0.500000 0.042455 0.947944
O O12 0.294460 0.096009 0.894810
O O13 0.250000 0.000000 0.917088
O O14 0.250000 0.067175 0.000000
O O15 0.752345 0.094425 0.779317
O O16 0.000000 0.045459 0.793537
O O17 0.750000 0.000000 0.793792
O O18 0.000000 0.621373 0.820425
O O19 0.250000 0.250000 0.500000
O O20 0.000000 0.250000 0.554165
#
# Coordination Sequence:
#
# PCOD8278196 Si02
#       7
#    16  16  16  16  16  16   8
#     4   9  17  29  46  71 103 139 176 211 256 312
#     4  10  19  34  56  79 102 137 182 220 268 333
#     4   9  16  32  56  78 105 144 181 220 269 325
#     4  10  21  36  54  76 103 139 180 223 268 318
#     4  10  18  28  44  68 101 136 173 209 248 306
#     4  11  22  33  48  74 107 139 172 214 272 324
#     4  10  20  36  60  84 110 140 181 230 275 322
#
# _framework density 18.529261999999999
#
# number of rings (size 3 to 8) (size 9 to 14) (size 15 to 20)
#    0.000    2.154    2.308    2.308    0.000    4.615 
#    0.000    1.538    0.000    0.923    0.000    3.231 
#    0.000    0.000    0.000    0.000    0.000    0.000 
#
# Total GULP energy -644325.848944 kJ/mol
# GULP energy per Si atom -12390.881710 kJ/mol
# Density = 1.848709 g / cm^3
# Si number density = 18.529262 Si / 1000 Ang^3
#
#
#
# Elastic Constant Matrix: (Units=GPa)
#
#
# Indices 1 2 3 4 5 6 
#
# 1 90.0928 49.0225 38.0824 0.0000 0.0000 0.0000
# 2 49.0225 132.5330 46.7026 0.0000 0.0000 0.0000
# 3 38.0824 46.7026 73.8988 0.0000 0.0000 0.0000
# 4 0.0000 0.0000 0.0000 23.8433 0.0000 0.0000
# 5 0.0000 0.0000 0.0000 0.0000 20.4257 0.0000
# 6 0.0000 0.0000 0.0000 0.0000 0.0000 30.4894
#
#
#
# Elastic Compliance Matrix: (Units=1/GPa)
#
#
# Indices 1 2 3 4 5 6 
#
# 1 0.015523 -0.003760 -0.005623 0.000000 0.000000 0.000000
# 2 -0.003760 0.010618 -0.004773 0.000000 0.000000 0.000000
# 3 -0.005623 -0.004773 0.019446 0.000000 0.000000 0.000000
# 4 0.000000 0.000000 0.000000 0.041940 0.000000 0.000000
# 5 0.000000 0.000000 0.000000 0.000000 0.048958 0.000000
# 6 0.000000 0.000000 0.000000 0.000000 0.000000 0.032798
#
#
# Mechanical properties :
#
#
# Convention : Reuss Voigt Hill
#
# Bulk Modulus (GPa) = 57.88716 62.68220 60.28468
# Shear Modulus (GPa) = 24.58786 25.79951 25.19368
#
# Velocity S-wave (km/s) = 3.64672 3.73549 3.69137
# Velocity P-wave (km/s) = 7.00287 7.24620 7.12557
#
# Compressibility (1/GPa) = 0.01727499
#
# Stress axis : x y z
#
# Youngs Moduli (GPa) = 64.42253 94.18038 51.42484
#
# Poissons Ratio (x) = 0.35414 0.28916
# Poissons Ratio (y) = 0.24224 0.24543
# Poissons Ratio (z) = 0.36224 0.44948
#
# Static dielectric constant tensor:
#      x y z
#    x 3.781760 0.000000 0.000000 
#    y 0.000000 3.921730 0.000000 
#    z 0.000000 0.000000 3.073350 
# 
# 
# High freq. dielectric constant tensor:
#      x y z
#    x 1.707750 0.000000 0.000000 
#    y 0.000000 1.727250 0.000000 
#    z 0.000000 0.000000 1.683420 
# 
# From -- ./inp_files/41005.got.cif
#   From: 2010.03.12/outbox.cif.g09.slc.cpg/sg67_21_cif.got.tgz:41005.got - 2010.04.10 22:41:39.
