data_PCOD8278494
_publ_section_title
;
Structure prediction by ZEFSAII (Michael W. Deem and Ramdas Pophale) SiO2 
 PCOD8278494
Probable space group: C M M A
;
_chemical_formula_sum "Si O2"
_cell_formula_units_Z 88
_cell_length_a 12.549588
_cell_length_b 26.076339
_cell_length_c 14.680685
_cell_angle_alpha 90.000000
_cell_angle_beta 90.000000
_cell_angle_gamma 90.000000
_cell_volume 4804.214690
_symmetry_space_group_name_H-M "C M M A"
_symmetry_group_IT_number 67
_symmetry_cell_setting 'orthorhombic'
loop_
_space_group_symop_operation_xyz
x,y,z
-x,1/2-y,z
x,-y,-z
-x,1/2+y,-z
-x,-y,-z
x,1/2+y,-z
-x,y,z
x,1/2-y,z
1/2+x,1/2+y,z
1/2-x,-y,z
1/2+x,1/2-y,-z
1/2-x,y,-z
1/2-x,1/2-y,-z
1/2+x,y,-z
1/2-x,1/2+y,z
1/2+x,-y,z
loop_
_atom_site_type_symbol
_atom_site_label
_atom_site_fract_x
_atom_site_fract_y
_atom_site_fract_z
Si Si1 0.722039 0.657007 0.104307
Si Si2 0.382688 0.406377 0.344451
Si Si3 0.219112 0.445438 0.208485
Si Si4 0.000000 0.310014 0.179410
Si Si5 0.620717 0.694101 0.749939
Si Si6 0.000000 0.411516 0.286137
Si Si7 0.500000 0.560799 0.494391
O O1 0.738027 0.597739 0.132657
O O2 0.603039 0.677965 0.118663
O O3 0.803110 0.690475 0.163126
O O4 0.750000 0.663757 0.000000
O O5 0.500000 0.416778 0.299681
O O6 0.295781 0.441634 0.296502
O O7 0.349350 0.347085 0.327901
O O8 0.393520 0.418480 0.452612
O O9 0.250000 0.500000 0.163220
O O10 0.099181 0.441587 0.243943
O O11 0.000000 0.350245 0.264397
O O12 0.000000 0.250000 0.211719
O O13 0.500000 0.686727 0.784865
O O14 0.636693 0.750000 0.705161
O O15 0.000000 0.416576 0.394312
O O16 0.500000 0.500000 0.500000
#
# Coordination Sequence:
#
# PCOD8278494 Si02
#       7
#    16  16  16   8  16   8   8
#     4  10  22  37  54  82 108 137 184 227 264 320
#     4   8  18  33  50  78 106 134 176 223 257 304
#     4  10  20  36  57  74 109 148 178 219 269 323
#     4  10  22  40  56  75 112 147 176 220 271 327
#     4   9  17  32  54  77 104 137 172 217 270 311
#     4  10  22  36  53  84 109 143 183 214 273 328
#     4  10  18  32  55  81 109 139 183 222 263 314
#
# _framework density 18.317250000000001
#
# number of rings (size 3 to 8) (size 9 to 14) (size 15 to 20)
#    0.545    2.000    0.000    1.636    2.545    2.545 
#    0.000    2.727    0.000    3.273    0.000    7.636 
#    0.000    0.000    0.000    0.000    0.000    0.000 
#
# Total GULP energy -545238.284542 kJ/mol
# GULP energy per Si atom -12391.779194 kJ/mol
# Density = 1.827556 g / cm^3
# Si number density = 18.317250 Si / 1000 Ang^3
#
#
#
# Elastic Constant Matrix: (Units=GPa)
#
#
# Indices 1 2 3 4 5 6 
#
# 1 93.4020 38.3535 23.2832 0.0000 0.0000 0.0000
# 2 38.3535 137.4098 42.2512 0.0000 0.0000 0.0000
# 3 23.2832 42.2512 95.2195 0.0000 0.0000 0.0000
# 4 0.0000 0.0000 0.0000 14.2706 0.0000 0.0000
# 5 0.0000 0.0000 0.0000 0.0000 20.3027 0.0000
# 6 0.0000 0.0000 0.0000 0.0000 0.0000 22.9862
#
#
#
# Elastic Compliance Matrix: (Units=1/GPa)
#
#
# Indices 1 2 3 4 5 6 
#
# 1 0.012332 -0.002912 -0.001723 0.000000 0.000000 0.000000
# 2 -0.002912 0.009115 -0.003332 0.000000 0.000000 0.000000
# 3 -0.001723 -0.003332 0.012402 0.000000 0.000000 0.000000
# 4 0.000000 0.000000 0.000000 0.070074 0.000000 0.000000
# 5 0.000000 0.000000 0.000000 0.000000 0.049254 0.000000
# 6 0.000000 0.000000 0.000000 0.000000 0.000000 0.043504
#
#
# Mechanical properties :
#
#
# Convention : Reuss Voigt Hill
#
# Bulk Modulus (GPa) = 55.82457 59.31192 57.56824
# Shear Modulus (GPa) = 22.87403 26.32146 24.59775
#
# Velocity S-wave (km/s) = 3.53763 3.79486 3.66850
# Velocity P-wave (km/s) = 6.87234 7.18693 7.03139
#
# Compressibility (1/GPa) = 0.01791326
#
# Stress axis : x y z
#
# Youngs Moduli (GPa) = 81.09123 109.70904 80.63151
#
# Poissons Ratio (x) = 0.31949 0.13894
# Poissons Ratio (y) = 0.23615 0.26870
# Poissons Ratio (z) = 0.13974 0.36560
#
# Static dielectric constant tensor:
#      x y z
#    x 3.531750 0.000000 0.000000 
#    y 0.000000 3.580480 0.000000 
#    z 0.000000 0.000000 3.046920 
# 
# 
# High freq. dielectric constant tensor:
#      x y z
#    x 1.721310 0.000000 0.000000 
#    y 0.000000 1.724010 0.000000 
#    z 0.000000 0.000000 1.672580 
# 
# From -- ./inp_files/26316.got.cif
#   From: 2010.03.12/outbox.cif.g09.slc.cpg/sg67_14_cif.got.tgz:26316.got - 2010.04.10 22:41:39.
