data_PCOD8278077
_publ_section_title
;
Structure prediction by ZEFSAII (Michael W. Deem and Ramdas Pophale) SiO2 
 PCOD8278077
Probable space group: C M M A
;
_chemical_formula_sum "Si O2"
_cell_formula_units_Z 88
_cell_length_a 10.279990
_cell_length_b 33.421695
_cell_length_c 19.194868
_cell_angle_alpha 90.000000
_cell_angle_beta 90.000000
_cell_angle_gamma 90.000000
_cell_volume 6594.870830
_symmetry_space_group_name_H-M "C M M A"
_symmetry_group_IT_number 67
_symmetry_cell_setting 'orthorhombic'
loop_
_space_group_symop_operation_xyz
x,y,z
-x,1/2-y,z
x,-y,-z
-x,1/2+y,-z
-x,-y,-z
x,1/2+y,-z
-x,y,z
x,1/2-y,z
1/2+x,1/2+y,z
1/2-x,-y,z
1/2+x,1/2-y,-z
1/2-x,y,-z
1/2-x,1/2-y,-z
1/2+x,y,-z
1/2-x,1/2+y,z
1/2+x,-y,z
loop_
_atom_site_type_symbol
_atom_site_label
_atom_site_fract_x
_atom_site_fract_y
_atom_site_fract_z
Si Si1 0.349126 0.670564 0.349899
Si Si2 0.645836 0.297789 0.945053
Si Si3 0.000000 0.043208 0.417836
Si Si4 0.500000 0.546452 0.583312
Si Si5 0.253066 0.092861 0.582704
Si Si6 0.653564 0.205853 0.791658
Si Si7 0.851631 0.750000 0.562202
O O1 0.500000 0.657539 0.353706
O O2 0.259770 0.636447 0.383139
O O3 0.299759 0.676723 0.270323
O O4 0.326197 0.711412 0.390970
O O5 0.500000 0.313085 0.963813
O O6 0.646312 0.250000 0.945443
O O7 0.687994 0.312517 0.867638
O O8 0.750000 0.315316 0.000000
O O9 0.127032 0.066133 0.391171
O O10 0.000000 0.042425 0.500719
O O11 0.000000 0.998498 0.385974
O O12 0.624953 0.570562 0.609925
O O13 0.250000 0.098501 0.500000
O O14 0.500000 0.211084 0.785143
O O15 0.717390 0.250000 0.783214
O O16 0.750000 0.750000 0.500000
O O17 0.000000 0.750000 0.533369
#
# Coordination Sequence:
#
# PCOD8278077 Si02
#       7
#    16  16   8   8  16  16   8
#     4  10  17  28  43  57  75 102 139 172 199 228
#     4   8  13  21  36  56  74  92 119 157 193 226
#     4   9  16  30  44  61  75  95 126 156 199 245
#     4   9  18  28  44  59  79  99 116 158 205 251
#     4  10  18  28  42  60  79  98 129 165 200 239
#     4   8  13  23  39  56  72  97 135 168 191 220
#     4  10  20  32  44  56  71 100 138 180 213 232
#
# _framework density 13.343704000000001
#
# number of rings (size 3 to 8) (size 9 to 14) (size 15 to 20)
#    0.000    2.909    1.818    2.182    0.000    2.182 
#    1.636    0.000    2.000    0.000    0.000    0.000 
#    0.000    0.000    0.000    0.000    0.000    5.455 
#
# Total GULP energy -545346.231217 kJ/mol
# GULP energy per Si atom -12394.232528 kJ/mol
# Density = 1.331333 g / cm^3
# Si number density = 13.343704 Si / 1000 Ang^3
#
#
#
# Elastic Constant Matrix: (Units=GPa)
#
#
# Indices 1 2 3 4 5 6 
#
# 1 83.5450 41.9548 40.0082 0.0000 0.0000 0.0000
# 2 41.9548 87.0321 30.9812 0.0000 0.0000 0.0000
# 3 40.0082 30.9812 78.3627 0.0000 0.0000 0.0000
# 4 0.0000 0.0000 0.0000 2.0180 0.0000 0.0000
# 5 0.0000 0.0000 0.0000 0.0000 15.2876 0.0000
# 6 0.0000 0.0000 0.0000 0.0000 0.0000 18.8641
#
#
#
# Elastic Compliance Matrix: (Units=1/GPa)
#
#
# Indices 1 2 3 4 5 6 
#
# 1 0.018524 -0.006474 -0.006898 0.000000 0.000000 0.000000
# 2 -0.006474 0.015635 -0.002876 0.000000 0.000000 0.000000
# 3 -0.006898 -0.002876 0.017420 0.000000 0.000000 0.000000
# 4 0.000000 0.000000 0.000000 0.495529 0.000000 0.000000
# 5 0.000000 0.000000 0.000000 0.000000 0.065412 0.000000
# 6 0.000000 0.000000 0.000000 0.000000 0.000000 0.053011
#
#
# Mechanical properties :
#
#
# Convention : Reuss Voigt Hill
#
# Bulk Modulus (GPa) = 52.40337 52.75870 52.58103
# Shear Modulus (GPa) = 7.09836 16.30033 11.69935
#
# Velocity S-wave (km/s) = 2.30894 3.49890 2.96424
# Velocity P-wave (km/s) = 6.81656 7.47978 7.15586
#
# Compressibility (1/GPa) = 0.01908274
#
# Stress axis : x y z
#
# Youngs Moduli (GPa) = 53.98366 63.96005 57.40574
#
# Poissons Ratio (x) = 0.41410 0.39598
# Poissons Ratio (y) = 0.34951 0.16509
# Poissons Ratio (z) = 0.37237 0.18394
#
# Static dielectric constant tensor:
#      x y z
#    x 2.659530 0.000000 0.000000 
#    y 0.000000 2.544120 0.000000 
#    z 0.000000 0.000000 2.702160 
# 
# 
# High freq. dielectric constant tensor:
#      x y z
#    x 1.497930 0.000000 0.000000 
#    y 0.000000 1.483210 0.000000 
#    z 0.000000 0.000000 1.481940 
# 
# From -- ./inp_files/37455.got.cif
#   From: 2010.03.12/outbox.cif.g09.slc.cpg/sg67_19_cif.got.tgz:37455.got - 2010.04.10 22:41:39.
