data_PCOD8278396
_publ_section_title
;
Structure prediction by ZEFSAII (Michael W. Deem and Ramdas Pophale) SiO2 
 PCOD8278396
Probable space group: C M M A
;
_chemical_formula_sum "Si O2"
_cell_formula_units_Z 96
_cell_length_a 8.617778
_cell_length_b 28.866211
_cell_length_c 20.908029
_cell_angle_alpha 90.000000
_cell_angle_beta 90.000000
_cell_angle_gamma 90.000000
_cell_volume 5201.135615
_symmetry_space_group_name_H-M "C M M A"
_symmetry_group_IT_number 67
_symmetry_cell_setting 'orthorhombic'
loop_
_space_group_symop_operation_xyz
x,y,z
-x,1/2-y,z
x,-y,-z
-x,1/2+y,-z
-x,-y,-z
x,1/2+y,-z
-x,y,z
x,1/2-y,z
1/2+x,1/2+y,z
1/2-x,-y,z
1/2+x,1/2-y,-z
1/2-x,y,-z
1/2-x,1/2-y,-z
1/2+x,y,-z
1/2-x,1/2+y,z
1/2+x,-y,z
loop_
_atom_site_type_symbol
_atom_site_label
_atom_site_fract_x
_atom_site_fract_y
_atom_site_fract_z
Si Si1 0.683564 0.802829 0.566507
Si Si2 0.316989 0.355390 0.310572
Si Si3 0.683893 0.451354 0.879351
Si Si4 0.684872 0.302267 0.186895
Si Si5 0.184169 0.639382 0.066156
Si Si6 0.317169 0.452433 0.260254
O O1 0.500000 0.806180 0.563838
O O2 0.738420 0.750000 0.577577
O O3 0.750000 0.822374 0.500000
O O4 0.752469 0.833866 0.624272
O O5 0.500000 0.347768 0.310247
O O6 0.247482 0.328727 0.249028
O O7 0.276065 0.409986 0.307477
O O8 0.500000 0.452273 0.881246
O O9 0.750000 0.500000 0.904692
O O10 0.748352 0.411914 0.925514
O O11 0.740513 0.441707 0.807568
O O12 0.500000 0.302718 0.188282
O O13 0.749202 0.250000 0.187064
O O14 0.744886 0.327846 0.123265
O O15 0.000000 0.637302 0.064397
O O16 0.250000 0.660098 0.000000
O O17 0.500000 0.457339 0.249481
O O18 0.250000 0.500000 0.290208
#
# Coordination Sequence:
#
# PCOD8278396 Si02
#       6
#    16  16  16  16  16  16
#     4   9  17  30  50  77 108 140 173 210 254 305
#     4   9  16  29  52  79 104 134 174 214 253 301
#     4  11  21  35  55  78 104 135 169 211 263 316
#     4   9  17  31  53  78 101 130 173 219 257 300
#     4  11  22  37  54  76 104 136 174 215 262 314
#     4  10  18  31  51  78 106 135 169 213 259 308
#
# _framework density 18.457508000000001
#
# number of rings (size 3 to 8) (size 9 to 14) (size 15 to 20)
#    0.000    2.167    1.667    4.000    0.000    2.667 
#    0.000    3.333    0.000    2.000    0.000    3.500 
#    0.000    0.000    0.000    0.000    0.000    0.000 
#
# Total GULP energy -595191.509812 kJ/mol
# GULP energy per Si atom -12399.823121 kJ/mol
# Density = 1.841550 g / cm^3
# Si number density = 18.457508 Si / 1000 Ang^3
#
#
#
# Elastic Constant Matrix: (Units=GPa)
#
#
# Indices 1 2 3 4 5 6 
#
# 1 62.1585 26.8873 26.0588 0.0000 0.0000 0.0000
# 2 26.8873 131.0388 82.0641 0.0000 0.0000 0.0000
# 3 26.0588 82.0641 154.1347 0.0000 0.0000 0.0000
# 4 0.0000 0.0000 0.0000 33.5061 0.0000 0.0000
# 5 0.0000 0.0000 0.0000 0.0000 24.8102 0.0000
# 6 0.0000 0.0000 0.0000 0.0000 0.0000 17.4170
#
#
#
# Elastic Compliance Matrix: (Units=1/GPa)
#
#
# Indices 1 2 3 4 5 6 
#
# 1 0.017917 -0.002669 -0.001608 0.000000 0.000000 0.000000
# 2 -0.002669 0.011846 -0.005856 0.000000 0.000000 0.000000
# 3 -0.001608 -0.005856 0.009877 0.000000 0.000000 0.000000
# 4 0.000000 0.000000 0.000000 0.029845 0.000000 0.000000
# 5 0.000000 0.000000 0.000000 0.000000 0.040306 0.000000
# 6 0.000000 0.000000 0.000000 0.000000 0.000000 0.057415
#
#
# Mechanical properties :
#
#
# Convention : Reuss Voigt Hill
#
# Bulk Modulus (GPa) = 51.61497 68.59470 60.10484
# Shear Modulus (GPa) = 25.78238 29.30148 27.54193
#
# Velocity S-wave (km/s) = 3.74150 3.98868 3.86707
# Velocity P-wave (km/s) = 6.83301 7.64572 7.25076
#
# Compressibility (1/GPa) = 0.01937422
#
# Stress axis : x y z
#
# Youngs Moduli (GPa) = 55.81418 84.41429 101.24053
#
# Poissons Ratio (x) = 0.22532 0.16279
# Poissons Ratio (y) = 0.14898 0.59286
# Poissons Ratio (z) = 0.08974 0.49432
#
# Static dielectric constant tensor:
#      x y z
#    x 3.123630 0.000000 0.000000 
#    y 0.000000 3.627170 0.000000 
#    z 0.000000 0.000000 3.484670 
# 
# 
# High freq. dielectric constant tensor:
#      x y z
#    x 1.691250 0.000000 0.000000 
#    y 0.000000 1.720720 0.000000 
#    z 0.000000 0.000000 1.704520 
# 
# From -- ./inp_files/37210.got.cif
#   From: 2010.03.12/outbox.cif.g09.slc.cpg/sg67_19_cif.got.tgz:37210.got - 2010.04.10 22:41:39.
