data_PCOD8278132
_publ_section_title
;
Structure prediction by ZEFSAII (Michael W. Deem and Ramdas Pophale) SiO2 
 PCOD8278132
Probable space group: C M M A
;
_chemical_formula_sum "Si O2"
_cell_formula_units_Z 80
_cell_length_a 8.602328
_cell_length_b 15.102806
_cell_length_c 30.056884
_cell_angle_alpha 90.000000
_cell_angle_beta 90.000000
_cell_angle_gamma 90.000000
_cell_volume 3904.969057
_symmetry_space_group_name_H-M "C M M A"
_symmetry_group_IT_number 67
_symmetry_cell_setting 'orthorhombic'
loop_
_space_group_symop_operation_xyz
x,y,z
-x,1/2-y,z
x,-y,-z
-x,1/2+y,-z
-x,-y,-z
x,1/2+y,-z
-x,y,z
x,1/2-y,z
1/2+x,1/2+y,z
1/2-x,-y,z
1/2+x,1/2-y,-z
1/2-x,y,-z
1/2-x,1/2-y,-z
1/2+x,y,-z
1/2-x,1/2+y,z
1/2+x,-y,z
loop_
_atom_site_type_symbol
_atom_site_label
_atom_site_fract_x
_atom_site_fract_y
_atom_site_fract_z
Si Si1 0.816850 0.596600 0.359251
Si Si2 0.818328 0.402669 0.543206
Si Si3 0.315017 0.901317 0.955458
Si Si4 0.315041 0.401514 0.864179
Si Si5 0.815408 0.750000 0.297346
Si Si6 0.185002 0.750000 0.195533
O O1 0.750000 0.500000 0.350461
O O2 0.774026 0.636911 0.408283
O O3 0.748873 0.663013 0.322129
O O4 0.000000 0.587792 0.355037
O O5 0.750000 0.500000 0.542713
O O6 0.750000 0.349747 0.500000
O O7 0.000000 0.405898 0.536823
O O8 0.500000 0.899228 0.955417
O O9 0.249643 0.858144 0.910211
O O10 0.250000 0.000000 0.955902
O O11 0.250000 0.852343 0.000000
O O12 0.500000 0.405251 0.865803
O O13 0.250000 0.500000 0.856102
O O14 0.257051 0.338671 0.825012
O O15 0.761121 0.750000 0.246579
O O16 0.000000 0.750000 0.300953
O O17 0.000000 0.750000 0.189621
#
# Coordination Sequence:
#
# PCOD8278132 Si02
#       6
#    16  16  16  16   8   8
#     4   9  18  34  55  79 106 141 179 220 267 323
#     4   9  15  24  43  70 102 136 173 211 256 310
#     4  10  17  29  51  82 117 154 192 231 276 330
#     4  11  22  39  61  87 118 154 193 236 284 339
#     4   9  20  39  60  79 105 140 180 224 279 337
#     4  11  23  41  62  85 112 146 188 240 294 347
#
# _framework density 20.486718
#
# number of rings (size 3 to 8) (size 9 to 14) (size 15 to 20)
#    0.000    2.200    0.000    6.900    0.000    1.600 
#    0.000    5.500    0.000    0.000    0.000    0.000 
#    0.000    0.000    0.000    0.000    0.000    0.000 
#
# Total GULP energy -495642.441783 kJ/mol
# GULP energy per Si atom -12391.061045 kJ/mol
# Density = 2.044009 g / cm^3
# Si number density = 20.486718 Si / 1000 Ang^3
#
#
#
# Elastic Constant Matrix: (Units=GPa)
#
#
# Indices 1 2 3 4 5 6 
#
# 1 129.3857 34.2874 71.7998 0.0000 0.0000 0.0000
# 2 34.2874 95.0145 78.9545 0.0000 0.0000 0.0000
# 3 71.7998 78.9545 219.0071 0.0000 0.0000 0.0000
# 4 0.0000 0.0000 0.0000 -9.0885 0.0000 0.0000
# 5 0.0000 0.0000 0.0000 0.0000 15.7759 0.0000
# 6 0.0000 0.0000 0.0000 0.0000 0.0000 20.3205
#
#
#
# Elastic Compliance Matrix: (Units=1/GPa)
#
#
# Indices 1 2 3 4 5 6 
#
# 1 0.009543 -0.001205 -0.002694 0.000000 0.000000 0.000000
# 2 -0.001205 0.015178 -0.005077 0.000000 0.000000 0.000000
# 3 -0.002694 -0.005077 0.007280 0.000000 0.000000 0.000000
# 4 0.000000 0.000000 0.000000 -0.110029 0.000000 0.000000
# 5 0.000000 0.000000 0.000000 0.000000 0.063388 0.000000
# 6 0.000000 0.000000 0.000000 0.000000 0.000000 0.049211
#
#
# Mechanical properties :
#
#
# Convention : Reuss Voigt Hill
#
# Bulk Modulus (GPa) = 71.17983 90.38787 80.78385
# Shear Modulus (GPa) = 87.40263 22.62595 55.01429
#
# Velocity S-wave (km/s) = 6.53878 3.32689 5.18767
# Velocity P-wave (km/s) = 9.58266 7.67943 8.68335
#
# Compressibility (1/GPa) = 0.01404892
#
# Stress axis : x y z
#
# Youngs Moduli (GPa) = 104.78573 65.88344 137.36921
#
# Poissons Ratio (x) = 0.07939 0.37011
# Poissons Ratio (y) = 0.12626 0.69741
# Poissons Ratio (z) = 0.28232 0.33449
#
# Static dielectric constant tensor:
#      x y z
#    x 3.655140 0.000000 0.000000 
#    y 0.000000 2.706070 0.000000 
#    z 0.000000 0.000000 4.975110 
# 
# 
# High freq. dielectric constant tensor:
#      x y z
#    x 1.799320 0.000000 0.000000 
#    y 0.000000 1.772210 0.000000 
#    z 0.000000 0.000000 1.820680 
# 
# From -- ./inp_files/43382.got.cif
#   From: 2010.03.12/outbox.cif.g09.slc.cpg/sg67_22_cif.got.tgz:43382.got - 2010.04.10 22:41:39.
