data_PCOD8278030
_publ_section_title
;
Structure prediction by ZEFSAII (Michael W. Deem and Ramdas Pophale) SiO2 
 PCOD8278030
Probable space group: C M M A
;
_chemical_formula_sum "Si O2"
_cell_formula_units_Z 80
_cell_length_a 8.872831
_cell_length_b 30.545587
_cell_length_c 20.548518
_cell_angle_alpha 90.000000
_cell_angle_beta 90.000000
_cell_angle_gamma 90.000000
_cell_volume 5569.179172
_symmetry_space_group_name_H-M "C M M A"
_symmetry_group_IT_number 67
_symmetry_cell_setting 'orthorhombic'
loop_
_space_group_symop_operation_xyz
x,y,z
-x,1/2-y,z
x,-y,-z
-x,1/2+y,-z
-x,-y,-z
x,1/2+y,-z
-x,y,z
x,1/2-y,z
1/2+x,1/2+y,z
1/2-x,-y,z
1/2+x,1/2-y,-z
1/2-x,y,-z
1/2-x,1/2-y,-z
1/2+x,y,-z
1/2-x,1/2+y,z
1/2+x,-y,z
loop_
_atom_site_type_symbol
_atom_site_label
_atom_site_fract_x
_atom_site_fract_y
_atom_site_fract_z
Si Si1 0.330540 0.302210 0.064454
Si Si2 0.824287 0.299495 0.677131
Si Si3 0.819256 0.956848 0.571930
Si Si4 0.321470 0.130382 0.429998
Si Si5 0.169430 0.802122 0.807192
O O1 0.500000 0.319621 0.063660
O O2 0.323986 0.250000 0.064718
O O3 0.252122 0.321232 0.129179
O O4 0.250000 0.320708 0.000000
O O5 0.769007 0.250000 0.662616
O O6 0.782356 0.328368 0.614898
O O7 0.745386 0.319412 0.741093
O O8 0.000000 0.300426 0.691973
O O9 0.750000 0.955951 0.500000
O O10 0.757264 0.912054 0.604025
O O11 0.000000 0.958523 0.571366
O O12 0.750000 0.000000 0.607711
O O13 0.500000 0.122450 0.437101
O O14 0.250000 0.140537 0.500000
O O15 0.177728 0.750000 0.808433
O O16 0.000000 0.819562 0.808993
#
# Coordination Sequence:
#
# PCOD8278030 Si02
#       5
#    16  16  16  16  16
#     4   9  15  22  33  49  69  91 116 149 188 227
#     4   9  18  31  43  54  72 101 134 166 199 233
#     4  10  17  27  43  61  80  98 118 146 186 234
#     4  10  19  30  43  59  78  99 127 162 199 237
#     4   9  16  25  37  52  69  91 122 158 193 229
#
# _framework density 14.364774000000001
#
# number of rings (size 3 to 8) (size 9 to 14) (size 15 to 20)
#    0.000    2.600    0.000    5.400    0.000    6.800 
#    0.000    0.000    0.000    0.000    0.000    0.000 
#    0.000    0.000    0.000    0.000    0.000    1.000 
#
# Total GULP energy -495786.606754 kJ/mol
# GULP energy per Si atom -12394.665169 kJ/mol
# Density = 1.433208 g / cm^3
# Si number density = 14.364774 Si / 1000 Ang^3
#
#
#
# Elastic Constant Matrix: (Units=GPa)
#
#
# Indices 1 2 3 4 5 6 
#
# 1 113.8231 38.2914 56.9079 0.0000 0.0000 0.0000
# 2 38.2914 59.9428 39.8175 0.0000 0.0000 0.0000
# 3 56.9079 39.8175 100.0336 0.0000 0.0000 0.0000
# 4 0.0000 0.0000 0.0000 0.5400 0.0000 0.0000
# 5 0.0000 0.0000 0.0000 0.0000 25.0225 0.0000
# 6 0.0000 0.0000 0.0000 0.0000 0.0000 15.4531
#
#
#
# Elastic Compliance Matrix: (Units=1/GPa)
#
#
# Indices 1 2 3 4 5 6 
#
# 1 0.013175 -0.004673 -0.005635 0.000000 0.000000 0.000000
# 2 -0.004673 0.024336 -0.007028 0.000000 0.000000 0.000000
# 3 -0.005635 -0.007028 0.016000 0.000000 0.000000 0.000000
# 4 0.000000 0.000000 0.000000 1.851838 0.000000 0.000000
# 5 0.000000 0.000000 0.000000 0.000000 0.039964 0.000000
# 6 0.000000 0.000000 0.000000 0.000000 0.000000 0.064712
#
#
# Mechanical properties :
#
#
# Convention : Reuss Voigt Hill
#
# Bulk Modulus (GPa) = 53.08338 60.42590 56.75464
# Shear Modulus (GPa) = 2.43786 17.45531 9.94659
#
# Velocity S-wave (km/s) = 1.30415 3.48968 2.63426
# Velocity P-wave (km/s) = 6.26912 7.64158 6.98912
#
# Compressibility (1/GPa) = 0.01883829
#
# Stress axis : x y z
#
# Youngs Moduli (GPa) = 75.90160 41.09074 62.50028
#
# Poissons Ratio (x) = 0.19202 0.35219
# Poissons Ratio (y) = 0.35469 0.43928
# Poissons Ratio (z) = 0.42771 0.28880
#
# Static dielectric constant tensor:
#      x y z
#    x 2.967930 0.000000 0.000000 
#    y 0.000000 2.998060 0.000000 
#    z 0.000000 0.000000 2.735700 
# 
# 
# High freq. dielectric constant tensor:
#      x y z
#    x 1.569020 0.000000 0.000000 
#    y 0.000000 1.498780 0.000000 
#    z 0.000000 0.000000 1.529520 
# 
# From -- ./inp_files/32305.got.cif
#   From: 2010.03.12/outbox.cif.g09.slc.cpg/sg67_17_cif.got.tgz:32305.got - 2010.04.10 22:41:39.
