data_PCOD8278331
_publ_section_title
;
Structure prediction by ZEFSAII (Michael W. Deem and Ramdas Pophale) SiO2 
 PCOD8278331
Probable space group: C M M A
;
_chemical_formula_sum "Si O2"
_cell_formula_units_Z 80
_cell_length_a 19.160167
_cell_length_b 19.316025
_cell_length_c 12.709292
_cell_angle_alpha 90.000000
_cell_angle_beta 90.000000
_cell_angle_gamma 90.000000
_cell_volume 4703.686916
_symmetry_space_group_name_H-M "C M M A"
_symmetry_group_IT_number 67
_symmetry_cell_setting 'orthorhombic'
loop_
_space_group_symop_operation_xyz
x,y,z
-x,1/2-y,z
x,-y,-z
-x,1/2+y,-z
-x,-y,-z
x,1/2+y,-z
-x,y,z
x,1/2-y,z
1/2+x,1/2+y,z
1/2-x,-y,z
1/2+x,1/2-y,-z
1/2-x,y,-z
1/2-x,1/2-y,-z
1/2+x,y,-z
1/2-x,1/2+y,z
1/2+x,-y,z
loop_
_atom_site_type_symbol
_atom_site_label
_atom_site_fract_x
_atom_site_fract_y
_atom_site_fract_z
Si Si1 0.819264 0.172830 0.695901
Si Si2 0.579925 0.950800 0.711652
Si Si3 0.671754 0.025061 0.883788
Si Si4 0.717009 0.173448 0.886167
Si Si5 0.250000 0.111163 0.500000
Si Si6 0.134157 0.500000 0.500000
O O1 0.848212 0.250000 0.681853
O O2 0.886416 0.124272 0.696972
O O3 0.779496 0.163652 0.804932
O O4 0.765066 0.157356 0.602009
O O5 0.500000 0.941951 0.744663
O O6 0.618292 0.993678 0.801636
O O7 0.585288 0.990455 0.600990
O O8 0.664178 0.108825 0.874607
O O9 0.750000 0.000000 0.855296
O O10 0.650955 0.000000 0.000000
O O11 0.681278 0.250000 0.870627
O O12 0.750000 0.168051 0.000000
O O13 0.182460 0.065531 0.474571
#
# Coordination Sequence:
#
# PCOD8278331 Si02
#       6
#    16  16  16  16   8   8
#     4  10  19  31  48  73 104 133 168 210 258 307
#     4  11  22  34  51  74 104 139 174 209 256 311
#     4  11  19  34  55  78 104 133 171 218 254 299
#     4  10  18  30  51  78 103 129 163 210 261 300
#     4   9  17  30  52  78  95 127 166 218 261 303
#     4   9  19  32  52  74 102 128 170 220 258 302
#
# _framework density 17.007933999999999
#
# number of rings (size 3 to 8) (size 9 to 14) (size 15 to 20)
#    0.000    1.800    4.000    1.800    2.800    0.800 
#    0.000    0.000    0.000    0.600    0.000    0.000 
#    0.000    0.000    0.000    0.000    0.000    0.000 
#
# Total GULP energy -495930.888166 kJ/mol
# GULP energy per Si atom -12398.272204 kJ/mol
# Density = 1.696922 g / cm^3
# Si number density = 17.007934 Si / 1000 Ang^3
#
#
#
# Elastic Constant Matrix: (Units=GPa)
#
#
# Indices 1 2 3 4 5 6 
#
# 1 84.4745 44.8381 61.7932 0.0000 0.0000 0.0000
# 2 44.8381 139.1355 52.2646 0.0000 0.0000 0.0000
# 3 61.7932 52.2646 128.4332 0.0000 0.0000 0.0000
# 4 0.0000 0.0000 0.0000 33.9241 0.0000 0.0000
# 5 0.0000 0.0000 0.0000 0.0000 14.5446 0.0000
# 6 0.0000 0.0000 0.0000 0.0000 0.0000 12.7826
#
#
#
# Elastic Compliance Matrix: (Units=1/GPa)
#
#
# Indices 1 2 3 4 5 6 
#
# 1 0.019435 -0.003247 -0.008029 0.000000 0.000000 0.000000
# 2 -0.003247 0.009027 -0.002111 0.000000 0.000000 0.000000
# 3 -0.008029 -0.002111 0.012508 0.000000 0.000000 0.000000
# 4 0.000000 0.000000 0.000000 0.029478 0.000000 0.000000
# 5 0.000000 0.000000 0.000000 0.000000 0.068754 0.000000
# 6 0.000000 0.000000 0.000000 0.000000 0.000000 0.078232
#
#
# Mechanical properties :
#
#
# Convention : Reuss Voigt Hill
#
# Bulk Modulus (GPa) = 70.44724 74.42610 72.43667
# Shear Modulus (GPa) = 20.08521 25.12676 22.60599
#
# Velocity S-wave (km/s) = 3.44020 3.84781 3.64970
# Velocity P-wave (km/s) = 7.56902 7.97468 7.77450
#
# Compressibility (1/GPa) = 0.01419502
#
# Stress axis : x y z
#
# Youngs Moduli (GPa) = 51.45397 110.78349 79.94628
#
# Poissons Ratio (x) = 0.35971 0.64192
# Poissons Ratio (y) = 0.16707 0.16877
# Poissons Ratio (z) = 0.41314 0.23387
#
# Static dielectric constant tensor:
#      x y z
#    x 2.761190 0.000000 0.000000 
#    y 0.000000 3.628730 0.000000 
#    z 0.000000 0.000000 3.389420 
# 
# 
# High freq. dielectric constant tensor:
#      x y z
#    x 1.607020 0.000000 0.000000 
#    y 0.000000 1.672140 0.000000 
#    z 0.000000 0.000000 1.677670 
# 
# From -- ./inp_files/19342.got.cif
#   From: 2010.03.12/outbox.cif.g09.slc.cpg/sg67_10_cif.got.tgz:19342.got - 2010.04.10 22:41:39.
