data_PCOD8278082
_publ_section_title
;
Structure prediction by ZEFSAII (Michael W. Deem and Ramdas Pophale) SiO2 
 PCOD8278082
Probable space group: C M M A
;
_chemical_formula_sum "Si O2"
_cell_formula_units_Z 80
_cell_length_a 8.728305
_cell_length_b 30.217362
_cell_length_c 20.653618
_cell_angle_alpha 90.000000
_cell_angle_beta 90.000000
_cell_angle_gamma 90.000000
_cell_volume 5447.316400
_symmetry_space_group_name_H-M "C M M A"
_symmetry_group_IT_number 67
_symmetry_cell_setting 'orthorhombic'
loop_
_space_group_symop_operation_xyz
x,y,z
-x,1/2-y,z
x,-y,-z
-x,1/2+y,-z
-x,-y,-z
x,1/2+y,-z
-x,y,z
x,1/2-y,z
1/2+x,1/2+y,z
1/2-x,-y,z
1/2+x,1/2-y,-z
1/2-x,y,-z
1/2-x,1/2-y,-z
1/2+x,y,-z
1/2-x,1/2+y,z
1/2+x,-y,z
loop_
_atom_site_type_symbol
_atom_site_label
_atom_site_fract_x
_atom_site_fract_y
_atom_site_fract_z
Si Si1 0.180390 0.367049 0.429627
Si Si2 0.819404 0.799955 0.936679
Si Si3 0.817622 0.456045 0.571878
Si Si4 0.671265 0.302684 0.796819
Si Si5 0.824671 0.801991 0.332861
O O1 0.250000 0.357478 0.500000
O O2 0.256771 0.410622 0.395965
O O3 0.215682 0.325377 0.384529
O O4 0.000000 0.374165 0.436507
O O5 0.754865 0.750000 0.937317
O O6 0.772191 0.821649 0.867046
O O7 0.000000 0.800761 0.942425
O O8 0.750000 0.825166 0.000000
O O9 0.750000 0.500000 0.607466
O O10 0.750000 0.455247 0.500000
O O11 0.000000 0.457681 0.571679
O O12 0.500000 0.319980 0.781046
O O13 0.667930 0.250000 0.802490
O O14 0.783593 0.318370 0.739670
O O15 0.793930 0.750000 0.339584
O O16 0.000000 0.814277 0.347113
#
# Coordination Sequence:
#
# PCOD8278082 Si02
#       5
#    16  16  16  16  16
#     4  11  21  33  47  62  80 102 130 165 204 242
#     4   8  13  20  31  48  69  91 117 151 190 229
#     4  10  17  28  45  65  86 104 124 151 189 236
#     4   8  14  25  38  51  69  95 126 159 195 234
#     4  10  20  32  44  58  76 101 135 172 207 242
#
# _framework density 14.68613
#
# number of rings (size 3 to 8) (size 9 to 14) (size 15 to 20)
#    0.000    2.600    0.000    7.200    0.000    2.400 
#    0.000    4.000    0.000    0.000    0.000    0.000 
#    0.000    0.000    0.000    0.000    0.000    1.000 
#
# Total GULP energy -495601.522417 kJ/mol
# GULP energy per Si atom -12390.038060 kJ/mol
# Density = 1.465270 g / cm^3
# Si number density = 14.686130 Si / 1000 Ang^3
#
#
#
# Elastic Constant Matrix: (Units=GPa)
#
#
# Indices 1 2 3 4 5 6 
#
# 1 96.9441 28.6181 34.9012 0.0000 0.0000 0.0000
# 2 28.6181 43.2501 31.2232 0.0000 0.0000 0.0000
# 3 34.9012 31.2232 87.9862 0.0000 0.0000 0.0000
# 4 0.0000 0.0000 0.0000 0.3155 0.0000 0.0000
# 5 0.0000 0.0000 0.0000 0.0000 24.8038 0.0000
# 6 0.0000 0.0000 0.0000 0.0000 0.0000 19.1252
#
#
#
# Elastic Compliance Matrix: (Units=1/GPa)
#
#
# Indices 1 2 3 4 5 6 
#
# 1 0.013350 -0.006736 -0.002905 0.000000 0.000000 0.000000
# 2 -0.006736 0.034484 -0.009565 0.000000 0.000000 0.000000
# 3 -0.002905 -0.009565 0.015912 0.000000 0.000000 0.000000
# 4 0.000000 0.000000 0.000000 3.169639 0.000000 0.000000
# 5 0.000000 0.000000 0.000000 0.000000 0.040316 0.000000
# 6 0.000000 0.000000 0.000000 0.000000 0.000000 0.052287
#
#
# Mechanical properties :
#
#
# Convention : Reuss Voigt Hill
#
# Bulk Modulus (GPa) = 39.47402 46.40726 42.94064
# Shear Modulus (GPa) = 1.48243 17.74476 9.61359
#
# Velocity S-wave (km/s) = 1.00578 3.47978 2.56130
# Velocity P-wave (km/s) = 5.31842 6.91471 6.16842
#
# Compressibility (1/GPa) = 0.02533312
#
# Stress axis : x y z
#
# Youngs Moduli (GPa) = 74.90894 28.99915 62.84571
#
# Poissons Ratio (x) = 0.19534 0.18256
# Poissons Ratio (y) = 0.50460 0.60112
# Poissons Ratio (z) = 0.21760 0.27738
#
# Static dielectric constant tensor:
#      x y z
#    x 2.897480 0.000000 0.000000 
#    y 0.000000 2.925350 0.000000 
#    z 0.000000 0.000000 2.984150 
# 
# 
# High freq. dielectric constant tensor:
#      x y z
#    x 1.574810 0.000000 0.000000 
#    y 0.000000 1.508460 0.000000 
#    z 0.000000 0.000000 1.547690 
# 
# From -- ./inp_files/32303.got.cif
#   From: 2010.03.12/outbox.cif.g09.slc.cpg/sg67_17_cif.got.tgz:32303.got - 2010.04.10 22:41:39.
