data_PCOD8278739
_publ_section_title
;
Structure prediction by ZEFSAII (Michael W. Deem and Ramdas Pophale) SiO2 
 PCOD8278739
Probable space group: C M M A
;
_chemical_formula_sum "Si O2"
_cell_formula_units_Z 80
_cell_length_a 28.148115
_cell_length_b 27.343822
_cell_length_c 5.252994
_cell_angle_alpha 90.000000
_cell_angle_beta 90.000000
_cell_angle_gamma 90.000000
_cell_volume 4043.108906
_symmetry_space_group_name_H-M "C M M A"
_symmetry_group_IT_number 67
_symmetry_cell_setting 'orthorhombic'
loop_
_space_group_symop_operation_xyz
x,y,z
-x,1/2-y,z
x,-y,-z
-x,1/2+y,-z
-x,-y,-z
x,1/2+y,-z
-x,y,z
x,1/2-y,z
1/2+x,1/2+y,z
1/2-x,-y,z
1/2+x,1/2-y,-z
1/2-x,y,-z
1/2-x,1/2-y,-z
1/2+x,y,-z
1/2-x,1/2+y,z
1/2+x,-y,z
loop_
_atom_site_type_symbol
_atom_site_label
_atom_site_fract_x
_atom_site_fract_y
_atom_site_fract_z
Si Si1 0.945828 0.191658 0.011380
Si Si2 0.293845 0.193965 0.673006
Si Si3 0.693313 0.055565 0.494772
Si Si4 0.896421 0.306551 0.511970
Si Si5 0.697064 0.395539 0.990693
O O1 0.942363 0.250000 0.012882
O O2 0.921153 0.169499 0.263674
O O3 0.000000 0.173783 0.997652
O O4 0.917078 0.169580 0.770107
O O5 0.286105 0.250000 0.757097
O O6 0.250000 0.174092 0.500000
O O7 0.339805 0.187269 0.496010
O O8 0.299746 0.163215 0.935918
O O9 0.750000 0.058333 0.500000
O O10 0.671116 0.080888 0.745432
O O11 0.675076 0.000000 0.500000
O O12 0.672509 0.086725 0.253484
O O13 0.910907 0.250000 0.513077
O O14 0.750000 0.417654 0.000000
#
# Coordination Sequence:
#
# PCOD8278739 Si02
#       5
#    16  16  16  16  16
#     4   9  16  28  46  65  83 105 145 207 267 310
#     4  10  21  35  48  65  98 144 187 219 239 268
#     4   9  17  30  48  67  85 106 144 205 265 305
#     4   9  18  30  44  63  86 118 162 205 248 294
#     4  10  19  31  46  65  87 118 162 204 246 290
#
# _framework density 19.786753000000001
#
# number of rings (size 3 to 8) (size 9 to 14) (size 15 to 20)
#    0.000    2.600    0.000    3.000    0.000    8.400 
#    0.000    7.000    0.000    0.600    0.000    0.000 
#    0.000    0.000    0.000    0.000    0.000   70.000 
#
# Total GULP energy -495721.088958 kJ/mol
# GULP energy per Si atom -12393.027224 kJ/mol
# Density = 1.974172 g / cm^3
# Si number density = 19.786753 Si / 1000 Ang^3
#
#
#
# Elastic Constant Matrix: (Units=GPa)
#
#
# Indices 1 2 3 4 5 6 
#
# 1 88.4337 -1.8092 40.7770 0.0000 0.0000 0.0000
# 2 -1.8092 96.1925 42.6503 0.0000 0.0000 0.0000
# 3 40.7770 42.6503 173.5344 0.0000 0.0000 0.0000
# 4 0.0000 0.0000 0.0000 25.2206 0.0000 0.0000
# 5 0.0000 0.0000 0.0000 0.0000 19.4349 0.0000
# 6 0.0000 0.0000 0.0000 0.0000 0.0000 -0.7590
#
#
#
# Elastic Compliance Matrix: (Units=1/GPa)
#
#
# Indices 1 2 3 4 5 6 
#
# 1 0.012950 0.001788 -0.003482 0.000000 0.000000 0.000000
# 2 0.001788 0.011914 -0.003348 0.000000 0.000000 0.000000
# 3 -0.003482 -0.003348 0.007404 0.000000 0.000000 0.000000
# 4 0.000000 0.000000 0.000000 0.039650 0.000000 0.000000
# 5 0.000000 0.000000 0.000000 0.000000 0.051454 0.000000
# 6 0.000000 0.000000 0.000000 0.000000 0.000000 -1.317457
#
#
# Mechanical properties :
#
#
# Convention : Reuss Voigt Hill
#
# Bulk Modulus (GPa) = 45.08167 57.93299 51.50733
# Shear Modulus (GPa) = -4.24951 27.21546 11.48297
#
# Velocity S-wave (km/s) = -1.46708 3.71271 2.41163
# Velocity P-wave (km/s) = 4.46805 6.90806 5.81742
#
# Compressibility (1/GPa) = 0.02218196
#
# Stress axis : x y z
#
# Youngs Moduli (GPa) = 77.21888 83.93495 135.06697
#
# Poissons Ratio (x) = -0.15004 0.47035
# Poissons Ratio (y) = -0.13804 0.45223
# Poissons Ratio (z) = 0.26891 0.28103
#
# Static dielectric constant tensor:
#      x y z
#    x 3.223240 0.000000 0.000000 
#    y 0.000000 3.304690 0.000000 
#    z 0.000000 0.000000 4.093700 
# 
# 
# High freq. dielectric constant tensor:
#      x y z
#    x 1.714840 0.000000 0.000000 
#    y 0.000000 1.720270 0.000000 
#    z 0.000000 0.000000 1.797820 
# 
# From -- ./inp_files/4248.got.cif
#   From: 2010.03.12/outbox.cif.g09.slc.cpg/sg67_3_cif.got.tgz:4248.got - 2010.04.10 22:41:39.
