data_PCOD8278367
_publ_section_title
;
Structure prediction by ZEFSAII (Michael W. Deem and Ramdas Pophale) SiO2 
 PCOD8278367
Probable space group: C M M A
;
_chemical_formula_sum "Si O2"
_cell_formula_units_Z 104
_cell_length_a 13.645083
_cell_length_b 19.319035
_cell_length_c 17.653280
_cell_angle_alpha 90.000000
_cell_angle_beta 90.000000
_cell_angle_gamma 90.000000
_cell_volume 4653.578247
_symmetry_space_group_name_H-M "C M M A"
_symmetry_group_IT_number 67
_symmetry_cell_setting 'orthorhombic'
loop_
_space_group_symop_operation_xyz
x,y,z
-x,1/2-y,z
x,-y,-z
-x,1/2+y,-z
-x,-y,-z
x,1/2+y,-z
-x,y,z
x,1/2-y,z
1/2+x,1/2+y,z
1/2-x,-y,z
1/2+x,1/2-y,-z
1/2-x,y,-z
1/2-x,1/2-y,-z
1/2+x,y,-z
1/2-x,1/2+y,z
1/2+x,-y,z
loop_
_atom_site_type_symbol
_atom_site_label
_atom_site_fract_x
_atom_site_fract_y
_atom_site_fract_z
Si Si1 0.614561 0.053081 0.341658
Si Si2 0.117124 0.670769 0.453376
Si Si3 0.111700 0.830895 0.030936
Si Si4 0.750000 0.000000 0.786219
Si Si5 0.707616 0.373616 0.880272
Si Si6 0.114765 0.592536 0.599763
Si Si7 0.610111 0.174346 0.740248
O O1 0.500000 0.056377 0.322234
O O2 0.651539 0.123681 0.382147
O O3 0.671904 0.042468 0.263738
O O4 0.636394 0.989698 0.400638
O O5 0.155430 0.750000 0.445318
O O6 0.161670 0.634603 0.529316
O O7 0.000000 0.669524 0.456569
O O8 0.130906 0.750000 0.017140
O O9 0.179422 0.857847 0.099173
O O10 0.000000 0.846588 0.053311
O O11 0.139214 0.870486 0.954013
O O12 0.693309 0.051675 0.842114
O O13 0.672668 0.319621 0.816906
O O14 0.157250 0.621187 0.679587
O O15 0.000000 0.608049 0.597877
O O16 0.500000 0.150655 0.761598
O O17 0.609273 0.250000 0.701920
#
# Coordination Sequence:
#
# PCOD8278367 Si02
#       7
#    16  16  16   8  16  16  16
#     4  10  21  39  61  85 120 168 212 258 319 375
#     4   9  17  32  57  88 122 162 212 267 319 374
#     4  10  22  42  68  97 125 157 198 243 301 372
#     4  12  26  41  61  90 126 164 210 258 300 370
#     4  11  22  39  61  89 126 164 200 246 302 359
#     4   9  16  30  55  88 120 158 208 261 314 369
#     4  10  18  30  56  93 127 160 201 252 310 365
#
# _framework density 22.348395
#
# number of rings (size 3 to 8) (size 9 to 14) (size 15 to 20)
#    0.000    2.000    1.538    3.231    0.000    7.385 
#    0.000    4.615    0.000    2.769    0.000    0.000 
#    0.000    0.000    0.000    0.000    0.000    0.000 
#
# Total GULP energy -644734.029248 kJ/mol
# GULP energy per Si atom -12398.731332 kJ/mol
# Density = 2.229753 g / cm^3
# Si number density = 22.348395 Si / 1000 Ang^3
#
#
#
# Elastic Constant Matrix: (Units=GPa)
#
#
# Indices 1 2 3 4 5 6 
#
# 1 82.9566 26.9291 50.7196 0.0000 0.0000 0.0000
# 2 26.9291 133.2356 61.0003 0.0000 0.0000 0.0000
# 3 50.7196 61.0003 124.3379 0.0000 0.0000 0.0000
# 4 0.0000 0.0000 0.0000 36.3107 0.0000 0.0000
# 5 0.0000 0.0000 0.0000 0.0000 30.4378 0.0000
# 6 0.0000 0.0000 0.0000 0.0000 0.0000 21.5274
#
#
#
# Elastic Compliance Matrix: (Units=1/GPa)
#
#
# Indices 1 2 3 4 5 6 
#
# 1 0.016070 -0.000318 -0.006399 0.000000 0.000000 0.000000
# 2 -0.000318 0.009686 -0.004622 0.000000 0.000000 0.000000
# 3 -0.006399 -0.004622 0.012921 0.000000 0.000000 0.000000
# 4 0.000000 0.000000 0.000000 0.027540 0.000000 0.000000
# 5 0.000000 0.000000 0.000000 0.000000 0.032854 0.000000
# 6 0.000000 0.000000 0.000000 0.000000 0.000000 0.046452
#
#
# Mechanical properties :
#
#
# Convention : Reuss Voigt Hill
#
# Bulk Modulus (GPa) = 62.50923 68.64757 65.57840
# Shear Modulus (GPa) = 28.81262 31.11392 29.96327
#
# Velocity S-wave (km/s) = 3.59451 3.73530 3.66558
# Velocity P-wave (km/s) = 6.72743 7.02758 6.87915
#
# Compressibility (1/GPa) = 0.01599764
#
# Stress axis : x y z
#
# Youngs Moduli (GPa) = 62.22668 103.24153 77.39593
#
# Poissons Ratio (x) = 0.03286 0.49527
# Poissons Ratio (y) = 0.01980 0.35774
# Poissons Ratio (z) = 0.39820 0.47720
#
# Static dielectric constant tensor:
#      x y z
#    x 3.940640 0.000000 0.000000 
#    y 0.000000 4.090630 0.000000 
#    z 0.000000 0.000000 3.907690 
# 
# 
# High freq. dielectric constant tensor:
#      x y z
#    x 1.881560 0.000000 0.000000 
#    y 0.000000 1.880550 0.000000 
#    z 0.000000 0.000000 1.870780 
# 
# From -- ./inp_files/33737.got.cif
#   From: 2010.03.12/outbox.cif.g09.slc.cpg/sg67_17_cif.got.tgz:33737.got - 2010.04.10 22:41:39.
