data_PCOD8278287
_publ_section_title
;
Structure prediction by ZEFSAII (Michael W. Deem and Ramdas Pophale) SiO2 
 PCOD8278287
Probable space group: C M M A
;
_chemical_formula_sum "Si O2"
_cell_formula_units_Z 120
_cell_length_a 9.095806
_cell_length_b 29.345823
_cell_length_c 25.272876
_cell_angle_alpha 90.000000
_cell_angle_beta 90.000000
_cell_angle_gamma 90.000000
_cell_volume 6745.934953
_symmetry_space_group_name_H-M "C M M A"
_symmetry_group_IT_number 67
_symmetry_cell_setting 'orthorhombic'
loop_
_space_group_symop_operation_xyz
x,y,z
-x,1/2-y,z
x,-y,-z
-x,1/2+y,-z
-x,-y,-z
x,1/2+y,-z
-x,y,z
x,1/2-y,z
1/2+x,1/2+y,z
1/2-x,-y,z
1/2+x,1/2-y,-z
1/2-x,y,-z
1/2-x,1/2-y,-z
1/2+x,y,-z
1/2-x,1/2+y,z
1/2+x,-y,z
loop_
_atom_site_type_symbol
_atom_site_label
_atom_site_fract_x
_atom_site_fract_y
_atom_site_fract_z
Si Si1 0.175670 0.250000 0.442484
Si Si2 0.329847 0.545498 0.167903
Si Si3 0.331784 0.836595 0.553519
Si Si4 0.827947 0.198802 0.748001
Si Si5 0.174077 0.639176 0.153177
Si Si6 0.834018 0.043326 0.292563
Si Si7 0.828150 0.801880 0.052423
Si Si8 0.164789 0.373721 0.663813
O O1 0.250000 0.250000 0.500000
O O2 0.242399 0.204361 0.417449
O O3 0.000000 0.250000 0.441928
O O4 0.500000 0.544424 0.150512
O O5 0.250000 0.500000 0.145512
O O6 0.252587 0.590649 0.145815
O O7 0.311514 0.547003 0.230461
O O8 0.500000 0.822844 0.538747
O O9 0.250000 0.853732 0.500000
O O10 0.330484 0.873630 0.599884
O O11 0.757049 0.250000 0.748183
O O12 0.766282 0.166978 0.795567
O O13 0.793102 0.174340 0.691892
O O14 0.000000 0.204625 0.757180
O O15 0.219609 0.668249 0.102255
O O16 0.000000 0.630799 0.157447
O O17 0.778994 0.089053 0.318773
O O18 0.000000 0.036497 0.309435
O O19 0.750000 0.000000 0.316161
O O20 0.778894 0.750000 0.063848
O O21 0.000000 0.805078 0.042417
O O22 0.750000 0.821098 0.000000
O O23 0.000000 0.387020 0.682552
#
# Coordination Sequence:
#
# PCOD8278287 Si02
#       8
#     8  16  16  16  16  16  16  16
#     4  10  18  30  48  68  92 126 168 214 255 294
#     4  10  20  33  51  76 105 136 171 210 257 310
#     4  10  20  33  50  71  97 131 172 215 255 304
#     4   9  17  29  48  74 103 136 171 208 249 298
#     4  10  18  31  53  77 105 138 176 216 257 305
#     4  10  20  34  54  77 105 134 167 209 256 309
#     4   9  18  32  51  77 106 141 183 223 257 297
#     4  10  20  33  53  77 102 133 172 211 253 307
#
# _framework density 17.788491
#
# number of rings (size 3 to 8) (size 9 to 14) (size 15 to 20)
#    0.000    2.267    1.333    3.000    0.933    4.267 
#    0.000    0.000    0.000    2.800    0.000    5.600 
#    0.000    0.000    0.000    0.000    0.000    0.000 
#
# Total GULP energy -743673.827347 kJ/mol
# GULP energy per Si atom -12394.563789 kJ/mol
# Density = 1.774800 g / cm^3
# Si number density = 17.788491 Si / 1000 Ang^3
#
#
#
# Elastic Constant Matrix: (Units=GPa)
#
#
# Indices 1 2 3 4 5 6 
#
# 1 88.9218 45.6883 45.6498 0.0000 0.0000 0.0000
# 2 45.6883 117.0681 44.3464 0.0000 0.0000 0.0000
# 3 45.6498 44.3464 78.3119 0.0000 0.0000 0.0000
# 4 0.0000 0.0000 0.0000 16.2359 0.0000 0.0000
# 5 0.0000 0.0000 0.0000 0.0000 22.4992 0.0000
# 6 0.0000 0.0000 0.0000 0.0000 0.0000 31.1638
#
#
#
# Elastic Compliance Matrix: (Units=1/GPa)
#
#
# Indices 1 2 3 4 5 6 
#
# 1 0.017232 -0.003717 -0.007940 0.000000 0.000000 0.000000
# 2 -0.003717 0.011677 -0.004445 0.000000 0.000000 0.000000
# 3 -0.007940 -0.004445 0.019915 0.000000 0.000000 0.000000
# 4 0.000000 0.000000 0.000000 0.061592 0.000000 0.000000
# 5 0.000000 0.000000 0.000000 0.000000 0.044446 0.000000
# 6 0.000000 0.000000 0.000000 0.000000 0.000000 0.032089
#
#
# Mechanical properties :
#
#
# Convention : Reuss Voigt Hill
#
# Bulk Modulus (GPa) = 60.17347 61.74120 60.95733
# Shear Modulus (GPa) = 22.25240 23.88759 23.06999
#
# Velocity S-wave (km/s) = 3.54071 3.66849 3.60516
# Velocity P-wave (km/s) = 7.11450 7.26138 7.18831
#
# Compressibility (1/GPa) = 0.01661862
#
# Stress axis : x y z
#
# Youngs Moduli (GPa) = 58.03180 85.63995 50.21335
#
# Poissons Ratio (x) = 0.31836 0.39868
# Poissons Ratio (y) = 0.21573 0.22321
# Poissons Ratio (z) = 0.46076 0.38070
#
# Static dielectric constant tensor:
#      x y z
#    x 3.246970 0.000000 0.000000 
#    y 0.000000 3.681170 0.000000 
#    z 0.000000 0.000000 3.159210 
# 
# 
# High freq. dielectric constant tensor:
#      x y z
#    x 1.680540 0.000000 0.000000 
#    y 0.000000 1.683690 0.000000 
#    z 0.000000 0.000000 1.668960 
# 
# From -- ./inp_files/43949.got.cif
#   From: 2010.03.12/outbox.cif.g09.slc.cpg/sg67_22_cif.got.tgz:43949.got - 2010.04.10 22:41:39.
