data_PCOD8278063
_publ_section_title
;
Structure prediction by ZEFSAII (Michael W. Deem and Ramdas Pophale) SiO2 
 PCOD8278063
Probable space group: C M M A
;
_chemical_formula_sum "Si O2"
_cell_formula_units_Z 96
_cell_length_a 19.147256
_cell_length_b 8.700130
_cell_length_c 31.211425
_cell_angle_alpha 90.000000
_cell_angle_beta 90.000000
_cell_angle_gamma 90.000000
_cell_volume 5199.312048
_symmetry_space_group_name_H-M "C M M A"
_symmetry_group_IT_number 67
_symmetry_cell_setting 'orthorhombic'
loop_
_space_group_symop_operation_xyz
x,y,z
-x,1/2-y,z
x,-y,-z
-x,1/2+y,-z
-x,-y,-z
x,1/2+y,-z
-x,y,z
x,1/2-y,z
1/2+x,1/2+y,z
1/2-x,-y,z
1/2+x,1/2-y,-z
1/2-x,y,-z
1/2-x,1/2-y,-z
1/2+x,y,-z
1/2-x,1/2+y,z
1/2+x,-y,z
loop_
_atom_site_type_symbol
_atom_site_label
_atom_site_fract_x
_atom_site_fract_y
_atom_site_fract_z
Si Si1 0.326718 0.431741 0.119022
Si Si2 0.081589 0.928145 0.954605
Si Si3 0.420282 0.069243 0.543973
Si Si4 0.825491 0.427621 0.710968
Si Si5 0.327520 0.568114 0.205763
Si Si6 0.826262 0.071685 0.616395
O O1 0.320586 0.250000 0.122463
O O2 0.250000 0.500000 0.111252
O O3 0.376644 0.477721 0.080576
O O4 0.361695 0.498551 0.162723
O O5 0.103458 0.750000 0.953845
O O6 0.000000 0.949406 0.945216
O O7 0.102170 0.000000 0.000000
O O8 0.500000 0.014914 0.549931
O O9 0.413496 0.250000 0.541303
O O10 0.389365 0.000000 0.500000
O O11 0.377832 0.009955 0.584174
O O12 0.818919 0.250000 0.723329
O O13 0.750000 0.500000 0.706368
O O14 0.866531 0.513035 0.750243
O O15 0.860048 0.450324 0.664116
O O16 0.327567 0.750000 0.202479
O O17 0.250000 0.500000 0.208434
O O18 0.819877 0.250000 0.604893
O O19 0.750000 0.000000 0.612385
#
# Coordination Sequence:
#
# PCOD8278063 Si02
#       6
#    16  16  16  16  16  16
#     4  11  21  34  53  78 108 138 173 215 259 303
#     4  10  21  38  58  79 104 135 172 211 255 309
#     4  10  21  37  56  76 100 132 170 210 254 307
#     4   9  16  27  44  69 100 133 167 204 248 298
#     4  10  17  27  45  70 101 135 170 208 252 301
#     4  10  20  33  52  78 107 136 169 211 255 300
#
# _framework density 18.463981
#
# number of rings (size 3 to 8) (size 9 to 14) (size 15 to 20)
#    0.000    2.000    0.000    7.000    0.000    4.667 
#    0.000    3.333    0.000    1.000    0.000    4.667 
#    0.000    0.000    0.000    0.000    0.000    0.000 
#
# Total GULP energy -594985.853329 kJ/mol
# GULP energy per Si atom -12395.538611 kJ/mol
# Density = 1.842196 g / cm^3
# Si number density = 18.463981 Si / 1000 Ang^3
#
#
#
# Elastic Constant Matrix: (Units=GPa)
#
#
# Indices 1 2 3 4 5 6 
#
# 1 39.6094 32.1222 49.8955 0.0000 0.0000 0.0000
# 2 32.1222 149.3939 70.6173 0.0000 0.0000 0.0000
# 3 49.8955 70.6173 168.8396 0.0000 0.0000 0.0000
# 4 0.0000 0.0000 0.0000 39.0923 0.0000 0.0000
# 5 0.0000 0.0000 0.0000 0.0000 -23.0922 0.0000
# 6 0.0000 0.0000 0.0000 0.0000 0.0000 23.0873
#
#
#
# Elastic Compliance Matrix: (Units=1/GPa)
#
#
# Indices 1 2 3 4 5 6 
#
# 1 0.042003 -0.003944 -0.010763 0.000000 0.000000 0.000000
# 2 -0.003944 0.008713 -0.002479 0.000000 0.000000 0.000000
# 3 -0.010763 -0.002479 0.010140 0.000000 0.000000 0.000000
# 4 0.000000 0.000000 0.000000 0.025580 0.000000 0.000000
# 5 0.000000 0.000000 0.000000 0.000000 -0.043305 0.000000
# 6 0.000000 0.000000 0.000000 0.000000 0.000000 0.043314
#
#
# Mechanical properties :
#
#
# Convention : Reuss Voigt Hill
#
# Bulk Modulus (GPa) = 37.75704 73.67920 55.71812
# Shear Modulus (GPa) = 38.56619 21.49801 30.03210
#
# Velocity S-wave (km/s) = 4.57522 3.41592 4.03739
# Velocity P-wave (km/s) = 6.95727 7.45311 7.20945
#
# Compressibility (1/GPa) = 0.02648513
#
# Stress axis : x y z
#
# Youngs Moduli (GPa) = 23.80767 114.76507 98.61532
#
# Poissons Ratio (x) = 0.45259 1.06143
# Poissons Ratio (y) = 0.09389 0.24447
# Poissons Ratio (z) = 0.25625 0.28450
#
# Static dielectric constant tensor:
#      x y z
#    x 2.877640 0.000000 0.000000 
#    y 0.000000 3.585110 0.000000 
#    z 0.000000 0.000000 4.387880 
# 
# 
# High freq. dielectric constant tensor:
#      x y z
#    x 1.658290 0.000000 0.000000 
#    y 0.000000 1.740090 0.000000 
#    z 0.000000 0.000000 1.746110 
# 
# From -- ./inp_files/44624.got.cif
#   From: 2010.03.12/outbox.cif.g09.slc.cpg/sg67_23_cif.got.tgz:44624.got - 2010.04.10 22:41:39.
