data_PCOD8278604
_publ_section_title
;
Structure prediction by ZEFSAII (Michael W. Deem and Ramdas Pophale) SiO2 
 PCOD8278604
Probable space group: C M M A
;
_chemical_formula_sum "Si O2"
_cell_formula_units_Z 116
_cell_length_a 9.147062
_cell_length_b 24.808818
_cell_length_c 28.984773
_cell_angle_alpha 90.000000
_cell_angle_beta 90.000000
_cell_angle_gamma 90.000000
_cell_volume 6577.450666
_symmetry_space_group_name_H-M "C M M A"
_symmetry_group_IT_number 67
_symmetry_cell_setting 'orthorhombic'
loop_
_space_group_symop_operation_xyz
x,y,z
-x,1/2-y,z
x,-y,-z
-x,1/2+y,-z
-x,-y,-z
x,1/2+y,-z
-x,y,z
x,1/2-y,z
1/2+x,1/2+y,z
1/2-x,-y,z
1/2+x,1/2-y,-z
1/2-x,y,-z
1/2-x,1/2-y,-z
1/2+x,y,-z
1/2-x,1/2+y,z
1/2+x,-y,z
loop_
_atom_site_type_symbol
_atom_site_label
_atom_site_fract_x
_atom_site_fract_y
_atom_site_fract_z
Si Si1 0.334477 0.314196 0.955171
Si Si2 0.750000 0.500000 0.500000
Si Si3 0.326701 0.553395 0.330297
Si Si4 0.337871 0.088169 0.569498
Si Si5 0.834975 0.185607 0.865110
Si Si6 0.338848 0.689384 0.221181
Si Si7 0.327106 0.342792 0.307546
Si Si8 0.329123 0.689799 0.588995
O O1 0.500000 0.336598 0.955037
O O2 0.336224 0.250000 0.955744
O O3 0.250295 0.335549 0.910074
O O4 0.250000 0.336471 0.000000
O O5 0.656849 0.458796 0.531065
O O6 0.500000 0.550674 0.323309
O O7 0.250000 0.500000 0.311769
O O8 0.279954 0.561458 0.383616
O O9 0.254487 0.600562 0.300849
O O10 0.500000 0.110486 0.576430
O O11 0.243194 0.141989 0.558237
O O12 0.839685 0.250000 0.863974
O O13 0.751914 0.161217 0.820152
O O14 0.000000 0.162726 0.865759
O O15 0.500000 0.662048 0.228456
O O16 0.366531 0.750000 0.205174
O O17 0.242227 0.693016 0.267565
O O18 0.500000 0.348768 0.300958
O O19 0.289377 0.316944 0.357122
O O20 0.500000 0.683892 0.580811
O O21 0.276555 0.750000 0.573678
#
# Coordination Sequence:
#
# PCOD8278604 Si02
#       8
#    16   4  16  16  16  16  16  16
#     4   9  15  22  32  46  65  92 131 180 231 281
#     4  12  22  40  58  82 106 132 164 200 246 292
#     4  10  19  34  52  74 100 125 153 187 229 272
#     4  10  22  36  56  82 105 131 162 199 238 281
#     4   9  16  25  36  50  71 102 140 184 232 278
#     4  10  19  29  41  60  87 118 152 191 232 275
#     4  10  19  31  49  72  95 123 157 191 230 275
#     4   9  19  36  56  77 103 133 163 196 237 284
#
# _framework density 17.636011
#
# number of rings (size 3 to 8) (size 9 to 14) (size 15 to 20)
#    0.000    2.345    0.690    2.690    0.000    7.172 
#    0.000    0.345    0.000    0.000    0.000    0.000 
#    0.000    0.000    0.000    0.000    0.000    0.690 
#
# Total GULP energy -718831.553145 kJ/mol
# GULP energy per Si atom -12393.647468 kJ/mol
# Density = 1.759587 g / cm^3
# Si number density = 17.636011 Si / 1000 Ang^3
#
#
#
# Elastic Constant Matrix: (Units=GPa)
#
#
# Indices 1 2 3 4 5 6 
#
# 1 119.0038 32.8958 33.0127 0.0000 0.0000 0.0000
# 2 32.8958 81.2431 13.9535 0.0000 0.0000 0.0000
# 3 33.0127 13.9535 72.9206 0.0000 0.0000 0.0000
# 4 0.0000 0.0000 0.0000 4.6462 0.0000 0.0000
# 5 0.0000 0.0000 0.0000 0.0000 23.5632 0.0000
# 6 0.0000 0.0000 0.0000 0.0000 0.0000 21.2018
#
#
#
# Elastic Compliance Matrix: (Units=1/GPa)
#
#
# Indices 1 2 3 4 5 6 
#
# 1 0.010519 -0.003558 -0.004081 0.000000 0.000000 0.000000
# 2 -0.003558 0.013931 -0.001055 0.000000 0.000000 0.000000
# 3 -0.004081 -0.001055 0.015763 0.000000 0.000000 0.000000
# 4 0.000000 0.000000 0.000000 0.215231 0.000000 0.000000
# 5 0.000000 0.000000 0.000000 0.000000 0.042439 0.000000
# 6 0.000000 0.000000 0.000000 0.000000 0.000000 0.047166
#
#
# Mechanical properties :
#
#
# Convention : Reuss Voigt Hill
#
# Bulk Modulus (GPa) = 43.81335 48.09905 45.95620
# Shear Modulus (GPa) = 13.51189 22.76926 18.14058
#
# Velocity S-wave (km/s) = 2.77095 3.59704 3.21067
# Velocity P-wave (km/s) = 5.92745 6.67713 6.31342
#
# Compressibility (1/GPa) = 0.02282409
#
# Stress axis : x y z
#
# Youngs Moduli (GPa) = 95.06752 71.78427 63.43950
#
# Poissons Ratio (x) = 0.25542 0.25891
# Poissons Ratio (y) = 0.33827 0.06692
# Poissons Ratio (z) = 0.38799 0.07572
#
# Static dielectric constant tensor:
#      x y z
#    x 3.432050 0.000000 0.000000 
#    y 0.000000 2.978660 0.000000 
#    z 0.000000 0.000000 3.191790 
# 
# 
# High freq. dielectric constant tensor:
#      x y z
#    x 1.698620 0.000000 0.000000 
#    y 0.000000 1.626590 0.000000 
#    z 0.000000 0.000000 1.668670 
# 
# From -- ./inp_files/45413.got.cif
#   From: 2010.03.12/outbox.cif.g09.slc.cpg/sg67_23_cif.got.tgz:45413.got - 2010.04.10 22:41:39.
