data_PCOD8278669
_publ_section_title
;
Structure prediction by ZEFSAII (Michael W. Deem and Ramdas Pophale) SiO2 
 PCOD8278669
Probable space group: C M M A
;
_chemical_formula_sum "Si O2"
_cell_formula_units_Z 80
_cell_length_a 19.005033
_cell_length_b 8.941377
_cell_length_c 26.453061
_cell_angle_alpha 90.000000
_cell_angle_beta 90.000000
_cell_angle_gamma 90.000000
_cell_volume 4495.199472
_symmetry_space_group_name_H-M "C M M A"
_symmetry_group_IT_number 67
_symmetry_cell_setting 'orthorhombic'
loop_
_space_group_symop_operation_xyz
x,y,z
-x,1/2-y,z
x,-y,-z
-x,1/2+y,-z
-x,-y,-z
x,1/2+y,-z
-x,y,z
x,1/2-y,z
1/2+x,1/2+y,z
1/2-x,-y,z
1/2+x,1/2-y,-z
1/2-x,y,-z
1/2-x,1/2-y,-z
1/2+x,y,-z
1/2-x,1/2+y,z
1/2+x,-y,z
loop_
_atom_site_type_symbol
_atom_site_label
_atom_site_fract_x
_atom_site_fract_y
_atom_site_fract_z
Si Si1 0.825747 0.074676 0.157276
Si Si2 0.083821 0.418408 0.450519
Si Si3 0.174022 0.575522 0.952444
Si Si4 0.326382 0.072485 0.255322
Si Si5 0.919756 0.074623 0.650269
O O1 0.818225 0.250000 0.168932
O O2 0.863691 0.049544 0.102421
O O3 0.750000 0.000000 0.154127
O O4 0.864281 0.993118 0.204383
O O5 0.114857 0.500000 0.500000
O O6 0.111929 0.250000 0.450967
O O7 0.111671 0.497076 0.399716
O O8 0.000000 0.425768 0.451634
O O9 0.182463 0.750000 0.963258
O O10 0.250000 0.500000 0.950146
O O11 0.131979 0.500000 0.000000
O O12 0.319903 0.250000 0.251027
O O13 0.374235 0.022542 0.302074
O O14 0.250000 0.000000 0.262684
O O15 0.914730 0.250000 0.641178
O O16 0.000000 0.024673 0.660289
#
# Coordination Sequence:
#
# PCOD8278669 Si02
#       5
#    16  16  16  16  16
#     4   9  16  25  37  54  78 108 142 177 212 255
#     4   9  16  26  43  67  92 117 144 176 216 259
#     4   9  15  21  31  48  71 101 134 170 211 252
#     4  10  19  30  46  65  87 118 150 181 217 257
#     4   9  18  32  48  67  91 117 147 182 217 255
#
# _framework density 17.796764
#
# number of rings (size 3 to 8) (size 9 to 14) (size 15 to 20)
#    0.000    2.800    0.000    4.200    0.000    6.400 
#    0.000    0.000    0.000    0.600    0.000    4.200 
#    0.000    0.800    0.000    1.800    0.000    8.200 
#
# Total GULP energy -495547.923655 kJ/mol
# GULP energy per Si atom -12388.698091 kJ/mol
# Density = 1.775626 g / cm^3
# Si number density = 17.796764 Si / 1000 Ang^3
#
#
#
# Elastic Constant Matrix: (Units=GPa)
#
#
# Indices 1 2 3 4 5 6 
#
# 1 23.5339 19.3422 37.9519 0.0000 0.0000 0.0000
# 2 19.3422 104.8695 85.4945 0.0000 0.0000 0.0000
# 3 37.9519 85.4945 225.9601 0.0000 0.0000 0.0000
# 4 0.0000 0.0000 0.0000 38.6265 0.0000 0.0000
# 5 0.0000 0.0000 0.0000 0.0000 2.3960 0.0000
# 6 0.0000 0.0000 0.0000 0.0000 0.0000 10.5930
#
#
#
# Elastic Compliance Matrix: (Units=1/GPa)
#
#
# Indices 1 2 3 4 5 6 
#
# 1 0.059463 -0.004085 -0.008442 0.000000 0.000000 0.000000
# 2 -0.004085 0.014070 -0.004637 0.000000 0.000000 0.000000
# 3 -0.008442 -0.004637 0.007598 0.000000 0.000000 0.000000
# 4 0.000000 0.000000 0.000000 0.025889 0.000000 0.000000
# 5 0.000000 0.000000 0.000000 0.000000 0.417358 0.000000
# 6 0.000000 0.000000 0.000000 0.000000 0.000000 0.094402
#
#
# Mechanical properties :
#
#
# Convention : Reuss Voigt Hill
#
# Bulk Modulus (GPa) = 21.36655 71.10452 46.23553
# Shear Modulus (GPa) = 7.47710 24.42811 15.95260
#
# Velocity S-wave (km/s) = 2.05195 3.70890 2.99720
# Velocity P-wave (km/s) = 4.20071 7.64079 6.16553
#
# Compressibility (1/GPa) = 0.04680213
#
# Stress axis : x y z
#
# Youngs Moduli (GPa) = 16.81720 71.07493 131.61477
#
# Poissons Ratio (x) = 0.29037 1.11103
# Poissons Ratio (y) = 0.06871 0.61033
# Poissons Ratio (z) = 0.14196 0.32959
#
# Static dielectric constant tensor:
#      x y z
#    x 2.590810 0.000000 0.000000 
#    y 0.000000 3.423540 0.000000 
#    z 0.000000 0.000000 4.429970 
# 
# 
# High freq. dielectric constant tensor:
#      x y z
#    x 1.594020 0.000000 0.000000 
#    y 0.000000 1.703850 0.000000 
#    z 0.000000 0.000000 1.724780 
# 
# From -- ./inp_files/44435.got.cif
#   From: 2010.03.12/outbox.cif.g09.slc.cpg/sg67_23_cif.got.tgz:44435.got - 2010.04.10 22:41:39.
