data_PCOD8278675
_publ_section_title
;
Structure prediction by ZEFSAII (Michael W. Deem and Ramdas Pophale) SiO2 
 PCOD8278675
Probable space group: C M M A
;
_chemical_formula_sum "Si O2"
_cell_formula_units_Z 88
_cell_length_a 9.299345
_cell_length_b 26.230413
_cell_length_c 21.136226
_cell_angle_alpha 90.000000
_cell_angle_beta 90.000000
_cell_angle_gamma 90.000000
_cell_volume 5155.667877
_symmetry_space_group_name_H-M "C M M A"
_symmetry_group_IT_number 67
_symmetry_cell_setting 'orthorhombic'
loop_
_space_group_symop_operation_xyz
x,y,z
-x,1/2-y,z
x,-y,-z
-x,1/2+y,-z
-x,-y,-z
x,1/2+y,-z
-x,y,z
x,1/2-y,z
1/2+x,1/2+y,z
1/2-x,-y,z
1/2+x,1/2-y,-z
1/2-x,y,-z
1/2-x,1/2-y,-z
1/2+x,y,-z
1/2-x,1/2+y,z
1/2+x,-y,z
loop_
_atom_site_type_symbol
_atom_site_label
_atom_site_fract_x
_atom_site_fract_y
_atom_site_fract_z
Si Si1 0.339959 0.050753 0.883718
Si Si2 0.330692 0.145123 0.801847
Si Si3 0.844177 0.806223 0.093974
Si Si4 0.750000 0.114477 0.000000
Si Si5 0.837063 0.189652 0.440100
Si Si6 0.830922 0.690517 0.314125
O O1 0.500000 0.032299 0.871555
O O2 0.292464 0.088507 0.827075
O O3 0.250000 0.000000 0.882852
O O4 0.335682 0.078774 0.951467
O O5 0.500000 0.152381 0.788903
O O6 0.282949 0.184400 0.856220
O O7 0.239393 0.155430 0.739368
O O8 0.819271 0.750000 0.064672
O O9 0.000000 0.808392 0.128890
O O10 0.854730 0.848154 0.038661
O O11 0.846228 0.250000 0.446182
O O12 0.750000 0.167010 0.500000
O O13 0.748078 0.173959 0.378257
O O14 0.000000 0.167271 0.437708
O O15 0.803625 0.750000 0.298638
O O16 0.000000 0.678985 0.320452
#
# Coordination Sequence:
#
# PCOD8278675 Si02
#       6
#    16  16  16   8  16  16
#     4  10  22  37  53  71  90 114 147 190 240 291
#     4  10  21  35  49  68  93 121 155 194 237 284
#     4  10  20  33  49  69  94 124 156 189 227 274
#     4  10  20  34  52  72  94 118 150 188 232 282
#     4   9  16  26  41  63  94 132 170 204 235 267
#     4  10  19  30  46  69  97 130 166 199 232 273
#
# _framework density 17.068594000000001
#
# number of rings (size 3 to 8) (size 9 to 14) (size 15 to 20)
#    0.000    2.182    0.000    3.273    0.000   11.636 
#    0.000    0.000    0.000    0.000    0.000    0.000 
#    0.000    0.727    0.000    7.636    0.000    4.545 
#
# Total GULP energy -545377.316397 kJ/mol
# GULP energy per Si atom -12394.939009 kJ/mol
# Density = 1.702974 g / cm^3
# Si number density = 17.068594 Si / 1000 Ang^3
#
#
#
# Elastic Constant Matrix: (Units=GPa)
#
#
# Indices 1 2 3 4 5 6 
#
# 1 122.3758 50.9598 67.7061 0.0000 0.0000 0.0000
# 2 50.9598 93.8303 49.2274 0.0000 0.0000 0.0000
# 3 67.7061 49.2274 129.0350 0.0000 0.0000 0.0000
# 4 0.0000 0.0000 0.0000 10.3438 0.0000 0.0000
# 5 0.0000 0.0000 0.0000 0.0000 31.0039 0.0000
# 6 0.0000 0.0000 0.0000 0.0000 0.0000 668.1801
#
#
#
# Elastic Compliance Matrix: (Units=1/GPa)
#
#
# Indices 1 2 3 4 5 6 
#
# 1 0.012749 -0.004269 -0.005061 0.000000 0.000000 0.000000
# 2 -0.004269 0.014754 -0.003389 0.000000 0.000000 0.000000
# 3 -0.005061 -0.003389 0.011698 0.000000 0.000000 0.000000
# 4 0.000000 0.000000 0.000000 0.096676 0.000000 0.000000
# 5 0.000000 0.000000 0.000000 0.000000 0.032254 0.000000
# 6 0.000000 0.000000 0.000000 0.000000 0.000000 0.001497
#
#
# Mechanical properties :
#
#
# Convention : Reuss Voigt Hill
#
# Bulk Modulus (GPa) = 72.65349 75.66976 74.16163
# Shear Modulus (GPa) = 25.04336 153.72876 89.38606
#
# Velocity S-wave (km/s) = 3.83458 9.50057 7.24448
# Velocity P-wave (km/s) = 7.89072 12.83654 10.65458
#
# Compressibility (1/GPa) = 0.01376396
#
# Stress axis : x y z
#
# Youngs Moduli (GPa) = 78.43529 67.77873 85.48286
#
# Poissons Ratio (x) = 0.28935 0.43264
# Poissons Ratio (y) = 0.33484 0.28968
# Poissons Ratio (z) = 0.39697 0.22968
#
# Static dielectric constant tensor:
#      x y z
#    x 3.364860 0.000000 0.000000 
#    y 0.000000 2.943080 0.000000 
#    z 0.000000 0.000000 3.202780 
# 
# 
# High freq. dielectric constant tensor:
#      x y z
#    x 1.676310 0.000000 0.000000 
#    y 0.000000 1.620190 0.000000 
#    z 0.000000 0.000000 1.650900 
# 
# From -- ./inp_files/36939.got.cif
#   From: 2010.03.12/outbox.cif.g09.slc.cpg/sg67_19_cif.got.tgz:36939.got - 2010.04.10 22:41:39.
