data_PCOD8278066
_publ_section_title
;
Structure prediction by ZEFSAII (Michael W. Deem and Ramdas Pophale) SiO2 
 PCOD8278066
Probable space group: C M M A
;
_chemical_formula_sum "Si O2"
_cell_formula_units_Z 80
_cell_length_a 18.414117
_cell_length_b 8.626484
_cell_length_c 26.148288
_cell_angle_alpha 90.000000
_cell_angle_beta 90.000000
_cell_angle_gamma 90.000000
_cell_volume 4153.631641
_symmetry_space_group_name_H-M "C M M A"
_symmetry_group_IT_number 67
_symmetry_cell_setting 'orthorhombic'
loop_
_space_group_symop_operation_xyz
x,y,z
-x,1/2-y,z
x,-y,-z
-x,1/2+y,-z
-x,-y,-z
x,1/2+y,-z
-x,y,z
x,1/2-y,z
1/2+x,1/2+y,z
1/2-x,-y,z
1/2+x,1/2-y,-z
1/2-x,y,-z
1/2-x,1/2-y,-z
1/2+x,y,-z
1/2-x,1/2+y,z
1/2+x,-y,z
loop_
_atom_site_type_symbol
_atom_site_label
_atom_site_fract_x
_atom_site_fract_y
_atom_site_fract_z
Si Si1 0.669157 0.933413 0.050993
Si Si2 0.670805 0.068100 0.654213
Si Si3 0.329175 0.431253 0.154281
Si Si4 0.830865 0.566639 0.449005
Si Si5 0.415331 0.928679 0.244707
O O1 0.668952 0.750000 0.048702
O O2 0.750000 0.000000 0.051902
O O3 0.633207 0.992332 0.103800
O O4 0.629101 0.000000 0.000000
O O5 0.678478 0.250000 0.645169
O O6 0.619096 0.026293 0.701160
O O7 0.750000 0.000000 0.665851
O O8 0.633053 0.992460 0.603775
O O9 0.320663 0.250000 0.144848
O O10 0.250000 0.500000 0.166119
O O11 0.381440 0.462798 0.201597
O O12 0.870863 0.500000 0.500000
O O13 0.830760 0.750000 0.451365
O O14 0.750000 0.500000 0.447972
O O15 0.500000 0.963574 0.248147
O O16 0.399160 0.750000 0.231048
#
# Coordination Sequence:
#
# PCOD8278066 Si02
#       5
#    16  16  16  16  16
#     4  10  17  28  47  74 107 138 170 210 258 308
#     4  10  19  32  52  77 104 134 170 211 255 305
#     4  11  21  34  54  80 108 139 177 218 260 308
#     4  10  17  27  45  71 103 133 164 204 251 302
#     4  10  22  39  56  75 103 139 176 217 266 315
#
# _framework density 19.260254
#
# number of rings (size 3 to 8) (size 9 to 14) (size 15 to 20)
#    0.000    1.800    0.000   10.200    0.000    3.600 
#    0.000    0.000    0.000    1.200    0.000    0.000 
#    0.000    0.000    0.000    0.000    0.000    0.000 
#
# Total GULP energy -495892.672459 kJ/mol
# GULP energy per Si atom -12397.316811 kJ/mol
# Density = 1.921642 g / cm^3
# Si number density = 19.260254 Si / 1000 Ang^3
#
#
#
# Elastic Constant Matrix: (Units=GPa)
#
#
# Indices 1 2 3 4 5 6 
#
# 1 54.1445 28.5483 47.5258 0.0000 0.0000 0.0000
# 2 28.5483 172.8360 82.8081 0.0000 0.0000 0.0000
# 3 47.5258 82.8081 186.1840 0.0000 0.0000 0.0000
# 4 0.0000 0.0000 0.0000 43.3762 0.0000 0.0000
# 5 0.0000 0.0000 0.0000 0.0000 -3.1755 0.0000
# 6 0.0000 0.0000 0.0000 0.0000 0.0000 14.2358
#
#
#
# Elastic Compliance Matrix: (Units=1/GPa)
#
#
# Indices 1 2 3 4 5 6 
#
# 1 0.024033 -0.001309 -0.005552 0.000000 0.000000 0.000000
# 2 -0.001309 0.007424 -0.002968 0.000000 0.000000 0.000000
# 3 -0.005552 -0.002968 0.008108 0.000000 0.000000 0.000000
# 4 0.000000 0.000000 0.000000 0.023054 0.000000 0.000000
# 5 0.000000 0.000000 0.000000 0.000000 -0.314916 0.000000
# 6 0.000000 0.000000 0.000000 0.000000 0.000000 0.070245
#
#
# Mechanical properties :
#
#
# Convention : Reuss Voigt Hill
#
# Bulk Modulus (GPa) = 50.23511 81.21433 65.72472
# Shear Modulus (GPa) = -32.10134 27.83946 -2.13094
#
# Velocity S-wave (km/s) = -4.08697 3.80601 -1.05299
# Velocity P-wave (km/s) = 1.96667 7.84682 5.72016
#
# Compressibility (1/GPa) = 0.01990639
#
# Stress axis : x y z
#
# Youngs Moduli (GPa) = 41.60914 134.69872 123.33122
#
# Poissons Ratio (x) = 0.17639 0.68478
# Poissons Ratio (y) = 0.05449 0.36600
# Poissons Ratio (z) = 0.23103 0.39974
#
# Static dielectric constant tensor:
#      x y z
#    x 2.930880 0.000000 0.000000 
#    y 0.000000 3.552800 0.000000 
#    z 0.000000 0.000000 4.761600 
# 
# 
# High freq. dielectric constant tensor:
#      x y z
#    x 1.679320 0.000000 0.000000 
#    y 0.000000 1.765870 0.000000 
#    z 0.000000 0.000000 1.784680 
# 
# From -- ./inp_files/44439.got.cif
#   From: 2010.03.12/outbox.cif.g09.slc.cpg/sg67_23_cif.got.tgz:44439.got - 2010.04.10 22:41:39.
