data_PCOD8278826
_publ_section_title
;
Structure prediction by ZEFSAII (Michael W. Deem and Ramdas Pophale) SiO2 
 PCOD8278826
Probable space group: C M M A
;
_chemical_formula_sum "Si O2"
_cell_formula_units_Z 120
_cell_length_a 20.371944
_cell_length_b 28.494964
_cell_length_c 12.164850
_cell_angle_alpha 90.000000
_cell_angle_beta 90.000000
_cell_angle_gamma 90.000000
_cell_volume 7061.668795
_symmetry_space_group_name_H-M "C M M A"
_symmetry_group_IT_number 67
_symmetry_cell_setting 'orthorhombic'
loop_
_space_group_symop_operation_xyz
x,y,z
-x,1/2-y,z
x,-y,-z
-x,1/2+y,-z
-x,-y,-z
x,1/2+y,-z
-x,y,z
x,1/2-y,z
1/2+x,1/2+y,z
1/2-x,-y,z
1/2+x,1/2-y,-z
1/2-x,y,-z
1/2-x,1/2-y,-z
1/2+x,y,-z
1/2-x,1/2+y,z
1/2+x,-y,z
loop_
_atom_site_type_symbol
_atom_site_label
_atom_site_fract_x
_atom_site_fract_y
_atom_site_fract_z
Si Si1 0.077498 0.197387 0.474477
Si Si2 0.656993 0.303431 0.902012
Si Si3 0.250000 0.908769 0.500000
Si Si4 0.077911 0.862368 0.734763
Si Si5 0.873255 0.948910 0.612826
Si Si6 0.647125 0.637690 0.652676
Si Si7 0.192520 0.196846 0.852856
Si Si8 0.925230 0.952397 0.378976
O O1 0.105340 0.250000 0.464567
O O2 0.100994 0.169422 0.367269
O O3 0.104661 0.174115 0.583719
O O4 0.000000 0.197249 0.482947
O O5 0.633575 0.250000 0.878152
O O6 0.608218 0.340385 0.845044
O O7 0.729979 0.311035 0.858155
O O8 0.656706 0.313270 0.031901
O O9 0.200971 0.941354 0.570613
O O10 0.288121 0.875479 0.584482
O O11 0.106871 0.914217 0.711902
O O12 0.000000 0.864601 0.748895
O O13 0.922420 0.941275 0.509710
O O14 0.881625 0.002320 0.653909
O O15 0.664225 0.660488 0.767355
O O16 0.604775 0.591892 0.684190
O O17 0.177712 0.250000 0.815497
O O18 0.000000 0.960628 0.343157
#
# Coordination Sequence:
#
# PCOD8278826 Si02
#       8
#    16  16   8  16  16  16  16  16
#     4  10  20  32  46  70 105 139 165 201 255 309
#     4   9  19  36  55  74  98 135 179 221 261 307
#     4  10  20  31  47  78 108 134 167 212 255 308
#     4  11  19  32  52  76 105 134 171 218 263 305
#     4  10  19  31  50  73 104 136 169 207 256 308
#     4  11  20  32  50  75 105 135 170 206 254 315
#     4   9  19  36  55  73 100 137 176 215 261 312
#     4  10  19  32  50  72 101 137 172 203 248 314
#
# _framework density 16.99315
#
# number of rings (size 3 to 8) (size 9 to 14) (size 15 to 20)
#    0.000    2.000    2.667    4.400    0.000    5.067 
#    0.000    2.000    0.000    2.400    0.000    3.733 
#    0.000    0.000    0.000    0.000    0.000    0.000 
#
# Total GULP energy -744043.928822 kJ/mol
# GULP energy per Si atom -12400.732147 kJ/mol
# Density = 1.695447 g / cm^3
# Si number density = 16.993150 Si / 1000 Ang^3
#
#
#
# Elastic Constant Matrix: (Units=GPa)
#
#
# Indices 1 2 3 4 5 6 
#
# 1 46.3954 48.4172 30.9623 0.0000 0.0000 0.0000
# 2 48.4172 108.6036 44.9278 0.0000 0.0000 0.0000
# 3 30.9623 44.9278 70.6552 0.0000 0.0000 0.0000
# 4 0.0000 0.0000 0.0000 26.3914 0.0000 0.0000
# 5 0.0000 0.0000 0.0000 0.0000 22.6935 0.0000
# 6 0.0000 0.0000 0.0000 0.0000 0.0000 22.3118
#
#
#
# Elastic Compliance Matrix: (Units=1/GPa)
#
#
# Indices 1 2 3 4 5 6 
#
# 1 0.044415 -0.015943 -0.009326 0.000000 0.000000 0.000000
# 2 -0.015943 0.018217 -0.004597 0.000000 0.000000 0.000000
# 3 -0.009326 -0.004597 0.021163 0.000000 0.000000 0.000000
# 4 0.000000 0.000000 0.000000 0.037891 0.000000 0.000000
# 5 0.000000 0.000000 0.000000 0.000000 0.044066 0.000000
# 6 0.000000 0.000000 0.000000 0.000000 0.000000 0.044819
#
#
# Mechanical properties :
#
#
# Convention : Reuss Voigt Hill
#
# Bulk Modulus (GPa) = 41.55674 52.69654 47.12664
# Shear Modulus (GPa) = 17.96457 21.03579 19.50018
#
# Velocity S-wave (km/s) = 3.25493 3.52219 3.39120
# Velocity P-wave (km/s) = 6.21564 6.90065 6.56708
#
# Compressibility (1/GPa) = 0.02406349
#
# Stress axis : x y z
#
# Youngs Moduli (GPa) = 22.51476 54.89262 47.25168
#
# Poissons Ratio (x) = 0.87516 0.44065
# Poissons Ratio (y) = 0.35896 0.21724
# Poissons Ratio (z) = 0.20997 0.25236
#
# Static dielectric constant tensor:
#      x y z
#    x 3.160500 0.000000 0.000000 
#    y 0.000000 3.377230 0.000000 
#    z 0.000000 0.000000 2.910390 
# 
# 
# High freq. dielectric constant tensor:
#      x y z
#    x 1.657940 0.000000 0.000000 
#    y 0.000000 1.665320 0.000000 
#    z 0.000000 0.000000 1.619930 
# 
# From -- ./inp_files/21295.got.cif
#   From: 2010.03.12/outbox.cif.g09.slc.cpg/sg67_11_cif.got.tgz:21295.got - 2010.04.10 22:41:39.
