data_PCOD8278663
_publ_section_title
;
Structure prediction by ZEFSAII (Michael W. Deem and Ramdas Pophale) SiO2 
 PCOD8278663
Probable space group: C M M A
;
_chemical_formula_sum "Si O2"
_cell_formula_units_Z 128
_cell_length_a 17.286426
_cell_length_b 24.611459
_cell_length_c 18.353064
_cell_angle_alpha 90.000000
_cell_angle_beta 90.000000
_cell_angle_gamma 90.000000
_cell_volume 7808.203984
_symmetry_space_group_name_H-M "C M M A"
_symmetry_group_IT_number 67
_symmetry_cell_setting 'orthorhombic'
loop_
_space_group_symop_operation_xyz
x,y,z
-x,1/2-y,z
x,-y,-z
-x,1/2+y,-z
-x,-y,-z
x,1/2+y,-z
-x,y,z
x,1/2-y,z
1/2+x,1/2+y,z
1/2-x,-y,z
1/2+x,1/2-y,-z
1/2-x,y,-z
1/2-x,1/2-y,-z
1/2+x,y,-z
1/2-x,1/2+y,z
1/2+x,-y,z
loop_
_atom_site_type_symbol
_atom_site_label
_atom_site_fract_x
_atom_site_fract_y
_atom_site_fract_z
Si Si1 0.798604 0.446226 0.384838
Si Si2 0.646300 0.900018 0.657725
Si Si3 0.086691 0.187220 0.755522
Si Si4 0.410540 0.496547 0.729355
Si Si5 0.340885 0.416138 0.012039
Si Si6 0.589986 0.990931 0.103862
Si Si7 0.091695 0.311831 0.919334
Si Si8 0.085483 0.435187 0.503458
O O1 0.750000 0.500000 0.409722
O O2 0.738015 0.403144 0.354321
O O3 0.860410 0.458633 0.322596
O O4 0.844874 0.416956 0.450537
O O5 0.634493 0.840772 0.691001
O O6 0.615455 0.941484 0.718819
O O7 0.600322 0.911548 0.583361
O O8 0.087868 0.250000 0.736317
O O9 0.120607 0.177267 0.836569
O O10 0.000000 0.163915 0.753194
O O11 0.500000 0.488898 0.708454
O O12 0.393440 0.479600 0.811878
O O13 0.362677 0.455977 0.078625
O O14 0.366687 0.354378 0.027418
O O15 0.250000 0.417878 0.000000
O O16 0.383702 0.437303 0.939465
O O17 0.500000 0.002733 0.089340
O O18 0.113350 0.250000 0.942626
O O19 0.000000 0.319864 0.923760
O O20 0.086868 0.500000 0.500000
O O21 0.000000 0.414768 0.478794
#
# Coordination Sequence:
#
# PCOD8278663 Si02
#       8
#    16  16  16  16  16  16  16  16
#     4  10  20  29  43  64  97 127 155 191 234 275
#     4  11  20  28  47  72  97 128 154 191 243 287
#     4   9  18  33  52  74  96 119 155 199 241 285
#     4  10  19  30  45  67  94 126 163 193 226 280
#     4  11  21  31  47  69  98 124 155 195 241 290
#     4  10  20  33  48  65  92 132 167 195 229 283
#     4   9  18  34  55  73  92 122 158 198 242 290
#     4  11  19  29  45  65  94 130 167 195 225 272
#
# _framework density 16.393014999999998
#
# number of rings (size 3 to 8) (size 9 to 14) (size 15 to 20)
#    0.000    1.875    2.500    5.625    0.000    6.250 
#    0.000    0.000    0.000    1.500    0.000    0.000 
#    0.000    1.500    0.000    0.500    0.000    0.000 
#
# Total GULP energy -793451.238534 kJ/mol
# GULP energy per Si atom -12397.675602 kJ/mol
# Density = 1.635570 g / cm^3
# Si number density = 16.393015 Si / 1000 Ang^3
#
#
#
# Elastic Constant Matrix: (Units=GPa)
#
#
# Indices 1 2 3 4 5 6 
#
# 1 113.8667 36.9325 46.0257 0.0000 0.0000 0.0000
# 2 36.9325 76.3946 40.7477 0.0000 0.0000 0.0000
# 3 46.0257 40.7477 92.1562 0.0000 0.0000 0.0000
# 4 0.0000 0.0000 0.0000 26.1145 0.0000 0.0000
# 5 0.0000 0.0000 0.0000 0.0000 -33.8515 0.0000
# 6 0.0000 0.0000 0.0000 0.0000 0.0000 15.2247
#
#
#
# Elastic Compliance Matrix: (Units=1/GPa)
#
#
# Indices 1 2 3 4 5 6 
#
# 1 0.011605 -0.003296 -0.004338 0.000000 0.000000 0.000000
# 2 -0.003296 0.018066 -0.006342 0.000000 0.000000 0.000000
# 3 -0.004338 -0.006342 0.015822 0.000000 0.000000 0.000000
# 4 0.000000 0.000000 0.000000 0.038293 0.000000 0.000000
# 5 0.000000 0.000000 0.000000 0.000000 -0.029541 0.000000
# 6 0.000000 0.000000 0.000000 0.000000 0.000000 0.065683
#
#
# Mechanical properties :
#
#
# Convention : Reuss Voigt Hill
#
# Bulk Modulus (GPa) = 57.01249 58.86991 57.94120
# Shear Modulus (GPa) = 32.52507 12.07833 22.30170
#
# Velocity S-wave (km/s) = 4.45914 2.71735 3.69241
# Velocity P-wave (km/s) = 7.83364 6.77014 7.32123
#
# Compressibility (1/GPa) = 0.01754002
#
# Stress axis : x y z
#
# Youngs Moduli (GPa) = 86.17009 55.35215 63.20335
#
# Poissons Ratio (x) = 0.18246 0.27420
# Poissons Ratio (y) = 0.28404 0.40082
# Poissons Ratio (z) = 0.37384 0.35103
#
# Static dielectric constant tensor:
#      x y z
#    x 3.310590 0.000000 0.000000 
#    y 0.000000 2.839130 0.000000 
#    z 0.000000 0.000000 3.195510 
# 
# 
# High freq. dielectric constant tensor:
#      x y z
#    x 1.640000 0.000000 0.000000 
#    y 0.000000 1.590050 0.000000 
#    z 0.000000 0.000000 1.634880 
# 
# From -- ./inp_files/34577.got.cif
#   From: 2010.03.12/outbox.cif.g09.slc.cpg/sg67_18_cif.got.tgz:34577.got - 2010.04.10 22:41:39.
