data_PCOD8278135
_publ_section_title
;
Structure prediction by ZEFSAII (Michael W. Deem and Ramdas Pophale) SiO2 
 PCOD8278135
Probable space group: C M M A
;
_chemical_formula_sum "Si O2"
_cell_formula_units_Z 128
_cell_length_a 19.867127
_cell_length_b 17.765575
_cell_length_c 21.051533
_cell_angle_alpha 90.000000
_cell_angle_beta 90.000000
_cell_angle_gamma 90.000000
_cell_volume 7430.158250
_symmetry_space_group_name_H-M "C M M A"
_symmetry_group_IT_number 67
_symmetry_cell_setting 'orthorhombic'
loop_
_space_group_symop_operation_xyz
x,y,z
-x,1/2-y,z
x,-y,-z
-x,1/2+y,-z
-x,-y,-z
x,1/2+y,-z
-x,y,z
x,1/2-y,z
1/2+x,1/2+y,z
1/2-x,-y,z
1/2+x,1/2-y,-z
1/2-x,y,-z
1/2-x,1/2-y,-z
1/2+x,y,-z
1/2-x,1/2+y,z
1/2+x,-y,z
loop_
_atom_site_type_symbol
_atom_site_label
_atom_site_fract_x
_atom_site_fract_y
_atom_site_fract_z
Si Si1 0.615887 0.411142 0.253769
Si Si2 0.422600 0.452786 0.828831
Si Si3 0.248979 0.082176 0.323622
Si Si4 0.293162 0.662241 0.557434
Si Si5 0.823351 0.162754 0.219385
Si Si6 0.684170 0.665956 0.855046
Si Si7 0.823305 0.522936 0.072472
Si Si8 0.574071 0.837388 0.618533
O O1 0.581002 0.487311 0.228999
O O2 0.691017 0.428692 0.274465
O O3 0.625341 0.351205 0.196688
O O4 0.575019 0.378526 0.313433
O O5 0.500000 0.439119 0.847257
O O6 0.390056 0.372029 0.812139
O O7 0.382690 0.483701 0.889235
O O8 0.256348 0.146041 0.376640
O O9 0.186060 0.111790 0.282899
O O10 0.250000 0.000000 0.357240
O O11 0.296037 0.750000 0.543646
O O12 0.250000 0.623810 0.500000
O O13 0.370345 0.631766 0.567588
O O14 0.836468 0.250000 0.237082
O O15 0.758866 0.156048 0.173736
O O16 0.673517 0.750000 0.880007
O O17 0.673346 0.612759 0.916322
O O18 0.750000 0.500000 0.098926
O O19 0.832415 0.500000 0.000000
O O20 0.500000 0.849334 0.588463
O O21 0.589418 0.750000 0.632183
#
# Coordination Sequence:
#
# PCOD8278135 Si02
#       8
#    16  16  16  16  16  16  16  16
#     4   9  17  28  48  75 106 127 161 204 258 304
#     4  11  21  33  52  76 103 138 170 205 254 305
#     4  10  17  29  52  76  97 129 165 213 253 292
#     4   9  18  31  46  70 102 134 170 210 246 290
#     4  10  19  32  50  75 104 133 166 208 257 307
#     4   9  17  30  53  78 102 129 166 212 261 303
#     4  10  20  36  55  74 102 133 173 218 253 296
#     4   9  16  27  45  71 102 134 165 202 252 305
#
# _framework density 17.227088999999999
#
# number of rings (size 3 to 8) (size 9 to 14) (size 15 to 20)
#    0.000    2.375    2.500    1.125    0.000    3.750 
#    0.000    1.875    0.000    4.125    0.000    3.500 
#    0.000    0.000    0.000    0.000    0.000    0.000 
#
# Total GULP energy -792849.591289 kJ/mol
# GULP energy per Si atom -12388.274864 kJ/mol
# Density = 1.718788 g / cm^3
# Si number density = 17.227089 Si / 1000 Ang^3
#
#
#
# Elastic Constant Matrix: (Units=GPa)
#
#
# Indices 1 2 3 4 5 6 
#
# 1 106.4358 38.9860 46.6605 0.0000 0.0000 0.0000
# 2 38.9860 87.1126 32.4480 0.0000 0.0000 0.0000
# 3 46.6605 32.4480 78.5602 0.0000 0.0000 0.0000
# 4 0.0000 0.0000 0.0000 21.2495 0.0000 0.0000
# 5 0.0000 0.0000 0.0000 0.0000 18.5500 0.0000
# 6 0.0000 0.0000 0.0000 0.0000 0.0000 16.5601
#
#
#
# Elastic Compliance Matrix: (Units=1/GPa)
#
#
# Indices 1 2 3 4 5 6 
#
# 1 0.013615 -0.003641 -0.006582 0.000000 0.000000 0.000000
# 2 -0.003641 0.014540 -0.003843 0.000000 0.000000 0.000000
# 3 -0.006582 -0.003843 0.018226 0.000000 0.000000 0.000000
# 4 0.000000 0.000000 0.000000 0.047060 0.000000 0.000000
# 5 0.000000 0.000000 0.000000 0.000000 0.053908 0.000000
# 6 0.000000 0.000000 0.000000 0.000000 0.000000 0.060386
#
#
# Mechanical properties :
#
#
# Convention : Reuss Voigt Hill
#
# Bulk Modulus (GPa) = 54.80113 56.47751 55.63932
# Shear Modulus (GPa) = 20.66528 21.53952 21.10240
#
# Velocity S-wave (km/s) = 3.46725 3.53983 3.50373
# Velocity P-wave (km/s) = 6.92165 7.04007 6.98111
#
# Compressibility (1/GPa) = 0.01824780
#
# Stress axis : x y z
#
# Youngs Moduli (GPa) = 73.44965 68.77374 54.86656
#
# Poissons Ratio (x) = 0.25042 0.36116
# Poissons Ratio (y) = 0.26745 0.21085
# Poissons Ratio (z) = 0.48348 0.26430
#
# Static dielectric constant tensor:
#      x y z
#    x 3.188360 0.000000 0.000000 
#    y 0.000000 3.252930 0.000000 
#    z 0.000000 0.000000 3.012000 
# 
# 
# High freq. dielectric constant tensor:
#      x y z
#    x 1.651510 0.000000 0.000000 
#    y 0.000000 1.663200 0.000000 
#    z 0.000000 0.000000 1.641570 
# 
# From -- ./inp_files/39420.got.cif
#   From: 2010.03.12/outbox.cif.g09.slc.cpg/sg67_20_cif.got.tgz:39420.got - 2010.04.10 22:41:39.
