data_PCOD8278888
_publ_section_title
;
Structure prediction by ZEFSAII (Michael W. Deem and Ramdas Pophale) SiO2 
 PCOD8278888
Probable space group: C M M A
;
_chemical_formula_sum "Si O2"
_cell_formula_units_Z 64
_cell_length_a 9.052878
_cell_length_b 19.927425
_cell_length_c 20.773198
_cell_angle_alpha 90.000000
_cell_angle_beta 90.000000
_cell_angle_gamma 90.000000
_cell_volume 3747.496290
_symmetry_space_group_name_H-M "C M M A"
_symmetry_group_IT_number 67
_symmetry_cell_setting 'orthorhombic'
loop_
_space_group_symop_operation_xyz
x,y,z
-x,1/2-y,z
x,-y,-z
-x,1/2+y,-z
-x,-y,-z
x,1/2+y,-z
-x,y,z
x,1/2-y,z
1/2+x,1/2+y,z
1/2-x,-y,z
1/2+x,1/2-y,-z
1/2-x,y,-z
1/2-x,1/2-y,-z
1/2+x,y,-z
1/2-x,1/2+y,z
1/2+x,-y,z
loop_
_atom_site_type_symbol
_atom_site_label
_atom_site_fract_x
_atom_site_fract_y
_atom_site_fract_z
Si Si1 0.663992 0.829756 0.314613
Si Si2 0.177685 0.070204 0.066893
Si Si3 0.665275 0.669922 0.562454
Si Si4 0.324442 0.824539 0.173732
O O1 0.500000 0.860060 0.323005
O O2 0.655859 0.750000 0.319275
O O3 0.763682 0.859217 0.372009
O O4 0.731346 0.848946 0.244393
O O5 0.229224 0.124107 0.119594
O O6 0.000000 0.063986 0.060723
O O7 0.250000 0.000000 0.087808
O O8 0.250000 0.093930 0.000000
O O9 0.500000 0.642401 0.558645
O O10 0.669431 0.750000 0.563185
O O11 0.750000 0.642101 0.500000
O O12 0.500000 0.821383 0.176424
O O13 0.262422 0.750000 0.157579
#
# Coordination Sequence:
#
# PCOD8278888 Si02
#       4
#    16  16  16  16
#     4   8  13  23  38  54  74 102 136 173 212 252
#     4  10  19  32  49  67  89 116 146 180 218 261
#     4   9  15  21  30  47  73 106 141 173 206 246
#     4   8  15  28  46  66  87 114 147 181 219 263
#
# _framework density 17.07807
#
# number of rings (size 3 to 8) (size 9 to 14) (size 15 to 20)
#    0.000    3.250    0.000    3.750    0.000    3.500 
#    0.000    2.500    0.000    5.250    0.000    0.000 
#    0.000    1.000    0.000   11.500    0.000   14.000 
#
# Total GULP energy -396542.966092 kJ/mol
# GULP energy per Si atom -12391.967690 kJ/mol
# Density = 1.703920 g / cm^3
# Si number density = 17.078070 Si / 1000 Ang^3
#
#
#
# Elastic Constant Matrix: (Units=GPa)
#
#
# Indices 1 2 3 4 5 6 
#
# 1 93.0589 27.3954 65.9825 0.0000 0.0000 0.0000
# 2 27.3954 46.2457 69.0323 0.0000 0.0000 0.0000
# 3 65.9825 69.0323 186.2513 0.0000 0.0000 0.0000
# 4 0.0000 0.0000 0.0000 1.7105 0.0000 0.0000
# 5 0.0000 0.0000 0.0000 0.0000 27.4517 0.0000
# 6 0.0000 0.0000 0.0000 0.0000 0.0000 10.5302
#
#
#
# Elastic Compliance Matrix: (Units=1/GPa)
#
#
# Indices 1 2 3 4 5 6 
#
# 1 0.014437 -0.002054 -0.004353 0.000000 0.000000 0.000000
# 2 -0.002054 0.048696 -0.017321 0.000000 0.000000 0.000000
# 3 -0.004353 -0.017321 0.013331 0.000000 0.000000 0.000000
# 4 0.000000 0.000000 0.000000 0.584628 0.000000 0.000000
# 5 0.000000 0.000000 0.000000 0.000000 0.036428 0.000000
# 6 0.000000 0.000000 0.000000 0.000000 0.000000 0.094965
#
#
# Mechanical properties :
#
#
# Convention : Reuss Voigt Hill
#
# Bulk Modulus (GPa) = 34.47374 72.26403 53.36888
# Shear Modulus (GPa) = 5.88504 18.81484 12.34994
#
# Velocity S-wave (km/s) = 1.85834 3.32278 2.69205
# Velocity P-wave (km/s) = 4.98341 7.55824 6.40161
#
# Compressibility (1/GPa) = 0.02900759
#
# Stress axis : x y z
#
# Youngs Moduli (GPa) = 69.26523 20.53546 75.01210
#
# Poissons Ratio (x) = 0.04218 0.32655
# Poissons Ratio (y) = 0.14229 1.29929
# Poissons Ratio (z) = 0.30153 0.35570
#
# Static dielectric constant tensor:
#      x y z
#    x 3.149460 0.000000 0.000000 
#    y 0.000000 2.754810 0.000000 
#    z 0.000000 0.000000 3.592040 
# 
# 
# High freq. dielectric constant tensor:
#      x y z
#    x 1.645280 0.000000 0.000000 
#    y 0.000000 1.592300 0.000000 
#    z 0.000000 0.000000 1.679250 
# 
# From -- ./inp_files/31750.got.cif
#   From: 2010.03.12/outbox.cif.g09.slc.cpg/sg67_16_cif.got.tgz:31750.got - 2010.04.10 22:41:39.
