data_PCOD8278829
_publ_section_title
;
Structure prediction by ZEFSAII (Michael W. Deem and Ramdas Pophale) SiO2 
 PCOD8278829
Probable space group: C M M A
;
_chemical_formula_sum "Si O2"
_cell_formula_units_Z 80
_cell_length_a 8.853579
_cell_length_b 19.210408
_cell_length_c 25.912249
_cell_angle_alpha 90.000000
_cell_angle_beta 90.000000
_cell_angle_gamma 90.000000
_cell_volume 4407.177720
_symmetry_space_group_name_H-M "C M M A"
_symmetry_group_IT_number 67
_symmetry_cell_setting 'orthorhombic'
loop_
_space_group_symop_operation_xyz
x,y,z
-x,1/2-y,z
x,-y,-z
-x,1/2+y,-z
-x,-y,-z
x,1/2+y,-z
-x,y,z
x,1/2-y,z
1/2+x,1/2+y,z
1/2-x,-y,z
1/2+x,1/2-y,-z
1/2-x,y,-z
1/2-x,1/2-y,-z
1/2+x,y,-z
1/2-x,1/2+y,z
1/2+x,-y,z
loop_
_atom_site_type_symbol
_atom_site_label
_atom_site_fract_x
_atom_site_fract_y
_atom_site_fract_z
Si Si1 0.175106 0.425555 0.752662
Si Si2 0.321991 0.170915 0.947290
Si Si3 0.179279 0.576247 0.853167
Si Si4 0.823619 0.330894 0.447074
Si Si5 0.824270 0.924638 0.361467
O O1 0.250000 0.500000 0.748478
O O2 0.259948 0.386971 0.800141
O O3 0.197265 0.391494 0.696108
O O4 0.000000 0.432692 0.766957
O O5 0.500000 0.166361 0.953046
O O6 0.268668 0.250000 0.936870
O O7 0.264266 0.123593 0.900330
O O8 0.250000 0.142030 0.000000
O O9 0.250000 0.500000 0.859861
O O10 0.000000 0.570948 0.851108
O O11 0.787186 0.250000 0.438923
O O12 0.750000 0.358168 0.500000
O O13 0.752662 0.371079 0.399573
O O14 0.000000 0.346239 0.449720
O O15 0.000000 0.932680 0.374788
O O16 0.750000 0.000000 0.367177
#
# Coordination Sequence:
#
# PCOD8278829 Si02
#       5
#    16  16  16  16  16
#     4   9  17  30  49  73 101 132 164 200 245 293
#     4   9  19  35  52  70  94 127 164 201 244 291
#     4  10  19  31  50  74 100 128 161 202 243 290
#     4  10  21  37  56  77 103 136 172 210 255 305
#     4  10  20  34  54  79 106 135 170 212 253 299
#
# _framework density 18.152207000000001
#
# number of rings (size 3 to 8) (size 9 to 14) (size 15 to 20)
#    0.000    2.400    0.000    3.600    0.000    6.000 
#    0.000    5.000    0.000    3.600    0.000    0.000 
#    0.000    0.000    0.000    0.000    0.000    0.000 
#
# Total GULP energy -495824.167591 kJ/mol
# GULP energy per Si atom -12395.604190 kJ/mol
# Density = 1.811089 g / cm^3
# Si number density = 18.152207 Si / 1000 Ang^3
#
#
#
# Elastic Constant Matrix: (Units=GPa)
#
#
# Indices 1 2 3 4 5 6 
#
# 1 95.9253 40.7277 70.5535 0.0000 0.0000 0.0000
# 2 40.7277 56.3782 67.8691 0.0000 0.0000 0.0000
# 3 70.5535 67.8691 185.4110 0.0000 0.0000 0.0000
# 4 0.0000 0.0000 0.0000 -3.6969 0.0000 0.0000
# 5 0.0000 0.0000 0.0000 0.0000 37.4050 0.0000
# 6 0.0000 0.0000 0.0000 0.0000 0.0000 24.8875
#
#
#
# Elastic Compliance Matrix: (Units=1/GPa)
#
#
# Indices 1 2 3 4 5 6 
#
# 1 0.016120 -0.007617 -0.003346 0.000000 0.000000 0.000000
# 2 -0.007617 0.035310 -0.010027 0.000000 0.000000 0.000000
# 3 -0.003346 -0.010027 0.010337 0.000000 0.000000 0.000000
# 4 0.000000 0.000000 0.000000 -0.270498 0.000000 0.000000
# 5 0.000000 0.000000 0.000000 0.000000 0.026734 0.000000
# 6 0.000000 0.000000 0.000000 0.000000 0.000000 0.040181
#
#
# Mechanical properties :
#
#
# Convention : Reuss Voigt Hill
#
# Bulk Modulus (GPa) = 50.53683 77.33501 63.93592
# Shear Modulus (GPa) = -53.62444 22.29007 -15.66719
#
# Velocity S-wave (km/s) = -5.44111 3.50802 -2.94104
# Velocity P-wave (km/s) = 3.40194 7.68794 4.87500
#
# Compressibility (1/GPa) = 0.01978755
#
# Stress axis : x y z
#
# Youngs Moduli (GPa) = 62.03600 28.32021 96.74216
#
# Poissons Ratio (x) = 0.21573 0.32366
# Poissons Ratio (y) = 0.47255 0.97000
# Poissons Ratio (z) = 0.20755 0.28396
#
# Static dielectric constant tensor:
#      x y z
#    x 3.462860 0.000000 0.000000 
#    y 0.000000 3.102800 0.000000 
#    z 0.000000 0.000000 4.050320 
# 
# 
# High freq. dielectric constant tensor:
#      x y z
#    x 1.717890 0.000000 0.000000 
#    y 0.000000 1.667000 0.000000 
#    z 0.000000 0.000000 1.725650 
# 
# From -- ./inp_files/43238.got.cif
#   From: 2010.03.12/outbox.cif.g09.slc.cpg/sg67_22_cif.got.tgz:43238.got - 2010.04.10 22:41:39.
