data_PCOD8278912
_publ_section_title
;
Structure prediction by ZEFSAII (Michael W. Deem and Ramdas Pophale) SiO2 
 PCOD8278912
Probable space group: C M M A
;
_chemical_formula_sum "Si O2"
_cell_formula_units_Z 96
_cell_length_a 19.818292
_cell_length_b 8.971906
_cell_length_c 30.959838
_cell_angle_alpha 90.000000
_cell_angle_beta 90.000000
_cell_angle_gamma 90.000000
_cell_volume 5504.902321
_symmetry_space_group_name_H-M "C M M A"
_symmetry_group_IT_number 67
_symmetry_cell_setting 'orthorhombic'
loop_
_space_group_symop_operation_xyz
x,y,z
-x,1/2-y,z
x,-y,-z
-x,1/2+y,-z
-x,-y,-z
x,1/2+y,-z
-x,y,z
x,1/2-y,z
1/2+x,1/2+y,z
1/2-x,-y,z
1/2+x,1/2-y,-z
1/2-x,y,-z
1/2-x,1/2-y,-z
1/2+x,y,-z
1/2-x,1/2+y,z
1/2+x,-y,z
loop_
_atom_site_type_symbol
_atom_site_label
_atom_site_fract_x
_atom_site_fract_y
_atom_site_fract_z
Si Si1 0.320692 0.928007 0.118003
Si Si2 0.925008 0.572640 0.280349
Si Si3 0.919738 0.415378 0.625287
Si Si4 0.076466 0.575424 0.956290
Si Si5 0.919492 0.083458 0.457852
Si Si6 0.320887 0.571253 0.791942
O O1 0.313092 0.750000 0.123154
O O2 0.376329 0.974080 0.083022
O O3 0.250000 0.000000 0.103363
O O4 0.344641 0.001751 0.162732
O O5 0.927601 0.750000 0.282038
O O6 0.900085 0.516123 0.327701
O O7 0.874404 0.517022 0.243596
O O8 0.000000 0.510464 0.269861
O O9 0.889394 0.250000 0.619955
O O10 0.890011 0.513326 0.586257
O O11 0.000000 0.408071 0.622495
O O12 0.080347 0.750000 0.963743
O O13 0.000000 0.523846 0.945837
O O14 0.103214 0.500000 0.000000
O O15 0.892135 0.250000 0.460406
O O16 0.000000 0.077266 0.457333
O O17 0.891184 0.000000 0.500000
O O18 0.315312 0.750000 0.795452
O O19 0.250000 0.500000 0.778204
#
# Coordination Sequence:
#
# PCOD8278912 Si02
#       6
#    16  16  16  16  16  16
#     4  10  20  34  51  71  96 124 155 191 230 272
#     4   8  15  28  46  67  89 116 152 190 227 270
#     4   8  13  23  38  54  75 104 138 178 221 261
#     4   9  19  35  53  73  98 127 157 190 229 272
#     4   9  15  21  30  47  73 106 142 176 213 260
#     4  10  19  32  50  70  94 123 155 191 230 273
#
# _framework density 17.439001999999999
#
# number of rings (size 3 to 8) (size 9 to 14) (size 15 to 20)
#    0.000    3.000    0.000    3.500    0.000    4.333 
#    0.000    3.333    0.000    3.500    0.000    0.000 
#    0.000    0.667    0.000    7.667    0.000    9.333 
#
# Total GULP energy -594950.898348 kJ/mol
# GULP energy per Si atom -12394.810382 kJ/mol
# Density = 1.739931 g / cm^3
# Si number density = 17.439002 Si / 1000 Ang^3
#
#
#
# Elastic Constant Matrix: (Units=GPa)
#
#
# Indices 1 2 3 4 5 6 
#
# 1 66.0786 33.2170 84.6090 0.0000 0.0000 0.0000
# 2 33.2170 82.9526 63.1862 0.0000 0.0000 0.0000
# 3 84.6090 63.1862 182.7433 0.0000 0.0000 0.0000
# 4 0.0000 0.0000 0.0000 29.2494 0.0000 0.0000
# 5 0.0000 0.0000 0.0000 0.0000 4.3317 0.0000
# 6 0.0000 0.0000 0.0000 0.0000 0.0000 15.1176
#
#
#
# Elastic Compliance Matrix: (Units=1/GPa)
#
#
# Indices 1 2 3 4 5 6 
#
# 1 0.037526 -0.002433 -0.016533 0.000000 0.000000 0.000000
# 2 -0.002433 0.016523 -0.004587 0.000000 0.000000 0.000000
# 3 -0.016533 -0.004587 0.014713 0.000000 0.000000 0.000000
# 4 0.000000 0.000000 0.000000 0.034189 0.000000 0.000000
# 5 0.000000 0.000000 0.000000 0.000000 0.230856 0.000000
# 6 0.000000 0.000000 0.000000 0.000000 0.000000 0.066148
#
#
# Mechanical properties :
#
#
# Convention : Reuss Voigt Hill
#
# Bulk Modulus (GPa) = 46.17609 77.08876 61.63243
# Shear Modulus (GPa) = 11.00646 19.79057 15.39851
#
# Velocity S-wave (km/s) = 2.51498 3.37240 2.97474
# Velocity P-wave (km/s) = 5.91351 7.71135 6.87148
#
# Compressibility (1/GPa) = 0.02165623
#
# Stress axis : x y z
#
# Youngs Moduli (GPa) = 26.64826 60.52158 67.96880
#
# Poissons Ratio (x) = 0.14726 1.12372
# Poissons Ratio (y) = 0.06484 0.31174
# Poissons Ratio (z) = 0.44057 0.27758
#
# Static dielectric constant tensor:
#      x y z
#    x 2.986590 0.000000 0.000000 
#    y 0.000000 3.204550 0.000000 
#    z 0.000000 0.000000 3.540680 
# 
# 
# High freq. dielectric constant tensor:
#      x y z
#    x 1.628390 0.000000 0.000000 
#    y 0.000000 1.665910 0.000000 
#    z 0.000000 0.000000 1.689930 
# 
# From -- ./inp_files/44783.got.cif
#   From: 2010.03.12/outbox.cif.g09.slc.cpg/sg67_23_cif.got.tgz:44783.got - 2010.04.10 22:41:39.
