data_PCOD8278864
_publ_section_title
;
Structure prediction by ZEFSAII (Michael W. Deem and Ramdas Pophale) SiO2 
 PCOD8278864
Probable space group: C M M A
;
_chemical_formula_sum "Si O2"
_cell_formula_units_Z 72
_cell_length_a 15.409265
_cell_length_b 10.139489
_cell_length_c 22.987781
_cell_angle_alpha 90.000000
_cell_angle_beta 90.000000
_cell_angle_gamma 90.000000
_cell_volume 3591.658556
_symmetry_space_group_name_H-M "C M M A"
_symmetry_group_IT_number 67
_symmetry_cell_setting 'orthorhombic'
loop_
_space_group_symop_operation_xyz
x,y,z
-x,1/2-y,z
x,-y,-z
-x,1/2+y,-z
-x,-y,-z
x,1/2+y,-z
-x,y,z
x,1/2-y,z
1/2+x,1/2+y,z
1/2-x,-y,z
1/2+x,1/2-y,-z
1/2-x,y,-z
1/2-x,1/2-y,-z
1/2+x,y,-z
1/2-x,1/2+y,z
1/2+x,-y,z
loop_
_atom_site_type_symbol
_atom_site_label
_atom_site_fract_x
_atom_site_fract_y
_atom_site_fract_z
Si Si1 0.171105 0.402274 0.872426
Si Si2 0.598928 0.022149 0.373275
Si Si3 0.396286 0.250000 0.584981
Si Si4 0.103946 0.250000 0.546958
Si Si5 0.500000 0.596769 0.945899
Si Si6 0.823632 0.898869 0.259663
O O1 0.200630 0.250000 0.882214
O O2 0.250000 0.500000 0.890482
O O3 0.143124 0.427412 0.805623
O O4 0.086203 0.435954 0.909475
O O5 0.500000 0.008220 0.391383
O O6 0.642282 0.123390 0.418815
O O7 0.601830 0.075686 0.307010
O O8 0.642111 0.877948 0.381566
O O9 0.500000 0.250000 0.586276
O O10 0.361866 0.250000 0.518779
O O11 0.000000 0.250000 0.549569
O O12 0.500000 0.750000 0.965506
O O13 0.500000 0.500000 0.000000
O O14 0.788192 0.750000 0.263316
O O15 0.750000 0.000000 0.277874
#
# Coordination Sequence:
#
# PCOD8278864 Si02
#       6
#    16  16   8   8   8  16
#     4   9  20  39  61  88 121 163 203 245 296 346
#     4  10  19  31  52  79 101 135 181 228 283 333
#     4   9  18  30  47  73 109 137 169 228 285 338
#     4   9  16  30  49  75 101 133 181 226 277 338
#     4  10  22  40  64  94 128 164 201 245 290 340
#     4  10  21  36  56  78 108 144 183 229 282 337
#
# _framework density 20.046448999999999
#
# number of rings (size 3 to 8) (size 9 to 14) (size 15 to 20)
#    0.000    2.444    1.111    0.667    3.111    4.000 
#    0.000    2.222    0.000    4.000    0.000    0.000 
#    0.000    0.000    0.000    0.000    0.000    0.000 
#
# Total GULP energy -446190.002297 kJ/mol
# GULP energy per Si atom -12394.166730 kJ/mol
# Density = 2.000082 g / cm^3
# Si number density = 20.046449 Si / 1000 Ang^3
#
#
#
# Elastic Constant Matrix: (Units=GPa)
#
#
# Indices 1 2 3 4 5 6 
#
# 1 60.2840 47.3193 42.5767 0.0000 0.0000 0.0000
# 2 47.3193 166.0773 70.2287 0.0000 0.0000 0.0000
# 3 42.5767 70.2287 123.0785 0.0000 0.0000 0.0000
# 4 0.0000 0.0000 0.0000 37.1486 0.0000 0.0000
# 5 0.0000 0.0000 0.0000 0.0000 12.6956 0.0000
# 6 0.0000 0.0000 0.0000 0.0000 0.0000 22.4852
#
#
#
# Elastic Compliance Matrix: (Units=1/GPa)
#
#
# Indices 1 2 3 4 5 6 
#
# 1 0.024185 -0.004419 -0.005845 0.000000 0.000000 0.000000
# 2 -0.004419 0.008744 -0.003460 0.000000 0.000000 0.000000
# 3 -0.005845 -0.003460 0.012121 0.000000 0.000000 0.000000
# 4 0.000000 0.000000 0.000000 0.026919 0.000000 0.000000
# 5 0.000000 0.000000 0.000000 0.000000 0.078767 0.000000
# 6 0.000000 0.000000 0.000000 0.000000 0.000000 0.044474
#
#
# Mechanical properties :
#
#
# Convention : Reuss Voigt Hill
#
# Bulk Modulus (GPa) = 56.81442 74.40990 65.61216
# Shear Modulus (GPa) = 21.87937 27.08691 24.48314
#
# Velocity S-wave (km/s) = 3.30727 3.67986 3.49853
# Velocity P-wave (km/s) = 6.55644 7.43334 7.00862
#
# Compressibility (1/GPa) = 0.01760117
#
# Stress axis : x y z
#
# Youngs Moduli (GPa) = 41.34805 114.36728 82.49978
#
# Poissons Ratio (x) = 0.50543 0.48218
# Poissons Ratio (y) = 0.18273 0.28548
# Poissons Ratio (z) = 0.24166 0.39576
#
# Static dielectric constant tensor:
#      x y z
#    x 3.242680 0.000000 0.000000 
#    y 0.000000 4.077090 0.000000 
#    z 0.000000 0.000000 3.603820 
# 
# 
# High freq. dielectric constant tensor:
#      x y z
#    x 1.747990 0.000000 0.000000 
#    y 0.000000 1.801520 0.000000 
#    z 0.000000 0.000000 1.781690 
# 
# From -- ./inp_files/42135.got.cif
#   From: 2010.03.12/outbox.cif.g09.slc.cpg/sg67_22_cif.got.tgz:42135.got - 2010.04.10 22:41:39.
