data_PCOD8278613
_publ_section_title
;
Structure prediction by ZEFSAII (Michael W. Deem and Ramdas Pophale) SiO2 
 PCOD8278613
Probable space group: C M M A
;
_chemical_formula_sum "Si O2"
_cell_formula_units_Z 96
_cell_length_a 15.807806
_cell_length_b 18.431105
_cell_length_c 18.600988
_cell_angle_alpha 90.000000
_cell_angle_beta 90.000000
_cell_angle_gamma 90.000000
_cell_volume 5419.497038
_symmetry_space_group_name_H-M "C M M A"
_symmetry_group_IT_number 67
_symmetry_cell_setting 'orthorhombic'
loop_
_space_group_symop_operation_xyz
x,y,z
-x,1/2-y,z
x,-y,-z
-x,1/2+y,-z
-x,-y,-z
x,1/2+y,-z
-x,y,z
x,1/2-y,z
1/2+x,1/2+y,z
1/2-x,-y,z
1/2+x,1/2-y,-z
1/2-x,y,-z
1/2-x,1/2-y,-z
1/2+x,y,-z
1/2-x,1/2+y,z
1/2+x,-y,z
loop_
_atom_site_type_symbol
_atom_site_label
_atom_site_fract_x
_atom_site_fract_y
_atom_site_fract_z
Si Si1 0.666391 0.829870 0.547909
Si Si2 0.252046 0.913579 0.827603
Si Si3 0.746881 0.914233 0.335527
Si Si4 0.093790 0.086817 0.921228
Si Si5 0.405779 0.665785 0.405320
Si Si6 0.593857 0.414318 0.916797
O O1 0.647375 0.750000 0.579486
O O2 0.750000 0.829366 0.500000
O O3 0.676693 0.883785 0.615232
O O4 0.594402 0.854166 0.490939
O O5 0.259729 0.887215 0.745753
O O6 0.333526 0.881308 0.869389
O O7 0.165529 0.882764 0.863360
O O8 0.250000 0.000000 0.831781
O O9 0.655946 0.885508 0.360597
O O10 0.750000 0.000000 0.341966
O O11 0.000000 0.113635 0.896938
O O12 0.096661 0.000588 0.917584
O O13 0.112226 0.113581 0.002390
O O14 0.500000 0.652863 0.375663
O O15 0.377692 0.750000 0.396157
O O16 0.500000 0.388337 0.891658
#
# Coordination Sequence:
#
# PCOD8278613 Si02
#       6
#    16  16  16  16  16  16
#     4   8  15  30  49  64  82 114 153 188 222 266
#     4   9  16  24  34  53  86 121 147 178 228 286
#     4  10  19  29  42  67 100 128 150 178 232 295
#     4   8  13  22  35  50  71 107 155 195 223 261
#     4   9  18  34  55  73  88 115 159 205 240 271
#     4   8  13  21  35  52  71 105 153 195 227 264
#
# _framework density 17.713820999999999
#
# number of rings (size 3 to 8) (size 9 to 14) (size 15 to 20)
#    0.000    3.333    0.000    3.000    0.000    5.667 
#    0.000    5.000    0.000    0.000    0.000    0.000 
#    0.000   10.667    0.000   14.667    0.000   13.333 
#
# Total GULP energy -594736.619222 kJ/mol
# GULP energy per Si atom -12390.346234 kJ/mol
# Density = 1.767350 g / cm^3
# Si number density = 17.713821 Si / 1000 Ang^3
#
#
#
# Elastic Constant Matrix: (Units=GPa)
#
#
# Indices 1 2 3 4 5 6 
#
# 1 117.4517 26.0391 65.5603 0.0000 0.0000 0.0000
# 2 26.0391 38.4502 34.3385 0.0000 0.0000 0.0000
# 3 65.5603 34.3385 131.5472 0.0000 0.0000 0.0000
# 4 0.0000 0.0000 0.0000 -2.2005 0.0000 0.0000
# 5 0.0000 0.0000 0.0000 0.0000 19.3771 0.0000
# 6 0.0000 0.0000 0.0000 0.0000 0.0000 13.9336
#
#
#
# Elastic Compliance Matrix: (Units=1/GPa)
#
#
# Indices 1 2 3 4 5 6 
#
# 1 0.012184 -0.003688 -0.005109 0.000000 0.000000 0.000000
# 2 -0.003688 0.035030 -0.007306 0.000000 0.000000 0.000000
# 3 -0.005109 -0.007306 0.012055 0.000000 0.000000 0.000000
# 4 0.000000 0.000000 0.000000 -0.454444 0.000000 0.000000
# 5 0.000000 0.000000 0.000000 0.000000 0.051607 0.000000
# 6 0.000000 0.000000 0.000000 0.000000 0.000000 0.071769
#
#
# Mechanical properties :
#
#
# Convention : Reuss Voigt Hill
#
# Bulk Modulus (GPa) = 36.95186 59.92498 48.43842
# Shear Modulus (GPa) = -21.68531 16.98945 -2.34793
#
# Velocity S-wave (km/s) = -3.50266 3.10031 -1.15254
# Velocity P-wave (km/s) = 2.13251 6.83512 5.06292
#
# Compressibility (1/GPa) = 0.02706224
#
# Stress axis : x y z
#
# Youngs Moduli (GPa) = 82.07610 28.54693 82.95033
#
# Poissons Ratio (x) = 0.10528 0.42383
# Poissons Ratio (y) = 0.30270 0.60604
# Poissons Ratio (z) = 0.41936 0.20857
#
# Static dielectric constant tensor:
#      x y z
#    x 3.692140 0.000000 0.000000 
#    y 0.000000 2.741010 0.000000 
#    z 0.000000 0.000000 3.456550 
# 
# 
# High freq. dielectric constant tensor:
#      x y z
#    x 1.687250 0.000000 0.000000 
#    y 0.000000 1.624860 0.000000 
#    z 0.000000 0.000000 1.680950 
# 
# From -- ./inp_files/34235.got.cif
#   From: 2010.03.12/outbox.cif.g09.slc.cpg/sg67_18_cif.got.tgz:34235.got - 2010.04.10 22:41:39.
