data_PCOD8278181
_publ_section_title
;
Structure prediction by ZEFSAII (Michael W. Deem and Ramdas Pophale) SiO2 
 PCOD8278181
Probable space group: C M M A
;
_chemical_formula_sum "Si O2"
_cell_formula_units_Z 104
_cell_length_a 27.679014
_cell_length_b 8.908065
_cell_length_c 23.208624
_cell_angle_alpha 90.000000
_cell_angle_beta 90.000000
_cell_angle_gamma 90.000000
_cell_volume 5722.468165
_symmetry_space_group_name_H-M "C M M A"
_symmetry_group_IT_number 67
_symmetry_cell_setting 'orthorhombic'
loop_
_space_group_symop_operation_xyz
x,y,z
-x,1/2-y,z
x,-y,-z
-x,1/2+y,-z
-x,-y,-z
x,1/2+y,-z
-x,y,z
x,1/2-y,z
1/2+x,1/2+y,z
1/2-x,-y,z
1/2+x,1/2-y,-z
1/2-x,y,-z
1/2-x,1/2-y,-z
1/2+x,y,-z
1/2-x,1/2+y,z
1/2+x,-y,z
loop_
_atom_site_type_symbol
_atom_site_label
_atom_site_fract_x
_atom_site_fract_y
_atom_site_fract_z
Si Si1 0.055558 0.572764 0.227936
Si Si2 0.500000 0.427932 0.562928
Si Si3 0.203725 0.414187 0.248285
Si Si4 0.372209 0.580573 0.147237
Si Si5 0.799868 0.069420 0.937216
Si Si6 0.093391 0.421858 0.559432
Si Si7 0.366667 0.580143 0.679420
O O1 0.057500 0.750000 0.217850
O O2 0.078506 0.494545 0.171000
O O3 0.085190 0.525202 0.285884
O O4 0.000000 0.518373 0.235290
O O5 0.500000 0.250000 0.563550
O O6 0.500000 0.500000 0.500000
O O7 0.451502 0.493526 0.590558
O O8 0.220838 0.250000 0.266165
O O9 0.250000 0.500000 0.224731
O O10 0.164478 0.412563 0.199273
O O11 0.180841 0.488078 0.304825
O O12 0.382891 0.750000 0.124544
O O13 0.347389 0.479369 0.098127
O O14 0.795966 0.250000 0.938972
O O15 0.750000 0.000000 0.910650
O O16 0.806741 0.000000 0.000000
O O17 0.110909 0.500000 0.500000
O O18 0.079956 0.250000 0.544604
O O19 0.132271 0.432829 0.610033
O O20 0.358041 0.750000 0.698752
#
# Coordination Sequence:
#
# PCOD8278181 Si02
#       7
#    16   8  16  16  16  16  16
#     4   9  18  33  53  75 100 134 174 214 255 300
#     4  10  18  28  42  62  88 120 156 194 233 282
#     4  10  20  33  52  75 102 131 164 207 252 300
#     4  10  20  34  52  77 107 139 174 210 252 301
#     4  11  21  34  53  79 111 144 177 213 256 303
#     4  10  19  31  48  68  95 128 163 202 248 301
#     4   9  19  33  51  73  98 130 167 205 250 304
#
# _framework density 18.173976
#
# number of rings (size 3 to 8) (size 9 to 14) (size 15 to 20)
#    0.000    2.154    0.000    5.308    1.077    4.615 
#    0.000    0.000    0.000    0.923    0.000    3.231 
#    0.000    0.000    0.000    0.000    0.000    0.000 
#
# Total GULP energy -644402.384556 kJ/mol
# GULP energy per Si atom -12392.353549 kJ/mol
# Density = 1.813261 g / cm^3
# Si number density = 18.173976 Si / 1000 Ang^3
#
#
#
# Elastic Constant Matrix: (Units=GPa)
#
#
# Indices 1 2 3 4 5 6 
#
# 1 66.3210 30.0487 19.1306 0.0000 0.0000 0.0000
# 2 30.0487 124.8817 33.9898 0.0000 0.0000 0.0000
# 3 19.1306 33.9898 67.1851 0.0000 0.0000 0.0000
# 4 0.0000 0.0000 0.0000 26.3505 0.0000 0.0000
# 5 0.0000 0.0000 0.0000 0.0000 18.1913 0.0000
# 6 0.0000 0.0000 0.0000 0.0000 0.0000 29.7696
#
#
#
# Elastic Compliance Matrix: (Units=1/GPa)
#
#
# Indices 1 2 3 4 5 6 
#
# 1 0.017538 -0.003317 -0.003315 0.000000 0.000000 0.000000
# 2 -0.003317 0.009914 -0.004071 0.000000 0.000000 0.000000
# 3 -0.003315 -0.004071 0.017888 0.000000 0.000000 0.000000
# 4 0.000000 0.000000 0.000000 0.037950 0.000000 0.000000
# 5 0.000000 0.000000 0.000000 0.000000 0.054971 0.000000
# 6 0.000000 0.000000 0.000000 0.000000 0.000000 0.033591
#
#
# Mechanical properties :
#
#
# Convention : Reuss Voigt Hill
#
# Bulk Modulus (GPa) = 41.78556 47.19177 44.48867
# Shear Modulus (GPa) = 24.84636 26.54352 25.69494
#
# Velocity S-wave (km/s) = 3.70150 3.82583 3.76417
# Velocity P-wave (km/s) = 6.42728 6.74826 6.58973
#
# Compressibility (1/GPa) = 0.02393171
#
# Stress axis : x y z
#
# Youngs Moduli (GPa) = 57.02029 100.86930 55.90398
#
# Poissons Ratio (x) = 0.33463 0.18534
# Poissons Ratio (y) = 0.18916 0.22758
# Poissons Ratio (z) = 0.18905 0.41063
#
# Static dielectric constant tensor:
#      x y z
#    x 3.723980 0.000000 0.000000 
#    y 0.000000 3.669010 0.000000 
#    z 0.000000 0.000000 3.208730 
# 
# 
# High freq. dielectric constant tensor:
#      x y z
#    x 1.683410 0.000000 0.000000 
#    y 0.000000 1.717770 0.000000 
#    z 0.000000 0.000000 1.688040 
# 
# From -- ./inp_files/42777.got.cif
#   From: 2010.03.12/outbox.cif.g09.slc.cpg/sg67_22_cif.got.tgz:42777.got - 2010.04.10 22:41:39.
