data_PCOD8278504
_publ_section_title
;
Structure prediction by ZEFSAII (Michael W. Deem and Ramdas Pophale) SiO2 
 PCOD8278504
Probable space group: C M M A
;
_chemical_formula_sum "Si O2"
_cell_formula_units_Z 96
_cell_length_a 8.818185
_cell_length_b 28.773065
_cell_length_c 20.726186
_cell_angle_alpha 90.000000
_cell_angle_beta 90.000000
_cell_angle_gamma 90.000000
_cell_volume 5258.776625
_symmetry_space_group_name_H-M "C M M A"
_symmetry_group_IT_number 67
_symmetry_cell_setting 'orthorhombic'
loop_
_space_group_symop_operation_xyz
x,y,z
-x,1/2-y,z
x,-y,-z
-x,1/2+y,-z
-x,-y,-z
x,1/2+y,-z
-x,y,z
x,1/2-y,z
1/2+x,1/2+y,z
1/2-x,-y,z
1/2+x,1/2-y,-z
1/2-x,y,-z
1/2-x,1/2-y,-z
1/2+x,y,-z
1/2-x,1/2+y,z
1/2+x,-y,z
loop_
_atom_site_type_symbol
_atom_site_label
_atom_site_fract_x
_atom_site_fract_y
_atom_site_fract_z
Si Si1 0.319821 0.360717 0.433976
Si Si2 0.178927 0.197187 0.934044
Si Si3 0.819801 0.197849 0.688163
Si Si4 0.180168 0.140152 0.810522
Si Si5 0.178623 0.951687 0.619051
Si Si6 0.322309 0.048080 0.768325
O O1 0.500000 0.362560 0.438335
O O2 0.250000 0.340609 0.500000
O O3 0.263409 0.327048 0.376875
O O4 0.255977 0.412080 0.423118
O O5 0.233415 0.250000 0.921492
O O6 0.236216 0.165794 0.875033
O O7 0.000000 0.194850 0.940218
O O8 0.250000 0.177561 0.000000
O O9 0.753061 0.250000 0.690012
O O10 0.757970 0.169544 0.749655
O O11 0.000000 0.199457 0.690486
O O12 0.252435 0.089233 0.810720
O O13 0.000000 0.135550 0.807696
O O14 0.219118 0.942919 0.693766
O O15 0.000000 0.952222 0.606697
O O16 0.250000 0.000000 0.595595
O O17 0.500000 0.045464 0.779826
O O18 0.250000 0.000000 0.792454
#
# Coordination Sequence:
#
# PCOD8278504 Si02
#       6
#    16  16  16  16  16  16
#     4  11  22  36  54  75 103 138 176 218 267 318
#     4   9  18  32  52  80 114 150 184 219 260 310
#     4   9  18  33  54  78 102 133 176 221 262 308
#     4  10  18  32  56  82 108 140 180 220 261 309
#     4  10  20  35  55  78 105 134 170 214 265 321
#     4  10  20  33  53  80 110 139 172 215 265 317
#
# _framework density 18.255196999999999
#
# number of rings (size 3 to 8) (size 9 to 14) (size 15 to 20)
#    0.000    2.167    1.667    2.000    0.000    4.667 
#    0.000    1.667    0.000    5.500    0.000    3.500 
#    0.000    0.000    0.000    0.000    0.000    0.000 
#
# Total GULP energy -595360.639190 kJ/mol
# GULP energy per Si atom -12403.346650 kJ/mol
# Density = 1.821365 g / cm^3
# Si number density = 18.255197 Si / 1000 Ang^3
#
#
#
# Elastic Constant Matrix: (Units=GPa)
#
#
# Indices 1 2 3 4 5 6 
#
# 1 49.7781 32.6042 36.6028 0.0000 0.0000 0.0000
# 2 32.6042 137.4298 76.5456 0.0000 0.0000 0.0000
# 3 36.6028 76.5456 142.5857 0.0000 0.0000 0.0000
# 4 0.0000 0.0000 0.0000 30.4165 0.0000 0.0000
# 5 0.0000 0.0000 0.0000 0.0000 27.6540 0.0000
# 6 0.0000 0.0000 0.0000 0.0000 0.0000 24.4644
#
#
#
# Elastic Compliance Matrix: (Units=1/GPa)
#
#
# Indices 1 2 3 4 5 6 
#
# 1 0.025880 -0.003480 -0.004775 0.000000 0.000000 0.000000
# 2 -0.003480 0.010848 -0.004930 0.000000 0.000000 0.000000
# 3 -0.004775 -0.004930 0.010886 0.000000 0.000000 0.000000
# 4 0.000000 0.000000 0.000000 0.032877 0.000000 0.000000
# 5 0.000000 0.000000 0.000000 0.000000 0.036161 0.000000
# 6 0.000000 0.000000 0.000000 0.000000 0.000000 0.040876
#
#
# Mechanical properties :
#
#
# Convention : Reuss Voigt Hill
#
# Bulk Modulus (GPa) = 47.07520 69.03321 58.05421
# Shear Modulus (GPa) = 26.18071 28.77638 27.47854
#
# Velocity S-wave (km/s) = 3.79113 3.97462 3.88396
# Velocity P-wave (km/s) = 6.70871 7.67862 7.20999
#
# Compressibility (1/GPa) = 0.02124261
#
# Stress axis : x y z
#
# Youngs Moduli (GPa) = 38.63991 92.18140 91.86109
#
# Poissons Ratio (x) = 0.32080 0.43867
# Poissons Ratio (y) = 0.13447 0.45291
# Poissons Ratio (z) = 0.18452 0.45449
#
# Static dielectric constant tensor:
#      x y z
#    x 3.157150 0.000000 0.000000 
#    y 0.000000 3.453110 0.000000 
#    z 0.000000 0.000000 3.379490 
# 
# 
# High freq. dielectric constant tensor:
#      x y z
#    x 1.694300 0.000000 0.000000 
#    y 0.000000 1.711120 0.000000 
#    z 0.000000 0.000000 1.697110 
# 
# From -- ./inp_files/37121.got.cif
#   From: 2010.03.12/outbox.cif.g09.slc.cpg/sg67_19_cif.got.tgz:37121.got - 2010.04.10 22:41:39.
