data_PCOD8278388
_publ_section_title
;
Structure prediction by ZEFSAII (Michael W. Deem and Ramdas Pophale) SiO2 
 PCOD8278388
Probable space group: C M M A
;
_chemical_formula_sum "Si O2"
_cell_formula_units_Z 96
_cell_length_a 8.676053
_cell_length_b 19.039447
_cell_length_c 31.314747
_cell_angle_alpha 90.000000
_cell_angle_beta 90.000000
_cell_angle_gamma 90.000000
_cell_volume 5172.796981
_symmetry_space_group_name_H-M "C M M A"
_symmetry_group_IT_number 67
_symmetry_cell_setting 'orthorhombic'
loop_
_space_group_symop_operation_xyz
x,y,z
-x,1/2-y,z
x,-y,-z
-x,1/2+y,-z
-x,-y,-z
x,1/2+y,-z
-x,y,z
x,1/2-y,z
1/2+x,1/2+y,z
1/2-x,-y,z
1/2+x,1/2-y,-z
1/2-x,y,-z
1/2-x,1/2-y,-z
1/2+x,y,-z
1/2-x,1/2+y,z
1/2+x,-y,z
loop_
_atom_site_type_symbol
_atom_site_label
_atom_site_fract_x
_atom_site_fract_y
_atom_site_fract_z
Si Si1 0.673626 0.666414 0.457258
Si Si2 0.683232 0.922695 0.708112
Si Si3 0.817991 0.670908 0.370461
Si Si4 0.683327 0.577879 0.205632
Si Si5 0.682163 0.422858 0.119215
Si Si6 0.678380 0.332211 0.954756
O O1 0.500000 0.639520 0.455905
O O2 0.685834 0.750000 0.458450
O O3 0.750000 0.634629 0.500000
O O4 0.757342 0.638003 0.414803
O O5 0.500000 0.926309 0.711356
O O6 0.741403 0.875861 0.668713
O O7 0.750777 0.886273 0.751265
O O8 0.750000 0.000000 0.701417
O O9 0.754403 0.750000 0.363977
O O10 0.000000 0.671146 0.372531
O O11 0.500000 0.578623 0.206093
O O12 0.750000 0.500000 0.205543
O O13 0.746264 0.613073 0.162098
O O14 0.500000 0.428869 0.124228
O O15 0.750000 0.500000 0.110963
O O16 0.724797 0.373068 0.080354
O O17 0.500000 0.354922 0.953473
O O18 0.698051 0.250000 0.945939
O O19 0.750000 0.353340 0.000000
#
# Coordination Sequence:
#
# PCOD8278388 Si02
#       6
#    16  16  16  16  16  16
#     4   9  16  26  43  67  94 124 158 196 239 288
#     4  10  19  32  51  73  98 130 166 203 244 295
#     4   9  18  32  49  70  97 127 160 200 244 288
#     4  10  18  31  51  74 101 132 168 209 252 298
#     4  11  21  35  56  81 108 136 172 216 261 304
#     4  10  21  38  58  80 108 141 176 212 254 306
#
# _framework density 18.558626
#
# number of rings (size 3 to 8) (size 9 to 14) (size 15 to 20)
#    0.000    2.167    0.000    6.500    0.000    4.667 
#    0.000    2.500    0.000    3.500    0.000    3.500 
#    0.000    0.000    0.000    0.000    0.000    0.000 
#
# Total GULP energy -595107.344419 kJ/mol
# GULP energy per Si atom -12398.069675 kJ/mol
# Density = 1.851639 g / cm^3
# Si number density = 18.558626 Si / 1000 Ang^3
#
#
#
# Elastic Constant Matrix: (Units=GPa)
#
#
# Indices 1 2 3 4 5 6 
#
# 1 109.7337 25.2105 59.0474 0.0000 0.0000 0.0000
# 2 25.2105 39.4479 53.7761 0.0000 0.0000 0.0000
# 3 59.0474 53.7761 193.5095 0.0000 0.0000 0.0000
# 4 0.0000 0.0000 0.0000 26.6621 0.0000 0.0000
# 5 0.0000 0.0000 0.0000 0.0000 39.0816 0.0000
# 6 0.0000 0.0000 0.0000 0.0000 0.0000 19.8517
#
#
#
# Elastic Compliance Matrix: (Units=1/GPa)
#
#
# Indices 1 2 3 4 5 6 
#
# 1 0.011292 -0.004056 -0.002319 0.000000 0.000000 0.000000
# 2 -0.004056 0.042267 -0.010508 0.000000 0.000000 0.000000
# 3 -0.002319 -0.010508 0.008795 0.000000 0.000000 0.000000
# 4 0.000000 0.000000 0.000000 0.037506 0.000000 0.000000
# 5 0.000000 0.000000 0.000000 0.000000 0.025587 0.000000
# 6 0.000000 0.000000 0.000000 0.000000 0.000000 0.050373
#
#
# Mechanical properties :
#
#
# Convention : Reuss Voigt Hill
#
# Bulk Modulus (GPa) = 34.97839 68.75099 51.86469
# Shear Modulus (GPa) = 22.81876 30.76291 26.79083
#
# Velocity S-wave (km/s) = 3.51030 4.07579 3.80357
# Velocity P-wave (km/s) = 5.94290 7.69903 6.87725
#
# Compressibility (1/GPa) = 0.02858908
#
# Stress axis : x y z
#
# Youngs Moduli (GPa) = 88.55479 23.65906 113.69517
#
# Poissons Ratio (x) = 0.09596 0.26361
# Poissons Ratio (y) = 0.35918 1.19475
# Poissons Ratio (z) = 0.20532 0.24862
#
# Static dielectric constant tensor:
#      x y z
#    x 3.494910 0.000000 0.000000 
#    y 0.000000 3.046260 0.000000 
#    z 0.000000 0.000000 4.141950 
# 
# 
# High freq. dielectric constant tensor:
#      x y z
#    x 1.735320 0.000000 0.000000 
#    y 0.000000 1.667380 0.000000 
#    z 0.000000 0.000000 1.746330 
# 
# From -- ./inp_files/40784.got.cif
#   From: 2010.03.12/outbox.cif.g09.slc.cpg/sg67_21_cif.got.tgz:40784.got - 2010.04.10 22:41:39.
