data_PCOD8278459
_publ_section_title
;
Structure prediction by ZEFSAII (Michael W. Deem and Ramdas Pophale) SiO2 
 PCOD8278459
Probable space group: C M M A
;
_chemical_formula_sum "Si O2"
_cell_formula_units_Z 80
_cell_length_a 16.786867
_cell_length_b 18.088286
_cell_length_c 13.904948
_cell_angle_alpha 90.000000
_cell_angle_beta 90.000000
_cell_angle_gamma 90.000000
_cell_volume 4222.176992
_symmetry_space_group_name_H-M "C M M A"
_symmetry_group_IT_number 67
_symmetry_cell_setting 'orthorhombic'
loop_
_space_group_symop_operation_xyz
x,y,z
-x,1/2-y,z
x,-y,-z
-x,1/2+y,-z
-x,-y,-z
x,1/2+y,-z
-x,y,z
x,1/2-y,z
1/2+x,1/2+y,z
1/2-x,-y,z
1/2+x,1/2-y,-z
1/2-x,y,-z
1/2-x,1/2-y,-z
1/2+x,y,-z
1/2-x,1/2+y,z
1/2+x,-y,z
loop_
_atom_site_type_symbol
_atom_site_label
_atom_site_fract_x
_atom_site_fract_y
_atom_site_fract_z
Si Si1 0.906135 0.830805 0.113571
Si Si2 0.406529 0.927469 0.059319
Si Si3 0.176585 0.947366 0.744077
Si Si4 0.907709 0.414062 0.698084
Si Si5 0.766454 0.835698 0.388909
O O1 0.867088 0.750000 0.130668
O O2 0.879179 0.888259 0.195399
O O3 0.000000 0.824338 0.120255
O O4 0.882287 0.858811 0.008011
O O5 0.500000 0.930235 0.084798
O O6 0.357891 0.915677 0.156846
O O7 0.381957 0.000000 0.000000
O O8 0.202103 0.880264 0.674893
O O9 0.250000 0.000000 0.768167
O O10 0.110157 0.998244 0.690615
O O11 0.855989 0.366258 0.624072
O O12 0.000000 0.398554 0.676339
O O13 0.761217 0.750000 0.359481
O O14 0.750000 0.848346 0.500000
#
# Coordination Sequence:
#
# PCOD8278459 Si02
#       5
#    16  16  16  16  16
#     4   9  17  29  49  79 111 144 186 236 284 333
#     4  10  18  32  53  77 114 158 195 233 286 347
#     4  10  21  35  56  85 115 149 191 239 295 353
#     4  10  19  36  63  88 109 144 198 249 286 343
#     4  10  23  43  61  81 117 157 191 243 311 362
#
# _framework density 18.947569999999999
#
# number of rings (size 3 to 8) (size 9 to 14) (size 15 to 20)
#    0.000    2.200    2.000    1.200    0.000    6.000 
#    0.000    3.000    0.000    7.800    0.000    0.000 
#    0.000    0.000    0.000    0.000    0.000    0.000 
#
# Total GULP energy -495892.417966 kJ/mol
# GULP energy per Si atom -12397.310449 kJ/mol
# Density = 1.890444 g / cm^3
# Si number density = 18.947570 Si / 1000 Ang^3
#
#
#
# Elastic Constant Matrix: (Units=GPa)
#
#
# Indices 1 2 3 4 5 6 
#
# 1 76.0729 48.5578 56.7786 0.0000 0.0000 0.0000
# 2 48.5578 125.5631 54.7221 0.0000 0.0000 0.0000
# 3 56.7786 54.7221 104.4039 0.0000 0.0000 0.0000
# 4 0.0000 0.0000 0.0000 21.1459 0.0000 0.0000
# 5 0.0000 0.0000 0.0000 0.0000 30.6022 0.0000
# 6 0.0000 0.0000 0.0000 0.0000 0.0000 20.6048
#
#
#
# Elastic Compliance Matrix: (Units=1/GPa)
#
#
# Indices 1 2 3 4 5 6 
#
# 1 0.024069 -0.004670 -0.010642 0.000000 0.000000 0.000000
# 2 -0.004670 0.011228 -0.003345 0.000000 0.000000 0.000000
# 3 -0.010642 -0.003345 0.017119 0.000000 0.000000 0.000000
# 4 0.000000 0.000000 0.000000 0.047291 0.000000 0.000000
# 5 0.000000 0.000000 0.000000 0.000000 0.032677 0.000000
# 6 0.000000 0.000000 0.000000 0.000000 0.000000 0.048532
#
#
# Mechanical properties :
#
#
# Convention : Reuss Voigt Hill
#
# Bulk Modulus (GPa) = 66.21803 69.57299 67.89551
# Shear Modulus (GPa) = 22.39494 24.20265 23.29880
#
# Velocity S-wave (km/s) = 3.44167 3.57788 3.51043
# Velocity P-wave (km/s) = 7.12863 7.33939 7.23478
#
# Compressibility (1/GPa) = 0.01510163
#
# Stress axis : x y z
#
# Youngs Moduli (GPa) = 41.54720 89.06242 58.41468
#
# Poissons Ratio (x) = 0.41593 0.62164
# Poissons Ratio (y) = 0.19403 0.19541
# Poissons Ratio (z) = 0.44214 0.29794
#
# Static dielectric constant tensor:
#      x y z
#    x 3.426080 0.000000 0.000000 
#    y 0.000000 3.825150 0.000000 
#    z 0.000000 0.000000 3.410140 
# 
# 
# High freq. dielectric constant tensor:
#      x y z
#    x 1.723330 0.000000 0.000000 
#    y 0.000000 1.740890 0.000000 
#    z 0.000000 0.000000 1.727230 
# 
# From -- ./inp_files/28386.got.cif
#   From: 2010.03.12/outbox.cif.g09.slc.cpg/sg67_15_cif.got.tgz:28386.got - 2010.04.10 22:41:39.
