data_PCOD8278668
_publ_section_title
;
Structure prediction by ZEFSAII (Michael W. Deem and Ramdas Pophale) SiO2 
 PCOD8278668
Probable space group: C M M A
;
_chemical_formula_sum "Si O2"
_cell_formula_units_Z 96
_cell_length_a 25.387142
_cell_length_b 22.684261
_cell_length_c 9.366662
_cell_angle_alpha 90.000000
_cell_angle_beta 90.000000
_cell_angle_gamma 90.000000
_cell_volume 5394.153446
_symmetry_space_group_name_H-M "C M M A"
_symmetry_group_IT_number 67
_symmetry_cell_setting 'orthorhombic'
loop_
_space_group_symop_operation_xyz
x,y,z
-x,1/2-y,z
x,-y,-z
-x,1/2+y,-z
-x,-y,-z
x,1/2+y,-z
-x,y,z
x,1/2-y,z
1/2+x,1/2+y,z
1/2-x,-y,z
1/2+x,1/2-y,-z
1/2-x,y,-z
1/2-x,1/2-y,-z
1/2+x,y,-z
1/2-x,1/2+y,z
1/2+x,-y,z
loop_
_atom_site_type_symbol
_atom_site_label
_atom_site_fract_x
_atom_site_fract_y
_atom_site_fract_z
Si Si1 0.636771 0.182265 0.986131
Si Si2 0.059791 0.319535 0.764122
Si Si3 0.148985 0.131890 0.601877
Si Si4 0.331342 0.884619 0.271472
Si Si5 0.808314 0.991488 0.332870
Si Si6 0.272311 0.816259 0.800366
O O1 0.629708 0.250000 0.946005
O O2 0.629157 0.145487 0.840444
O O3 0.590644 0.162291 0.092375
O O4 0.695378 0.171050 0.052478
O O5 0.062520 0.250000 0.737502
O O6 0.087868 0.353141 0.632469
O O7 0.000000 0.341914 0.775431
O O8 0.157130 0.133593 0.433451
O O9 0.164704 0.071869 0.688603
O O10 0.185528 0.182337 0.670964
O O11 0.272195 0.864647 0.230353
O O12 0.340608 0.955112 0.259474
O O13 0.805041 0.000000 0.500000
O O14 0.750000 0.000000 0.267765
O O15 0.248109 0.750000 0.804994
#
# Coordination Sequence:
#
# PCOD8278668 Si02
#       6
#    16  16  16  16  16  16
#     4   9  19  33  49  72 103 136 170 208 257 312
#     4   9  19  38  59  74  96 134 173 213 268 321
#     4  10  19  32  52  76 102 133 174 216 253 300
#     4  11  19  29  50  74 104 136 172 212 249 301
#     4   9  17  31  48  70 104 143 174 201 248 304
#     4  10  19  30  45  70 107 144 167 196 252 317
#
# _framework density 17.797048
#
# number of rings (size 3 to 8) (size 9 to 14) (size 15 to 20)
#    0.000    2.333    1.667    3.000    0.000    4.667 
#    0.000    4.167    0.000    8.500    0.000    0.000 
#    0.000    0.000    0.000    0.000    0.000    0.000 
#
# Total GULP energy -594848.540735 kJ/mol
# GULP energy per Si atom -12392.677932 kJ/mol
# Density = 1.775654 g / cm^3
# Si number density = 17.797048 Si / 1000 Ang^3
#
#
#
# Elastic Constant Matrix: (Units=GPa)
#
#
# Indices 1 2 3 4 5 6 
#
# 1 86.9306 27.1038 17.5076 0.0000 0.0000 0.0000
# 2 27.1038 75.2144 41.4774 0.0000 0.0000 0.0000
# 3 17.5076 41.4774 91.6106 0.0000 0.0000 0.0000
# 4 0.0000 0.0000 0.0000 24.8476 0.0000 0.0000
# 5 0.0000 0.0000 0.0000 0.0000 14.4042 0.0000
# 6 0.0000 0.0000 0.0000 0.0000 0.0000 15.8009
#
#
#
# Elastic Compliance Matrix: (Units=1/GPa)
#
#
# Indices 1 2 3 4 5 6 
#
# 1 0.012976 -0.004409 -0.000483 0.000000 0.000000 0.000000
# 2 -0.004409 0.019218 -0.007858 0.000000 0.000000 0.000000
# 3 -0.000483 -0.007858 0.014566 0.000000 0.000000 0.000000
# 4 0.000000 0.000000 0.000000 0.040245 0.000000 0.000000
# 5 0.000000 0.000000 0.000000 0.000000 0.069424 0.000000
# 6 0.000000 0.000000 0.000000 0.000000 0.000000 0.063288
#
#
# Mechanical properties :
#
#
# Convention : Reuss Voigt Hill
#
# Bulk Modulus (GPa) = 47.04246 47.32591 47.18418
# Shear Modulus (GPa) = 19.81733 22.18831 21.00282
#
# Velocity S-wave (km/s) = 3.34056 3.53475 3.43903
# Velocity P-wave (km/s) = 6.43189 6.58096 6.50685
#
# Compressibility (1/GPa) = 0.02125739
#
# Stress axis : x y z
#
# Youngs Moduli (GPa) = 77.06817 52.03529 68.65265
#
# Poissons Ratio (x) = 0.22943 0.03319
# Poissons Ratio (y) = 0.33981 0.53950
# Poissons Ratio (z) = 0.03726 0.40891
#
# Static dielectric constant tensor:
#      x y z
#    x 3.141840 0.000000 0.000000 
#    y 0.000000 3.482830 0.000000 
#    z 0.000000 0.000000 3.260990 
# 
# 
# High freq. dielectric constant tensor:
#      x y z
#    x 1.652170 0.000000 0.000000 
#    y 0.000000 1.687910 0.000000 
#    z 0.000000 0.000000 1.683320 
# 
# From -- ./inp_files/12754.got.cif
#   From: 2010.03.12/outbox.cif.g09.slc.cpg/sg67_7_cif.got.tgz:12754.got - 2010.04.10 22:41:39.
