data_PCOD8278436
_publ_section_title
;
Structure prediction by ZEFSAII (Michael W. Deem and Ramdas Pophale) SiO2 
 PCOD8278436
Probable space group: C M M A
;
_chemical_formula_sum "Si O2"
_cell_formula_units_Z 128
_cell_length_a 17.748527
_cell_length_b 18.647378
_cell_length_c 22.756906
_cell_angle_alpha 90.000000
_cell_angle_beta 90.000000
_cell_angle_gamma 90.000000
_cell_volume 7531.705075
_symmetry_space_group_name_H-M "C M M A"
_symmetry_group_IT_number 67
_symmetry_cell_setting 'orthorhombic'
loop_
_space_group_symop_operation_xyz
x,y,z
-x,1/2-y,z
x,-y,-z
-x,1/2+y,-z
-x,-y,-z
x,1/2+y,-z
-x,y,z
x,1/2-y,z
1/2+x,1/2+y,z
1/2-x,-y,z
1/2+x,1/2-y,-z
1/2-x,y,-z
1/2-x,1/2-y,-z
1/2+x,y,-z
1/2-x,1/2+y,z
1/2+x,-y,z
loop_
_atom_site_type_symbol
_atom_site_label
_atom_site_fract_x
_atom_site_fract_y
_atom_site_fract_z
Si Si1 0.208565 0.072858 0.618886
Si Si2 0.810886 0.940355 0.245681
Si Si3 0.915060 0.419781 0.522099
Si Si4 0.789576 0.666152 0.817397
Si Si5 0.587853 0.044698 0.817147
Si Si6 0.413868 0.049348 0.949921
Si Si7 0.309891 0.830088 0.447896
Si Si8 0.695717 0.669194 0.049269
O O1 0.180406 0.072408 0.685272
O O2 0.135087 0.088205 0.580150
O O3 0.271721 0.134131 0.609316
O O4 0.250000 0.000000 0.599505
O O5 0.783906 0.865728 0.216109
O O6 0.750000 0.000000 0.229948
O O7 0.888450 0.974701 0.221142
O O8 0.912929 0.500000 0.500000
O O9 0.884801 0.370832 0.468819
O O10 0.000000 0.395527 0.537463
O O11 0.803684 0.750000 0.799086
O O12 0.863654 0.617171 0.802885
O O13 0.768299 0.662042 0.886077
O O14 0.500000 0.062495 0.804536
O O15 0.600204 0.019189 0.884438
O O16 0.500000 0.057201 0.965729
O O17 0.382962 0.129173 0.953600
O O18 0.374824 0.000000 0.000000
O O19 0.333094 0.750000 0.430489
O O20 0.250000 0.832715 0.500000
O O21 0.676699 0.750000 0.032416
O O22 0.750000 0.635315 0.000000
#
# Coordination Sequence:
#
# PCOD8278436 Si02
#       8
#    16  16  16  16  16  16  16  16
#     4  10  18  32  52  74 100 136 172 209 240 293
#     4   9  19  32  50  75 101 133 173 210 251 300
#     4  10  19  31  51  78 106 134 168 208 251 297
#     4   9  18  33  51  72 100 133 171 214 259 308
#     4   9  18  33  51  73 102 132 167 213 261 308
#     4   9  18  30  46  70  97 128 164 203 252 308
#     4   9  18  31  50  74 100 132 167 204 248 292
#     4   9  18  30  46  70  96 125 164 210 258 304
#
# _framework density 16.994823
#
# number of rings (size 3 to 8) (size 9 to 14) (size 15 to 20)
#    0.000    2.750    1.250    0.000    1.750    2.000 
#    0.000    2.500    0.000    0.375    0.000    3.500 
#    0.000    0.000    0.000    0.000    0.000    0.000 
#
# Total GULP energy -793216.199518 kJ/mol
# GULP energy per Si atom -12394.003117 kJ/mol
# Density = 1.695614 g / cm^3
# Si number density = 16.994823 Si / 1000 Ang^3
#
#
#
# Elastic Constant Matrix: (Units=GPa)
#
#
# Indices 1 2 3 4 5 6 
#
# 1 90.4744 51.9701 44.9903 0.0000 0.0000 0.0000
# 2 51.9701 105.9318 42.7399 0.0000 0.0000 0.0000
# 3 44.9903 42.7399 83.0480 0.0000 0.0000 0.0000
# 4 0.0000 0.0000 0.0000 19.2116 0.0000 0.0000
# 5 0.0000 0.0000 0.0000 0.0000 20.2208 0.0000
# 6 0.0000 0.0000 0.0000 0.0000 0.0000 4.7437
#
#
#
# Elastic Compliance Matrix: (Units=1/GPa)
#
#
# Indices 1 2 3 4 5 6 
#
# 1 0.017791 -0.006108 -0.006495 0.000000 0.000000 0.000000
# 2 -0.006108 0.014011 -0.003902 0.000000 0.000000 0.000000
# 3 -0.006495 -0.003902 0.017568 0.000000 0.000000 0.000000
# 4 0.000000 0.000000 0.000000 0.052052 0.000000 0.000000
# 5 0.000000 0.000000 0.000000 0.000000 0.049454 0.000000
# 6 0.000000 0.000000 0.000000 0.000000 0.000000 0.210804
#
#
# Mechanical properties :
#
#
# Convention : Reuss Voigt Hill
#
# Bulk Modulus (GPa) = 61.12127 62.09496 61.60812
# Shear Modulus (GPa) = 12.49558 18.15216 15.32387
#
# Velocity S-wave (km/s) = 2.71451 3.27172 3.00605
# Velocity P-wave (km/s) = 6.77255 7.13366 6.95545
#
# Compressibility (1/GPa) = 0.01636092
#
# Stress axis : x y z
#
# Youngs Moduli (GPa) = 56.20846 71.37399 56.92297
#
# Poissons Ratio (x) = 0.43594 0.36970
# Poissons Ratio (y) = 0.34331 0.22209
# Poissons Ratio (z) = 0.36506 0.27848
#
# Static dielectric constant tensor:
#      x y z
#    x 3.150120 0.000000 0.000000 
#    y 0.000000 3.280670 0.000000 
#    z 0.000000 0.000000 3.141730 
# 
# 
# High freq. dielectric constant tensor:
#      x y z
#    x 1.639850 0.000000 0.000000 
#    y 0.000000 1.652110 0.000000 
#    z 0.000000 0.000000 1.650960 
# 
# From -- ./inp_files/42247.got.cif
#   From: 2010.03.12/outbox.cif.g09.slc.cpg/sg67_22_cif.got.tgz:42247.got - 2010.04.10 22:41:39.
