data_PCOD8278841
_publ_section_title
;
Structure prediction by ZEFSAII (Michael W. Deem and Ramdas Pophale) SiO2 
 PCOD8278841
Probable space group: C M M A
;
_chemical_formula_sum "Si O2"
_cell_formula_units_Z 80
_cell_length_a 16.420081
_cell_length_b 18.271737
_cell_length_c 12.486818
_cell_angle_alpha 90.000000
_cell_angle_beta 90.000000
_cell_angle_gamma 90.000000
_cell_volume 3746.337611
_symmetry_space_group_name_H-M "C M M A"
_symmetry_group_IT_number 67
_symmetry_cell_setting 'orthorhombic'
loop_
_space_group_symop_operation_xyz
x,y,z
-x,1/2-y,z
x,-y,-z
-x,1/2+y,-z
-x,-y,-z
x,1/2+y,-z
-x,y,z
x,1/2-y,z
1/2+x,1/2+y,z
1/2-x,-y,z
1/2+x,1/2-y,-z
1/2-x,y,-z
1/2-x,1/2-y,-z
1/2+x,y,-z
1/2-x,1/2+y,z
1/2+x,-y,z
loop_
_atom_site_type_symbol
_atom_site_label
_atom_site_fract_x
_atom_site_fract_y
_atom_site_fract_z
Si Si1 0.832437 0.165475 0.063440
Si Si2 0.402913 0.066823 0.327644
Si Si3 0.092733 0.829511 0.148157
Si Si4 0.596065 0.668966 0.485595
Si Si5 0.403614 0.905713 0.269429
O O1 0.832927 0.250000 0.100502
O O2 0.850204 0.114936 0.165738
O O3 0.750000 0.144540 0.000000
O O4 0.902600 0.148438 0.976426
O O5 0.500000 0.065618 0.330475
O O6 0.366513 0.111188 0.226051
O O7 0.367991 0.106818 0.434336
O O8 0.373002 0.983823 0.314696
O O9 0.136280 0.750000 0.163984
O O10 0.000000 0.822406 0.182983
O O11 0.500000 0.669450 0.501780
O O12 0.631074 0.750000 0.513184
O O13 0.617184 0.651541 0.362832
O O14 0.500000 0.905431 0.240879
#
# Coordination Sequence:
#
# PCOD8278841 Si02
#       5
#    16  16  16  16  16
#     4  10  21  36  52  71  99 135 176 222 267 312
#     4   9  17  29  47  75 108 136 167 212 261 307
#     4   9  17  31  52  74  97 131 175 218 260 312
#     4   9  16  27  47  76 108 140 174 212 256 309
#     4  10  19  31  50  77 109 142 176 216 263 314
#
# _framework density 21.354188000000001
#
# number of rings (size 3 to 8) (size 9 to 14) (size 15 to 20)
#    0.000    2.600    0.000    2.400    0.000    7.600 
#    0.000    5.000    0.000    1.200    0.000    8.400 
#    0.000    0.000    0.000    0.000    0.000    0.800 
#
# Total GULP energy -495644.106741 kJ/mol
# GULP energy per Si atom -12391.102669 kJ/mol
# Density = 2.130559 g / cm^3
# Si number density = 21.354188 Si / 1000 Ang^3
#
#
#
# Elastic Constant Matrix: (Units=GPa)
#
#
# Indices 1 2 3 4 5 6 
#
# 1 28.4600 23.6247 26.4553 0.0000 0.0000 0.0000
# 2 23.6247 142.7801 82.6834 0.0000 0.0000 0.0000
# 3 26.4553 82.6834 152.2409 0.0000 0.0000 0.0000
# 4 0.0000 0.0000 0.0000 37.2922 0.0000 0.0000
# 5 0.0000 0.0000 0.0000 0.0000 18.8542 0.0000
# 6 0.0000 0.0000 0.0000 0.0000 0.0000 10.5262
#
#
#
# Elastic Compliance Matrix: (Units=1/GPa)
#
#
# Indices 1 2 3 4 5 6 
#
# 1 0.043502 -0.004114 -0.005325 0.000000 0.000000 0.000000
# 2 -0.004114 0.010606 -0.005045 0.000000 0.000000 0.000000
# 3 -0.005325 -0.005045 0.010234 0.000000 0.000000 0.000000
# 4 0.000000 0.000000 0.000000 0.026815 0.000000 0.000000
# 5 0.000000 0.000000 0.000000 0.000000 0.053039 0.000000
# 6 0.000000 0.000000 0.000000 0.000000 0.000000 0.095001
#
#
# Mechanical properties :
#
#
# Convention : Reuss Voigt Hill
#
# Bulk Modulus (GPa) = 28.26995 65.44532 46.85764
# Shear Modulus (GPa) = 17.85979 26.04901 21.95440
#
# Velocity S-wave (km/s) = 2.89513 3.49643 3.20989
# Velocity P-wave (km/s) = 4.94399 6.85668 5.97734
#
# Compressibility (1/GPa) = 0.03537325
#
# Stress axis : x y z
#
# Youngs Moduli (GPa) = 22.98729 94.28327 97.71248
#
# Poissons Ratio (x) = 0.38791 0.52032
# Poissons Ratio (y) = 0.09458 0.49300
# Poissons Ratio (z) = 0.12241 0.47570
#
# Static dielectric constant tensor:
#      x y z
#    x 3.358520 0.000000 0.000000 
#    y 0.000000 4.126730 0.000000 
#    z 0.000000 0.000000 3.993070 
# 
# 
# High freq. dielectric constant tensor:
#      x y z
#    x 1.780260 0.000000 0.000000 
#    y 0.000000 1.840790 0.000000 
#    z 0.000000 0.000000 1.848070 
# 
# From -- ./inp_files/28385.got.cif
#   From: 2010.03.12/outbox.cif.g09.slc.cpg/sg67_15_cif.got.tgz:28385.got - 2010.04.10 22:41:39.
