data_PCOD8278803
_publ_section_title
;
Structure prediction by ZEFSAII (Michael W. Deem and Ramdas Pophale) SiO2 
 PCOD8278803
Probable space group: C M M A
;
_chemical_formula_sum "Si O2"
_cell_formula_units_Z 80
_cell_length_a 19.412204
_cell_length_b 8.906843
_cell_length_c 26.025077
_cell_angle_alpha 90.000000
_cell_angle_beta 90.000000
_cell_angle_gamma 90.000000
_cell_volume 4499.773636
_symmetry_space_group_name_H-M "C M M A"
_symmetry_group_IT_number 67
_symmetry_cell_setting 'orthorhombic'
loop_
_space_group_symop_operation_xyz
x,y,z
-x,1/2-y,z
x,-y,-z
-x,1/2+y,-z
-x,-y,-z
x,1/2+y,-z
-x,y,z
x,1/2-y,z
1/2+x,1/2+y,z
1/2-x,-y,z
1/2+x,1/2-y,-z
1/2-x,y,-z
1/2-x,1/2-y,-z
1/2+x,y,-z
1/2-x,1/2+y,z
1/2+x,-y,z
loop_
_atom_site_type_symbol
_atom_site_label
_atom_site_fract_x
_atom_site_fract_y
_atom_site_fract_z
Si Si1 0.578225 0.073341 0.552444
Si Si2 0.823984 0.074207 0.745223
Si Si3 0.325205 0.428420 0.645091
Si Si4 0.176345 0.074822 0.858112
Si Si5 0.578323 0.072467 0.052322
O O1 0.500000 0.021449 0.564120
O O2 0.582609 0.250000 0.545672
O O3 0.626685 0.018099 0.598528
O O4 0.605618 0.000000 0.500000
O O5 0.818291 0.250000 0.732894
O O6 0.638337 0.008583 0.697503
O O7 0.857462 0.045352 0.801459
O O8 0.750000 0.000000 0.748231
O O9 0.319000 0.250000 0.648191
O O10 0.250000 0.500000 0.637348
O O11 0.188545 0.250000 0.866031
O O12 0.123518 0.010992 0.900288
O O13 0.250000 0.000000 0.865525
O O14 0.500000 0.020464 0.062171
O O15 0.583649 0.250000 0.047297
O O16 0.607082 0.000000 0.000000
#
# Coordination Sequence:
#
# PCOD8278803 Si02
#       5
#    16  16  16  16  16
#     4   9  19  35  52  69  92 124 158 191 230 274
#     4   9  16  28  46  68  94 123 154 186 227 275
#     4  10  19  31  49  72  97 123 153 191 231 272
#     4   9  18  31  48  70  94 121 153 191 231 271
#     4   9  18  33  50  67  91 123 156 190 230 275
#
# _framework density 17.778672
#
# number of rings (size 3 to 8) (size 9 to 14) (size 15 to 20)
#    0.000    2.800    0.000    2.400    0.000    4.000 
#    0.000    5.000    0.000    1.200    0.000    0.000 
#    0.000    0.000    0.000    0.000    0.000    0.000 
#
# Total GULP energy -495735.395384 kJ/mol
# GULP energy per Si atom -12393.384885 kJ/mol
# Density = 1.773821 g / cm^3
# Si number density = 17.778672 Si / 1000 Ang^3
#
#
#
# Elastic Constant Matrix: (Units=GPa)
#
#
# Indices 1 2 3 4 5 6 
#
# 1 68.1364 26.3082 79.6001 0.0000 0.0000 0.0000
# 2 26.3082 51.8848 51.1931 0.0000 0.0000 0.0000
# 3 79.6001 51.1931 202.9250 0.0000 0.0000 0.0000
# 4 0.0000 0.0000 0.0000 32.5892 0.0000 0.0000
# 5 0.0000 0.0000 0.0000 0.0000 17.4744 0.0000
# 6 0.0000 0.0000 0.0000 0.0000 0.0000 18.4072
#
#
#
# Elastic Compliance Matrix: (Units=1/GPa)
#
#
# Indices 1 2 3 4 5 6 
#
# 1 0.027842 -0.004449 -0.009799 0.000000 0.000000 0.000000
# 2 -0.004449 0.026372 -0.004908 0.000000 0.000000 0.000000
# 3 -0.009799 -0.004908 0.010010 0.000000 0.000000 0.000000
# 4 0.000000 0.000000 0.000000 0.030685 0.000000 0.000000
# 5 0.000000 0.000000 0.000000 0.000000 0.057227 0.000000
# 6 0.000000 0.000000 0.000000 0.000000 0.000000 0.054327
#
#
# Mechanical properties :
#
#
# Convention : Reuss Voigt Hill
#
# Bulk Modulus (GPa) = 38.59219 70.79435 54.69327
# Shear Modulus (GPa) = 19.73087 24.75048 22.24067
#
# Velocity S-wave (km/s) = 3.33499 3.73519 3.54075
# Velocity P-wave (km/s) = 6.04844 7.64908 6.89537
#
# Compressibility (1/GPa) = 0.02591198
#
# Stress axis : x y z
#
# Youngs Moduli (GPa) = 35.91716 37.91959 99.90168
#
# Poissons Ratio (x) = 0.16870 0.97894
# Poissons Ratio (y) = 0.15979 0.49030
# Poissons Ratio (z) = 0.35195 0.18610
#
# Static dielectric constant tensor:
#      x y z
#    x 3.121710 0.000000 0.000000 
#    y 0.000000 3.284500 0.000000 
#    z 0.000000 0.000000 4.096340 
# 
# 
# High freq. dielectric constant tensor:
#      x y z
#    x 1.652580 0.000000 0.000000 
#    y 0.000000 1.688470 0.000000 
#    z 0.000000 0.000000 1.709880 
# 
# From -- ./inp_files/41769.got.cif
#   From: 2010.03.12/outbox.cif.g09.slc.cpg/sg67_21_cif.got.tgz:41769.got - 2010.04.10 22:41:39.
