data_PCOD8278297
_publ_section_title
;
Structure prediction by ZEFSAII (Michael W. Deem and Ramdas Pophale) SiO2 
 PCOD8278297
Probable space group: C M M A
;
_chemical_formula_sum "Si O2"
_cell_formula_units_Z 116
_cell_length_a 23.842911
_cell_length_b 18.061843
_cell_length_c 15.562051
_cell_angle_alpha 90.000000
_cell_angle_beta 90.000000
_cell_angle_gamma 90.000000
_cell_volume 6701.749256
_symmetry_space_group_name_H-M "C M M A"
_symmetry_group_IT_number 67
_symmetry_cell_setting 'orthorhombic'
loop_
_space_group_symop_operation_xyz
x,y,z
-x,1/2-y,z
x,-y,-z
-x,1/2+y,-z
-x,-y,-z
x,1/2+y,-z
-x,y,z
x,1/2-y,z
1/2+x,1/2+y,z
1/2-x,-y,z
1/2+x,1/2-y,-z
1/2-x,y,-z
1/2-x,1/2-y,-z
1/2+x,y,-z
1/2-x,1/2+y,z
1/2+x,-y,z
loop_
_atom_site_type_symbol
_atom_site_label
_atom_site_fract_x
_atom_site_fract_y
_atom_site_fract_z
Si Si1 0.714887 0.830597 0.414426
Si Si2 0.648287 0.437305 0.239671
Si Si3 0.436359 0.913452 0.016752
Si Si4 0.435422 0.666262 0.837941
Si Si5 0.747713 0.667847 0.771850
Si Si6 0.316229 0.484849 0.594013
Si Si7 0.334177 0.077730 0.872572
Si Si8 0.250000 0.500000 0.000000
O O1 0.685338 0.750000 0.427936
O O2 0.750000 0.851857 0.500000
O O3 0.754656 0.826024 0.331443
O O4 0.671567 0.896837 0.393689
O O5 0.594462 0.384594 0.233209
O O6 0.700560 0.390884 0.202291
O O7 0.652164 0.463866 0.338047
O O8 0.643248 0.508318 0.180397
O O9 0.500000 0.899116 0.050394
O O10 0.389803 0.886168 0.084906
O O11 0.424703 0.867006 0.931527
O O12 0.426748 0.000000 0.000000
O O13 0.500000 0.665089 0.813116
O O14 0.411793 0.750000 0.835097
O O15 0.736543 0.750000 0.810489
O O16 0.806806 0.637842 0.808540
O O17 0.340053 0.500000 0.500000
O O18 0.250000 0.500000 0.603976
O O19 0.288902 0.053560 0.943410
#
# Coordination Sequence:
#
# PCOD8278297 Si02
#       8
#    16  16  16  16  16  16  16   4
#     4  10  18  30  48  73 108 145 176 212 259 313
#     4  12  19  34  54  76 107 142 180 219 266 327
#     4  10  20  36  57  79 100 135 185 227 265 319
#     4  10  22  39  58  81 107 136 177 231 282 323
#     4  11  22  33  47  75 111 141 174 214 262 322
#     4  11  18  31  51  78 109 145 181 217 259 317
#     4  12  21  34  53  75 105 141 178 219 269 328
#     4  12  20  32  48  68 102 144 178 198 276 324
#
# _framework density 17.308914000000001
#
# number of rings (size 3 to 8) (size 9 to 14) (size 15 to 20)
#    0.000    1.103    7.586    0.414    0.000    0.552 
#    0.000    1.034    0.000    0.414    0.000    0.000 
#    0.000    0.552    0.000    0.000    0.000    0.000 
#
# Total GULP energy -718894.030736 kJ/mol
# GULP energy per Si atom -12394.724668 kJ/mol
# Density = 1.726952 g / cm^3
# Si number density = 17.308914 Si / 1000 Ang^3
#
#
#
# Elastic Constant Matrix: (Units=GPa)
#
#
# Indices 1 2 3 4 5 6 
#
# 1 75.0291 32.4836 47.7232 0.0000 0.0000 0.0000
# 2 32.4836 131.4913 37.3016 0.0000 0.0000 0.0000
# 3 47.7232 37.3016 97.8721 0.0000 0.0000 0.0000
# 4 0.0000 0.0000 0.0000 25.3691 0.0000 0.0000
# 5 0.0000 0.0000 0.0000 0.0000 18.4608 0.0000
# 6 0.0000 0.0000 0.0000 0.0000 0.0000 21.9219
#
#
#
# Elastic Compliance Matrix: (Units=1/GPa)
#
#
# Indices 1 2 3 4 5 6 
#
# 1 0.019993 -0.002437 -0.008820 0.000000 0.000000 0.000000
# 2 -0.002437 0.008824 -0.002175 0.000000 0.000000 0.000000
# 3 -0.008820 -0.002175 0.015347 0.000000 0.000000 0.000000
# 4 0.000000 0.000000 0.000000 0.039418 0.000000 0.000000
# 5 0.000000 0.000000 0.000000 0.000000 0.054169 0.000000
# 6 0.000000 0.000000 0.000000 0.000000 0.000000 0.045617
#
#
# Mechanical properties :
#
#
# Convention : Reuss Voigt Hill
#
# Bulk Modulus (GPa) = 57.80134 59.93437 58.86786
# Shear Modulus (GPa) = 23.14828 25.60928 24.37878
#
# Velocity S-wave (km/s) = 3.66096 3.85066 3.75701
# Velocity P-wave (km/s) = 7.16496 7.38048 7.27352
#
# Compressibility (1/GPa) = 0.01730064
#
# Stress axis : x y z
#
# Youngs Moduli (GPa) = 50.01640 113.32657 65.15912
#
# Poissons Ratio (x) = 0.27618 0.57471
# Poissons Ratio (y) = 0.12189 0.14170
# Poissons Ratio (z) = 0.44115 0.24646
#
# Static dielectric constant tensor:
#      x y z
#    x 3.028500 0.000000 0.000000 
#    y 0.000000 3.611040 0.000000 
#    z 0.000000 0.000000 3.284090 
# 
# 
# High freq. dielectric constant tensor:
#      x y z
#    x 1.623830 0.000000 0.000000 
#    y 0.000000 1.686430 0.000000 
#    z 0.000000 0.000000 1.668250 
# 
# From -- ./inp_files/30285.got.cif
#   From: 2010.03.12/outbox.cif.g09.slc.cpg/sg67_16_cif.got.tgz:30285.got - 2010.04.10 22:41:39.
