data_PCOD8278149
_publ_section_title
;
Structure prediction by ZEFSAII (Michael W. Deem and Ramdas Pophale) SiO2 
 PCOD8278149
Probable space group: C M M A
;
_chemical_formula_sum "Si O2"
_cell_formula_units_Z 80
_cell_length_a 15.954854
_cell_length_b 19.937196
_cell_length_c 13.666541
_cell_angle_alpha 90.000000
_cell_angle_beta 90.000000
_cell_angle_gamma 90.000000
_cell_volume 4347.259061
_symmetry_space_group_name_H-M "C M M A"
_symmetry_group_IT_number 67
_symmetry_cell_setting 'orthorhombic'
loop_
_space_group_symop_operation_xyz
x,y,z
-x,1/2-y,z
x,-y,-z
-x,1/2+y,-z
-x,-y,-z
x,1/2+y,-z
-x,y,z
x,1/2-y,z
1/2+x,1/2+y,z
1/2-x,-y,z
1/2+x,1/2-y,-z
1/2-x,y,-z
1/2-x,1/2-y,-z
1/2+x,y,-z
1/2-x,1/2+y,z
1/2+x,-y,z
loop_
_atom_site_type_symbol
_atom_site_label
_atom_site_fract_x
_atom_site_fract_y
_atom_site_fract_z
Si Si1 0.261305 0.574460 0.251247
Si Si2 0.500000 0.175701 0.175610
Si Si3 0.314282 0.329254 0.412674
Si Si4 0.131595 0.919613 0.091190
Si Si5 0.000000 0.175872 0.593120
Si Si6 0.592674 0.932464 0.122885
O O1 0.250000 0.500000 0.298862
O O2 0.222386 0.630761 0.320495
O O3 0.221087 0.575341 0.143031
O O4 0.358436 0.588428 0.222919
O O5 0.500000 0.250000 0.133091
O O6 0.416240 0.141903 0.138575
O O7 0.500000 0.175353 0.291439
O O8 0.318640 0.250000 0.386137
O O9 0.250000 0.343252 0.500000
O O10 0.409351 0.356234 0.439872
O O11 0.081726 0.987547 0.115331
O O12 0.139841 0.906866 0.975145
O O13 0.000000 0.250000 0.548067
O O14 0.500000 0.900271 0.129382
#
# Coordination Sequence:
#
# PCOD8278149 Si02
#       6
#    16   8  16  16   8  16
#     4  10  21  33  54  81 110 139 178 229 269 311
#     4  11  18  27  53  81 103 136 182 225 257 298
#     4  10  21  39  61  82 107 139 178 222 274 332
#     4  10  17  32  51  76 106 142 181 220 259 306
#     4   9  18  34  59  82 100 134 179 221 265 318
#     4  10  18  31  51  75 107 147 182 213 259 321
#
# _framework density 18.4024
#
# number of rings (size 3 to 8) (size 9 to 14) (size 15 to 20)
#    0.000    2.000    4.000    1.200    0.000    2.800 
#    1.800    1.000    0.000    3.600    0.000    0.000 
#    0.000    0.000    0.000    0.000    0.000    0.000 
#
# Total GULP energy -495531.907124 kJ/mol
# GULP energy per Si atom -12388.297678 kJ/mol
# Density = 1.836052 g / cm^3
# Si number density = 18.402400 Si / 1000 Ang^3
#
#
#
# Elastic Constant Matrix: (Units=GPa)
#
#
# Indices 1 2 3 4 5 6 
#
# 1 124.1466 31.7447 58.5453 0.0000 0.0000 0.0000
# 2 31.7447 54.8246 21.6099 0.0000 0.0000 0.0000
# 3 58.5453 21.6099 67.5429 0.0000 0.0000 0.0000
# 4 0.0000 0.0000 0.0000 22.7772 0.0000 0.0000
# 5 0.0000 0.0000 0.0000 0.0000 32.6029 0.0000
# 6 0.0000 0.0000 0.0000 0.0000 0.0000 23.3400
#
#
#
# Elastic Compliance Matrix: (Units=1/GPa)
#
#
# Indices 1 2 3 4 5 6 
#
# 1 0.014313 -0.003888 -0.011163 0.000000 0.000000 0.000000
# 2 -0.003888 0.021928 -0.003646 0.000000 0.000000 0.000000
# 3 -0.011163 -0.003646 0.025647 0.000000 0.000000 0.000000
# 4 0.000000 0.000000 0.000000 0.043903 0.000000 0.000000
# 5 0.000000 0.000000 0.000000 0.000000 0.030672 0.000000
# 6 0.000000 0.000000 0.000000 0.000000 0.000000 0.042845
#
#
# Mechanical properties :
#
#
# Convention : Reuss Voigt Hill
#
# Bulk Modulus (GPa) = 40.82253 52.25709 46.53981
# Shear Modulus (GPa) = 22.23533 24.71832 23.47683
#
# Velocity S-wave (km/s) = 3.47981 3.66896 3.57564
# Velocity P-wave (km/s) = 6.19491 6.81226 6.51090
#
# Compressibility (1/GPa) = 0.02449628
#
# Stress axis : x y z
#
# Youngs Moduli (GPa) = 69.86555 45.60344 38.99016
#
# Poissons Ratio (x) = 0.17730 0.43523
# Poissons Ratio (y) = 0.27162 0.14215
# Poissons Ratio (z) = 0.77988 0.16627
#
# Static dielectric constant tensor:
#      x y z
#    x 3.581470 0.000000 0.000000 
#    y 0.000000 3.238630 0.000000 
#    z 0.000000 0.000000 3.159050 
# 
# 
# High freq. dielectric constant tensor:
#      x y z
#    x 1.734080 0.000000 0.000000 
#    y 0.000000 1.679590 0.000000 
#    z 0.000000 0.000000 1.690020 
# 
# From -- ./inp_files/19349.got.cif
#   From: 2010.03.12/outbox.cif.g09.slc.cpg/sg67_10_cif.got.tgz:19349.got - 2010.04.10 22:41:39.
