data_PCOD8278923
_publ_section_title
;
Structure prediction by ZEFSAII (Michael W. Deem and Ramdas Pophale) SiO2 
 PCOD8278923
Probable space group: C M M A
;
_chemical_formula_sum "Si O2"
_cell_formula_units_Z 64
_cell_length_a 30.400983
_cell_length_b 8.862027
_cell_length_c 14.118459
_cell_angle_alpha 90.000000
_cell_angle_beta 90.000000
_cell_angle_gamma 90.000000
_cell_volume 3803.715203
_symmetry_space_group_name_H-M "C M M A"
_symmetry_group_IT_number 67
_symmetry_cell_setting 'orthorhombic'
loop_
_space_group_symop_operation_xyz
x,y,z
-x,1/2-y,z
x,-y,-z
-x,1/2+y,-z
-x,-y,-z
x,1/2+y,-z
-x,y,z
x,1/2-y,z
1/2+x,1/2+y,z
1/2-x,-y,z
1/2+x,1/2-y,-z
1/2-x,y,-z
1/2-x,1/2-y,-z
1/2+x,y,-z
1/2-x,1/2+y,z
1/2+x,-y,z
loop_
_atom_site_type_symbol
_atom_site_label
_atom_site_fract_x
_atom_site_fract_y
_atom_site_fract_z
Si Si1 0.381369 0.428758 0.733986
Si Si2 0.051443 0.924865 0.402004
Si Si3 0.843623 0.579958 0.097856
Si Si4 0.794727 0.579881 0.277964
O O1 0.382061 0.250000 0.732764
O O2 0.424332 0.492972 0.683765
O O3 0.381251 0.489532 0.842942
O O4 0.337108 0.489649 0.680495
O O5 0.064509 0.750000 0.404751
O O6 0.000000 0.948763 0.384612
O O7 0.066479 0.000000 0.500000
O O8 0.860163 0.750000 0.078704
O O9 0.799406 0.581221 0.162878
O O10 0.832512 0.500000 0.000000
O O11 0.794818 0.750000 0.318276
O O12 0.750000 0.500000 0.309663
#
# Coordination Sequence:
#
# PCOD8278923 Si02
#       4
#    16  16  16  16
#     4  10  19  32  50  72 102 135 166 204 249 295
#     4  10  20  35  56  81 105 127 158 201 249 299
#     4   9  18  30  46  69  99 133 172 211 248 292
#     4   9  18  30  46  69  99 133 172 211 248 291
#
# _framework density 16.825655000000001
#
# number of rings (size 3 to 8) (size 9 to 14) (size 15 to 20)
#    1.500    1.000    0.000    3.750    0.000    2.000 
#    0.000    2.500    0.000    1.500    0.000    5.250 
#    0.000    0.000    0.000    0.000    0.000    0.000 
#
# Total GULP energy -396493.088593 kJ/mol
# GULP energy per Si atom -12390.409019 kJ/mol
# Density = 1.678736 g / cm^3
# Si number density = 16.825655 Si / 1000 Ang^3
#
#
#
# Elastic Constant Matrix: (Units=GPa)
#
#
# Indices 1 2 3 4 5 6 
#
# 1 53.5156 39.8662 13.6231 0.0000 0.0000 0.0000
# 2 39.8662 160.0866 14.7932 0.0000 0.0000 0.0000
# 3 13.6231 14.7932 11.1341 0.0000 0.0000 0.0000
# 4 0.0000 0.0000 0.0000 28.9017 0.0000 0.0000
# 5 0.0000 0.0000 0.0000 0.0000 18.0035 0.0000
# 6 0.0000 0.0000 0.0000 0.0000 0.0000 31.5886
#
#
#
# Elastic Compliance Matrix: (Units=1/GPa)
#
#
# Indices 1 2 3 4 5 6 
#
# 1 0.029874 -0.004630 -0.030401 0.000000 0.000000 0.000000
# 2 -0.004630 0.007839 -0.004749 0.000000 0.000000 0.000000
# 3 -0.030401 -0.004749 0.133321 0.000000 0.000000 0.000000
# 4 0.000000 0.000000 0.000000 0.034600 0.000000 0.000000
# 5 0.000000 0.000000 0.000000 0.000000 0.055545 0.000000
# 6 0.000000 0.000000 0.000000 0.000000 0.000000 0.031657
#
#
# Mechanical properties :
#
#
# Convention : Reuss Voigt Hill
#
# Bulk Modulus (GPa) = 10.93212 40.14456 25.53834
# Shear Modulus (GPa) = 12.41042 26.12901 19.26972
#
# Velocity S-wave (km/s) = 2.71881 3.94499 3.38784
# Velocity P-wave (km/s) = 4.04565 6.68293 5.52399
#
# Compressibility (1/GPa) = 0.09147355
#
# Stress axis : x y z
#
# Youngs Moduli (GPa) = 33.47351 127.57430 7.50070
#
# Poissons Ratio (x) = 0.59071 0.22803
# Poissons Ratio (y) = 0.15499 0.03562
# Poissons Ratio (z) = 1.01761 0.60587
#
# Static dielectric constant tensor:
#      x y z
#    x 2.888780 0.000000 0.000000 
#    y 0.000000 3.301650 0.000000 
#    z 0.000000 0.000000 2.846570 
# 
# 
# High freq. dielectric constant tensor:
#      x y z
#    x 1.625180 0.000000 0.000000 
#    y 0.000000 1.673440 0.000000 
#    z 0.000000 0.000000 1.616480 
# 
# From -- ./inp_files/30958.got.cif
#   From: 2010.03.12/outbox.cif.g09.slc.cpg/sg67_16_cif.got.tgz:30958.got - 2010.04.10 22:41:39.
