data_PCOD8278819
_publ_section_title
;
Structure prediction by ZEFSAII (Michael W. Deem and Ramdas Pophale) SiO2 
 PCOD8278819
Probable space group: C M M A
;
_chemical_formula_sum "Si O2"
_cell_formula_units_Z 104
_cell_length_a 20.138827
_cell_length_b 9.438975
_cell_length_c 28.219853
_cell_angle_alpha 90.000000
_cell_angle_beta 90.000000
_cell_angle_gamma 90.000000
_cell_volume 5364.308600
_symmetry_space_group_name_H-M "C M M A"
_symmetry_group_IT_number 67
_symmetry_cell_setting 'orthorhombic'
loop_
_space_group_symop_operation_xyz
x,y,z
-x,1/2-y,z
x,-y,-z
-x,1/2+y,-z
-x,-y,-z
x,1/2+y,-z
-x,y,z
x,1/2-y,z
1/2+x,1/2+y,z
1/2-x,-y,z
1/2+x,1/2-y,-z
1/2-x,y,-z
1/2-x,1/2-y,-z
1/2+x,y,-z
1/2-x,1/2+y,z
1/2+x,-y,z
loop_
_atom_site_type_symbol
_atom_site_label
_atom_site_fract_x
_atom_site_fract_y
_atom_site_fract_z
Si Si1 0.074439 0.081570 0.229758
Si Si2 0.126029 0.497545 0.401764
Si Si3 0.926778 0.582406 0.876239
Si Si4 0.695722 0.250000 0.434402
Si Si5 0.182618 0.422936 0.048490
Si Si6 0.344108 0.250000 0.533958
Si Si7 0.818673 0.086289 0.304429
Si Si8 0.000000 0.407763 0.548513
O O1 0.075143 0.250000 0.232290
O O2 0.090712 0.027422 0.176562
O O3 0.132796 0.022828 0.263726
O O4 0.000000 0.028635 0.244523
O O5 0.186600 0.609689 0.403352
O O6 0.124512 0.389225 0.445049
O O7 0.136174 0.421001 0.351769
O O8 0.057818 0.575291 0.412167
O O9 0.928178 0.750000 0.875177
O O10 0.872256 0.530882 0.913448
O O11 0.000000 0.525983 0.891290
O O12 0.642469 0.250000 0.477716
O O13 0.767307 0.250000 0.455395
O O14 0.190217 0.250000 0.043154
O O15 0.250000 0.500000 0.065505
O O16 0.160791 0.500000 0.000000
O O17 0.800055 0.250000 0.295541
O O18 0.750000 0.000000 0.305961
O O19 0.000000 0.500000 0.500000
O O20 0.000000 0.250000 0.527817
#
# Coordination Sequence:
#
# PCOD8278819 Si02
#       8
#    16  16  16   8  16   8  16   8
#     4   8  16  34  59  84 114 146 190 239 286 339
#     4  12  25  40  61  85 118 147 185 226 275 328
#     4   8  15  30  53  80 109 147 191 241 289 339
#     4  11  22  39  63  83 115 146 185 221 276 325
#     4  10  19  31  49  76 112 153 195 238 288 339
#     4  11  22  39  61  89 111 150 181 227 268 327
#     4  11  24  40  63  90 118 151 188 234 285 336
#     4  12  28  46  66  88 116 152 186 226 277 334
#
# _framework density 19.3874
#
# number of rings (size 3 to 8) (size 9 to 14) (size 15 to 20)
#    0.000    1.846    1.538    4.615    3.231    2.154 
#    0.000    0.000    0.000    2.308    0.000    4.308 
#    0.000    0.000    0.000    0.000    0.000    0.000 
#
# Total GULP energy -644251.569331 kJ/mol
# GULP energy per Si atom -12389.453256 kJ/mol
# Density = 1.934327 g / cm^3
# Si number density = 19.387400 Si / 1000 Ang^3
#
#
#
# Elastic Constant Matrix: (Units=GPa)
#
#
# Indices 1 2 3 4 5 6 
#
# 1 117.3460 27.0954 75.9035 0.0000 0.0000 0.0000
# 2 27.0954 82.2853 19.4447 0.0000 0.0000 0.0000
# 3 75.9035 19.4447 110.7025 0.0000 0.0000 0.0000
# 4 0.0000 0.0000 0.0000 16.7114 0.0000 0.0000
# 5 0.0000 0.0000 0.0000 0.0000 37.6072 0.0000
# 6 0.0000 0.0000 0.0000 0.0000 0.0000 21.7597
#
#
#
# Elastic Compliance Matrix: (Units=1/GPa)
#
#
# Indices 1 2 3 4 5 6 
#
# 1 0.015898 -0.002774 -0.010413 0.000000 0.000000 0.000000
# 2 -0.002774 0.013163 -0.000410 0.000000 0.000000 0.000000
# 3 -0.010413 -0.000410 0.016245 0.000000 0.000000 0.000000
# 4 0.000000 0.000000 0.000000 0.059839 0.000000 0.000000
# 5 0.000000 0.000000 0.000000 0.000000 0.026591 0.000000
# 6 0.000000 0.000000 0.000000 0.000000 0.000000 0.045956
#
#
# Mechanical properties :
#
#
# Convention : Reuss Voigt Hill
#
# Bulk Modulus (GPa) = 55.21348 61.69120 58.45234
# Shear Modulus (GPa) = 23.70513 27.74169 25.72341
#
# Velocity S-wave (km/s) = 3.50052 3.78685 3.64649
# Velocity P-wave (km/s) = 6.69918 7.14210 6.92418
#
# Compressibility (1/GPa) = 0.01811152
#
# Stress axis : x y z
#
# Youngs Moduli (GPa) = 62.90086 75.96921 61.55711
#
# Poissons Ratio (x) = 0.21076 0.64101
# Poissons Ratio (y) = 0.17450 0.02523
# Poissons Ratio (z) = 0.65500 0.03114
#
# Static dielectric constant tensor:
#      x y z
#    x 3.618060 0.000000 0.000000 
#    y 0.000000 3.351010 0.000000 
#    z 0.000000 0.000000 3.767880 
# 
# 
# High freq. dielectric constant tensor:
#      x y z
#    x 1.767390 0.000000 0.000000 
#    y 0.000000 1.732020 0.000000 
#    z 0.000000 0.000000 1.748890 
# 
# From -- ./inp_files/45943.got.cif
#   From: 2010.03.12/outbox.cif.g09.slc.cpg/sg67_23_cif.got.tgz:45943.got - 2010.04.10 22:41:39.
