data_PCOD8278815
_publ_section_title
;
Structure prediction by ZEFSAII (Michael W. Deem and Ramdas Pophale) SiO2 
 PCOD8278815
Probable space group: C M M A
;
_chemical_formula_sum "Si O2"
_cell_formula_units_Z 104
_cell_length_a 26.797917
_cell_length_b 8.679887
_cell_length_c 24.130090
_cell_angle_alpha 90.000000
_cell_angle_beta 90.000000
_cell_angle_gamma 90.000000
_cell_volume 5612.728704
_symmetry_space_group_name_H-M "C M M A"
_symmetry_group_IT_number 67
_symmetry_cell_setting 'orthorhombic'
loop_
_space_group_symop_operation_xyz
x,y,z
-x,1/2-y,z
x,-y,-z
-x,1/2+y,-z
-x,-y,-z
x,1/2+y,-z
-x,y,z
x,1/2-y,z
1/2+x,1/2+y,z
1/2-x,-y,z
1/2+x,1/2-y,-z
1/2-x,y,-z
1/2-x,1/2-y,-z
1/2+x,y,-z
1/2-x,1/2+y,z
1/2+x,-y,z
loop_
_atom_site_type_symbol
_atom_site_label
_atom_site_fract_x
_atom_site_fract_y
_atom_site_fract_z
Si Si1 0.056034 0.423050 0.240718
Si Si2 0.388960 0.071326 0.333315
Si Si3 0.302362 0.067995 0.149018
Si Si4 0.943645 0.432130 0.557108
Si Si5 0.401144 0.927964 0.123423
Si Si6 0.500000 0.566073 0.060975
Si Si7 0.699357 0.568888 0.269853
O O1 0.065157 0.250000 0.263581
O O2 0.066893 0.545357 0.288942
O O3 0.091218 0.452910 0.188677
O O4 0.000000 0.443819 0.219445
O O5 0.373904 0.250000 0.334450
O O6 0.408080 0.013219 0.393007
O O7 0.342680 0.967014 0.315078
O O8 0.298470 0.250000 0.148381
O O9 0.250000 0.000000 0.126027
O O10 0.349021 0.015512 0.109978
O O11 0.312147 0.010728 0.211367
O O12 0.921863 0.500000 0.500000
O O13 0.944033 0.250000 0.553457
O O14 0.000000 0.494143 0.567179
O O15 0.394177 0.750000 0.107949
O O16 0.449282 0.995264 0.090662
O O17 0.500000 0.750000 0.061908
O O18 0.500000 0.500000 0.000000
O O19 0.703880 0.750000 0.259941
O O20 0.750000 0.500000 0.295080
#
# Coordination Sequence:
#
# PCOD8278815 Si02
#       7
#    16  16  16  16  16   8  16
#     4  10  19  31  49  75 107 144 180 216 269 328
#     4  11  21  33  50  76 107 139 175 221 274 322
#     4  11  21  34  54  82 113 149 187 229 279 336
#     4   9  19  35  53  73 101 136 176 220 264 315
#     4  10  19  35  56  80 113 151 187 230 276 324
#     4  10  22  40  62  86 118 158 197 236 277 326
#     4  11  21  34  51  74 106 142 178 218 266 326
#
# _framework density 18.529312000000001
#
# number of rings (size 3 to 8) (size 9 to 14) (size 15 to 20)
#    0.000    1.692    2.308    4.615    0.000    2.769 
#    0.000    1.538    0.000    0.923    0.000    6.462 
#    0.000    0.000    0.000    0.000    0.000    0.000 
#
# Total GULP energy -644706.746196 kJ/mol
# GULP energy per Si atom -12398.206658 kJ/mol
# Density = 1.848714 g / cm^3
# Si number density = 18.529312 Si / 1000 Ang^3
#
#
#
# Elastic Constant Matrix: (Units=GPa)
#
#
# Indices 1 2 3 4 5 6 
#
# 1 151.6900 46.8651 43.3957 0.0000 0.0000 0.0000
# 2 46.8651 85.4081 28.6823 0.0000 0.0000 0.0000
# 3 43.3957 28.6823 61.8369 0.0000 0.0000 0.0000
# 4 0.0000 0.0000 0.0000 25.3928 0.0000 0.0000
# 5 0.0000 0.0000 0.0000 0.0000 20.8468 0.0000
# 6 0.0000 0.0000 0.0000 0.0000 0.0000 29.9676
#
#
#
# Elastic Compliance Matrix: (Units=1/GPa)
#
#
# Indices 1 2 3 4 5 6 
#
# 1 0.008983 -0.003331 -0.004759 0.000000 0.000000 0.000000
# 2 -0.003331 0.015104 -0.004668 0.000000 0.000000 0.000000
# 3 -0.004759 -0.004668 0.021677 0.000000 0.000000 0.000000
# 4 0.000000 0.000000 0.000000 0.039381 0.000000 0.000000
# 5 0.000000 0.000000 0.000000 0.000000 0.047969 0.000000
# 6 0.000000 0.000000 0.000000 0.000000 0.000000 0.033369
#
#
# Mechanical properties :
#
#
# Convention : Reuss Voigt Hill
#
# Bulk Modulus (GPa) = 49.38952 59.64682 54.51817
# Shear Modulus (GPa) = 25.15741 27.24089 26.19915
#
# Velocity S-wave (km/s) = 3.68871 3.83841 3.76431
# Velocity P-wave (km/s) = 6.69737 7.20451 6.95556
#
# Compressibility (1/GPa) = 0.02024721
#
# Stress axis : x y z
#
# Youngs Moduli (GPa) = 111.32183 66.20787 46.13258
#
# Poissons Ratio (x) = 0.22053 0.21955
# Poissons Ratio (y) = 0.37080 0.21536
# Poissons Ratio (z) = 0.52978 0.30907
#
# Static dielectric constant tensor:
#      x y z
#    x 3.670930 0.000000 0.000000 
#    y 0.000000 3.364180 0.000000 
#    z 0.000000 0.000000 3.246400 
# 
# 
# High freq. dielectric constant tensor:
#      x y z
#    x 1.731570 0.000000 0.000000 
#    y 0.000000 1.716850 0.000000 
#    z 0.000000 0.000000 1.682670 
# 
# From -- ./inp_files/42746.got.cif
#   From: 2010.03.12/outbox.cif.g09.slc.cpg/sg67_22_cif.got.tgz:42746.got - 2010.04.10 22:41:39.
