data_PCOD8278745
_publ_section_title
;
Structure prediction by ZEFSAII (Michael W. Deem and Ramdas Pophale) SiO2 
 PCOD8278745
Probable space group: C M M A
;
_chemical_formula_sum "Si O2"
_cell_formula_units_Z 96
_cell_length_a 20.316300
_cell_length_b 8.725683
_cell_length_c 30.148480
_cell_angle_alpha 90.000000
_cell_angle_beta 90.000000
_cell_angle_gamma 90.000000
_cell_volume 5344.529389
_symmetry_space_group_name_H-M "C M M A"
_symmetry_group_IT_number 67
_symmetry_cell_setting 'orthorhombic'
loop_
_space_group_symop_operation_xyz
x,y,z
-x,1/2-y,z
x,-y,-z
-x,1/2+y,-z
-x,-y,-z
x,1/2+y,-z
-x,y,z
x,1/2-y,z
1/2+x,1/2+y,z
1/2-x,-y,z
1/2+x,1/2-y,-z
1/2-x,y,-z
1/2-x,1/2-y,-z
1/2+x,y,-z
1/2-x,1/2+y,z
1/2+x,-y,z
loop_
_atom_site_type_symbol
_atom_site_label
_atom_site_fract_x
_atom_site_fract_y
_atom_site_fract_z
Si Si1 0.318622 0.931681 0.783717
Si Si2 0.073265 0.067712 0.716400
Si Si3 0.681322 0.431165 0.115820
Si Si4 0.679998 0.933201 0.547477
Si Si5 0.574343 0.931327 0.953561
Si Si6 0.573318 0.931947 0.617414
O O1 0.314914 0.750000 0.780515
O O2 0.375559 0.999770 0.752083
O O3 0.333463 0.985479 0.833967
O O4 0.250000 0.000000 0.766807
O O5 0.074650 0.250000 0.717910
O O6 0.092267 0.010922 0.666896
O O7 0.000000 0.009317 0.728710
O O8 0.686739 0.250000 0.113095
O O9 0.750000 0.500000 0.098623
O O10 0.622247 0.493009 0.085048
O O11 0.683734 0.750000 0.545106
O O12 0.626148 0.994953 0.582387
O O13 0.659434 0.000000 0.500000
O O14 0.750000 0.000000 0.562708
O O15 0.500000 0.986201 0.942667
O O16 0.577734 0.750000 0.957028
O O17 0.598720 0.000000 0.000000
O O18 0.500000 0.991409 0.604860
O O19 0.573652 0.750000 0.616489
#
# Coordination Sequence:
#
# PCOD8278745 Si02
#       6
#    16  16  16  16  16  16
#     4   9  17  29  46  68  92 118 147 180 219 261
#     4   8  14  26  45  68  91 115 147 184 218 257
#     4   9  18  31  46  66  92 119 147 181 220 261
#     4  10  19  31  47  66  90 118 148 183 221 262
#     4   9  18  32  48  66  89 116 147 184 223 262
#     4   8  15  28  45  66  91 117 146 182 222 261
#
# _framework density 17.962291
#
# number of rings (size 3 to 8) (size 9 to 14) (size 15 to 20)
#    0.000    3.167    0.000    2.000    0.000    2.667 
#    0.000    5.000    0.000    3.000    0.000    9.333 
#    0.000    0.000    0.000    0.000    0.000    0.000 
#
# Total GULP energy -595019.405577 kJ/mol
# GULP energy per Si atom -12396.237616 kJ/mol
# Density = 1.792141 g / cm^3
# Si number density = 17.962291 Si / 1000 Ang^3
#
#
#
# Elastic Constant Matrix: (Units=GPa)
#
#
# Indices 1 2 3 4 5 6 
#
# 1 163.4694 20.3884 119.9755 0.0000 0.0000 0.0000
# 2 20.3884 19.3976 18.8027 0.0000 0.0000 0.0000
# 3 119.9755 18.8027 138.8345 0.0000 0.0000 0.0000
# 4 0.0000 0.0000 0.0000 16.5137 0.0000 0.0000
# 5 0.0000 0.0000 0.0000 0.0000 45.4073 0.0000
# 6 0.0000 0.0000 0.0000 0.0000 0.0000 22.8093
#
#
#
# Elastic Compliance Matrix: (Units=1/GPa)
#
#
# Indices 1 2 3 4 5 6 
#
# 1 0.017014 -0.004180 -0.014137 0.000000 0.000000 0.000000
# 2 -0.004180 0.060370 -0.004564 0.000000 0.000000 0.000000
# 3 -0.014137 -0.004564 0.020038 0.000000 0.000000 0.000000
# 4 0.000000 0.000000 0.000000 0.060556 0.000000 0.000000
# 5 0.000000 0.000000 0.000000 0.000000 0.022023 0.000000
# 6 0.000000 0.000000 0.000000 0.000000 0.000000 0.043842
#
#
# Mechanical properties :
#
#
# Convention : Reuss Voigt Hill
#
# Bulk Modulus (GPa) = 19.35725 71.11497 45.23611
# Shear Modulus (GPa) = 17.43229 27.78172 22.60700
#
# Velocity S-wave (km/s) = 3.11865 3.93704 3.55150
# Velocity P-wave (km/s) = 4.87524 7.76816 6.48507
#
# Compressibility (1/GPa) = 0.05166024
#
# Stress axis : x y z
#
# Youngs Moduli (GPa) = 58.77420 16.56449 49.90631
#
# Poissons Ratio (x) = 0.06924 0.70552
# Poissons Ratio (y) = 0.24567 0.22777
# Poissons Ratio (z) = 0.83089 0.07560
#
# Static dielectric constant tensor:
#      x y z
#    x 3.621500 0.000000 0.000000 
#    y 0.000000 2.927110 0.000000 
#    z 0.000000 0.000000 3.590050 
# 
# 
# High freq. dielectric constant tensor:
#      x y z
#    x 1.701820 0.000000 0.000000 
#    y 0.000000 1.658050 0.000000 
#    z 0.000000 0.000000 1.698690 
# 
# From -- ./inp_files/44567.got.cif
#   From: 2010.03.12/outbox.cif.g09.slc.cpg/sg67_23_cif.got.tgz:44567.got - 2010.04.10 22:41:39.
