data_PCOD8278177
_publ_section_title
;
Structure prediction by ZEFSAII (Michael W. Deem and Ramdas Pophale) SiO2 
 PCOD8278177
Probable space group: C M M A
;
_chemical_formula_sum "Si O2"
_cell_formula_units_Z 88
_cell_length_a 25.779968
_cell_length_b 9.048271
_cell_length_c 25.213778
_cell_angle_alpha 90.000000
_cell_angle_beta 90.000000
_cell_angle_gamma 90.000000
_cell_volume 5881.470162
_symmetry_space_group_name_H-M "C M M A"
_symmetry_group_IT_number 67
_symmetry_cell_setting 'orthorhombic'
loop_
_space_group_symop_operation_xyz
x,y,z
-x,1/2-y,z
x,-y,-z
-x,1/2+y,-z
-x,-y,-z
x,1/2+y,-z
-x,y,z
x,1/2-y,z
1/2+x,1/2+y,z
1/2-x,-y,z
1/2+x,1/2-y,-z
1/2-x,y,-z
1/2-x,1/2-y,-z
1/2+x,y,-z
1/2-x,1/2+y,z
1/2+x,-y,z
loop_
_atom_site_type_symbol
_atom_site_label
_atom_site_fract_x
_atom_site_fract_y
_atom_site_fract_z
Si Si1 0.500000 0.426070 0.056667
Si Si2 0.901464 0.924803 0.122529
Si Si3 0.438127 0.915587 0.448544
Si Si4 0.303201 0.572600 0.943945
Si Si5 0.441883 0.073737 0.231607
Si Si6 0.061923 0.584899 0.346726
O O1 0.500000 0.250000 0.050459
O O2 0.449322 0.484303 0.087729
O O3 0.500000 0.500000 0.000000
O O4 0.904985 0.750000 0.123100
O O5 0.847091 0.975937 0.097791
O O6 0.905928 0.984224 0.183218
O O7 0.500000 0.921477 0.448033
O O8 0.417191 0.750000 0.451751
O O9 0.416389 0.000000 0.500000
O O10 0.415767 0.986165 0.394467
O O11 0.298036 0.750000 0.949746
O O12 0.250000 0.500000 0.923059
O O13 0.318141 0.500000 0.000000
O O14 0.500000 0.013178 0.221742
O O15 0.443729 0.250000 0.233119
O O16 0.420299 0.019914 0.289143
O O17 0.083573 0.750000 0.355291
O O18 0.000000 0.587582 0.347535
#
# Coordination Sequence:
#
# PCOD8278177 Si02
#       6
#     8  16  16  16  16  16
#     4  10  18  28  42  60  82 102 123 154 193 236
#     4   9  16  26  42  62  80 100 127 159 194 233
#     4   9  15  21  29  41  60  86 118 156 191 220
#     4  10  19  31  46  62  79 101 129 161 196 235
#     4   8  12  21  37  56  75  94 121 155 188 226
#     4   8  13  20  32  48  64  85 114 148 184 221
#
# _framework density 14.962246
#
# number of rings (size 3 to 8) (size 9 to 14) (size 15 to 20)
#    0.000    3.091    0.909    3.273    0.000    2.182 
#    0.000    0.909    0.000    3.273    0.000    0.000 
#    0.000    0.000    0.000    0.000    0.000    0.909 
#
# Total GULP energy -545203.995071 kJ/mol
# GULP energy per Si atom -12390.999888 kJ/mol
# Density = 1.492819 g / cm^3
# Si number density = 14.962246 Si / 1000 Ang^3
#
#
#
# Elastic Constant Matrix: (Units=GPa)
#
#
# Indices 1 2 3 4 5 6 
#
# 1 61.3085 21.8929 55.2642 0.0000 0.0000 0.0000
# 2 21.8929 59.9360 47.9851 0.0000 0.0000 0.0000
# 3 55.2642 47.9851 169.4991 0.0000 0.0000 0.0000
# 4 0.0000 0.0000 0.0000 20.3108 0.0000 0.0000
# 5 0.0000 0.0000 0.0000 0.0000 11.2345 0.0000
# 6 0.0000 0.0000 0.0000 0.0000 0.0000 9.3421
#
#
#
# Elastic Compliance Matrix: (Units=1/GPa)
#
#
# Indices 1 2 3 4 5 6 
#
# 1 0.023558 -0.003175 -0.006782 0.000000 0.000000 0.000000
# 2 -0.003175 0.022002 -0.005194 0.000000 0.000000 0.000000
# 3 -0.006782 -0.005194 0.009581 0.000000 0.000000 0.000000
# 4 0.000000 0.000000 0.000000 0.049235 0.000000 0.000000
# 5 0.000000 0.000000 0.000000 0.000000 0.089012 0.000000
# 6 0.000000 0.000000 0.000000 0.000000 0.000000 0.107042
#
#
# Mechanical properties :
#
#
# Convention : Reuss Voigt Hill
#
# Bulk Modulus (GPa) = 40.25784 60.11423 50.18604
# Shear Modulus (GPa) = 14.74872 19.21759 16.98315
#
# Velocity S-wave (km/s) = 3.14304 3.58775 3.37273
# Velocity P-wave (km/s) = 6.33532 7.57807 6.98439
#
# Compressibility (1/GPa) = 0.02483988
#
# Stress axis : x y z
#
# Youngs Moduli (GPa) = 42.44782 45.44982 104.37019
#
# Poissons Ratio (x) = 0.14432 0.70785
# Poissons Ratio (y) = 0.13479 0.54205
# Poissons Ratio (z) = 0.28789 0.23604
#
# Static dielectric constant tensor:
#      x y z
#    x 2.573850 0.000000 0.000000 
#    y 0.000000 2.719440 0.000000 
#    z 0.000000 0.000000 3.319380 
# 
# 
# High freq. dielectric constant tensor:
#      x y z
#    x 1.507410 0.000000 0.000000 
#    y 0.000000 1.550480 0.000000 
#    z 0.000000 0.000000 1.589800 
# 
# From -- ./inp_files/42900.got.cif
#   From: 2010.03.12/outbox.cif.g09.slc.cpg/sg67_22_cif.got.tgz:42900.got - 2010.04.10 22:41:39.
