data_PCOD8278125
_publ_section_title
;
Structure prediction by ZEFSAII (Michael W. Deem and Ramdas Pophale) SiO2 
 PCOD8278125
Probable space group: C M M A
;
_chemical_formula_sum "Si O2"
_cell_formula_units_Z 72
_cell_length_a 24.877104
_cell_length_b 9.774670
_cell_length_c 18.337198
_cell_angle_alpha 90.000000
_cell_angle_beta 90.000000
_cell_angle_gamma 90.000000
_cell_volume 4458.973593
_symmetry_space_group_name_H-M "C M M A"
_symmetry_group_IT_number 67
_symmetry_cell_setting 'orthorhombic'
loop_
_space_group_symop_operation_xyz
x,y,z
-x,1/2-y,z
x,-y,-z
-x,1/2+y,-z
-x,-y,-z
x,1/2+y,-z
-x,y,z
x,1/2-y,z
1/2+x,1/2+y,z
1/2-x,-y,z
1/2+x,1/2-y,-z
1/2-x,y,-z
1/2-x,1/2-y,-z
1/2+x,y,-z
1/2-x,1/2+y,z
1/2+x,-y,z
loop_
_atom_site_type_symbol
_atom_site_label
_atom_site_fract_x
_atom_site_fract_y
_atom_site_fract_z
Si Si1 0.500000 0.410517 0.571465
Si Si2 0.936313 0.750000 0.085333
Si Si3 0.063747 0.250000 0.077232
Si Si4 0.196612 0.415283 0.430184
Si Si5 0.401841 0.407074 0.672466
Si Si6 0.936213 0.505184 0.823685
O O1 0.500000 0.250000 0.551188
O O2 0.500000 0.500000 0.500000
O O3 0.447520 0.453357 0.616408
O O4 0.916176 0.624691 0.132594
O O5 0.000000 0.750000 0.077366
O O6 0.910875 0.750000 0.004129
O O7 0.084199 0.122693 0.123056
O O8 0.000000 0.250000 0.069751
O O9 0.173459 0.500000 0.500000
O O10 0.205931 0.250000 0.446160
O O11 0.250000 0.500000 0.407863
O O12 0.155911 0.431266 0.363508
O O13 0.411537 0.250000 0.694044
O O14 0.405898 0.493774 0.746393
O O15 0.000000 0.511650 0.809177
#
# Coordination Sequence:
#
# PCOD8278125 Si02
#       6
#     8   8   8  16  16  16
#     4  10  20  34  48  68  95 129 166 192 229 287
#     4   9  18  28  38  68  99 128 165 205 232 274
#     4   9  16  26  48  62  89 136 171 193 230 286
#     4  10  20  36  55  74  95 122 162 207 250 290
#     4  10  19  32  51  70  97 131 164 195 234 294
#     4  10  17  29  45  66  99 132 165 195 239 281
#
# _framework density 16.147214999999999
#
# number of rings (size 3 to 8) (size 9 to 14) (size 15 to 20)
#    0.000    2.222    2.222    2.667    0.000    2.667 
#    6.000    0.000    0.000    0.000    0.000    0.000 
#    0.000    5.333    0.000    0.000    0.000    0.000 
#
# Total GULP energy -446087.520056 kJ/mol
# GULP energy per Si atom -12391.320002 kJ/mol
# Density = 1.611046 g / cm^3
# Si number density = 16.147215 Si / 1000 Ang^3
#
#
#
# Elastic Constant Matrix: (Units=GPa)
#
#
# Indices 1 2 3 4 5 6 
#
# 1 41.7062 27.6103 41.9444 0.0000 0.0000 0.0000
# 2 27.6103 123.4942 72.4551 0.0000 0.0000 0.0000
# 3 41.9444 72.4551 163.2252 0.0000 0.0000 0.0000
# 4 0.0000 0.0000 0.0000 45.0089 0.0000 0.0000
# 5 0.0000 0.0000 0.0000 0.0000 20.3028 0.0000
# 6 0.0000 0.0000 0.0000 0.0000 0.0000 18.5544
#
#
#
# Elastic Compliance Matrix: (Units=1/GPa)
#
#
# Indices 1 2 3 4 5 6 
#
# 1 0.033286 -0.003277 -0.007099 0.000000 0.000000 0.000000
# 2 -0.003277 0.011272 -0.004161 0.000000 0.000000 0.000000
# 3 -0.007099 -0.004161 0.009798 0.000000 0.000000 0.000000
# 4 0.000000 0.000000 0.000000 0.022218 0.000000 0.000000
# 5 0.000000 0.000000 0.000000 0.000000 0.049254 0.000000
# 6 0.000000 0.000000 0.000000 0.000000 0.000000 0.053896
#
#
# Mechanical properties :
#
#
# Convention : Reuss Voigt Hill
#
# Bulk Modulus (GPa) = 39.55506 68.04946 53.80226
# Shear Modulus (GPa) = 23.01758 29.20095 26.10927
#
# Velocity S-wave (km/s) = 3.77965 4.25717 4.02550
# Velocity P-wave (km/s) = 6.60283 8.14857 7.41609
#
# Compressibility (1/GPa) = 0.02528121
#
# Stress axis : x y z
#
# Youngs Moduli (GPa) = 30.04248 88.71767 102.06175
#
# Poissons Ratio (x) = 0.29072 0.72454
# Poissons Ratio (y) = 0.09845 0.42472
# Poissons Ratio (z) = 0.21327 0.36919
#
# Static dielectric constant tensor:
#      x y z
#    x 2.690950 0.000000 0.000000 
#    y 0.000000 3.234040 0.000000 
#    z 0.000000 0.000000 3.138570 
# 
# 
# High freq. dielectric constant tensor:
#      x y z
#    x 1.570280 0.000000 0.000000 
#    y 0.000000 1.628890 0.000000 
#    z 0.000000 0.000000 1.633020 
# 
# From -- ./inp_files/31009.got.cif
#   From: 2010.03.12/outbox.cif.g09.slc.cpg/sg67_16_cif.got.tgz:31009.got - 2010.04.10 22:41:39.
