data_PCOD8278814
_publ_section_title
;
Structure prediction by ZEFSAII (Michael W. Deem and Ramdas Pophale) SiO2 
 PCOD8278814
Probable space group: C M M A
;
_chemical_formula_sum "Si O2"
_cell_formula_units_Z 96
_cell_length_a 8.972562
_cell_length_b 30.160144
_cell_length_c 20.079169
_cell_angle_alpha 90.000000
_cell_angle_beta 90.000000
_cell_angle_gamma 90.000000
_cell_volume 5433.699460
_symmetry_space_group_name_H-M "C M M A"
_symmetry_group_IT_number 67
_symmetry_cell_setting 'orthorhombic'
loop_
_space_group_symop_operation_xyz
x,y,z
-x,1/2-y,z
x,-y,-z
-x,1/2+y,-z
-x,-y,-z
x,1/2+y,-z
-x,y,z
x,1/2-y,z
1/2+x,1/2+y,z
1/2-x,-y,z
1/2+x,1/2-y,-z
1/2-x,y,-z
1/2-x,1/2-y,-z
1/2+x,y,-z
1/2-x,1/2+y,z
1/2+x,-y,z
loop_
_atom_site_type_symbol
_atom_site_label
_atom_site_fract_x
_atom_site_fract_y
_atom_site_fract_z
Si Si1 0.823326 0.132959 0.182315
Si Si2 0.321328 0.861242 0.677028
Si Si3 0.336797 0.041687 0.332252
Si Si4 0.328247 0.302267 0.567930
Si Si5 0.167184 0.957117 0.174287
Si Si6 0.325521 0.699747 0.067027
O O1 0.746348 0.147813 0.250629
O O2 0.761715 0.086213 0.155478
O O3 0.776881 0.169856 0.128989
O O4 0.000000 0.129428 0.193017
O O5 0.500000 0.859288 0.681882
O O6 0.268280 0.909924 0.650484
O O7 0.259092 0.824155 0.628474
O O8 0.500000 0.038519 0.363658
O O9 0.342733 0.037568 0.253164
O O10 0.250000 0.000000 0.363832
O O11 0.500000 0.317540 0.566800
O O12 0.314422 0.250000 0.577740
O O13 0.250000 0.317687 0.500000
O O14 0.000000 0.953537 0.144591
O O15 0.250000 0.000000 0.143412
O O16 0.500000 0.697136 0.055425
O O17 0.273173 0.750000 0.082020
O O18 0.250000 0.681459 0.000000
#
# Coordination Sequence:
#
# PCOD8278814 Si02
#       6
#    16  16  16  16  16  16
#     4  10  19  31  49  75 105 134 166 207 253 297
#     4  10  20  33  50  76 106 134 168 208 249 294
#     4   8  15  26  42  66  96 128 161 197 237 284
#     4  10  21  37  56  76  99 131 169 207 251 304
#     4   9  16  27  44  68  98 131 166 203 246 296
#     4   9  19  35  53  72  96 129 168 207 249 301
#
# _framework density 17.667522000000002
#
# number of rings (size 3 to 8) (size 9 to 14) (size 15 to 20)
#    0.000    2.667    0.000    3.000    0.000    7.667 
#    0.000    1.667    0.000    1.000    0.000    7.000 
#    0.000    0.000    0.000    0.000    0.000    0.000 
#
# Total GULP energy -595061.899052 kJ/mol
# GULP energy per Si atom -12397.122897 kJ/mol
# Density = 1.762731 g / cm^3
# Si number density = 17.667522 Si / 1000 Ang^3
#
#
#
# Elastic Constant Matrix: (Units=GPa)
#
#
# Indices 1 2 3 4 5 6 
#
# 1 100.8580 51.2748 50.2041 0.0000 0.0000 0.0000
# 2 51.2748 93.0775 60.6859 0.0000 0.0000 0.0000
# 3 50.2041 60.6859 87.1429 0.0000 0.0000 0.0000
# 4 0.0000 0.0000 0.0000 0.4376 0.0000 0.0000
# 5 0.0000 0.0000 0.0000 0.0000 24.0751 0.0000
# 6 0.0000 0.0000 0.0000 0.0000 0.0000 32.6334
#
#
#
# Elastic Compliance Matrix: (Units=1/GPa)
#
#
# Indices 1 2 3 4 5 6 
#
# 1 0.014993 -0.004813 -0.005286 0.000000 0.000000 0.000000
# 2 -0.004813 0.021224 -0.012007 0.000000 0.000000 0.000000
# 3 -0.005286 -0.012007 0.022882 0.000000 0.000000 0.000000
# 4 0.000000 0.000000 0.000000 2.285408 0.000000 0.000000
# 5 0.000000 0.000000 0.000000 0.000000 0.041537 0.000000
# 6 0.000000 0.000000 0.000000 0.000000 0.000000 0.030643
#
#
# Mechanical properties :
#
#
# Convention : Reuss Voigt Hill
#
# Bulk Modulus (GPa) = 67.17332 67.26754 67.22043
# Shear Modulus (GPa) = 2.02769 19.35677 10.69223
#
# Velocity S-wave (km/s) = 1.07247 3.31360 2.46273
# Velocity P-wave (km/s) = 6.29579 7.26613 6.79829
#
# Compressibility (1/GPa) = 0.01488686
#
# Stress axis : x y z
#
# Youngs Moduli (GPa) = 66.69808 47.11683 43.70152
#
# Poissons Ratio (x) = 0.22677 0.23100
# Poissons Ratio (y) = 0.32102 0.52474
# Poissons Ratio (z) = 0.35256 0.56575
#
# Static dielectric constant tensor:
#      x y z
#    x 3.468640 0.000000 0.000000 
#    y 0.000000 3.519810 0.000000 
#    z 0.000000 0.000000 2.916570 
# 
# 
# High freq. dielectric constant tensor:
#      x y z
#    x 1.695700 0.000000 0.000000 
#    y 0.000000 1.692730 0.000000 
#    z 0.000000 0.000000 1.640660 
# 
# From -- ./inp_files/37198.got.cif
#   From: 2010.03.12/outbox.cif.g09.slc.cpg/sg67_19_cif.got.tgz:37198.got - 2010.04.10 22:41:39.
