data_PCOD8278633
_publ_section_title
;
Structure prediction by ZEFSAII (Michael W. Deem and Ramdas Pophale) SiO2 
 PCOD8278633
Probable space group: C M M A
;
_chemical_formula_sum "Si O2"
_cell_formula_units_Z 116
_cell_length_a 17.672179
_cell_length_b 25.692532
_cell_length_c 14.521798
_cell_angle_alpha 90.000000
_cell_angle_beta 90.000000
_cell_angle_gamma 90.000000
_cell_volume 6593.521085
_symmetry_space_group_name_H-M "C M M A"
_symmetry_group_IT_number 67
_symmetry_cell_setting 'orthorhombic'
loop_
_space_group_symop_operation_xyz
x,y,z
-x,1/2-y,z
x,-y,-z
-x,1/2+y,-z
-x,-y,-z
x,1/2+y,-z
-x,y,z
x,1/2-y,z
1/2+x,1/2+y,z
1/2-x,-y,z
1/2+x,1/2-y,-z
1/2-x,y,-z
1/2-x,1/2-y,-z
1/2+x,y,-z
1/2-x,1/2+y,z
1/2+x,-y,z
loop_
_atom_site_type_symbol
_atom_site_label
_atom_site_fract_x
_atom_site_fract_y
_atom_site_fract_z
Si Si1 0.274288 0.622195 0.265962
Si Si2 0.773523 0.311367 0.896969
Si Si3 0.087787 0.562423 0.670028
Si Si4 0.918486 0.309513 0.798254
Si Si5 0.178510 0.309542 0.616613
Si Si6 0.844001 0.547153 0.342688
Si Si7 0.250000 0.500000 0.500000
Si Si8 0.084321 0.614562 0.478657
O O1 0.276889 0.653666 0.170534
O O2 0.360196 0.602480 0.274167
O O3 0.254840 0.661388 0.350401
O O4 0.211642 0.574900 0.267893
O O5 0.761637 0.250000 0.874546
O O6 0.860515 0.328678 0.877651
O O7 0.750000 0.325064 0.000000
O O8 0.118138 0.505041 0.696311
O O9 0.100205 0.574185 0.561921
O O10 0.000000 0.568172 0.699353
O O11 0.934583 0.250000 0.817271
O O12 0.882235 0.316403 0.698127
O O13 0.000000 0.339109 0.804493
O O14 0.197163 0.250000 0.593011
O O15 0.143409 0.336961 0.525280
O O16 0.796364 0.538130 0.434888
O O17 0.909969 0.585063 0.379792
O O18 0.000000 0.637339 0.489403
#
# Coordination Sequence:
#
# PCOD8278633 Si02
#       8
#    16  16  16  16  16  16   4  16
#     4  10  19  33  53  75  97 127 168 206 252 309
#     4   9  18  34  56  79 103 130 161 202 250 306
#     4  11  21  33  47  68 101 136 169 207 248 292
#     4   8  13  24  44  70  97 123 154 197 249 292
#     4   9  18  30  47  69  98 134 169 212 257 295
#     4  11  18  30  50  72  98 130 171 218 256 287
#     4  12  16  28  50  72  96 128 174 216 248 284
#     4  10  19  29  45  71 100 133 173 210 248 293
#
# _framework density 17.593028
#
# number of rings (size 3 to 8) (size 9 to 14) (size 15 to 20)
#    0.000    2.207    2.759    2.069    0.000    3.586 
#    0.000    3.448    0.000    5.793    0.000    0.966 
#    0.000    0.000    0.000    0.000    0.000    0.000 
#
# Total GULP energy -718557.534082 kJ/mol
# GULP energy per Si atom -12388.923001 kJ/mol
# Density = 1.755299 g / cm^3
# Si number density = 17.593028 Si / 1000 Ang^3
#
#
#
# Elastic Constant Matrix: (Units=GPa)
#
#
# Indices 1 2 3 4 5 6 
#
# 1 99.8105 40.1839 30.8680 0.0000 0.0000 0.0000
# 2 40.1839 106.7063 24.1954 0.0000 0.0000 0.0000
# 3 30.8680 24.1954 61.0606 0.0000 0.0000 0.0000
# 4 0.0000 0.0000 0.0000 25.2688 0.0000 0.0000
# 5 0.0000 0.0000 0.0000 0.0000 18.3689 0.0000
# 6 0.0000 0.0000 0.0000 0.0000 0.0000 17.1482
#
#
#
# Elastic Compliance Matrix: (Units=1/GPa)
#
#
# Indices 1 2 3 4 5 6 
#
# 1 0.013130 -0.003779 -0.005140 0.000000 0.000000 0.000000
# 2 -0.003779 0.011384 -0.002601 0.000000 0.000000 0.000000
# 3 -0.005140 -0.002601 0.020006 0.000000 0.000000 0.000000
# 4 0.000000 0.000000 0.000000 0.039575 0.000000 0.000000
# 5 0.000000 0.000000 0.000000 0.000000 0.054440 0.000000
# 6 0.000000 0.000000 0.000000 0.000000 0.000000 0.058315
#
#
# Mechanical properties :
#
#
# Convention : Reuss Voigt Hill
#
# Bulk Modulus (GPa) = 46.55310 50.89688 48.72499
# Shear Modulus (GPa) = 22.02154 23.64585 22.83370
#
# Velocity S-wave (km/s) = 3.54180 3.67010 3.60652
# Velocity P-wave (km/s) = 6.57605 6.85219 6.71554
#
# Compressibility (1/GPa) = 0.02148085
#
# Stress axis : x y z
#
# Youngs Moduli (GPa) = 76.16072 87.83991 49.98448
#
# Poissons Ratio (x) = 0.33195 0.25693
# Poissons Ratio (y) = 0.28782 0.12999
# Poissons Ratio (z) = 0.39148 0.22844
#
# Static dielectric constant tensor:
#      x y z
#    x 2.546370 0.000000 0.000000 
#    y 0.000000 3.363150 0.000000 
#    z 0.000000 0.000000 2.872380 
# 
# 
# High freq. dielectric constant tensor:
#      x y z
#    x 1.684290 0.000000 0.000000 
#    y 0.000000 1.679440 0.000000 
#    z 0.000000 0.000000 1.625450 
# 
# From -- ./inp_files/28826.got.cif
#   From: 2010.03.12/outbox.cif.g09.slc.cpg/sg67_15_cif.got.tgz:28826.got - 2010.04.10 22:41:39.
