data_PCOD8278188
_publ_section_title
;
Structure prediction by ZEFSAII (Michael W. Deem and Ramdas Pophale) SiO2 
 PCOD8278188
Probable space group: C M M A
;
_chemical_formula_sum "Si O2"
_cell_formula_units_Z 88
_cell_length_a 8.883166
_cell_length_b 28.203318
_cell_length_c 19.284009
_cell_angle_alpha 90.000000
_cell_angle_beta 90.000000
_cell_angle_gamma 90.000000
_cell_volume 4831.314481
_symmetry_space_group_name_H-M "C M M A"
_symmetry_group_IT_number 67
_symmetry_cell_setting 'orthorhombic'
loop_
_space_group_symop_operation_xyz
x,y,z
-x,1/2-y,z
x,-y,-z
-x,1/2+y,-z
-x,-y,-z
x,1/2+y,-z
-x,y,z
x,1/2-y,z
1/2+x,1/2+y,z
1/2-x,-y,z
1/2+x,1/2-y,-z
1/2-x,y,-z
1/2-x,1/2-y,-z
1/2+x,y,-z
1/2-x,1/2+y,z
1/2+x,-y,z
loop_
_atom_site_type_symbol
_atom_site_label
_atom_site_fract_x
_atom_site_fract_y
_atom_site_fract_z
Si Si1 0.324181 0.304715 0.311437
Si Si2 0.820106 0.750000 0.075808
Si Si3 0.174667 0.049983 0.327516
Si Si4 0.826501 0.377976 0.216180
Si Si5 0.177491 0.364776 0.425273
Si Si6 0.825840 0.655997 0.927776
O O1 0.500000 0.312950 0.323284
O O2 0.287170 0.250000 0.296074
O O3 0.271704 0.334690 0.245006
O O4 0.238170 0.320696 0.380804
O O5 0.754452 0.701716 0.107866
O O6 0.000000 0.750000 0.078406
O O7 0.750000 0.750000 0.000000
O O8 0.221662 0.072817 0.253090
O O9 0.224229 0.086187 0.387838
O O10 0.000000 0.040023 0.330427
O O11 0.250000 0.000000 0.339675
O O12 0.807453 0.383552 0.132595
O O13 0.000000 0.366757 0.235494
O O14 0.250000 0.363889 0.500000
O O15 0.000000 0.359796 0.432156
O O16 0.000000 0.667187 0.943883
O O17 0.750000 0.639282 0.000000
#
# Coordination Sequence:
#
# PCOD8278188 Si02
#       6
#    16   8  16  16  16  16
#     4  10  21  35  52  77 106 138 178 218 255 299
#     4  10  18  28  42  64  96 130 167 206 247 298
#     4   9  19  36  56  79 103 131 167 210 260 313
#     4   9  20  36  53  74 103 138 175 213 259 313
#     4  10  21  37  56  79 108 139 173 211 253 304
#     4  10  19  32  49  71 100 136 174 215 260 306
#
# _framework density 18.214504999999999
#
# number of rings (size 3 to 8) (size 9 to 14) (size 15 to 20)
#    0.000    2.364    0.000    4.636    1.273    7.273 
#    0.000    1.818    0.000    0.545    0.000    3.818 
#    0.000    0.000    0.000    0.000    0.000    0.000 
#
# Total GULP energy -545367.270446 kJ/mol
# GULP energy per Si atom -12394.710692 kJ/mol
# Density = 1.817305 g / cm^3
# Si number density = 18.214505 Si / 1000 Ang^3
#
#
#
# Elastic Constant Matrix: (Units=GPa)
#
#
# Indices 1 2 3 4 5 6 
#
# 1 86.0642 26.6901 32.8571 0.0000 0.0000 0.0000
# 2 26.6901 62.1349 15.6752 0.0000 0.0000 0.0000
# 3 32.8571 15.6752 107.6829 0.0000 0.0000 0.0000
# 4 0.0000 0.0000 0.0000 13.0430 0.0000 0.0000
# 5 0.0000 0.0000 0.0000 0.0000 28.8811 0.0000
# 6 0.0000 0.0000 0.0000 0.0000 0.0000 28.2023
#
#
#
# Elastic Compliance Matrix: (Units=1/GPa)
#
#
# Indices 1 2 3 4 5 6 
#
# 1 0.014702 -0.005381 -0.003703 0.000000 0.000000 0.000000
# 2 -0.005381 0.018677 -0.001077 0.000000 0.000000 0.000000
# 3 -0.003703 -0.001077 0.010573 0.000000 0.000000 0.000000
# 4 0.000000 0.000000 0.000000 0.076669 0.000000 0.000000
# 5 0.000000 0.000000 0.000000 0.000000 0.034625 0.000000
# 6 0.000000 0.000000 0.000000 0.000000 0.000000 0.035458
#
#
# Mechanical properties :
#
#
# Convention : Reuss Voigt Hill
#
# Bulk Modulus (GPa) = 42.31765 45.14741 43.73253
# Shear Modulus (GPa) = 22.84128 26.06923 24.45525
#
# Velocity S-wave (km/s) = 3.54505 3.78727 3.66816
# Velocity P-wave (km/s) = 6.32771 6.63060 6.48092
#
# Compressibility (1/GPa) = 0.02363080
#
# Stress axis : x y z
#
# Youngs Moduli (GPa) = 68.02015 53.54147 94.58010
#
# Poissons Ratio (x) = 0.28811 0.35019
# Poissons Ratio (y) = 0.36602 0.10185
# Poissons Ratio (z) = 0.25185 0.05766
#
# Static dielectric constant tensor:
#      x y z
#    x 3.457430 0.000000 0.000000 
#    y 0.000000 3.838770 0.000000 
#    z 0.000000 0.000000 3.410910 
# 
# 
# High freq. dielectric constant tensor:
#      x y z
#    x 1.716370 0.000000 0.000000 
#    y 0.000000 1.679730 0.000000 
#    z 0.000000 0.000000 1.710720 
# 
# From -- ./inp_files/37191.got.cif
#   From: 2010.03.12/outbox.cif.g09.slc.cpg/sg67_19_cif.got.tgz:37191.got - 2010.04.10 22:41:39.
