data_PCOD8278661
_publ_section_title
;
Structure prediction by ZEFSAII (Michael W. Deem and Ramdas Pophale) SiO2 
 PCOD8278661
Probable space group: C M M A
;
_chemical_formula_sum "Si O2"
_cell_formula_units_Z 120
_cell_length_a 26.515669
_cell_length_b 9.031573
_cell_length_c 29.413261
_cell_angle_alpha 90.000000
_cell_angle_beta 90.000000
_cell_angle_gamma 90.000000
_cell_volume 7043.834807
_symmetry_space_group_name_H-M "C M M A"
_symmetry_group_IT_number 67
_symmetry_cell_setting 'orthorhombic'
loop_
_space_group_symop_operation_xyz
x,y,z
-x,1/2-y,z
x,-y,-z
-x,1/2+y,-z
-x,-y,-z
x,1/2+y,-z
-x,y,z
x,1/2-y,z
1/2+x,1/2+y,z
1/2-x,-y,z
1/2+x,1/2-y,-z
1/2-x,y,-z
1/2-x,1/2-y,-z
1/2+x,y,-z
1/2-x,1/2+y,z
1/2+x,-y,z
loop_
_atom_site_type_symbol
_atom_site_label
_atom_site_fract_x
_atom_site_fract_y
_atom_site_fract_z
Si Si1 0.699804 0.422679 0.121875
Si Si2 0.800290 0.924324 0.225470
Si Si3 0.611037 0.579587 0.274345
Si Si4 0.000000 0.926936 0.951108
Si Si5 0.941810 0.413834 0.184255
Si Si6 0.939911 0.917118 0.455759
Si Si7 0.590416 0.921890 0.898435
Si Si8 0.942288 0.424084 0.365791
O O1 0.711208 0.250000 0.121992
O O2 0.750000 0.500000 0.101324
O O3 0.689677 0.477870 0.173554
O O4 0.649787 0.455977 0.090972
O O5 0.794894 0.750000 0.228444
O O6 0.750000 0.000000 0.243981
O O7 0.843483 0.976505 0.259387
O O8 0.628716 0.750000 0.276950
O O9 0.566492 0.559343 0.237567
O O10 0.590254 0.524267 0.322620
O O11 0.000000 0.750000 0.954407
O O12 0.051664 0.977448 0.926660
O O13 0.000000 0.000000 0.000000
O O14 0.921302 0.250000 0.170464
O O15 0.914922 0.541082 0.154939
O O16 0.000000 0.423155 0.172648
O O17 0.919785 0.750000 0.456431
O O18 0.000000 0.923389 0.456638
O O19 0.917919 0.000000 0.500000
O O20 0.919814 0.996032 0.410218
O O21 0.577677 0.750000 0.907150
O O22 0.938380 0.250000 0.373813
O O23 0.000000 0.471457 0.357129
#
# Coordination Sequence:
#
# PCOD8278661 Si02
#       8
#    16  16  16   8  16  16  16  16
#     4   9  19  33  52  78 108 139 175 215 260 303
#     4  10  19  32  47  67  94 128 168 210 252 296
#     4  10  19  30  45  66  96 133 169 205 246 294
#     4  12  26  44  64  88 112 144 178 216 265 312
#     4  10  19  30  46  71 101 137 177 210 243 292
#     4   9  16  26  41  60  82 112 154 201 248 295
#     4  11  21  36  56  82 112 141 174 217 259 305
#     4   9  17  29  43  61  90 127 164 201 242 290
#
# _framework density 17.036173999999999
#
# number of rings (size 3 to 8) (size 9 to 14) (size 15 to 20)
#    0.000    2.133    2.000    2.200    0.000    5.333 
#    0.000    0.000    0.000    2.800    0.000    2.800 
#    0.000    0.533    0.000    5.600    0.000    2.667 
#
# Total GULP energy -743782.914093 kJ/mol
# GULP energy per Si atom -12396.381902 kJ/mol
# Density = 1.699740 g / cm^3
# Si number density = 17.036174 Si / 1000 Ang^3
#
#
#
# Elastic Constant Matrix: (Units=GPa)
#
#
# Indices 1 2 3 4 5 6 
#
# 1 96.5629 46.2410 37.8008 0.0000 0.0000 0.0000
# 2 46.2410 81.6144 39.3537 0.0000 0.0000 0.0000
# 3 37.8008 39.3537 82.6004 0.0000 0.0000 0.0000
# 4 0.0000 0.0000 0.0000 27.7491 0.0000 0.0000
# 5 0.0000 0.0000 0.0000 0.0000 10.9260 0.0000
# 6 0.0000 0.0000 0.0000 0.0000 0.0000 26.2554
#
#
#
# Elastic Compliance Matrix: (Units=1/GPa)
#
#
# Indices 1 2 3 4 5 6 
#
# 1 0.015018 -0.006744 -0.003660 0.000000 0.000000 0.000000
# 2 -0.006744 0.018936 -0.005935 0.000000 0.000000 0.000000
# 3 -0.003660 -0.005935 0.016609 0.000000 0.000000 0.000000
# 4 0.000000 0.000000 0.000000 0.036037 0.000000 0.000000
# 5 0.000000 0.000000 0.000000 0.000000 0.091525 0.000000
# 6 0.000000 0.000000 0.000000 0.000000 0.000000 0.038087
#
#
# Mechanical properties :
#
#
# Convention : Reuss Voigt Hill
#
# Bulk Modulus (GPa) = 55.91390 56.39652 56.15521
# Shear Modulus (GPa) = 19.61918 22.14491 20.88205
#
# Velocity S-wave (km/s) = 3.39723 3.60929 3.50487
# Velocity P-wave (km/s) = 6.94840 7.10951 7.02941
#
# Compressibility (1/GPa) = 0.01788464
#
# Stress axis : x y z
#
# Youngs Moduli (GPa) = 66.58575 52.80978 60.20835
#
# Poissons Ratio (x) = 0.35617 0.22034
# Poissons Ratio (y) = 0.44908 0.35735
# Poissons Ratio (z) = 0.24368 0.31344
#
# Static dielectric constant tensor:
#      x y z
#    x 3.135760 0.000000 0.000000 
#    y 0.000000 3.217530 0.000000 
#    z 0.000000 0.000000 3.128520 
# 
# 
# High freq. dielectric constant tensor:
#      x y z
#    x 1.636110 0.000000 0.000000 
#    y 0.000000 1.662850 0.000000 
#    z 0.000000 0.000000 1.636600 
# 
# From -- ./inp_files/44999.got.cif
#   From: 2010.03.12/outbox.cif.g09.slc.cpg/sg67_23_cif.got.tgz:44999.got - 2010.04.10 22:41:39.
