data_PCOD8278371
_publ_section_title
;
Structure prediction by ZEFSAII (Michael W. Deem and Ramdas Pophale) SiO2 
 PCOD8278371
Probable space group: C M M A
;
_chemical_formula_sum "Si O2"
_cell_formula_units_Z 88
_cell_length_a 25.206751
_cell_length_b 8.974610
_cell_length_c 25.168454
_cell_angle_alpha 90.000000
_cell_angle_beta 90.000000
_cell_angle_gamma 90.000000
_cell_volume 5693.626782
_symmetry_space_group_name_H-M "C M M A"
_symmetry_group_IT_number 67
_symmetry_cell_setting 'orthorhombic'
loop_
_space_group_symop_operation_xyz
x,y,z
-x,1/2-y,z
x,-y,-z
-x,1/2+y,-z
-x,-y,-z
x,1/2+y,-z
-x,y,z
x,1/2-y,z
1/2+x,1/2+y,z
1/2-x,-y,z
1/2+x,1/2-y,-z
1/2-x,y,-z
1/2-x,1/2-y,-z
1/2+x,y,-z
1/2-x,1/2+y,z
1/2+x,-y,z
loop_
_atom_site_type_symbol
_atom_site_label
_atom_site_fract_x
_atom_site_fract_y
_atom_site_fract_z
Si Si1 0.436730 0.583275 0.551817
Si Si2 0.563321 0.416189 0.654385
Si Si3 0.693791 0.571551 0.944792
Si Si4 0.395337 0.925621 0.120795
Si Si5 0.558752 0.073170 0.769600
Si Si6 0.000000 0.076249 0.056523
O O1 0.414273 0.500000 0.500000
O O2 0.500000 0.575427 0.552407
O O3 0.415568 0.750000 0.548531
O O4 0.413621 0.513806 0.606170
O O5 0.500000 0.414381 0.653364
O O6 0.585575 0.250000 0.646145
O O7 0.581324 0.481560 0.712153
O O8 0.698310 0.750000 0.949937
O O9 0.750000 0.500000 0.929463
O O10 0.652741 0.526257 0.899398
O O11 0.673565 0.500000 0.000000
O O12 0.382903 0.750000 0.114264
O O13 0.402451 0.972051 0.182472
O O14 0.448243 0.971211 0.089317
O O15 0.500000 0.005779 0.780033
O O16 0.553188 0.250000 0.767308
O O17 0.000000 0.250000 0.046146
O O18 0.000000 0.000000 0.000000
#
# Coordination Sequence:
#
# PCOD8278371 Si02
#       6
#    16  16  16  16  16   8
#     4   9  15  21  29  42  62  89 124 168 212 249
#     4   8  13  21  34  50  68  95 131 168 202 240
#     4  11  22  37  54  71  88 110 140 177 219 263
#     4  10  18  31  49  69  91 117 145 176 211 254
#     4   8  13  24  42  61  82 110 143 172 203 247
#     4  10  20  30  44  64  90 118 143 170 207 252
#
# _framework density 15.455878999999999
#
# number of rings (size 3 to 8) (size 9 to 14) (size 15 to 20)
#    0.000    2.727    0.909    4.364    0.000    4.364 
#    0.000    0.909    0.000    1.091    0.000    0.000 
#    0.000    0.000    0.000    0.000    0.000    0.909 
#
# Total GULP energy -545317.672705 kJ/mol
# GULP energy per Si atom -12393.583471 kJ/mol
# Density = 1.542070 g / cm^3
# Si number density = 15.455879 Si / 1000 Ang^3
#
#
#
# Elastic Constant Matrix: (Units=GPa)
#
#
# Indices 1 2 3 4 5 6 
#
# 1 43.5538 27.5835 42.3849 0.0000 0.0000 0.0000
# 2 27.5835 87.0271 60.2716 0.0000 0.0000 0.0000
# 3 42.3849 60.2716 163.4701 0.0000 0.0000 0.0000
# 4 0.0000 0.0000 0.0000 24.1483 0.0000 0.0000
# 5 0.0000 0.0000 0.0000 0.0000 8.5679 0.0000
# 6 0.0000 0.0000 0.0000 0.0000 0.0000 14.4353
#
#
#
# Elastic Compliance Matrix: (Units=1/GPa)
#
#
# Indices 1 2 3 4 5 6 
#
# 1 0.032940 -0.006077 -0.006300 0.000000 0.000000 0.000000
# 2 -0.006077 0.016552 -0.004527 0.000000 0.000000 0.000000
# 3 -0.006300 -0.004527 0.009420 0.000000 0.000000 0.000000
# 4 0.000000 0.000000 0.000000 0.041411 0.000000 0.000000
# 5 0.000000 0.000000 0.000000 0.000000 0.116715 0.000000
# 6 0.000000 0.000000 0.000000 0.000000 0.000000 0.069275
#
#
# Mechanical properties :
#
#
# Convention : Reuss Voigt Hill
#
# Bulk Modulus (GPa) = 39.83541 61.61453 50.72497
# Shear Modulus (GPa) = 15.22121 20.35102 17.78612
#
# Velocity S-wave (km/s) = 3.14158 3.63260 3.39598
# Velocity P-wave (km/s) = 6.24412 7.58589 6.94747
#
# Compressibility (1/GPa) = 0.02510329
#
# Stress axis : x y z
#
# Youngs Moduli (GPa) = 30.35832 60.41509 106.15766
#
# Poissons Ratio (x) = 0.36716 0.66880
# Poissons Ratio (y) = 0.18449 0.48058
# Poissons Ratio (z) = 0.19126 0.27350
#
# Static dielectric constant tensor:
#      x y z
#    x 2.495550 0.000000 0.000000 
#    y 0.000000 2.878370 0.000000 
#    z 0.000000 0.000000 3.355660 
# 
# 
# High freq. dielectric constant tensor:
#      x y z
#    x 1.524770 0.000000 0.000000 
#    y 0.000000 1.582380 0.000000 
#    z 0.000000 0.000000 1.609420 
# 
# From -- ./inp_files/44599.got.cif
#   From: 2010.03.12/outbox.cif.g09.slc.cpg/sg67_23_cif.got.tgz:44599.got - 2010.04.10 22:41:39.
