data_PCOD8278298
_publ_section_title
;
Structure prediction by ZEFSAII (Michael W. Deem and Ramdas Pophale) SiO2 
 PCOD8278298
Probable space group: C M M A
;
_chemical_formula_sum "Si O2"
_cell_formula_units_Z 104
_cell_length_a 30.260311
_cell_length_b 20.511074
_cell_length_c 8.883878
_cell_angle_alpha 90.000000
_cell_angle_beta 90.000000
_cell_angle_gamma 90.000000
_cell_volume 5513.969690
_symmetry_space_group_name_H-M "C M M A"
_symmetry_group_IT_number 67
_symmetry_cell_setting 'orthorhombic'
loop_
_space_group_symop_operation_xyz
x,y,z
-x,1/2-y,z
x,-y,-z
-x,1/2+y,-z
-x,-y,-z
x,1/2+y,-z
-x,y,z
x,1/2-y,z
1/2+x,1/2+y,z
1/2-x,-y,z
1/2+x,1/2-y,-z
1/2-x,y,-z
1/2-x,1/2-y,-z
1/2+x,y,-z
1/2-x,1/2+y,z
1/2+x,-y,z
loop_
_atom_site_type_symbol
_atom_site_label
_atom_site_fract_x
_atom_site_fract_y
_atom_site_fract_z
Si Si1 0.747522 0.172788 0.168945
Si Si2 0.165918 0.172690 0.330346
Si Si3 0.081615 0.674048 0.852826
Si Si4 0.500000 0.484149 0.173829
Si Si5 0.656504 0.172423 0.326339
Si Si6 0.070767 0.623172 0.180876
Si Si7 0.000000 0.123093 0.320063
Si Si8 0.000000 0.680194 0.371968
O O1 0.752009 0.250000 0.162901
O O2 0.788142 0.143938 0.266435
O O3 0.702102 0.152535 0.247278
O O4 0.750000 0.144023 0.000000
O O5 0.167236 0.250000 0.329492
O O6 0.126461 0.147738 0.223674
O O7 0.158632 0.149632 0.500981
O O8 0.085637 0.750000 0.893368
O O9 0.042555 0.661842 0.736572
O O10 0.071940 0.633819 0.002685
O O11 0.455102 0.444485 0.212630
O O12 0.500000 0.548297 0.273614
O O13 0.500000 0.500000 0.000000
O O14 0.646836 0.250000 0.307764
O O15 0.619993 0.127164 0.246638
O O16 0.042843 0.678454 0.265423
O O17 0.000000 0.124227 0.501404
O O18 0.000000 0.750000 0.455030
#
# Coordination Sequence:
#
# PCOD8278298 Si02
#       8
#    16  16  16   8  16  16   8   8
#     4   9  16  27  45  71 109 152 185 215 263 338
#     4   9  18  30  46  74 113 151 180 216 271 341
#     4  11  20  32  53  80 108 141 183 225 281 339
#     4  11  23  45  58  76 106 146 198 240 273 329
#     4  10  18  30  48  76 111 144 184 229 282 337
#     4  11  22  35  56  76 108 149 184 232 277 327
#     4  12  23  38  58  77 106 144 183 233 280 324
#     4  11  22  36  54  83 115 139 173 225 288 344
#
# _framework density 18.861184000000002
#
# number of rings (size 3 to 8) (size 9 to 14) (size 15 to 20)
#    0.000    1.692    1.538    4.846    0.000    6.769 
#    0.000    0.000    0.000    0.000    0.000    1.077 
#    0.000    2.462    0.000    0.000    0.000    0.000 
#
# Total GULP energy -644747.818467 kJ/mol
# GULP energy per Si atom -12398.996509 kJ/mol
# Density = 1.881826 g / cm^3
# Si number density = 18.861184 Si / 1000 Ang^3
#
#
#
# Elastic Constant Matrix: (Units=GPa)
#
#
# Indices 1 2 3 4 5 6 
#
# 1 155.2555 19.5942 55.8942 0.0000 0.0000 0.0000
# 2 19.5942 49.6296 18.1299 0.0000 0.0000 0.0000
# 3 55.8942 18.1299 135.6867 0.0000 0.0000 0.0000
# 4 0.0000 0.0000 0.0000 21.9088 0.0000 0.0000
# 5 0.0000 0.0000 0.0000 0.0000 32.8043 0.0000
# 6 0.0000 0.0000 0.0000 0.0000 0.0000 10.5352
#
#
#
# Elastic Compliance Matrix: (Units=1/GPa)
#
#
# Indices 1 2 3 4 5 6 
#
# 1 0.007745 -0.001989 -0.002925 0.000000 0.000000 0.000000
# 2 -0.001989 0.021694 -0.002079 0.000000 0.000000 0.000000
# 3 -0.002925 -0.002079 0.008852 0.000000 0.000000 0.000000
# 4 0.000000 0.000000 0.000000 0.045644 0.000000 0.000000
# 5 0.000000 0.000000 0.000000 0.000000 0.030484 0.000000
# 6 0.000000 0.000000 0.000000 0.000000 0.000000 0.094920
#
#
# Mechanical properties :
#
#
# Convention : Reuss Voigt Hill
#
# Bulk Modulus (GPa) = 41.14337 58.64541 49.89439
# Shear Modulus (GPa) = 21.60506 29.51323 25.55914
#
# Velocity S-wave (km/s) = 3.38816 3.96000 3.68519
# Velocity P-wave (km/s) = 6.09650 7.21592 6.67970
#
# Compressibility (1/GPa) = 0.02430525
#
# Stress axis : x y z
#
# Youngs Moduli (GPa) = 129.11596 46.09522 112.96262
#
# Poissons Ratio (x) = 0.09170 0.33037
# Poissons Ratio (y) = 0.25686 0.23487
# Poissons Ratio (z) = 0.37761 0.09584
#
# Static dielectric constant tensor:
#      x y z
#    x 3.695750 0.000000 0.000000 
#    y 0.000000 2.950460 0.000000 
#    z 0.000000 0.000000 3.651770 
# 
# 
# High freq. dielectric constant tensor:
#      x y z
#    x 1.748860 0.000000 0.000000 
#    y 0.000000 1.667890 0.000000 
#    z 0.000000 0.000000 1.753890 
# 
# From -- ./inp_files/13828.got.cif
#   From: 2010.03.12/outbox.cif.g09.slc.cpg/sg67_7_cif.got.tgz:13828.got - 2010.04.10 22:41:39.
