data_PCOD8278686
_publ_section_title
;
Structure prediction by ZEFSAII (Michael W. Deem and Ramdas Pophale) SiO2 
 PCOD8278686
Probable space group: C M M A
;
_chemical_formula_sum "Si O2"
_cell_formula_units_Z 120
_cell_length_a 9.075689
_cell_length_b 26.611951
_cell_length_c 29.708486
_cell_angle_alpha 90.000000
_cell_angle_beta 90.000000
_cell_angle_gamma 90.000000
_cell_volume 7175.246745
_symmetry_space_group_name_H-M "C M M A"
_symmetry_group_IT_number 67
_symmetry_cell_setting 'orthorhombic'
loop_
_space_group_symop_operation_xyz
x,y,z
-x,1/2-y,z
x,-y,-z
-x,1/2+y,-z
-x,-y,-z
x,1/2+y,-z
-x,y,z
x,1/2-y,z
1/2+x,1/2+y,z
1/2-x,-y,z
1/2+x,1/2-y,-z
1/2-x,y,-z
1/2-x,1/2-y,-z
1/2+x,y,-z
1/2-x,1/2+y,z
1/2+x,-y,z
loop_
_atom_site_type_symbol
_atom_site_label
_atom_site_fract_x
_atom_site_fract_y
_atom_site_fract_z
Si Si1 0.666054 0.310012 0.132147
Si Si2 0.833569 0.309876 0.043962
Si Si3 0.174157 0.750000 0.452239
Si Si4 0.337475 0.807766 0.217728
Si Si5 0.166246 0.451865 0.297710
Si Si6 0.333767 0.950706 0.404782
Si Si7 0.826636 0.852152 0.296174
Si Si8 0.827189 0.650274 0.399807
O O1 0.500000 0.331100 0.131495
O O2 0.663758 0.250000 0.132911
O O3 0.750638 0.330126 0.088172
O O4 0.747544 0.332326 0.176328
O O5 0.833833 0.250000 0.043614
O O6 0.000000 0.330641 0.043983
O O7 0.750000 0.330700 0.000000
O O8 0.250000 0.750000 0.500000
O O9 0.225451 0.799972 0.425904
O O10 0.000000 0.750000 0.458298
O O11 0.500000 0.832888 0.222167
O O12 0.358545 0.750000 0.206210
O O13 0.247301 0.810893 0.264346
O O14 0.250000 0.500000 0.277959
O O15 0.165376 0.453674 0.351355
O O16 0.258303 0.404717 0.280338
O O17 0.000000 0.449971 0.279008
O O18 0.500000 0.950550 0.423945
O O19 0.254398 0.898890 0.419799
O O20 0.250000 0.000000 0.424297
O O21 0.786062 0.840327 0.347776
O O22 0.000000 0.852778 0.288654
O O23 0.000000 0.640274 0.405334
#
# Coordination Sequence:
#
# PCOD8278686 Si02
#       8
#    16  16   8  16  16  16  16  16
#     4   9  16  26  38  51  69  98 137 177 219 267
#     4   9  15  22  33  49  68  91 124 171 222 267
#     4  10  22  40  58  76  98 128 160 194 233 278
#     4  10  20  31  41  56  82 115 148 185 225 264
#     4   9  16  27  43  64  92 119 146 178 215 258
#     4   9  16  27  47  74 102 127 153 184 225 270
#     4  10  19  30  47  68  90 117 150 184 220 262
#     4   9  19  34  52  73  98 125 156 191 230 273
#
# _framework density 16.724163999999998
#
# number of rings (size 3 to 8) (size 9 to 14) (size 15 to 20)
#    0.000    2.667    0.000    2.400    0.933    8.267 
#    0.000    0.000    0.000    0.400    0.000    2.800 
#    0.000    0.000    0.000    0.000    0.000    0.667 
#
# Total GULP energy -743850.200307 kJ/mol
# GULP energy per Si atom -12397.503338 kJ/mol
# Density = 1.668610 g / cm^3
# Si number density = 16.724164 Si / 1000 Ang^3
#
#
#
# Elastic Constant Matrix: (Units=GPa)
#
#
# Indices 1 2 3 4 5 6 
#
# 1 134.0642 41.0050 53.5651 0.0000 0.0000 0.0000
# 2 41.0050 74.1851 34.4298 0.0000 0.0000 0.0000
# 3 53.5651 34.4298 86.0652 0.0000 0.0000 0.0000
# 4 0.0000 0.0000 0.0000 1.6038 0.0000 0.0000
# 5 0.0000 0.0000 0.0000 0.0000 26.1097 0.0000
# 6 0.0000 0.0000 0.0000 0.0000 0.0000 24.5370
#
#
#
# Elastic Compliance Matrix: (Units=1/GPa)
#
#
# Indices 1 2 3 4 5 6 
#
# 1 0.010595 -0.003433 -0.005221 0.000000 0.000000 0.000000
# 2 -0.003433 0.017666 -0.004930 0.000000 0.000000 0.000000
# 3 -0.005221 -0.004930 0.016841 0.000000 0.000000 0.000000
# 4 0.000000 0.000000 0.000000 0.623512 0.000000 0.000000
# 5 0.000000 0.000000 0.000000 0.000000 0.038300 0.000000
# 6 0.000000 0.000000 0.000000 0.000000 0.000000 0.040755
#
#
# Mechanical properties :
#
#
# Convention : Reuss Voigt Hill
#
# Bulk Modulus (GPa) = 55.76325 61.36825 58.56575
# Shear Modulus (GPa) = 6.40357 21.47107 13.93732
#
# Velocity S-wave (km/s) = 1.95889 3.58695 2.88994
# Velocity P-wave (km/s) = 6.20739 7.34364 6.79929
#
# Compressibility (1/GPa) = 0.01793296
#
# Stress axis : x y z
#
# Youngs Moduli (GPa) = 94.38267 56.60686 59.38021
#
# Poissons Ratio (x) = 0.19435 0.31001
# Poissons Ratio (y) = 0.32405 0.29276
# Poissons Ratio (z) = 0.49274 0.27908
#
# Static dielectric constant tensor:
#      x y z
#    x 3.400130 0.000000 0.000000 
#    y 0.000000 2.895250 0.000000 
#    z 0.000000 0.000000 2.955150 
# 
# 
# High freq. dielectric constant tensor:
#      x y z
#    x 1.664410 0.000000 0.000000 
#    y 0.000000 1.598310 0.000000 
#    z 0.000000 0.000000 1.619800 
# 
# From -- ./inp_files/43945.got.cif
#   From: 2010.03.12/outbox.cif.g09.slc.cpg/sg67_22_cif.got.tgz:43945.got - 2010.04.10 22:41:39.
