data_PCOD8278945
_publ_section_title
;
Structure prediction by ZEFSAII (Michael W. Deem and Ramdas Pophale) SiO2 
 PCOD8278945
Probable space group: C M M A
;
_chemical_formula_sum "Si O2"
_cell_formula_units_Z 72
_cell_length_a 10.411793
_cell_length_b 21.874249
_cell_length_c 17.035181
_cell_angle_alpha 90.000000
_cell_angle_beta 90.000000
_cell_angle_gamma 90.000000
_cell_volume 3879.765073
_symmetry_space_group_name_H-M "C M M A"
_symmetry_group_IT_number 67
_symmetry_cell_setting 'orthorhombic'
loop_
_space_group_symop_operation_xyz
x,y,z
-x,1/2-y,z
x,-y,-z
-x,1/2+y,-z
-x,-y,-z
x,1/2+y,-z
-x,y,z
x,1/2-y,z
1/2+x,1/2+y,z
1/2-x,-y,z
1/2+x,1/2-y,-z
1/2-x,y,-z
1/2-x,1/2-y,-z
1/2+x,y,-z
1/2-x,1/2+y,z
1/2+x,-y,z
loop_
_atom_site_type_symbol
_atom_site_label
_atom_site_fract_x
_atom_site_fract_y
_atom_site_fract_z
Si Si1 0.855866 0.090749 0.781694
Si Si2 0.363429 0.065297 0.042820
Si Si3 0.646004 0.321121 0.721238
Si Si4 0.644385 0.108275 0.566043
Si Si5 0.750000 0.500000 0.340052
O O1 0.835397 0.057417 0.865038
O O2 0.748674 0.143383 0.774713
O O3 0.842802 0.040546 0.713816
O O4 0.000000 0.118656 0.775398
O O5 0.500000 0.099303 0.030687
O O6 0.250000 0.103919 0.000000
O O7 0.369164 0.000000 0.000000
O O8 0.500000 0.337563 0.747902
O O9 0.674116 0.250000 0.730818
O O10 0.664134 0.339035 0.630449
O O11 0.500000 0.111333 0.530349
O O12 0.750000 0.120123 0.500000
O O13 0.661123 0.041916 0.605303
#
# Coordination Sequence:
#
# PCOD8278945 Si02
#       5
#    16  16  16  16   8
#     4  10  20  33  53  81 108 137 176 218 256 300
#     4   9  17  29  46  72 106 138 166 198 240 292
#     4   9  20  39  58  75  99 134 175 218 267 318
#     4  10  21  34  50  73 101 134 171 212 259 313
#     4  10  19  32  51  72 106 142 172 206 257 318
#
# _framework density 18.557822999999999
#
# number of rings (size 3 to 8) (size 9 to 14) (size 15 to 20)
#    0.000    2.444    0.000    2.333    0.000    8.000 
#    0.000    0.000    0.000    0.667    0.000    0.000 
#    0.000    0.000    0.000    0.000    0.000    0.000 
#
# Total GULP energy -446124.023623 kJ/mol
# GULP energy per Si atom -12392.333990 kJ/mol
# Density = 1.851559 g / cm^3
# Si number density = 18.557823 Si / 1000 Ang^3
#
#
#
# Elastic Constant Matrix: (Units=GPa)
#
#
# Indices 1 2 3 4 5 6 
#
# 1 176.9003 44.4082 69.3502 0.0000 0.0000 0.0000
# 2 44.4082 78.9516 25.9203 0.0000 0.0000 0.0000
# 3 69.3502 25.9203 90.7527 0.0000 0.0000 0.0000
# 4 0.0000 0.0000 0.0000 10.7048 0.0000 0.0000
# 5 0.0000 0.0000 0.0000 0.0000 32.1462 0.0000
# 6 0.0000 0.0000 0.0000 0.0000 0.0000 20.0961
#
#
#
# Elastic Compliance Matrix: (Units=1/GPa)
#
#
# Indices 1 2 3 4 5 6 
#
# 1 0.008662 -0.002978 -0.005769 0.000000 0.000000 0.000000
# 2 -0.002978 0.015001 -0.002008 0.000000 0.000000 0.000000
# 3 -0.005769 -0.002008 0.016001 0.000000 0.000000 0.000000
# 4 0.000000 0.000000 0.000000 0.093416 0.000000 0.000000
# 5 0.000000 0.000000 0.000000 0.000000 0.031108 0.000000
# 6 0.000000 0.000000 0.000000 0.000000 0.000000 0.049761
#
#
# Mechanical properties :
#
#
# Convention : Reuss Voigt Hill
#
# Bulk Modulus (GPa) = 55.08829 69.55132 62.31980
# Shear Modulus (GPa) = 20.70308 26.38449 23.54378
#
# Velocity S-wave (km/s) = 3.34368 3.77469 3.56571
# Velocity P-wave (km/s) = 6.68252 7.52046 7.11384
#
# Compressibility (1/GPa) = 0.01815268
#
# Stress axis : x y z
#
# Youngs Moduli (GPa) = 115.44663 66.66399 62.49706
#
# Poissons Ratio (x) = 0.19855 0.36052
# Poissons Ratio (y) = 0.34383 0.12552
# Poissons Ratio (z) = 0.66596 0.13389
#
# Static dielectric constant tensor:
#      x y z
#    x 5.136380 0.000000 0.000000 
#    y 0.000000 3.071610 0.000000 
#    z 0.000000 0.000000 3.403670 
# 
# 
# High freq. dielectric constant tensor:
#      x y z
#    x 1.746640 0.000000 0.000000 
#    y 0.000000 1.676150 0.000000 
#    z 0.000000 0.000000 1.718090 
# 
# From -- ./inp_files/26020.got.cif
#   From: 2010.03.12/outbox.cif.g09.slc.cpg/sg67_14_cif.got.tgz:26020.got - 2010.04.10 22:41:39.
