data_PCOD8278928
_publ_section_title
;
Structure prediction by ZEFSAII (Michael W. Deem and Ramdas Pophale) SiO2 
 PCOD8278928
Probable space group: C M M A
;
_chemical_formula_sum "Si O2"
_cell_formula_units_Z 96
_cell_length_a 8.569997
_cell_length_b 27.539515
_cell_length_c 23.904585
_cell_angle_alpha 90.000000
_cell_angle_beta 90.000000
_cell_angle_gamma 90.000000
_cell_volume 5641.806228
_symmetry_space_group_name_H-M "C M M A"
_symmetry_group_IT_number 67
_symmetry_cell_setting 'orthorhombic'
loop_
_space_group_symop_operation_xyz
x,y,z
-x,1/2-y,z
x,-y,-z
-x,1/2+y,-z
-x,-y,-z
x,1/2+y,-z
-x,y,z
x,1/2-y,z
1/2+x,1/2+y,z
1/2-x,-y,z
1/2+x,1/2-y,-z
1/2-x,y,-z
1/2-x,1/2-y,-z
1/2+x,y,-z
1/2-x,1/2+y,z
1/2+x,-y,z
loop_
_atom_site_type_symbol
_atom_site_label
_atom_site_fract_x
_atom_site_fract_y
_atom_site_fract_z
Si Si1 0.684907 0.139420 0.667170
Si Si2 0.315841 0.448157 0.270544
Si Si3 0.315328 0.195140 0.558339
Si Si4 0.315309 0.103005 0.836575
Si Si5 0.816488 0.447803 0.940623
Si Si6 0.815752 0.696867 0.774815
O O1 0.500000 0.130182 0.668848
O O2 0.771613 0.089010 0.679905
O O3 0.743244 0.159900 0.607708
O O4 0.735227 0.178929 0.713490
O O5 0.500000 0.450123 0.262062
O O6 0.250000 0.500000 0.289152
O O7 0.236342 0.433499 0.212110
O O8 0.500000 0.195330 0.556520
O O9 0.252923 0.250000 0.568561
O O10 0.250000 0.174448 0.500000
O O11 0.500000 0.098601 0.843883
O O12 0.231068 0.091245 0.894421
O O13 0.261317 0.157747 0.820997
O O14 0.750000 0.500000 0.923060
O O15 0.000000 0.452070 0.945375
O O16 0.750000 0.430312 0.000000
O O17 0.740634 0.750000 0.786675
O O18 0.000000 0.701151 0.776666
#
# Coordination Sequence:
#
# PCOD8278928 Si02
#       6
#    16  16  16  16  16  16
#     4   9  17  30  48  70  96 126 160 196 236 281
#     4  11  21  33  49  70  96 125 158 195 238 284
#     4   9  17  29  47  71  99 130 162 196 235 281
#     4  10  19  32  50  73 100 128 159 194 234 279
#     4  11  21  34  51  72  98 126 159 196 238 284
#     4   8  14  26  47  72  95 122 157 194 231 274
#
# _framework density 17.015827000000002
#
# number of rings (size 3 to 8) (size 9 to 14) (size 15 to 20)
#    0.000    2.333    0.000    6.000    0.000    2.667 
#    0.000    0.000    0.000   17.500    0.000    3.500 
#    0.000    0.000    0.000    0.000    0.000    0.000 
#
# Total GULP energy -595165.613925 kJ/mol
# GULP energy per Si atom -12399.283623 kJ/mol
# Density = 1.697710 g / cm^3
# Si number density = 17.015827 Si / 1000 Ang^3
#
#
#
# Elastic Constant Matrix: (Units=GPa)
#
#
# Indices 1 2 3 4 5 6 
#
# 1 74.1353 28.2259 31.6678 0.0000 0.0000 0.0000
# 2 28.2259 128.8667 71.3625 0.0000 0.0000 0.0000
# 3 31.6678 71.3625 135.0379 0.0000 0.0000 0.0000
# 4 0.0000 0.0000 0.0000 26.3757 0.0000 0.0000
# 5 0.0000 0.0000 0.0000 0.0000 27.7678 0.0000
# 6 0.0000 0.0000 0.0000 0.0000 0.0000 19.5178
#
#
#
# Elastic Compliance Matrix: (Units=1/GPa)
#
#
# Indices 1 2 3 4 5 6 
#
# 1 0.015323 -0.001932 -0.002573 0.000000 0.000000 0.000000
# 2 -0.001932 0.011214 -0.005473 0.000000 0.000000 0.000000
# 3 -0.002573 -0.005473 0.010901 0.000000 0.000000 0.000000
# 4 0.000000 0.000000 0.000000 0.037914 0.000000 0.000000
# 5 0.000000 0.000000 0.000000 0.000000 0.036013 0.000000
# 6 0.000000 0.000000 0.000000 0.000000 0.000000 0.051235
#
#
# Mechanical properties :
#
#
# Convention : Reuss Voigt Hill
#
# Bulk Modulus (GPa) = 57.19749 66.72801 61.96275
# Shear Modulus (GPa) = 26.54172 28.51784 27.52978
#
# Velocity S-wave (km/s) = 3.95375 4.09829 4.02667
# Velocity P-wave (km/s) = 7.38445 7.85462 7.62316
#
# Compressibility (1/GPa) = 0.01748329
#
# Stress axis : x y z
#
# Youngs Moduli (GPa) = 65.26038 89.17498 91.73464
#
# Poissons Ratio (x) = 0.17225 0.23600
# Poissons Ratio (y) = 0.12606 0.50208
# Poissons Ratio (z) = 0.16789 0.48807
#
# Static dielectric constant tensor:
#      x y z
#    x 3.071640 0.000000 0.000000 
#    y 0.000000 3.270200 0.000000 
#    z 0.000000 0.000000 3.215670 
# 
# 
# High freq. dielectric constant tensor:
#      x y z
#    x 1.650140 0.000000 0.000000 
#    y 0.000000 1.649170 0.000000 
#    z 0.000000 0.000000 1.648040 
# 
# From -- ./inp_files/40794.got.cif
#   From: 2010.03.12/outbox.cif.g09.slc.cpg/sg67_21_cif.got.tgz:40794.got - 2010.04.10 22:41:39.
