data_PCOD8278172
_publ_section_title
;
Structure prediction by ZEFSAII (Michael W. Deem and Ramdas Pophale) SiO2 
 PCOD8278172
Probable space group: C M M A
;
_chemical_formula_sum "Si O2"
_cell_formula_units_Z 96
_cell_length_a 8.812082
_cell_length_b 27.754855
_cell_length_c 24.136562
_cell_angle_alpha 90.000000
_cell_angle_beta 90.000000
_cell_angle_gamma 90.000000
_cell_volume 5903.273465
_symmetry_space_group_name_H-M "C M M A"
_symmetry_group_IT_number 67
_symmetry_cell_setting 'orthorhombic'
loop_
_space_group_symop_operation_xyz
x,y,z
-x,1/2-y,z
x,-y,-z
-x,1/2+y,-z
-x,-y,-z
x,1/2+y,-z
-x,y,z
x,1/2-y,z
1/2+x,1/2+y,z
1/2-x,-y,z
1/2+x,1/2-y,-z
1/2-x,y,-z
1/2-x,1/2-y,-z
1/2+x,y,-z
1/2-x,1/2+y,z
1/2+x,-y,z
loop_
_atom_site_type_symbol
_atom_site_label
_atom_site_fract_x
_atom_site_fract_y
_atom_site_fract_z
Si Si1 0.679885 0.145415 0.833595
Si Si2 0.320002 0.603515 0.333492
Si Si3 0.320908 0.550549 0.224947
Si Si4 0.680887 0.803125 0.275532
Si Si5 0.179186 0.805255 0.943288
Si Si6 0.818774 0.947704 0.556688
O O1 0.500000 0.149515 0.834796
O O2 0.728608 0.090372 0.820726
O O3 0.740606 0.180293 0.784793
O O4 0.745787 0.163033 0.892503
O O5 0.500000 0.602597 0.331596
O O6 0.260417 0.567534 0.285404
O O7 0.262365 0.658075 0.321401
O O8 0.262301 0.586565 0.393490
O O9 0.500000 0.544754 0.226190
O O10 0.250000 0.500000 0.207624
O O11 0.500000 0.801884 0.275039
O O12 0.746462 0.750000 0.289496
O O13 0.228301 0.750000 0.933477
O O14 0.000000 0.810157 0.947547
O O15 0.250000 0.825458 0.000000
O O16 0.750000 0.925990 0.500000
O O17 0.000000 0.951163 0.552589
O O18 0.750000 0.000000 0.567780
#
# Coordination Sequence:
#
# PCOD8278172 Si02
#       6
#    16  16  16  16  16  16
#     4   8  14  24  39  59  82 106 130 160 197 234
#     4   8  15  25  38  58  82 105 128 160 199 235
#     4   9  16  27  42  60  82 105 130 161 198 236
#     4   8  12  20  37  60  82 103 129 161 196 233
#     4   9  16  26  41  61  83 106 131 159 194 235
#     4  10  18  28  41  58  81 106 133 163 196 233
#
# _framework density 16.262163000000001
#
# number of rings (size 3 to 8) (size 9 to 14) (size 15 to 20)
#    0.000    3.333    0.000    4.000    0.000    2.000 
#    0.000    1.667    0.000    1.000    0.000    3.500 
#    0.000   21.333    0.000    0.000    0.000    0.667 
#
# Total GULP energy -594806.023993 kJ/mol
# GULP energy per Si atom -12391.792167 kJ/mol
# Density = 1.622515 g / cm^3
# Si number density = 16.262163 Si / 1000 Ang^3
#
#
#
# Elastic Constant Matrix: (Units=GPa)
#
#
# Indices 1 2 3 4 5 6 
#
# 1 20.8811 18.9867 22.2155 0.0000 0.0000 0.0000
# 2 18.9867 134.6352 83.8760 0.0000 0.0000 0.0000
# 3 22.2155 83.8760 157.6784 0.0000 0.0000 0.0000
# 4 0.0000 0.0000 0.0000 29.2984 0.0000 0.0000
# 5 0.0000 0.0000 0.0000 0.0000 17.4620 0.0000
# 6 0.0000 0.0000 0.0000 0.0000 0.0000 15.6301
#
#
#
# Elastic Compliance Matrix: (Units=1/GPa)
#
#
# Indices 1 2 3 4 5 6 
#
# 1 0.058207 -0.004636 -0.005735 0.000000 0.000000 0.000000
# 2 -0.004636 0.011478 -0.005453 0.000000 0.000000 0.000000
# 3 -0.005735 -0.005453 0.010050 0.000000 0.000000 0.000000
# 4 0.000000 0.000000 0.000000 0.034132 0.000000 0.000000
# 5 0.000000 0.000000 0.000000 0.000000 0.057267 0.000000
# 6 0.000000 0.000000 0.000000 0.000000 0.000000 0.063979
#
#
# Mechanical properties :
#
#
# Convention : Reuss Voigt Hill
#
# Bulk Modulus (GPa) = 20.79485 62.59457 41.69471
# Shear Modulus (GPa) = 17.68103 25.01920 21.35012
#
# Velocity S-wave (km/s) = 3.30092 3.92662 3.62729
# Velocity P-wave (km/s) = 5.22907 7.68975 6.57554
#
# Compressibility (1/GPa) = 0.04808884
#
# Stress axis : x y z
#
# Youngs Moduli (GPa) = 17.18019 87.12236 99.49786
#
# Poissons Ratio (x) = 0.40388 0.57060
# Poissons Ratio (y) = 0.07964 0.54252
# Poissons Ratio (z) = 0.09853 0.47504
#
# Static dielectric constant tensor:
#      x y z
#    x 2.631150 0.000000 0.000000 
#    y 0.000000 3.284730 0.000000 
#    z 0.000000 0.000000 3.368860 
# 
# 
# High freq. dielectric constant tensor:
#      x y z
#    x 1.581890 0.000000 0.000000 
#    y 0.000000 1.619220 0.000000 
#    z 0.000000 0.000000 1.621760 
# 
# From -- ./inp_files/40894.got.cif
#   From: 2010.03.12/outbox.cif.g09.slc.cpg/sg67_21_cif.got.tgz:40894.got - 2010.04.10 22:41:39.
