data_PCOD8278510
_publ_section_title
;
Structure prediction by ZEFSAII (Michael W. Deem and Ramdas Pophale) SiO2 
 PCOD8278510
Probable space group: C M M A
;
_chemical_formula_sum "Si O2"
_cell_formula_units_Z 72
_cell_length_a 8.875147
_cell_length_b 18.712437
_cell_length_c 24.789024
_cell_angle_alpha 90.000000
_cell_angle_beta 90.000000
_cell_angle_gamma 90.000000
_cell_volume 4116.852756
_symmetry_space_group_name_H-M "C M M A"
_symmetry_group_IT_number 67
_symmetry_cell_setting 'orthorhombic'
loop_
_space_group_symop_operation_xyz
x,y,z
-x,1/2-y,z
x,-y,-z
-x,1/2+y,-z
-x,-y,-z
x,1/2+y,-z
-x,y,z
x,1/2-y,z
1/2+x,1/2+y,z
1/2-x,-y,z
1/2+x,1/2-y,-z
1/2-x,y,-z
1/2-x,1/2-y,-z
1/2+x,y,-z
1/2-x,1/2+y,z
1/2+x,-y,z
loop_
_atom_site_type_symbol
_atom_site_label
_atom_site_fract_x
_atom_site_fract_y
_atom_site_fract_z
Si Si1 0.178743 0.577031 0.236602
Si Si2 0.679802 0.250000 0.058634
Si Si3 0.669743 0.664876 0.446867
Si Si4 0.177200 0.331300 0.661209
Si Si5 0.171946 0.828667 0.852161
O O1 0.250000 0.500000 0.242878
O O2 0.231488 0.622673 0.288067
O O3 0.240616 0.613772 0.182963
O O4 0.000000 0.571650 0.232503
O O5 0.500000 0.250000 0.056201
O O6 0.741255 0.320595 0.090347
O O7 0.750000 0.250000 0.000000
O O8 0.500000 0.636780 0.446961
O O9 0.678849 0.750000 0.447933
O O10 0.750000 0.633202 0.500000
O O11 0.749155 0.636135 0.392783
O O12 0.230574 0.250000 0.671059
O O13 0.000000 0.335170 0.653268
O O14 0.174293 0.750000 0.823580
O O15 0.000000 0.854101 0.861724
#
# Coordination Sequence:
#
# PCOD8278510 Si02
#       5
#    16   8  16  16  16
#     4  11  22  35  52  74 105 143 179 219 266 315
#     4  10  18  32  56  86 116 144 177 216 259 302
#     4   9  16  26  43  68  96 125 158 202 255 309
#     4   9  18  32  50  72  98 130 169 212 260 314
#     4   9  19  34  54  81 109 139 177 219 259 305
#
# _framework density 17.489089
#
# number of rings (size 3 to 8) (size 9 to 14) (size 15 to 20)
#    0.667    1.778    0.000    3.333    0.000    5.333 
#    0.000    2.222    0.000    1.333    0.000    9.333 
#    0.000    0.000    0.000    0.000    0.000    0.000 
#
# Total GULP energy -446252.338059 kJ/mol
# GULP energy per Si atom -12395.898279 kJ/mol
# Density = 1.744928 g / cm^3
# Si number density = 17.489089 Si / 1000 Ang^3
#
#
#
# Elastic Constant Matrix: (Units=GPa)
#
#
# Indices 1 2 3 4 5 6 
#
# 1 106.2084 40.0740 73.7743 0.0000 0.0000 0.0000
# 2 40.0740 70.1680 57.7580 0.0000 0.0000 0.0000
# 3 73.7743 57.7580 168.7136 0.0000 0.0000 0.0000
# 4 0.0000 0.0000 0.0000 3.7042 0.0000 0.0000
# 5 0.0000 0.0000 0.0000 0.0000 35.3920 0.0000
# 6 0.0000 0.0000 0.0000 0.0000 0.0000 23.3227
#
#
#
# Elastic Compliance Matrix: (Units=1/GPa)
#
#
# Indices 1 2 3 4 5 6 
#
# 1 0.014370 -0.004225 -0.004837 0.000000 0.000000 0.000000
# 2 -0.004225 0.021086 -0.005371 0.000000 0.000000 0.000000
# 3 -0.004837 -0.005371 0.009881 0.000000 0.000000 0.000000
# 4 0.000000 0.000000 0.000000 0.269966 0.000000 0.000000
# 5 0.000000 0.000000 0.000000 0.000000 0.028255 0.000000
# 6 0.000000 0.000000 0.000000 0.000000 0.000000 0.042877
#
#
# Mechanical properties :
#
#
# Convention : Reuss Voigt Hill
#
# Bulk Modulus (GPa) = 60.71665 76.47808 68.59736
# Shear Modulus (GPa) = 11.88241 24.04936 17.96589
#
# Velocity S-wave (km/s) = 2.60939 3.71227 3.20857
# Velocity P-wave (km/s) = 6.62351 7.88660 7.28249
#
# Compressibility (1/GPa) = 0.01646995
#
# Stress axis : x y z
#
# Youngs Moduli (GPa) = 69.59179 47.42569 101.20414
#
# Poissons Ratio (x) = 0.20038 0.48952
# Poissons Ratio (y) = 0.29403 0.54357
# Poissons Ratio (z) = 0.33661 0.25472
#
# Static dielectric constant tensor:
#      x y z
#    x 3.325520 0.000000 0.000000 
#    y 0.000000 2.835140 0.000000 
#    z 0.000000 0.000000 3.278730 
# 
# 
# High freq. dielectric constant tensor:
#      x y z
#    x 1.690820 0.000000 0.000000 
#    y 0.000000 1.630650 0.000000 
#    z 0.000000 0.000000 1.678710 
# 
# From -- ./inp_files/43190.got.cif
#   From: 2010.03.12/outbox.cif.g09.slc.cpg/sg67_22_cif.got.tgz:43190.got - 2010.04.10 22:41:39.
