data_PCOD8278884
_publ_section_title
;
Structure prediction by ZEFSAII (Michael W. Deem and Ramdas Pophale) SiO2 
 PCOD8278884
Probable space group: C M M A
;
_chemical_formula_sum "Si O2"
_cell_formula_units_Z 112
_cell_length_a 19.096130
_cell_length_b 18.314910
_cell_length_c 17.459622
_cell_angle_alpha 90.000000
_cell_angle_beta 90.000000
_cell_angle_gamma 90.000000
_cell_volume 6106.396331
_symmetry_space_group_name_H-M "C M M A"
_symmetry_group_IT_number 67
_symmetry_cell_setting 'orthorhombic'
loop_
_space_group_symop_operation_xyz
x,y,z
-x,1/2-y,z
x,-y,-z
-x,1/2+y,-z
-x,-y,-z
x,1/2+y,-z
-x,y,z
x,1/2-y,z
1/2+x,1/2+y,z
1/2-x,-y,z
1/2+x,1/2-y,-z
1/2-x,y,-z
1/2-x,1/2-y,-z
1/2+x,y,-z
1/2-x,1/2+y,z
1/2+x,-y,z
loop_
_atom_site_type_symbol
_atom_site_label
_atom_site_fract_x
_atom_site_fract_y
_atom_site_fract_z
Si Si1 0.666392 0.417503 0.502656
Si Si2 0.827477 0.588008 0.206538
Si Si3 0.079414 0.167352 0.911313
Si Si4 0.329580 0.668071 0.643797
Si Si5 0.579439 0.431049 0.950640
Si Si6 0.332454 0.420540 0.798605
Si Si7 0.162883 0.333006 0.348607
O O1 0.638014 0.500000 0.500000
O O2 0.750000 0.416392 0.500000
O O3 0.638580 0.375462 0.427901
O O4 0.635063 0.377796 0.577863
O O5 0.873718 0.610064 0.134455
O O6 0.857232 0.633322 0.277925
O O7 0.746992 0.605038 0.185618
O O8 0.835931 0.503796 0.228898
O O9 0.108448 0.250000 0.904691
O O10 0.000000 0.163173 0.880565
O O11 0.082238 0.142459 0.999375
O O12 0.357818 0.750000 0.637803
O O13 0.246135 0.665412 0.645971
O O14 0.500000 0.449475 0.924916
O O15 0.624749 0.412423 0.876454
O O16 0.608858 0.500000 0.000000
O O17 0.363732 0.371004 0.729900
O O18 0.134541 0.250000 0.350881
#
# Coordination Sequence:
#
# PCOD8278884 Si02
#       7
#    16  16  16  16  16  16  16
#     4   9  15  24  40  63  93 133 174 211 252 304
#     4  10  19  32  48  75 106 134 169 215 263 315
#     4  10  21  37  56  77 102 133 172 219 266 315
#     4   9  16  26  42  64  96 134 170 209 256 308
#     4  10  20  37  57  75  99 134 177 217 258 313
#     4  10  20  32  50  75 103 137 170 213 264 317
#     4   9  17  28  42  65  99 135 172 212 258 310
#
# _framework density 18.341424
#
# number of rings (size 3 to 8) (size 9 to 14) (size 15 to 20)
#    0.000    2.429    1.429    1.714    0.000    6.857 
#    0.000    0.714    0.000    0.000    0.000    1.000 
#    0.000    5.714    0.000    0.000    0.000    0.000 
#
# Total GULP energy -694310.578885 kJ/mol
# GULP energy per Si atom -12398.403194 kJ/mol
# Density = 1.829968 g / cm^3
# Si number density = 18.341424 Si / 1000 Ang^3
#
#
#
# Elastic Constant Matrix: (Units=GPa)
#
#
# Indices 1 2 3 4 5 6 
#
# 1 35.2290 26.2898 40.4523 0.0000 0.0000 0.0000
# 2 26.2898 133.2441 67.4475 0.0000 0.0000 0.0000
# 3 40.4523 67.4475 150.5789 0.0000 0.0000 0.0000
# 4 0.0000 0.0000 0.0000 36.7103 0.0000 0.0000
# 5 0.0000 0.0000 0.0000 0.0000 -2.9153 0.0000
# 6 0.0000 0.0000 0.0000 0.0000 0.0000 16.1125
#
#
#
# Elastic Compliance Matrix: (Units=1/GPa)
#
#
# Indices 1 2 3 4 5 6 
#
# 1 0.042170 -0.003344 -0.009831 0.000000 0.000000 0.000000
# 2 -0.003344 0.009971 -0.003568 0.000000 0.000000 0.000000
# 3 -0.009831 -0.003568 0.010880 0.000000 0.000000 0.000000
# 4 0.000000 0.000000 0.000000 0.027240 0.000000 0.000000
# 5 0.000000 0.000000 0.000000 0.000000 -0.343017 0.000000
# 6 0.000000 0.000000 0.000000 0.000000 0.000000 0.062064
#
#
# Mechanical properties :
#
#
# Convention : Reuss Voigt Hill
#
# Bulk Modulus (GPa) = 33.85780 65.27015 49.56398
# Shear Modulus (GPa) = -33.93006 22.30565 -5.81220
#
# Velocity S-wave (km/s) = -4.30573 3.49110 -1.78207
# Velocity P-wave (km/s) = 2.49384 7.20512 4.77988
#
# Compressibility (1/GPa) = 0.02953529
#
# Stress axis : x y z
#
# Youngs Moduli (GPa) = 23.71380 100.29269 91.91062
#
# Poissons Ratio (x) = 0.33538 0.90356
# Poissons Ratio (y) = 0.07930 0.32792
# Poissons Ratio (z) = 0.23313 0.35782
#
# Static dielectric constant tensor:
#      x y z
#    x 2.850480 0.000000 0.000000 
#    y 0.000000 3.571530 0.000000 
#    z 0.000000 0.000000 3.429250 
# 
# 
# High freq. dielectric constant tensor:
#      x y z
#    x 1.648180 0.000000 0.000000 
#    y 0.000000 1.726420 0.000000 
#    z 0.000000 0.000000 1.719920 
# 
# From -- ./inp_files/35142.got.cif
#   From: 2010.03.12/outbox.cif.g09.slc.cpg/sg67_18_cif.got.tgz:35142.got - 2010.04.10 22:41:39.
