data_PCOD8278811
_publ_section_title
;
Structure prediction by ZEFSAII (Michael W. Deem and Ramdas Pophale) SiO2 
 PCOD8278811
Probable space group: C M M A
;
_chemical_formula_sum "Si O2"
_cell_formula_units_Z 80
_cell_length_a 10.508115
_cell_length_b 19.491484
_cell_length_c 23.289167
_cell_angle_alpha 90.000000
_cell_angle_beta 90.000000
_cell_angle_gamma 90.000000
_cell_volume 4770.058199
_symmetry_space_group_name_H-M "C M M A"
_symmetry_group_IT_number 67
_symmetry_cell_setting 'orthorhombic'
loop_
_space_group_symop_operation_xyz
x,y,z
-x,1/2-y,z
x,-y,-z
-x,1/2+y,-z
-x,-y,-z
x,1/2+y,-z
-x,y,z
x,1/2-y,z
1/2+x,1/2+y,z
1/2-x,-y,z
1/2+x,1/2-y,-z
1/2-x,y,-z
1/2-x,1/2-y,-z
1/2+x,y,-z
1/2-x,1/2+y,z
1/2+x,-y,z
loop_
_atom_site_type_symbol
_atom_site_label
_atom_site_fract_x
_atom_site_fract_y
_atom_site_fract_z
Si Si1 0.363409 0.926864 0.031521
Si Si2 0.500000 0.168161 0.428128
Si Si3 0.145963 0.053915 0.164604
Si Si4 0.241764 0.331561 0.372195
Si Si5 0.646832 0.672738 0.251196
Si Si6 0.000000 0.168131 0.441640
O O1 0.500000 0.889027 0.024779
O O2 0.329097 0.934590 0.097758
O O3 0.250000 0.884211 0.000000
O O4 0.371752 0.000000 0.000000
O O5 0.500000 0.250000 0.426962
O O6 0.624991 0.139189 0.395999
O O7 0.500000 0.140995 0.493206
O O8 0.173106 0.125160 0.196635
O O9 0.000000 0.028638 0.175428
O O10 0.250000 0.000000 0.188033
O O11 0.238716 0.250000 0.376199
O O12 0.226916 0.354152 0.305862
O O13 0.125838 0.361110 0.410321
O O14 0.500000 0.671220 0.270077
O O15 0.687292 0.750000 0.233833
O O16 0.000000 0.250000 0.440279
#
# Coordination Sequence:
#
# PCOD8278811 Si02
#       6
#    16   8  16  16  16   8
#     4   9  15  25  44  68  92 116 144 185 233 278
#     4   9  16  22  34  60  89 113 147 192 232 274
#     4  10  19  31  49  74  96 119 158 200 234 271
#     4   9  15  25  39  56  85 121 151 183 231 279
#     4   9  17  31  49  66  91 130 166 190 223 283
#     4   9  14  22  38  58  81 115 153 188 228 272
#
# _framework density 16.771283
#
# number of rings (size 3 to 8) (size 9 to 14) (size 15 to 20)
#    0.000    2.800    3.000    0.600    0.000    2.400 
#    1.800    0.000    0.000    0.600    0.000    0.000 
#    0.000    4.800    0.000    0.000    0.000    0.000 
#
# Total GULP energy -495664.211374 kJ/mol
# GULP energy per Si atom -12391.605284 kJ/mol
# Density = 1.673311 g / cm^3
# Si number density = 16.771283 Si / 1000 Ang^3
#
#
#
# Elastic Constant Matrix: (Units=GPa)
#
#
# Indices 1 2 3 4 5 6 
#
# 1 138.7863 30.2893 60.9720 0.0000 0.0000 0.0000
# 2 30.2893 36.6376 40.5852 0.0000 0.0000 0.0000
# 3 60.9720 40.5852 133.5516 0.0000 0.0000 0.0000
# 4 0.0000 0.0000 0.0000 9.6552 0.0000 0.0000
# 5 0.0000 0.0000 0.0000 0.0000 -52.6933 0.0000
# 6 0.0000 0.0000 0.0000 0.0000 0.0000 11.0531
#
#
#
# Elastic Compliance Matrix: (Units=1/GPa)
#
#
# Indices 1 2 3 4 5 6 
#
# 1 0.009500 -0.004597 -0.002940 0.000000 0.000000 0.000000
# 2 -0.004597 0.043370 -0.011081 0.000000 0.000000 0.000000
# 3 -0.002940 -0.011081 0.012198 0.000000 0.000000 0.000000
# 4 0.000000 0.000000 0.000000 0.103571 0.000000 0.000000
# 5 0.000000 0.000000 0.000000 0.000000 -0.018978 0.000000
# 6 0.000000 0.000000 0.000000 0.000000 0.000000 0.090473
#
#
# Mechanical properties :
#
#
# Convention : Reuss Voigt Hill
#
# Bulk Modulus (GPa) = 35.93114 63.62984 49.78049
# Shear Modulus (GPa) = 17.44303 5.41159 11.42731
#
# Velocity S-wave (km/s) = 3.22848 1.79825 2.61312
# Velocity P-wave (km/s) = 5.94712 6.50644 6.23305
#
# Compressibility (1/GPa) = 0.02783102
#
# Stress axis : x y z
#
# Youngs Moduli (GPa) = 105.25921 23.05749 81.98383
#
# Poissons Ratio (x) = 0.10600 0.24106
# Poissons Ratio (y) = 0.48389 0.90846
# Poissons Ratio (z) = 0.30949 0.25550
#
# Static dielectric constant tensor:
#      x y z
#    x 4.118530 0.000000 0.000000 
#    y 0.000000 2.524790 0.000000 
#    z 0.000000 0.000000 3.220980 
# 
# 
# High freq. dielectric constant tensor:
#      x y z
#    x 1.662160 0.000000 0.000000 
#    y 0.000000 1.562500 0.000000 
#    z 0.000000 0.000000 1.658150 
# 
# From -- ./inp_files/33006.got.cif
#   From: 2010.03.12/outbox.cif.g09.slc.cpg/sg67_17_cif.got.tgz:33006.got - 2010.04.10 22:41:39.
