data_PCOD8278870
_publ_section_title
;
Structure prediction by ZEFSAII (Michael W. Deem and Ramdas Pophale) SiO2 
 PCOD8278870
Probable space group: C M M A
;
_chemical_formula_sum "Si O2"
_cell_formula_units_Z 112
_cell_length_a 13.964265
_cell_length_b 27.374800
_cell_length_c 14.015746
_cell_angle_alpha 90.000000
_cell_angle_beta 90.000000
_cell_angle_gamma 90.000000
_cell_volume 5357.784668
_symmetry_space_group_name_H-M "C M M A"
_symmetry_group_IT_number 67
_symmetry_cell_setting 'orthorhombic'
loop_
_space_group_symop_operation_xyz
x,y,z
-x,1/2-y,z
x,-y,-z
-x,1/2+y,-z
-x,-y,-z
x,1/2+y,-z
-x,y,z
x,1/2-y,z
1/2+x,1/2+y,z
1/2-x,-y,z
1/2+x,1/2-y,-z
1/2-x,y,-z
1/2-x,1/2-y,-z
1/2+x,y,-z
1/2-x,1/2+y,z
1/2+x,-y,z
loop_
_atom_site_type_symbol
_atom_site_label
_atom_site_fract_x
_atom_site_fract_y
_atom_site_fract_z
Si Si1 0.762814 0.948244 0.179632
Si Si2 0.108168 0.967594 0.354498
Si Si3 0.293282 0.345179 0.135187
Si Si4 0.609417 0.424271 0.669374
Si Si5 0.112645 0.882410 0.480938
Si Si6 0.387488 0.193500 0.325059
Si Si7 0.607557 0.307336 0.951518
O O1 0.842373 0.964413 0.253447
O O2 0.800919 0.903696 0.114781
O O3 0.670785 0.925368 0.234239
O O4 0.750000 0.000000 0.121566
O O5 0.157914 0.929209 0.426171
O O6 0.000000 0.950851 0.337856
O O7 0.115557 0.023846 0.388022
O O8 0.327815 0.331856 0.240932
O O9 0.182077 0.330115 0.123417
O O10 0.360695 0.318415 0.059650
O O11 0.500000 0.413495 0.700237
O O12 0.648256 0.383815 0.591778
O O13 0.139790 0.832563 0.425519
O O14 0.000000 0.889668 0.486569
O O15 0.500000 0.187184 0.303061
O O16 0.358638 0.250000 0.334021
O O17 0.500000 0.327840 0.933949
O O18 0.608515 0.250000 0.936865
#
# Coordination Sequence:
#
# PCOD8278870 Si02
#       7
#    16  16  16  16  16  16  16
#     4  10  21  34  52  81 113 149 186 225 267 323
#     4   9  16  29  47  73 104 140 186 233 274 310
#     4  11  20  36  59  84 115 143 172 220 275 327
#     4   9  18  31  48  70 105 148 190 234 272 312
#     4   9  16  28  47  73 105 143 187 231 273 310
#     4  10  19  31  53  84 114 145 183 228 277 327
#     4  10  22  40  64  90 110 133 171 218 270 333
#
# _framework density 20.904161999999999
#
# number of rings (size 3 to 8) (size 9 to 14) (size 15 to 20)
#    0.000    2.286    1.429    2.571    0.000    4.571 
#    0.000    3.571    0.000    4.286    0.000    2.000 
#    0.000    0.000    0.000    0.000    0.000    0.000 
#
# Total GULP energy -693840.203246 kJ/mol
# GULP energy per Si atom -12390.003629 kJ/mol
# Density = 2.085658 g / cm^3
# Si number density = 20.904162 Si / 1000 Ang^3
#
#
#
# Elastic Constant Matrix: (Units=GPa)
#
#
# Indices 1 2 3 4 5 6 
#
# 1 88.0338 25.0576 21.6408 0.0000 0.0000 0.0000
# 2 25.0576 101.1294 12.9749 0.0000 0.0000 0.0000
# 3 21.6408 12.9749 35.3596 0.0000 0.0000 0.0000
# 4 0.0000 0.0000 0.0000 32.3956 0.0000 0.0000
# 5 0.0000 0.0000 0.0000 0.0000 15.0311 0.0000
# 6 0.0000 0.0000 0.0000 0.0000 0.0000 19.4351
#
#
#
# Elastic Compliance Matrix: (Units=1/GPa)
#
#
# Indices 1 2 3 4 5 6 
#
# 1 0.013937 -0.002476 -0.007622 0.000000 0.000000 0.000000
# 2 -0.002476 0.010817 -0.002454 0.000000 0.000000 0.000000
# 3 -0.007622 -0.002454 0.033846 0.000000 0.000000 0.000000
# 4 0.000000 0.000000 0.000000 0.030868 0.000000 0.000000
# 5 0.000000 0.000000 0.000000 0.000000 0.066529 0.000000
# 6 0.000000 0.000000 0.000000 0.000000 0.000000 0.051453
#
#
# Mechanical properties :
#
#
# Convention : Reuss Voigt Hill
#
# Bulk Modulus (GPa) = 29.85283 38.20772 34.03028
# Shear Modulus (GPa) = 20.51546 24.36231 22.43889
#
# Velocity S-wave (km/s) = 3.13614 3.41754 3.27986
# Velocity P-wave (km/s) = 5.23695 5.82151 5.53695
#
# Compressibility (1/GPa) = 0.03349766
#
# Stress axis : x y z
#
# Youngs Moduli (GPa) = 71.74893 92.45095 29.54564
#
# Poissons Ratio (x) = 0.22887 0.22519
# Poissons Ratio (y) = 0.17762 0.07250
# Poissons Ratio (z) = 0.54685 0.22687
#
# Static dielectric constant tensor:
#      x y z
#    x 3.921910 0.000000 0.000000 
#    y 0.000000 4.173920 0.000000 
#    z 0.000000 0.000000 3.413250 
# 
# 
# High freq. dielectric constant tensor:
#      x y z
#    x 1.822530 0.000000 0.000000 
#    y 0.000000 1.819480 0.000000 
#    z 0.000000 0.000000 1.784350 
# 
# From -- ./inp_files/27723.got.cif
#   From: 2010.03.12/outbox.cif.g09.slc.cpg/sg67_14_cif.got.tgz:27723.got - 2010.04.10 22:41:39.
