data_PCOD8278028
_publ_section_title
;
Structure prediction by ZEFSAII (Michael W. Deem and Ramdas Pophale) SiO2 
 PCOD8278028
Probable space group: C M M A
;
_chemical_formula_sum "Si O2"
_cell_formula_units_Z 96
_cell_length_a 9.378191
_cell_length_b 26.923734
_cell_length_c 22.601445
_cell_angle_alpha 90.000000
_cell_angle_beta 90.000000
_cell_angle_gamma 90.000000
_cell_volume 5706.772646
_symmetry_space_group_name_H-M "C M M A"
_symmetry_group_IT_number 67
_symmetry_cell_setting 'orthorhombic'
loop_
_space_group_symop_operation_xyz
x,y,z
-x,1/2-y,z
x,-y,-z
-x,1/2+y,-z
-x,-y,-z
x,1/2+y,-z
-x,y,z
x,1/2-y,z
1/2+x,1/2+y,z
1/2-x,-y,z
1/2+x,1/2-y,-z
1/2-x,y,-z
1/2-x,1/2-y,-z
1/2+x,y,-z
1/2-x,1/2+y,z
1/2+x,-y,z
loop_
_atom_site_type_symbol
_atom_site_label
_atom_site_fract_x
_atom_site_fract_y
_atom_site_fract_z
Si Si1 0.751899 0.941234 0.147043
Si Si2 0.663316 0.693467 0.339401
Si Si3 0.326087 0.143434 0.440799
Si Si4 0.830242 0.949018 0.611997
Si Si5 0.500000 0.059061 0.933316
Si Si6 0.838210 0.898726 0.735323
Si Si7 0.000000 0.058683 0.935004
O O1 0.626461 0.921960 0.106491
O O2 0.762193 0.913940 0.210251
O O3 0.873661 0.922211 0.104757
O O4 0.750000 0.000000 0.159446
O O5 0.500000 0.683097 0.361889
O O6 0.681683 0.750000 0.318474
O O7 0.778601 0.682032 0.390110
O O8 0.693802 0.658063 0.283260
O O9 0.500000 0.140682 0.445011
O O10 0.250000 0.163688 0.500000
O O11 0.253662 0.090281 0.428336
O O12 0.808143 0.934897 0.680291
O O13 0.000000 0.951104 0.596054
O O14 0.750000 0.000000 0.598949
O O15 0.500000 0.000247 0.941480
O O16 0.500000 0.082755 0.999295
O O17 0.000000 0.905673 0.756876
#
# Coordination Sequence:
#
# PCOD8278028 Si02
#       7
#    16  16  16  16   8  16   8
#     4  10  17  27  42  65  94 132 168 202 241 285
#     4   9  19  37  58  77  99 127 160 206 259 306
#     4  11  22  37  56  79 104 133 167 203 246 297
#     4  10  20  35  52  74 104 138 174 211 249 289
#     4   9  16  28  42  56  93 133 168 205 239 283
#     4   9  17  31  49  70  97 128 164 205 248 299
#     4   9  18  26  38  64  91 129 172 205 239 277
#
# _framework density 16.822118
#
# number of rings (size 3 to 8) (size 9 to 14) (size 15 to 20)
#    0.000    2.333    0.833    4.000    0.000    3.000 
#    7.500    1.667    0.000    0.000    0.000    0.000 
#    0.000    4.000    0.000    0.000    0.000    0.000 
#
# Total GULP energy -594670.158088 kJ/mol
# GULP energy per Si atom -12388.961627 kJ/mol
# Density = 1.678383 g / cm^3
# Si number density = 16.822118 Si / 1000 Ang^3
#
#
#
# Elastic Constant Matrix: (Units=GPa)
#
#
# Indices 1 2 3 4 5 6 
#
# 1 123.5979 24.3892 45.6119 0.0000 0.0000 0.0000
# 2 24.3892 73.0020 20.9990 0.0000 0.0000 0.0000
# 3 45.6119 20.9990 104.7952 0.0000 0.0000 0.0000
# 4 0.0000 0.0000 0.0000 13.2706 0.0000 0.0000
# 5 0.0000 0.0000 0.0000 0.0000 33.5292 0.0000
# 6 0.0000 0.0000 0.0000 0.0000 0.0000 19.8523
#
#
#
# Elastic Compliance Matrix: (Units=1/GPa)
#
#
# Indices 1 2 3 4 5 6 
#
# 1 0.009964 -0.002209 -0.003894 0.000000 0.000000 0.000000
# 2 -0.002209 0.015026 -0.002050 0.000000 0.000000 0.000000
# 3 -0.003894 -0.002050 0.011648 0.000000 0.000000 0.000000
# 4 0.000000 0.000000 0.000000 0.075355 0.000000 0.000000
# 5 0.000000 0.000000 0.000000 0.000000 0.029825 0.000000
# 6 0.000000 0.000000 0.000000 0.000000 0.000000 0.050372
#
#
# Mechanical properties :
#
#
# Convention : Reuss Voigt Hill
#
# Bulk Modulus (GPa) = 49.18165 53.71060 51.44612
# Shear Modulus (GPa) = 23.22657 27.35676 25.29167
#
# Velocity S-wave (km/s) = 3.71983 4.03704 3.88168
# Velocity P-wave (km/s) = 6.91009 7.32995 7.12311
#
# Compressibility (1/GPa) = 0.02033279
#
# Stress axis : x y z
#
# Youngs Moduli (GPa) = 100.36511 66.55269 85.85153
#
# Poissons Ratio (x) = 0.14699 0.33431
# Poissons Ratio (y) = 0.22167 0.17596
# Poissons Ratio (z) = 0.39083 0.13641
#
# Static dielectric constant tensor:
#      x y z
#    x 3.231620 0.000000 0.000000 
#    y 0.000000 2.876700 0.000000 
#    z 0.000000 0.000000 3.193420 
# 
# 
# High freq. dielectric constant tensor:
#      x y z
#    x 1.657110 0.000000 0.000000 
#    y 0.000000 1.608880 0.000000 
#    z 0.000000 0.000000 1.650700 
# 
# From -- ./inp_files/40969.got.cif
#   From: 2010.03.12/outbox.cif.g09.slc.cpg/sg67_21_cif.got.tgz:40969.got - 2010.04.10 22:41:39.
