data_PCOD8278178
_publ_section_title
;
Structure prediction by ZEFSAII (Michael W. Deem and Ramdas Pophale) SiO2 
 PCOD8278178
Probable space group: C M M A
;
_chemical_formula_sum "Si O2"
_cell_formula_units_Z 104
_cell_length_a 30.591147
_cell_length_b 8.686539
_cell_length_c 23.189889
_cell_angle_alpha 90.000000
_cell_angle_beta 90.000000
_cell_angle_gamma 90.000000
_cell_volume 6162.276834
_symmetry_space_group_name_H-M "C M M A"
_symmetry_group_IT_number 67
_symmetry_cell_setting 'orthorhombic'
loop_
_space_group_symop_operation_xyz
x,y,z
-x,1/2-y,z
x,-y,-z
-x,1/2+y,-z
-x,-y,-z
x,1/2+y,-z
-x,y,z
x,1/2-y,z
1/2+x,1/2+y,z
1/2-x,-y,z
1/2+x,1/2-y,-z
1/2-x,y,-z
1/2-x,1/2-y,-z
1/2+x,y,-z
1/2-x,1/2+y,z
1/2+x,-y,z
loop_
_atom_site_type_symbol
_atom_site_label
_atom_site_fract_x
_atom_site_fract_y
_atom_site_fract_z
Si Si1 0.879570 0.066210 0.769108
Si Si2 0.051703 0.421255 0.442927
Si Si3 0.000000 0.933842 0.061888
Si Si4 0.295580 0.067149 0.817294
Si Si5 0.177721 0.069991 0.939489
Si Si6 0.950428 0.568009 0.323341
Si Si7 0.911989 0.570863 0.110430
O O1 0.874549 0.250000 0.766905
O O2 0.912769 0.005262 0.719702
O O3 0.899721 0.001088 0.828150
O O4 0.831185 0.992162 0.770073
O O5 0.072061 0.500000 0.500000
O O6 0.071245 0.250000 0.437118
O O7 0.064719 0.518293 0.386815
O O8 0.000000 0.413944 0.449432
O O9 0.042614 0.005324 0.092051
O O10 0.000000 0.750000 0.060882
O O11 0.000000 0.000000 0.000000
O O12 0.295234 0.250000 0.817956
O O13 0.250000 0.000000 0.794254
O O14 0.301587 0.008245 0.883140
O O15 0.189379 0.250000 0.937521
O O16 0.125575 0.040263 0.936851
O O17 0.195408 0.000000 0.000000
O O18 0.951829 0.750000 0.319930
O O19 0.000000 0.505444 0.309020
O O20 0.919539 0.750000 0.119262
#
# Coordination Sequence:
#
# PCOD8278178 Si02
#       7
#    16  16   8  16  16  16  16
#     4   9  18  33  50  71  97 125 159 198 237 283
#     4   9  16  26  41  62  93 132 172 211 246 281
#     4  10  18  28  42  60  82 112 151 190 227 268
#     4  11  22  37  55  73  93 120 152 193 243 295
#     4  10  19  33  50  71  94 118 147 186 234 290
#     4   9  17  28  46  72 101 135 171 204 238 280
#     4   8  16  28  44  63  86 117 151 189 229 271
#
# _framework density 16.876878999999999
#
# number of rings (size 3 to 8) (size 9 to 14) (size 15 to 20)
#    0.000    2.615    0.000    3.692    1.077    2.769 
#    0.000    4.615    0.000    0.000    0.000    0.000 
#    0.000    0.615    0.000    6.462    0.000    3.077 
#
# Total GULP energy -644338.990712 kJ/mol
# GULP energy per Si atom -12391.134437 kJ/mol
# Density = 1.683847 g / cm^3
# Si number density = 16.876879 Si / 1000 Ang^3
#
#
#
# Elastic Constant Matrix: (Units=GPa)
#
#
# Indices 1 2 3 4 5 6 
#
# 1 110.0553 32.4419 44.8176 0.0000 0.0000 0.0000
# 2 32.4419 59.9811 25.7550 0.0000 0.0000 0.0000
# 3 44.8176 25.7550 98.0028 0.0000 0.0000 0.0000
# 4 0.0000 0.0000 0.0000 25.0420 0.0000 0.0000
# 5 0.0000 0.0000 0.0000 0.0000 14.0064 0.0000
# 6 0.0000 0.0000 0.0000 0.0000 0.0000 17.8855
#
#
#
# Elastic Compliance Matrix: (Units=1/GPa)
#
#
# Indices 1 2 3 4 5 6 
#
# 1 0.012265 -0.004763 -0.004357 0.000000 0.000000 0.000000
# 2 -0.004763 0.020642 -0.003247 0.000000 0.000000 0.000000
# 3 -0.004357 -0.003247 0.013050 0.000000 0.000000 0.000000
# 4 0.000000 0.000000 0.000000 0.039933 0.000000 0.000000
# 5 0.000000 0.000000 0.000000 0.000000 0.071396 0.000000
# 6 0.000000 0.000000 0.000000 0.000000 0.000000 0.055911
#
#
# Mechanical properties :
#
#
# Convention : Reuss Voigt Hill
#
# Bulk Modulus (GPa) = 47.11809 52.67423 49.89616
# Shear Modulus (GPa) = 20.40787 22.38842 21.39814
#
# Velocity S-wave (km/s) = 3.48116 3.64617 3.56462
# Velocity P-wave (km/s) = 6.64359 7.00033 6.82429
#
# Compressibility (1/GPa) = 0.02122327
#
# Stress axis : x y z
#
# Youngs Moduli (GPa) = 81.53548 48.44497 76.63101
#
# Poissons Ratio (x) = 0.23073 0.33389
# Poissons Ratio (y) = 0.38833 0.24879
# Poissons Ratio (z) = 0.35526 0.15728
#
# Static dielectric constant tensor:
#      x y z
#    x 3.237240 0.000000 0.000000 
#    y 0.000000 2.962370 0.000000 
#    z 0.000000 0.000000 3.137160 
# 
# 
# High freq. dielectric constant tensor:
#      x y z
#    x 1.634540 0.000000 0.000000 
#    y 0.000000 1.641970 0.000000 
#    z 0.000000 0.000000 1.632080 
# 
# From -- ./inp_files/42942.got.cif
#   From: 2010.03.12/outbox.cif.g09.slc.cpg/sg67_22_cif.got.tgz:42942.got - 2010.04.10 22:41:39.
