data_PCOD8278384
_publ_section_title
;
Structure prediction by ZEFSAII (Michael W. Deem and Ramdas Pophale) SiO2 
 PCOD8278384
Probable space group: C M M A
;
_chemical_formula_sum "Si O2"
_cell_formula_units_Z 96
_cell_length_a 10.619342
_cell_length_b 25.351964
_cell_length_c 18.407877
_cell_angle_alpha 90.000000
_cell_angle_beta 90.000000
_cell_angle_gamma 90.000000
_cell_volume 4955.790295
_symmetry_space_group_name_H-M "C M M A"
_symmetry_group_IT_number 67
_symmetry_cell_setting 'orthorhombic'
loop_
_space_group_symop_operation_xyz
x,y,z
-x,1/2-y,z
x,-y,-z
-x,1/2+y,-z
-x,-y,-z
x,1/2+y,-z
-x,y,z
x,1/2-y,z
1/2+x,1/2+y,z
1/2-x,-y,z
1/2+x,1/2-y,-z
1/2-x,y,-z
1/2-x,1/2-y,-z
1/2+x,y,-z
1/2-x,1/2+y,z
1/2+x,-y,z
loop_
_atom_site_type_symbol
_atom_site_label
_atom_site_fract_x
_atom_site_fract_y
_atom_site_fract_z
Si Si1 0.637232 0.056298 0.959140
Si Si2 0.253809 0.189565 0.848994
Si Si3 0.858022 0.538694 0.791005
Si Si4 0.641807 0.648304 0.286875
Si Si5 0.500000 0.311243 0.922166
Si Si6 0.144298 0.188485 0.441950
Si Si7 0.000000 0.189051 0.908164
O O1 0.500000 0.085251 0.967315
O O2 0.671552 0.051405 0.874725
O O3 0.750000 0.088346 0.000000
O O4 0.627702 0.000000 0.000000
O O5 0.249908 0.250000 0.874526
O O6 0.267029 0.184465 0.762315
O O7 0.374386 0.161357 0.888186
O O8 0.124713 0.161574 0.874730
O O9 0.750000 0.500000 0.761754
O O10 0.844884 0.588527 0.738598
O O11 0.000000 0.514911 0.784346
O O12 0.500000 0.669340 0.275531
O O13 0.678829 0.654495 0.370832
O O14 0.500000 0.250000 0.898562
O O15 0.500000 0.318084 0.006931
O O16 0.157448 0.250000 0.422943
O O17 0.250000 0.171404 0.500000
O O18 0.000000 0.176447 0.468433
O O19 0.000000 0.250000 0.884384
#
# Coordination Sequence:
#
# PCOD8278384 Si02
#       7
#    16  16  16  16   8  16   8
#     4   9  15  26  48  69  90 127 171 222 278 324
#     4  10  18  31  51  72 101 138 177 219 268 319
#     4  10  20  35  54  74 103 140 182 228 277 322
#     4  10  20  35  56  80 109 140 182 221 263 330
#     4   9  16  28  50  66  88 140 190 219 256 316
#     4   9  18  35  60  89 118 146 175 210 260 324
#     4   9  18  30  44  68 100 138 178 223 270 306
#
# _framework density 19.371279999999999
#
# number of rings (size 3 to 8) (size 9 to 14) (size 15 to 20)
#    0.000    2.500    2.500    1.000    0.000    2.667 
#    3.000    1.667    0.000    0.500    0.000    3.500 
#    0.000    0.000    0.000    0.000    0.000    0.000 
#
# Total GULP energy -594941.373325 kJ/mol
# GULP energy per Si atom -12394.611944 kJ/mol
# Density = 1.932719 g / cm^3
# Si number density = 19.371280 Si / 1000 Ang^3
#
#
#
# Elastic Constant Matrix: (Units=GPa)
#
#
# Indices 1 2 3 4 5 6 
#
# 1 184.8817 32.3899 87.6350 0.0000 0.0000 0.0000
# 2 32.3899 26.0613 24.3304 0.0000 0.0000 0.0000
# 3 87.6350 24.3304 133.2701 0.0000 0.0000 0.0000
# 4 0.0000 0.0000 0.0000 0.7814 0.0000 0.0000
# 5 0.0000 0.0000 0.0000 0.0000 15.6089 0.0000
# 6 0.0000 0.0000 0.0000 0.0000 0.0000 20.7292
#
#
#
# Elastic Compliance Matrix: (Units=1/GPa)
#
#
# Indices 1 2 3 4 5 6 
#
# 1 0.008709 -0.006603 -0.004521 0.000000 0.000000 0.000000
# 2 -0.006603 0.051260 -0.005017 0.000000 0.000000 0.000000
# 3 -0.004521 -0.005017 0.011392 0.000000 0.000000 0.000000
# 4 0.000000 0.000000 0.000000 1.279709 0.000000 0.000000
# 5 0.000000 0.000000 0.000000 0.000000 0.064066 0.000000
# 6 0.000000 0.000000 0.000000 0.000000 0.000000 0.048241
#
#
# Mechanical properties :
#
#
# Convention : Reuss Voigt Hill
#
# Bulk Modulus (GPa) = 25.58806 70.32487 47.95646
# Shear Modulus (GPa) = 3.31414 20.74776 12.03095
#
# Velocity S-wave (km/s) = 1.30942 3.27625 2.49483
# Velocity P-wave (km/s) = 3.94006 7.11999 5.75406
#
# Compressibility (1/GPa) = 0.03908073
#
# Stress axis : x y z
#
# Youngs Moduli (GPa) = 114.82836 19.50822 87.77739
#
# Poissons Ratio (x) = 0.12880 0.39686
# Poissons Ratio (y) = 0.75816 0.44035
# Poissons Ratio (z) = 0.51916 0.09787
#
# Static dielectric constant tensor:
#      x y z
#    x 4.414660 0.000000 0.000000 
#    y 0.000000 3.322530 0.000000 
#    z 0.000000 0.000000 3.332670 
# 
# 
# High freq. dielectric constant tensor:
#      x y z
#    x 1.773560 0.000000 0.000000 
#    y 0.000000 1.729970 0.000000 
#    z 0.000000 0.000000 1.725080 
# 
# From -- ./inp_files/26397.got.cif
#   From: 2010.03.12/outbox.cif.g09.slc.cpg/sg67_14_cif.got.tgz:26397.got - 2010.04.10 22:41:39.
