data_PCOD8278858
_publ_section_title
;
Structure prediction by ZEFSAII (Michael W. Deem and Ramdas Pophale) SiO2 
 PCOD8278858
Probable space group: C M M A
;
_chemical_formula_sum "Si O2"
_cell_formula_units_Z 112
_cell_length_a 15.305761
_cell_length_b 26.809942
_cell_length_c 13.693416
_cell_angle_alpha 90.000000
_cell_angle_beta 90.000000
_cell_angle_gamma 90.000000
_cell_volume 5619.046214
_symmetry_space_group_name_H-M "C M M A"
_symmetry_group_IT_number 67
_symmetry_cell_setting 'orthorhombic'
loop_
_space_group_symop_operation_xyz
x,y,z
-x,1/2-y,z
x,-y,-z
-x,1/2+y,-z
-x,-y,-z
x,1/2+y,-z
-x,y,z
x,1/2-y,z
1/2+x,1/2+y,z
1/2-x,-y,z
1/2+x,1/2-y,-z
1/2-x,y,-z
1/2-x,1/2-y,-z
1/2+x,y,-z
1/2-x,1/2+y,z
1/2+x,-y,z
loop_
_atom_site_type_symbol
_atom_site_label
_atom_site_fract_x
_atom_site_fract_y
_atom_site_fract_z
Si Si1 0.597530 0.306986 0.016427
Si Si2 0.901628 0.103487 0.647524
Si Si3 0.603187 0.098012 0.579264
Si Si4 0.732731 0.055948 0.730282
Si Si5 0.401862 0.304225 0.675979
Si Si6 0.854916 0.307509 0.769916
Si Si7 0.820649 0.852131 0.841013
O O1 0.500000 0.313642 0.975513
O O2 0.630081 0.250000 0.005433
O O3 0.596513 0.322677 0.129607
O O4 0.664630 0.342390 0.956152
O O5 0.880953 0.092638 0.534920
O O6 0.830367 0.073872 0.708202
O O7 0.893903 0.161602 0.678662
O O8 0.000000 0.084739 0.671066
O O9 0.500000 0.090368 0.606225
O O10 0.664697 0.058906 0.638650
O O11 0.639303 0.153404 0.605766
O O12 0.693584 0.089023 0.819702
O O13 0.750000 0.000000 0.765949
O O14 0.500000 0.295553 0.642451
O O15 0.353578 0.250000 0.668574
O O16 0.403383 0.328159 0.784969
O O17 0.869564 0.250000 0.743296
O O18 0.754337 0.319438 0.789495
#
# Coordination Sequence:
#
# PCOD8278858 Si02
#       7
#    16  16  16  16  16  16  16
#     4  10  19  31  51  80 110 140 175 214 260 318
#     4  10  21  36  53  76 108 143 179 220 265 314
#     4   9  19  34  53  79 107 138 178 220 264 318
#     4  10  22  39  57  78 103 134 175 227 281 330
#     4   9  16  27  45  72 106 138 168 208 261 321
#     4  10  20  33  51  77 110 147 184 217 254 311
#     4  10  19  32  51  74 102 135 173 221 274 320
#
# _framework density 19.932207999999999
#
# number of rings (size 3 to 8) (size 9 to 14) (size 15 to 20)
#    0.000    2.286    0.000    3.000    0.000    6.000 
#    0.000    2.857    0.000   12.000    0.000    5.000 
#    0.000    0.000    0.000    0.000    0.000    0.000 
#
# Total GULP energy -693827.707693 kJ/mol
# GULP energy per Si atom -12389.780495 kJ/mol
# Density = 1.988684 g / cm^3
# Si number density = 19.932208 Si / 1000 Ang^3
#
#
#
# Elastic Constant Matrix: (Units=GPa)
#
#
# Indices 1 2 3 4 5 6 
#
# 1 68.6132 22.9183 23.6793 0.0000 0.0000 0.0000
# 2 22.9183 112.2120 25.4908 0.0000 0.0000 0.0000
# 3 23.6793 25.4908 55.2550 0.0000 0.0000 0.0000
# 4 0.0000 0.0000 0.0000 20.4183 0.0000 0.0000
# 5 0.0000 0.0000 0.0000 0.0000 23.9078 0.0000
# 6 0.0000 0.0000 0.0000 0.0000 0.0000 21.0073
#
#
#
# Elastic Compliance Matrix: (Units=1/GPa)
#
#
# Indices 1 2 3 4 5 6 
#
# 1 0.017534 -0.002094 -0.006548 0.000000 0.000000 0.000000
# 2 -0.002094 0.010205 -0.003811 0.000000 0.000000 0.000000
# 3 -0.006548 -0.003811 0.022662 0.000000 0.000000 0.000000
# 4 0.000000 0.000000 0.000000 0.048976 0.000000 0.000000
# 5 0.000000 0.000000 0.000000 0.000000 0.041827 0.000000
# 6 0.000000 0.000000 0.000000 0.000000 0.000000 0.047603
#
#
# Mechanical properties :
#
#
# Convention : Reuss Voigt Hill
#
# Bulk Modulus (GPa) = 39.22202 42.25080 40.73641
# Shear Modulus (GPa) = 22.50129 23.99946 23.25037
#
# Velocity S-wave (km/s) = 3.36354 3.47371 3.41907
# Velocity P-wave (km/s) = 5.89957 6.11001 6.00571
#
# Compressibility (1/GPa) = 0.02549588
#
# Stress axis : x y z
#
# Youngs Moduli (GPa) = 57.03341 97.99163 44.12663
#
# Poissons Ratio (x) = 0.20515 0.28895
# Poissons Ratio (y) = 0.11940 0.16815
# Poissons Ratio (z) = 0.37346 0.37341
#
# Static dielectric constant tensor:
#      x y z
#    x 3.784400 0.000000 0.000000 
#    y 0.000000 3.663620 0.000000 
#    z 0.000000 0.000000 3.511780 
# 
# 
# High freq. dielectric constant tensor:
#      x y z
#    x 1.789050 0.000000 0.000000 
#    y 0.000000 1.752290 0.000000 
#    z 0.000000 0.000000 1.758970 
# 
# From -- ./inp_files/27713.got.cif
#   From: 2010.03.12/outbox.cif.g09.slc.cpg/sg67_14_cif.got.tgz:27713.got - 2010.04.10 22:41:39.
