data_PCOD8278511
_publ_section_title
;
Structure prediction by ZEFSAII (Michael W. Deem and Ramdas Pophale) SiO2 
 PCOD8278511
Probable space group: C M M A
;
_chemical_formula_sum "Si O2"
_cell_formula_units_Z 88
_cell_length_a 18.655699
_cell_length_b 8.936928
_cell_length_c 30.013339
_cell_angle_alpha 90.000000
_cell_angle_beta 90.000000
_cell_angle_gamma 90.000000
_cell_volume 5003.963103
_symmetry_space_group_name_H-M "C M M A"
_symmetry_group_IT_number 67
_symmetry_cell_setting 'orthorhombic'
loop_
_space_group_symop_operation_xyz
x,y,z
-x,1/2-y,z
x,-y,-z
-x,1/2+y,-z
-x,-y,-z
x,1/2+y,-z
-x,y,z
x,1/2-y,z
1/2+x,1/2+y,z
1/2-x,-y,z
1/2+x,1/2-y,-z
1/2-x,y,-z
1/2-x,1/2-y,-z
1/2+x,y,-z
1/2-x,1/2+y,z
1/2+x,-y,z
loop_
_atom_site_type_symbol
_atom_site_label
_atom_site_fract_x
_atom_site_fract_y
_atom_site_fract_z
Si Si1 0.078874 0.579050 0.878416
Si Si2 0.673207 0.572513 0.805369
Si Si3 0.585510 0.418478 0.456052
Si Si4 0.418165 0.074845 0.279805
Si Si5 0.500000 0.070924 0.048295
Si Si6 0.414614 0.418571 0.631511
O O1 0.104219 0.750000 0.886705
O O2 0.136563 0.492648 0.849258
O O3 0.000000 0.577611 0.854788
O O4 0.070763 0.490714 0.925570
O O5 0.679232 0.750000 0.810060
O O6 0.750000 0.500000 0.799392
O O7 0.627094 0.524025 0.762706
O O8 0.615509 0.500000 0.500000
O O9 0.500000 0.423301 0.455854
O O10 0.614239 0.250000 0.456534
O O11 0.616321 0.497964 0.411898
O O12 0.500000 0.025605 0.271209
O O13 0.412657 0.250000 0.288404
O O14 0.385806 0.995194 0.323469
O O15 0.500000 0.250000 0.046259
O O16 0.500000 0.000000 0.000000
O O17 0.500000 0.426032 0.630870
O O18 0.386113 0.250000 0.630302
#
# Coordination Sequence:
#
# PCOD8278511 Si02
#       6
#    16  16  16  16   8  16
#     4   9  19  34  54  81 109 139 177 218 258 303
#     4  11  22  35  52  74 104 140 176 217 263 311
#     4   9  15  22  33  50  76 110 146 185 231 287
#     4   9  18  32  49  68  92 126 167 208 253 304
#     4  10  18  32  56  86 116 144 178 218 259 298
#     4   9  16  25  38  58  83 113 150 193 241 292
#
# _framework density 17.586061999999998
#
# number of rings (size 3 to 8) (size 9 to 14) (size 15 to 20)
#    0.545    2.000    0.000    3.273    0.000    6.545 
#    0.000    1.818    0.000    0.545    0.000    3.818 
#    0.000    0.727    0.000    7.636    0.000   11.455 
#
# Total GULP energy -545428.135965 kJ/mol
# GULP energy per Si atom -12396.093999 kJ/mol
# Density = 1.754604 g / cm^3
# Si number density = 17.586062 Si / 1000 Ang^3
#
#
#
# Elastic Constant Matrix: (Units=GPa)
#
#
# Indices 1 2 3 4 5 6 
#
# 1 53.2177 36.4443 47.4467 0.0000 0.0000 0.0000
# 2 36.4443 133.6471 87.9531 0.0000 0.0000 0.0000
# 3 47.4467 87.9531 173.7991 0.0000 0.0000 0.0000
# 4 0.0000 0.0000 0.0000 36.8918 0.0000 0.0000
# 5 0.0000 0.0000 0.0000 0.0000 1.0761 0.0000
# 6 0.0000 0.0000 0.0000 0.0000 0.0000 19.6456
#
#
#
# Elastic Compliance Matrix: (Units=1/GPa)
#
#
# Indices 1 2 3 4 5 6 
#
# 1 0.025953 -0.003620 -0.005253 0.000000 0.000000 0.000000
# 2 -0.003620 0.011724 -0.004945 0.000000 0.000000 0.000000
# 3 -0.005253 -0.004945 0.009690 0.000000 0.000000 0.000000
# 4 0.000000 0.000000 0.000000 0.027106 0.000000 0.000000
# 5 0.000000 0.000000 0.000000 0.000000 0.929283 0.000000
# 6 0.000000 0.000000 0.000000 0.000000 0.000000 0.050902
#
#
# Mechanical properties :
#
#
# Convention : Reuss Voigt Hill
#
# Bulk Modulus (GPa) = 50.68080 78.26135 64.47108
# Shear Modulus (GPa) = 4.59191 24.11070 14.35131
#
# Velocity S-wave (km/s) = 1.61765 3.70673 2.85978
# Velocity P-wave (km/s) = 5.68949 7.93211 6.90249
#
# Compressibility (1/GPa) = 0.01973134
#
# Stress axis : x y z
#
# Youngs Moduli (GPa) = 38.53058 85.29804 103.19766
#
# Poissons Ratio (x) = 0.30879 0.54212
# Poissons Ratio (y) = 0.13949 0.51027
# Poissons Ratio (z) = 0.20241 0.42176
#
# Static dielectric constant tensor:
#      x y z
#    x 2.933550 0.000000 0.000000 
#    y 0.000000 3.390310 0.000000 
#    z 0.000000 0.000000 3.320720 
# 
# 
# High freq. dielectric constant tensor:
#      x y z
#    x 1.618800 0.000000 0.000000 
#    y 0.000000 1.697010 0.000000 
#    z 0.000000 0.000000 1.686380 
# 
# From -- ./inp_files/45853.got.cif
#   From: 2010.03.12/outbox.cif.g09.slc.cpg/sg67_23_cif.got.tgz:45853.got - 2010.04.10 22:41:39.
