data_PCOD8278975
_publ_section_title
;
Structure prediction by ZEFSAII (Michael W. Deem and Ramdas Pophale) SiO2 
 PCOD8278975
Probable space group: C M M A
;
_chemical_formula_sum "Si O2"
_cell_formula_units_Z 64
_cell_length_a 24.648401
_cell_length_b 14.826598
_cell_length_c 8.686291
_cell_angle_alpha 90.000000
_cell_angle_beta 90.000000
_cell_angle_gamma 90.000000
_cell_volume 3174.421836
_symmetry_space_group_name_H-M "C M M A"
_symmetry_group_IT_number 67
_symmetry_cell_setting 'orthorhombic'
loop_
_space_group_symop_operation_xyz
x,y,z
-x,1/2-y,z
x,-y,-z
-x,1/2+y,-z
-x,-y,-z
x,1/2+y,-z
-x,y,z
x,1/2-y,z
1/2+x,1/2+y,z
1/2-x,-y,z
1/2+x,1/2-y,-z
1/2-x,y,-z
1/2-x,1/2-y,-z
1/2+x,y,-z
1/2-x,1/2+y,z
1/2+x,-y,z
loop_
_atom_site_type_symbol
_atom_site_label
_atom_site_fract_x
_atom_site_fract_y
_atom_site_fract_z
Si Si1 0.607534 0.146624 0.656884
Si Si2 0.689757 0.499067 0.317413
Si Si3 0.604435 0.354404 0.294123
Si Si4 0.500000 0.652121 0.205177
Si Si5 0.500000 0.409835 0.107390
O O1 0.617614 0.250000 0.705886
O O2 0.658021 0.090785 0.724670
O O3 0.597109 0.136972 0.476314
O O4 0.554430 0.102472 0.737631
O O5 0.694268 0.500000 0.500000
O O6 0.750000 0.500000 0.243762
O O7 0.658335 0.411320 0.251098
O O8 0.611724 0.250000 0.244135
O O9 0.552778 0.399738 0.213345
O O10 0.500000 0.750000 0.286766
O O11 0.500000 0.667632 0.021452
O O12 0.500000 0.500000 0.000000
#
# Coordination Sequence:
#
# PCOD8278975 Si02
#       5
#    16  16  16   8   8
#     4   9  18  33  55  80 108 141 176 217 266 317
#     4   9  18  32  51  78 108 138 179 225 263 307
#     4  10  20  35  55  80 110 143 176 216 267 321
#     4  10  19  32  51  76 103 132 168 212 259 312
#     4  12  23  34  52  78 107 140 175 218 269 320
#
# _framework density 20.161152000000001
#
# number of rings (size 3 to 8) (size 9 to 14) (size 15 to 20)
#    0.000    2.250    0.000    3.375    0.000    3.000 
#    0.000   10.000    0.000    6.750    0.000   10.500 
#    0.000    0.000    0.000    0.000    0.000    0.000 
#
# Total GULP energy -396514.962820 kJ/mol
# GULP energy per Si atom -12391.092588 kJ/mol
# Density = 2.011526 g / cm^3
# Si number density = 20.161152 Si / 1000 Ang^3
#
#
#
# Elastic Constant Matrix: (Units=GPa)
#
#
# Indices 1 2 3 4 5 6 
#
# 1 218.0976 86.7092 41.0144 0.0000 0.0000 0.0000
# 2 86.7092 143.1349 25.2502 0.0000 0.0000 0.0000
# 3 41.0144 25.2502 40.4810 0.0000 0.0000 0.0000
# 4 0.0000 0.0000 0.0000 21.9981 0.0000 0.0000
# 5 0.0000 0.0000 0.0000 0.0000 0.1016 0.0000
# 6 0.0000 0.0000 0.0000 0.0000 0.0000 26.2106
#
#
#
# Elastic Compliance Matrix: (Units=1/GPa)
#
#
# Indices 1 2 3 4 5 6 
#
# 1 0.006793 -0.003260 -0.004849 0.000000 0.000000 0.000000
# 2 -0.003260 0.009414 -0.002570 0.000000 0.000000 0.000000
# 3 -0.004849 -0.002570 0.031219 0.000000 0.000000 0.000000
# 4 0.000000 0.000000 0.000000 0.045458 0.000000 0.000000
# 5 0.000000 0.000000 0.000000 0.000000 9.842972 0.000000
# 6 0.000000 0.000000 0.000000 0.000000 0.000000 0.038153
#
#
# Mechanical properties :
#
#
# Convention : Reuss Voigt Hill
#
# Bulk Modulus (GPa) = 38.35953 78.62899 58.49426
# Shear Modulus (GPa) = 0.49980 26.24472 13.37226
#
# Velocity S-wave (km/s) = 0.49844 3.61189 2.57819
# Velocity P-wave (km/s) = 4.40443 7.51527 6.15947
#
# Compressibility (1/GPa) = 0.02606914
#
# Stress axis : x y z
#
# Youngs Moduli (GPa) = 147.21115 106.22059 32.03187
#
# Poissons Ratio (x) = 0.34624 0.15533
# Poissons Ratio (y) = 0.47986 0.08231
# Poissons Ratio (z) = 0.71386 0.27295
#
# Static dielectric constant tensor:
#      x y z
#    x 4.016330 0.000000 0.000000 
#    y 0.000000 3.942760 0.000000 
#    z 0.000000 0.000000 3.517720 
# 
# 
# High freq. dielectric constant tensor:
#      x y z
#    x 1.787290 0.000000 0.000000 
#    y 0.000000 1.801180 0.000000 
#    z 0.000000 0.000000 1.755960 
# 
# From -- ./inp_files/8042.got.cif
#   From: 2010.03.12/outbox.cif.g09.slc.cpg/sg67_5_cif.got.tgz:8042.got - 2010.04.10 22:41:39.
