data_PCOD8278894
_publ_section_title
;
Structure prediction by ZEFSAII (Michael W. Deem and Ramdas Pophale) SiO2 
 PCOD8278894
Probable space group: C M M A
;
_chemical_formula_sum "Si O2"
_cell_formula_units_Z 120
_cell_length_a 9.009705
_cell_length_b 26.962055
_cell_length_c 29.239955
_cell_angle_alpha 90.000000
_cell_angle_beta 90.000000
_cell_angle_gamma 90.000000
_cell_volume 7102.974598
_symmetry_space_group_name_H-M "C M M A"
_symmetry_group_IT_number 67
_symmetry_cell_setting 'orthorhombic'
loop_
_space_group_symop_operation_xyz
x,y,z
-x,1/2-y,z
x,-y,-z
-x,1/2+y,-z
-x,-y,-z
x,1/2+y,-z
-x,y,z
x,1/2-y,z
1/2+x,1/2+y,z
1/2-x,-y,z
1/2+x,1/2-y,-z
1/2-x,y,-z
1/2-x,1/2-y,-z
1/2+x,y,-z
1/2-x,1/2+y,z
1/2+x,-y,z
loop_
_atom_site_type_symbol
_atom_site_label
_atom_site_fract_x
_atom_site_fract_y
_atom_site_fract_z
Si Si1 0.173165 0.049345 0.377037
Si Si2 0.824957 0.192483 0.137291
Si Si3 0.175833 0.550228 0.728292
Si Si4 0.668473 0.694482 0.689869
Si Si5 0.832841 0.691194 0.044481
Si Si6 0.677499 0.750000 0.450890
Si Si7 0.826229 0.656128 0.606804
Si Si8 0.671449 0.861214 0.780020
O O1 0.222434 0.058673 0.324600
O O2 0.215304 0.098969 0.406905
O O3 0.000000 0.039032 0.379702
O O4 0.250000 0.000000 0.397574
O O5 0.786300 0.250000 0.146987
O O6 0.760569 0.175210 0.088706
O O7 0.747880 0.157804 0.174311
O O8 0.000000 0.183489 0.137664
O O9 0.250000 0.500000 0.746071
O O10 0.241912 0.591918 0.760794
O O11 0.000000 0.548174 0.734181
O O12 0.500000 0.687215 0.673399
O O13 0.724039 0.750000 0.682700
O O14 0.771103 0.660596 0.658607
O O15 0.685444 0.682233 0.742923
O O16 0.839834 0.750000 0.040636
O O17 0.000000 0.669559 0.047365
O O18 0.750000 0.669058 0.000000
O O19 0.500000 0.750000 0.454901
O O20 0.750000 0.750000 0.500000
O O21 0.737897 0.699802 0.425752
O O22 0.000000 0.662807 0.607791
O O23 0.500000 0.874753 0.789577
#
# Coordination Sequence:
#
# PCOD8278894 Si02
#       8
#    16  16  16  16  16   8  16  16
#     4   9  18  31  50  75 102 129 164 204 246 292
#     4  10  20  32  45  64  92 129 170 208 249 297
#     4  10  19  32  49  69  95 127 164 204 246 291
#     4  10  20  31  45  69  99 131 165 202 240 286
#     4   9  16  27  44  64  87 118 158 205 253 300
#     4  10  22  38  58  80 106 134 166 208 255 302
#     4  10  19  34  54  76 100 131 166 203 245 296
#     4  11  21  32  46  66  97 133 167 202 246 295
#
# _framework density 16.89433
#
# number of rings (size 3 to 8) (size 9 to 14) (size 15 to 20)
#    0.000    2.133    2.000    2.000    0.000    5.067 
#    0.000    0.000    0.000    0.400    0.000    2.800 
#    0.000    0.533    0.000    5.333    0.000    3.467 
#
# Total GULP energy -743740.498193 kJ/mol
# GULP energy per Si atom -12395.674970 kJ/mol
# Density = 1.685588 g / cm^3
# Si number density = 16.894330 Si / 1000 Ang^3
#
#
#
# Elastic Constant Matrix: (Units=GPa)
#
#
# Indices 1 2 3 4 5 6 
#
# 1 63.4513 42.5349 34.7545 0.0000 0.0000 0.0000
# 2 42.5349 116.3977 42.3541 0.0000 0.0000 0.0000
# 3 34.7545 42.3541 75.2724 0.0000 0.0000 0.0000
# 4 0.0000 0.0000 0.0000 36.6440 0.0000 0.0000
# 5 0.0000 0.0000 0.0000 0.0000 26.3221 0.0000
# 6 0.0000 0.0000 0.0000 0.0000 0.0000 26.3838
#
#
#
# Elastic Compliance Matrix: (Units=1/GPa)
#
#
# Indices 1 2 3 4 5 6 
#
# 1 0.023981 -0.005953 -0.007723 0.000000 0.000000 0.000000
# 2 -0.005953 0.012281 -0.004162 0.000000 0.000000 0.000000
# 3 -0.007723 -0.004162 0.019192 0.000000 0.000000 0.000000
# 4 0.000000 0.000000 0.000000 0.027290 0.000000 0.000000
# 5 0.000000 0.000000 0.000000 0.000000 0.037991 0.000000
# 6 0.000000 0.000000 0.000000 0.000000 0.000000 0.037902
#
#
# Mechanical properties :
#
#
# Convention : Reuss Voigt Hill
#
# Bulk Modulus (GPa) = 50.55754 54.93426 52.74590
# Shear Modulus (GPa) = 24.88745 26.90184 25.89464
#
# Velocity S-wave (km/s) = 3.84229 3.99477 3.91927
# Velocity P-wave (km/s) = 7.04805 7.33925 7.19512
#
# Compressibility (1/GPa) = 0.01977944
#
# Stress axis : x y z
#
# Youngs Moduli (GPa) = 41.70001 81.42683 52.10406
#
# Poissons Ratio (x) = 0.48475 0.40238
# Poissons Ratio (y) = 0.24825 0.21683
# Poissons Ratio (z) = 0.32203 0.33886
#
# Static dielectric constant tensor:
#      x y z
#    x 3.237360 0.000000 0.000000 
#    y 0.000000 3.624470 0.000000 
#    z 0.000000 0.000000 3.024750 
# 
# 
# High freq. dielectric constant tensor:
#      x y z
#    x 1.660640 0.000000 0.000000 
#    y 0.000000 1.637260 0.000000 
#    z 0.000000 0.000000 1.627100 
# 
# From -- ./inp_files/43940.got.cif
#   From: 2010.03.12/outbox.cif.g09.slc.cpg/sg67_22_cif.got.tgz:43940.got - 2010.04.10 22:41:39.
