data_PCOD8278080
_publ_section_title
;
Structure prediction by ZEFSAII (Michael W. Deem and Ramdas Pophale) SiO2 
 PCOD8278080
Probable space group: C M M A
;
_chemical_formula_sum "Si O2"
_cell_formula_units_Z 80
_cell_length_a 8.846121
_cell_length_b 30.377737
_cell_length_c 20.525776
_cell_angle_alpha 90.000000
_cell_angle_beta 90.000000
_cell_angle_gamma 90.000000
_cell_volume 5515.791972
_symmetry_space_group_name_H-M "C M M A"
_symmetry_group_IT_number 67
_symmetry_cell_setting 'orthorhombic'
loop_
_space_group_symop_operation_xyz
x,y,z
-x,1/2-y,z
x,-y,-z
-x,1/2+y,-z
-x,-y,-z
x,1/2+y,-z
-x,y,z
x,1/2-y,z
1/2+x,1/2+y,z
1/2-x,-y,z
1/2+x,1/2-y,-z
1/2-x,y,-z
1/2-x,1/2-y,-z
1/2+x,y,-z
1/2-x,1/2+y,z
1/2+x,-y,z
loop_
_atom_site_type_symbol
_atom_site_label
_atom_site_fract_x
_atom_site_fract_y
_atom_site_fract_z
Si Si1 0.168310 0.802501 0.435992
Si Si2 0.332965 0.197759 0.690238
Si Si3 0.323563 0.198592 0.834987
Si Si4 0.818760 0.456498 0.072089
Si Si5 0.320625 0.131517 0.070661
O O1 0.178013 0.750000 0.435161
O O2 0.250000 0.821381 0.500000
O O3 0.234672 0.822059 0.368708
O O4 0.000000 0.820028 0.440510
O O5 0.500000 0.178149 0.681635
O O6 0.339147 0.250000 0.684952
O O7 0.270702 0.185121 0.761792
O O8 0.500000 0.186867 0.845282
O O9 0.296708 0.250000 0.847272
O O10 0.217005 0.173068 0.884729
O O11 0.750000 0.500000 0.107851
O O12 0.756361 0.411598 0.104602
O O13 0.000000 0.457905 0.071686
O O14 0.750000 0.455742 0.000000
O O15 0.500000 0.125051 0.064338
O O16 0.250000 0.140415 0.000000
#
# Coordination Sequence:
#
# PCOD8278080 Si02
#       5
#    16  16  16  16  16
#     4   9  15  21  31  48  69  91 117 151 189 227
#     4   8  14  25  39  52  68  92 122 156 194 234
#     4   9  18  32  46  58  75 102 135 170 207 243
#     4  10  17  28  45  64  84 102 122 150 190 238
#     4  11  21  32  45  61  80 102 131 166 203 241
#
# _framework density 14.503811000000001
#
# number of rings (size 3 to 8) (size 9 to 14) (size 15 to 20)
#    0.000    2.600    0.000    7.200    0.000    4.000 
#    0.000    2.000    0.000    0.000    0.000    0.000 
#    0.000    0.000    0.000    0.000    0.000    1.000 
#
# Total GULP energy -495660.407686 kJ/mol
# GULP energy per Si atom -12391.510192 kJ/mol
# Density = 1.447080 g / cm^3
# Si number density = 14.503811 Si / 1000 Ang^3
#
#
#
# Elastic Constant Matrix: (Units=GPa)
#
#
# Indices 1 2 3 4 5 6 
#
# 1 123.9793 34.3412 50.3827 0.0000 0.0000 0.0000
# 2 34.3412 49.7286 32.9338 0.0000 0.0000 0.0000
# 3 50.3827 32.9338 89.3823 0.0000 0.0000 0.0000
# 4 0.0000 0.0000 0.0000 0.0242 0.0000 0.0000
# 5 0.0000 0.0000 0.0000 0.0000 24.6191 0.0000
# 6 0.0000 0.0000 0.0000 0.0000 0.0000 18.8038
#
#
#
# Elastic Compliance Matrix: (Units=1/GPa)
#
#
# Indices 1 2 3 4 5 6 
#
# 1 0.011241 -0.004718 -0.004598 0.000000 0.000000 0.000000
# 2 -0.004718 0.028580 -0.007871 0.000000 0.000000 0.000000
# 3 -0.004598 -0.007871 0.016680 0.000000 0.000000 0.000000
# 4 0.000000 0.000000 0.000000 41.282239 0.000000 0.000000
# 5 0.000000 0.000000 0.000000 0.000000 0.040619 0.000000
# 6 0.000000 0.000000 0.000000 0.000000 0.000000 0.053181
#
#
# Mechanical properties :
#
#
# Convention : Reuss Voigt Hill
#
# Bulk Modulus (GPa) = 45.19375 55.37840 50.28608
# Shear Modulus (GPa) = 0.12056 18.38492 9.25274
#
# Velocity S-wave (km/s) = 0.28862 3.56419 2.52851
# Velocity P-wave (km/s) = 5.59809 7.42986 6.57805
#
# Compressibility (1/GPa) = 0.02212695
#
# Stress axis : x y z
#
# Youngs Moduli (GPa) = 88.95843 34.98953 59.95190
#
# Poissons Ratio (x) = 0.16507 0.27567
# Poissons Ratio (y) = 0.41967 0.47190
# Poissons Ratio (z) = 0.40904 0.27541
#
# Static dielectric constant tensor:
#      x y z
#    x 2.956200 0.000000 0.000000 
#    y 0.000000 2.892740 0.000000 
#    z 0.000000 0.000000 2.814860 
# 
# 
# High freq. dielectric constant tensor:
#      x y z
#    x 1.568170 0.000000 0.000000 
#    y 0.000000 1.505000 0.000000 
#    z 0.000000 0.000000 1.535960 
# 
# From -- ./inp_files/36066.got.cif
#   From: 2010.03.12/outbox.cif.g09.slc.cpg/sg67_19_cif.got.tgz:36066.got - 2010.04.10 22:41:39.
