data_PCOD8278283
_publ_section_title
;
Structure prediction by ZEFSAII (Michael W. Deem and Ramdas Pophale) SiO2 
 PCOD8278283
Probable space group: C M M A
;
_chemical_formula_sum "Si O2"
_cell_formula_units_Z 84
_cell_length_a 13.971637
_cell_length_b 21.496332
_cell_length_c 16.639834
_cell_angle_alpha 90.000000
_cell_angle_beta 90.000000
_cell_angle_gamma 90.000000
_cell_volume 4997.590231
_symmetry_space_group_name_H-M "C M M A"
_symmetry_group_IT_number 67
_symmetry_cell_setting 'orthorhombic'
loop_
_space_group_symop_operation_xyz
x,y,z
-x,1/2-y,z
x,-y,-z
-x,1/2+y,-z
-x,-y,-z
x,1/2+y,-z
-x,y,z
x,1/2-y,z
1/2+x,1/2+y,z
1/2-x,-y,z
1/2+x,1/2-y,-z
1/2-x,y,-z
1/2-x,1/2-y,-z
1/2+x,y,-z
1/2-x,1/2+y,z
1/2+x,-y,z
loop_
_atom_site_type_symbol
_atom_site_label
_atom_site_fract_x
_atom_site_fract_y
_atom_site_fract_z
Si Si1 0.107096 0.320856 0.591368
Si Si2 0.224882 0.176196 0.127474
Si Si3 0.105107 0.675876 0.021057
Si Si4 0.289217 0.322871 0.692907
Si Si5 0.889296 0.402138 0.436143
Si Si6 0.750000 0.000000 0.500000
O O1 0.116378 0.250000 0.561980
O O2 0.181497 0.335337 0.662026
O O3 0.132373 0.362386 0.515279
O O4 0.000000 0.334601 0.623968
O O5 0.230277 0.250000 0.132589
O O6 0.325467 0.150963 0.091473
O O7 0.206054 0.150163 0.216548
O O8 0.141195 0.154396 0.067082
O O9 0.103551 0.750000 0.022796
O O10 0.000000 0.647677 0.035665
O O11 0.315742 0.250000 0.688537
O O12 0.366578 0.360642 0.641583
O O13 0.818903 0.461100 0.440490
O O14 0.000000 0.423525 0.431766
#
# Coordination Sequence:
#
# PCOD8278283 Si02
#       6
#    16  16  16  16  16   4
#     4   9  17  30  48  69  93 123 157 192 237 289
#     4   8  15  24  37  60  88 122 159 188 221 269
#     4   8  13  23  37  54  84 125 160 185 215 265
#     4  10  18  30  47  70 100 126 155 200 243 277
#     4  11  22  35  52  71  90 121 160 196 237 283
#     4  12  22  40  54  66  88 126 162 202 232 282
#
# _framework density 16.8081
#
# number of rings (size 3 to 8) (size 9 to 14) (size 15 to 20)
#    0.000    2.667    1.905    2.000    0.000    4.190 
#    0.000    5.714    0.000    0.000    0.000    0.000 
#    0.000    3.048    0.000    8.571    0.000    1.524 
#
# Total GULP energy -520621.982857 kJ/mol
# GULP energy per Si atom -12395.761497 kJ/mol
# Density = 1.676984 g / cm^3
# Si number density = 16.808100 Si / 1000 Ang^3
#
#
#
# Elastic Constant Matrix: (Units=GPa)
#
#
# Indices 1 2 3 4 5 6 
#
# 1 102.9112 28.7850 31.1713 0.0000 0.0000 0.0000
# 2 28.7850 38.6817 24.4628 0.0000 0.0000 0.0000
# 3 31.1713 24.4628 103.6975 0.0000 0.0000 0.0000
# 4 0.0000 0.0000 0.0000 1.4478 0.0000 0.0000
# 5 0.0000 0.0000 0.0000 0.0000 16.5476 0.0000
# 6 0.0000 0.0000 0.0000 0.0000 0.0000 20.6252
#
#
#
# Elastic Compliance Matrix: (Units=1/GPa)
#
#
# Indices 1 2 3 4 5 6 
#
# 1 0.012565 -0.008182 -0.001847 0.000000 0.000000 0.000000
# 2 -0.008182 0.035714 -0.005965 0.000000 0.000000 0.000000
# 3 -0.001847 -0.005965 0.011606 0.000000 0.000000 0.000000
# 4 0.000000 0.000000 0.000000 0.690682 0.000000 0.000000
# 5 0.000000 0.000000 0.000000 0.000000 0.060432 0.000000
# 6 0.000000 0.000000 0.000000 0.000000 0.000000 0.048484
#
#
# Mechanical properties :
#
#
# Convention : Reuss Voigt Hill
#
# Bulk Modulus (GPa) = 35.84827 46.01428 40.93127
# Shear Modulus (GPa) = 5.55080 18.44888 11.99984
#
# Velocity S-wave (km/s) = 1.81924 3.31663 2.67485
# Velocity P-wave (km/s) = 5.07810 6.48863 5.82621
#
# Compressibility (1/GPa) = 0.02789535
#
# Stress axis : x y z
#
# Youngs Moduli (GPa) = 79.58492 28.00051 86.16352
#
# Poissons Ratio (x) = 0.22911 0.15913
# Poissons Ratio (y) = 0.65120 0.51400
# Poissons Ratio (z) = 0.14698 0.16703
#
# Static dielectric constant tensor:
#      x y z
#    x 3.433560 0.000000 0.000000 
#    y 0.000000 2.706320 0.000000 
#    z 0.000000 0.000000 3.258300 
# 
# 
# High freq. dielectric constant tensor:
#      x y z
#    x 1.664190 0.000000 0.000000 
#    y 0.000000 1.585040 0.000000 
#    z 0.000000 0.000000 1.641410 
# 
# From -- ./inp_files/27079.got.cif
#   From: 2010.03.12/outbox.cif.g09.slc.cpg/sg67_14_cif.got.tgz:27079.got - 2010.04.10 22:41:39.
