data_PCOD8278395
_publ_section_title
;
Structure prediction by ZEFSAII (Michael W. Deem and Ramdas Pophale) SiO2 
 PCOD8278395
Probable space group: C M M A
;
_chemical_formula_sum "Si O2"
_cell_formula_units_Z 96
_cell_length_a 19.280919
_cell_length_b 16.131770
_cell_length_c 14.994587
_cell_angle_alpha 90.000000
_cell_angle_beta 90.000000
_cell_angle_gamma 90.000000
_cell_volume 4663.846626
_symmetry_space_group_name_H-M "C M M A"
_symmetry_group_IT_number 67
_symmetry_cell_setting 'orthorhombic'
loop_
_space_group_symop_operation_xyz
x,y,z
-x,1/2-y,z
x,-y,-z
-x,1/2+y,-z
-x,-y,-z
x,1/2+y,-z
-x,y,z
x,1/2-y,z
1/2+x,1/2+y,z
1/2-x,-y,z
1/2+x,1/2-y,-z
1/2-x,y,-z
1/2-x,1/2-y,-z
1/2+x,y,-z
1/2-x,1/2+y,z
1/2+x,-y,z
loop_
_atom_site_type_symbol
_atom_site_label
_atom_site_fract_x
_atom_site_fract_y
_atom_site_fract_z
Si Si1 0.923323 0.848793 0.207239
Si Si2 0.845836 0.156128 0.959946
Si Si3 0.312899 0.847641 0.314345
Si Si4 0.421189 0.651397 0.459431
Si Si5 0.715713 0.410751 0.876351
Si Si6 0.663041 0.151824 0.371813
O O1 0.918984 0.750000 0.207868
O O2 0.902863 0.880658 0.108648
O O3 0.871469 0.884943 0.281948
O O4 0.000000 0.880420 0.230515
O O5 0.863499 0.250000 0.988165
O O6 0.773508 0.156747 0.904194
O O7 0.844477 0.098689 0.048473
O O8 0.312375 0.750000 0.295619
O O9 0.380530 0.875376 0.369893
O O10 0.315815 0.894951 0.220677
O O11 0.244146 0.873106 0.370746
O O12 0.500000 0.616085 0.458155
O O13 0.423288 0.750000 0.466187
O O14 0.378040 0.614414 0.543286
O O15 0.750000 0.500000 0.882663
O O16 0.655152 0.250000 0.375085
#
# Coordination Sequence:
#
# PCOD8278395 Si02
#       6
#    16  16  16  16  16  16
#     4   9  16  26  45  76 109 135 165 209 259 307
#     4  10  18  32  53  77 104 131 166 211 263 312
#     4  10  18  31  51  78 104 134 177 220 259 304
#     4   9  17  28  46  76 112 141 168 212 267 314
#     4  11  21  33  51  74 100 135 173 216 257 307
#     4   9  15  26  46  75 106 135 170 216 263 302
#
# _framework density 20.583867000000001
#
# number of rings (size 3 to 8) (size 9 to 14) (size 15 to 20)
#    0.000    2.333    1.667    4.000    0.000    4.000 
#    0.000    0.833    0.000    9.000    0.000    1.167 
#    0.000    0.000    0.000    0.000    0.000    0.000 
#
# Total GULP energy -594959.105695 kJ/mol
# GULP energy per Si atom -12394.981369 kJ/mol
# Density = 2.053702 g / cm^3
# Si number density = 20.583867 Si / 1000 Ang^3
#
#
#
# Elastic Constant Matrix: (Units=GPa)
#
#
# Indices 1 2 3 4 5 6 
#
# 1 114.3440 9.4279 65.4405 0.0000 0.0000 0.0000
# 2 9.4279 35.2439 32.2924 0.0000 0.0000 0.0000
# 3 65.4405 32.2924 173.3005 0.0000 0.0000 0.0000
# 4 0.0000 0.0000 0.0000 7.0240 0.0000 0.0000
# 5 0.0000 0.0000 0.0000 0.0000 34.3944 0.0000
# 6 0.0000 0.0000 0.0000 0.0000 0.0000 7.0988
#
#
#
# Elastic Compliance Matrix: (Units=1/GPa)
#
#
# Indices 1 2 3 4 5 6 
#
# 1 0.011189 0.001059 -0.004423 0.000000 0.000000 0.000000
# 2 0.001059 0.034316 -0.006794 0.000000 0.000000 0.000000
# 3 -0.004423 -0.006794 0.008706 0.000000 0.000000 0.000000
# 4 0.000000 0.000000 0.000000 0.142369 0.000000 0.000000
# 5 0.000000 0.000000 0.000000 0.000000 0.029074 0.000000
# 6 0.000000 0.000000 0.000000 0.000000 0.000000 0.140869
#
#
# Mechanical properties :
#
#
# Convention : Reuss Voigt Hill
#
# Bulk Modulus (GPa) = 29.50214 59.68999 44.59607
# Shear Modulus (GPa) = 12.55846 24.08528 18.32187
#
# Velocity S-wave (km/s) = 2.47272 3.42439 2.98670
# Velocity P-wave (km/s) = 4.74513 6.68556 5.79711
#
# Compressibility (1/GPa) = 0.03389584
#
# Stress axis : x y z
#
# Youngs Moduli (GPa) = 89.37101 29.14119 114.85863
#
# Poissons Ratio (x) = -0.03086 0.50797
# Poissons Ratio (y) = -0.09464 0.78037
# Poissons Ratio (z) = 0.39525 0.19799
#
# Static dielectric constant tensor:
#      x y z
#    x 3.816580 0.000000 0.000000 
#    y 0.000000 3.112430 0.000000 
#    z 0.000000 0.000000 3.948300 
# 
# 
# High freq. dielectric constant tensor:
#      x y z
#    x 1.787610 0.000000 0.000000 
#    y 0.000000 1.749560 0.000000 
#    z 0.000000 0.000000 1.817730 
# 
# From -- ./inp_files/29285.got.cif
#   From: 2010.03.12/outbox.cif.g09.slc.cpg/sg67_15_cif.got.tgz:29285.got - 2010.04.10 22:41:39.
