data_PCOD8278742
_publ_section_title
;
Structure prediction by ZEFSAII (Michael W. Deem and Ramdas Pophale) SiO2 
 PCOD8278742
Probable space group: C M M A
;
_chemical_formula_sum "Si O2"
_cell_formula_units_Z 112
_cell_length_a 18.611858
_cell_length_b 9.917947
_cell_length_c 36.322893
_cell_angle_alpha 90.000000
_cell_angle_beta 90.000000
_cell_angle_gamma 90.000000
_cell_volume 6704.894442
_symmetry_space_group_name_H-M "C M M A"
_symmetry_group_IT_number 67
_symmetry_cell_setting 'orthorhombic'
loop_
_space_group_symop_operation_xyz
x,y,z
-x,1/2-y,z
x,-y,-z
-x,1/2+y,-z
-x,-y,-z
x,1/2+y,-z
-x,y,z
x,1/2-y,z
1/2+x,1/2+y,z
1/2-x,-y,z
1/2+x,1/2-y,-z
1/2-x,y,-z
1/2-x,1/2-y,-z
1/2+x,y,-z
1/2-x,1/2+y,z
1/2+x,-y,z
loop_
_atom_site_type_symbol
_atom_site_label
_atom_site_fract_x
_atom_site_fract_y
_atom_site_fract_z
Si Si1 0.585482 0.900979 0.612495
Si Si2 0.579500 0.409670 0.888079
Si Si3 0.414436 0.900307 0.030755
Si Si4 0.085590 0.400227 0.326082
Si Si5 0.585499 0.400857 0.469350
Si Si6 0.079520 0.090279 0.244998
Si Si7 0.820533 0.410918 0.178436
O O1 0.500000 0.903234 0.614745
O O2 0.613444 0.750000 0.620702
O O3 0.610104 0.946754 0.571563
O O4 0.618822 0.001681 0.642849
O O5 0.500000 0.470804 0.880060
O O6 0.572690 0.250000 0.887452
O O7 0.607481 0.454297 0.928585
O O8 0.634957 0.457886 0.857279
O O9 0.500000 0.896146 0.028271
O O10 0.383576 0.750000 0.023769
O O11 0.381595 0.000000 0.000000
O O12 0.116492 0.250000 0.332885
O O13 0.107434 0.455000 0.285479
O O14 0.000000 0.396112 0.328507
O O15 0.619272 0.500000 0.500000
O O16 0.500000 0.403525 0.471485
O O17 0.613368 0.250000 0.477519
O O18 0.072854 0.250000 0.244613
O O19 0.134938 0.042319 0.214157
O O20 0.000000 0.029459 0.236873
O O21 0.804273 0.250000 0.178410
O O22 0.750000 0.500000 0.178456
#
# Coordination Sequence:
#
# PCOD8278742 Si02
#       7
#    16  16  16  16  16  16  16
#     4   8  13  20  28  40  61  87 113 145 190 238
#     4   8  14  26  46  68  86 111 149 182 205 241
#     4   8  13  22  38  62  88 109 134 171 211 247
#     4   8  13  21  34  52  69  85 114 157 196 229
#     4   8  13  19  25  34  51  78 113 149 182 220
#     4   8  14  26  45  65  81 102 137 175 206 242
#     4  10  19  31  47  65  87 113 140 173 212 252
#
# _framework density 16.704215000000001
#
# number of rings (size 3 to 8) (size 9 to 14) (size 15 to 20)
#    0.000    3.714    0.000    3.000    0.000    2.286 
#    0.000    4.286    0.000    3.857    0.000    3.000 
#    0.000    0.000    0.000    0.000    0.000    0.714 
#
# Total GULP energy -693823.026864 kJ/mol
# GULP energy per Si atom -12389.696908 kJ/mol
# Density = 1.666620 g / cm^3
# Si number density = 16.704215 Si / 1000 Ang^3
#
#
#
# Elastic Constant Matrix: (Units=GPa)
#
#
# Indices 1 2 3 4 5 6 
#
# 1 45.1782 27.9274 47.5328 0.0000 0.0000 0.0000
# 2 27.9274 68.4926 76.0496 0.0000 0.0000 0.0000
# 3 47.5328 76.0496 182.3144 0.0000 0.0000 0.0000
# 4 0.0000 0.0000 0.0000 27.8291 0.0000 0.0000
# 5 0.0000 0.0000 0.0000 0.0000 1.1799 0.0000
# 6 0.0000 0.0000 0.0000 0.0000 0.0000 13.8718
#
#
#
# Elastic Compliance Matrix: (Units=1/GPa)
#
#
# Indices 1 2 3 4 5 6 
#
# 1 0.032257 -0.007106 -0.005446 0.000000 0.000000 0.000000
# 2 -0.007106 0.028762 -0.010145 0.000000 0.000000 0.000000
# 3 -0.005446 -0.010145 0.011137 0.000000 0.000000 0.000000
# 4 0.000000 0.000000 0.000000 0.035934 0.000000 0.000000
# 5 0.000000 0.000000 0.000000 0.000000 0.847544 0.000000
# 6 0.000000 0.000000 0.000000 0.000000 0.000000 0.072089
#
#
# Mechanical properties :
#
#
# Convention : Reuss Voigt Hill
#
# Bulk Modulus (GPa) = 37.36634 66.55608 51.96121
# Shear Modulus (GPa) = 4.62092 18.20785 11.41439
#
# Velocity S-wave (km/s) = 1.66503 3.30512 2.61688
# Velocity P-wave (km/s) = 5.11023 7.38210 6.34862
#
# Compressibility (1/GPa) = 0.02676206
#
# Stress axis : x y z
#
# Youngs Moduli (GPa) = 31.00124 34.76864 89.79367
#
# Poissons Ratio (x) = 0.24706 0.48901
# Poissons Ratio (y) = 0.22029 0.91094
# Poissons Ratio (z) = 0.16883 0.35272
#
# Static dielectric constant tensor:
#      x y z
#    x 2.639390 0.000000 0.000000 
#    y 0.000000 3.090890 0.000000 
#    z 0.000000 0.000000 3.738250 
# 
# 
# High freq. dielectric constant tensor:
#      x y z
#    x 1.575430 0.000000 0.000000 
#    y 0.000000 1.615000 0.000000 
#    z 0.000000 0.000000 1.664280 
# 
# From -- ./inp_files/45698.got.cif
#   From: 2010.03.12/outbox.cif.g09.slc.cpg/sg67_23_cif.got.tgz:45698.got - 2010.04.10 22:41:39.
