data_PCOD8278348
_publ_section_title
;
Structure prediction by ZEFSAII (Michael W. Deem and Ramdas Pophale) SiO2 
 PCOD8278348
Probable space group: C M M A
;
_chemical_formula_sum "Si O2"
_cell_formula_units_Z 88
_cell_length_a 18.735482
_cell_length_b 9.087619
_cell_length_c 30.013693
_cell_angle_alpha 90.000000
_cell_angle_beta 90.000000
_cell_angle_gamma 90.000000
_cell_volume 5110.159049
_symmetry_space_group_name_H-M "C M M A"
_symmetry_group_IT_number 67
_symmetry_cell_setting 'orthorhombic'
loop_
_space_group_symop_operation_xyz
x,y,z
-x,1/2-y,z
x,-y,-z
-x,1/2+y,-z
-x,-y,-z
x,1/2+y,-z
-x,y,z
x,1/2-y,z
1/2+x,1/2+y,z
1/2-x,-y,z
1/2+x,1/2-y,-z
1/2-x,y,-z
1/2-x,1/2-y,-z
1/2+x,y,-z
1/2-x,1/2+y,z
1/2+x,-y,z
loop_
_atom_site_type_symbol
_atom_site_label
_atom_site_fract_x
_atom_site_fract_y
_atom_site_fract_z
Si Si1 0.078204 0.414932 0.882293
Si Si2 0.674313 0.575554 0.802211
Si Si3 0.585142 0.416249 0.456468
Si Si4 0.417920 0.077775 0.281865
Si Si5 0.500000 0.924135 0.047413
Si Si6 0.415013 0.416014 0.630094
O O1 0.100074 0.250000 0.897875
O O2 0.135188 0.478552 0.847323
O O3 0.071071 0.521406 0.925610
O O4 0.000000 0.408089 0.858494
O O5 0.683050 0.750000 0.802726
O O6 0.750000 0.500000 0.799326
O O7 0.627709 0.524369 0.760224
O O8 0.614310 0.500000 0.500000
O O9 0.500000 0.417291 0.456191
O O10 0.614276 0.250000 0.457037
O O11 0.615365 0.497442 0.412662
O O12 0.500000 0.036140 0.272574
O O13 0.409415 0.250000 0.290979
O O14 0.387577 0.993771 0.325010
O O15 0.500000 0.750000 0.042171
O O16 0.500000 0.000000 0.000000
O O17 0.500000 0.418623 0.628894
O O18 0.385664 0.250000 0.628831
#
# Coordination Sequence:
#
# PCOD8278348 Si02
#       6
#    16  16  16  16   8  16
#     4   8  16  32  52  73 100 133 168 202 239 284
#     4  10  20  33  50  71  99 132 164 202 245 290
#     4   9  15  22  33  50  75 108 144 181 225 281
#     4   9  17  30  48  66  87 122 164 199 235 284
#     4  10  18  30  52  82 108 132 164 206 245 282
#     4   9  16  25  37  56  82 111 145 189 237 281
#
# _framework density 17.220600000000001
#
# number of rings (size 3 to 8) (size 9 to 14) (size 15 to 20)
#    0.545    2.364    0.000    2.182    0.000    8.000 
#    0.000    0.000    0.000    0.545    0.000    3.818 
#    0.000    0.727    0.000    7.636    0.000   11.455 
#
# Total GULP energy -545351.620493 kJ/mol
# GULP energy per Si atom -12394.355011 kJ/mol
# Density = 1.718140 g / cm^3
# Si number density = 17.220600 Si / 1000 Ang^3
#
#
#
# Elastic Constant Matrix: (Units=GPa)
#
#
# Indices 1 2 3 4 5 6 
#
# 1 52.5031 29.8143 49.2245 0.0000 0.0000 0.0000
# 2 29.8143 112.1195 83.4757 0.0000 0.0000 0.0000
# 3 49.2245 83.4757 175.7554 0.0000 0.0000 0.0000
# 4 0.0000 0.0000 0.0000 32.8745 0.0000 0.0000
# 5 0.0000 0.0000 0.0000 0.0000 2.5241 0.0000
# 6 0.0000 0.0000 0.0000 0.0000 0.0000 18.9833
#
#
#
# Elastic Compliance Matrix: (Units=1/GPa)
#
#
# Indices 1 2 3 4 5 6 
#
# 1 0.026216 -0.002328 -0.006237 0.000000 0.000000 0.000000
# 2 -0.002328 0.014005 -0.006000 0.000000 0.000000 0.000000
# 3 -0.006237 -0.006000 0.010286 0.000000 0.000000 0.000000
# 4 0.000000 0.000000 0.000000 0.030419 0.000000 0.000000
# 5 0.000000 0.000000 0.000000 0.000000 0.396188 0.000000
# 6 0.000000 0.000000 0.000000 0.000000 0.000000 0.052678
#
#
# Mechanical properties :
#
#
# Convention : Reuss Voigt Hill
#
# Bulk Modulus (GPa) = 46.77666 73.93411 60.35539
# Shear Modulus (GPa) = 8.83320 22.73393 15.78357
#
# Velocity S-wave (km/s) = 2.26728 3.63734 3.03074
# Velocity P-wave (km/s) = 5.83749 7.78891 6.88271
#
# Compressibility (1/GPa) = 0.02137818
#
# Stress axis : x y z
#
# Youngs Moduli (GPa) = 38.14526 71.40278 97.21847
#
# Poissons Ratio (x) = 0.16621 0.60633
# Poissons Ratio (y) = 0.08879 0.58329
# Poissons Ratio (z) = 0.23790 0.42840
#
# Static dielectric constant tensor:
#      x y z
#    x 2.701080 0.000000 0.000000 
#    y 0.000000 3.235360 0.000000 
#    z 0.000000 0.000000 3.292650 
# 
# 
# High freq. dielectric constant tensor:
#      x y z
#    x 1.603870 0.000000 0.000000 
#    y 0.000000 1.667930 0.000000 
#    z 0.000000 0.000000 1.672210 
# 
# From -- ./inp_files/45852.got.cif
#   From: 2010.03.12/outbox.cif.g09.slc.cpg/sg67_23_cif.got.tgz:45852.got - 2010.04.10 22:41:39.
