data_PCOD8278503
_publ_section_title
;
Structure prediction by ZEFSAII (Michael W. Deem and Ramdas Pophale) SiO2 
 PCOD8278503
Probable space group: C M M A
;
_chemical_formula_sum "Si O2"
_cell_formula_units_Z 120
_cell_length_a 26.211309
_cell_length_b 8.831514
_cell_length_c 27.820708
_cell_angle_alpha 90.000000
_cell_angle_beta 90.000000
_cell_angle_gamma 90.000000
_cell_volume 6440.091681
_symmetry_space_group_name_H-M "C M M A"
_symmetry_group_IT_number 67
_symmetry_cell_setting 'orthorhombic'
loop_
_space_group_symop_operation_xyz
x,y,z
-x,1/2-y,z
x,-y,-z
-x,1/2+y,-z
-x,-y,-z
x,1/2+y,-z
-x,y,z
x,1/2-y,z
1/2+x,1/2+y,z
1/2-x,-y,z
1/2+x,1/2-y,-z
1/2-x,y,-z
1/2-x,1/2-y,-z
1/2+x,y,-z
1/2-x,1/2+y,z
1/2+x,-y,z
loop_
_atom_site_type_symbol
_atom_site_label
_atom_site_fract_x
_atom_site_fract_y
_atom_site_fract_z
Si Si1 0.601462 0.072190 0.139985
Si Si2 0.060029 0.418859 0.047048
Si Si3 0.802865 0.571309 0.820500
Si Si4 0.696688 0.928321 0.380201
Si Si5 0.652809 0.571275 0.280293
Si Si6 0.557034 0.927621 0.758274
Si Si7 0.500000 0.068345 0.446870
Si Si8 0.102840 0.930090 0.552279
O O1 0.610805 0.250000 0.137288
O O2 0.568706 0.026315 0.186740
O O3 0.571570 0.018491 0.093457
O O4 0.655610 0.988231 0.141916
O O5 0.083479 0.250000 0.051921
O O6 0.000000 0.407012 0.040971
O O7 0.083787 0.500000 0.000000
O O8 0.799581 0.750000 0.823154
O O9 0.750000 0.500000 0.836572
O O10 0.816491 0.515211 0.766582
O O11 0.704017 0.750000 0.379432
O O12 0.681832 0.990479 0.327299
O O13 0.651858 0.975730 0.416423
O O14 0.750000 0.000000 0.397197
O O15 0.648201 0.750000 0.282257
O O16 0.595396 0.507451 0.278682
O O17 0.500000 0.982249 0.745801
O O18 0.562984 0.750000 0.751352
O O19 0.500000 0.250000 0.446514
O O20 0.500000 0.000000 0.500000
O O21 0.447881 0.003943 0.422817
O O22 0.095574 0.750000 0.548715
O O23 0.112000 0.000000 0.500000
#
# Coordination Sequence:
#
# PCOD8278503 Si02
#       8
#    16  16  16  16  16  16   8  16
#     4  10  19  32  51  74 102 136 172 212 259 306
#     4  10  20  33  50  74 104 137 173 212 254 303
#     4  10  19  32  52  76 101 129 168 214 257 305
#     4  10  22  38  56  78 106 140 177 218 266 316
#     4   9  19  35  52  74 102 135 174 212 257 310
#     4   9  18  32  50  74 105 138 172 212 258 309
#     4  10  18  32  56  82 106 134 170 212 258 306
#     4  10  20  36  57  81 109 140 175 217 264 316
#
# _framework density 18.633275000000001
#
# number of rings (size 3 to 8) (size 9 to 14) (size 15 to 20)
#    0.000    2.267    0.000    3.800    0.000    4.533 
#    1.200    1.333    0.000    0.400    0.000    2.800 
#    0.000    0.000    0.000    0.000    0.000    0.000 
#
# Total GULP energy -744016.001208 kJ/mol
# GULP energy per Si atom -12400.266687 kJ/mol
# Density = 1.859086 g / cm^3
# Si number density = 18.633275 Si / 1000 Ang^3
#
#
#
# Elastic Constant Matrix: (Units=GPa)
#
#
# Indices 1 2 3 4 5 6 
#
# 1 121.0002 37.8148 27.0227 0.0000 0.0000 0.0000
# 2 37.8148 70.5151 22.3672 0.0000 0.0000 0.0000
# 3 27.0227 22.3672 62.4710 0.0000 0.0000 0.0000
# 4 0.0000 0.0000 0.0000 25.5124 0.0000 0.0000
# 5 0.0000 0.0000 0.0000 0.0000 337.4957 0.0000
# 6 0.0000 0.0000 0.0000 0.0000 0.0000 36.1975
#
#
#
# Elastic Compliance Matrix: (Units=1/GPa)
#
#
# Indices 1 2 3 4 5 6 
#
# 1 0.010347 -0.004658 -0.002808 0.000000 0.000000 0.000000
# 2 -0.004658 0.018095 -0.004464 0.000000 0.000000 0.000000
# 3 -0.002808 -0.004464 0.018820 0.000000 0.000000 0.000000
# 4 0.000000 0.000000 0.000000 0.039197 0.000000 0.000000
# 5 0.000000 0.000000 0.000000 0.000000 0.002963 0.000000
# 6 0.000000 0.000000 0.000000 0.000000 0.000000 0.027626
#
#
# Mechanical properties :
#
#
# Convention : Reuss Voigt Hill
#
# Bulk Modulus (GPa) = 42.73012 47.59951 45.16482
# Shear Modulus (GPa) = 33.62248 90.95990 62.29119
#
# Velocity S-wave (km/s) = 4.25247 6.99441 5.78815
# Velocity P-wave (km/s) = 6.86245 9.53048 8.30431
#
# Compressibility (1/GPa) = 0.02340270
#
# Stress axis : x y z
#
# Youngs Moduli (GPa) = 96.64310 55.26286 53.13402
#
# Poissons Ratio (x) = 0.25743 0.14920
# Poissons Ratio (y) = 0.45019 0.23718
# Poissons Ratio (z) = 0.27138 0.24669
#
# Static dielectric constant tensor:
#      x y z
#    x 3.698820 0.000000 0.000000 
#    y 0.000000 3.452380 0.000000 
#    z 0.000000 0.000000 3.331790 
# 
# 
# High freq. dielectric constant tensor:
#      x y z
#    x 1.725370 0.000000 0.000000 
#    y 0.000000 1.729410 0.000000 
#    z 0.000000 0.000000 1.704040 
# 
# From -- ./inp_files/44990.got.cif
#   From: 2010.03.12/outbox.cif.g09.slc.cpg/sg67_23_cif.got.tgz:44990.got - 2010.04.10 22:41:39.
