data_PCOD8278039
_publ_section_title
;
Structure prediction by ZEFSAII (Michael W. Deem and Ramdas Pophale) SiO2 
 PCOD8278039
Probable space group: C M M A
;
_chemical_formula_sum "Si O2"
_cell_formula_units_Z 96
_cell_length_a 8.906000
_cell_length_b 19.008438
_cell_length_c 31.504494
_cell_angle_alpha 90.000000
_cell_angle_beta 90.000000
_cell_angle_gamma 90.000000
_cell_volume 5333.368974
_symmetry_space_group_name_H-M "C M M A"
_symmetry_group_IT_number 67
_symmetry_cell_setting 'orthorhombic'
loop_
_space_group_symop_operation_xyz
x,y,z
-x,1/2-y,z
x,-y,-z
-x,1/2+y,-z
-x,-y,-z
x,1/2+y,-z
-x,y,z
x,1/2-y,z
1/2+x,1/2+y,z
1/2-x,-y,z
1/2+x,1/2-y,-z
1/2-x,y,-z
1/2-x,1/2-y,-z
1/2+x,y,-z
1/2-x,1/2+y,z
1/2+x,-y,z
loop_
_atom_site_type_symbol
_atom_site_label
_atom_site_fract_x
_atom_site_fract_y
_atom_site_fract_z
Si Si1 0.668925 0.833897 0.541936
Si Si2 0.824768 0.670025 0.793943
Si Si3 0.831028 0.166079 0.374166
Si Si4 0.830946 0.833789 0.290581
Si Si5 0.680521 0.922280 0.958202
Si Si6 0.178570 0.575840 0.873827
O O1 0.500000 0.862214 0.541762
O O2 0.673444 0.750000 0.541917
O O3 0.750000 0.863547 0.500000
O O4 0.748860 0.863497 0.584056
O O5 0.772969 0.750000 0.802647
O O6 0.744318 0.637903 0.752533
O O7 0.778964 0.624581 0.834432
O O8 0.000000 0.666403 0.784719
O O9 0.825421 0.250000 0.373981
O O10 0.752850 0.135730 0.331892
O O11 0.000000 0.138012 0.374951
O O12 0.822522 0.750000 0.291112
O O13 0.000000 0.861607 0.292058
O O14 0.500000 0.922858 0.959747
O O15 0.743172 0.887153 0.914971
O O16 0.750000 0.000000 0.957404
O O17 0.750000 0.883602 0.000000
O O18 0.250000 0.500000 0.864969
O O19 0.000000 0.569139 0.880936
#
# Coordination Sequence:
#
# PCOD8278039 Si02
#       6
#    16  16  16  16  16  16
#     4   9  15  21  28  39  57  82 115 156 202 250
#     4   9  18  32  48  65  87 117 150 183 220 262
#     4   9  15  22  32  45  63  89 122 161 204 249
#     4   9  16  25  38  56  76  99 131 172 213 252
#     4  10  17  27  44  66  92 118 147 181 217 257
#     4  10  19  31  48  70  95 120 148 182 220 262
#
# _framework density 17.999879
#
# number of rings (size 3 to 8) (size 9 to 14) (size 15 to 20)
#    0.000    2.667    0.000    5.000    0.000    7.333 
#    0.000    0.000    0.000    0.500    0.000    0.000 
#    0.000    0.000    0.000    0.000    0.000    0.833 
#
# Total GULP energy -594981.412492 kJ/mol
# GULP energy per Si atom -12395.446094 kJ/mol
# Density = 1.795891 g / cm^3
# Si number density = 17.999879 Si / 1000 Ang^3
#
#
#
# Elastic Constant Matrix: (Units=GPa)
#
#
# Indices 1 2 3 4 5 6 
#
# 1 155.4138 18.6308 106.6059 0.0000 0.0000 0.0000
# 2 18.6308 19.3011 30.9237 0.0000 0.0000 0.0000
# 3 106.6059 30.9237 218.6770 0.0000 0.0000 0.0000
# 4 0.0000 0.0000 0.0000 -2.2398 0.0000 0.0000
# 5 0.0000 0.0000 0.0000 0.0000 41.4421 0.0000
# 6 0.0000 0.0000 0.0000 0.0000 0.0000 9.0735
#
#
#
# Elastic Compliance Matrix: (Units=1/GPa)
#
#
# Indices 1 2 3 4 5 6 
#
# 1 0.009747 -0.002321 -0.004423 0.000000 0.000000 0.000000
# 2 -0.002321 0.067541 -0.008419 0.000000 0.000000 0.000000
# 3 -0.004423 -0.008419 0.007920 0.000000 0.000000 0.000000
# 4 0.000000 0.000000 0.000000 -0.446464 0.000000 0.000000
# 5 0.000000 0.000000 0.000000 0.000000 0.024130 0.000000
# 6 0.000000 0.000000 0.000000 0.000000 0.000000 0.110211
#
#
# Mechanical properties :
#
#
# Convention : Reuss Voigt Hill
#
# Bulk Modulus (GPa) = 18.22185 78.41251 48.31718
# Shear Modulus (GPa) = -28.04364 25.47060 -1.28652
#
# Velocity S-wave (km/s) = -3.95142 3.76579 -0.84634
# Velocity P-wave (km/s) = 3.26696 7.90984 5.09375
#
# Compressibility (1/GPa) = 0.05487918
#
# Stress axis : x y z
#
# Youngs Moduli (GPa) = 102.59630 14.80590 126.26268
#
# Poissons Ratio (x) = 0.03437 0.55851
# Poissons Ratio (y) = 0.23816 1.06306
# Poissons Ratio (z) = 0.45382 0.12466
#
# Static dielectric constant tensor:
#      x y z
#    x 3.477250 0.000000 0.000000 
#    y 0.000000 2.554560 0.000000 
#    z 0.000000 0.000000 3.982520 
# 
# 
# High freq. dielectric constant tensor:
#      x y z
#    x 1.714030 0.000000 0.000000 
#    y 0.000000 1.600380 0.000000 
#    z 0.000000 0.000000 1.726310 
# 
# From -- ./inp_files/43668.got.cif
#   From: 2010.03.12/outbox.cif.g09.slc.cpg/sg67_22_cif.got.tgz:43668.got - 2010.04.10 22:41:39.
