data_PCOD8278537
_publ_section_title
;
Structure prediction by ZEFSAII (Michael W. Deem and Ramdas Pophale) SiO2 
 PCOD8278537
Probable space group: C M M A
;
_chemical_formula_sum "Si O2"
_cell_formula_units_Z 80
_cell_length_a 23.625158
_cell_length_b 8.881560
_cell_length_c 20.288265
_cell_angle_alpha 90.000000
_cell_angle_beta 90.000000
_cell_angle_gamma 90.000000
_cell_volume 4257.051309
_symmetry_space_group_name_H-M "C M M A"
_symmetry_group_IT_number 67
_symmetry_cell_setting 'orthorhombic'
loop_
_space_group_symop_operation_xyz
x,y,z
-x,1/2-y,z
x,-y,-z
-x,1/2+y,-z
-x,-y,-z
x,1/2+y,-z
-x,y,z
x,1/2-y,z
1/2+x,1/2+y,z
1/2-x,-y,z
1/2+x,1/2-y,-z
1/2-x,y,-z
1/2-x,1/2-y,-z
1/2+x,y,-z
1/2-x,1/2+y,z
1/2+x,-y,z
loop_
_atom_site_type_symbol
_atom_site_label
_atom_site_fract_x
_atom_site_fract_y
_atom_site_fract_z
Si Si1 0.000000 0.073358 0.597243
Si Si2 0.882667 0.071079 0.434900
Si Si3 0.810841 0.928347 0.691585
Si Si4 0.887056 0.078526 0.189806
Si Si5 0.064621 0.573243 0.068243
Si Si6 0.500000 0.916970 0.270933
O O1 0.000000 0.250000 0.581570
O O2 0.054486 0.995070 0.566287
O O3 0.000000 0.047501 0.675447
O O4 0.884407 0.250000 0.440266
O O5 0.849094 0.018068 0.369820
O O6 0.852724 0.000000 0.500000
O O7 0.805690 0.750000 0.691064
O O8 0.838660 0.982623 0.760587
O O9 0.750000 0.000000 0.683974
O O10 0.874509 0.250000 0.169235
O O11 0.945952 0.064019 0.226356
O O12 0.891098 0.979326 0.124018
O O13 0.069020 0.750000 0.060560
O O14 0.000000 0.523623 0.085302
O O15 0.084188 0.500000 0.000000
O O16 0.500000 0.750000 0.304652
#
# Coordination Sequence:
#
# PCOD8278537 Si02
#       6
#     8  16  16  16  16   8
#     4  12  23  35  56  87 118 149 184 229 280 339
#     4  11  23  41  60  83 114 150 187 229 285 343
#     4  10  23  41  61  82 109 146 191 238 286 335
#     4  10  19  35  58  82 111 150 185 227 282 333
#     4  10  20  32  50  82 120 155 187 223 269 329
#     4  10  18  33  56  81 114 149 184 227 282 343
#
# _framework density 18.792349999999999
#
# number of rings (size 3 to 8) (size 9 to 14) (size 15 to 20)
#    0.000    1.600    3.000    2.400    0.000    4.400 
#    0.000    2.000    0.000    0.600    0.000    4.200 
#    0.000    0.000    0.000    0.000    0.000    0.000 
#
# Total GULP energy -496009.567206 kJ/mol
# GULP energy per Si atom -12400.239180 kJ/mol
# Density = 1.874958 g / cm^3
# Si number density = 18.792350 Si / 1000 Ang^3
#
#
#
# Elastic Constant Matrix: (Units=GPa)
#
#
# Indices 1 2 3 4 5 6 
#
# 1 100.7234 33.1034 51.9300 0.0000 0.0000 0.0000
# 2 33.1034 72.6817 57.3914 0.0000 0.0000 0.0000
# 3 51.9300 57.3914 156.0141 0.0000 0.0000 0.0000
# 4 0.0000 0.0000 0.0000 38.2466 0.0000 0.0000
# 5 0.0000 0.0000 0.0000 0.0000 245.2025 0.0000
# 6 0.0000 0.0000 0.0000 0.0000 0.0000 28.0662
#
#
#
# Elastic Compliance Matrix: (Units=1/GPa)
#
#
# Indices 1 2 3 4 5 6 
#
# 1 0.012557 -0.003409 -0.002926 0.000000 0.000000 0.000000
# 2 -0.003409 0.020317 -0.006339 0.000000 0.000000 0.000000
# 3 -0.002926 -0.006339 0.009715 0.000000 0.000000 0.000000
# 4 0.000000 0.000000 0.000000 0.026146 0.000000 0.000000
# 5 0.000000 0.000000 0.000000 0.000000 0.004078 0.000000
# 6 0.000000 0.000000 0.000000 0.000000 0.000000 0.035630
#
#
# Mechanical properties :
#
#
# Convention : Reuss Voigt Hill
#
# Bulk Modulus (GPa) = 57.99870 68.25209 63.12540
# Shear Modulus (GPa) = 35.83256 74.76936 55.30096
#
# Velocity S-wave (km/s) = 4.37139 6.31455 5.43059
# Velocity P-wave (km/s) = 7.51057 9.46375 8.54316
#
# Compressibility (1/GPa) = 0.01724177
#
# Stress axis : x y z
#
# Youngs Moduli (GPa) = 79.63739 49.22055 102.92997
#
# Poissons Ratio (x) = 0.16779 0.30113
# Poissons Ratio (y) = 0.27148 0.65247
# Poissons Ratio (z) = 0.23299 0.31201
#
# Static dielectric constant tensor:
#      x y z
#    x 3.822900 0.000000 0.000000 
#    y 0.000000 3.425370 0.000000 
#    z 0.000000 0.000000 3.697900 
# 
# 
# High freq. dielectric constant tensor:
#      x y z
#    x 1.702780 0.000000 0.000000 
#    y 0.000000 1.727840 0.000000 
#    z 0.000000 0.000000 1.743750 
# 
# From -- ./inp_files/35796.got.cif
#   From: 2010.03.12/outbox.cif.g09.slc.cpg/sg67_18_cif.got.tgz:35796.got - 2010.04.10 22:41:39.
