data_PCOD8278818
_publ_section_title
;
Structure prediction by ZEFSAII (Michael W. Deem and Ramdas Pophale) SiO2 
 PCOD8278818
Probable space group: C M M A
;
_chemical_formula_sum "Si O2"
_cell_formula_units_Z 104
_cell_length_a 29.584807
_cell_length_b 9.312502
_cell_length_c 21.335294
_cell_angle_alpha 90.000000
_cell_angle_beta 90.000000
_cell_angle_gamma 90.000000
_cell_volume 5878.056433
_symmetry_space_group_name_H-M "C M M A"
_symmetry_group_IT_number 67
_symmetry_cell_setting 'orthorhombic'
loop_
_space_group_symop_operation_xyz
x,y,z
-x,1/2-y,z
x,-y,-z
-x,1/2+y,-z
-x,-y,-z
x,1/2+y,-z
-x,y,z
x,1/2-y,z
1/2+x,1/2+y,z
1/2-x,-y,z
1/2+x,1/2-y,-z
1/2-x,y,-z
1/2-x,1/2-y,-z
1/2+x,y,-z
1/2-x,1/2+y,z
1/2+x,-y,z
loop_
_atom_site_type_symbol
_atom_site_label
_atom_site_fract_x
_atom_site_fract_y
_atom_site_fract_z
Si Si1 0.447044 0.250000 0.594518
Si Si2 0.920480 0.412693 0.121176
Si Si3 0.000000 0.919944 0.064671
Si Si4 0.888579 0.907580 0.230557
Si Si5 0.674985 0.417000 0.936198
Si Si6 0.707592 0.416868 0.185927
Si Si7 0.946796 0.459257 0.650255
Si Si8 0.552479 0.250000 0.457133
O O1 0.500000 0.250000 0.582303
O O2 0.432902 0.121293 0.639106
O O3 0.423113 0.250000 0.525509
O O4 0.939950 0.250000 0.123183
O O5 0.956286 0.531199 0.101770
O O6 0.907529 0.459552 0.191140
O O7 0.878902 0.420837 0.073410
O O8 0.000000 0.750000 0.054685
O O9 0.000000 0.000000 0.000000
O O10 0.896357 0.750000 0.198560
O O11 0.834335 0.930972 0.234439
O O12 0.913655 0.899950 0.296865
O O13 0.691276 0.250000 0.938712
O O14 0.698221 0.502731 0.879810
O O15 0.687526 0.500000 0.000000
O O16 0.719138 0.250000 0.172825
O O17 0.750000 0.500000 0.217183
O O18 0.934725 0.387836 0.583853
O O19 0.000000 0.434505 0.668185
O O20 0.500000 0.250000 0.471256
#
# Coordination Sequence:
#
# PCOD8278818 Si02
#       8
#     8  16   8  16  16  16  16   8
#     4   9  18  30  46  74 109 147 187 218 260 288
#     4  10  22  37  53  74 100 137 175 224 268 311
#     4  12  24  38  54  72  98 134 181 226 267 316
#     4  10  21  36  53  76 108 139 177 217 264 315
#     4  10  20  35  56  80 104 131 164 208 265 326
#     4  10  21  38  57  77 103 133 169 217 268 320
#     4  10  19  31  49  76 110 149 183 218 255 308
#     4   9  16  30  50  72 105 149 185 220 252 306
#
# _framework density 17.692923
#
# number of rings (size 3 to 8) (size 9 to 14) (size 15 to 20)
#    0.000    2.000    0.769    3.000    2.154    5.846 
#    0.000    1.538    0.000    0.000    0.000    0.000 
#    0.000    3.692    0.000    0.000    0.000    0.000 
#
# Total GULP energy -644378.119448 kJ/mol
# GULP energy per Si atom -12391.886912 kJ/mol
# Density = 1.765265 g / cm^3
# Si number density = 17.692923 Si / 1000 Ang^3
#
#
#
# Elastic Constant Matrix: (Units=GPa)
#
#
# Indices 1 2 3 4 5 6 
#
# 1 81.0258 42.2928 32.6379 0.0000 0.0000 0.0000
# 2 42.2928 147.3647 25.5667 0.0000 0.0000 0.0000
# 3 32.6379 25.5667 64.7657 0.0000 0.0000 0.0000
# 4 0.0000 0.0000 0.0000 31.9357 0.0000 0.0000
# 5 0.0000 0.0000 0.0000 0.0000 12.8408 0.0000
# 6 0.0000 0.0000 0.0000 0.0000 0.0000 25.2389
#
#
#
# Elastic Compliance Matrix: (Units=1/GPa)
#
#
# Indices 1 2 3 4 5 6 
#
# 1 0.017159 -0.003676 -0.007196 0.000000 0.000000 0.000000
# 2 -0.003676 0.008072 -0.001334 0.000000 0.000000 0.000000
# 3 -0.007196 -0.001334 0.019593 0.000000 0.000000 0.000000
# 4 0.000000 0.000000 0.000000 0.031313 0.000000 0.000000
# 5 0.000000 0.000000 0.000000 0.000000 0.077877 0.000000
# 6 0.000000 0.000000 0.000000 0.000000 0.000000 0.039621
#
#
# Mechanical properties :
#
#
# Convention : Reuss Voigt Hill
#
# Bulk Modulus (GPa) = 48.98986 54.90568 51.94777
# Shear Modulus (GPa) = 22.23680 26.84700 24.54190
#
# Velocity S-wave (km/s) = 3.54901 3.89959 3.72842
# Velocity P-wave (km/s) = 6.67406 7.16768 6.92527
#
# Compressibility (1/GPa) = 0.02041239
#
# Stress axis : x y z
#
# Youngs Moduli (GPa) = 58.27789 123.87944 51.03806
#
# Poissons Ratio (x) = 0.45540 0.36727
# Poissons Ratio (y) = 0.21424 0.06809
# Poissons Ratio (z) = 0.41937 0.16526
#
# Static dielectric constant tensor:
#      x y z
#    x 3.221800 0.000000 0.000000 
#    y 0.000000 3.354530 0.000000 
#    z 0.000000 0.000000 3.108980 
# 
# 
# High freq. dielectric constant tensor:
#      x y z
#    x 1.656850 0.000000 0.000000 
#    y 0.000000 1.711980 0.000000 
#    z 0.000000 0.000000 1.662170 
# 
# From -- ./inp_files/42797.got.cif
#   From: 2010.03.12/outbox.cif.g09.slc.cpg/sg67_22_cif.got.tgz:42797.got - 2010.04.10 22:41:39.
