data_PCOD8278483
_publ_section_title
;
Structure prediction by ZEFSAII (Michael W. Deem and Ramdas Pophale) SiO2 
 PCOD8278483
Probable space group: C M M A
;
_chemical_formula_sum "Si O2"
_cell_formula_units_Z 72
_cell_length_a 19.872351
_cell_length_b 8.615718
_cell_length_c 24.411270
_cell_angle_alpha 90.000000
_cell_angle_beta 90.000000
_cell_angle_gamma 90.000000
_cell_volume 4179.565150
_symmetry_space_group_name_H-M "C M M A"
_symmetry_group_IT_number 67
_symmetry_cell_setting 'orthorhombic'
loop_
_space_group_symop_operation_xyz
x,y,z
-x,1/2-y,z
x,-y,-z
-x,1/2+y,-z
-x,-y,-z
x,1/2+y,-z
-x,y,z
x,1/2-y,z
1/2+x,1/2+y,z
1/2-x,-y,z
1/2+x,1/2-y,-z
1/2-x,y,-z
1/2-x,1/2-y,-z
1/2+x,y,-z
1/2-x,1/2+y,z
1/2+x,-y,z
loop_
_atom_site_type_symbol
_atom_site_label
_atom_site_fract_x
_atom_site_fract_y
_atom_site_fract_z
Si Si1 0.423989 0.933572 0.057306
Si Si2 0.500000 0.934173 0.560407
Si Si3 0.677573 0.434093 0.850345
Si Si4 0.574345 0.074118 0.653065
Si Si5 0.678502 0.932198 0.733896
O O1 0.500000 0.992555 0.068529
O O2 0.421415 0.750000 0.054189
O O3 0.376584 0.995817 0.105836
O O4 0.396777 0.000000 0.000000
O O5 0.500000 0.750000 0.559504
O O6 0.500000 0.000000 0.500000
O O7 0.566473 0.998229 0.592372
O O8 0.681194 0.250000 0.849193
O O9 0.750000 0.500000 0.867037
O O10 0.654679 0.493034 0.790903
O O11 0.500000 0.073837 0.681265
O O12 0.601992 0.250000 0.648244
O O13 0.624217 0.969211 0.687818
O O14 0.685642 0.750000 0.742046
O O15 0.750000 0.000000 0.715135
#
# Coordination Sequence:
#
# PCOD8278483 Si02
#       5
#    16   8  16  16  16
#     4   9  19  35  53  72  95 126 163 206 256 309
#     4  10  18  32  54  82 112 144 181 220 261 304
#     4  10  20  34  51  72  99 131 168 208 256 311
#     4   9  19  34  53  78 107 140 177 218 262 306
#     4  11  21  34  53  76 106 140 176 217 264 317
#
# _framework density 17.226672000000001
#
# number of rings (size 3 to 8) (size 9 to 14) (size 15 to 20)
#    0.667    1.556    0.000    5.333    0.000    3.111 
#    0.000    4.444    0.000    0.667    0.000    4.667 
#    0.000    0.000    0.000    0.000    0.000    0.000 
#
# Total GULP energy -446300.599002 kJ/mol
# GULP energy per Si atom -12397.238861 kJ/mol
# Density = 1.718746 g / cm^3
# Si number density = 17.226672 Si / 1000 Ang^3
#
#
#
# Elastic Constant Matrix: (Units=GPa)
#
#
# Indices 1 2 3 4 5 6 
#
# 1 81.1776 27.7948 74.6773 0.0000 0.0000 0.0000
# 2 27.7948 87.9542 34.1507 0.0000 0.0000 0.0000
# 3 74.6773 34.1507 134.4704 0.0000 0.0000 0.0000
# 4 0.0000 0.0000 0.0000 32.4788 0.0000 0.0000
# 5 0.0000 0.0000 0.0000 0.0000 10.8439 0.0000
# 6 0.0000 0.0000 0.0000 0.0000 0.0000 27.6145
#
#
#
# Elastic Compliance Matrix: (Units=1/GPa)
#
#
# Indices 1 2 3 4 5 6 
#
# 1 0.025825 -0.002876 -0.013611 0.000000 0.000000 0.000000
# 2 -0.002876 0.012934 -0.001687 0.000000 0.000000 0.000000
# 3 -0.013611 -0.001687 0.015424 0.000000 0.000000 0.000000
# 4 0.000000 0.000000 0.000000 0.030789 0.000000 0.000000
# 5 0.000000 0.000000 0.000000 0.000000 0.092218 0.000000
# 6 0.000000 0.000000 0.000000 0.000000 0.000000 0.036213
#
#
# Mechanical properties :
#
#
# Convention : Reuss Voigt Hill
#
# Bulk Modulus (GPa) = 56.07602 64.09419 60.08510
# Shear Modulus (GPa) = 19.55448 25.31940 22.43694
#
# Velocity S-wave (km/s) = 3.37282 3.83793 3.61287
# Velocity P-wave (km/s) = 6.91306 7.54498 7.23592
#
# Compressibility (1/GPa) = 0.01783294
#
# Stress axis : x y z
#
# Youngs Moduli (GPa) = 38.72276 77.31772 64.83408
#
# Poissons Ratio (x) = 0.22237 0.88246
# Poissons Ratio (y) = 0.11137 0.10941
# Poissons Ratio (z) = 0.52706 0.13047
#
# Static dielectric constant tensor:
#      x y z
#    x 3.204190 0.000000 0.000000 
#    y 0.000000 3.256880 0.000000 
#    z 0.000000 0.000000 3.269720 
# 
# 
# High freq. dielectric constant tensor:
#      x y z
#    x 1.652640 0.000000 0.000000 
#    y 0.000000 1.680370 0.000000 
#    z 0.000000 0.000000 1.657490 
# 
# From -- ./inp_files/35358.got.cif
#   From: 2010.03.12/outbox.cif.g09.slc.cpg/sg67_18_cif.got.tgz:35358.got - 2010.04.10 22:41:39.
