data_PCOD8278795
_publ_section_title
;
Structure prediction by ZEFSAII (Michael W. Deem and Ramdas Pophale) SiO2 
 PCOD8278795
Probable space group: C M M A
;
_chemical_formula_sum "Si O2"
_cell_formula_units_Z 80
_cell_length_a 26.345526
_cell_length_b 9.683701
_cell_length_c 17.453473
_cell_angle_alpha 90.000000
_cell_angle_beta 90.000000
_cell_angle_gamma 90.000000
_cell_volume 4452.768368
_symmetry_space_group_name_H-M "C M M A"
_symmetry_group_IT_number 67
_symmetry_cell_setting 'orthorhombic'
loop_
_space_group_symop_operation_xyz
x,y,z
-x,1/2-y,z
x,-y,-z
-x,1/2+y,-z
-x,-y,-z
x,1/2+y,-z
-x,y,z
x,1/2-y,z
1/2+x,1/2+y,z
1/2-x,-y,z
1/2+x,1/2-y,-z
1/2-x,y,-z
1/2-x,1/2-y,-z
1/2+x,y,-z
1/2-x,1/2+y,z
1/2+x,-y,z
loop_
_atom_site_type_symbol
_atom_site_label
_atom_site_fract_x
_atom_site_fract_y
_atom_site_fract_z
Si Si1 0.943626 0.250000 0.109688
Si Si2 0.699038 0.079581 0.922302
Si Si3 0.559731 0.250000 0.440507
Si Si4 0.440264 0.250000 0.609915
Si Si5 0.938982 0.750000 0.058445
Si Si6 0.397319 0.513252 0.838533
Si Si7 0.439942 0.968590 0.681811
O O1 0.934225 0.117714 0.161311
O O2 0.000000 0.250000 0.080080
O O3 0.914586 0.250000 0.027646
O O4 0.705187 0.250000 0.931286
O O5 0.658974 0.043809 0.855510
O O6 0.750000 0.000000 0.895934
O O7 0.681914 0.000000 0.000000
O O8 0.500000 0.250000 0.451519
O O9 0.585264 0.250000 0.524935
O O10 0.576672 0.382558 0.392304
O O11 0.500000 0.250000 0.597364
O O12 0.423302 0.121760 0.660510
O O13 0.915634 0.615893 0.096504
O O14 0.000000 0.750000 0.065061
O O15 0.405795 0.579748 0.754510
O O16 0.500000 0.949496 0.700070
#
# Coordination Sequence:
#
# PCOD8278795 Si02
#       7
#     8  16   8   8   8  16  16
#     4  11  21  35  50  71 104 144 187 219 254 316
#     4  11  24  42  64  84 104 136 183 237 290 339
#     4   9  17  31  47  70 102 143 186 217 251 306
#     4   9  17  29  49  70 100 143 182 217 255 304
#     4  11  23  35  50  73 106 152 191 221 256 312
#     4  12  23  35  54  78 109 142 181 229 280 322
#     4  10  19  31  48  74 108 144 178 216 263 316
#
# _framework density 17.966352000000001
#
# number of rings (size 3 to 8) (size 9 to 14) (size 15 to 20)
#    0.000    1.400    1.000    6.600    2.800    5.600 
#    0.000    0.000    0.000    0.000    0.000    0.000 
#    0.000    4.800    0.000    0.000    0.000    0.000 
#
# Total GULP energy -495596.985752 kJ/mol
# GULP energy per Si atom -12389.924644 kJ/mol
# Density = 1.792546 g / cm^3
# Si number density = 17.966352 Si / 1000 Ang^3
#
#
#
# Elastic Constant Matrix: (Units=GPa)
#
#
# Indices 1 2 3 4 5 6 
#
# 1 59.8080 19.3766 24.8352 0.0000 0.0000 0.0000
# 2 19.3766 90.2501 -4.3407 0.0000 0.0000 0.0000
# 3 24.8352 -4.3407 83.7976 0.0000 0.0000 0.0000
# 4 0.0000 0.0000 0.0000 51.9692 0.0000 0.0000
# 5 0.0000 0.0000 0.0000 0.0000 15.9532 0.0000
# 6 0.0000 0.0000 0.0000 0.0000 0.0000 20.3028
#
#
#
# Elastic Compliance Matrix: (Units=1/GPa)
#
#
# Indices 1 2 3 4 5 6 
#
# 1 0.020962 -0.004811 -0.006462 0.000000 0.000000 0.000000
# 2 -0.004811 0.012212 0.002059 0.000000 0.000000 0.000000
# 3 -0.006462 0.002059 0.013955 0.000000 0.000000 0.000000
# 4 0.000000 0.000000 0.000000 0.019242 0.000000 0.000000
# 5 0.000000 0.000000 0.000000 0.000000 0.062684 0.000000
# 6 0.000000 0.000000 0.000000 0.000000 0.000000 0.049254
#
#
# Mechanical properties :
#
#
# Convention : Reuss Voigt Hill
#
# Bulk Modulus (GPa) = 34.84258 34.84421 34.84340
# Shear Modulus (GPa) = 24.23585 30.57733 27.40659
#
# Velocity S-wave (km/s) = 3.67680 4.12991 3.90993
# Velocity P-wave (km/s) = 6.12050 6.49444 6.31024
#
# Compressibility (1/GPa) = 0.02870051
#
# Stress axis : x y z
#
# Youngs Moduli (GPa) = 47.70485 81.88453 71.65764
#
# Poissons Ratio (x) = 0.39398 0.46304
# Poissons Ratio (y) = 0.22953 -0.14751
# Poissons Ratio (z) = 0.30826 -0.16856
#
# Static dielectric constant tensor:
#      x y z
#    x 2.997340 0.000000 0.000000 
#    y 0.000000 3.736830 0.000000 
#    z 0.000000 0.000000 3.346340 
# 
# 
# High freq. dielectric constant tensor:
#      x y z
#    x 1.640420 0.000000 0.000000 
#    y 0.000000 1.719800 0.000000 
#    z 0.000000 0.000000 1.695750 
# 
# From -- ./inp_files/35828.got.cif
#   From: 2010.03.12/outbox.cif.g09.slc.cpg/sg67_18_cif.got.tgz:35828.got - 2010.04.10 22:41:39.
