data_PCOD8278796
_publ_section_title
;
Structure prediction by ZEFSAII (Michael W. Deem and Ramdas Pophale) SiO2 
 PCOD8278796
Probable space group: C M M A
;
_chemical_formula_sum "Si O2"
_cell_formula_units_Z 72
_cell_length_a 9.517023
_cell_length_b 22.801232
_cell_length_c 18.251513
_cell_angle_alpha 90.000000
_cell_angle_beta 90.000000
_cell_angle_gamma 90.000000
_cell_volume 3960.575572
_symmetry_space_group_name_H-M "C M M A"
_symmetry_group_IT_number 67
_symmetry_cell_setting 'orthorhombic'
loop_
_space_group_symop_operation_xyz
x,y,z
-x,1/2-y,z
x,-y,-z
-x,1/2+y,-z
-x,-y,-z
x,1/2+y,-z
-x,y,z
x,1/2-y,z
1/2+x,1/2+y,z
1/2-x,-y,z
1/2+x,1/2-y,-z
1/2-x,y,-z
1/2-x,1/2-y,-z
1/2+x,y,-z
1/2-x,1/2+y,z
1/2+x,-y,z
loop_
_atom_site_type_symbol
_atom_site_label
_atom_site_fract_x
_atom_site_fract_y
_atom_site_fract_z
Si Si1 0.345149 0.414896 0.432796
Si Si2 0.667524 0.060497 0.931737
Si Si3 0.165491 0.183414 0.673515
Si Si4 0.750000 0.500000 0.684478
Si Si5 0.843455 0.107631 0.224562
O O1 0.500000 0.406857 0.465323
O O2 0.250000 0.435262 0.500000
O O3 0.289589 0.353521 0.398504
O O4 0.352615 0.463235 0.368539
O O5 0.500000 0.050418 0.946967
O O6 0.688953 0.101166 0.861251
O O7 0.750000 0.000000 0.917664
O O8 0.750000 0.091119 0.000000
O O9 0.215375 0.250000 0.662008
O O10 0.237279 0.156060 0.745045
O O11 0.000000 0.178683 0.686343
O O12 0.835257 0.544511 0.735657
O O13 0.000000 0.131720 0.236790
#
# Coordination Sequence:
#
# PCOD8278796 Si02
#       5
#    16  16  16   8  16
#     4  10  21  34  51  73 100 133 167 208 255 307
#     4  10  19  31  48  75 109 142 173 204 245 298
#     4   9  20  38  56  74  98 132 173 214 261 311
#     4  10  19  34  51  72 106 136 170 204 253 310
#     4  10  20  33  53  79 105 135 172 213 255 299
#
# _framework density 18.179175999999998
#
# number of rings (size 3 to 8) (size 9 to 14) (size 15 to 20)
#    0.000    2.222    1.111    2.333    0.000    8.889 
#    0.000    0.000    0.000    0.667    0.000    0.000 
#    0.000    0.000    0.000    0.000    0.000    0.000 
#
# Total GULP energy -446216.109307 kJ/mol
# GULP energy per Si atom -12394.891925 kJ/mol
# Density = 1.813780 g / cm^3
# Si number density = 18.179176 Si / 1000 Ang^3
#
#
#
# Elastic Constant Matrix: (Units=GPa)
#
#
# Indices 1 2 3 4 5 6 
#
# 1 79.0309 16.0851 39.8779 0.0000 0.0000 0.0000
# 2 16.0851 86.5462 28.0469 0.0000 0.0000 0.0000
# 3 39.8779 28.0469 106.9882 0.0000 0.0000 0.0000
# 4 0.0000 0.0000 0.0000 17.0074 0.0000 0.0000
# 5 0.0000 0.0000 0.0000 0.0000 27.4862 0.0000
# 6 0.0000 0.0000 0.0000 0.0000 0.0000 22.8759
#
#
#
# Elastic Compliance Matrix: (Units=1/GPa)
#
#
# Indices 1 2 3 4 5 6 
#
# 1 0.015682 -0.001115 -0.005553 0.000000 0.000000 0.000000
# 2 -0.001115 0.012707 -0.002915 0.000000 0.000000 0.000000
# 3 -0.005553 -0.002915 0.012181 0.000000 0.000000 0.000000
# 4 0.000000 0.000000 0.000000 0.058798 0.000000 0.000000
# 5 0.000000 0.000000 0.000000 0.000000 0.036382 0.000000
# 6 0.000000 0.000000 0.000000 0.000000 0.000000 0.043714
#
#
# Mechanical properties :
#
#
# Convention : Reuss Voigt Hill
#
# Bulk Modulus (GPa) = 46.72294 48.95390 47.83842
# Shear Modulus (GPa) = 24.29962 26.04426 25.17194
#
# Velocity S-wave (km/s) = 3.66002 3.78913 3.72514
# Velocity P-wave (km/s) = 6.60440 6.79194 6.69883
#
# Compressibility (1/GPa) = 0.02140276
#
# Stress axis : x y z
#
# Youngs Moduli (GPa) = 63.76667 78.69959 82.09618
#
# Poissons Ratio (x) = 0.08776 0.45587
# Poissons Ratio (y) = 0.07111 0.23934
# Poissons Ratio (z) = 0.35409 0.22944
#
# Static dielectric constant tensor:
#      x y z
#    x 3.333710 0.000000 0.000000 
#    y 0.000000 3.280830 0.000000 
#    z 0.000000 0.000000 3.491970 
# 
# 
# High freq. dielectric constant tensor:
#      x y z
#    x 1.708970 0.000000 0.000000 
#    y 0.000000 1.677930 0.000000 
#    z 0.000000 0.000000 1.708060 
# 
# From -- ./inp_files/31950.got.cif
#   From: 2010.03.12/outbox.cif.g09.slc.cpg/sg67_16_cif.got.tgz:31950.got - 2010.04.10 22:41:39.
