data_PCOD8278569
_publ_section_title
;
Structure prediction by ZEFSAII (Michael W. Deem and Ramdas Pophale) SiO2 
 PCOD8278569
Probable space group: C M M A
;
_chemical_formula_sum "Si O2"
_cell_formula_units_Z 112
_cell_length_a 18.865104
_cell_length_b 25.561585
_cell_length_c 12.232014
_cell_angle_alpha 90.000000
_cell_angle_beta 90.000000
_cell_angle_gamma 90.000000
_cell_volume 5898.545759
_symmetry_space_group_name_H-M "C M M A"
_symmetry_group_IT_number 67
_symmetry_cell_setting 'orthorhombic'
loop_
_space_group_symop_operation_xyz
x,y,z
-x,1/2-y,z
x,-y,-z
-x,1/2+y,-z
-x,-y,-z
x,1/2+y,-z
-x,y,z
x,1/2-y,z
1/2+x,1/2+y,z
1/2-x,-y,z
1/2+x,1/2-y,-z
1/2-x,y,-z
1/2-x,1/2-y,-z
1/2+x,y,-z
1/2-x,1/2+y,z
1/2+x,-y,z
loop_
_atom_site_type_symbol
_atom_site_label
_atom_site_fract_x
_atom_site_fract_y
_atom_site_fract_z
Si Si1 0.917463 0.810877 0.287951
Si Si2 0.669658 0.890552 0.858159
Si Si3 0.419494 0.147347 0.524414
Si Si4 0.673255 0.504466 0.197711
Si Si5 0.581076 0.307709 0.753558
Si Si6 0.675142 0.952565 0.440056
Si Si7 0.664572 0.391623 0.890155
O O1 0.901319 0.750000 0.266295
O O2 0.867131 0.844894 0.210540
O O3 0.897493 0.824027 0.412917
O O4 0.000000 0.823425 0.264069
O O5 0.754416 0.888597 0.847948
O O6 0.638571 0.946561 0.812746
O O7 0.650686 0.879858 0.983677
O O8 0.500000 0.126972 0.517303
O O9 0.409598 0.187862 0.623042
O O10 0.370464 0.098742 0.551199
O O11 0.750000 0.500000 0.140144
O O12 0.685371 0.527838 0.317615
O O13 0.632167 0.549983 0.131029
O O14 0.500000 0.315993 0.786945
O O15 0.607335 0.250000 0.787271
O O16 0.625062 0.349577 0.818728
O O17 0.750000 0.942479 0.500000
O O18 0.634165 0.000000 0.500000
#
# Coordination Sequence:
#
# PCOD8278569 Si02
#       7
#    16  16  16  16  16  16  16
#     4  10  22  40  60  82 112 152 193 234 286 344
#     4  10  22  38  60  84 113 150 194 238 281 330
#     4  10  21  37  57  82 114 148 187 231 284 345
#     4  10  18  35  57  85 116 149 185 226 280 341
#     4  10  21  38  60  84 113 150 190 236 288 341
#     4  11  20  31  54  87 116 150 183 226 279 338
#     4  10  21  38  59  86 113 150 194 235 281 335
#
# _framework density 18.987731
#
# number of rings (size 3 to 8) (size 9 to 14) (size 15 to 20)
#    0.000    1.857    2.857    1.714    2.000    5.429 
#    0.000    4.286    0.000    4.286    0.000    0.000 
#    0.000    0.000    0.000    0.000    0.000    0.000 
#
# Total GULP energy -694010.836159 kJ/mol
# GULP energy per Si atom -12393.050646 kJ/mol
# Density = 1.894451 g / cm^3
# Si number density = 18.987731 Si / 1000 Ang^3
#
#
#
# Elastic Constant Matrix: (Units=GPa)
#
#
# Indices 1 2 3 4 5 6 
#
# 1 55.6677 58.9985 46.0657 0.0000 0.0000 0.0000
# 2 58.9985 160.4616 66.6983 0.0000 0.0000 0.0000
# 3 46.0657 66.6983 124.7709 0.0000 0.0000 0.0000
# 4 0.0000 0.0000 0.0000 4.5402 0.0000 0.0000
# 5 0.0000 0.0000 0.0000 0.0000 6.2819 0.0000
# 6 0.0000 0.0000 0.0000 0.0000 0.0000 39.5317
#
#
#
# Elastic Compliance Matrix: (Units=1/GPa)
#
#
# Indices 1 2 3 4 5 6 
#
# 1 0.034254 -0.009434 -0.007604 0.000000 0.000000 0.000000
# 2 -0.009434 0.010611 -0.002189 0.000000 0.000000 0.000000
# 3 -0.007604 -0.002189 0.011992 0.000000 0.000000 0.000000
# 4 0.000000 0.000000 0.000000 0.220256 0.000000 0.000000
# 5 0.000000 0.000000 0.000000 0.000000 0.159188 0.000000
# 6 0.000000 0.000000 0.000000 0.000000 0.000000 0.025296
#
#
# Mechanical properties :
#
#
# Convention : Reuss Voigt Hill
#
# Bulk Modulus (GPa) = 54.33685 76.04725 65.19205
# Shear Modulus (GPa) = 9.87781 21.34659 15.61220
#
# Velocity S-wave (km/s) = 2.28331 3.35659 2.87056
# Velocity P-wave (km/s) = 5.96911 7.42698 6.73759
#
# Compressibility (1/GPa) = 0.01840372
#
# Stress axis : x y z
#
# Youngs Moduli (GPa) = 29.19325 94.24500 83.38788
#
# Poissons Ratio (x) = 0.88912 0.63406
# Poissons Ratio (y) = 0.27541 0.18254
# Poissons Ratio (z) = 0.22198 0.20630
#
# Static dielectric constant tensor:
#      x y z
#    x 3.298600 0.000000 0.000000 
#    y 0.000000 3.679840 0.000000 
#    z 0.000000 0.000000 3.592290 
# 
# 
# High freq. dielectric constant tensor:
#      x y z
#    x 1.706980 0.000000 0.000000 
#    y 0.000000 1.754070 0.000000 
#    z 0.000000 0.000000 1.751040 
# 
# From -- ./inp_files/21063.got.cif
#   From: 2010.03.12/outbox.cif.g09.slc.cpg/sg67_11_cif.got.tgz:21063.got - 2010.04.10 22:41:39.
