data_PCOD8278108
_publ_section_title
;
Structure prediction by ZEFSAII (Michael W. Deem and Ramdas Pophale) SiO2 
 PCOD8278108
Probable space group: C M M A
;
_chemical_formula_sum "Si O2"
_cell_formula_units_Z 64
_cell_length_a 18.603532
_cell_length_b 8.643160
_cell_length_c 20.672057
_cell_angle_alpha 90.000000
_cell_angle_beta 90.000000
_cell_angle_gamma 90.000000
_cell_volume 3323.928338
_symmetry_space_group_name_H-M "C M M A"
_symmetry_group_IT_number 67
_symmetry_cell_setting 'orthorhombic'
loop_
_space_group_symop_operation_xyz
x,y,z
-x,1/2-y,z
x,-y,-z
-x,1/2+y,-z
-x,-y,-z
x,1/2+y,-z
-x,y,z
x,1/2-y,z
1/2+x,1/2+y,z
1/2-x,-y,z
1/2+x,1/2-y,-z
1/2-x,y,-z
1/2-x,1/2-y,-z
1/2+x,y,-z
1/2-x,1/2+y,z
1/2+x,-y,z
loop_
_atom_site_type_symbol
_atom_site_label
_atom_site_fract_x
_atom_site_fract_y
_atom_site_fract_z
Si Si1 0.673426 0.431168 0.432316
Si Si2 0.416270 0.570994 0.691622
Si Si3 0.328408 0.931246 0.195136
Si Si4 0.670025 0.933279 0.935543
O O1 0.645706 0.500000 0.500000
O O2 0.682929 0.250000 0.440867
O O3 0.750000 0.500000 0.411596
O O4 0.615563 0.474096 0.377970
O O5 0.500000 0.533819 0.689739
O O6 0.400637 0.750000 0.708057
O O7 0.380297 0.463940 0.745279
O O8 0.320132 0.750000 0.183703
O O9 0.250000 0.000000 0.209978
O O10 0.365505 0.007322 0.131172
O O11 0.669822 0.750000 0.938270
O O12 0.750000 0.000000 0.934513
O O13 0.630350 0.000000 0.000000
#
# Coordination Sequence:
#
# PCOD8278108 Si02
#       4
#    16  16  16  16
#     4  10  20  35  57  82 108 139 175 218 265 316
#     4  10  22  39  56  77 108 144 180 221 270 320
#     4  11  21  34  54  80 108 141 182 224 269 320
#     4  10  17  28  47  74 107 139 174 219 270 319
#
# _framework density 19.254325999999999
#
# number of rings (size 3 to 8) (size 9 to 14) (size 15 to 20)
#    0.000    1.750    0.000    9.000    0.000    5.000 
#    0.000    0.000    0.000    0.750    0.000    0.000 
#    0.000    0.000    0.000    0.000    0.000    0.000 
#
# Total GULP energy -396804.179710 kJ/mol
# GULP energy per Si atom -12400.130616 kJ/mol
# Density = 1.921050 g / cm^3
# Si number density = 19.254326 Si / 1000 Ang^3
#
#
#
# Elastic Constant Matrix: (Units=GPa)
#
#
# Indices 1 2 3 4 5 6 
#
# 1 75.3057 38.6730 62.4026 0.0000 0.0000 0.0000
# 2 38.6730 157.3554 73.5825 0.0000 0.0000 0.0000
# 3 62.4026 73.5825 158.7978 0.0000 0.0000 0.0000
# 4 0.0000 0.0000 0.0000 48.5940 0.0000 0.0000
# 5 0.0000 0.0000 0.0000 0.0000 -1.2885 0.0000
# 6 0.0000 0.0000 0.0000 0.0000 0.0000 17.8742
#
#
#
# Elastic Compliance Matrix: (Units=1/GPa)
#
#
# Indices 1 2 3 4 5 6 
#
# 1 0.019996 -0.001583 -0.007124 0.000000 0.000000 0.000000
# 2 -0.001583 0.008238 -0.003195 0.000000 0.000000 0.000000
# 3 -0.007124 -0.003195 0.010578 0.000000 0.000000 0.000000
# 4 0.000000 0.000000 0.000000 0.020579 0.000000 0.000000
# 5 0.000000 0.000000 0.000000 0.000000 -0.776084 0.000000
# 6 0.000000 0.000000 0.000000 0.000000 0.000000 0.055947
#
#
# Mechanical properties :
#
#
# Convention : Reuss Voigt Hill
#
# Bulk Modulus (GPa) = 66.63752 82.30833 74.47292
# Shear Modulus (GPa) = -7.91214 27.48933 9.78859
#
# Velocity S-wave (km/s) = -2.02933 3.78259 2.25718
# Velocity P-wave (km/s) = 5.40308 7.86880 6.74949
#
# Compressibility (1/GPa) = 0.01500656
#
# Stress axis : x y z
#
# Youngs Moduli (GPa) = 50.01101 121.38457 94.53990
#
# Poissons Ratio (x) = 0.19214 0.67352
# Poissons Ratio (y) = 0.07916 0.30209
# Poissons Ratio (z) = 0.35629 0.38787
#
# Static dielectric constant tensor:
#      x y z
#    x 3.098030 0.000000 0.000000 
#    y 0.000000 3.577540 0.000000 
#    z 0.000000 0.000000 4.373630 
# 
# 
# High freq. dielectric constant tensor:
#      x y z
#    x 1.702140 0.000000 0.000000 
#    y 0.000000 1.763260 0.000000 
#    z 0.000000 0.000000 1.775970 
# 
# From -- ./inp_files/36567.got.cif
#   From: 2010.03.12/outbox.cif.g09.slc.cpg/sg67_19_cif.got.tgz:36567.got - 2010.04.10 22:41:39.
