data_PCOD8278922
_publ_section_title
;
Structure prediction by ZEFSAII (Michael W. Deem and Ramdas Pophale) SiO2 
 PCOD8278922
Probable space group: C M M A
;
_chemical_formula_sum "Si O2"
_cell_formula_units_Z 80
_cell_length_a 18.962832
_cell_length_b 8.640885
_cell_length_c 25.645764
_cell_angle_alpha 90.000000
_cell_angle_beta 90.000000
_cell_angle_gamma 90.000000
_cell_volume 4202.203345
_symmetry_space_group_name_H-M "C M M A"
_symmetry_group_IT_number 67
_symmetry_cell_setting 'orthorhombic'
loop_
_space_group_symop_operation_xyz
x,y,z
-x,1/2-y,z
x,-y,-z
-x,1/2+y,-z
-x,-y,-z
x,1/2+y,-z
-x,y,z
x,1/2-y,z
1/2+x,1/2+y,z
1/2-x,-y,z
1/2+x,1/2-y,-z
1/2-x,y,-z
1/2-x,1/2-y,-z
1/2+x,y,-z
1/2-x,1/2+y,z
1/2+x,-y,z
loop_
_atom_site_type_symbol
_atom_site_label
_atom_site_fract_x
_atom_site_fract_y
_atom_site_fract_z
Si Si1 0.422375 0.933241 0.146976
Si Si2 0.417323 0.929464 0.263731
Si Si3 0.672688 0.065711 0.946466
Si Si4 0.419838 0.932641 0.444613
Si Si5 0.327399 0.931087 0.646891
O O1 0.500000 0.004210 0.137693
O O2 0.426866 0.750000 0.142747
O O3 0.395612 0.977011 0.204832
O O4 0.371341 0.999390 0.102491
O O5 0.500000 0.960359 0.273143
O O6 0.400031 0.750000 0.274919
O O7 0.371459 0.036050 0.301069
O O8 0.674332 0.250000 0.948747
O O9 0.750000 0.000000 0.939183
O O10 0.639015 0.000000 0.000000
O O11 0.500000 0.984157 0.431126
O O12 0.413740 0.750000 0.446768
O O13 0.396254 0.000000 0.500000
O O14 0.366846 0.995374 0.401872
O O15 0.321295 0.750000 0.637930
O O16 0.250000 0.000000 0.652627
#
# Coordination Sequence:
#
# PCOD8278922 Si02
#       5
#    16  16  16  16  16
#     4   8  16  32  54  78 103 134 172 214 262 315
#     4   9  18  36  60  82 107 141 179 219 268 326
#     4  10  19  32  50  72 101 136 174 214 259 313
#     4  10  21  39  63  89 116 147 184 224 268 320
#     4  12  25  39  56  81 114 148 185 227 272 321
#
# _framework density 19.037631000000001
#
# number of rings (size 3 to 8) (size 9 to 14) (size 15 to 20)
#    0.000    2.200    0.000    5.400    0.000    5.600 
#    0.000    6.000    0.000    4.200    0.000    0.000 
#    0.000    0.000    0.000    0.000    0.000    0.000 
#
# Total GULP energy -495987.816698 kJ/mol
# GULP energy per Si atom -12399.695417 kJ/mol
# Density = 1.899430 g / cm^3
# Si number density = 19.037631 Si / 1000 Ang^3
#
#
#
# Elastic Constant Matrix: (Units=GPa)
#
#
# Indices 1 2 3 4 5 6 
#
# 1 85.7702 25.0656 73.9512 0.0000 0.0000 0.0000
# 2 25.0656 63.6445 33.3419 0.0000 0.0000 0.0000
# 3 73.9512 33.3419 158.5184 0.0000 0.0000 0.0000
# 4 0.0000 0.0000 0.0000 29.5909 0.0000 0.0000
# 5 0.0000 0.0000 0.0000 0.0000 -0.2878 0.0000
# 6 0.0000 0.0000 0.0000 0.0000 0.0000 23.9157
#
#
#
# Elastic Compliance Matrix: (Units=1/GPa)
#
#
# Indices 1 2 3 4 5 6 
#
# 1 0.020131 -0.003381 -0.008680 0.000000 0.000000 0.000000
# 2 -0.003381 0.018226 -0.002256 0.000000 0.000000 0.000000
# 3 -0.008680 -0.002256 0.010833 0.000000 0.000000 0.000000
# 4 0.000000 0.000000 0.000000 0.033794 0.000000 0.000000
# 5 0.000000 0.000000 0.000000 0.000000 -3.474750 0.000000
# 6 0.000000 0.000000 0.000000 0.000000 0.000000 0.041813
#
#
# Mechanical properties :
#
#
# Convention : Reuss Voigt Hill
#
# Bulk Modulus (GPa) = 48.65141 63.62785 56.13963
# Shear Modulus (GPa) = -1.50854 22.34873 10.42010
#
# Velocity S-wave (km/s) = -0.89113 3.42997 2.34207
# Velocity P-wave (km/s) = 4.95500 7.01292 6.07178
#
# Compressibility (1/GPa) = 0.02055439
#
# Stress axis : x y z
#
# Youngs Moduli (GPa) = 49.67348 54.86718 92.31427
#
# Poissons Ratio (x) = 0.18551 0.80133
# Poissons Ratio (y) = 0.16795 0.20828
# Poissons Ratio (z) = 0.43119 0.12379
#
# Static dielectric constant tensor:
#      x y z
#    x 3.588330 0.000000 0.000000 
#    y 0.000000 3.352700 0.000000 
#    z 0.000000 0.000000 3.794640 
# 
# 
# High freq. dielectric constant tensor:
#      x y z
#    x 1.736400 0.000000 0.000000 
#    y 0.000000 1.728060 0.000000 
#    z 0.000000 0.000000 1.757630 
# 
# From -- ./inp_files/43299.got.cif
#   From: 2010.03.12/outbox.cif.g09.slc.cpg/sg67_22_cif.got.tgz:43299.got - 2010.04.10 22:41:39.
