data_PCOD8278020
_publ_section_title
;
Structure prediction by ZEFSAII (Michael W. Deem and Ramdas Pophale) SiO2 
 PCOD8278020
Probable space group: C M M A
;
_chemical_formula_sum "Si O2"
_cell_formula_units_Z 96
_cell_length_a 8.663121
_cell_length_b 27.152411
_cell_length_c 24.154095
_cell_angle_alpha 90.000000
_cell_angle_beta 90.000000
_cell_angle_gamma 90.000000
_cell_volume 5681.637865
_symmetry_space_group_name_H-M "C M M A"
_symmetry_group_IT_number 67
_symmetry_cell_setting 'orthorhombic'
loop_
_space_group_symop_operation_xyz
x,y,z
-x,1/2-y,z
x,-y,-z
-x,1/2+y,-z
-x,-y,-z
x,1/2+y,-z
-x,y,z
x,1/2-y,z
1/2+x,1/2+y,z
1/2-x,-y,z
1/2+x,1/2-y,-z
1/2-x,y,-z
1/2-x,1/2-y,-z
1/2+x,y,-z
1/2-x,1/2+y,z
1/2+x,-y,z
loop_
_atom_site_type_symbol
_atom_site_label
_atom_site_fract_x
_atom_site_fract_y
_atom_site_fract_z
Si Si1 0.182467 0.054159 0.832393
Si Si2 0.321566 0.195019 0.660713
Si Si3 0.316486 0.445226 0.944799
Si Si4 0.320111 0.853002 0.558849
Si Si5 0.318288 0.399517 0.726871
Si Si6 0.317111 0.949059 0.622762
O O1 0.253943 0.078939 0.888097
O O2 0.227030 0.090753 0.783159
O O3 0.000000 0.049776 0.838526
O O4 0.250000 0.000000 0.820634
O O5 0.500000 0.187500 0.646307
O O6 0.286815 0.250000 0.683137
O O7 0.230292 0.187200 0.603813
O O8 0.271951 0.155637 0.707377
O O9 0.500000 0.445089 0.946083
O O10 0.250000 0.500000 0.944483
O O11 0.250000 0.418026 0.000000
O O12 0.500000 0.850177 0.551979
O O13 0.250000 0.839875 0.500000
O O14 0.267991 0.907241 0.578974
O O15 0.500000 0.405571 0.736932
O O16 0.263533 0.438790 0.681422
O O17 0.500000 0.951444 0.631203
O O18 0.250000 0.000000 0.599086
#
# Coordination Sequence:
#
# PCOD8278020 Si02
#       6
#    16  16  16  16  16  16
#     4  11  20  30  44  65  94 128 164 197 230 267
#     4   9  19  36  56  74  92 116 146 183 230 280
#     4  10  17  27  41  60  88 124 164 200 234 268
#     4  10  21  35  51  71  94 119 149 185 223 269
#     4  10  19  32  49  69  93 119 150 189 230 273
#     4  10  20  33  48  67  91 121 154 186 224 267
#
# _framework density 16.896536000000001
#
# number of rings (size 3 to 8) (size 9 to 14) (size 15 to 20)
#    0.000    2.000    0.000    6.500    0.000    3.667 
#    0.000    1.667    0.000    0.000    0.000    0.000 
#    0.000    0.667    0.000    1.833    0.000    3.000 
#
# Total GULP energy -595188.479310 kJ/mol
# GULP energy per Si atom -12399.759986 kJ/mol
# Density = 1.685808 g / cm^3
# Si number density = 16.896536 Si / 1000 Ang^3
#
#
#
# Elastic Constant Matrix: (Units=GPa)
#
#
# Indices 1 2 3 4 5 6 
#
# 1 100.2767 21.1462 42.7401 0.0000 0.0000 0.0000
# 2 21.1462 72.4887 27.3902 0.0000 0.0000 0.0000
# 3 42.7401 27.3902 123.3345 0.0000 0.0000 0.0000
# 4 0.0000 0.0000 0.0000 14.7358 0.0000 0.0000
# 5 0.0000 0.0000 0.0000 0.0000 29.2345 0.0000
# 6 0.0000 0.0000 0.0000 0.0000 0.0000 17.4865
#
#
#
# Elastic Compliance Matrix: (Units=1/GPa)
#
#
# Indices 1 2 3 4 5 6 
#
# 1 0.011988 -0.002104 -0.003687 0.000000 0.000000 0.000000
# 2 -0.002104 0.015428 -0.002697 0.000000 0.000000 0.000000
# 3 -0.003687 -0.002697 0.009985 0.000000 0.000000 0.000000
# 4 0.000000 0.000000 0.000000 0.067862 0.000000 0.000000
# 5 0.000000 0.000000 0.000000 0.000000 0.034206 0.000000
# 6 0.000000 0.000000 0.000000 0.000000 0.000000 0.057187
#
#
# Mechanical properties :
#
#
# Convention : Reuss Voigt Hill
#
# Bulk Modulus (GPa) = 48.96112 53.18367 51.07239
# Shear Modulus (GPa) = 22.68195 25.94624 24.31410
#
# Velocity S-wave (km/s) = 3.66786 3.92292 3.79753
# Velocity P-wave (km/s) = 6.85401 7.21550 7.03708
#
# Compressibility (1/GPa) = 0.02042437
#
# Stress axis : x y z
#
# Youngs Moduli (GPa) = 83.42020 64.81663 100.15337
#
# Poissons Ratio (x) = 0.13636 0.36926
# Poissons Ratio (y) = 0.17550 0.27014
# Poissons Ratio (z) = 0.30756 0.17482
#
# Static dielectric constant tensor:
#      x y z
#    x 3.268200 0.000000 0.000000 
#    y 0.000000 2.974930 0.000000 
#    z 0.000000 0.000000 2.870890 
# 
# 
# High freq. dielectric constant tensor:
#      x y z
#    x 1.670160 0.000000 0.000000 
#    y 0.000000 1.611410 0.000000 
#    z 0.000000 0.000000 1.653410 
# 
# From -- ./inp_files/40796.got.cif
#   From: 2010.03.12/outbox.cif.g09.slc.cpg/sg67_21_cif.got.tgz:40796.got - 2010.04.10 22:41:39.
