data_PCOD8278428
_publ_section_title
;
Structure prediction by ZEFSAII (Michael W. Deem and Ramdas Pophale) SiO2 
 PCOD8278428
Probable space group: C M M A
;
_chemical_formula_sum "Si O2"
_cell_formula_units_Z 112
_cell_length_a 17.879005
_cell_length_b 20.001963
_cell_length_c 17.937480
_cell_angle_alpha 90.000000
_cell_angle_beta 90.000000
_cell_angle_gamma 90.000000
_cell_volume 6414.715435
_symmetry_space_group_name_H-M "C M M A"
_symmetry_group_IT_number 67
_symmetry_cell_setting 'orthorhombic'
loop_
_space_group_symop_operation_xyz
x,y,z
-x,1/2-y,z
x,-y,-z
-x,1/2+y,-z
-x,-y,-z
x,1/2+y,-z
-x,y,z
x,1/2-y,z
1/2+x,1/2+y,z
1/2-x,-y,z
1/2+x,1/2-y,-z
1/2-x,y,-z
1/2-x,1/2-y,-z
1/2+x,y,-z
1/2-x,1/2+y,z
1/2+x,-y,z
loop_
_atom_site_type_symbol
_atom_site_label
_atom_site_fract_x
_atom_site_fract_y
_atom_site_fract_z
Si Si1 0.783832 0.931745 0.303595
Si Si2 0.418113 0.672451 0.339911
Si Si3 0.087582 0.564026 0.041743
Si Si4 0.913286 0.471411 0.797503
Si Si5 0.269188 0.328245 0.585019
Si Si6 0.345321 0.112206 0.800063
Si Si7 0.673023 0.827605 0.040086
O O1 0.867462 0.944408 0.273633
O O2 0.786642 0.872860 0.364928
O O3 0.733216 0.911298 0.233617
O O4 0.750000 0.000000 0.339299
O O5 0.500000 0.638070 0.354414
O O6 0.429001 0.750000 0.351210
O O7 0.354630 0.647538 0.398333
O O8 0.390164 0.659566 0.256399
O O9 0.111869 0.568229 0.128275
O O10 0.000000 0.554582 0.037915
O O11 0.125418 0.500000 0.000000
O O12 0.108126 0.632594 0.001570
O O13 0.897779 0.548895 0.815904
O O14 0.000000 0.461276 0.777838
O O15 0.258132 0.250000 0.605606
O O16 0.250000 0.342423 0.500000
O O17 0.325638 0.153482 0.873418
O O18 0.654927 0.750000 0.031286
O O19 0.750000 0.847330 0.000000
#
# Coordination Sequence:
#
# PCOD8278428 Si02
#       7
#    16  16  16  16  16  16  16
#     4   9  19  33  52  78 103 132 169 209 255 311
#     4   9  17  29  48  76 105 130 161 207 261 312
#     4  10  20  35  52  71  97 135 177 216 264 319
#     4  10  19  33  52  73  99 131 174 219 261 311
#     4   9  18  34  55  77 105 142 177 210 257 318
#     4  10  18  32  51  72  98 132 170 211 262 317
#     4  11  23  35  49  74 104 134 174 224 273 320
#
# _framework density 17.459855000000001
#
# number of rings (size 3 to 8) (size 9 to 14) (size 15 to 20)
#    0.000    2.286    1.429    1.714    0.000    2.000 
#    0.000    1.429    0.000    2.143    0.000    6.000 
#    0.000    0.000    0.000    0.000    0.000    0.000 
#
# Total GULP energy -694257.790988 kJ/mol
# GULP energy per Si atom -12397.460553 kJ/mol
# Density = 1.742012 g / cm^3
# Si number density = 17.459855 Si / 1000 Ang^3
#
#
#
# Elastic Constant Matrix: (Units=GPa)
#
#
# Indices 1 2 3 4 5 6 
#
# 1 75.4996 22.1164 51.5799 0.0000 0.0000 0.0000
# 2 22.1164 69.6753 45.2856 0.0000 0.0000 0.0000
# 3 51.5799 45.2856 116.3084 0.0000 0.0000 0.0000
# 4 0.0000 0.0000 0.0000 29.9699 0.0000 0.0000
# 5 0.0000 0.0000 0.0000 0.0000 17.2491 0.0000
# 6 0.0000 0.0000 0.0000 0.0000 0.0000 22.5444
#
#
#
# Elastic Compliance Matrix: (Units=1/GPa)
#
#
# Indices 1 2 3 4 5 6 
#
# 1 0.019031 -0.000744 -0.008150 0.000000 0.000000 0.000000
# 2 -0.000744 0.019244 -0.007163 0.000000 0.000000 0.000000
# 3 -0.008150 -0.007163 0.015001 0.000000 0.000000 0.000000
# 4 0.000000 0.000000 0.000000 0.033367 0.000000 0.000000
# 5 0.000000 0.000000 0.000000 0.000000 0.057974 0.000000
# 6 0.000000 0.000000 0.000000 0.000000 0.000000 0.044357
#
#
# Mechanical properties :
#
#
# Convention : Reuss Voigt Hill
#
# Bulk Modulus (GPa) = 47.25341 55.49411 51.37376
# Shear Modulus (GPa) = 21.91619 23.45277 22.68448
#
# Velocity S-wave (km/s) = 3.54677 3.66900 3.60840
# Velocity P-wave (km/s) = 6.62537 7.05702 6.84460
#
# Compressibility (1/GPa) = 0.02116249
#
# Stress axis : x y z
#
# Youngs Moduli (GPa) = 52.54573 51.96442 66.66106
#
# Poissons Ratio (x) = 0.03864 0.54331
# Poissons Ratio (y) = 0.03907 0.47750
# Poissons Ratio (z) = 0.42826 0.37222
#
# Static dielectric constant tensor:
#      x y z
#    x 3.630550 0.000000 0.000000 
#    y 0.000000 3.230240 0.000000 
#    z 0.000000 0.000000 3.179250 
# 
# 
# High freq. dielectric constant tensor:
#      x y z
#    x 1.672090 0.000000 0.000000 
#    y 0.000000 1.669770 0.000000 
#    z 0.000000 0.000000 1.664890 
# 
# From -- ./inp_files/34412.got.cif
#   From: 2010.03.12/outbox.cif.g09.slc.cpg/sg67_18_cif.got.tgz:34412.got - 2010.04.10 22:41:39.
