data_PCOD8278351
_publ_section_title
;
Structure prediction by ZEFSAII (Michael W. Deem and Ramdas Pophale) SiO2 
 PCOD8278351
Probable space group: C M M A
;
_chemical_formula_sum "Si O2"
_cell_formula_units_Z 128
_cell_length_a 17.789172
_cell_length_b 18.731595
_cell_length_c 21.206456
_cell_angle_alpha 90.000000
_cell_angle_beta 90.000000
_cell_angle_gamma 90.000000
_cell_volume 7066.406050
_symmetry_space_group_name_H-M "C M M A"
_symmetry_group_IT_number 67
_symmetry_cell_setting 'orthorhombic'
loop_
_space_group_symop_operation_xyz
x,y,z
-x,1/2-y,z
x,-y,-z
-x,1/2+y,-z
-x,-y,-z
x,1/2+y,-z
-x,y,z
x,1/2-y,z
1/2+x,1/2+y,z
1/2-x,-y,z
1/2+x,1/2-y,-z
1/2-x,y,-z
1/2-x,1/2-y,-z
1/2+x,y,-z
1/2-x,1/2+y,z
1/2+x,-y,z
loop_
_atom_site_type_symbol
_atom_site_label
_atom_site_fract_x
_atom_site_fract_y
_atom_site_fract_z
Si Si1 0.086031 0.832087 0.005594
Si Si2 0.085944 0.450588 0.757666
Si Si3 0.348901 0.069413 0.109697
Si Si4 0.856318 0.104177 0.242183
Si Si5 0.274460 0.665196 0.431575
Si Si6 0.325376 0.904221 0.104031
Si Si7 0.780961 0.073702 0.673614
Si Si8 0.081155 0.832281 0.637207
O O1 0.103127 0.750000 0.024820
O O2 0.098285 0.884803 0.064193
O O3 0.000000 0.840325 0.983061
O O4 0.141253 0.853875 0.949325
O O5 0.122240 0.415571 0.819828
O O6 0.090011 0.535733 0.759973
O O7 0.133226 0.426493 0.696652
O O8 0.000000 0.425493 0.750000
O O9 0.264327 0.095962 0.099791
O O10 0.355936 0.984909 0.095244
O O11 0.849876 0.131587 0.170570
O O12 0.772279 0.086604 0.265807
O O13 0.893150 0.160454 0.290042
O O14 0.270189 0.750000 0.428636
O O15 0.250000 0.636514 0.500000
O O16 0.218227 0.634782 0.379249
O O17 0.357702 0.636161 0.412018
O O18 0.750000 0.000000 0.642743
O O19 0.072594 0.750000 0.622575
O O20 0.000000 0.869991 0.626257
#
# Coordination Sequence:
#
# PCOD8278351 Si02
#       8
#    16  16  16  16  16  16  16  16
#     4  11  25  40  51  71 105 138 172 217 265 311
#     4  10  18  30  53  79 102 131 167 208 255 302
#     4  10  20  37  57  78 101 133 172 215 256 314
#     4   9  17  31  50  75 105 131 161 205 257 304
#     4   9  18  33  52  73 100 138 177 208 246 299
#     4  10  20  35  58  80 101 129 174 216 257 311
#     4   9  17  32  52  75 105 133 164 206 248 297
#     4   9  17  29  47  73 104 135 168 207 253 305
#
# _framework density 18.113876000000001
#
# number of rings (size 3 to 8) (size 9 to 14) (size 15 to 20)
#    0.000    2.375    1.250    1.500    0.000    6.250 
#    0.000    2.500    0.000    1.875    0.000    5.250 
#    0.000    0.000    0.000    0.000    0.000    0.000 
#
# Total GULP energy -793282.305842 kJ/mol
# GULP energy per Si atom -12395.036029 kJ/mol
# Density = 1.807265 g / cm^3
# Si number density = 18.113876 Si / 1000 Ang^3
#
#
#
# Elastic Constant Matrix: (Units=GPa)
#
#
# Indices 1 2 3 4 5 6 
#
# 1 119.6791 31.6714 45.3660 0.0000 0.0000 0.0000
# 2 31.6714 39.1189 31.2341 0.0000 0.0000 0.0000
# 3 45.3660 31.2341 109.4601 0.0000 0.0000 0.0000
# 4 0.0000 0.0000 0.0000 27.8010 0.0000 0.0000
# 5 0.0000 0.0000 0.0000 0.0000 19.7015 0.0000
# 6 0.0000 0.0000 0.0000 0.0000 0.0000 21.6180
#
#
#
# Elastic Compliance Matrix: (Units=1/GPa)
#
#
# Indices 1 2 3 4 5 6 
#
# 1 0.011202 -0.006945 -0.002661 0.000000 0.000000 0.000000
# 2 -0.006945 0.037411 -0.007797 0.000000 0.000000 0.000000
# 3 -0.002661 -0.007797 0.012463 0.000000 0.000000 0.000000
# 4 0.000000 0.000000 0.000000 0.035970 0.000000 0.000000
# 5 0.000000 0.000000 0.000000 0.000000 0.050758 0.000000
# 6 0.000000 0.000000 0.000000 0.000000 0.000000 0.046258
#
#
# Mechanical properties :
#
#
# Convention : Reuss Voigt Hill
#
# Bulk Modulus (GPa) = 38.06443 53.86679 45.96561
# Shear Modulus (GPa) = 21.04157 24.48987 22.76572
#
# Velocity S-wave (km/s) = 3.41196 3.68094 3.54900
# Velocity P-wave (km/s) = 6.04827 6.91868 6.49807
#
# Compressibility (1/GPa) = 0.02627125
#
# Stress axis : x y z
#
# Youngs Moduli (GPa) = 89.26766 26.73000 80.23444
#
# Poissons Ratio (x) = 0.18564 0.21351
# Poissons Ratio (y) = 0.61995 0.62558
# Poissons Ratio (z) = 0.23755 0.20841
#
# Static dielectric constant tensor:
#      x y z
#    x 3.537260 0.000000 0.000000 
#    y 0.000000 3.145510 0.000000 
#    z 0.000000 0.000000 3.327730 
# 
# 
# High freq. dielectric constant tensor:
#      x y z
#    x 1.706210 0.000000 0.000000 
#    y 0.000000 1.676360 0.000000 
#    z 0.000000 0.000000 1.694930 
# 
# From -- ./inp_files/39153.got.cif
#   From: 2010.03.12/outbox.cif.g09.slc.cpg/sg67_20_cif.got.tgz:39153.got - 2010.04.10 22:41:39.
