data_PCOD8278073
_publ_section_title
;
Structure prediction by ZEFSAII (Michael W. Deem and Ramdas Pophale) SiO2 
 PCOD8278073
Probable space group: C M M A
;
_chemical_formula_sum "Si O2"
_cell_formula_units_Z 64
_cell_length_a 17.700701
_cell_length_b 16.618050
_cell_length_c 11.650971
_cell_angle_alpha 90.000000
_cell_angle_beta 90.000000
_cell_angle_gamma 90.000000
_cell_volume 3427.146335
_symmetry_space_group_name_H-M "C M M A"
_symmetry_group_IT_number 67
_symmetry_cell_setting 'orthorhombic'
loop_
_space_group_symop_operation_xyz
x,y,z
-x,1/2-y,z
x,-y,-z
-x,1/2+y,-z
-x,-y,-z
x,1/2+y,-z
-x,y,z
x,1/2-y,z
1/2+x,1/2+y,z
1/2-x,-y,z
1/2+x,1/2-y,-z
1/2-x,y,-z
1/2-x,1/2-y,-z
1/2+x,y,-z
1/2-x,1/2+y,z
1/2+x,-y,z
loop_
_atom_site_type_symbol
_atom_site_label
_atom_site_fract_x
_atom_site_fract_y
_atom_site_fract_z
Si Si1 0.732721 0.406407 0.126658
Si Si2 0.283310 0.658668 0.347415
Si Si3 0.139302 0.089550 0.539881
Si Si4 0.416189 0.843563 0.762641
O O1 0.750000 0.500000 0.133338
O O2 0.790960 0.360858 0.212505
O O3 0.645174 0.389717 0.159410
O O4 0.750000 0.372717 0.000000
O O5 0.256624 0.750000 0.364659
O O6 0.219999 0.597536 0.395872
O O7 0.359219 0.642157 0.421346
O O8 0.079239 0.122302 0.631996
O O9 0.119897 0.000000 0.500000
O O10 0.500000 0.855412 0.815957
O O11 0.393345 0.750000 0.758403
#
# Coordination Sequence:
#
# PCOD8278073 Si02
#       4
#    16  16  16  16
#     4  10  20  35  54  78 104 136 179 224 266 308
#     4  10  17  27  47  74 103 134 172 218 261 300
#     4  10  17  28  47  72 103 134 168 209 256 307
#     4  10  21  37  56  78 107 142 177 214 262 321
#
# _framework density 18.674429
#
# number of rings (size 3 to 8) (size 9 to 14) (size 15 to 20)
#    0.000    2.000    0.000    9.750    0.000    2.500 
#    0.000    2.500    0.000    1.500    0.000    3.500 
#    0.000    0.000    0.000    0.000    0.000    0.000 
#
# Total GULP energy -396443.668620 kJ/mol
# GULP energy per Si atom -12388.864644 kJ/mol
# Density = 1.863192 g / cm^3
# Si number density = 18.674429 Si / 1000 Ang^3
#
#
#
# Elastic Constant Matrix: (Units=GPa)
#
#
# Indices 1 2 3 4 5 6 
#
# 1 80.9403 35.9541 43.6588 0.0000 0.0000 0.0000
# 2 35.9541 102.0728 38.8878 0.0000 0.0000 0.0000
# 3 43.6588 38.8878 152.2047 0.0000 0.0000 0.0000
# 4 0.0000 0.0000 0.0000 17.6939 0.0000 0.0000
# 5 0.0000 0.0000 0.0000 0.0000 18.5175 0.0000
# 6 0.0000 0.0000 0.0000 0.0000 0.0000 19.3396
#
#
#
# Elastic Compliance Matrix: (Units=1/GPa)
#
#
# Indices 1 2 3 4 5 6 
#
# 1 0.016196 -0.004359 -0.003532 0.000000 0.000000 0.000000
# 2 -0.004359 0.012027 -0.001822 0.000000 0.000000 0.000000
# 3 -0.003532 -0.001822 0.008049 0.000000 0.000000 0.000000
# 4 0.000000 0.000000 0.000000 0.056517 0.000000 0.000000
# 5 0.000000 0.000000 0.000000 0.000000 0.054003 0.000000
# 6 0.000000 0.000000 0.000000 0.000000 0.000000 0.051707
#
#
# Mechanical properties :
#
#
# Convention : Reuss Voigt Hill
#
# Bulk Modulus (GPa) = 59.36651 63.57991 61.47321
# Shear Modulus (GPa) = 22.36724 25.55801 23.96263
#
# Velocity S-wave (km/s) = 3.46460 3.70349 3.58603
# Velocity P-wave (km/s) = 6.91837 7.23935 7.08068
#
# Compressibility (1/GPa) = 0.01684451
#
# Stress axis : x y z
#
# Youngs Moduli (GPa) = 61.74209 83.14794 124.24166
#
# Poissons Ratio (x) = 0.36247 0.43882
# Poissons Ratio (y) = 0.26916 0.22641
# Poissons Ratio (z) = 0.21807 0.15152
#
# Static dielectric constant tensor:
#      x y z
#    x 3.146840 0.000000 0.000000 
#    y 0.000000 3.375190 0.000000 
#    z 0.000000 0.000000 3.973750 
# 
# 
# High freq. dielectric constant tensor:
#      x y z
#    x 1.676630 0.000000 0.000000 
#    y 0.000000 1.733040 0.000000 
#    z 0.000000 0.000000 1.729480 
# 
# From -- ./inp_files/17643.got.cif
#   From: 2010.03.12/outbox.cif.g09.slc.cpg/sg67_9_cif.got.tgz:17643.got - 2010.04.10 22:41:39.
