data_PCOD8278837
_publ_section_title
;
Structure prediction by ZEFSAII (Michael W. Deem and Ramdas Pophale) SiO2 
 PCOD8278837
Probable space group: C M M A
;
_chemical_formula_sum "Si O2"
_cell_formula_units_Z 96
_cell_length_a 30.360148
_cell_length_b 9.038464
_cell_length_c 19.716831
_cell_angle_alpha 90.000000
_cell_angle_beta 90.000000
_cell_angle_gamma 90.000000
_cell_volume 5410.477943
_symmetry_space_group_name_H-M "C M M A"
_symmetry_group_IT_number 67
_symmetry_cell_setting 'orthorhombic'
loop_
_space_group_symop_operation_xyz
x,y,z
-x,1/2-y,z
x,-y,-z
-x,1/2+y,-z
-x,-y,-z
x,1/2+y,-z
-x,y,z
x,1/2-y,z
1/2+x,1/2+y,z
1/2-x,-y,z
1/2+x,1/2-y,-z
1/2-x,y,-z
1/2-x,1/2-y,-z
1/2+x,y,-z
1/2-x,1/2+y,z
1/2+x,-y,z
loop_
_atom_site_type_symbol
_atom_site_label
_atom_site_fract_x
_atom_site_fract_y
_atom_site_fract_z
Si Si1 0.049837 0.423763 0.931928
Si Si2 0.551406 0.422258 0.569654
Si Si3 0.617937 0.075562 0.332698
Si Si4 0.792410 0.415740 0.173904
Si Si5 0.206782 0.417863 0.335382
Si Si6 0.879229 0.422139 0.824042
O O1 0.052548 0.250000 0.943366
O O2 0.079097 0.473943 0.868141
O O3 0.000000 0.475420 0.916470
O O4 0.067846 0.500000 0.000000
O O5 0.565526 0.500000 0.500000
O O6 0.500000 0.445834 0.584348
O O7 0.563809 0.250000 0.565383
O O8 0.577165 0.500075 0.630247
O O9 0.618678 0.250000 0.346831
O O10 0.610920 0.038475 0.253753
O O11 0.663573 0.006080 0.359985
O O12 0.791537 0.250000 0.145508
O O13 0.750000 0.500000 0.144204
O O14 0.791110 0.418158 0.254737
O O15 0.836591 0.493528 0.147744
O O16 0.205233 0.250000 0.363295
O O17 0.250000 0.500000 0.364922
O O18 0.869196 0.250000 0.832316
#
# Coordination Sequence:
#
# PCOD8278837 Si02
#       6
#    16  16  16  16  16  16
#     4   9  18  33  51  70  94 127 165 202 242 291
#     4  10  21  37  55  74  98 130 167 205 246 294
#     4  10  19  31  50  76 103 131 164 203 247 292
#     4   9  16  26  43  67  96 128 161 197 239 287
#     4   9  16  27  44  68  99 132 165 201 241 287
#     4   9  18  31  48  72 101 130 162 201 244 289
#
# _framework density 17.743348000000001
#
# number of rings (size 3 to 8) (size 9 to 14) (size 15 to 20)
#    0.000    2.667    0.000    2.000    0.000    7.000 
#    0.000    1.667    0.000    3.000    0.000    7.000 
#    0.000    0.000    0.000    0.000    0.000    0.000 
#
# Total GULP energy -595242.356201 kJ/mol
# GULP energy per Si atom -12400.882421 kJ/mol
# Density = 1.770296 g / cm^3
# Si number density = 17.743348 Si / 1000 Ang^3
#
#
#
# Elastic Constant Matrix: (Units=GPa)
#
#
# Indices 1 2 3 4 5 6 
#
# 1 124.6062 69.8456 59.7984 0.0000 0.0000 0.0000
# 2 69.8456 114.3436 46.4021 0.0000 0.0000 0.0000
# 3 59.7984 46.4021 63.7367 0.0000 0.0000 0.0000
# 4 0.0000 0.0000 0.0000 23.2898 0.0000 0.0000
# 5 0.0000 0.0000 0.0000 0.0000 4.7132 0.0000
# 6 0.0000 0.0000 0.0000 0.0000 0.0000 36.6806
#
#
#
# Elastic Compliance Matrix: (Units=1/GPa)
#
#
# Indices 1 2 3 4 5 6 
#
# 1 0.016692 -0.005451 -0.011692 0.000000 0.000000 0.000000
# 2 -0.005451 0.014193 -0.005219 0.000000 0.000000 0.000000
# 3 -0.011692 -0.005219 0.030458 0.000000 0.000000 0.000000
# 4 0.000000 0.000000 0.000000 0.042937 0.000000 0.000000
# 5 0.000000 0.000000 0.000000 0.000000 0.212171 0.000000
# 6 0.000000 0.000000 0.000000 0.000000 0.000000 0.027262
#
#
# Mechanical properties :
#
#
# Convention : Reuss Voigt Hill
#
# Bulk Modulus (GPa) = 60.16877 72.75319 66.46098
# Shear Modulus (GPa) = 12.69110 21.37940 17.03525
#
# Velocity S-wave (km/s) = 2.67734 3.47497 3.10190
# Velocity P-wave (km/s) = 6.59862 7.56258 7.09698
#
# Compressibility (1/GPa) = 0.01661992
#
# Stress axis : x y z
#
# Youngs Moduli (GPa) = 59.90980 70.45614 32.83213
#
# Poissons Ratio (x) = 0.38408 0.38386
# Poissons Ratio (y) = 0.32659 0.17133
# Poissons Ratio (z) = 0.70044 0.36768
#
# Static dielectric constant tensor:
#      x y z
#    x 3.450670 0.000000 0.000000 
#    y 0.000000 3.427710 0.000000 
#    z 0.000000 0.000000 2.963900 
# 
# 
# High freq. dielectric constant tensor:
#      x y z
#    x 1.696160 0.000000 0.000000 
#    y 0.000000 1.698730 0.000000 
#    z 0.000000 0.000000 1.642740 
# 
# From -- ./inp_files/39853.got.cif
#   From: 2010.03.12/outbox.cif.g09.slc.cpg/sg67_20_cif.got.tgz:39853.got - 2010.04.10 22:41:39.
