data_PCOD8278389
_publ_section_title
;
Structure prediction by ZEFSAII (Michael W. Deem and Ramdas Pophale) SiO2 
 PCOD8278389
Probable space group: C M M A
;
_chemical_formula_sum "Si O2"
_cell_formula_units_Z 104
_cell_length_a 26.863907
_cell_length_b 8.842300
_cell_length_c 24.407549
_cell_angle_alpha 90.000000
_cell_angle_beta 90.000000
_cell_angle_gamma 90.000000
_cell_volume 5797.738067
_symmetry_space_group_name_H-M "C M M A"
_symmetry_group_IT_number 67
_symmetry_cell_setting 'orthorhombic'
loop_
_space_group_symop_operation_xyz
x,y,z
-x,1/2-y,z
x,-y,-z
-x,1/2+y,-z
-x,-y,-z
x,1/2+y,-z
-x,y,z
x,1/2-y,z
1/2+x,1/2+y,z
1/2-x,-y,z
1/2+x,1/2-y,-z
1/2-x,y,-z
1/2-x,1/2-y,-z
1/2+x,y,-z
1/2-x,1/2+y,z
1/2+x,-y,z
loop_
_atom_site_type_symbol
_atom_site_label
_atom_site_fract_x
_atom_site_fract_y
_atom_site_fract_z
Si Si1 0.557317 0.427290 0.058043
Si Si2 0.699333 0.426765 0.346401
Si Si3 0.407666 0.070712 0.368851
Si Si4 0.892951 0.571827 0.839781
Si Si5 0.800800 0.071920 0.780043
Si Si6 0.500000 0.069424 0.440483
Si Si7 0.057013 0.581808 0.254201
O O1 0.500000 0.459046 0.074139
O O2 0.568374 0.250000 0.055807
O O3 0.593475 0.505178 0.101399
O O4 0.570168 0.500000 0.000000
O O5 0.707515 0.250000 0.351069
O O6 0.750000 0.500000 0.370202
O O7 0.650046 0.475862 0.382003
O O8 0.690177 0.474305 0.283312
O O9 0.413244 0.250000 0.367377
O O10 0.449434 0.007883 0.410810
O O11 0.417515 0.009421 0.307693
O O12 0.886983 0.750000 0.844526
O O13 0.842831 0.497238 0.818175
O O14 0.936288 0.528956 0.796999
O O15 0.798845 0.250000 0.787699
O O16 0.750000 0.000000 0.801470
O O17 0.500000 0.250000 0.443637
O O18 0.500000 0.000000 0.500000
O O19 0.079459 0.750000 0.240886
O O20 0.000000 0.599472 0.268680
#
# Coordination Sequence:
#
# PCOD8278389 Si02
#       7
#    16  16  16  16  16   8  16
#     4  10  21  38  58  78 102 137 180 225 271 320
#     4   9  17  30  50  75 104 137 175 216 264 320
#     4   9  16  31  54  76 101 139 178 216 263 324
#     4  12  23  33  49  76 110 144 177 215 266 322
#     4  10  19  33  52  75 106 139 177 218 265 320
#     4  10  20  36  58  80 106 142 185 224 269 324
#     4  10  18  31  51  74 101 137 178 217 265 323
#
# _framework density 17.938030999999999
#
# number of rings (size 3 to 8) (size 9 to 14) (size 15 to 20)
#    0.000    2.000    2.308    2.769    0.000    3.692 
#    0.000    1.538    0.000    0.923    0.000    6.462 
#    0.000    0.000    0.000    0.000    0.000    0.000 
#
# Total GULP energy -644559.001815 kJ/mol
# GULP energy per Si atom -12395.365420 kJ/mol
# Density = 1.789720 g / cm^3
# Si number density = 17.938031 Si / 1000 Ang^3
#
#
#
# Elastic Constant Matrix: (Units=GPa)
#
#
# Indices 1 2 3 4 5 6 
#
# 1 149.1696 39.5220 52.3759 0.0000 0.0000 0.0000
# 2 39.5220 68.6320 26.8839 0.0000 0.0000 0.0000
# 3 52.3759 26.8839 75.7878 0.0000 0.0000 0.0000
# 4 0.0000 0.0000 0.0000 25.1976 0.0000 0.0000
# 5 0.0000 0.0000 0.0000 0.0000 20.6875 0.0000
# 6 0.0000 0.0000 0.0000 0.0000 0.0000 27.8512
#
#
#
# Elastic Compliance Matrix: (Units=1/GPa)
#
#
# Indices 1 2 3 4 5 6 
#
# 1 0.009474 -0.003358 -0.005356 0.000000 0.000000 0.000000
# 2 -0.003358 0.018112 -0.004104 0.000000 0.000000 0.000000
# 3 -0.005356 -0.004104 0.018352 0.000000 0.000000 0.000000
# 4 0.000000 0.000000 0.000000 0.039686 0.000000 0.000000
# 5 0.000000 0.000000 0.000000 0.000000 0.048338 0.000000
# 6 0.000000 0.000000 0.000000 0.000000 0.000000 0.035905
#
#
# Mechanical properties :
#
#
# Convention : Reuss Voigt Hill
#
# Bulk Modulus (GPa) = 49.25729 59.01700 54.13715
# Shear Modulus (GPa) = 24.71926 26.40110 25.56018
#
# Velocity S-wave (km/s) = 3.71622 3.84056 3.77890
# Velocity P-wave (km/s) = 6.77739 7.25524 7.02038
#
# Compressibility (1/GPa) = 0.02030156
#
# Stress axis : x y z
#
# Youngs Moduli (GPa) = 105.55147 55.21320 54.48886
#
# Poissons Ratio (x) = 0.18538 0.29186
# Poissons Ratio (y) = 0.35439 0.22364
# Poissons Ratio (z) = 0.56537 0.22661
#
# Static dielectric constant tensor:
#      x y z
#    x 3.595660 0.000000 0.000000 
#    y 0.000000 3.220660 0.000000 
#    z 0.000000 0.000000 3.111710 
# 
# 
# High freq. dielectric constant tensor:
#      x y z
#    x 1.706640 0.000000 0.000000 
#    y 0.000000 1.680720 0.000000 
#    z 0.000000 0.000000 1.664910 
# 
# From -- ./inp_files/41007.got.cif
#   From: 2010.03.12/outbox.cif.g09.slc.cpg/sg67_21_cif.got.tgz:41007.got - 2010.04.10 22:41:39.
