data_PCOD8278339
_publ_section_title
;
Structure prediction by ZEFSAII (Michael W. Deem and Ramdas Pophale) SiO2 
 PCOD8278339
Probable space group: C M M A
;
_chemical_formula_sum "Si O2"
_cell_formula_units_Z 80
_cell_length_a 20.204995
_cell_length_b 18.283719
_cell_length_c 12.449845
_cell_angle_alpha 90.000000
_cell_angle_beta 90.000000
_cell_angle_gamma 90.000000
_cell_volume 4599.252254
_symmetry_space_group_name_H-M "C M M A"
_symmetry_group_IT_number 67
_symmetry_cell_setting 'orthorhombic'
loop_
_space_group_symop_operation_xyz
x,y,z
-x,1/2-y,z
x,-y,-z
-x,1/2+y,-z
-x,-y,-z
x,1/2+y,-z
-x,y,z
x,1/2-y,z
1/2+x,1/2+y,z
1/2-x,-y,z
1/2+x,1/2-y,-z
1/2-x,y,-z
1/2-x,1/2-y,-z
1/2+x,y,-z
1/2-x,1/2+y,z
1/2+x,-y,z
loop_
_atom_site_type_symbol
_atom_site_label
_atom_site_fract_x
_atom_site_fract_y
_atom_site_fract_z
Si Si1 0.672336 0.421838 0.023974
Si Si2 0.279528 0.082306 0.245918
Si Si3 0.573530 0.336822 0.619988
Si Si4 0.320929 0.833116 0.554108
Si Si5 0.849079 0.835976 0.823406
O O1 0.665759 0.407850 0.151170
O O2 0.639856 0.500000 0.000000
O O3 0.750000 0.422799 0.000000
O O4 0.636341 0.364738 0.944336
O O5 0.319435 0.107936 0.350411
O O6 0.220354 0.137799 0.223758
O O7 0.250000 0.000000 0.254647
O O8 0.500000 0.367633 0.596280
O O9 0.574116 0.250000 0.618549
O O10 0.624486 0.364249 0.529094
O O11 0.595253 0.363173 0.739179
O O12 0.338272 0.750000 0.592585
O O13 0.250000 0.832264 0.500000
O O14 0.846453 0.750000 0.831418
#
# Coordination Sequence:
#
# PCOD8278339 Si02
#       5
#    16  16  16  16  16
#     4   9  16  30  45  71 104 135 159 201 259 309
#     4  11  19  30  48  75 108 138 164 204 269 312
#     4   9  18  34  54  75 103 138 173 215 265 307
#     4  10  19  32  50  76 104 131 173 222 257 300
#     4  10  18  30  52  77  99 131 175 215 249 302
#
# _framework density 17.394133
#
# number of rings (size 3 to 8) (size 9 to 14) (size 15 to 20)
#    0.000    2.200    6.000    0.600    0.000    4.800 
#    0.000    0.000    0.000    4.200    0.000    5.600 
#    0.000    0.000    0.000    0.000    0.000    0.000 
#
# Total GULP energy -495625.655408 kJ/mol
# GULP energy per Si atom -12390.641385 kJ/mol
# Density = 1.735454 g / cm^3
# Si number density = 17.394133 Si / 1000 Ang^3
#
#
#
# Elastic Constant Matrix: (Units=GPa)
#
#
# Indices 1 2 3 4 5 6 
#
# 1 80.2614 23.6667 53.7270 0.0000 0.0000 0.0000
# 2 23.6667 73.1126 65.0617 0.0000 0.0000 0.0000
# 3 53.7270 65.0617 162.0659 0.0000 0.0000 0.0000
# 4 0.0000 0.0000 0.0000 31.9339 0.0000 0.0000
# 5 0.0000 0.0000 0.0000 0.0000 22.1845 0.0000
# 6 0.0000 0.0000 0.0000 0.0000 0.0000 6.4789
#
#
#
# Elastic Compliance Matrix: (Units=1/GPa)
#
#
# Indices 1 2 3 4 5 6 
#
# 1 0.016037 -0.000716 -0.005029 0.000000 0.000000 0.000000
# 2 -0.000716 0.021311 -0.008318 0.000000 0.000000 0.000000
# 3 -0.005029 -0.008318 0.011177 0.000000 0.000000 0.000000
# 4 0.000000 0.000000 0.000000 0.031315 0.000000 0.000000
# 5 0.000000 0.000000 0.000000 0.000000 0.045077 0.000000
# 6 0.000000 0.000000 0.000000 0.000000 0.000000 0.154348
#
#
# Mechanical properties :
#
#
# Convention : Reuss Voigt Hill
#
# Bulk Modulus (GPa) = 49.02221 66.70565 57.86393
# Shear Modulus (GPa) = 15.91391 23.65174 19.78282
#
# Velocity S-wave (km/s) = 3.02801 3.69148 3.37609
# Velocity P-wave (km/s) = 6.36157 7.52344 6.96677
#
# Compressibility (1/GPa) = 0.02039892
#
# Stress axis : x y z
#
# Youngs Moduli (GPa) = 62.35652 46.92303 89.47045
#
# Poissons Ratio (x) = 0.03359 0.44995
# Poissons Ratio (y) = 0.04464 0.74423
# Poissons Ratio (z) = 0.31359 0.39032
#
# Static dielectric constant tensor:
#      x y z
#    x 3.070670 0.000000 0.000000 
#    y 0.000000 3.192250 0.000000 
#    z 0.000000 0.000000 3.767740 
# 
# 
# High freq. dielectric constant tensor:
#      x y z
#    x 1.620820 0.000000 0.000000 
#    y 0.000000 1.659650 0.000000 
#    z 0.000000 0.000000 1.686990 
# 
# From -- ./inp_files/21656.got.cif
#   From: 2010.03.12/outbox.cif.g09.slc.cpg/sg67_11_cif.got.tgz:21656.got - 2010.04.10 22:41:39.
