data_PCOD8278885
_publ_section_title
;
Structure prediction by ZEFSAII (Michael W. Deem and Ramdas Pophale) SiO2 
 PCOD8278885
Probable space group: C M M A
;
_chemical_formula_sum "Si O2"
_cell_formula_units_Z 112
_cell_length_a 24.437492
_cell_length_b 16.744949
_cell_length_c 14.356229
_cell_angle_alpha 90.000000
_cell_angle_beta 90.000000
_cell_angle_gamma 90.000000
_cell_volume 5874.634331
_symmetry_space_group_name_H-M "C M M A"
_symmetry_group_IT_number 67
_symmetry_cell_setting 'orthorhombic'
loop_
_space_group_symop_operation_xyz
x,y,z
-x,1/2-y,z
x,-y,-z
-x,1/2+y,-z
-x,-y,-z
x,1/2+y,-z
-x,y,z
x,1/2-y,z
1/2+x,1/2+y,z
1/2-x,-y,z
1/2+x,1/2-y,-z
1/2-x,y,-z
1/2-x,1/2-y,-z
1/2+x,y,-z
1/2-x,1/2+y,z
1/2+x,-y,z
loop_
_atom_site_type_symbol
_atom_site_label
_atom_site_fract_x
_atom_site_fract_y
_atom_site_fract_z
Si Si1 0.656701 0.909344 0.025398
Si Si2 0.561158 0.154881 0.509980
Si Si3 0.657700 0.842804 0.823911
Si Si4 0.437850 0.158552 0.863195
Si Si5 0.874062 0.158512 0.318873
Si Si6 0.938823 0.654920 0.301246
Si Si7 0.278061 0.654613 0.193993
O O1 0.598189 0.900682 0.074981
O O2 0.704612 0.879554 0.093481
O O3 0.654430 0.856635 0.933160
O O4 0.668490 0.000000 0.000000
O O5 0.500000 0.123110 0.532244
O O6 0.560941 0.250000 0.518440
O O7 0.604676 0.118151 0.584705
O O8 0.577867 0.128399 0.405807
O O9 0.654644 0.750000 0.803192
O O10 0.606506 0.883026 0.768844
O O11 0.716236 0.874512 0.785009
O O12 0.500000 0.132937 0.878069
O O13 0.427297 0.250000 0.894837
O O14 0.423027 0.149406 0.754945
O O15 0.860774 0.250000 0.340213
O O16 0.818135 0.120783 0.275649
O O17 0.939889 0.750000 0.294515
O O18 0.000000 0.622916 0.276097
O O19 0.283164 0.750000 0.186938
#
# Coordination Sequence:
#
# PCOD8278885 Si02
#       7
#    16  16  16  16  16  16  16
#     4  11  22  33  47  68  93 121 156 199 241 280
#     4   8  12  20  38  65  95 122 147 180 223 271
#     4  10  19  32  49  66  89 124 159 192 233 279
#     4   9  17  30  48  70  96 126 160 194 230 277
#     4   8  13  23  41  66  94 121 148 184 231 274
#     4   8  15  27  43  66  94 122 153 184 218 272
#     4   9  18  32  48  67  91 119 156 198 236 281
#
# _framework density 19.065017999999998
#
# number of rings (size 3 to 8) (size 9 to 14) (size 15 to 20)
#    0.000    3.000    0.000    3.857    0.000    4.857 
#    0.000    2.143    0.000    4.286    0.000    4.000 
#    0.000   14.857    0.000    0.000    0.000    0.000 
#
# Total GULP energy -693923.271299 kJ/mol
# GULP energy per Si atom -12391.486987 kJ/mol
# Density = 1.902162 g / cm^3
# Si number density = 19.065018 Si / 1000 Ang^3
#
#
#
# Elastic Constant Matrix: (Units=GPa)
#
#
# Indices 1 2 3 4 5 6 
#
# 1 160.8557 15.9468 88.4283 0.0000 0.0000 0.0000
# 2 15.9468 15.7235 5.8772 0.0000 0.0000 0.0000
# 3 88.4283 5.8772 121.9522 0.0000 0.0000 0.0000
# 4 0.0000 0.0000 0.0000 2.6974 0.0000 0.0000
# 5 0.0000 0.0000 0.0000 0.0000 23.0372 0.0000
# 6 0.0000 0.0000 0.0000 0.0000 0.0000 6.8101
#
#
#
# Elastic Compliance Matrix: (Units=1/GPa)
#
#
# Indices 1 2 3 4 5 6 
#
# 1 0.011378 -0.008610 -0.007835 0.000000 0.000000 0.000000
# 2 -0.008610 0.071282 0.002808 0.000000 0.000000 0.000000
# 3 -0.007835 0.002808 0.013746 0.000000 0.000000 0.000000
# 4 0.000000 0.000000 0.000000 0.370727 0.000000 0.000000
# 5 0.000000 0.000000 0.000000 0.000000 0.043408 0.000000
# 6 0.000000 0.000000 0.000000 0.000000 0.000000 0.146840
#
#
# Mechanical properties :
#
#
# Convention : Reuss Voigt Hill
#
# Bulk Modulus (GPa) = 14.46529 57.67067 36.06798
# Shear Modulus (GPa) = 7.06516 19.06088 13.06302
#
# Velocity S-wave (km/s) = 1.92714 3.16537 2.62044
# Velocity P-wave (km/s) = 3.54339 6.60867 5.30237
#
# Compressibility (1/GPa) = 0.06913099
#
# Stress axis : x y z
#
# Youngs Moduli (GPa) = 87.89240 14.02877 72.74959
#
# Poissons Ratio (x) = 0.12079 0.56999
# Poissons Ratio (y) = 0.75680 -0.20430
# Poissons Ratio (z) = 0.68863 -0.03940
#
# Static dielectric constant tensor:
#      x y z
#    x 3.905960 0.000000 0.000000 
#    y 0.000000 2.883610 0.000000 
#    z 0.000000 0.000000 3.666240 
# 
# 
# High freq. dielectric constant tensor:
#      x y z
#    x 1.749540 0.000000 0.000000 
#    y 0.000000 1.680950 0.000000 
#    z 0.000000 0.000000 1.737130 
# 
# From -- ./inp_files/30179.got.cif
#   From: 2010.03.12/outbox.cif.g09.slc.cpg/sg67_16_cif.got.tgz:30179.got - 2010.04.10 22:41:39.
