data_PCOD8278179
_publ_section_title
;
Structure prediction by ZEFSAII (Michael W. Deem and Ramdas Pophale) SiO2 
 PCOD8278179
Probable space group: C M M A
;
_chemical_formula_sum "Si O2"
_cell_formula_units_Z 96
_cell_length_a 27.642115
_cell_length_b 8.908432
_cell_length_c 23.861928
_cell_angle_alpha 90.000000
_cell_angle_beta 90.000000
_cell_angle_gamma 90.000000
_cell_volume 5875.949703
_symmetry_space_group_name_H-M "C M M A"
_symmetry_group_IT_number 67
_symmetry_cell_setting 'orthorhombic'
loop_
_space_group_symop_operation_xyz
x,y,z
-x,1/2-y,z
x,-y,-z
-x,1/2+y,-z
-x,-y,-z
x,1/2+y,-z
-x,y,z
x,1/2-y,z
1/2+x,1/2+y,z
1/2-x,-y,z
1/2+x,1/2-y,-z
1/2-x,y,-z
1/2-x,1/2-y,-z
1/2+x,y,-z
1/2-x,1/2+y,z
1/2+x,-y,z
loop_
_atom_site_type_symbol
_atom_site_label
_atom_site_fract_x
_atom_site_fract_y
_atom_site_fract_z
Si Si1 0.553188 0.928405 0.273081
Si Si2 0.895967 0.075341 0.160300
Si Si3 0.197870 0.070617 0.443108
Si Si4 0.646553 0.571738 0.331375
Si Si5 0.799614 0.924744 0.777113
Si Si6 0.944914 0.926318 0.057758
O O1 0.500000 0.996364 0.286018
O O2 0.551532 0.750000 0.275308
O O3 0.569917 0.978264 0.211318
O O4 0.592018 0.987820 0.319035
O O5 0.904325 0.250000 0.147399
O O6 0.840241 0.042866 0.176095
O O7 0.909150 0.980003 0.106182
O O8 0.202084 0.250000 0.448218
O O9 0.163098 0.018552 0.392640
O O10 0.175957 0.000000 0.500000
O O11 0.250000 0.000000 0.431436
O O12 0.646672 0.750000 0.327199
O O13 0.682748 0.510313 0.283249
O O14 0.789812 0.750000 0.771328
O O15 0.750000 0.000000 0.796387
O O16 0.940429 0.750000 0.051027
O O17 0.000000 0.975253 0.071807
O O18 0.927568 0.000000 0.000000
#
# Coordination Sequence:
#
# PCOD8278179 Si02
#       6
#    16  16  16  16  16  16
#     4   8  13  23  42  66  88 111 141 176 213 253
#     4   9  17  29  46  68  92 117 145 179 218 259
#     4  10  18  28  42  60  84 111 141 177 215 256
#     4   8  15  26  40  61  87 113 142 177 214 255
#     4   9  17  29  45  66  91 117 146 179 217 261
#     4  10  20  32  47  68  93 120 149 180 215 257
#
# _framework density 16.337785
#
# number of rings (size 3 to 8) (size 9 to 14) (size 15 to 20)
#    0.000    3.000    0.000    4.500    0.000    2.333 
#    0.000    0.833    0.000    3.000    0.000    3.500 
#    0.000    0.000    0.000    0.000    0.000    0.667 
#
# Total GULP energy -594967.148129 kJ/mol
# GULP energy per Si atom -12395.148919 kJ/mol
# Density = 1.630060 g / cm^3
# Si number density = 16.337785 Si / 1000 Ang^3
#
#
#
# Elastic Constant Matrix: (Units=GPa)
#
#
# Indices 1 2 3 4 5 6 
#
# 1 122.4446 31.9931 68.8347 0.0000 0.0000 0.0000
# 2 31.9931 44.5153 40.1153 0.0000 0.0000 0.0000
# 3 68.8347 40.1153 130.8650 0.0000 0.0000 0.0000
# 4 0.0000 0.0000 0.0000 21.2216 0.0000 0.0000
# 5 0.0000 0.0000 0.0000 0.0000 22.5456 0.0000
# 6 0.0000 0.0000 0.0000 0.0000 0.0000 19.9753
#
#
#
# Elastic Compliance Matrix: (Units=1/GPa)
#
#
# Indices 1 2 3 4 5 6 
#
# 1 0.012113 -0.004095 -0.005116 0.000000 0.000000 0.000000
# 2 -0.004095 0.032423 -0.007785 0.000000 0.000000 0.000000
# 3 -0.005116 -0.007785 0.012719 0.000000 0.000000 0.000000
# 4 0.000000 0.000000 0.000000 0.047122 0.000000 0.000000
# 5 0.000000 0.000000 0.000000 0.000000 0.044355 0.000000
# 6 0.000000 0.000000 0.000000 0.000000 0.000000 0.050062
#
#
# Mechanical properties :
#
#
# Convention : Reuss Voigt Hill
#
# Bulk Modulus (GPa) = 42.98774 64.41236 53.70005
# Shear Modulus (GPa) = 20.78661 23.20727 21.99694
#
# Velocity S-wave (km/s) = 3.57080 3.77300 3.67329
# Velocity P-wave (km/s) = 6.58558 7.64798 7.13658
#
# Compressibility (1/GPa) = 0.02326244
#
# Stress axis : x y z
#
# Youngs Moduli (GPa) = 82.55502 30.84257 78.62339
#
# Poissons Ratio (x) = 0.12631 0.40225
# Poissons Ratio (y) = 0.33809 0.61206
# Poissons Ratio (z) = 0.42236 0.24010
#
# Static dielectric constant tensor:
#      x y z
#    x 3.299330 0.000000 0.000000 
#    y 0.000000 2.786490 0.000000 
#    z 0.000000 0.000000 3.148740 
# 
# 
# High freq. dielectric constant tensor:
#      x y z
#    x 1.622510 0.000000 0.000000 
#    y 0.000000 1.603690 0.000000 
#    z 0.000000 0.000000 1.621830 
# 
# From -- ./inp_files/42695.got.cif
#   From: 2010.03.12/outbox.cif.g09.slc.cpg/sg67_22_cif.got.tgz:42695.got - 2010.04.10 22:41:39.
