data_PCOD8278237
_publ_section_title
;
Structure prediction by ZEFSAII (Michael W. Deem and Ramdas Pophale) SiO2 
 PCOD8278237
Probable space group: C M M A
;
_chemical_formula_sum "Si O2"
_cell_formula_units_Z 104
_cell_length_a 26.635175
_cell_length_b 9.003388
_cell_length_c 24.306985
_cell_angle_alpha 90.000000
_cell_angle_beta 90.000000
_cell_angle_gamma 90.000000
_cell_volume 5828.980654
_symmetry_space_group_name_H-M "C M M A"
_symmetry_group_IT_number 67
_symmetry_cell_setting 'orthorhombic'
loop_
_space_group_symop_operation_xyz
x,y,z
-x,1/2-y,z
x,-y,-z
-x,1/2+y,-z
-x,-y,-z
x,1/2+y,-z
-x,y,z
x,1/2-y,z
1/2+x,1/2+y,z
1/2-x,-y,z
1/2+x,1/2-y,-z
1/2-x,y,-z
1/2-x,1/2-y,-z
1/2+x,y,-z
1/2-x,1/2+y,z
1/2+x,-y,z
loop_
_atom_site_type_symbol
_atom_site_label
_atom_site_fract_x
_atom_site_fract_y
_atom_site_fract_z
Si Si1 0.000000 0.573827 0.941130
Si Si2 0.557976 0.925240 0.555121
Si Si3 0.401052 0.075699 0.874673
Si Si4 0.801863 0.575269 0.143087
Si Si5 0.396027 0.576106 0.666051
Si Si6 0.057090 0.417014 0.775912
Si Si7 0.300012 0.076102 0.270808
O O1 0.051124 0.521196 0.910599
O O2 0.000000 0.750000 0.946456
O O3 0.000000 0.500000 0.000000
O O4 0.500000 0.968352 0.563429
O O5 0.564868 0.750000 0.549960
O O6 0.588288 0.993402 0.607364
O O7 0.579745 0.000000 0.500000
O O8 0.392303 0.250000 0.880606
O O9 0.349142 0.992361 0.891266
O O10 0.412289 0.034767 0.811533
O O11 0.798401 0.750000 0.131805
O O12 0.750000 0.500000 0.122681
O O13 0.810686 0.536597 0.207243
O O14 0.390993 0.750000 0.656579
O O15 0.438690 0.541871 0.711591
O O16 0.344065 0.512064 0.690318
O O17 0.079474 0.250000 0.785686
O O18 0.000000 0.422604 0.794472
O O19 0.293905 0.250000 0.277997
O O20 0.250000 0.000000 0.292568
#
# Coordination Sequence:
#
# PCOD8278237 Si02
#       7
#     8  16  16  16  16  16  16
#     4  10  24  42  60  82 112 150 191 226 265 312
#     4   9  17  30  48  67  90 122 160 204 251 299
#     4  11  21  35  53  79 114 146 175 219 269 315
#     4  10  19  33  53  80 110 145 183 220 264 320
#     4   9  16  29  47  69  95 127 166 207 250 305
#     4  10  18  29  48  74 102 135 173 210 255 316
#     4   9  17  29  45  67  98 128 163 204 246 300
#
# _framework density 17.841885000000001
#
# number of rings (size 3 to 8) (size 9 to 14) (size 15 to 20)
#    0.000    2.308    2.308    1.385    0.000    3.692 
#    0.000    1.538    0.000    2.769    0.000    6.462 
#    0.000    0.000    0.000    0.000    0.000    0.000 
#
# Total GULP energy -644540.583055 kJ/mol
# GULP energy per Si atom -12395.011213 kJ/mol
# Density = 1.780128 g / cm^3
# Si number density = 17.841885 Si / 1000 Ang^3
#
#
#
# Elastic Constant Matrix: (Units=GPa)
#
#
# Indices 1 2 3 4 5 6 
#
# 1 137.6515 46.0973 46.9915 0.0000 0.0000 0.0000
# 2 46.0973 45.9966 22.3202 0.0000 0.0000 0.0000
# 3 46.9915 22.3202 73.6547 0.0000 0.0000 0.0000
# 4 0.0000 0.0000 0.0000 22.3459 0.0000 0.0000
# 5 0.0000 0.0000 0.0000 0.0000 18.6843 0.0000
# 6 0.0000 0.0000 0.0000 0.0000 0.0000 29.1512
#
#
#
# Elastic Compliance Matrix: (Units=1/GPa)
#
#
# Indices 1 2 3 4 5 6 
#
# 1 0.012224 -0.009926 -0.004791 0.000000 0.000000 0.000000
# 2 -0.009926 0.033549 -0.003834 0.000000 0.000000 0.000000
# 3 -0.004791 -0.003834 0.017795 0.000000 0.000000 0.000000
# 4 0.000000 0.000000 0.000000 0.044751 0.000000 0.000000
# 5 0.000000 0.000000 0.000000 0.000000 0.053521 0.000000
# 6 0.000000 0.000000 0.000000 0.000000 0.000000 0.034304
#
#
# Mechanical properties :
#
#
# Convention : Reuss Voigt Hill
#
# Bulk Modulus (GPa) = 37.78341 54.23562 46.00951
# Shear Modulus (GPa) = 20.65526 23.49589 22.07557
#
# Velocity S-wave (km/s) = 3.40617 3.63284 3.52133
# Velocity P-wave (km/s) = 6.05740 6.93258 6.50971
#
# Compressibility (1/GPa) = 0.02646665
#
# Stress axis : x y z
#
# Youngs Moduli (GPa) = 81.80308 29.80701 56.19439
#
# Poissons Ratio (x) = 0.29587 0.26923
# Poissons Ratio (y) = 0.81200 0.21544
# Poissons Ratio (z) = 0.39193 0.11427
#
# Static dielectric constant tensor:
#      x y z
#    x 3.575750 0.000000 0.000000 
#    y 0.000000 3.101520 0.000000 
#    z 0.000000 0.000000 3.222230 
# 
# 
# High freq. dielectric constant tensor:
#      x y z
#    x 1.698290 0.000000 0.000000 
#    y 0.000000 1.670920 0.000000 
#    z 0.000000 0.000000 1.662490 
# 
# From -- ./inp_files/42771.got.cif
#   From: 2010.03.12/outbox.cif.g09.slc.cpg/sg67_22_cif.got.tgz:42771.got - 2010.04.10 22:41:39.
