data_PCOD8278707
_publ_section_title
;
Structure prediction by ZEFSAII (Michael W. Deem and Ramdas Pophale) SiO2 
 PCOD8278707
Probable space group: C M M A
;
_chemical_formula_sum "Si O2"
_cell_formula_units_Z 72
_cell_length_a 25.135949
_cell_length_b 9.171889
_cell_length_c 17.030386
_cell_angle_alpha 90.000000
_cell_angle_beta 90.000000
_cell_angle_gamma 90.000000
_cell_volume 3926.255594
_symmetry_space_group_name_H-M "C M M A"
_symmetry_group_IT_number 67
_symmetry_cell_setting 'orthorhombic'
loop_
_space_group_symop_operation_xyz
x,y,z
-x,1/2-y,z
x,-y,-z
-x,1/2+y,-z
-x,-y,-z
x,1/2+y,-z
-x,y,z
x,1/2-y,z
1/2+x,1/2+y,z
1/2-x,-y,z
1/2+x,1/2-y,-z
1/2-x,y,-z
1/2-x,1/2-y,-z
1/2+x,y,-z
1/2-x,1/2+y,z
1/2+x,-y,z
loop_
_atom_site_type_symbol
_atom_site_label
_atom_site_fract_x
_atom_site_fract_y
_atom_site_fract_z
Si Si1 0.342955 0.422302 0.575111
Si Si2 0.440427 0.582670 0.635616
Si Si3 0.583722 0.080142 0.790184
Si Si4 0.801170 0.582562 0.744361
Si Si5 0.000000 0.917953 0.918937
O O1 0.315097 0.500000 0.500000
O O2 0.345381 0.250000 0.562199
O O3 0.402646 0.485400 0.580945
O O4 0.311757 0.465123 0.654214
O O5 0.500000 0.573049 0.601517
O O6 0.420309 0.750000 0.636909
O O7 0.441116 0.520628 0.723677
O O8 0.575005 0.250000 0.766769
O O9 0.647008 0.048060 0.797663
O O10 0.553449 0.041812 0.870654
O O11 0.786320 0.750000 0.747790
O O12 0.750000 0.500000 0.778504
O O13 0.000000 0.750000 0.940246
O O14 0.000000 0.000000 0.000000
#
# Coordination Sequence:
#
# PCOD8278707 Si02
#       5
#    16  16  16  16   8
#     4  10  21  35  49  68  97 133 174 219 267 316
#     4  10  19  30  48  73  99 131 172 215 258 309
#     4   9  18  34  54  76 105 141 173 206 252 305
#     4   9  19  34  53  76  99 131 176 217 260 308
#     4  10  20  34  56  84 115 142 167 204 250 302
#
# _framework density 18.338083999999998
#
# number of rings (size 3 to 8) (size 9 to 14) (size 15 to 20)
#    0.000    2.444    1.111    2.667    0.000    7.556 
#    0.000    2.222    0.000    0.667    0.000    4.667 
#    0.000    0.000    0.000    0.000    0.000    0.000 
#
# Total GULP energy -446299.640166 kJ/mol
# GULP energy per Si atom -12397.212227 kJ/mol
# Density = 1.829635 g / cm^3
# Si number density = 18.338084 Si / 1000 Ang^3
#
#
#
# Elastic Constant Matrix: (Units=GPa)
#
#
# Indices 1 2 3 4 5 6 
#
# 1 120.3899 35.3664 34.1732 0.0000 0.0000 0.0000
# 2 35.3664 64.8552 27.2816 0.0000 0.0000 0.0000
# 3 34.1732 27.2816 86.3641 0.0000 0.0000 0.0000
# 4 0.0000 0.0000 0.0000 30.2433 0.0000 0.0000
# 5 0.0000 0.0000 0.0000 0.0000 12.9722 0.0000
# 6 0.0000 0.0000 0.0000 0.0000 0.0000 30.5520
#
#
#
# Elastic Compliance Matrix: (Units=1/GPa)
#
#
# Indices 1 2 3 4 5 6 
#
# 1 0.010402 -0.004545 -0.002680 0.000000 0.000000 0.000000
# 2 -0.004545 0.019768 -0.004446 0.000000 0.000000 0.000000
# 3 -0.002680 -0.004446 0.014044 0.000000 0.000000 0.000000
# 4 0.000000 0.000000 0.000000 0.033065 0.000000 0.000000
# 5 0.000000 0.000000 0.000000 0.000000 0.077088 0.000000
# 6 0.000000 0.000000 0.000000 0.000000 0.000000 0.032731
#
#
# Mechanical properties :
#
#
# Convention : Reuss Voigt Hill
#
# Bulk Modulus (GPa) = 47.91300 51.69461 49.80380
# Shear Modulus (GPa) = 22.99931 26.40604 24.70268
#
# Velocity S-wave (km/s) = 3.54529 3.79879 3.67423
# Velocity P-wave (km/s) = 6.55310 6.89145 6.72440
#
# Compressibility (1/GPa) = 0.02087116
#
# Stress axis : x y z
#
# Youngs Moduli (GPa) = 96.13217 50.58765 71.20521
#
# Poissons Ratio (x) = 0.22992 0.19085
# Poissons Ratio (y) = 0.43692 0.31658
# Poissons Ratio (z) = 0.25767 0.22491
#
# Static dielectric constant tensor:
#      x y z
#    x 3.471400 0.000000 0.000000 
#    y 0.000000 3.384080 0.000000 
#    z 0.000000 0.000000 3.077780 
# 
# 
# High freq. dielectric constant tensor:
#      x y z
#    x 1.713940 0.000000 0.000000 
#    y 0.000000 1.715870 0.000000 
#    z 0.000000 0.000000 1.671910 
# 
# From -- ./inp_files/25088.got.cif
#   From: 2010.03.12/outbox.cif.g09.slc.cpg/sg67_13_cif.got.tgz:25088.got - 2010.04.10 22:41:39.
