data_PCOD8278113
_publ_section_title
;
Structure prediction by ZEFSAII (Michael W. Deem and Ramdas Pophale) SiO2 
 PCOD8278113
Probable space group: C M M A
;
_chemical_formula_sum "Si O2"
_cell_formula_units_Z 64
_cell_length_a 8.547790
_cell_length_b 18.426535
_cell_length_c 20.670039
_cell_angle_alpha 90.000000
_cell_angle_beta 90.000000
_cell_angle_gamma 90.000000
_cell_volume 3255.658296
_symmetry_space_group_name_H-M "C M M A"
_symmetry_group_IT_number 67
_symmetry_cell_setting 'orthorhombic'
loop_
_space_group_symop_operation_xyz
x,y,z
-x,1/2-y,z
x,-y,-z
-x,1/2+y,-z
-x,-y,-z
x,1/2+y,-z
-x,y,z
x,1/2-y,z
1/2+x,1/2+y,z
1/2-x,-y,z
1/2+x,1/2-y,-z
1/2-x,y,-z
1/2-x,1/2-y,-z
1/2+x,y,-z
1/2-x,1/2+y,z
1/2+x,-y,z
loop_
_atom_site_type_symbol
_atom_site_label
_atom_site_fract_x
_atom_site_fract_y
_atom_site_fract_z
Si Si1 0.184587 0.081019 0.435185
Si Si2 0.179607 0.835614 0.814299
Si Si3 0.316476 0.920195 0.696366
Si Si4 0.814127 0.077711 0.929568
O O1 0.250000 0.121017 0.500000
O O2 0.243835 0.117135 0.368443
O O3 0.000000 0.081453 0.437560
O O4 0.250000 0.000000 0.434335
O O5 0.195046 0.750000 0.810494
O O6 0.277291 0.869049 0.755936
O O7 0.254088 0.860818 0.881493
O O8 0.000000 0.861120 0.809847
O O9 0.500000 0.926833 0.687024
O O10 0.250000 0.000000 0.709773
O O11 0.000000 0.075251 0.931083
O O12 0.750000 0.000000 0.906022
O O13 0.750000 0.097617 0.000000
#
# Coordination Sequence:
#
# PCOD8278113 Si02
#       4
#    16  16  16  16
#     4  10  17  28  47  75 109 142 180 226 279 330
#     4  11  24  41  59  81 112 149 188 230 277 329
#     4  11  21  35  56  82 112 146 187 231 278 331
#     4  11  22  39  63  89 117 147 184 227 274 327
#
# _framework density 19.658082
#
# number of rings (size 3 to 8) (size 9 to 14) (size 15 to 20)
#    0.000    1.250    0.000   11.250    0.000    2.500 
#    0.000    0.000    0.000    0.750    0.000    0.000 
#    0.000    0.000    0.000    0.000    0.000    0.000 
#
# Total GULP energy -396849.225100 kJ/mol
# GULP energy per Si atom -12401.538284 kJ/mol
# Density = 1.961334 g / cm^3
# Si number density = 19.658082 Si / 1000 Ang^3
#
#
#
# Elastic Constant Matrix: (Units=GPa)
#
#
# Indices 1 2 3 4 5 6 
#
# 1 189.8111 35.6745 48.9354 0.0000 0.0000 0.0000
# 2 35.6745 52.2412 43.7822 0.0000 0.0000 0.0000
# 3 48.9354 43.7822 136.6161 0.0000 0.0000 0.0000
# 4 0.0000 0.0000 0.0000 -13.3444 0.0000 0.0000
# 5 0.0000 0.0000 0.0000 0.0000 42.7088 0.0000
# 6 0.0000 0.0000 0.0000 0.0000 0.0000 21.3854
#
#
#
# Elastic Compliance Matrix: (Units=1/GPa)
#
#
# Indices 1 2 3 4 5 6 
#
# 1 0.006180 -0.003233 -0.001177 0.000000 0.000000 0.000000
# 2 -0.003233 0.027863 -0.007771 0.000000 0.000000 0.000000
# 3 -0.001177 -0.007771 0.010232 0.000000 0.000000 0.000000
# 4 0.000000 0.000000 0.000000 -0.074938 0.000000 0.000000
# 5 0.000000 0.000000 0.000000 0.000000 0.023414 0.000000
# 6 0.000000 0.000000 0.000000 0.000000 0.000000 0.046761
#
#
# Mechanical properties :
#
#
# Convention : Reuss Voigt Hill
#
# Bulk Modulus (GPa) = 50.22400 70.60582 60.41491
# Shear Modulus (GPa) = 70.90967 26.83505 48.87236
#
# Velocity S-wave (km/s) = 6.01247 3.69872 4.99151
# Velocity P-wave (km/s) = 8.59093 7.36448 8.00124
#
# Compressibility (1/GPa) = 0.01991080
#
# Stress axis : x y z
#
# Youngs Moduli (GPa) = 161.82268 35.89015 97.73263
#
# Poissons Ratio (x) = 0.11604 0.11506
# Poissons Ratio (y) = 0.52321 0.75950
# Poissons Ratio (z) = 0.19052 0.27891
#
# Static dielectric constant tensor:
#      x y z
#    x 3.820890 0.000000 0.000000 
#    y 0.000000 3.187330 0.000000 
#    z 0.000000 0.000000 4.382270 
# 
# 
# High freq. dielectric constant tensor:
#      x y z
#    x 1.792530 0.000000 0.000000 
#    y 0.000000 1.718650 0.000000 
#    z 0.000000 0.000000 1.794870 
# 
# From -- ./inp_files/36568.got.cif
#   From: 2010.03.12/outbox.cif.g09.slc.cpg/sg67_19_cif.got.tgz:36568.got - 2010.04.10 22:41:39.
