data_PCOD8278270
_publ_section_title
;
Structure prediction by ZEFSAII (Michael W. Deem and Ramdas Pophale) SiO2 
 PCOD8278270
Probable space group: C M M A
;
_chemical_formula_sum "Si O2"
_cell_formula_units_Z 120
_cell_length_a 8.749020
_cell_length_b 27.291886
_cell_length_c 29.059289
_cell_angle_alpha 90.000000
_cell_angle_beta 90.000000
_cell_angle_gamma 90.000000
_cell_volume 6938.697302
_symmetry_space_group_name_H-M "C M M A"
_symmetry_group_IT_number 67
_symmetry_cell_setting 'orthorhombic'
loop_
_space_group_symop_operation_xyz
x,y,z
-x,1/2-y,z
x,-y,-z
-x,1/2+y,-z
-x,-y,-z
x,1/2+y,-z
-x,y,z
x,1/2-y,z
1/2+x,1/2+y,z
1/2-x,-y,z
1/2+x,1/2-y,-z
1/2-x,y,-z
1/2-x,1/2-y,-z
1/2+x,y,-z
1/2-x,1/2+y,z
1/2+x,-y,z
loop_
_atom_site_type_symbol
_atom_site_label
_atom_site_fract_x
_atom_site_fract_y
_atom_site_fract_z
Si Si1 0.671282 0.808174 0.954335
Si Si2 0.680683 0.552460 0.278900
Si Si3 0.319566 0.694255 0.140082
Si Si4 0.174677 0.861168 0.223402
Si Si5 0.823213 0.610363 0.633175
Si Si6 0.680092 0.349871 0.450182
Si Si7 0.182983 0.750000 0.550799
Si Si8 0.326233 0.805918 0.685568
O O1 0.500000 0.829156 0.950580
O O2 0.668624 0.750000 0.957965
O O3 0.766093 0.824722 0.909723
O O4 0.750000 0.830389 0.000000
O O5 0.500000 0.550860 0.274732
O O6 0.750000 0.500000 0.268074
O O7 0.742854 0.590045 0.241229
O O8 0.729271 0.568451 0.330854
O O9 0.500000 0.692042 0.142534
O O10 0.261398 0.750000 0.148808
O O11 0.251735 0.657340 0.177112
O O12 0.188455 0.817815 0.260557
O O13 0.000000 0.874673 0.213239
O O14 0.725749 0.607000 0.585673
O O15 0.793709 0.662420 0.657153
O O16 0.000000 0.605550 0.620260
O O17 0.500000 0.344962 0.455635
O O18 0.750000 0.361716 0.500000
O O19 0.750204 0.299954 0.427283
O O20 0.250000 0.750000 0.500000
O O21 0.000000 0.750000 0.551531
O O22 0.500000 0.816785 0.668683
O O23 0.280377 0.750000 0.677598
#
# Coordination Sequence:
#
# PCOD8278270 Si02
#       8
#    16  16  16  16  16  16   8  16
#     4   9  16  26  40  59  87 127 175 220 258 296
#     4  10  21  38  59  79 100 125 156 198 247 298
#     4  10  19  29  43  66  99 138 176 214 254 297
#     4  10  19  32  50  72  98 128 164 204 247 297
#     4  10  21  35  51  74  99 126 160 196 236 284
#     4  11  21  34  51  71  98 130 162 197 234 276
#     4  10  18  30  46  66  94 128 164 196 228 266
#     4   9  18  31  46  66  95 129 163 197 233 279
#
# _framework density 17.294311
#
# number of rings (size 3 to 8) (size 9 to 14) (size 15 to 20)
#    0.000    2.133    0.000    5.000    0.933    5.333 
#    0.000    0.000    0.000    0.400    0.000    2.800 
#    0.000    0.533    0.000    5.333    0.000    3.467 
#
# Total GULP energy -743924.417530 kJ/mol
# GULP energy per Si atom -12398.740292 kJ/mol
# Density = 1.725495 g / cm^3
# Si number density = 17.294311 Si / 1000 Ang^3
#
#
#
# Elastic Constant Matrix: (Units=GPa)
#
#
# Indices 1 2 3 4 5 6 
#
# 1 101.9764 31.1364 45.9513 0.0000 0.0000 0.0000
# 2 31.1364 67.2811 35.4891 0.0000 0.0000 0.0000
# 3 45.9513 35.4891 113.6001 0.0000 0.0000 0.0000
# 4 0.0000 0.0000 0.0000 16.0932 0.0000 0.0000
# 5 0.0000 0.0000 0.0000 0.0000 33.6664 0.0000
# 6 0.0000 0.0000 0.0000 0.0000 0.0000 21.9084
#
#
#
# Elastic Compliance Matrix: (Units=1/GPa)
#
#
# Indices 1 2 3 4 5 6 
#
# 1 0.012759 -0.003810 -0.003971 0.000000 0.000000 0.000000
# 2 -0.003810 0.018933 -0.004374 0.000000 0.000000 0.000000
# 3 -0.003971 -0.004374 0.011775 0.000000 0.000000 0.000000
# 4 0.000000 0.000000 0.000000 0.062138 0.000000 0.000000
# 5 0.000000 0.000000 0.000000 0.000000 0.029703 0.000000
# 6 0.000000 0.000000 0.000000 0.000000 0.000000 0.045645
#
#
# Mechanical properties :
#
#
# Convention : Reuss Voigt Hill
#
# Bulk Modulus (GPa) = 52.19606 56.44569 54.32088
# Shear Modulus (GPa) = 23.62414 25.68565 24.65490
#
# Velocity S-wave (km/s) = 3.69996 3.85802 3.77982
# Velocity P-wave (km/s) = 6.96416 7.24948 7.10825
#
# Compressibility (1/GPa) = 0.01915853
#
# Stress axis : x y z
#
# Youngs Moduli (GPa) = 78.37778 52.81721 84.92380
#
# Poissons Ratio (x) = 0.20124 0.33720
# Poissons Ratio (y) = 0.29863 0.37142
# Poissons Ratio (z) = 0.31121 0.23100
#
# Static dielectric constant tensor:
#      x y z
#    x 3.327270 0.000000 0.000000 
#    y 0.000000 3.016440 0.000000 
#    z 0.000000 0.000000 3.300390 
# 
# 
# High freq. dielectric constant tensor:
#      x y z
#    x 1.684330 0.000000 0.000000 
#    y 0.000000 1.617060 0.000000 
#    z 0.000000 0.000000 1.671040 
# 
# From -- ./inp_files/43896.got.cif
#   From: 2010.03.12/outbox.cif.g09.slc.cpg/sg67_22_cif.got.tgz:43896.got - 2010.04.10 22:41:39.
