data_PCOD8278530
_publ_section_title
;
Structure prediction by ZEFSAII (Michael W. Deem and Ramdas Pophale) SiO2 
 PCOD8278530
Probable space group: C M M A
;
_chemical_formula_sum "Si O2"
_cell_formula_units_Z 120
_cell_length_a 8.818472
_cell_length_b 26.889143
_cell_length_c 29.624404
_cell_angle_alpha 90.000000
_cell_angle_beta 90.000000
_cell_angle_gamma 90.000000
_cell_volume 7024.572882
_symmetry_space_group_name_H-M "C M M A"
_symmetry_group_IT_number 67
_symmetry_cell_setting 'orthorhombic'
loop_
_space_group_symop_operation_xyz
x,y,z
-x,1/2-y,z
x,-y,-z
-x,1/2+y,-z
-x,-y,-z
x,1/2+y,-z
-x,y,z
x,1/2-y,z
1/2+x,1/2+y,z
1/2-x,-y,z
1/2+x,1/2-y,-z
1/2-x,y,-z
1/2-x,1/2-y,-z
1/2+x,y,-z
1/2-x,1/2+y,z
1/2+x,-y,z
loop_
_atom_site_type_symbol
_atom_site_label
_atom_site_fract_x
_atom_site_fract_y
_atom_site_fract_z
Si Si1 0.670100 0.808993 0.044560
Si Si2 0.320475 0.303774 0.693585
Si Si3 0.821267 0.051551 0.727186
Si Si4 0.321260 0.447290 0.376643
Si Si5 0.820811 0.650988 0.602396
Si Si6 0.178771 0.692840 0.137061
Si Si7 0.819778 0.750000 0.549051
Si Si8 0.179796 0.639051 0.779786
O O1 0.500000 0.830564 0.048328
O O2 0.664796 0.750000 0.040738
O O3 0.766268 0.825190 0.088071
O O4 0.750000 0.831445 0.000000
O O5 0.500000 0.299976 0.691787
O O6 0.247049 0.250000 0.685225
O O7 0.266989 0.339591 0.653696
O O8 0.265478 0.321761 0.742174
O O9 0.775436 0.063959 0.675424
O O10 0.750522 0.087580 0.764303
O O11 0.000000 0.050555 0.732710
O O12 0.750000 0.000000 0.741439
O O13 0.500000 0.451178 0.383154
O O14 0.250000 0.500000 0.392184
O O15 0.258429 0.402179 0.408672
O O16 0.764630 0.698773 0.573283
O O17 0.000000 0.644371 0.596843
O O18 0.228284 0.750000 0.146025
O O19 0.257079 0.656621 0.172584
O O20 0.000000 0.686826 0.140012
O O21 0.750000 0.750000 0.500000
O O22 0.000000 0.750000 0.547252
O O23 0.000000 0.634275 0.782532
#
# Coordination Sequence:
#
# PCOD8278530 Si02
#       8
#    16  16  16  16  16  16   8  16
#     4   9  16  27  44  64  86 116 159 206 252 301
#     4   9  16  27  45  69  96 128 168 205 239 286
#     4  10  20  33  48  68  96 128 166 205 249 295
#     4  10  20  33  52  78 107 137 171 214 259 305
#     4  10  18  33  55  78 104 137 175 212 252 303
#     4  10  20  32  44  62  94 132 167 206 249 295
#     4  10  22  38  60  84 112 144 176 214 261 310
#     4  11  20  30  47  68  95 131 168 205 247 296
#
# _framework density 17.082888000000001
#
# number of rings (size 3 to 8) (size 9 to 14) (size 15 to 20)
#    0.000    2.133    2.000    2.400    0.000    4.533 
#    0.000    0.000    0.000    1.200    0.000    2.800 
#    0.000    0.533    0.000    5.333    0.000    3.467 
#
# Total GULP energy -743692.125066 kJ/mol
# GULP energy per Si atom -12394.868751 kJ/mol
# Density = 1.704401 g / cm^3
# Si number density = 17.082888 Si / 1000 Ang^3
#
#
#
# Elastic Constant Matrix: (Units=GPa)
#
#
# Indices 1 2 3 4 5 6 
#
# 1 69.4552 43.5879 30.4149 0.0000 0.0000 0.0000
# 2 43.5879 129.0833 47.6843 0.0000 0.0000 0.0000
# 3 30.4149 47.6843 80.7174 0.0000 0.0000 0.0000
# 4 0.0000 0.0000 0.0000 12.6975 0.0000 0.0000
# 5 0.0000 0.0000 0.0000 0.0000 26.5270 0.0000
# 6 0.0000 0.0000 0.0000 0.0000 0.0000 25.5867
#
#
#
# Elastic Compliance Matrix: (Units=1/GPa)
#
#
# Indices 1 2 3 4 5 6 
#
# 1 0.019421 -0.004931 -0.004405 0.000000 0.000000 0.000000
# 2 -0.004931 0.011161 -0.004736 0.000000 0.000000 0.000000
# 3 -0.004405 -0.004736 0.016846 0.000000 0.000000 0.000000
# 4 0.000000 0.000000 0.000000 0.078756 0.000000 0.000000
# 5 0.000000 0.000000 0.000000 0.000000 0.037697 0.000000
# 6 0.000000 0.000000 0.000000 0.000000 0.000000 0.039083
#
#
# Mechanical properties :
#
#
# Convention : Reuss Voigt Hill
#
# Bulk Modulus (GPa) = 51.85172 58.07002 54.96087
# Shear Modulus (GPa) = 21.04941 23.46684 22.25812
#
# Velocity S-wave (km/s) = 3.51407 3.71037 3.61355
# Velocity P-wave (km/s) = 6.84718 7.24035 7.04651
#
# Compressibility (1/GPa) = 0.01928576
#
# Stress axis : x y z
#
# Youngs Moduli (GPa) = 51.49016 89.59545 59.35971
#
# Poissons Ratio (x) = 0.44177 0.26149
# Poissons Ratio (y) = 0.25388 0.28111
# Poissons Ratio (z) = 0.22683 0.42430
#
# Static dielectric constant tensor:
#      x y z
#    x 3.145200 0.000000 0.000000 
#    y 0.000000 3.190840 0.000000 
#    z 0.000000 0.000000 2.916530 
# 
# 
# High freq. dielectric constant tensor:
#      x y z
#    x 1.658920 0.000000 0.000000 
#    y 0.000000 1.643950 0.000000 
#    z 0.000000 0.000000 1.640010 
# 
# From -- ./inp_files/43891.got.cif
#   From: 2010.03.12/outbox.cif.g09.slc.cpg/sg67_22_cif.got.tgz:43891.got - 2010.04.10 22:41:39.
