data_PCOD8278782
_publ_section_title
;
Structure prediction by ZEFSAII (Michael W. Deem and Ramdas Pophale) SiO2 
 PCOD8278782
Probable space group: C M M A
;
_chemical_formula_sum "Si O2"
_cell_formula_units_Z 96
_cell_length_a 9.131970
_cell_length_b 27.054381
_cell_length_c 23.887325
_cell_angle_alpha 90.000000
_cell_angle_beta 90.000000
_cell_angle_gamma 90.000000
_cell_volume 5901.597633
_symmetry_space_group_name_H-M "C M M A"
_symmetry_group_IT_number 67
_symmetry_cell_setting 'orthorhombic'
loop_
_space_group_symop_operation_xyz
x,y,z
-x,1/2-y,z
x,-y,-z
-x,1/2+y,-z
-x,-y,-z
x,1/2+y,-z
-x,y,z
x,1/2-y,z
1/2+x,1/2+y,z
1/2-x,-y,z
1/2+x,1/2-y,-z
1/2-x,y,-z
1/2-x,1/2-y,-z
1/2+x,y,-z
1/2-x,1/2+y,z
1/2+x,-y,z
loop_
_atom_site_type_symbol
_atom_site_label
_atom_site_fract_x
_atom_site_fract_y
_atom_site_fract_z
Si Si1 0.831688 0.950582 0.728391
Si Si2 0.329360 0.610419 0.166073
Si Si3 0.171091 0.306852 0.444897
Si Si4 0.326610 0.551213 0.056314
Si Si5 0.329446 0.850840 0.329096
Si Si6 0.669497 0.806816 0.774420
O O1 0.777652 0.930571 0.788797
O O2 0.800655 0.908791 0.681768
O O3 0.000000 0.964830 0.731647
O O4 0.750000 0.000000 0.710597
O O5 0.500000 0.621800 0.175523
O O6 0.295792 0.591283 0.104087
O O7 0.241556 0.660939 0.176046
O O8 0.214909 0.250000 0.434491
O O9 0.250000 0.327975 0.500000
O O10 0.225035 0.338176 0.391445
O O11 0.000000 0.313084 0.454651
O O12 0.500000 0.542746 0.047309
O O13 0.250000 0.500000 0.073749
O O14 0.250000 0.571491 0.000000
O O15 0.500000 0.837619 0.321733
O O16 0.242639 0.817372 0.285271
O O17 0.500000 0.820718 0.769884
O O18 0.693281 0.750000 0.790701
#
# Coordination Sequence:
#
# PCOD8278782 Si02
#       6
#    16  16  16  16  16  16
#     4   9  17  29  45  66  90 116 149 186 222 264
#     4   9  19  33  48  67  92 124 157 186 222 273
#     4   9  17  29  46  67  90 117 148 184 226 269
#     4  10  19  31  48  71  97 125 157 191 230 274
#     4   9  18  32  48  66  91 124 156 183 220 275
#     4  10  20  31  46  71  97 119 148 189 232 270
#
# _framework density 16.266781999999999
#
# number of rings (size 3 to 8) (size 9 to 14) (size 15 to 20)
#    0.000    2.667    0.000    3.500    0.000    6.667 
#    0.000    1.667    0.000    1.000    0.000    3.500 
#    0.000    0.000    0.000    0.000    0.000    0.000 
#
# Total GULP energy -595198.034302 kJ/mol
# GULP energy per Si atom -12399.959048 kJ/mol
# Density = 1.622976 g / cm^3
# Si number density = 16.266782 Si / 1000 Ang^3
#
#
#
# Elastic Constant Matrix: (Units=GPa)
#
#
# Indices 1 2 3 4 5 6 
#
# 1 75.5577 52.8791 53.3775 0.0000 0.0000 0.0000
# 2 52.8791 96.2525 63.5747 0.0000 0.0000 0.0000
# 3 53.3775 63.5747 132.8757 0.0000 0.0000 0.0000
# 4 0.0000 0.0000 0.0000 25.4269 0.0000 0.0000
# 5 0.0000 0.0000 0.0000 0.0000 26.4227 0.0000
# 6 0.0000 0.0000 0.0000 0.0000 0.0000 28.6732
#
#
#
# Elastic Compliance Matrix: (Units=1/GPa)
#
#
# Indices 1 2 3 4 5 6 
#
# 1 0.023386 -0.009712 -0.004748 0.000000 0.000000 0.000000
# 2 -0.009712 0.019223 -0.005296 0.000000 0.000000 0.000000
# 3 -0.004748 -0.005296 0.011967 0.000000 0.000000 0.000000
# 4 0.000000 0.000000 0.000000 0.039328 0.000000 0.000000
# 5 0.000000 0.000000 0.000000 0.000000 0.037846 0.000000
# 6 0.000000 0.000000 0.000000 0.000000 0.000000 0.034876
#
#
# Mechanical properties :
#
#
# Convention : Reuss Voigt Hill
#
# Bulk Modulus (GPa) = 66.38047 71.59429 68.98738
# Shear Modulus (GPa) = 23.67899 25.09487 24.38693
#
# Velocity S-wave (km/s) = 3.81946 3.93199 3.87613
# Velocity P-wave (km/s) = 7.76833 8.04501 7.90788
#
# Compressibility (1/GPa) = 0.01506467
#
# Stress axis : x y z
#
# Youngs Moduli (GPa) = 42.76123 52.02183 83.56457
#
# Poissons Ratio (x) = 0.50523 0.39673
# Poissons Ratio (y) = 0.41529 0.44254
# Poissons Ratio (z) = 0.20301 0.27550
#
# Static dielectric constant tensor:
#      x y z
#    x 3.102660 0.000000 0.000000 
#    y 0.000000 2.961420 0.000000 
#    z 0.000000 0.000000 3.114470 
# 
# 
# High freq. dielectric constant tensor:
#      x y z
#    x 1.630330 0.000000 0.000000 
#    y 0.000000 1.611900 0.000000 
#    z 0.000000 0.000000 1.619100 
# 
# From -- ./inp_files/40922.got.cif
#   From: 2010.03.12/outbox.cif.g09.slc.cpg/sg67_21_cif.got.tgz:40922.got - 2010.04.10 22:41:39.
