data_PCOD8278989
_publ_section_title
;
Structure prediction by ZEFSAII (Michael W. Deem and Ramdas Pophale) SiO2 
 PCOD8278989
Probable space group: C M M A
;
_chemical_formula_sum "Si O2"
_cell_formula_units_Z 128
_cell_length_a 19.048322
_cell_length_b 18.107537
_cell_length_c 20.857474
_cell_angle_alpha 90.000000
_cell_angle_beta 90.000000
_cell_angle_gamma 90.000000
_cell_volume 7194.122293
_symmetry_space_group_name_H-M "C M M A"
_symmetry_group_IT_number 67
_symmetry_cell_setting 'orthorhombic'
loop_
_space_group_symop_operation_xyz
x,y,z
-x,1/2-y,z
x,-y,-z
-x,1/2+y,-z
-x,-y,-z
x,1/2+y,-z
-x,y,z
x,1/2-y,z
1/2+x,1/2+y,z
1/2-x,-y,z
1/2+x,1/2-y,-z
1/2-x,y,-z
1/2-x,1/2-y,-z
1/2+x,y,-z
1/2-x,1/2+y,z
1/2+x,-y,z
loop_
_atom_site_type_symbol
_atom_site_label
_atom_site_fract_x
_atom_site_fract_y
_atom_site_fract_z
Si Si1 0.281625 0.080545 0.313315
Si Si2 0.421838 0.895099 0.236448
Si Si3 0.722314 0.663481 0.432399
Si Si4 0.921898 0.664547 0.125675
Si Si5 0.715034 0.664536 0.194437
Si Si6 0.782359 0.336553 0.935736
Si Si7 0.079266 0.063554 0.753345
Si Si8 0.078168 0.164793 0.374301
O O1 0.267604 0.126577 0.376891
O O2 0.246325 0.117790 0.252125
O O3 0.365804 0.078157 0.303734
O O4 0.250000 0.000000 0.322084
O O5 0.500000 0.867811 0.219121
O O6 0.368960 0.846302 0.194245
O O7 0.407357 0.884775 0.312120
O O8 0.411823 0.980932 0.219711
O O9 0.736720 0.750000 0.427625
O O10 0.750000 0.631935 0.500000
O O11 0.638780 0.645784 0.425882
O O12 0.915235 0.750000 0.145783
O O13 0.865711 0.645956 0.069780
O O14 0.903755 0.618673 0.188775
O O15 0.000000 0.646093 0.099669
O O16 0.735151 0.750000 0.203605
O O17 0.744048 0.632285 0.127534
O O18 0.767505 0.250000 0.938847
O O19 0.750000 0.373935 0.000000
O O20 0.000000 0.075832 0.726997
O O21 0.084081 0.250000 0.352804
O O22 0.000000 0.148583 0.402871
#
# Coordination Sequence:
#
# PCOD8278989 Si02
#       8
#    16  16  16  16  16  16  16  16
#     4  12  21  34  55  80 106 139 178 220 264 319
#     4  10  19  32  51  78 109 138 170 218 273 322
#     4  10  21  36  53  77 108 140 177 223 269 315
#     4   9  17  30  50  74 100 136 179 216 258 318
#     4  11  20  32  54  81 107 135 174 225 270 314
#     4   9  18  32  50  75 106 137 173 219 267 312
#     4  10  20  33  51  77 109 140 174 219 268 314
#     4   9  16  29  51  76 103 136 172 208 258 324
#
# _framework density 17.792303
#
# number of rings (size 3 to 8) (size 9 to 14) (size 15 to 20)
#    0.000    2.000    3.750    0.750    0.000    1.500 
#    0.000    1.250    0.000    6.375    0.000    7.000 
#    0.000    0.000    0.000    0.000    0.000    0.000 
#
# Total GULP energy -793447.040881 kJ/mol
# GULP energy per Si atom -12397.610014 kJ/mol
# Density = 1.775181 g / cm^3
# Si number density = 17.792303 Si / 1000 Ang^3
#
#
#
# Elastic Constant Matrix: (Units=GPa)
#
#
# Indices 1 2 3 4 5 6 
#
# 1 138.4241 18.5282 63.9674 0.0000 0.0000 0.0000
# 2 18.5282 40.0324 24.5404 0.0000 0.0000 0.0000
# 3 63.9674 24.5404 113.5569 0.0000 0.0000 0.0000
# 4 0.0000 0.0000 0.0000 -2.7086 0.0000 0.0000
# 5 0.0000 0.0000 0.0000 0.0000 27.5679 0.0000
# 6 0.0000 0.0000 0.0000 0.0000 0.0000 29.9750
#
#
#
# Elastic Compliance Matrix: (Units=1/GPa)
#
#
# Indices 1 2 3 4 5 6 
#
# 1 0.009828 -0.001331 -0.005248 0.000000 0.000000 0.000000
# 2 -0.001331 0.028975 -0.005512 0.000000 0.000000 0.000000
# 3 -0.005248 -0.005512 0.012954 0.000000 0.000000 0.000000
# 4 0.000000 0.000000 0.000000 -0.369188 0.000000 0.000000
# 5 0.000000 0.000000 0.000000 0.000000 0.036274 0.000000
# 6 0.000000 0.000000 0.000000 0.000000 0.000000 0.033361
#
#
# Mechanical properties :
#
#
# Convention : Reuss Voigt Hill
#
# Bulk Modulus (GPa) = 36.26670 56.23170 46.24920
# Shear Modulus (GPa) = -23.31836 23.29866 -0.00985
#
# Velocity S-wave (km/s) = -3.62413 3.62260 -0.07449
# Velocity P-wave (km/s) = 1.70739 7.01219 5.10323
#
# Compressibility (1/GPa) = 0.02757350
#
# Stress axis : x y z
#
# Youngs Moduli (GPa) = 101.75351 34.51287 77.19810
#
# Poissons Ratio (x) = 0.04595 0.40516
# Poissons Ratio (y) = 0.13546 0.42549
# Poissons Ratio (z) = 0.53403 0.19023
#
# Static dielectric constant tensor:
#      x y z
#    x 3.776390 0.000000 0.000000 
#    y 0.000000 3.220630 0.000000 
#    z 0.000000 0.000000 3.190580 
# 
# 
# High freq. dielectric constant tensor:
#      x y z
#    x 1.710460 0.000000 0.000000 
#    y 0.000000 1.678740 0.000000 
#    z 0.000000 0.000000 1.652170 
# 
# From -- ./inp_files/39406.got.cif
#   From: 2010.03.12/outbox.cif.g09.slc.cpg/sg67_20_cif.got.tgz:39406.got - 2010.04.10 22:41:39.
