data_PCOD8278985
_publ_section_title
;
Structure prediction by ZEFSAII (Michael W. Deem and Ramdas Pophale) SiO2 
 PCOD8278985
Probable space group: C M M A
;
_chemical_formula_sum "Si O2"
_cell_formula_units_Z 80
_cell_length_a 25.412773
_cell_length_b 17.174316
_cell_length_c 10.222551
_cell_angle_alpha 90.000000
_cell_angle_beta 90.000000
_cell_angle_gamma 90.000000
_cell_volume 4461.601654
_symmetry_space_group_name_H-M "C M M A"
_symmetry_group_IT_number 67
_symmetry_cell_setting 'orthorhombic'
loop_
_space_group_symop_operation_xyz
x,y,z
-x,1/2-y,z
x,-y,-z
-x,1/2+y,-z
-x,-y,-z
x,1/2+y,-z
-x,y,z
x,1/2-y,z
1/2+x,1/2+y,z
1/2-x,-y,z
1/2+x,1/2-y,-z
1/2-x,y,-z
1/2-x,1/2-y,-z
1/2+x,y,-z
1/2-x,1/2+y,z
1/2+x,-y,z
loop_
_atom_site_type_symbol
_atom_site_label
_atom_site_fract_x
_atom_site_fract_y
_atom_site_fract_z
Si Si1 0.322824 0.838273 0.734984
Si Si2 0.059849 0.556091 0.877175
Si Si3 0.872270 0.490822 0.645623
Si Si4 0.852256 0.662388 0.964390
Si Si5 0.720227 0.575434 0.225623
O O1 0.330267 0.750000 0.681722
O O2 0.357801 0.899497 0.655463
O O3 0.261249 0.860993 0.719085
O O4 0.343585 0.844112 0.882215
O O5 0.083395 0.513718 0.749928
O O6 0.090449 0.634347 0.917110
O O7 0.000000 0.578964 0.846117
O O8 0.064584 0.500000 0.000000
O O9 0.895055 0.500000 0.500000
O O10 0.821322 0.547238 0.663750
O O11 0.845517 0.750000 0.914335
O O12 0.808160 0.609402 0.900101
O O13 0.750000 0.500000 0.171871
#
# Coordination Sequence:
#
# PCOD8278985 Si02
#       5
#    16  16  16  16  16
#     4  10  19  32  51  77 110 145 182 219 266 319
#     4  10  20  37  60  82 102 132 179 226 274 328
#     4  10  21  37  54  78 110 145 182 222 266 319
#     4  10  19  32  52  82 112 139 176 228 282 322
#     4   9  19  30  50  77 110 148 186 218 259 313
#
# _framework density 17.930781
#
# number of rings (size 3 to 8) (size 9 to 14) (size 15 to 20)
#    0.000    2.200    2.000    1.200    0.000    8.400 
#    0.000    6.000    0.000    0.600    0.000    0.000 
#    0.000    0.000    0.000    0.000    0.000    0.000 
#
# Total GULP energy -495907.649217 kJ/mol
# GULP energy per Si atom -12397.691230 kJ/mol
# Density = 1.788997 g / cm^3
# Si number density = 17.930781 Si / 1000 Ang^3
#
#
#
# Elastic Constant Matrix: (Units=GPa)
#
#
# Indices 1 2 3 4 5 6 
#
# 1 102.3694 27.6493 32.0501 0.0000 0.0000 0.0000
# 2 27.6493 95.8518 32.5227 0.0000 0.0000 0.0000
# 3 32.0501 32.5227 91.9032 0.0000 0.0000 0.0000
# 4 0.0000 0.0000 0.0000 17.1205 0.0000 0.0000
# 5 0.0000 0.0000 0.0000 0.0000 7.0569 0.0000
# 6 0.0000 0.0000 0.0000 0.0000 0.0000 17.6006
#
#
#
# Elastic Compliance Matrix: (Units=1/GPa)
#
#
# Indices 1 2 3 4 5 6 
#
# 1 0.011359 -0.002196 -0.003184 0.000000 0.000000 0.000000
# 2 -0.002196 0.012281 -0.003580 0.000000 0.000000 0.000000
# 3 -0.003184 -0.003580 0.013258 0.000000 0.000000 0.000000
# 4 0.000000 0.000000 0.000000 0.058409 0.000000 0.000000
# 5 0.000000 0.000000 0.000000 0.000000 0.141706 0.000000
# 6 0.000000 0.000000 0.000000 0.000000 0.000000 0.056816
#
#
# Mechanical properties :
#
#
# Convention : Reuss Voigt Hill
#
# Bulk Modulus (GPa) = 52.69430 52.72985 52.71208
# Shear Modulus (GPa) = 15.71953 21.54909 18.63431
#
# Velocity S-wave (km/s) = 2.96409 3.47045 3.22722
# Velocity P-wave (km/s) = 6.41606 6.74759 6.58391
#
# Compressibility (1/GPa) = 0.01897738
#
# Stress axis : x y z
#
# Youngs Moduli (GPa) = 88.03930 81.42652 75.42429
#
# Poissons Ratio (x) = 0.17882 0.24015
# Poissons Ratio (y) = 0.19335 0.27003
# Poissons Ratio (z) = 0.28032 0.29152
#
# Static dielectric constant tensor:
#      x y z
#    x 3.390380 0.000000 0.000000 
#    y 0.000000 3.581550 0.000000 
#    z 0.000000 0.000000 3.027970 
# 
# 
# High freq. dielectric constant tensor:
#      x y z
#    x 1.683370 0.000000 0.000000 
#    y 0.000000 1.700360 0.000000 
#    z 0.000000 0.000000 1.675890 
# 
# From -- ./inp_files/9907.got.cif
#   From: 2010.03.12/outbox.cif.g09.slc.cpg/sg67_5_cif.got.tgz:9907.got - 2010.04.10 22:41:39.
