data_PCOD8278560
_publ_section_title
;
Structure prediction by ZEFSAII (Michael W. Deem and Ramdas Pophale) SiO2 
 PCOD8278560
Probable space group: C M M A
;
_chemical_formula_sum "Si O2"
_cell_formula_units_Z 80
_cell_length_a 8.897493
_cell_length_b 23.574799
_cell_length_c 20.242228
_cell_angle_alpha 90.000000
_cell_angle_beta 90.000000
_cell_angle_gamma 90.000000
_cell_volume 4245.941105
_symmetry_space_group_name_H-M "C M M A"
_symmetry_group_IT_number 67
_symmetry_cell_setting 'orthorhombic'
loop_
_space_group_symop_operation_xyz
x,y,z
-x,1/2-y,z
x,-y,-z
-x,1/2+y,-z
-x,-y,-z
x,1/2+y,-z
-x,y,z
x,1/2-y,z
1/2+x,1/2+y,z
1/2-x,-y,z
1/2+x,1/2-y,-z
1/2-x,y,-z
1/2-x,1/2-y,-z
1/2+x,y,-z
1/2-x,1/2+y,z
1/2+x,-y,z
loop_
_atom_site_type_symbol
_atom_site_label
_atom_site_fract_x
_atom_site_fract_y
_atom_site_fract_z
Si Si1 0.177704 0.939735 0.692284
Si Si2 0.177778 0.131984 0.435288
Si Si3 0.334026 0.250000 0.259851
Si Si4 0.175446 0.685678 0.066900
Si Si5 0.331552 0.250000 0.414230
Si Si6 0.822241 0.635703 0.203074
O O1 0.228466 0.899266 0.631888
O O2 0.238003 0.916629 0.762627
O O3 0.000000 0.945787 0.696531
O O4 0.250000 0.000000 0.677920
O O5 0.250000 0.101157 0.500000
O O6 0.238955 0.195694 0.436620
O O7 0.000000 0.131783 0.442072
O O8 0.500000 0.250000 0.226089
O O9 0.346474 0.250000 0.336873
O O10 0.253300 0.192783 0.236048
O O11 0.230856 0.750000 0.084123
O O12 0.216026 0.641273 0.125295
O O13 0.000000 0.686580 0.054663
O O14 0.250000 0.662833 0.000000
O O15 0.500000 0.250000 0.445185
O O16 0.000000 0.628915 0.216002
#
# Coordination Sequence:
#
# PCOD8278560 Si02
#       6
#    16  16   8  16   8  16
#     4  11  25  42  60  82 107 140 186 237 283 330
#     4  11  24  40  58  83 114 146 182 226 277 333
#     4   9  16  28  53  84 110 144 182 219 270 329
#     4   9  17  29  49  80 119 156 187 219 262 322
#     4  11  20  34  59  86 115 150 182 220 274 332
#     4  10  18  34  58  83 113 149 188 227 272 327
#
# _framework density 18.841524
#
# number of rings (size 3 to 8) (size 9 to 14) (size 15 to 20)
#    0.000    1.800    3.000    1.800    0.000    3.600 
#    0.000    2.500    0.000    0.600    0.000    4.200 
#    0.000    0.000    0.000    0.000    0.000    0.000 
#
# Total GULP energy -495874.240955 kJ/mol
# GULP energy per Si atom -12396.856024 kJ/mol
# Density = 1.879864 g / cm^3
# Si number density = 18.841524 Si / 1000 Ang^3
#
#
#
# Elastic Constant Matrix: (Units=GPa)
#
#
# Indices 1 2 3 4 5 6 
#
# 1 71.7406 38.7928 54.4580 0.0000 0.0000 0.0000
# 2 38.7928 92.5886 49.8786 0.0000 0.0000 0.0000
# 3 54.4580 49.8786 141.5060 0.0000 0.0000 0.0000
# 4 0.0000 0.0000 0.0000 22.1984 0.0000 0.0000
# 5 0.0000 0.0000 0.0000 0.0000 33.0434 0.0000
# 6 0.0000 0.0000 0.0000 0.0000 0.0000 25.0732
#
#
#
# Elastic Compliance Matrix: (Units=1/GPa)
#
#
# Indices 1 2 3 4 5 6 
#
# 1 0.021900 -0.005722 -0.006411 0.000000 0.000000 0.000000
# 2 -0.005722 0.014827 -0.003024 0.000000 0.000000 0.000000
# 3 -0.006411 -0.003024 0.010600 0.000000 0.000000 0.000000
# 4 0.000000 0.000000 0.000000 0.045048 0.000000 0.000000
# 5 0.000000 0.000000 0.000000 0.000000 0.030263 0.000000
# 6 0.000000 0.000000 0.000000 0.000000 0.000000 0.039883
#
#
# Mechanical properties :
#
#
# Convention : Reuss Voigt Hill
#
# Bulk Modulus (GPa) = 58.78055 65.78825 62.28440
# Shear Modulus (GPa) = 25.18799 26.91004 26.04902
#
# Velocity S-wave (km/s) = 3.66024 3.78329 3.72228
# Velocity P-wave (km/s) = 7.00915 7.35370 7.18349
#
# Compressibility (1/GPa) = 0.01701243
#
# Stress axis : x y z
#
# Youngs Moduli (GPa) = 45.66241 67.44456 94.33806
#
# Poissons Ratio (x) = 0.38590 0.60482
# Poissons Ratio (y) = 0.26127 0.28530
# Poissons Ratio (z) = 0.29275 0.20397
#
# Static dielectric constant tensor:
#      x y z
#    x 3.386650 0.000000 0.000000 
#    y 0.000000 3.290570 0.000000 
#    z 0.000000 0.000000 3.689940 
# 
# 
# High freq. dielectric constant tensor:
#      x y z
#    x 1.721940 0.000000 0.000000 
#    y 0.000000 1.704150 0.000000 
#    z 0.000000 0.000000 1.747440 
# 
# From -- ./inp_files/36869.got.cif
#   From: 2010.03.12/outbox.cif.g09.slc.cpg/sg67_19_cif.got.tgz:36869.got - 2010.04.10 22:41:39.
