data_PCOD8278666
_publ_section_title
;
Structure prediction by ZEFSAII (Michael W. Deem and Ramdas Pophale) SiO2 
 PCOD8278666
Probable space group: C M M A
;
_chemical_formula_sum "Si O2"
_cell_formula_units_Z 112
_cell_length_a 14.086357
_cell_length_b 29.419582
_cell_length_c 15.256285
_cell_angle_alpha 90.000000
_cell_angle_beta 90.000000
_cell_angle_gamma 90.000000
_cell_volume 6322.429303
_symmetry_space_group_name_H-M "C M M A"
_symmetry_group_IT_number 67
_symmetry_cell_setting 'orthorhombic'
loop_
_space_group_symop_operation_xyz
x,y,z
-x,1/2-y,z
x,-y,-z
-x,1/2+y,-z
-x,-y,-z
x,1/2+y,-z
-x,y,z
x,1/2-y,z
1/2+x,1/2+y,z
1/2-x,-y,z
1/2+x,1/2-y,-z
1/2-x,y,-z
1/2-x,1/2-y,-z
1/2+x,y,-z
1/2-x,1/2+y,z
1/2+x,-y,z
loop_
_atom_site_type_symbol
_atom_site_label
_atom_site_fract_x
_atom_site_fract_y
_atom_site_fract_z
Si Si1 0.107059 0.002384 0.737541
Si Si2 0.605156 0.970741 0.928206
Si Si3 0.723746 0.667472 0.633004
Si Si4 0.390260 0.698153 0.799931
Si Si5 0.294098 0.879044 0.904802
Si Si6 0.108191 0.802127 0.526605
Si Si7 0.259162 0.077963 0.727868
O O1 0.110797 0.998984 0.841848
O O2 0.164016 0.048088 0.714723
O O3 0.000000 0.006570 0.700559
O O4 0.152845 0.955129 0.704973
O O5 0.500000 0.965127 0.963658
O O6 0.634671 0.919481 0.919061
O O7 0.664521 0.000000 0.000000
O O8 0.672061 0.692120 0.713076
O O9 0.823400 0.692615 0.611135
O O10 0.651065 0.667493 0.551478
O O11 0.751490 0.615779 0.653539
O O12 0.500000 0.685657 0.779755
O O13 0.381416 0.750000 0.832401
O O14 0.350266 0.666086 0.876455
O O15 0.227947 0.897335 0.823695
O O16 0.250000 0.867902 0.000000
O O17 0.109786 0.750000 0.495450
O O18 0.000000 0.817306 0.548745
#
# Coordination Sequence:
#
# PCOD8278666 Si02
#       7
#    16  16  16  16  16  16  16
#     4   9  17  30  46  66  96 131 167 207 250 295
#     4   9  16  26  43  65  89 120 159 206 258 303
#     4  10  19  33  54  80 107 131 163 206 254 306
#     4  10  20  34  53  74  98 133 175 215 255 304
#     4  10  19  30  45  68  99 132 168 213 254 293
#     4  10  20  34  55  82 108 131 157 198 257 319
#     4   9  19  31  47  73  99 131 171 206 246 298
#
# _framework density 17.71471
#
# number of rings (size 3 to 8) (size 9 to 14) (size 15 to 20)
#    0.000    2.429    0.000    3.429    0.000    7.429 
#    0.000    0.714    0.000    8.571    0.000   16.000 
#    0.000    0.000    0.000    0.000    0.000    0.000 
#
# Total GULP energy -693774.408456 kJ/mol
# GULP energy per Si atom -12388.828722 kJ/mol
# Density = 1.767439 g / cm^3
# Si number density = 17.714710 Si / 1000 Ang^3
#
#
#
# Elastic Constant Matrix: (Units=GPa)
#
#
# Indices 1 2 3 4 5 6 
#
# 1 124.4365 43.1514 40.8864 0.0000 0.0000 0.0000
# 2 43.1514 112.0088 42.8275 0.0000 0.0000 0.0000
# 3 40.8864 42.8275 72.6710 0.0000 0.0000 0.0000
# 4 0.0000 0.0000 0.0000 31.8903 0.0000 0.0000
# 5 0.0000 0.0000 0.0000 0.0000 26.8550 0.0000
# 6 0.0000 0.0000 0.0000 0.0000 0.0000 18.1869
#
#
#
# Elastic Compliance Matrix: (Units=1/GPa)
#
#
# Indices 1 2 3 4 5 6 
#
# 1 0.010283 -0.002258 -0.004455 0.000000 0.000000 0.000000
# 2 -0.002258 0.012021 -0.005814 0.000000 0.000000 0.000000
# 3 -0.004455 -0.005814 0.019693 0.000000 0.000000 0.000000
# 4 0.000000 0.000000 0.000000 0.031358 0.000000 0.000000
# 5 0.000000 0.000000 0.000000 0.000000 0.037237 0.000000
# 6 0.000000 0.000000 0.000000 0.000000 0.000000 0.054985
#
#
# Mechanical properties :
#
#
# Convention : Reuss Voigt Hill
#
# Bulk Modulus (GPa) = 59.01871 62.53856 60.77864
# Shear Modulus (GPa) = 25.47419 27.53650 26.50534
#
# Velocity S-wave (km/s) = 3.79624 3.94692 3.87231
# Velocity P-wave (km/s) = 7.25285 7.49338 7.37409
#
# Compressibility (1/GPa) = 0.01694378
#
# Stress axis : x y z
#
# Youngs Moduli (GPa) = 97.24796 83.18919 50.77917
#
# Poissons Ratio (x) = 0.18786 0.22620
# Poissons Ratio (y) = 0.21961 0.29522
# Poissons Ratio (z) = 0.43320 0.48364
#
# Static dielectric constant tensor:
#      x y z
#    x 3.488720 0.000000 0.000000 
#    y 0.000000 3.384700 0.000000 
#    z 0.000000 0.000000 3.319870 
# 
# 
# High freq. dielectric constant tensor:
#      x y z
#    x 1.685010 0.000000 0.000000 
#    y 0.000000 1.690790 0.000000 
#    z 0.000000 0.000000 1.662500 
# 
# From -- ./inp_files/27706.got.cif
#   From: 2010.03.12/outbox.cif.g09.slc.cpg/sg67_14_cif.got.tgz:27706.got - 2010.04.10 22:41:39.
