data_PCOD8278171
_publ_section_title
;
Structure prediction by ZEFSAII (Michael W. Deem and Ramdas Pophale) SiO2 
 PCOD8278171
Probable space group: C M M A
;
_chemical_formula_sum "Si O2"
_cell_formula_units_Z 88
_cell_length_a 28.532594
_cell_length_b 8.608443
_cell_length_c 19.453177
_cell_angle_alpha 90.000000
_cell_angle_beta 90.000000
_cell_angle_gamma 90.000000
_cell_volume 4778.112855
_symmetry_space_group_name_H-M "C M M A"
_symmetry_group_IT_number 67
_symmetry_cell_setting 'orthorhombic'
loop_
_space_group_symop_operation_xyz
x,y,z
-x,1/2-y,z
x,-y,-z
-x,1/2+y,-z
-x,-y,-z
x,1/2+y,-z
-x,y,z
x,1/2-y,z
1/2+x,1/2+y,z
1/2-x,-y,z
1/2+x,1/2-y,-z
1/2-x,y,-z
1/2-x,1/2-y,-z
1/2+x,y,-z
1/2-x,1/2+y,z
1/2+x,-y,z
loop_
_atom_site_type_symbol
_atom_site_label
_atom_site_fract_x
_atom_site_fract_y
_atom_site_fract_z
Si Si1 0.867994 0.433206 0.214003
Si Si2 0.553428 0.065958 0.684177
Si Si3 0.404077 0.932952 0.074490
Si Si4 0.000000 0.065630 0.924143
Si Si5 0.301335 0.934206 0.329772
Si Si6 0.380318 0.433656 0.424530
O O1 0.869187 0.250000 0.217327
O O2 0.915494 0.492519 0.251190
O O3 0.866192 0.482521 0.133143
O O4 0.822598 0.492803 0.256156
O O5 0.500000 0.013494 0.697073
O O6 0.557358 0.250000 0.673412
O O7 0.573027 0.983323 0.616184
O O8 0.408685 0.750000 0.065397
O O9 0.452297 0.998575 0.107702
O O10 0.390019 0.000000 0.000000
O O11 0.000000 0.250000 0.922040
O O12 0.000000 0.000000 0.000000
O O13 0.299824 0.750000 0.333595
O O14 0.250000 0.000000 0.338832
O O15 0.333677 0.995499 0.390797
O O16 0.385312 0.500000 0.500000
O O17 0.375535 0.250000 0.426252
#
# Coordination Sequence:
#
# PCOD8278171 Si02
#       6
#    16  16  16   8  16  16
#     4   8  17  32  53  76 101 136 175 213 257 314
#     4   9  18  34  55  77 103 140 184 222 260 307
#     4  10  18  30  48  70  99 136 175 215 259 306
#     4  10  18  28  40  62  94 130 167 208 251 298
#     4  10  20  38  60  83 106 132 169 212 264 319
#     4  11  22  37  56  80 110 141 174 214 258 305
#
# _framework density 18.417311999999999
#
# number of rings (size 3 to 8) (size 9 to 14) (size 15 to 20)
#    0.000    2.364    0.000    5.727    1.273    1.091 
#    0.000   10.909    0.000    0.545    0.000    3.818 
#    0.000    0.000    0.000    0.000    0.000    0.000 
#
# Total GULP energy -545244.951579 kJ/mol
# GULP energy per Si atom -12391.930718 kJ/mol
# Density = 1.837539 g / cm^3
# Si number density = 18.417312 Si / 1000 Ang^3
#
#
#
# Elastic Constant Matrix: (Units=GPa)
#
#
# Indices 1 2 3 4 5 6 
#
# 1 78.5577 16.4277 21.5190 0.0000 0.0000 0.0000
# 2 16.4277 87.6801 24.5163 0.0000 0.0000 0.0000
# 3 21.5190 24.5163 114.6127 0.0000 0.0000 0.0000
# 4 0.0000 0.0000 0.0000 23.4971 0.0000 0.0000
# 5 0.0000 0.0000 0.0000 0.0000 18.1654 0.0000
# 6 0.0000 0.0000 0.0000 0.0000 0.0000 20.2789
#
#
#
# Elastic Compliance Matrix: (Units=1/GPa)
#
#
# Indices 1 2 3 4 5 6 
#
# 1 0.013732 -0.001970 -0.002157 0.000000 0.000000 0.000000
# 2 -0.001970 0.012413 -0.002285 0.000000 0.000000 0.000000
# 3 -0.002157 -0.002285 0.009619 0.000000 0.000000 0.000000
# 4 0.000000 0.000000 0.000000 0.042558 0.000000 0.000000
# 5 0.000000 0.000000 0.000000 0.000000 0.055050 0.000000
# 6 0.000000 0.000000 0.000000 0.000000 0.000000 0.049312
#
#
# Mechanical properties :
#
#
# Convention : Reuss Voigt Hill
#
# Bulk Modulus (GPa) = 43.59187 45.08628 44.33908
# Shear Modulus (GPa) = 24.61169 26.94747 25.77958
#
# Velocity S-wave (km/s) = 3.65956 3.82928 3.74538
# Velocity P-wave (km/s) = 6.44801 6.63963 6.54452
#
# Compressibility (1/GPa) = 0.02294006
#
# Stress axis : x y z
#
# Youngs Moduli (GPa) = 72.82132 80.55957 103.96226
#
# Poissons Ratio (x) = 0.15868 0.22424
# Poissons Ratio (y) = 0.14344 0.23760
# Poissons Ratio (z) = 0.15707 0.18411
#
# Static dielectric constant tensor:
#      x y z
#    x 3.837490 0.000000 0.000000 
#    y 0.000000 3.340030 0.000000 
#    z 0.000000 0.000000 3.646170 
# 
# 
# High freq. dielectric constant tensor:
#      x y z
#    x 1.695400 0.000000 0.000000 
#    y 0.000000 1.709420 0.000000 
#    z 0.000000 0.000000 1.719720 
# 
# From -- ./inp_files/36134.got.cif
#   From: 2010.03.12/outbox.cif.g09.slc.cpg/sg67_19_cif.got.tgz:36134.got - 2010.04.10 22:41:39.
