data_PCOD8278185
_publ_section_title
;
Structure prediction by ZEFSAII (Michael W. Deem and Ramdas Pophale) SiO2 
 PCOD8278185
Probable space group: C M M A
;
_chemical_formula_sum "Si O2"
_cell_formula_units_Z 104
_cell_length_a 8.678160
_cell_length_b 28.052583
_cell_length_c 23.815592
_cell_angle_alpha 90.000000
_cell_angle_beta 90.000000
_cell_angle_gamma 90.000000
_cell_volume 5797.782119
_symmetry_space_group_name_H-M "C M M A"
_symmetry_group_IT_number 67
_symmetry_cell_setting 'orthorhombic'
loop_
_space_group_symop_operation_xyz
x,y,z
-x,1/2-y,z
x,-y,-z
-x,1/2+y,-z
-x,-y,-z
x,1/2+y,-z
-x,y,z
x,1/2-y,z
1/2+x,1/2+y,z
1/2-x,-y,z
1/2+x,1/2-y,-z
1/2-x,y,-z
1/2-x,1/2-y,-z
1/2+x,y,-z
1/2-x,1/2+y,z
1/2+x,-y,z
loop_
_atom_site_type_symbol
_atom_site_label
_atom_site_fract_x
_atom_site_fract_y
_atom_site_fract_z
Si Si1 0.321115 0.049607 0.750061
Si Si2 0.680613 0.750000 0.438306
Si Si3 0.818591 0.110648 0.844824
Si Si4 0.174286 0.156502 0.558344
Si Si5 0.182932 0.050166 0.061309
Si Si6 0.319475 0.803399 0.768254
Si Si7 0.824612 0.122283 0.676929
O O1 0.500000 0.046063 0.766483
O O2 0.221834 0.069031 0.801524
O O3 0.298294 0.083513 0.696527
O O4 0.250000 0.000000 0.731778
O O5 0.500000 0.750000 0.436799
O O6 0.750000 0.750000 0.500000
O O7 0.744365 0.701715 0.411635
O O8 0.731824 0.096284 0.902024
O O9 0.760275 0.161534 0.818800
O O10 0.000000 0.111775 0.856174
O O11 0.250000 0.138331 0.500000
O O12 0.185523 0.119447 0.609176
O O13 0.000000 0.169615 0.542769
O O14 0.000000 0.046140 0.059013
O O15 0.250000 0.000000 0.085590
O O16 0.250000 0.059361 0.000000
O O17 0.500000 0.797517 0.775664
O O18 0.243692 0.750000 0.771630
O O19 0.282053 0.827338 0.707504
O O20 0.000000 0.109406 0.695491
#
# Coordination Sequence:
#
# PCOD8278185 Si02
#       7
#    16   8  16  16  16  16  16
#     4  11  21  34  53  75 102 131 165 207 254 301
#     4  10  18  28  42  62  90 122 160 198 237 286
#     4  10  19  33  52  77 107 137 174 210 249 299
#     4  10  19  31  48  69  96 130 165 205 250 305
#     4  11  21  34  52  77 108 140 173 210 257 304
#     4   8  15  29  51  75  98 129 169 210 248 293
#     4   9  19  33  51  74  99 129 168 206 251 306
#
# _framework density 17.937894
#
# number of rings (size 3 to 8) (size 9 to 14) (size 15 to 20)
#    0.000    2.154    0.000    7.154    1.077    1.231 
#    0.000    0.000    0.000    9.231    0.000    3.231 
#    0.000    0.000    0.000    0.000    0.000    0.000 
#
# Total GULP energy -644286.106932 kJ/mol
# GULP energy per Si atom -12390.117441 kJ/mol
# Density = 1.789707 g / cm^3
# Si number density = 17.937894 Si / 1000 Ang^3
#
#
#
# Elastic Constant Matrix: (Units=GPa)
#
#
# Indices 1 2 3 4 5 6 
#
# 1 99.1666 28.8693 30.2933 0.0000 0.0000 0.0000
# 2 28.8693 102.1357 44.7962 0.0000 0.0000 0.0000
# 3 30.2933 44.7962 97.7935 0.0000 0.0000 0.0000
# 4 0.0000 0.0000 0.0000 16.1477 0.0000 0.0000
# 5 0.0000 0.0000 0.0000 0.0000 25.8436 0.0000
# 6 0.0000 0.0000 0.0000 0.0000 0.0000 21.1481
#
#
#
# Elastic Compliance Matrix: (Units=1/GPa)
#
#
# Indices 1 2 3 4 5 6 
#
# 1 0.011490 -0.002111 -0.002592 0.000000 0.000000 0.000000
# 2 -0.002111 0.012640 -0.005136 0.000000 0.000000 0.000000
# 3 -0.002592 -0.005136 0.013381 0.000000 0.000000 0.000000
# 4 0.000000 0.000000 0.000000 0.061928 0.000000 0.000000
# 5 0.000000 0.000000 0.000000 0.000000 0.038694 0.000000
# 6 0.000000 0.000000 0.000000 0.000000 0.000000 0.047286
#
#
# Mechanical properties :
#
#
# Convention : Reuss Voigt Hill
#
# Bulk Modulus (GPa) = 56.07550 56.33484 56.20517
# Shear Modulus (GPa) = 23.69176 25.63701 24.66439
#
# Velocity S-wave (km/s) = 3.63818 3.78459 3.71211
# Velocity P-wave (km/s) = 6.99837 7.11134 7.05508
#
# Compressibility (1/GPa) = 0.01783310
#
# Stress axis : x y z
#
# Youngs Moduli (GPa) = 87.02843 79.11222 74.73023
#
# Poissons Ratio (x) = 0.16699 0.19374
# Poissons Ratio (y) = 0.18370 0.38383
# Poissons Ratio (z) = 0.22562 0.40634
#
# Static dielectric constant tensor:
#      x y z
#    x 3.324670 0.000000 0.000000 
#    y 0.000000 8.191710 0.000000 
#    z 0.000000 0.000000 3.277340 
# 
# 
# High freq. dielectric constant tensor:
#      x y z
#    x 1.692860 0.000000 0.000000 
#    y 0.000000 1.674200 0.000000 
#    z 0.000000 0.000000 1.686850 
# 
# From -- ./inp_files/41025.got.cif
#   From: 2010.03.12/outbox.cif.g09.slc.cpg/sg67_21_cif.got.tgz:41025.got - 2010.04.10 22:41:39.
