data_PCOD8278517
_publ_section_title
;
Structure prediction by ZEFSAII (Michael W. Deem and Ramdas Pophale) SiO2 
 PCOD8278517
Probable space group: C M M A
;
_chemical_formula_sum "Si O2"
_cell_formula_units_Z 112
_cell_length_a 16.418786
_cell_length_b 29.470203
_cell_length_c 12.348395
_cell_angle_alpha 90.000000
_cell_angle_beta 90.000000
_cell_angle_gamma 90.000000
_cell_volume 5974.955609
_symmetry_space_group_name_H-M "C M M A"
_symmetry_group_IT_number 67
_symmetry_cell_setting 'orthorhombic'
loop_
_space_group_symop_operation_xyz
x,y,z
-x,1/2-y,z
x,-y,-z
-x,1/2+y,-z
-x,-y,-z
x,1/2+y,-z
-x,y,z
x,1/2-y,z
1/2+x,1/2+y,z
1/2-x,-y,z
1/2+x,1/2-y,-z
1/2-x,y,-z
1/2-x,1/2-y,-z
1/2+x,y,-z
1/2-x,1/2+y,z
1/2+x,-y,z
loop_
_atom_site_type_symbol
_atom_site_label
_atom_site_fract_x
_atom_site_fract_y
_atom_site_fract_z
Si Si1 0.594056 0.551308 0.328901
Si Si2 0.402475 0.451748 0.279987
Si Si3 0.096392 0.798609 0.786278
Si Si4 0.095567 0.800853 0.537534
Si Si5 0.342620 0.105815 0.472625
Si Si6 0.342518 0.547834 0.960403
Si Si7 0.594901 0.390891 0.865747
O O1 0.500000 0.547715 0.302191
O O2 0.625708 0.499469 0.334285
O O3 0.604378 0.578718 0.439530
O O4 0.635860 0.577500 0.227477
O O5 0.500000 0.447742 0.264359
O O6 0.368495 0.411761 0.354919
O O7 0.355103 0.446775 0.166876
O O8 0.133341 0.750000 0.825043
O O9 0.120180 0.807441 0.662062
O O10 0.132602 0.839985 0.857484
O O11 0.000000 0.795693 0.796169
O O12 0.121172 0.750000 0.498133
O O13 0.141941 0.840045 0.471360
O O14 0.000000 0.807717 0.520399
O O15 0.250000 0.094799 0.500000
O O16 0.380555 0.500000 0.000000
O O17 0.250000 0.550887 0.000000
O O18 0.390454 0.589090 0.016001
O O19 0.500000 0.386452 0.841507
#
# Coordination Sequence:
#
# PCOD8278517 Si02
#       7
#    16  16  16  16  16  16  16
#     4  10  20  36  57  80 108 144 187 232 280 337
#     4  11  24  40  58  81 114 155 198 237 280 346
#     4   8  14  26  51  84 107 128 169 229 284 323
#     4   9  17  33  57  82 110 146 190 237 283 338
#     4  12  25  35  55  83 121 155 187 229 289 349
#     4  11  24  37  56  79 113 148 189 238 289 340
#     4  10  18  32  58  81 106 139 181 234 279 328
#
# _framework density 18.744909
#
# number of rings (size 3 to 8) (size 9 to 14) (size 15 to 20)
#    0.000    1.857    2.857    3.000    2.000    3.143 
#    0.000    0.000    0.000    1.286    0.000    2.000 
#    0.000    0.000    0.000    0.000    0.000    0.000 
#
# Total GULP energy -694123.644715 kJ/mol
# GULP energy per Si atom -12395.065084 kJ/mol
# Density = 1.870224 g / cm^3
# Si number density = 18.744909 Si / 1000 Ang^3
#
#
#
# Elastic Constant Matrix: (Units=GPa)
#
#
# Indices 1 2 3 4 5 6 
#
# 1 45.9831 25.2297 18.7290 0.0000 0.0000 0.0000
# 2 25.2297 176.9495 65.1194 0.0000 0.0000 0.0000
# 3 18.7290 65.1194 110.6769 0.0000 0.0000 0.0000
# 4 0.0000 0.0000 0.0000 30.2887 0.0000 0.0000
# 5 0.0000 0.0000 0.0000 0.0000 23.0656 0.0000
# 6 0.0000 0.0000 0.0000 0.0000 0.0000 13.1604
#
#
#
# Elastic Compliance Matrix: (Units=1/GPa)
#
#
# Indices 1 2 3 4 5 6 
#
# 1 0.024180 -0.002478 -0.002634 0.000000 0.000000 0.000000
# 2 -0.002478 0.007467 -0.003974 0.000000 0.000000 0.000000
# 3 -0.002634 -0.003974 0.011819 0.000000 0.000000 0.000000
# 4 0.000000 0.000000 0.000000 0.033016 0.000000 0.000000
# 5 0.000000 0.000000 0.000000 0.000000 0.043355 0.000000
# 6 0.000000 0.000000 0.000000 0.000000 0.000000 0.075986
#
#
# Mechanical properties :
#
#
# Convention : Reuss Voigt Hill
#
# Bulk Modulus (GPa) = 39.53507 61.30730 50.42118
# Shear Modulus (GPa) = 22.47944 28.27168 25.37556
#
# Velocity S-wave (km/s) = 3.46675 3.88781 3.68330
# Velocity P-wave (km/s) = 6.09601 7.27534 6.71163
#
# Compressibility (1/GPa) = 0.02529400
#
# Stress axis : x y z
#
# Youngs Moduli (GPa) = 41.35716 133.91856 84.60789
#
# Poissons Ratio (x) = 0.33190 0.22282
# Poissons Ratio (y) = 0.10250 0.33624
# Poissons Ratio (z) = 0.10891 0.53221
#
# Static dielectric constant tensor:
#      x y z
#    x 3.111690 0.000000 0.000000 
#    y 0.000000 4.073120 0.000000 
#    z 0.000000 0.000000 3.198900 
# 
# 
# High freq. dielectric constant tensor:
#      x y z
#    x 1.697580 0.000000 0.000000 
#    y 0.000000 1.743320 0.000000 
#    z 0.000000 0.000000 1.705520 
# 
# From -- ./inp_files/18645.got.cif
#   From: 2010.03.12/outbox.cif.g09.slc.cpg/sg67_10_cif.got.tgz:18645.got - 2010.04.10 22:41:39.
