data_PCOD8278860
_publ_section_title
;
Structure prediction by ZEFSAII (Michael W. Deem and Ramdas Pophale) SiO2 
 PCOD8278860
Probable space group: C M M A
;
_chemical_formula_sum "Si O2"
_cell_formula_units_Z 104
_cell_length_a 25.237800
_cell_length_b 8.606793
_cell_length_c 22.532341
_cell_angle_alpha 90.000000
_cell_angle_beta 90.000000
_cell_angle_gamma 90.000000
_cell_volume 4894.396708
_symmetry_space_group_name_H-M "C M M A"
_symmetry_group_IT_number 67
_symmetry_cell_setting 'orthorhombic'
loop_
_space_group_symop_operation_xyz
x,y,z
-x,1/2-y,z
x,-y,-z
-x,1/2+y,-z
-x,-y,-z
x,1/2+y,-z
-x,y,z
x,1/2-y,z
1/2+x,1/2+y,z
1/2-x,-y,z
1/2+x,1/2-y,-z
1/2-x,y,-z
1/2-x,1/2-y,-z
1/2+x,y,-z
1/2-x,1/2+y,z
1/2+x,-y,z
loop_
_atom_site_type_symbol
_atom_site_label
_atom_site_fract_x
_atom_site_fract_y
_atom_site_fract_z
Si Si1 0.561261 0.431082 0.390817
Si Si2 0.906846 0.067443 0.850254
Si Si3 0.155785 0.930574 0.560171
Si Si4 0.000000 0.434115 0.934678
Si Si5 0.807367 0.934132 0.316413
Si Si6 0.807893 0.431695 0.196607
Si Si7 0.561288 0.575716 0.269910
O O1 0.500000 0.469227 0.399111
O O2 0.573696 0.250000 0.398687
O O3 0.592917 0.530076 0.440225
O O4 0.585739 0.482898 0.326794
O O5 0.897583 0.250000 0.854610
O O6 0.946529 0.007341 0.901721
O O7 0.849360 0.982955 0.854889
O O8 0.934939 0.025282 0.788813
O O9 0.167994 0.750000 0.563090
O O10 0.181505 0.000000 0.500000
O O11 0.179170 0.013844 0.617559
O O12 0.000000 0.250000 0.935616
O O13 0.000000 0.500000 0.000000
O O14 0.809506 0.750000 0.312296
O O15 0.750000 0.000000 0.301301
O O16 0.837346 0.008106 0.258467
O O17 0.801217 0.250000 0.198564
O O18 0.750000 0.500000 0.183059
O O19 0.500000 0.592910 0.286321
O O20 0.586205 0.750000 0.263363
#
# Coordination Sequence:
#
# PCOD8278860 Si02
#       7
#    16  16  16   8  16  16  16
#     4  10  21  37  56  78 107 144 184 233 292 354
#     4  11  21  37  59  88 124 166 207 252 301 358
#     4  12  25  41  58  78 105 141 189 240 292 355
#     4  10  24  42  64  92 130 174 217 256 301 350
#     4  11  22  40  63  88 117 150 187 236 295 356
#     4  11  22  38  61  93 126 162 201 250 307 365
#     4  10  19  31  51  82 115 148 189 240 296 355
#
# _framework density 21.248788000000001
#
# number of rings (size 3 to 8) (size 9 to 14) (size 15 to 20)
#    0.000    1.231    0.769    7.385    0.000    3.385 
#    0.000    1.538    0.000    0.462    0.000    3.231 
#    0.000    0.000    0.000    0.000    0.000    0.000 
#
# Total GULP energy -644676.119808 kJ/mol
# GULP energy per Si atom -12397.617689 kJ/mol
# Density = 2.120043 g / cm^3
# Si number density = 21.248788 Si / 1000 Ang^3
#
#
#
# Elastic Constant Matrix: (Units=GPa)
#
#
# Indices 1 2 3 4 5 6 
#
# 1 70.8614 39.7386 47.1440 0.0000 0.0000 0.0000
# 2 39.7386 146.9575 38.7292 0.0000 0.0000 0.0000
# 3 47.1440 38.7292 113.4162 0.0000 0.0000 0.0000
# 4 0.0000 0.0000 0.0000 32.5087 0.0000 0.0000
# 5 0.0000 0.0000 0.0000 0.0000 22.6018 0.0000
# 6 0.0000 0.0000 0.0000 0.0000 0.0000 35.2974
#
#
#
# Elastic Compliance Matrix: (Units=1/GPa)
#
#
# Indices 1 2 3 4 5 6 
#
# 1 0.021238 -0.003754 -0.007546 0.000000 0.000000 0.000000
# 2 -0.003754 0.008141 -0.001220 0.000000 0.000000 0.000000
# 3 -0.007546 -0.001220 0.012370 0.000000 0.000000 0.000000
# 4 0.000000 0.000000 0.000000 0.030761 0.000000 0.000000
# 5 0.000000 0.000000 0.000000 0.000000 0.044244 0.000000
# 6 0.000000 0.000000 0.000000 0.000000 0.000000 0.028331
#
#
# Mechanical properties :
#
#
# Convention : Reuss Voigt Hill
#
# Bulk Modulus (GPa) = 59.84536 64.71765 62.28151
# Shear Modulus (GPa) = 28.45850 31.78980 30.12415
#
# Velocity S-wave (km/s) = 3.66362 3.87211 3.76930
# Velocity P-wave (km/s) = 6.79127 7.10733 6.95110
#
# Compressibility (1/GPa) = 0.01670973
#
# Stress axis : x y z
#
# Youngs Moduli (GPa) = 47.08610 122.83120 80.83960
#
# Poissons Ratio (x) = 0.46113 0.61001
# Poissons Ratio (y) = 0.17677 0.09859
# Poissons Ratio (z) = 0.35531 0.14980
#
# Static dielectric constant tensor:
#      x y z
#    x 4.220560 0.000000 0.000000 
#    y 0.000000 3.851590 0.000000 
#    z 0.000000 0.000000 3.312480 
# 
# 
# High freq. dielectric constant tensor:
#      x y z
#    x 1.858190 0.000000 0.000000 
#    y 0.000000 1.842290 0.000000 
#    z 0.000000 0.000000 1.799500 
# 
# From -- ./inp_files/37312.got.cif
#   From: 2010.03.12/outbox.cif.g09.slc.cpg/sg67_19_cif.got.tgz:37312.got - 2010.04.10 22:41:39.
