data_PCOD8278357
_publ_section_title
;
Structure prediction by ZEFSAII (Michael W. Deem and Ramdas Pophale) SiO2 
 PCOD8278357
Probable space group: C M M A
;
_chemical_formula_sum "Si O2"
_cell_formula_units_Z 80
_cell_length_a 18.825383
_cell_length_b 25.127460
_cell_length_c 9.191002
_cell_angle_alpha 90.000000
_cell_angle_beta 90.000000
_cell_angle_gamma 90.000000
_cell_volume 4347.656976
_symmetry_space_group_name_H-M "C M M A"
_symmetry_group_IT_number 67
_symmetry_cell_setting 'orthorhombic'
loop_
_space_group_symop_operation_xyz
x,y,z
-x,1/2-y,z
x,-y,-z
-x,1/2+y,-z
-x,-y,-z
x,1/2+y,-z
-x,y,z
x,1/2-y,z
1/2+x,1/2+y,z
1/2-x,-y,z
1/2+x,1/2-y,-z
1/2-x,y,-z
1/2-x,1/2-y,-z
1/2+x,y,-z
1/2-x,1/2+y,z
1/2+x,-y,z
loop_
_atom_site_type_symbol
_atom_site_label
_atom_site_fract_x
_atom_site_fract_y
_atom_site_fract_z
Si Si1 0.919734 0.649496 0.307470
Si Si2 0.724021 0.559634 0.341171
Si Si3 0.277960 0.846976 0.839293
Si Si4 0.079325 0.750000 0.511917
Si Si5 0.077837 0.438839 0.459221
Si Si6 0.718500 0.250000 0.659615
O O1 0.864042 0.654965 0.173964
O O2 0.906950 0.698300 0.415267
O O3 0.904690 0.595299 0.396333
O O4 0.000000 0.650209 0.243804
O O5 0.750000 0.500000 0.311043
O O6 0.750000 0.578693 0.500000
O O7 0.754270 0.595076 0.212625
O O8 0.638479 0.567406 0.337301
O O9 0.242977 0.802635 0.739709
O O10 0.250000 0.836626 0.000000
O O11 0.132835 0.750000 0.648238
O O12 0.000000 0.750000 0.576853
O O13 0.077079 0.500000 0.500000
O O14 0.000000 0.421562 0.397649
O O15 0.750000 0.250000 0.500000
#
# Coordination Sequence:
#
# PCOD8278357 Si02
#       6
#    16  16  16   8  16   8
#     4  10  19  34  54  79 110 143 180 220 275 330
#     4  11  19  35  58  82 110 141 189 234 271 316
#     4  12  24  37  55  84 115 149 184 221 275 332
#     4  10  20  34  58  88 107 134 179 233 279 314
#     4  10  18  30  53  84 109 136 180 235 279 314
#     4  12  21  38  63  82 108 140 187 233 270 315
#
# _framework density 18.400715000000002
#
# number of rings (size 3 to 8) (size 9 to 14) (size 15 to 20)
#    0.000    1.200    6.000    2.100    0.000    0.400 
#    0.000    2.000    0.000    0.000    0.000    7.000 
#    0.000    0.000    0.000    0.000    0.000    0.000 
#
# Total GULP energy -495887.892710 kJ/mol
# GULP energy per Si atom -12397.197318 kJ/mol
# Density = 1.835883 g / cm^3
# Si number density = 18.400715 Si / 1000 Ang^3
#
#
#
# Elastic Constant Matrix: (Units=GPa)
#
#
# Indices 1 2 3 4 5 6 
#
# 1 186.9901 38.0835 57.0456 0.0000 0.0000 0.0000
# 2 38.0835 93.7314 45.2167 0.0000 0.0000 0.0000
# 3 57.0456 45.2167 90.7560 0.0000 0.0000 0.0000
# 4 0.0000 0.0000 0.0000 -17.1140 0.0000 0.0000
# 5 0.0000 0.0000 0.0000 0.0000 22.6509 0.0000
# 6 0.0000 0.0000 0.0000 0.0000 0.0000 28.9818
#
#
#
# Elastic Compliance Matrix: (Units=1/GPa)
#
#
# Indices 1 2 3 4 5 6 
#
# 1 0.006675 -0.000906 -0.003744 0.000000 0.000000 0.000000
# 2 -0.000906 0.014167 -0.006489 0.000000 0.000000 0.000000
# 3 -0.003744 -0.006489 0.016605 0.000000 0.000000 0.000000
# 4 0.000000 0.000000 0.000000 -0.058432 0.000000 0.000000
# 5 0.000000 0.000000 0.000000 0.000000 0.044148 0.000000
# 6 0.000000 0.000000 0.000000 0.000000 0.000000 0.034504
#
#
# Mechanical properties :
#
#
# Convention : Reuss Voigt Hill
#
# Bulk Modulus (GPa) = 65.92468 72.46325 69.19396
# Shear Modulus (GPa) = 58.82207 22.31251 40.56729
#
# Velocity S-wave (km/s) = 5.66009 3.48600 4.70047
# Velocity P-wave (km/s) = 8.86682 7.46117 8.19420
#
# Compressibility (1/GPa) = 0.01516883
#
# Stress axis : x y z
#
# Youngs Moduli (GPa) = 149.82248 70.58569 60.22293
#
# Poissons Ratio (x) = 0.06393 0.22548
# Poissons Ratio (y) = 0.13570 0.39079
# Poissons Ratio (z) = 0.56095 0.45804
#
# Static dielectric constant tensor:
#      x y z
#    x 4.283220 0.000000 0.000000 
#    y 0.000000 3.633010 0.000000 
#    z 0.000000 0.000000 3.044020 
# 
# 
# High freq. dielectric constant tensor:
#      x y z
#    x 1.743520 0.000000 0.000000 
#    y 0.000000 1.737200 0.000000 
#    z 0.000000 0.000000 1.646770 
# 
# From -- ./inp_files/11145.got.cif
#   From: 2010.03.12/outbox.cif.g09.slc.cpg/sg67_6_cif.got.tgz:11145.got - 2010.04.10 22:41:39.
