data_PCOD8278638
_publ_section_title
;
Structure prediction by ZEFSAII (Michael W. Deem and Ramdas Pophale) SiO2 
 PCOD8278638
Probable space group: C M M A
;
_chemical_formula_sum "Si O2"
_cell_formula_units_Z 128
_cell_length_a 19.217152
_cell_length_b 17.813616
_cell_length_c 21.367830
_cell_angle_alpha 90.000000
_cell_angle_beta 90.000000
_cell_angle_gamma 90.000000
_cell_volume 7314.784421
_symmetry_space_group_name_H-M "C M M A"
_symmetry_group_IT_number 67
_symmetry_cell_setting 'orthorhombic'
loop_
_space_group_symop_operation_xyz
x,y,z
-x,1/2-y,z
x,-y,-z
-x,1/2+y,-z
-x,-y,-z
x,1/2+y,-z
-x,y,z
x,1/2-y,z
1/2+x,1/2+y,z
1/2-x,-y,z
1/2+x,1/2-y,-z
1/2-x,y,-z
1/2-x,1/2-y,-z
1/2+x,y,-z
1/2-x,1/2+y,z
1/2+x,-y,z
loop_
_atom_site_type_symbol
_atom_site_label
_atom_site_fract_x
_atom_site_fract_y
_atom_site_fract_z
Si Si1 0.673359 0.166630 0.525465
Si Si2 0.083159 0.016455 0.069156
Si Si3 0.076942 0.101478 0.249884
Si Si4 0.691964 0.160702 0.662911
Si Si5 0.079074 0.160631 0.583712
Si Si6 0.420604 0.438046 0.192612
Si Si7 0.580859 0.669254 0.120039
Si Si8 0.845342 0.338701 0.708697
O O1 0.642972 0.250000 0.535422
O O2 0.750000 0.171064 0.500000
O O3 0.680426 0.127713 0.593007
O O4 0.622927 0.125649 0.474736
O O5 0.115491 0.098544 0.084775
O O6 0.000000 0.020645 0.071641
O O7 0.105548 0.953505 0.120702
O O8 0.111670 0.000000 0.000000
O O9 0.133210 0.116243 0.301624
O O10 0.091079 0.159052 0.193824
O O11 0.000000 0.115762 0.277746
O O12 0.083016 0.016574 0.227646
O O13 0.682374 0.250000 0.665028
O O14 0.766371 0.138973 0.692146
O O15 0.086996 0.250000 0.582684
O O16 0.107877 0.132527 0.650540
O O17 0.000000 0.133553 0.576728
O O18 0.500000 0.406932 0.192768
O O19 0.370192 0.379062 0.227362
O O20 0.500000 0.671079 0.102822
O O21 0.614717 0.750000 0.100864
O O22 0.853190 0.250000 0.719561
#
# Coordination Sequence:
#
# PCOD8278638 Si02
#       8
#    16  16  16  16  16  16  16  16
#     4   9  15  27  43  62  92 123 152 195 245 287
#     4   8  14  26  44  67  97 130 161 194 238 292
#     4   9  18  31  46  68  96 123 155 198 249 300
#     4  10  19  29  47  72  97 126 158 198 250 295
#     4   9  16  26  43  66  90 121 161 200 240 289
#     4   9  18  32  49  69  96 129 161 199 246 289
#     4   8  13  23  41  64  91 122 154 191 234 281
#     4  10  19  31  47  70  97 126 164 205 244 293
#
# _framework density 17.498806999999999
#
# number of rings (size 3 to 8) (size 9 to 14) (size 15 to 20)
#    0.000    3.000    1.250    2.250    0.000    2.500 
#    0.000    1.875    0.000    3.000    0.000    9.625 
#    0.000    9.000    0.000    0.000    0.000    0.000 
#
# Total GULP energy -792909.802339 kJ/mol
# GULP energy per Si atom -12389.215662 kJ/mol
# Density = 1.745898 g / cm^3
# Si number density = 17.498807 Si / 1000 Ang^3
#
#
#
# Elastic Constant Matrix: (Units=GPa)
#
#
# Indices 1 2 3 4 5 6 
#
# 1 79.7944 24.0962 60.9410 0.0000 0.0000 0.0000
# 2 24.0962 51.9009 45.0380 0.0000 0.0000 0.0000
# 3 60.9410 45.0380 143.1548 0.0000 0.0000 0.0000
# 4 0.0000 0.0000 0.0000 14.1960 0.0000 0.0000
# 5 0.0000 0.0000 0.0000 0.0000 16.4666 0.0000
# 6 0.0000 0.0000 0.0000 0.0000 0.0000 14.8225
#
#
#
# Elastic Compliance Matrix: (Units=1/GPa)
#
#
# Indices 1 2 3 4 5 6 
#
# 1 0.018794 -0.002452 -0.007229 0.000000 0.000000 0.000000
# 2 -0.002452 0.026823 -0.007395 0.000000 0.000000 0.000000
# 3 -0.007229 -0.007395 0.012389 0.000000 0.000000 0.000000
# 4 0.000000 0.000000 0.000000 0.070443 0.000000 0.000000
# 5 0.000000 0.000000 0.000000 0.000000 0.060729 0.000000
# 6 0.000000 0.000000 0.000000 0.000000 0.000000 0.067465
#
#
# Mechanical properties :
#
#
# Convention : Reuss Voigt Hill
#
# Bulk Modulus (GPa) = 41.92209 59.44449 50.68329
# Shear Modulus (GPa) = 16.73663 18.74868 17.74265
#
# Velocity S-wave (km/s) = 3.09600 3.27682 3.18769
# Velocity P-wave (km/s) = 6.06543 6.95421 6.52497
#
# Compressibility (1/GPa) = 0.02385377
#
# Stress axis : x y z
#
# Youngs Moduli (GPa) = 53.20936 37.28134 80.71486
#
# Poissons Ratio (x) = 0.09143 0.58348
# Poissons Ratio (y) = 0.13049 0.59687
# Poissons Ratio (z) = 0.38465 0.27569
#
# Static dielectric constant tensor:
#      x y z
#    x 3.085650 0.000000 0.000000 
#    y 0.000000 3.069390 0.000000 
#    z 0.000000 0.000000 3.627110 
# 
# 
# High freq. dielectric constant tensor:
#      x y z
#    x 1.649660 0.000000 0.000000 
#    y 0.000000 1.646420 0.000000 
#    z 0.000000 0.000000 1.676370 
# 
# From -- ./inp_files/39149.got.cif
#   From: 2010.03.12/outbox.cif.g09.slc.cpg/sg67_20_cif.got.tgz:39149.got - 2010.04.10 22:41:39.
