data_PCOD8278684
_publ_section_title
;
Structure prediction by ZEFSAII (Michael W. Deem and Ramdas Pophale) SiO2 
 PCOD8278684
Probable space group: C M M A
;
_chemical_formula_sum "Si O2"
_cell_formula_units_Z 96
_cell_length_a 24.057635
_cell_length_b 9.028762
_cell_length_c 24.674744
_cell_angle_alpha 90.000000
_cell_angle_beta 90.000000
_cell_angle_gamma 90.000000
_cell_volume 5359.617447
_symmetry_space_group_name_H-M "C M M A"
_symmetry_group_IT_number 67
_symmetry_cell_setting 'orthorhombic'
loop_
_space_group_symop_operation_xyz
x,y,z
-x,1/2-y,z
x,-y,-z
-x,1/2+y,-z
-x,-y,-z
x,1/2+y,-z
-x,y,z
x,1/2-y,z
1/2+x,1/2+y,z
1/2-x,-y,z
1/2+x,1/2-y,-z
1/2-x,y,-z
1/2-x,1/2-y,-z
1/2+x,y,-z
1/2-x,1/2+y,z
1/2+x,-y,z
loop_
_atom_site_type_symbol
_atom_site_label
_atom_site_fract_x
_atom_site_fract_y
_atom_site_fract_z
Si Si1 0.690434 0.927686 0.656253
Si Si2 0.892532 0.427367 0.267019
Si Si3 0.065241 0.923336 0.162331
Si Si4 0.000000 0.538018 0.437605
Si Si5 0.500000 0.585827 0.326922
Si Si6 0.878217 0.908704 0.445406
Si Si7 0.934016 0.582608 0.947096
O O1 0.693382 0.750000 0.660763
O O2 0.654743 0.982687 0.604175
O O3 0.750000 0.000000 0.649210
O O4 0.662723 0.996180 0.709784
O O5 0.886151 0.250000 0.268488
O O6 0.900290 0.484306 0.206219
O O7 0.944371 0.488925 0.303032
O O8 0.079919 0.750000 0.165339
O O9 0.000000 0.950741 0.171951
O O10 0.084622 0.987323 0.104681
O O11 0.000000 0.500000 0.500000
O O12 0.057663 0.622681 0.427846
O O13 0.000000 0.407580 0.392666
O O14 0.500000 0.750000 0.303531
O O15 0.850931 0.750000 0.457716
O O16 0.872593 0.000000 0.500000
O O17 0.910113 0.750000 0.943693
O O18 0.000000 0.589154 0.950720
O O19 0.909713 0.500000 0.000000
#
# Coordination Sequence:
#
# PCOD8278684 Si02
#       7
#    16  16  16   8   8  16  16
#     4  11  24  42  59  79 102 135 175 220 269 320
#     4  11  21  36  56  80 106 138 176 220 267 321
#     4  10  19  30  46  72 106 143 180 221 264 314
#     4  10  19  35  53  82 110 137 168 208 262 315
#     4  10  20  33  54  80 107 137 171 210 265 323
#     4  10  22  37  57  81 107 135 169 209 259 316
#     4   9  16  26  41  63  96 140 185 225 262 309
#
# _framework density 17.911726000000002
#
# number of rings (size 3 to 8) (size 9 to 14) (size 15 to 20)
#    0.000    1.833    2.500    2.250    0.000    7.000 
#    0.000    1.667    0.000    0.000    0.000    0.000 
#    0.000    0.667    0.000    6.667    0.000    4.333 
#
# Total GULP energy -594828.828923 kJ/mol
# GULP energy per Si atom -12392.267269 kJ/mol
# Density = 1.787096 g / cm^3
# Si number density = 17.911726 Si / 1000 Ang^3
#
#
#
# Elastic Constant Matrix: (Units=GPa)
#
#
# Indices 1 2 3 4 5 6 
#
# 1 87.2923 33.5246 49.3820 0.0000 0.0000 0.0000
# 2 33.5246 109.5197 52.9508 0.0000 0.0000 0.0000
# 3 49.3820 52.9508 145.0583 0.0000 0.0000 0.0000
# 4 0.0000 0.0000 0.0000 32.5392 0.0000 0.0000
# 5 0.0000 0.0000 0.0000 0.0000 12.5443 0.0000
# 6 0.0000 0.0000 0.0000 0.0000 0.0000 15.9955
#
#
#
# Elastic Compliance Matrix: (Units=1/GPa)
#
#
# Indices 1 2 3 4 5 6 
#
# 1 0.014745 -0.002534 -0.004095 0.000000 0.000000 0.000000
# 2 -0.002534 0.011523 -0.003344 0.000000 0.000000 0.000000
# 3 -0.004095 -0.003344 0.009508 0.000000 0.000000 0.000000
# 4 0.000000 0.000000 0.000000 0.030732 0.000000 0.000000
# 5 0.000000 0.000000 0.000000 0.000000 0.079717 0.000000
# 6 0.000000 0.000000 0.000000 0.000000 0.000000 0.062518
#
#
# Mechanical properties :
#
#
# Convention : Reuss Voigt Hill
#
# Bulk Modulus (GPa) = 63.16314 68.17611 65.66962
# Shear Modulus (GPa) = 21.37064 25.95000 23.66032
#
# Velocity S-wave (km/s) = 3.45789 3.81040 3.63842
# Velocity P-wave (km/s) = 7.16120 7.58313 7.37518
#
# Compressibility (1/GPa) = 0.01583202
#
# Stress axis : x y z
#
# Youngs Moduli (GPa) = 67.81794 86.78292 105.17129
#
# Poissons Ratio (x) = 0.21990 0.43065
# Poissons Ratio (y) = 0.17184 0.35166
# Poissons Ratio (z) = 0.27770 0.29017
#
# Static dielectric constant tensor:
#      x y z
#    x 3.141990 0.000000 0.000000 
#    y 0.000000 3.322500 0.000000 
#    z 0.000000 0.000000 3.365850 
# 
# 
# High freq. dielectric constant tensor:
#      x y z
#    x 1.648310 0.000000 0.000000 
#    y 0.000000 1.700240 0.000000 
#    z 0.000000 0.000000 1.700160 
# 
# From -- ./inp_files/42618.got.cif
#   From: 2010.03.12/outbox.cif.g09.slc.cpg/sg67_22_cif.got.tgz:42618.got - 2010.04.10 22:41:39.
