data_PCOD8278750
_publ_section_title
;
Structure prediction by ZEFSAII (Michael W. Deem and Ramdas Pophale) SiO2 
 PCOD8278750
Probable space group: C M M A
;
_chemical_formula_sum "Si O2"
_cell_formula_units_Z 104
_cell_length_a 27.319068
_cell_length_b 9.107882
_cell_length_c 23.636605
_cell_angle_alpha 90.000000
_cell_angle_beta 90.000000
_cell_angle_gamma 90.000000
_cell_volume 5881.232819
_symmetry_space_group_name_H-M "C M M A"
_symmetry_group_IT_number 67
_symmetry_cell_setting 'orthorhombic'
loop_
_space_group_symop_operation_xyz
x,y,z
-x,1/2-y,z
x,-y,-z
-x,1/2+y,-z
-x,-y,-z
x,1/2+y,-z
-x,y,z
x,1/2-y,z
1/2+x,1/2+y,z
1/2-x,-y,z
1/2+x,1/2-y,-z
1/2-x,y,-z
1/2-x,1/2-y,-z
1/2+x,y,-z
1/2-x,1/2+y,z
1/2+x,-y,z
loop_
_atom_site_type_symbol
_atom_site_label
_atom_site_fract_x
_atom_site_fract_y
_atom_site_fract_z
Si Si1 0.500000 0.417047 0.057287
Si Si2 0.888598 0.077387 0.668685
Si Si3 0.698808 0.075372 0.727421
Si Si4 0.106894 0.421365 0.939838
Si Si5 0.054956 0.084522 0.240028
Si Si6 0.356645 0.583775 0.161103
Si Si7 0.555499 0.578178 0.556562
O O1 0.500000 0.250000 0.039221
O O2 0.447777 0.452255 0.087187
O O3 0.500000 0.500000 0.000000
O O4 0.878103 0.250000 0.674613
O O5 0.907565 0.034445 0.606574
O O6 0.839502 0.986602 0.681720
O O7 0.931126 0.032500 0.712178
O O8 0.702157 0.250000 0.720328
O O9 0.681964 0.032459 0.791041
O O10 0.750000 0.000000 0.714447
O O11 0.117013 0.250000 0.948574
O O12 0.146399 0.483090 0.894804
O O13 0.113922 0.500000 0.000000
O O14 0.060582 0.250000 0.264812
O O15 0.089025 0.067394 0.185783
O O16 0.000000 0.052154 0.219634
O O17 0.345546 0.750000 0.142673
O O18 0.574524 0.500000 0.500000
O O19 0.500000 0.527466 0.571539
O O20 0.556709 0.750000 0.545492
#
# Coordination Sequence:
#
# PCOD8278750 Si02
#       7
#     8  16  16  16  16  16  16
#     4   8  16  28  40  60  88 122 164 200 229 270
#     4  10  19  32  51  76 105 136 173 215 258 304
#     4  10  21  38  59  80 102 128 164 209 262 317
#     4  10  19  31  47  67  95 130 168 206 245 293
#     4   9  18  31  46  68 100 137 172 208 253 302
#     4   9  19  33  49  72  99 127 161 202 249 303
#     4   9  18  31  48  74 109 148 186 218 249 289
#
# _framework density 17.683368000000002
#
# number of rings (size 3 to 8) (size 9 to 14) (size 15 to 20)
#    0.000    2.615    0.000    2.769    1.077    5.846 
#    0.000    1.538    0.000    0.923    0.000    6.462 
#    0.000    0.000    0.000    0.000    0.000    0.000 
#
# Total GULP energy -644477.990265 kJ/mol
# GULP energy per Si atom -12393.807505 kJ/mol
# Density = 1.764312 g / cm^3
# Si number density = 17.683368 Si / 1000 Ang^3
#
#
#
# Elastic Constant Matrix: (Units=GPa)
#
#
# Indices 1 2 3 4 5 6 
#
# 1 85.3370 35.2783 37.7331 0.0000 0.0000 0.0000
# 2 35.2783 77.5636 53.5221 0.0000 0.0000 0.0000
# 3 37.7331 53.5221 97.8918 0.0000 0.0000 0.0000
# 4 0.0000 0.0000 0.0000 32.9487 0.0000 0.0000
# 5 0.0000 0.0000 0.0000 0.0000 16.0237 0.0000
# 6 0.0000 0.0000 0.0000 0.0000 0.0000 24.1304
#
#
#
# Elastic Compliance Matrix: (Units=1/GPa)
#
#
# Indices 1 2 3 4 5 6 
#
# 1 0.015072 -0.004571 -0.003310 0.000000 0.000000 0.000000
# 2 -0.004571 0.022090 -0.010316 0.000000 0.000000 0.000000
# 3 -0.003310 -0.010316 0.017132 0.000000 0.000000 0.000000
# 4 0.000000 0.000000 0.000000 0.030350 0.000000 0.000000
# 5 0.000000 0.000000 0.000000 0.000000 0.062408 0.000000
# 6 0.000000 0.000000 0.000000 0.000000 0.000000 0.041442
#
#
# Mechanical properties :
#
#
# Convention : Reuss Voigt Hill
#
# Bulk Modulus (GPa) = 55.86859 57.09550 56.48205
# Shear Modulus (GPa) = 21.65885 23.57112 22.61499
#
# Velocity S-wave (km/s) = 3.50353 3.65493 3.58003
# Velocity P-wave (km/s) = 6.93028 7.08301 7.00706
#
# Compressibility (1/GPa) = 0.01789915
#
# Stress axis : x y z
#
# Youngs Moduli (GPa) = 66.35032 45.26964 58.37186
#
# Poissons Ratio (x) = 0.20691 0.19324
# Poissons Ratio (y) = 0.30326 0.60215
# Poissons Ratio (z) = 0.21965 0.46699
#
# Static dielectric constant tensor:
#      x y z
#    x 3.153340 0.000000 0.000000 
#    y 0.000000 3.292290 0.000000 
#    z 0.000000 0.000000 3.077130 
# 
# 
# High freq. dielectric constant tensor:
#      x y z
#    x 1.662490 0.000000 0.000000 
#    y 0.000000 1.692310 0.000000 
#    z 0.000000 0.000000 1.668360 
# 
# From -- ./inp_files/37501.got.cif
#   From: 2010.03.12/outbox.cif.g09.slc.cpg/sg67_19_cif.got.tgz:37501.got - 2010.04.10 22:41:39.
