data_PCOD8278953
_publ_section_title
;
Structure prediction by ZEFSAII (Michael W. Deem and Ramdas Pophale) SiO2 
 PCOD8278953
Probable space group: C M M A
;
_chemical_formula_sum "Si O2"
_cell_formula_units_Z 96
_cell_length_a 27.400872
_cell_length_b 8.727531
_cell_length_c 23.544744
_cell_angle_alpha 90.000000
_cell_angle_beta 90.000000
_cell_angle_gamma 90.000000
_cell_volume 5630.536223
_symmetry_space_group_name_H-M "C M M A"
_symmetry_group_IT_number 67
_symmetry_cell_setting 'orthorhombic'
loop_
_space_group_symop_operation_xyz
x,y,z
-x,1/2-y,z
x,-y,-z
-x,1/2+y,-z
-x,-y,-z
x,1/2+y,-z
-x,y,z
x,1/2-y,z
1/2+x,1/2+y,z
1/2-x,-y,z
1/2+x,1/2-y,-z
1/2-x,y,-z
1/2-x,1/2-y,-z
1/2+x,y,-z
1/2-x,1/2+y,z
1/2+x,-y,z
loop_
_atom_site_type_symbol
_atom_site_label
_atom_site_fract_x
_atom_site_fract_y
_atom_site_fract_z
Si Si1 0.302880 0.069862 0.274799
Si Si2 0.142237 0.928097 0.160184
Si Si3 0.944033 0.571545 0.779174
Si Si4 0.055433 0.569325 0.440805
Si Si5 0.698323 0.069120 0.939858
Si Si6 0.391046 0.570625 0.335604
O O1 0.301675 0.250000 0.285129
O O2 0.322035 0.029450 0.211987
O O3 0.250000 0.000000 0.282819
O O4 0.337632 0.993449 0.321486
O O5 0.144731 0.750000 0.144699
O O6 0.087043 0.973124 0.176142
O O7 0.157624 0.026948 0.106023
O O8 0.935087 0.750000 0.791506
O O9 0.928265 0.530646 0.715202
O O10 0.000000 0.524314 0.787142
O O11 0.074085 0.500000 0.500000
O O12 0.058928 0.750000 0.444571
O O13 0.090428 0.510465 0.391809
O O14 0.000000 0.514883 0.428522
O O15 0.703573 0.250000 0.945486
O O16 0.750000 0.000000 0.920153
O O17 0.681982 0.000000 0.000000
O O18 0.387611 0.750000 0.346648
#
# Coordination Sequence:
#
# PCOD8278953 Si02
#       6
#    16  16  16  16  16  16
#     4  10  20  33  50  73 101 132 166 204 245 291
#     4  10  20  33  50  74 102 132 166 203 245 292
#     4   9  18  32  50  73 101 133 167 203 245 292
#     4  10  20  33  50  73 101 132 166 204 246 292
#     4  11  21  34  52  74 101 131 164 202 245 293
#     4  10  19  32  51  74 101 132 165 203 247 293
#
# _framework density 17.049886999999998
#
# number of rings (size 3 to 8) (size 9 to 14) (size 15 to 20)
#    0.000    2.000    0.000    5.000    0.000    6.000 
#    0.000    0.000    0.000    1.000    0.000    3.500 
#    0.000    0.000    0.000    0.000    0.000    0.000 
#
# Total GULP energy -595426.962552 kJ/mol
# GULP energy per Si atom -12404.728386 kJ/mol
# Density = 1.701108 g / cm^3
# Si number density = 17.049887 Si / 1000 Ang^3
#
#
#
# Elastic Constant Matrix: (Units=GPa)
#
#
# Indices 1 2 3 4 5 6 
#
# 1 112.3010 40.4351 57.8162 0.0000 0.0000 0.0000
# 2 40.4351 91.7578 48.1109 0.0000 0.0000 0.0000
# 3 57.8162 48.1109 106.8563 0.0000 0.0000 0.0000
# 4 0.0000 0.0000 0.0000 30.4448 0.0000 0.0000
# 5 0.0000 0.0000 0.0000 0.0000 25.9452 0.0000
# 6 0.0000 0.0000 0.0000 0.0000 0.0000 31.3081
#
#
#
# Elastic Compliance Matrix: (Units=1/GPa)
#
#
# Indices 1 2 3 4 5 6 
#
# 1 0.012811 -0.002632 -0.005746 0.000000 0.000000 0.000000
# 2 -0.002632 0.014807 -0.005242 0.000000 0.000000 0.000000
# 3 -0.005746 -0.005242 0.014828 0.000000 0.000000 0.000000
# 4 0.000000 0.000000 0.000000 0.032846 0.000000 0.000000
# 5 0.000000 0.000000 0.000000 0.000000 0.038543 0.000000
# 6 0.000000 0.000000 0.000000 0.000000 0.000000 0.031941
#
#
# Mechanical properties :
#
#
# Convention : Reuss Voigt Hill
#
# Bulk Modulus (GPa) = 65.77452 67.07106 66.42279
# Shear Modulus (GPa) = 28.07644 28.50983 28.29313
#
# Velocity S-wave (km/s) = 4.06239 4.09362 4.07803
# Velocity P-wave (km/s) = 7.78880 7.85921 7.82408
#
# Compressibility (1/GPa) = 0.01520346
#
# Stress axis : x y z
#
# Youngs Moduli (GPa) = 78.05887 67.53555 67.44104
#
# Poissons Ratio (x) = 0.17779 0.38753
# Poissons Ratio (y) = 0.20549 0.35355
# Poissons Ratio (z) = 0.44855 0.35404
#
# Static dielectric constant tensor:
#      x y z
#    x 3.144650 0.000000 0.000000 
#    y 0.000000 3.294370 0.000000 
#    z 0.000000 0.000000 3.100180 
# 
# 
# High freq. dielectric constant tensor:
#      x y z
#    x 1.648770 0.000000 0.000000 
#    y 0.000000 1.674810 0.000000 
#    z 0.000000 0.000000 1.648590 
# 
# From -- ./inp_files/37154.got.cif
#   From: 2010.03.12/outbox.cif.g09.slc.cpg/sg67_19_cif.got.tgz:37154.got - 2010.04.10 22:41:39.
