data_PCOD8278090
_publ_section_title
;
Structure prediction by ZEFSAII (Michael W. Deem and Ramdas Pophale) SiO2 
 PCOD8278090
Probable space group: C M M A
;
_chemical_formula_sum "Si O2"
_cell_formula_units_Z 64
_cell_length_a 8.737271
_cell_length_b 19.104082
_cell_length_c 20.990950
_cell_angle_alpha 90.000000
_cell_angle_beta 90.000000
_cell_angle_gamma 90.000000
_cell_volume 3503.757771
_symmetry_space_group_name_H-M "C M M A"
_symmetry_group_IT_number 67
_symmetry_cell_setting 'orthorhombic'
loop_
_space_group_symop_operation_xyz
x,y,z
-x,1/2-y,z
x,-y,-z
-x,1/2+y,-z
-x,-y,-z
x,1/2+y,-z
-x,y,z
x,1/2-y,z
1/2+x,1/2+y,z
1/2-x,-y,z
1/2+x,1/2-y,-z
1/2-x,y,-z
1/2-x,1/2-y,-z
1/2+x,y,-z
1/2-x,1/2+y,z
1/2+x,-y,z
loop_
_atom_site_type_symbol
_atom_site_label
_atom_site_fract_x
_atom_site_fract_y
_atom_site_fract_z
Si Si1 0.820774 0.331511 0.798293
Si Si2 0.180483 0.423807 0.308730
Si Si3 0.682327 0.922310 0.563239
Si Si4 0.332224 0.667089 0.938714
O O1 0.795973 0.250000 0.783920
O O2 0.716467 0.375054 0.750773
O O3 0.759338 0.350303 0.869631
O O4 0.000000 0.350735 0.791133
O O5 0.250000 0.500000 0.295681
O O6 0.256997 0.387388 0.371426
O O7 0.000000 0.430618 0.319087
O O8 0.500000 0.922366 0.560899
O O9 0.750000 0.883747 0.500000
O O10 0.750000 0.000000 0.564207
O O11 0.500000 0.634358 0.939398
O O12 0.339894 0.750000 0.946703
O O13 0.250000 0.633003 0.000000
#
# Coordination Sequence:
#
# PCOD8278090 Si02
#       4
#    16  16  16  16
#     4   9  18  33  51  72 100 132 163 198 243 291
#     4  11  21  33  50  73 100 130 165 202 243 289
#     4  10  17  28  46  69  96 124 158 199 242 284
#     4   8  14  25  43  67  94 123 156 195 237 281
#
# _framework density 18.266102
#
# number of rings (size 3 to 8) (size 9 to 14) (size 15 to 20)
#    0.000    2.500    0.000    8.250    0.000    1.500 
#    0.000    2.500    0.000    1.500    0.000    5.250 
#    0.000    0.000    0.000    0.000    0.000    0.000 
#
# Total GULP energy -396490.722193 kJ/mol
# GULP energy per Si atom -12390.335069 kJ/mol
# Density = 1.822453 g / cm^3
# Si number density = 18.266102 Si / 1000 Ang^3
#
#
#
# Elastic Constant Matrix: (Units=GPa)
#
#
# Indices 1 2 3 4 5 6 
#
# 1 138.5094 24.4859 70.0563 0.0000 0.0000 0.0000
# 2 24.4859 28.5135 36.9022 0.0000 0.0000 0.0000
# 3 70.0563 36.9022 179.8726 0.0000 0.0000 0.0000
# 4 0.0000 0.0000 0.0000 25.1217 0.0000 0.0000
# 5 0.0000 0.0000 0.0000 0.0000 38.1101 0.0000
# 6 0.0000 0.0000 0.0000 0.0000 0.0000 18.2090
#
#
#
# Elastic Compliance Matrix: (Units=1/GPa)
#
#
# Indices 1 2 3 4 5 6 
#
# 1 0.009404 -0.004541 -0.002731 0.000000 0.000000 0.000000
# 2 -0.004541 0.049942 -0.008477 0.000000 0.000000 0.000000
# 3 -0.002731 -0.008477 0.008362 0.000000 0.000000 0.000000
# 4 0.000000 0.000000 0.000000 0.039806 0.000000 0.000000
# 5 0.000000 0.000000 0.000000 0.000000 0.026240 0.000000
# 6 0.000000 0.000000 0.000000 0.000000 0.000000 0.054918
#
#
# Mechanical properties :
#
#
# Convention : Reuss Voigt Hill
#
# Bulk Modulus (GPa) = 27.61707 67.75383 47.68545
# Shear Modulus (GPa) = 21.52939 30.65157 26.09048
#
# Velocity S-wave (km/s) = 3.43688 4.10085 3.78346
# Velocity P-wave (km/s) = 5.55892 7.71984 6.72672
#
# Compressibility (1/GPa) = 0.03620949
#
# Stress axis : x y z
#
# Youngs Moduli (GPa) = 106.34020 20.02316 119.58422
#
# Poissons Ratio (x) = 0.09093 0.32657
# Poissons Ratio (y) = 0.48290 1.01376
# Poissons Ratio (z) = 0.29041 0.16974
#
# Static dielectric constant tensor:
#      x y z
#    x 3.464050 0.000000 0.000000 
#    y 0.000000 2.755300 0.000000 
#    z 0.000000 0.000000 4.287410 
# 
# 
# High freq. dielectric constant tensor:
#      x y z
#    x 1.711740 0.000000 0.000000 
#    y 0.000000 1.633660 0.000000 
#    z 0.000000 0.000000 1.740100 
# 
# From -- ./inp_files/31743.got.cif
#   From: 2010.03.12/outbox.cif.g09.slc.cpg/sg67_16_cif.got.tgz:31743.got - 2010.04.10 22:41:39.
