data_PCOD8278058
_publ_section_title
;
Structure prediction by ZEFSAII (Michael W. Deem and Ramdas Pophale) SiO2 
 PCOD8278058
Probable space group: C M M A
;
_chemical_formula_sum "Si O2"
_cell_formula_units_Z 64
_cell_length_a 18.785420
_cell_length_b 8.558856
_cell_length_c 20.926911
_cell_angle_alpha 90.000000
_cell_angle_beta 90.000000
_cell_angle_gamma 90.000000
_cell_volume 3364.664424
_symmetry_space_group_name_H-M "C M M A"
_symmetry_group_IT_number 67
_symmetry_cell_setting 'orthorhombic'
loop_
_space_group_symop_operation_xyz
x,y,z
-x,1/2-y,z
x,-y,-z
-x,1/2+y,-z
-x,-y,-z
x,1/2+y,-z
-x,y,z
x,1/2-y,z
1/2+x,1/2+y,z
1/2-x,-y,z
1/2+x,1/2-y,-z
1/2-x,y,-z
1/2-x,1/2-y,-z
1/2+x,y,-z
1/2-x,1/2+y,z
1/2+x,-y,z
loop_
_atom_site_type_symbol
_atom_site_label
_atom_site_fract_x
_atom_site_fract_y
_atom_site_fract_z
Si Si1 0.172466 0.064675 0.932433
Si Si2 0.920211 0.435676 0.814226
Si Si3 0.171072 0.064546 0.694631
Si Si4 0.829529 0.564977 0.564140
O O1 0.176544 0.250000 0.935534
O O2 0.118560 0.004466 0.878196
O O3 0.250000 0.000000 0.915667
O O4 0.144600 0.000000 0.000000
O O5 0.922116 0.250000 0.813704
O O6 0.877701 0.496517 0.752449
O O7 0.000000 0.504672 0.812846
O O8 0.174585 0.250000 0.690992
O O9 0.250000 0.000000 0.705503
O O10 0.134956 0.998709 0.629346
O O11 0.868700 0.500000 0.500000
O O12 0.830044 0.750000 0.563293
O O13 0.750000 0.500000 0.564298
#
# Coordination Sequence:
#
# PCOD8278058 Si02
#       4
#    16  16  16  16
#     4  10  19  33  54  77 102 130 163 203 245 292
#     4   9  19  34  51  72  99 132 167 203 245 292
#     4  10  18  30  50  73  98 128 163 203 246 293
#     4  10  17  27  44  69 100 128 160 201 246 293
#
# _framework density 19.021212999999999
#
# number of rings (size 3 to 8) (size 9 to 14) (size 15 to 20)
#    0.000    2.250    0.000    7.500    0.000    0.500 
#    0.000    3.750    0.000   12.000    0.000    0.000 
#    0.000    0.000    0.000    0.000    0.000    0.000 
#
# Total GULP energy -396702.575815 kJ/mol
# GULP energy per Si atom -12396.955494 kJ/mol
# Density = 1.897792 g / cm^3
# Si number density = 19.021213 Si / 1000 Ang^3
#
#
#
# Elastic Constant Matrix: (Units=GPa)
#
#
# Indices 1 2 3 4 5 6 
#
# 1 97.5644 26.3072 94.1442 0.0000 0.0000 0.0000
# 2 26.3072 101.2627 51.9801 0.0000 0.0000 0.0000
# 3 94.1442 51.9801 222.7609 0.0000 0.0000 0.0000
# 4 0.0000 0.0000 0.0000 -1.1516 0.0000 0.0000
# 5 0.0000 0.0000 0.0000 0.0000 6.6208 0.0000
# 6 0.0000 0.0000 0.0000 0.0000 0.0000 13.9081
#
#
#
# Elastic Compliance Matrix: (Units=1/GPa)
#
#
# Indices 1 2 3 4 5 6 
#
# 1 0.017372 -0.000846 -0.007144 0.000000 0.000000 0.000000
# 2 -0.000846 0.011260 -0.002270 0.000000 0.000000 0.000000
# 3 -0.007144 -0.002270 0.008038 0.000000 0.000000 0.000000
# 4 0.000000 0.000000 0.000000 -0.868387 0.000000 0.000000
# 5 0.000000 0.000000 0.000000 0.000000 0.151038 0.000000
# 6 0.000000 0.000000 0.000000 0.000000 0.000000 0.071901
#
#
# Mechanical properties :
#
#
# Convention : Reuss Voigt Hill
#
# Bulk Modulus (GPa) = 61.92019 85.16123 73.54071
# Shear Modulus (GPa) = -8.57817 20.48590 5.95387
#
# Velocity S-wave (km/s) = -2.12593 3.28533 1.77113
# Velocity P-wave (km/s) = 5.15730 7.69806 6.55202
#
# Compressibility (1/GPa) = 0.01614982
#
# Stress axis : x y z
#
# Youngs Moduli (GPa) = 57.56552 88.80755 124.40609
#
# Poissons Ratio (x) = 0.07510 0.88879
# Poissons Ratio (y) = 0.04868 0.28242
# Poissons Ratio (z) = 0.41126 0.20161
#
# Static dielectric constant tensor:
#      x y z
#    x 3.278330 0.000000 0.000000 
#    y 0.000000 3.341810 0.000000 
#    z 0.000000 0.000000 4.425450 
# 
# 
# High freq. dielectric constant tensor:
#      x y z
#    x 1.694700 0.000000 0.000000 
#    y 0.000000 1.732780 0.000000 
#    z 0.000000 0.000000 1.769310 
# 
# From -- ./inp_files/35319.got.cif
#   From: 2010.03.12/outbox.cif.g09.slc.cpg/sg67_18_cif.got.tgz:35319.got - 2010.04.10 22:41:39.
