data_PCOD8278535
_publ_section_title
;
Structure prediction by ZEFSAII (Michael W. Deem and Ramdas Pophale) SiO2 
 PCOD8278535
Probable space group: C M M A
;
_chemical_formula_sum "Si O2"
_cell_formula_units_Z 112
_cell_length_a 19.430723
_cell_length_b 18.304705
_cell_length_c 17.686480
_cell_angle_alpha 90.000000
_cell_angle_beta 90.000000
_cell_angle_gamma 90.000000
_cell_volume 6290.614941
_symmetry_space_group_name_H-M "C M M A"
_symmetry_group_IT_number 67
_symmetry_cell_setting 'orthorhombic'
loop_
_space_group_symop_operation_xyz
x,y,z
-x,1/2-y,z
x,-y,-z
-x,1/2+y,-z
-x,-y,-z
x,1/2+y,-z
-x,y,z
x,1/2-y,z
1/2+x,1/2+y,z
1/2-x,-y,z
1/2+x,1/2-y,-z
1/2-x,y,-z
1/2-x,1/2-y,-z
1/2+x,y,-z
1/2-x,1/2+y,z
1/2+x,-y,z
loop_
_atom_site_type_symbol
_atom_site_label
_atom_site_fract_x
_atom_site_fract_y
_atom_site_fract_z
Si Si1 0.685687 0.333039 0.826211
Si Si2 0.344767 0.336638 0.572351
Si Si3 0.920174 0.102711 0.289188
Si Si4 0.920798 0.036337 0.802448
Si Si5 0.833316 0.166389 0.754476
Si Si6 0.320474 0.029432 0.915213
Si Si7 0.808749 0.334987 0.588019
O O1 0.682166 0.250000 0.854601
O O2 0.623361 0.347969 0.768678
O O3 0.755486 0.349008 0.780023
O O4 0.681288 0.382703 0.902220
O O5 0.354654 0.250000 0.587994
O O6 0.397571 0.381558 0.624674
O O7 0.268327 0.367391 0.589391
O O8 0.356563 0.358097 0.483540
O O9 0.000000 0.123778 0.279245
O O10 0.908661 0.016700 0.269917
O O11 0.886504 0.115240 0.796844
O O12 0.000000 0.049265 0.819230
O O13 0.888680 0.998813 0.875621
O O14 0.853433 0.250000 0.771032
O O15 0.845011 0.146207 0.666513
O O16 0.250000 0.000000 0.876727
O O17 0.323029 0.000000 0.000000
O O18 0.794823 0.250000 0.578831
#
# Coordination Sequence:
#
# PCOD8278535 Si02
#       7
#    16  16  16  16  16  16  16
#     4  10  19  33  56  85 111 140 181 224 267 315
#     4   9  15  27  46  72 105 138 176 222 268 318
#     4  10  20  32  50  77 112 147 180 224 278 326
#     4  10  22  38  55  78 106 143 182 218 266 325
#     4  10  18  33  56  79 102 137 183 231 269 307
#     4  10  20  37  59  84 113 141 173 211 263 326
#     4   8  15  27  47  73 101 135 177 223 269 313
#
# _framework density 17.804300999999999
#
# number of rings (size 3 to 8) (size 9 to 14) (size 15 to 20)
#    0.000    2.429    2.857    1.286    0.000    1.714 
#    0.000    3.571    0.000    6.000    0.000    0.000 
#    0.000    0.000    0.000    0.000    0.000    0.000 
#
# Total GULP energy -693913.930476 kJ/mol
# GULP energy per Si atom -12391.320187 kJ/mol
# Density = 1.776378 g / cm^3
# Si number density = 17.804301 Si / 1000 Ang^3
#
#
#
# Elastic Constant Matrix: (Units=GPa)
#
#
# Indices 1 2 3 4 5 6 
#
# 1 112.9267 54.2234 38.4766 0.0000 0.0000 0.0000
# 2 54.2234 105.2957 57.5103 0.0000 0.0000 0.0000
# 3 38.4766 57.5103 95.3795 0.0000 0.0000 0.0000
# 4 0.0000 0.0000 0.0000 772.5217 0.0000 0.0000
# 5 0.0000 0.0000 0.0000 0.0000 22.8300 0.0000
# 6 0.0000 0.0000 0.0000 0.0000 0.0000 18.6030
#
#
#
# Elastic Compliance Matrix: (Units=1/GPa)
#
#
# Indices 1 2 3 4 5 6 
#
# 1 0.011937 -0.005244 -0.001653 0.000000 0.000000 0.000000
# 2 -0.005244 0.016464 -0.007812 0.000000 0.000000 0.000000
# 3 -0.001653 -0.007812 0.015862 0.000000 0.000000 0.000000
# 4 0.000000 0.000000 0.000000 0.001294 0.000000 0.000000
# 5 0.000000 0.000000 0.000000 0.000000 0.043802 0.000000
# 6 0.000000 0.000000 0.000000 0.000000 0.000000 0.053755
#
#
# Mechanical properties :
#
#
# Convention : Reuss Voigt Hill
#
# Bulk Modulus (GPa) = 67.36669 68.22472 67.79571
# Shear Modulus (GPa) = 28.17222 173.68373 100.92797
#
# Velocity S-wave (km/s) = 3.98216 9.88753 7.53727
# Velocity P-wave (km/s) = 7.68524 12.99052 10.67278
#
# Compressibility (1/GPa) = 0.01484413
#
# Stress axis : x y z
#
# Youngs Moduli (GPa) = 83.77622 60.73818 63.04488
#
# Poissons Ratio (x) = 0.31850 0.10424
# Poissons Ratio (y) = 0.43931 0.49250
# Poissons Ratio (z) = 0.13852 0.47448
#
# Static dielectric constant tensor:
#      x y z
#    x 3.255380 0.000000 0.000000 
#    y 0.000000 3.239410 0.000000 
#    z 0.000000 0.000000 3.447950 
# 
# 
# High freq. dielectric constant tensor:
#      x y z
#    x 1.677220 0.000000 0.000000 
#    y 0.000000 1.676600 0.000000 
#    z 0.000000 0.000000 1.678220 
# 
# From -- ./inp_files/35084.got.cif
#   From: 2010.03.12/outbox.cif.g09.slc.cpg/sg67_18_cif.got.tgz:35084.got - 2010.04.10 22:41:39.
