data_PCOD8278817
_publ_section_title
;
Structure prediction by ZEFSAII (Michael W. Deem and Ramdas Pophale) SiO2 
 PCOD8278817
Probable space group: C M M A
;
_chemical_formula_sum "Si O2"
_cell_formula_units_Z 80
_cell_length_a 8.984596
_cell_length_b 27.088628
_cell_length_c 18.671965
_cell_angle_alpha 90.000000
_cell_angle_beta 90.000000
_cell_angle_gamma 90.000000
_cell_volume 4544.389914
_symmetry_space_group_name_H-M "C M M A"
_symmetry_group_IT_number 67
_symmetry_cell_setting 'orthorhombic'
loop_
_space_group_symop_operation_xyz
x,y,z
-x,1/2-y,z
x,-y,-z
-x,1/2+y,-z
-x,-y,-z
x,1/2+y,-z
-x,y,z
x,1/2-y,z
1/2+x,1/2+y,z
1/2-x,-y,z
1/2+x,1/2-y,-z
1/2-x,y,-z
1/2-x,1/2-y,-z
1/2+x,y,-z
1/2-x,1/2+y,z
1/2+x,-y,z
loop_
_atom_site_type_symbol
_atom_site_label
_atom_site_fract_x
_atom_site_fract_y
_atom_site_fract_z
Si Si1 0.826017 0.889590 0.713215
Si Si2 0.824333 0.448316 0.427176
Si Si3 0.171704 0.949817 0.848507
Si Si4 0.171475 0.193422 0.791416
Si Si5 0.174276 0.649014 0.925758
O O1 0.790000 0.908516 0.633966
O O2 0.773251 0.930620 0.770831
O O3 0.736604 0.839152 0.726349
O O4 0.000000 0.878508 0.724690
O O5 0.750000 0.500000 0.405238
O O6 0.750000 0.428136 0.500000
O O7 0.000000 0.456279 0.437852
O O8 0.207255 0.908182 0.907518
O O9 0.000000 0.962464 0.844937
O O10 0.250000 0.000000 0.871516
O O11 0.191071 0.250000 0.768535
O O12 0.259898 0.183882 0.864501
O O13 0.000000 0.179525 0.803970
O O14 0.000000 0.659521 0.931052
O O15 0.250000 0.663305 0.000000
#
# Coordination Sequence:
#
# PCOD8278817 Si02
#       5
#    16  16  16  16  16
#     4   9  19  34  51  73 101 133 168 205 246 293
#     4  10  19  31  49  76 109 142 174 205 242 289
#     4   9  18  31  47  69  96 128 165 201 240 287
#     4  10  21  36  55  78  99 123 160 205 254 304
#     4  10  21  36  52  72  99 130 165 204 247 297
#
# _framework density 17.604123000000001
#
# number of rings (size 3 to 8) (size 9 to 14) (size 15 to 20)
#    0.000    2.400    0.000    4.200    0.000    8.000 
#    0.000    2.000    0.000    0.600    0.000    0.000 
#    0.000    0.000    0.000    0.000    0.000    0.000 
#
# Total GULP energy -496055.072255 kJ/mol
# GULP energy per Si atom -12401.376806 kJ/mol
# Density = 1.756406 g / cm^3
# Si number density = 17.604123 Si / 1000 Ang^3
#
#
#
# Elastic Constant Matrix: (Units=GPa)
#
#
# Indices 1 2 3 4 5 6 
#
# 1 99.8684 52.0037 54.4891 0.0000 0.0000 0.0000
# 2 52.0037 89.9869 42.8123 0.0000 0.0000 0.0000
# 3 54.4891 42.8123 113.0029 0.0000 0.0000 0.0000
# 4 0.0000 0.0000 0.0000 17.8245 0.0000 0.0000
# 5 0.0000 0.0000 0.0000 0.0000 30.7193 0.0000
# 6 0.0000 0.0000 0.0000 0.0000 0.0000 31.3327
#
#
#
# Elastic Compliance Matrix: (Units=1/GPa)
#
#
# Indices 1 2 3 4 5 6 
#
# 1 0.016594 -0.007054 -0.005329 0.000000 0.000000 0.000000
# 2 -0.007054 0.016555 -0.002870 0.000000 0.000000 0.000000
# 3 -0.005329 -0.002870 0.012506 0.000000 0.000000 0.000000
# 4 0.000000 0.000000 0.000000 0.056102 0.000000 0.000000
# 5 0.000000 0.000000 0.000000 0.000000 0.032553 0.000000
# 6 0.000000 0.000000 0.000000 0.000000 0.000000 0.031916
#
#
# Mechanical properties :
#
#
# Convention : Reuss Voigt Hill
#
# Bulk Modulus (GPa) = 66.01544 66.82982 66.42263
# Shear Modulus (GPa) = 24.77903 26.21218 25.49560
#
# Velocity S-wave (km/s) = 3.75583 3.86292 3.80975
# Velocity P-wave (km/s) = 7.50931 7.61191 7.56078
#
# Compressibility (1/GPa) = 0.01514797
#
# Stress axis : x y z
#
# Youngs Moduli (GPa) = 60.26240 60.40402 79.95918
#
# Poissons Ratio (x) = 0.42612 0.42609
# Poissons Ratio (y) = 0.42512 0.22952
# Poissons Ratio (z) = 0.32113 0.17339
#
# Static dielectric constant tensor:
#      x y z
#    x 3.357510 0.000000 0.000000 
#    y 0.000000 3.126350 0.000000 
#    z 0.000000 0.000000 3.224480 
# 
# 
# High freq. dielectric constant tensor:
#      x y z
#    x 1.692010 0.000000 0.000000 
#    y 0.000000 1.668380 0.000000 
#    z 0.000000 0.000000 1.672710 
# 
# From -- ./inp_files/32146.got.cif
#   From: 2010.03.12/outbox.cif.g09.slc.cpg/sg67_17_cif.got.tgz:32146.got - 2010.04.10 22:41:39.
