data_PCOD8278617
_publ_section_title
;
Structure prediction by ZEFSAII (Michael W. Deem and Ramdas Pophale) SiO2 
 PCOD8278617
Probable space group: C M M A
;
_chemical_formula_sum "Si O2"
_cell_formula_units_Z 96
_cell_length_a 8.951424
_cell_length_b 26.936502
_cell_length_c 23.881159
_cell_angle_alpha 90.000000
_cell_angle_beta 90.000000
_cell_angle_gamma 90.000000
_cell_volume 5758.226264
_symmetry_space_group_name_H-M "C M M A"
_symmetry_group_IT_number 67
_symmetry_cell_setting 'orthorhombic'
loop_
_space_group_symop_operation_xyz
x,y,z
-x,1/2-y,z
x,-y,-z
-x,1/2+y,-z
-x,-y,-z
x,1/2+y,-z
-x,y,z
x,1/2-y,z
1/2+x,1/2+y,z
1/2-x,-y,z
1/2+x,1/2-y,-z
1/2-x,y,-z
1/2-x,1/2-y,-z
1/2+x,y,-z
1/2-x,1/2+y,z
1/2+x,-y,z
loop_
_atom_site_type_symbol
_atom_site_label
_atom_site_fract_x
_atom_site_fract_y
_atom_site_fract_z
Si Si1 0.829197 0.805462 0.874834
Si Si2 0.675087 0.099022 0.941140
Si Si3 0.324154 0.692932 0.332339
Si Si4 0.827189 0.851160 0.227037
Si Si5 0.674580 0.549738 0.837466
Si Si6 0.167972 0.809053 0.445254
O O1 0.801658 0.750000 0.898108
O O2 0.790785 0.843880 0.924280
O O3 0.724574 0.813811 0.821471
O O4 0.000000 0.812798 0.854848
O O5 0.500000 0.088171 0.945062
O O6 0.746758 0.062524 0.895936
O O7 0.750000 0.087618 0.000000
O O8 0.500000 0.687485 0.337430
O O9 0.277589 0.750000 0.320717
O O10 0.265488 0.658337 0.282886
O O11 0.253460 0.672972 0.389870
O O12 0.796747 0.907508 0.208104
O O13 0.000000 0.841014 0.239239
O O14 0.500000 0.541822 0.848477
O O15 0.750000 0.500000 0.813244
O O16 0.168235 0.750000 0.448128
O O17 0.250000 0.830993 0.500000
O O18 0.000000 0.829967 0.443752
#
# Coordination Sequence:
#
# PCOD8278617 Si02
#       6
#    16  16  16  16  16  16
#     4   9  18  32  48  66  91 124 156 185 221 265
#     4  10  20  34  51  71  95 120 149 185 223 267
#     4  10  19  29  43  65  94 129 165 196 227 266
#     4  10  20  32  47  69  94 118 149 190 231 273
#     4  10  21  37  55  73  92 115 145 183 231 282
#     4   9  16  26  40  59  87 124 164 202 236 269
#
# _framework density 16.671800000000001
#
# number of rings (size 3 to 8) (size 9 to 14) (size 15 to 20)
#    0.000    2.333    0.000    3.000    0.000    8.667 
#    0.000    1.667    0.000    0.000    0.000    0.000 
#    0.000    0.667    0.000    7.000    0.000    4.167 
#
# Total GULP energy -595308.774157 kJ/mol
# GULP energy per Si atom -12402.266128 kJ/mol
# Density = 1.663385 g / cm^3
# Si number density = 16.671800 Si / 1000 Ang^3
#
#
#
# Elastic Constant Matrix: (Units=GPa)
#
#
# Indices 1 2 3 4 5 6 
#
# 1 107.2664 32.6253 58.4914 0.0000 0.0000 0.0000
# 2 32.6253 65.5914 23.8855 0.0000 0.0000 0.0000
# 3 58.4914 23.8855 113.4004 0.0000 0.0000 0.0000
# 4 0.0000 0.0000 0.0000 13.9293 0.0000 0.0000
# 5 0.0000 0.0000 0.0000 0.0000 34.6761 0.0000
# 6 0.0000 0.0000 0.0000 0.0000 0.0000 22.8825
#
#
#
# Elastic Compliance Matrix: (Units=1/GPa)
#
#
# Indices 1 2 3 4 5 6 
#
# 1 0.014227 -0.004770 -0.006333 0.000000 0.000000 0.000000
# 2 -0.004770 0.018112 -0.001354 0.000000 0.000000 0.000000
# 3 -0.006333 -0.001354 0.012370 0.000000 0.000000 0.000000
# 4 0.000000 0.000000 0.000000 0.071791 0.000000 0.000000
# 5 0.000000 0.000000 0.000000 0.000000 0.028838 0.000000
# 6 0.000000 0.000000 0.000000 0.000000 0.000000 0.043701
#
#
# Mechanical properties :
#
#
# Convention : Reuss Voigt Hill
#
# Bulk Modulus (GPa) = 50.52291 57.36251 53.94271
# Shear Modulus (GPa) = 22.67017 25.71464 24.19241
#
# Velocity S-wave (km/s) = 3.69154 3.93160 3.81346
# Velocity P-wave (km/s) = 6.96707 7.42237 7.19832
#
# Compressibility (1/GPa) = 0.01979300
#
# Stress axis : x y z
#
# Youngs Moduli (GPa) = 70.28868 55.21247 80.83823
#
# Poissons Ratio (x) = 0.26337 0.51199
# Poissons Ratio (y) = 0.33529 0.10949
# Poissons Ratio (z) = 0.44517 0.07478
#
# Static dielectric constant tensor:
#      x y z
#    x 3.306570 0.000000 0.000000 
#    y 0.000000 2.941940 0.000000 
#    z 0.000000 0.000000 3.074110 
# 
# 
# High freq. dielectric constant tensor:
#      x y z
#    x 1.661720 0.000000 0.000000 
#    y 0.000000 1.608490 0.000000 
#    z 0.000000 0.000000 1.634980 
# 
# From -- ./inp_files/37138.got.cif
#   From: 2010.03.12/outbox.cif.g09.slc.cpg/sg67_19_cif.got.tgz:37138.got - 2010.04.10 22:41:39.
