data_PCOD8278758
_publ_section_title
;
Structure prediction by ZEFSAII (Michael W. Deem and Ramdas Pophale) SiO2 
 PCOD8278758
Probable space group: C M M A
;
_chemical_formula_sum "Si O2"
_cell_formula_units_Z 72
_cell_length_a 8.587392
_cell_length_b 25.333149
_cell_length_c 19.547852
_cell_angle_alpha 90.000000
_cell_angle_beta 90.000000
_cell_angle_gamma 90.000000
_cell_volume 4252.550777
_symmetry_space_group_name_H-M "C M M A"
_symmetry_group_IT_number 67
_symmetry_cell_setting 'orthorhombic'
loop_
_space_group_symop_operation_xyz
x,y,z
-x,1/2-y,z
x,-y,-z
-x,1/2+y,-z
-x,-y,-z
x,1/2+y,-z
-x,y,z
x,1/2-y,z
1/2+x,1/2+y,z
1/2-x,-y,z
1/2+x,1/2-y,-z
1/2-x,y,-z
1/2-x,1/2-y,-z
1/2+x,y,-z
1/2-x,1/2+y,z
1/2+x,-y,z
loop_
_atom_site_type_symbol
_atom_site_label
_atom_site_fract_x
_atom_site_fract_y
_atom_site_fract_z
Si Si1 0.674905 0.812788 0.069122
Si Si2 0.684885 0.942627 0.572813
Si Si3 0.817369 0.150999 0.344674
Si Si4 0.815801 0.750000 0.424480
Si Si5 0.819829 0.688212 0.209685
O O1 0.500000 0.834442 0.076010
O O2 0.675987 0.750000 0.065280
O O3 0.774041 0.832085 0.134269
O O4 0.750000 0.836378 0.000000
O O5 0.500000 0.944473 0.569341
O O6 0.750000 0.922692 0.500000
O O7 0.741765 0.903538 0.631537
O O8 0.750000 0.000000 0.591038
O O9 0.739932 0.198521 0.385379
O O10 0.783750 0.156869 0.264256
O O11 0.000000 0.150666 0.358856
O O12 0.750000 0.750000 0.500000
O O13 0.000000 0.750000 0.427089
O O14 0.782792 0.750000 0.217286
O O15 0.000000 0.676196 0.223068
#
# Coordination Sequence:
#
# PCOD8278758 Si02
#       5
#    16  16  16   8  16
#     4   9  16  26  41  62  90 126 168 207 245 290
#     4  11  22  39  59  79 101 128 166 211 259 306
#     4  12  23  36  53  75 102 134 169 208 254 305
#     4  12  24  38  52  72  99 132 169 208 250 300
#     4  10  19  31  47  68  98 133 169 207 251 299
#
# _framework density 16.931014000000001
#
# number of rings (size 3 to 8) (size 9 to 14) (size 15 to 20)
#    0.000    1.333    1.111    7.667    0.000    3.556 
#    0.000    0.000    0.000    0.000    0.000    0.000 
#    0.000    0.889    0.000    8.889    0.000    5.778 
#
# Total GULP energy -446544.472105 kJ/mol
# GULP energy per Si atom -12404.013114 kJ/mol
# Density = 1.689248 g / cm^3
# Si number density = 16.931014 Si / 1000 Ang^3
#
#
#
# Elastic Constant Matrix: (Units=GPa)
#
#
# Indices 1 2 3 4 5 6 
#
# 1 147.0540 37.0100 44.8608 0.0000 0.0000 0.0000
# 2 37.0100 60.5714 43.2799 0.0000 0.0000 0.0000
# 3 44.8608 43.2799 128.1312 0.0000 0.0000 0.0000
# 4 0.0000 0.0000 0.0000 12.3700 0.0000 0.0000
# 5 0.0000 0.0000 0.0000 0.0000 35.4197 0.0000
# 6 0.0000 0.0000 0.0000 0.0000 0.0000 22.3796
#
#
#
# Elastic Compliance Matrix: (Units=1/GPa)
#
#
# Indices 1 2 3 4 5 6 
#
# 1 0.008268 -0.003933 -0.001566 0.000000 0.000000 0.000000
# 2 -0.003933 0.023632 -0.006606 0.000000 0.000000 0.000000
# 3 -0.001566 -0.006606 0.010584 0.000000 0.000000 0.000000
# 4 0.000000 0.000000 0.000000 0.080841 0.000000 0.000000
# 5 0.000000 0.000000 0.000000 0.000000 0.028233 0.000000
# 6 0.000000 0.000000 0.000000 0.000000 0.000000 0.044683
#
#
# Mechanical properties :
#
#
# Convention : Reuss Voigt Hill
#
# Bulk Modulus (GPa) = 54.71920 65.11755 59.91838
# Shear Modulus (GPa) = 22.07100 28.07427 25.07263
#
# Velocity S-wave (km/s) = 3.61443 4.07646 3.85238
# Velocity P-wave (km/s) = 7.05747 7.79107 7.43333
#
# Compressibility (1/GPa) = 0.01827512
#
# Stress axis : x y z
#
# Youngs Moduli (GPa) = 120.95137 42.31529 94.48118
#
# Poissons Ratio (x) = 0.16641 0.14799
# Poissons Ratio (y) = 0.47564 0.62410
# Poissons Ratio (z) = 0.18945 0.27952
#
# Static dielectric constant tensor:
#      x y z
#    x 3.428110 0.000000 0.000000 
#    y 0.000000 2.813900 0.000000 
#    z 0.000000 0.000000 3.372550 
# 
# 
# High freq. dielectric constant tensor:
#      x y z
#    x 1.679000 0.000000 0.000000 
#    y 0.000000 1.601300 0.000000 
#    z 0.000000 0.000000 1.662930 
# 
# From -- ./inp_files/31936.got.cif
#   From: 2010.03.12/outbox.cif.g09.slc.cpg/sg67_16_cif.got.tgz:31936.got - 2010.04.10 22:41:39.
