data_PCOD8278679
_publ_section_title
;
Structure prediction by ZEFSAII (Michael W. Deem and Ramdas Pophale) SiO2 
 PCOD8278679
Probable space group: C M M A
;
_chemical_formula_sum "Si O2"
_cell_formula_units_Z 88
_cell_length_a 24.983403
_cell_length_b 39.001032
_cell_length_c 4.933275
_cell_angle_alpha 90.000000
_cell_angle_beta 90.000000
_cell_angle_gamma 90.000000
_cell_volume 4806.877094
_symmetry_space_group_name_H-M "C M M A"
_symmetry_group_IT_number 67
_symmetry_cell_setting 'orthorhombic'
loop_
_space_group_symop_operation_xyz
x,y,z
-x,1/2-y,z
x,-y,-z
-x,1/2+y,-z
-x,-y,-z
x,1/2+y,-z
-x,y,z
x,1/2-y,z
1/2+x,1/2+y,z
1/2-x,-y,z
1/2+x,1/2-y,-z
1/2-x,y,-z
1/2-x,1/2-y,-z
1/2+x,y,-z
1/2-x,1/2+y,z
1/2+x,-y,z
loop_
_atom_site_type_symbol
_atom_site_label
_atom_site_fract_x
_atom_site_fract_y
_atom_site_fract_z
Si Si1 0.840673 0.678005 0.171180
Si Si2 0.196379 0.139608 0.333666
Si Si3 0.289674 0.250000 0.240683
Si Si4 0.439819 0.864797 0.871874
Si Si5 0.440102 0.977000 0.239682
Si Si6 0.900691 0.596092 0.641488
O O1 0.835347 0.665582 0.477702
O O2 0.829109 0.718001 0.201610
O O3 0.902252 0.669035 0.096827
O O4 0.799478 0.658900 0.960001
O O5 0.250000 0.130472 0.500000
O O6 0.161509 0.105213 0.296408
O O7 0.250000 0.250000 0.500000
O O8 0.250000 0.250000 0.000000
O O9 0.500000 0.853060 0.798620
O O10 0.417090 0.892910 0.661101
O O11 0.440398 0.883804 0.159187
O O12 0.500000 0.964906 0.154009
O O13 0.404073 0.944339 0.309796
O O14 0.443328 0.000000 0.500000
O O15 0.414318 0.000000 0.000000
#
# Coordination Sequence:
#
# PCOD8278679 Si02
#       6
#    16  16   8  16  16  16
#     4  10  21  33  50  77 101 129 167 204 249 304
#     4  10  19  34  53  74 100 127 165 212 252 290
#     4  12  22  34  53  74 103 134 162 204 255 298
#     4  10  19  33  52  73 101 132 167 209 250 296
#     4  10  19  30  46  70 101 131 159 197 246 297
#     4  10  20  32  51  76  99 131 170 207 250 302
#
# _framework density 18.307106000000001
#
# number of rings (size 3 to 8) (size 9 to 14) (size 15 to 20)
#    0.000    1.818    0.000    6.000    0.000    1.455 
#    0.000    0.455    0.000    0.545    0.000   10.182 
#    0.000    0.000    0.000    0.000    0.000    0.000 
#
# Total GULP energy -545175.748824 kJ/mol
# GULP energy per Si atom -12390.357928 kJ/mol
# Density = 1.826544 g / cm^3
# Si number density = 18.307106 Si / 1000 Ang^3
#
#
#
# Elastic Constant Matrix: (Units=GPa)
#
#
# Indices 1 2 3 4 5 6 
#
# 1 99.3332 60.8699 9.4556 0.0000 0.0000 0.0000
# 2 60.8699 139.8658 25.6148 0.0000 0.0000 0.0000
# 3 9.4556 25.6148 84.5497 0.0000 0.0000 0.0000
# 4 0.0000 0.0000 0.0000 23.1244 0.0000 0.0000
# 5 0.0000 0.0000 0.0000 0.0000 23.0418 0.0000
# 6 0.0000 0.0000 0.0000 0.0000 0.0000 27.0089
#
#
#
# Elastic Compliance Matrix: (Units=1/GPa)
#
#
# Indices 1 2 3 4 5 6 
#
# 1 0.013735 -0.006031 0.000291 0.000000 0.000000 0.000000
# 2 -0.006031 0.010218 -0.002421 0.000000 0.000000 0.000000
# 3 0.000291 -0.002421 0.012528 0.000000 0.000000 0.000000
# 4 0.000000 0.000000 0.000000 0.043244 0.000000 0.000000
# 5 0.000000 0.000000 0.000000 0.000000 0.043399 0.000000
# 6 0.000000 0.000000 0.000000 0.000000 0.000000 0.037025
#
#
# Mechanical properties :
#
#
# Convention : Reuss Voigt Hill
#
# Bulk Modulus (GPa) = 49.60486 57.29216 53.44851
# Shear Modulus (GPa) = 27.29392 29.82226 28.55809
#
# Velocity S-wave (km/s) = 3.86540 4.04046 3.95390
# Velocity P-wave (km/s) = 6.86123 7.28904 7.07837
#
# Compressibility (1/GPa) = 0.02015932
#
# Stress axis : x y z
#
# Youngs Moduli (GPa) = 72.80665 97.86923 79.81936
#
# Poissons Ratio (x) = 0.59023 -0.02323
# Poissons Ratio (y) = 0.43908 0.19325
# Poissons Ratio (z) = -0.02119 0.23695
#
# Static dielectric constant tensor:
#      x y z
#    x 3.432560 0.000000 0.000000 
#    y 0.000000 3.084050 0.000000 
#    z 0.000000 0.000000 3.654610 
# 
# 
# High freq. dielectric constant tensor:
#      x y z
#    x 1.692090 0.000000 0.000000 
#    y 0.000000 1.687540 0.000000 
#    z 0.000000 0.000000 1.737400 
# 
# From -- ./inp_files/4294.got.cif
#   From: 2010.03.12/outbox.cif.g09.slc.cpg/sg67_3_cif.got.tgz:4294.got - 2010.04.10 22:41:39.
