data_PCOD8278163
_publ_section_title
;
Structure prediction by ZEFSAII (Michael W. Deem and Ramdas Pophale) SiO2 
 PCOD8278163
Probable space group: C M M A
;
_chemical_formula_sum "Si O2"
_cell_formula_units_Z 104
_cell_length_a 19.713125
_cell_length_b 18.773683
_cell_length_c 15.118029
_cell_angle_alpha 90.000000
_cell_angle_beta 90.000000
_cell_angle_gamma 90.000000
_cell_volume 5595.000507
_symmetry_space_group_name_H-M "C M M A"
_symmetry_group_IT_number 67
_symmetry_cell_setting 'orthorhombic'
loop_
_space_group_symop_operation_xyz
x,y,z
-x,1/2-y,z
x,-y,-z
-x,1/2+y,-z
-x,-y,-z
x,1/2+y,-z
-x,y,z
x,1/2-y,z
1/2+x,1/2+y,z
1/2-x,-y,z
1/2+x,1/2-y,-z
1/2-x,y,-z
1/2-x,1/2-y,-z
1/2+x,y,-z
1/2-x,1/2+y,z
1/2+x,-y,z
loop_
_atom_site_type_symbol
_atom_site_label
_atom_site_fract_x
_atom_site_fract_y
_atom_site_fract_z
Si Si1 0.855327 0.334367 0.976544
Si Si2 0.620364 0.171277 0.391836
Si Si3 0.500000 0.375945 0.284254
Si Si4 0.228451 0.166470 0.335765
Si Si5 0.369030 0.072263 0.547288
Si Si6 0.768191 0.834582 0.862581
Si Si7 0.000000 0.483066 0.395616
Si Si8 0.000000 0.834844 0.089529
O O1 0.852075 0.250000 0.975817
O O2 0.804913 0.362809 0.898823
O O3 0.932886 0.359467 0.963903
O O4 0.827725 0.361666 0.071667
O O5 0.620708 0.250000 0.432524
O O6 0.566793 0.166901 0.312737
O O7 0.693162 0.152322 0.352938
O O8 0.598122 0.118411 0.468966
O O9 0.500000 0.453891 0.325869
O O10 0.500000 0.379714 0.179141
O O11 0.208808 0.250000 0.349006
O O12 0.189722 0.116478 0.405016
O O13 0.214796 0.138495 0.236159
O O14 0.429393 0.059529 0.618861
O O15 0.341103 0.000000 0.500000
O O16 0.764986 0.750000 0.859488
O O17 0.000000 0.500000 0.500000
O O18 0.000000 0.750000 0.108037
#
# Coordination Sequence:
#
# PCOD8278163 Si02
#       8
#    16  16   8  16  16  16   8   8
#     4   8  14  26  46  71 105 142 165 202 264 326
#     4  11  21  33  53  80 110 140 175 225 281 318
#     4  12  20  35  53  78 108 145 178 224 269 314
#     4  10  21  34  52  83 113 138 177 228 270 318
#     4  11  21  39  56  71 106 145 185 225 263 318
#     4   8  14  28  47  69 104 142 169 200 262 329
#     4  10  20  41  55  69  98 142 191 227 254 316
#     4  10  18  26  45  81 112 131 169 221 268 314
#
# _framework density 18.588024000000001
#
# number of rings (size 3 to 8) (size 9 to 14) (size 15 to 20)
#    0.000    2.154    3.077    3.462    0.000    4.923 
#    0.000    1.923    0.000    1.846    0.000    2.154 
#    0.000    0.000    0.000    0.000    0.000    0.000 
#
# Total GULP energy -644445.383684 kJ/mol
# GULP energy per Si atom -12393.180455 kJ/mol
# Density = 1.854572 g / cm^3
# Si number density = 18.588024 Si / 1000 Ang^3
#
#
#
# Elastic Constant Matrix: (Units=GPa)
#
#
# Indices 1 2 3 4 5 6 
#
# 1 144.3165 39.9920 49.7082 0.0000 0.0000 0.0000
# 2 39.9920 62.0983 35.5644 0.0000 0.0000 0.0000
# 3 49.7082 35.5644 91.0362 0.0000 0.0000 0.0000
# 4 0.0000 0.0000 0.0000 16.7963 0.0000 0.0000
# 5 0.0000 0.0000 0.0000 0.0000 22.3612 0.0000
# 6 0.0000 0.0000 0.0000 0.0000 0.0000 16.9731
#
#
#
# Elastic Compliance Matrix: (Units=1/GPa)
#
#
# Indices 1 2 3 4 5 6 
#
# 1 0.009226 -0.003937 -0.003499 0.000000 0.000000 0.000000
# 2 -0.003937 0.022425 -0.006611 0.000000 0.000000 0.000000
# 3 -0.003499 -0.006611 0.015478 0.000000 0.000000 0.000000
# 4 0.000000 0.000000 0.000000 0.059537 0.000000 0.000000
# 5 0.000000 0.000000 0.000000 0.000000 0.044720 0.000000
# 6 0.000000 0.000000 0.000000 0.000000 0.000000 0.058917
#
#
# Mechanical properties :
#
#
# Convention : Reuss Voigt Hill
#
# Bulk Modulus (GPa) = 52.53760 60.88670 56.71215
# Shear Modulus (GPa) = 20.42967 22.70522 21.56744
#
# Velocity S-wave (km/s) = 3.31883 3.49878 3.40999
# Velocity P-wave (km/s) = 6.55833 7.01063 6.78825
#
# Compressibility (1/GPa) = 0.01903399
#
# Stress axis : x y z
#
# Youngs Moduli (GPa) = 108.39436 44.59255 64.60809
#
# Poissons Ratio (x) = 0.17557 0.22608
# Poissons Ratio (y) = 0.42678 0.42711
# Poissons Ratio (z) = 0.37930 0.29479
#
# Static dielectric constant tensor:
#      x y z
#    x 3.855240 0.000000 0.000000 
#    y 0.000000 3.113900 0.000000 
#    z 0.000000 0.000000 3.509080 
# 
# 
# High freq. dielectric constant tensor:
#      x y z
#    x 1.732990 0.000000 0.000000 
#    y 0.000000 1.680640 0.000000 
#    z 0.000000 0.000000 1.712280 
# 
# From -- ./inp_files/29516.got.cif
#   From: 2010.03.12/outbox.cif.g09.slc.cpg/sg67_15_cif.got.tgz:29516.got - 2010.04.10 22:41:39.
