data_PCOD8278793
_publ_section_title
;
Structure prediction by ZEFSAII (Michael W. Deem and Ramdas Pophale) SiO2 
 PCOD8278793
Probable space group: C M M A
;
_chemical_formula_sum "Si O2"
_cell_formula_units_Z 80
_cell_length_a 8.834314
_cell_length_b 27.636298
_cell_length_c 18.664618
_cell_angle_alpha 90.000000
_cell_angle_beta 90.000000
_cell_angle_gamma 90.000000
_cell_volume 4556.924197
_symmetry_space_group_name_H-M "C M M A"
_symmetry_group_IT_number 67
_symmetry_cell_setting 'orthorhombic'
loop_
_space_group_symop_operation_xyz
x,y,z
-x,1/2-y,z
x,-y,-z
-x,1/2+y,-z
-x,-y,-z
x,1/2+y,-z
-x,y,z
x,1/2-y,z
1/2+x,1/2+y,z
1/2-x,-y,z
1/2+x,1/2-y,-z
1/2-x,y,-z
1/2-x,1/2-y,-z
1/2+x,y,-z
1/2-x,1/2+y,z
1/2+x,-y,z
loop_
_atom_site_type_symbol
_atom_site_label
_atom_site_fract_x
_atom_site_fract_y
_atom_site_fract_z
Si Si1 0.823426 0.888927 0.711463
Si Si2 0.820233 0.448385 0.425797
Si Si3 0.178799 0.947830 0.850306
Si Si4 0.178468 0.195853 0.786803
Si Si5 0.320746 0.638508 0.926684
O O1 0.773654 0.910199 0.635044
O O2 0.775718 0.927191 0.772417
O O3 0.742028 0.837653 0.723276
O O4 0.000000 0.878797 0.714576
O O5 0.750000 0.500000 0.405275
O O6 0.750000 0.429140 0.500000
O O7 0.000000 0.454059 0.432717
O O8 0.250026 0.914021 0.911346
O O9 0.000000 0.950616 0.860986
O O10 0.250000 0.000000 0.859095
O O11 0.244148 0.250000 0.778376
O O12 0.228587 0.175365 0.864055
O O13 0.000000 0.196047 0.780123
O O14 0.500000 0.634110 0.933405
O O15 0.250000 0.658940 0.000000
#
# Coordination Sequence:
#
# PCOD8278793 Si02
#       5
#    16  16  16  16  16
#     4   9  19  33  50  73 100 129 162 201 241 285
#     4  10  19  31  48  74 106 137 168 198 234 280
#     4  10  19  32  49  70  96 127 163 199 239 285
#     4   9  19  35  54  75  97 123 158 200 246 293
#     4  10  20  34  50  70  97 126 158 197 241 289
#
# _framework density 17.555700999999999
#
# number of rings (size 3 to 8) (size 9 to 14) (size 15 to 20)
#    0.000    2.400    0.000    3.000    0.000    4.400 
#    0.000    2.000    0.000    0.600    0.000    0.000 
#    0.000    0.000    0.000    0.000    0.000    0.000 
#
# Total GULP energy -496077.618193 kJ/mol
# GULP energy per Si atom -12401.940455 kJ/mol
# Density = 1.751574 g / cm^3
# Si number density = 17.555701 Si / 1000 Ang^3
#
#
#
# Elastic Constant Matrix: (Units=GPa)
#
#
# Indices 1 2 3 4 5 6 
#
# 1 62.8951 38.9816 39.5322 0.0000 0.0000 0.0000
# 2 38.9816 136.1186 63.3616 0.0000 0.0000 0.0000
# 3 39.5322 63.3616 119.3660 0.0000 0.0000 0.0000
# 4 0.0000 0.0000 0.0000 18.6523 0.0000 0.0000
# 5 0.0000 0.0000 0.0000 0.0000 29.8319 0.0000
# 6 0.0000 0.0000 0.0000 0.0000 0.0000 27.4220
#
#
#
# Elastic Compliance Matrix: (Units=1/GPa)
#
#
# Indices 1 2 3 4 5 6 
#
# 1 0.021440 -0.003765 -0.005102 0.000000 0.000000 0.000000
# 2 -0.003765 0.010419 -0.004284 0.000000 0.000000 0.000000
# 3 -0.005102 -0.004284 0.012341 0.000000 0.000000 0.000000
# 4 0.000000 0.000000 0.000000 0.053613 0.000000 0.000000
# 5 0.000000 0.000000 0.000000 0.000000 0.033521 0.000000
# 6 0.000000 0.000000 0.000000 0.000000 0.000000 0.036467
#
#
# Mechanical properties :
#
#
# Convention : Reuss Voigt Hill
#
# Bulk Modulus (GPa) = 55.87055 66.90340 61.38697
# Shear Modulus (GPa) = 24.99156 26.94821 25.96988
#
# Velocity S-wave (km/s) = 3.77710 3.92217 3.85032
# Velocity P-wave (km/s) = 7.13553 7.66180 7.40334
#
# Compressibility (1/GPa) = 0.01789852
#
# Stress axis : x y z
#
# Youngs Moduli (GPa) = 46.64220 95.98151 81.03023
#
# Poissons Ratio (x) = 0.36137 0.41342
# Poissons Ratio (y) = 0.17561 0.34709
# Poissons Ratio (z) = 0.23797 0.41114
#
# Static dielectric constant tensor:
#      x y z
#    x 3.271830 0.000000 0.000000 
#    y 0.000000 3.286610 0.000000 
#    z 0.000000 0.000000 3.348440 
# 
# 
# High freq. dielectric constant tensor:
#      x y z
#    x 1.686300 0.000000 0.000000 
#    y 0.000000 1.668690 0.000000 
#    z 0.000000 0.000000 1.673390 
# 
# From -- ./inp_files/32127.got.cif
#   From: 2010.03.12/outbox.cif.g09.slc.cpg/sg67_17_cif.got.tgz:32127.got - 2010.04.10 22:41:39.
