data_PCOD8278391
_publ_section_title
;
Structure prediction by ZEFSAII (Michael W. Deem and Ramdas Pophale) SiO2 
 PCOD8278391
Probable space group: C M M A
;
_chemical_formula_sum "Si O2"
_cell_formula_units_Z 96
_cell_length_a 17.190758
_cell_length_b 17.998631
_cell_length_c 17.190837
_cell_angle_alpha 90.000000
_cell_angle_beta 90.000000
_cell_angle_gamma 90.000000
_cell_volume 5319.018765
_symmetry_space_group_name_H-M "C M M A"
_symmetry_group_IT_number 67
_symmetry_cell_setting 'orthorhombic'
loop_
_space_group_symop_operation_xyz
x,y,z
-x,1/2-y,z
x,-y,-z
-x,1/2+y,-z
-x,-y,-z
x,1/2+y,-z
-x,y,z
x,1/2-y,z
1/2+x,1/2+y,z
1/2-x,-y,z
1/2+x,1/2-y,-z
1/2-x,y,-z
1/2-x,1/2-y,-z
1/2+x,y,-z
1/2-x,1/2+y,z
1/2+x,-y,z
loop_
_atom_site_type_symbol
_atom_site_label
_atom_site_fract_x
_atom_site_fract_y
_atom_site_fract_z
Si Si1 0.180814 0.834549 0.645591
Si Si2 0.767678 0.587295 0.083401
Si Si3 0.136123 0.834368 0.336053
Si Si4 0.820709 0.943230 0.777908
Si Si5 0.086311 0.162837 0.500398
Si Si6 0.910774 0.921251 0.181863
O O1 0.151007 0.750000 0.660060
O O2 0.272717 0.838136 0.649266
O O3 0.148081 0.890879 0.709727
O O4 0.149125 0.864927 0.562786
O O5 0.750000 0.500000 0.075857
O O6 0.709389 0.612222 0.152845
O O7 0.856146 0.605870 0.109974
O O8 0.750000 0.626282 0.000000
O O9 0.107984 0.750000 0.323217
O O10 0.098842 0.871586 0.413516
O O11 0.109639 0.878875 0.260913
O O12 0.750000 0.000000 0.753686
O O13 0.894741 0.991449 0.804721
O O14 0.098278 0.250000 0.511449
O O15 0.000000 0.142477 0.470511
O O16 0.000000 0.908185 0.157973
#
# Coordination Sequence:
#
# PCOD8278391 Si02
#       6
#    16  16  16  16  16  16
#     4  10  18  31  53  73  95 133 176 204 241 300
#     4   8  15  31  51  70  98 130 156 199 241 287
#     4  10  18  31  51  75 100 131 170 209 245 294
#     4   9  17  33  49  70 101 133 158 202 245 293
#     4   9  18  30  45  69 100 131 168 214 250 279
#     4  10  19  31  52  78 102 130 161 201 255 301
#
# _framework density 18.048442000000001
#
# number of rings (size 3 to 8) (size 9 to 14) (size 15 to 20)
#    0.000    3.000    3.333    1.000    0.000    3.667 
#    0.000    7.500    0.000    4.000    0.000    0.000 
#    0.000    0.000    0.000    0.000    0.000    0.000 
#
# Total GULP energy -594645.361103 kJ/mol
# GULP energy per Si atom -12388.445023 kJ/mol
# Density = 1.800736 g / cm^3
# Si number density = 18.048442 Si / 1000 Ang^3
#
#
#
# Elastic Constant Matrix: (Units=GPa)
#
#
# Indices 1 2 3 4 5 6 
#
# 1 99.2350 16.0821 59.7568 0.0000 0.0000 0.0000
# 2 16.0821 30.0634 33.0119 0.0000 0.0000 0.0000
# 3 59.7568 33.0119 152.0247 0.0000 0.0000 0.0000
# 4 0.0000 0.0000 0.0000********** 0.0000 0.0000
# 5 0.0000 0.0000 0.0000 0.0000 16.8004 0.0000
# 6 0.0000 0.0000 0.0000 0.0000 0.0000 14.0406
#
#
#
# Elastic Compliance Matrix: (Units=1/GPa)
#
#
# Indices 1 2 3 4 5 6 
#
# 1 0.013276 -0.001801 -0.004827 0.000000 0.000000 0.000000
# 2 -0.001801 0.043922 -0.008830 0.000000 0.000000 0.000000
# 3 -0.004827 -0.008830 0.010393 0.000000 0.000000 0.000000
# 4 0.000000 0.000000 0.000000 -0.000090 0.000000 0.000000
# 5 0.000000 0.000000 0.000000 0.000000 0.059522 0.000000
# 6 0.000000 0.000000 0.000000 0.000000 0.000000 0.071222
#
#
# Mechanical properties :
#
#
# Convention : Reuss Voigt Hill
#
# Bulk Modulus (GPa) = 27.26676 55.44718 41.35697
# Shear Modulus (GPa) = 20.71371 -2197.60889 -1088.44759
#
# Velocity S-wave (km/s) = 3.39141 -34.93222 -24.58413
# Velocity P-wave (km/s) = 5.52050 39.95279 27.97990
#
# Compressibility (1/GPa) = 0.03667470
#
# Stress axis : x y z
#
# Youngs Moduli (GPa) = 75.32481 22.76753 96.22130
#
# Poissons Ratio (x) = 0.04101 0.46449
# Poissons Ratio (y) = 0.13566 0.84961
# Poissons Ratio (z) = 0.36361 0.20103
#
# Static dielectric constant tensor:
#      x y z
#    x 3.307770 0.000000 0.000000 
#    y 0.000000 3.117470 0.000000 
#    z 0.000000 0.000000 3.894750 
# 
# 
# High freq. dielectric constant tensor:
#      x y z
#    x 1.689320 0.000000 0.000000 
#    y 0.000000 1.650790 0.000000 
#    z 0.000000 0.000000 1.704660 
# 
# From -- ./inp_files/34240.got.cif
#   From: 2010.03.12/outbox.cif.g09.slc.cpg/sg67_18_cif.got.tgz:34240.got - 2010.04.10 22:41:39.
