data_PCOD8278364
_publ_section_title
;
Structure prediction by ZEFSAII (Michael W. Deem and Ramdas Pophale) SiO2 
 PCOD8278364
Probable space group: C M M A
;
_chemical_formula_sum "Si O2"
_cell_formula_units_Z 96
_cell_length_a 19.364409
_cell_length_b 27.243830
_cell_length_c 9.549604
_cell_angle_alpha 90.000000
_cell_angle_beta 90.000000
_cell_angle_gamma 90.000000
_cell_volume 5037.995454
_symmetry_space_group_name_H-M "C M M A"
_symmetry_group_IT_number 67
_symmetry_cell_setting 'orthorhombic'
loop_
_space_group_symop_operation_xyz
x,y,z
-x,1/2-y,z
x,-y,-z
-x,1/2+y,-z
-x,-y,-z
x,1/2+y,-z
-x,y,z
x,1/2-y,z
1/2+x,1/2+y,z
1/2-x,-y,z
1/2+x,1/2-y,-z
1/2-x,y,-z
1/2-x,1/2-y,-z
1/2+x,y,-z
1/2-x,1/2+y,z
1/2+x,-y,z
loop_
_atom_site_type_symbol
_atom_site_label
_atom_site_fract_x
_atom_site_fract_y
_atom_site_fract_z
Si Si1 0.777140 0.552262 0.160009
Si Si2 0.075356 0.847093 0.965206
Si Si3 0.420457 0.192314 0.273786
Si Si4 0.926158 0.950556 0.084827
Si Si5 0.206976 0.305685 0.128595
Si Si6 0.783869 0.644305 0.350416
O O1 0.750000 0.500000 0.217350
O O2 0.859823 0.550452 0.182430
O O3 0.757712 0.597437 0.259290
O O4 0.750000 0.560298 0.000000
O O5 0.091729 0.820163 0.111656
O O6 0.078530 0.905583 0.977345
O O7 0.000000 0.830525 0.910358
O O8 0.133024 0.832017 0.853755
O O9 0.500000 0.179328 0.316512
O O10 0.405860 0.250000 0.300386
O O11 0.366141 0.157381 0.359218
O O12 0.000000 0.946680 0.167913
O O13 0.923969 0.000000 0.000000
O O14 0.191641 0.250000 0.091774
O O15 0.249007 0.309437 0.272911
O O16 0.250000 0.330001 0.000000
O O17 0.750000 0.636956 0.500000
#
# Coordination Sequence:
#
# PCOD8278364 Si02
#       6
#    16  16  16  16  16  16
#     4  11  21  37  62  88 115 151 194 243 295 345
#     4  10  19  33  57  88 118 147 188 247 307 351
#     4  10  20  36  60  87 114 151 202 249 292 351
#     4  10  18  30  54  89 117 142 183 239 295 350
#     4  11  21  35  57  83 114 149 193 248 296 342
#     4  12  25  39  58  85 123 163 197 237 292 357
#
# _framework density 19.055198000000001
#
# number of rings (size 3 to 8) (size 9 to 14) (size 15 to 20)
#    0.000    1.333    5.000    2.500    0.000    2.667 
#    0.000    0.833    0.000    2.000    0.000    2.333 
#    0.000    0.000    0.000    0.000    0.000    0.000 
#
# Total GULP energy -594718.489344 kJ/mol
# GULP energy per Si atom -12389.968528 kJ/mol
# Density = 1.901183 g / cm^3
# Si number density = 19.055198 Si / 1000 Ang^3
#
#
#
# Elastic Constant Matrix: (Units=GPa)
#
#
# Indices 1 2 3 4 5 6 
#
# 1 153.3844 33.3711 40.0055 0.0000 0.0000 0.0000
# 2 33.3711 98.7056 28.6939 0.0000 0.0000 0.0000
# 3 40.0055 28.6939 72.1449 0.0000 0.0000 0.0000
# 4 0.0000 0.0000 0.0000 9.7846 0.0000 0.0000
# 5 0.0000 0.0000 0.0000 0.0000 26.8242 0.0000
# 6 0.0000 0.0000 0.0000 0.0000 0.0000 32.9649
#
#
#
# Elastic Compliance Matrix: (Units=1/GPa)
#
#
# Indices 1 2 3 4 5 6 
#
# 1 0.007830 -0.001566 -0.003719 0.000000 0.000000 0.000000
# 2 -0.001566 0.011769 -0.003812 0.000000 0.000000 0.000000
# 3 -0.003719 -0.003812 0.017440 0.000000 0.000000 0.000000
# 4 0.000000 0.000000 0.000000 0.102202 0.000000 0.000000
# 5 0.000000 0.000000 0.000000 0.000000 0.037280 0.000000
# 6 0.000000 0.000000 0.000000 0.000000 0.000000 0.030335
#
#
# Mechanical properties :
#
#
# Convention : Reuss Voigt Hill
#
# Bulk Modulus (GPa) = 53.06863 58.70845 55.88854
# Shear Modulus (GPa) = 21.61395 28.72568 25.16981
#
# Velocity S-wave (km/s) = 3.37156 3.88686 3.63835
# Velocity P-wave (km/s) = 6.56254 7.14284 6.85883
#
# Compressibility (1/GPa) = 0.01884352
#
# Stress axis : x y z
#
# Youngs Moduli (GPa) = 127.70844 84.96974 57.34084
#
# Poissons Ratio (x) = 0.13308 0.21326
# Poissons Ratio (y) = 0.20001 0.21860
# Poissons Ratio (z) = 0.47497 0.32393
#
# Static dielectric constant tensor:
#      x y z
#    x 4.217790 0.000000 0.000000 
#    y 0.000000 4.033370 0.000000 
#    z 0.000000 0.000000 2.853930 
# 
# 
# High freq. dielectric constant tensor:
#      x y z
#    x 1.770110 0.000000 0.000000 
#    y 0.000000 1.761830 0.000000 
#    z 0.000000 0.000000 1.657400 
# 
# From -- ./inp_files/11483.got.cif
#   From: 2010.03.12/outbox.cif.g09.slc.cpg/sg67_6_cif.got.tgz:11483.got - 2010.04.10 22:41:39.
