data_PCOD8278485
_publ_section_title
;
Structure prediction by ZEFSAII (Michael W. Deem and Ramdas Pophale) SiO2 
 PCOD8278485
Probable space group: C M M A
;
_chemical_formula_sum "Si O2"
_cell_formula_units_Z 88
_cell_length_a 20.577558
_cell_length_b 8.627684
_cell_length_c 24.275200
_cell_angle_alpha 90.000000
_cell_angle_beta 90.000000
_cell_angle_gamma 90.000000
_cell_volume 4309.738121
_symmetry_space_group_name_H-M "C M M A"
_symmetry_group_IT_number 67
_symmetry_cell_setting 'orthorhombic'
loop_
_space_group_symop_operation_xyz
x,y,z
-x,1/2-y,z
x,-y,-z
-x,1/2+y,-z
-x,-y,-z
x,1/2+y,-z
-x,y,z
x,1/2-y,z
1/2+x,1/2+y,z
1/2-x,-y,z
1/2+x,1/2-y,-z
1/2-x,y,-z
1/2-x,1/2-y,-z
1/2+x,y,-z
1/2-x,1/2+y,z
1/2+x,-y,z
loop_
_atom_site_type_symbol
_atom_site_label
_atom_site_fract_x
_atom_site_fract_y
_atom_site_fract_z
Si Si1 0.925743 0.429820 0.636259
Si Si2 0.500000 0.566033 0.060940
Si Si3 0.685232 0.067073 0.836019
Si Si4 0.318107 0.432016 0.559527
Si Si5 0.868329 0.567463 0.060259
Si Si6 0.073534 0.571251 0.753111
O O1 0.911739 0.250000 0.625683
O O2 0.877104 0.530334 0.599958
O O3 0.913405 0.466665 0.700021
O O4 0.000000 0.472906 0.620275
O O5 0.500000 0.750000 0.063009
O O6 0.565582 0.501275 0.087814
O O7 0.500000 0.500000 0.000000
O O8 0.688781 0.250000 0.843541
O O9 0.623139 0.016889 0.800120
O O10 0.750000 0.000000 0.806496
O O11 0.685335 0.984652 0.895968
O O12 0.334957 0.500000 0.500000
O O13 0.310050 0.250000 0.554278
O O14 0.250000 0.500000 0.582318
O O15 0.873110 0.750000 0.054175
O O16 0.852496 0.500000 0.000000
O O17 0.085525 0.750000 0.736869
O O18 0.000000 0.547727 0.775371
#
# Coordination Sequence:
#
# PCOD8278485 Si02
#       6
#    16   8  16  16  16  16
#     4  10  21  38  61  90 123 159 202 251 300 354
#     4  10  18  32  54  82 114 146 184 228 277 332
#     4  11  24  41  61  87 119 155 195 243 297 357
#     4  11  22  38  60  87 123 164 207 253 301 358
#     4  11  22  38  59  86 117 152 193 239 291 352
#     4   9  20  40  64  88 115 154 200 247 299 353
#
# _framework density 20.418873999999999
#
# number of rings (size 3 to 8) (size 9 to 14) (size 15 to 20)
#    0.000    1.636    0.000    6.818    1.273    4.000 
#    0.000    3.636    0.000    0.000    0.000    0.000 
#    0.000    0.000    0.000    0.000    0.000    0.000 
#
# Total GULP energy -545631.019644 kJ/mol
# GULP energy per Si atom -12400.704992 kJ/mol
# Density = 2.037240 g / cm^3
# Si number density = 20.418874 Si / 1000 Ang^3
#
#
#
# Elastic Constant Matrix: (Units=GPa)
#
#
# Indices 1 2 3 4 5 6 
#
# 1 133.4955 53.8319 67.4713 0.0000 0.0000 0.0000
# 2 53.8319 148.9702 43.4657 0.0000 0.0000 0.0000
# 3 67.4713 43.4657 87.0389 0.0000 0.0000 0.0000
# 4 0.0000 0.0000 0.0000 32.8107 0.0000 0.0000
# 5 0.0000 0.0000 0.0000 0.0000 18.4248 0.0000
# 6 0.0000 0.0000 0.0000 0.0000 0.0000 36.8713
#
#
#
# Elastic Compliance Matrix: (Units=1/GPa)
#
#
# Indices 1 2 3 4 5 6 
#
# 1 0.012819 -0.002029 -0.008924 0.000000 0.000000 0.000000
# 2 -0.002029 0.008179 -0.002512 0.000000 0.000000 0.000000
# 3 -0.008924 -0.002512 0.019662 0.000000 0.000000 0.000000
# 4 0.000000 0.000000 0.000000 0.030478 0.000000 0.000000
# 5 0.000000 0.000000 0.000000 0.000000 0.054275 0.000000
# 6 0.000000 0.000000 0.000000 0.000000 0.000000 0.027121
#
#
# Mechanical properties :
#
#
# Convention : Reuss Voigt Hill
#
# Bulk Modulus (GPa) = 72.83245 77.67138 75.25192
# Shear Modulus (GPa) = 27.16803 31.27040 29.21922
#
# Velocity S-wave (km/s) = 3.65161 3.91761 3.78695
# Velocity P-wave (km/s) = 7.31612 7.65410 7.48702
#
# Compressibility (1/GPa) = 0.01373014
#
# Stress axis : x y z
#
# Youngs Moduli (GPa) = 78.00619 122.26942 50.86063
#
# Poissons Ratio (x) = 0.24803 0.45390
# Poissons Ratio (y) = 0.15824 0.12775
# Poissons Ratio (z) = 0.69616 0.30712
#
# Static dielectric constant tensor:
#      x y z
#    x 3.630190 0.000000 0.000000 
#    y 0.000000 3.720340 0.000000 
#    z 0.000000 0.000000 3.516510 
# 
# 
# High freq. dielectric constant tensor:
#      x y z
#    x 1.811420 0.000000 0.000000 
#    y 0.000000 1.808860 0.000000 
#    z 0.000000 0.000000 1.783730 
# 
# From -- ./inp_files/42364.got.cif
#   From: 2010.03.12/outbox.cif.g09.slc.cpg/sg67_22_cif.got.tgz:42364.got - 2010.04.10 22:41:39.
