data_PCOD8278242
_publ_section_title
;
Structure prediction by ZEFSAII (Michael W. Deem and Ramdas Pophale) SiO2 
 PCOD8278242
Probable space group: C M M A
;
_chemical_formula_sum "Si O2"
_cell_formula_units_Z 112
_cell_length_a 30.955358
_cell_length_b 19.343990
_cell_length_c 10.673061
_cell_angle_alpha 90.000000
_cell_angle_beta 90.000000
_cell_angle_gamma 90.000000
_cell_volume 6391.030374
_symmetry_space_group_name_H-M "C M M A"
_symmetry_group_IT_number 67
_symmetry_cell_setting 'orthorhombic'
loop_
_space_group_symop_operation_xyz
x,y,z
-x,1/2-y,z
x,-y,-z
-x,1/2+y,-z
-x,-y,-z
x,1/2+y,-z
-x,y,z
x,1/2-y,z
1/2+x,1/2+y,z
1/2-x,-y,z
1/2+x,1/2-y,-z
1/2-x,y,-z
1/2-x,1/2-y,-z
1/2+x,y,-z
1/2-x,1/2+y,z
1/2+x,-y,z
loop_
_atom_site_type_symbol
_atom_site_label
_atom_site_fract_x
_atom_site_fract_y
_atom_site_fract_z
Si Si1 0.880560 0.327718 0.114185
Si Si2 0.388129 0.672226 0.404295
Si Si3 0.050143 0.556352 0.893081
Si Si4 0.320344 0.425757 0.485040
Si Si5 0.214909 0.168801 0.098284
Si Si6 0.050188 0.051397 0.392705
Si Si7 0.249897 0.425974 0.303298
O O1 0.892699 0.250000 0.068632
O O2 0.872177 0.327628 0.262112
O O3 0.919334 0.378430 0.074490
O O4 0.834127 0.352170 0.057281
O O5 0.397219 0.750000 0.452098
O O6 0.351562 0.638146 0.489681
O O7 0.431610 0.627900 0.416073
O O8 0.060525 0.527468 0.751931
O O9 0.000000 0.580082 0.899584
O O10 0.059877 0.500000 0.000000
O O11 0.345555 0.500000 0.500000
O O12 0.299073 0.410450 0.348854
O O13 0.281287 0.433986 0.579849
O O14 0.216825 0.250000 0.117984
O O15 0.229995 0.136036 0.226641
O O16 0.250000 0.141862 0.000000
O O17 0.000000 0.058719 0.413505
O O18 0.069004 0.000000 0.500000
O O19 0.250000 0.500000 0.230005
#
# Coordination Sequence:
#
# PCOD8278242 Si02
#       7
#    16  16  16  16  16  16  16
#     4   9  18  33  51  74 104 135 171 210 253 303
#     4  10  18  29  49  75 101 130 168 209 247 297
#     4   9  18  34  56  81 105 130 170 218 258 306
#     4   9  17  30  48  69  97 125 157 208 257 288
#     4  10  20  35  50  66  98 138 170 206 253 305
#     4   9  18  33  53  76 104 136 165 201 258 314
#     4   9  18  32  48  69  93 123 165 211 248 287
#
# _framework density 17.524560000000001
#
# number of rings (size 3 to 8) (size 9 to 14) (size 15 to 20)
#    0.000    2.714    1.429    1.286    0.000    1.429 
#    2.571    4.286    0.000    2.571    0.000    4.000 
#    0.000    0.000    0.000    0.000    0.000    0.000 
#
# Total GULP energy -693804.390715 kJ/mol
# GULP energy per Si atom -12389.364120 kJ/mol
# Density = 1.748467 g / cm^3
# Si number density = 17.524560 Si / 1000 Ang^3
#
#
#
# Elastic Constant Matrix: (Units=GPa)
#
#
# Indices 1 2 3 4 5 6 
#
# 1 92.8421 57.4168 40.2422 0.0000 0.0000 0.0000
# 2 57.4168 107.4980 49.3611 0.0000 0.0000 0.0000
# 3 40.2422 49.3611 60.2753 0.0000 0.0000 0.0000
# 4 0.0000 0.0000 0.0000 15.9998 0.0000 0.0000
# 5 0.0000 0.0000 0.0000 0.0000 19.0889 0.0000
# 6 0.0000 0.0000 0.0000 0.0000 0.0000 29.8007
#
#
#
# Elastic Compliance Matrix: (Units=1/GPa)
#
#
# Indices 1 2 3 4 5 6 
#
# 1 0.017527 -0.006392 -0.006467 0.000000 0.000000 0.000000
# 2 -0.006392 0.017240 -0.009851 0.000000 0.000000 0.000000
# 3 -0.006467 -0.009851 0.028975 0.000000 0.000000 0.000000
# 4 0.000000 0.000000 0.000000 0.062501 0.000000 0.000000
# 5 0.000000 0.000000 0.000000 0.000000 0.052387 0.000000
# 6 0.000000 0.000000 0.000000 0.000000 0.000000 0.033556
#
#
# Mechanical properties :
#
#
# Convention : Reuss Voigt Hill
#
# Bulk Modulus (GPa) = 54.57753 61.62840 58.10296
# Shear Modulus (GPa) = 18.95999 20.55090 19.75544
#
# Velocity S-wave (km/s) = 3.29281 3.42817 3.36117
# Velocity P-wave (km/s) = 6.75780 7.13534 6.94913
#
# Compressibility (1/GPa) = 0.01832256
#
# Stress axis : x y z
#
# Youngs Moduli (GPa) = 57.05404 58.00522 34.51208
#
# Poissons Ratio (x) = 0.37077 0.22320
# Poissons Ratio (y) = 0.36469 0.33997
# Poissons Ratio (z) = 0.36899 0.57139
#
# Static dielectric constant tensor:
#      x y z
#    x 3.301010 0.000000 0.000000 
#    y 0.000000 3.322050 0.000000 
#    z 0.000000 0.000000 2.761740 
# 
# 
# High freq. dielectric constant tensor:
#      x y z
#    x 1.685840 0.000000 0.000000 
#    y 0.000000 1.672820 0.000000 
#    z 0.000000 0.000000 1.648970 
# 
# From -- ./inp_files/23778.got.cif
#   From: 2010.03.12/outbox.cif.g09.slc.cpg/sg67_12_cif.got.tgz:23778.got - 2010.04.10 22:41:39.
