data_PCOD8278211
_publ_section_title
;
Structure prediction by ZEFSAII (Michael W. Deem and Ramdas Pophale) SiO2 
 PCOD8278211
Probable space group: C M M A
;
_chemical_formula_sum "Si O2"
_cell_formula_units_Z 80
_cell_length_a 20.331652
_cell_length_b 13.999608
_cell_length_c 13.714323
_cell_angle_alpha 90.000000
_cell_angle_beta 90.000000
_cell_angle_gamma 90.000000
_cell_volume 3903.578494
_symmetry_space_group_name_H-M "C M M A"
_symmetry_group_IT_number 67
_symmetry_cell_setting 'orthorhombic'
loop_
_space_group_symop_operation_xyz
x,y,z
-x,1/2-y,z
x,-y,-z
-x,1/2+y,-z
-x,-y,-z
x,1/2+y,-z
-x,y,z
x,1/2-y,z
1/2+x,1/2+y,z
1/2-x,-y,z
1/2+x,1/2-y,-z
1/2-x,y,-z
1/2-x,1/2-y,-z
1/2+x,y,-z
1/2-x,1/2+y,z
1/2+x,-y,z
loop_
_atom_site_type_symbol
_atom_site_label
_atom_site_fract_x
_atom_site_fract_y
_atom_site_fract_z
Si Si1 0.428134 0.861157 0.218092
Si Si2 0.898963 0.982147 0.609404
Si Si3 0.671572 0.999809 0.887467
Si Si4 0.648294 0.142549 0.269380
Si Si5 0.222873 0.853832 0.607440
O O1 0.500000 0.874369 0.166059
O O2 0.409959 0.750000 0.224971
O O3 0.438877 0.904888 0.327177
O O4 0.366922 0.911799 0.163291
O O5 0.824324 0.944347 0.613495
O O6 0.926139 0.000000 0.500000
O O7 0.901557 0.085441 0.660645
O O8 0.750000 0.000000 0.873272
O O9 0.646192 0.902041 0.838849
O O10 0.651773 0.000000 0.000000
O O11 0.622324 0.250000 0.262797
O O12 0.721433 0.135093 0.311588
O O13 0.187786 0.750000 0.624561
O O14 0.250000 0.853919 0.500000
#
# Coordination Sequence:
#
# PCOD8278211 Si02
#       5
#    16  16  16  16  16
#     4  10  23  43  64  88 121 162 206 251 304 367
#     4  11  20  31  53  78 115 157 203 248 291 348
#     4  10  22  40  64  92 120 154 199 257 315 363
#     4  10  20  32  49  79 120 159 193 239 297 360
#     4  10  18  28  47  79 117 155 196 240 294 355
#
# _framework density 20.494015999999998
#
# number of rings (size 3 to 8) (size 9 to 14) (size 15 to 20)
#    0.000    1.800    2.000    3.600    0.000    4.800 
#    0.000    2.000    0.000    9.600    0.000    0.000 
#    0.000    0.000    0.000    0.000    0.000    0.000 
#
# Total GULP energy -495545.992931 kJ/mol
# GULP energy per Si atom -12388.649823 kJ/mol
# Density = 2.044737 g / cm^3
# Si number density = 20.494016 Si / 1000 Ang^3
#
#
#
# Elastic Constant Matrix: (Units=GPa)
#
#
# Indices 1 2 3 4 5 6 
#
# 1 84.7624 36.4095 28.2419 0.0000 0.0000 0.0000
# 2 36.4095 177.4843 64.8235 0.0000 0.0000 0.0000
# 3 28.2419 64.8235 150.4504 0.0000 0.0000 0.0000
# 4 0.0000 0.0000 0.0000 22.0486 0.0000 0.0000
# 5 0.0000 0.0000 0.0000 0.0000 4.9155 0.0000
# 6 0.0000 0.0000 0.0000 0.0000 0.0000 16.9755
#
#
#
# Elastic Compliance Matrix: (Units=1/GPa)
#
#
# Indices 1 2 3 4 5 6 
#
# 1 0.013239 -0.002146 -0.001561 0.000000 0.000000 0.000000
# 2 -0.002146 0.007034 -0.002628 0.000000 0.000000 0.000000
# 3 -0.001561 -0.002628 0.008072 0.000000 0.000000 0.000000
# 4 0.000000 0.000000 0.000000 0.045354 0.000000 0.000000
# 5 0.000000 0.000000 0.000000 0.000000 0.203437 0.000000
# 6 0.000000 0.000000 0.000000 0.000000 0.000000 0.058908
#
#
# Mechanical properties :
#
#
# Convention : Reuss Voigt Hill
#
# Bulk Modulus (GPa) = 63.78948 74.62743 69.20846
# Shear Modulus (GPa) = 14.12668 27.66941 20.89804
#
# Velocity S-wave (km/s) = 2.62831 3.67839 3.19676
# Velocity P-wave (km/s) = 6.35643 7.38471 6.88978
#
# Compressibility (1/GPa) = 0.01567657
#
# Stress axis : x y z
#
# Youngs Moduli (GPa) = 75.53178 142.15901 123.88529
#
# Poissons Ratio (x) = 0.30507 0.19334
# Poissons Ratio (y) = 0.16209 0.32557
# Poissons Ratio (z) = 0.11788 0.37360
#
# Static dielectric constant tensor:
#      x y z
#    x 3.311270 0.000000 0.000000 
#    y 0.000000 4.089740 0.000000 
#    z 0.000000 0.000000 3.775070 
# 
# 
# High freq. dielectric constant tensor:
#      x y z
#    x 1.775960 0.000000 0.000000 
#    y 0.000000 1.814660 0.000000 
#    z 0.000000 0.000000 1.794140 
# 
# From -- ./inp_files/29077.got.cif
#   From: 2010.03.12/outbox.cif.g09.slc.cpg/sg67_15_cif.got.tgz:29077.got - 2010.04.10 22:41:39.
