data_PCOD8278167
_publ_section_title
;
Structure prediction by ZEFSAII (Michael W. Deem and Ramdas Pophale) SiO2 
 PCOD8278167
Probable space group: C M M A
;
_chemical_formula_sum "Si O2"
_cell_formula_units_Z 128
_cell_length_a 25.452940
_cell_length_b 17.744979
_cell_length_c 17.400945
_cell_angle_alpha 90.000000
_cell_angle_beta 90.000000
_cell_angle_gamma 90.000000
_cell_volume 7859.343633
_symmetry_space_group_name_H-M "C M M A"
_symmetry_group_IT_number 67
_symmetry_cell_setting 'orthorhombic'
loop_
_space_group_symop_operation_xyz
x,y,z
-x,1/2-y,z
x,-y,-z
-x,1/2+y,-z
-x,-y,-z
x,1/2+y,-z
-x,y,z
x,1/2-y,z
1/2+x,1/2+y,z
1/2-x,-y,z
1/2+x,1/2-y,-z
1/2-x,y,-z
1/2-x,1/2-y,-z
1/2+x,y,-z
1/2-x,1/2+y,z
1/2+x,-y,z
loop_
_atom_site_type_symbol
_atom_site_label
_atom_site_fract_x
_atom_site_fract_y
_atom_site_fract_z
Si Si1 0.632219 0.335114 0.106210
Si Si2 0.190731 0.982922 0.088993
Si Si3 0.561131 0.834383 0.290744
Si Si4 0.061585 0.403305 0.443269
Si Si5 0.595740 0.942533 0.168024
Si Si6 0.440831 0.164918 0.963642
Si Si7 0.062277 0.065331 0.605647
Si Si8 0.939724 0.099272 0.773191
O O1 0.654748 0.250000 0.101419
O O2 0.679831 0.394805 0.107364
O O3 0.595997 0.341058 0.181679
O O4 0.597267 0.356276 0.032840
O O5 0.250000 0.000000 0.113304
O O6 0.154197 0.036827 0.140465
O O7 0.180497 0.000000 0.000000
O O8 0.500000 0.857024 0.277910
O O9 0.571726 0.750000 0.262331
O O10 0.575386 0.838455 0.381816
O O11 0.598398 0.891017 0.244150
O O12 0.084421 0.481423 0.409502
O O13 0.081287 0.385476 0.530770
O O14 0.000000 0.414904 0.451943
O O15 0.565625 0.894658 0.104052
O O16 0.563372 0.017900 0.185875
O O17 0.500000 0.159103 0.995225
O O18 0.429417 0.250000 0.933539
O O19 0.084291 0.096676 0.686423
O O20 0.000000 0.064222 0.615831
O O21 0.000000 0.126719 0.774367
#
# Coordination Sequence:
#
# PCOD8278167 Si02
#       8
#    16  16  16  16  16  16  16  16
#     4  10  21  36  50  70  98 126 156 192 240 286
#     4  10  21  40  58  72  88 113 157 210 249 284
#     4  10  18  27  41  66 103 137 160 191 235 279
#     4   8  13  23  38  57  88 129 170 201 228 262
#     4  11  19  30  47  69  93 122 162 202 236 283
#     4  10  19  30  44  66 100 136 162 187 224 275
#     4   8  13  23  39  59  85 125 173 207 224 258
#     4  10  18  27  45  69  96 131 167 198 229 272
#
# _framework density 16.286348
#
# number of rings (size 3 to 8) (size 9 to 14) (size 15 to 20)
#    0.000    2.375    2.500    2.625    0.000    1.750 
#    0.000    5.000    0.000    2.250    0.000    0.000 
#    0.000    8.000    0.000    5.625    0.000    0.500 
#
# Total GULP energy -793140.637312 kJ/mol
# GULP energy per Si atom -12392.822458 kJ/mol
# Density = 1.624928 g / cm^3
# Si number density = 16.286348 Si / 1000 Ang^3
#
#
#
# Elastic Constant Matrix: (Units=GPa)
#
#
# Indices 1 2 3 4 5 6 
#
# 1 65.2781 31.3143 25.6152 0.0000 0.0000 0.0000
# 2 31.3143 74.1415 28.8221 0.0000 0.0000 0.0000
# 3 25.6152 28.8221 101.3415 0.0000 0.0000 0.0000
# 4 0.0000 0.0000 0.0000 21.5096 0.0000 0.0000
# 5 0.0000 0.0000 0.0000 0.0000 5.5090 0.0000
# 6 0.0000 0.0000 0.0000 0.0000 0.0000 15.1272
#
#
#
# Elastic Compliance Matrix: (Units=1/GPa)
#
#
# Indices 1 2 3 4 5 6 
#
# 1 0.019981 -0.007281 -0.002980 0.000000 0.000000 0.000000
# 2 -0.007281 0.017817 -0.003227 0.000000 0.000000 0.000000
# 3 -0.002980 -0.003227 0.011539 0.000000 0.000000 0.000000
# 4 0.000000 0.000000 0.000000 0.046491 0.000000 0.000000
# 5 0.000000 0.000000 0.000000 0.000000 0.181522 0.000000
# 6 0.000000 0.000000 0.000000 0.000000 0.000000 0.066106
#
#
# Mechanical properties :
#
#
# Convention : Reuss Voigt Hill
#
# Bulk Modulus (GPa) = 44.71918 45.80713 45.26316
# Shear Modulus (GPa) = 13.23154 18.76314 15.99734
#
# Velocity S-wave (km/s) = 2.85341 3.39791 3.13749
# Velocity P-wave (km/s) = 6.19464 6.60163 6.40137
#
# Compressibility (1/GPa) = 0.02236177
#
# Stress axis : x y z
#
# Youngs Moduli (GPa) = 50.04766 56.12520 86.66587
#
# Poissons Ratio (x) = 0.40863 0.25824
# Poissons Ratio (y) = 0.36439 0.27968
# Poissons Ratio (z) = 0.14913 0.18112
#
# Static dielectric constant tensor:
#      x y z
#    x 2.590520 0.000000 0.000000 
#    y 0.000000 3.055660 0.000000 
#    z 0.000000 0.000000 3.398320 
# 
# 
# High freq. dielectric constant tensor:
#      x y z
#    x 1.558210 0.000000 0.000000 
#    y 0.000000 1.624100 0.000000 
#    z 0.000000 0.000000 1.641770 
# 
# From -- ./inp_files/35632.got.cif
#   From: 2010.03.12/outbox.cif.g09.slc.cpg/sg67_18_cif.got.tgz:35632.got - 2010.04.10 22:41:39.
