data_PCOD8278973
_publ_section_title
;
Structure prediction by ZEFSAII (Michael W. Deem and Ramdas Pophale) SiO2 
 PCOD8278973
Probable space group: C M M A
;
_chemical_formula_sum "Si O2"
_cell_formula_units_Z 96
_cell_length_a 9.571414
_cell_length_b 18.675003
_cell_length_c 29.505557
_cell_angle_alpha 90.000000
_cell_angle_beta 90.000000
_cell_angle_gamma 90.000000
_cell_volume 5274.005755
_symmetry_space_group_name_H-M "C M M A"
_symmetry_group_IT_number 67
_symmetry_cell_setting 'orthorhombic'
loop_
_space_group_symop_operation_xyz
x,y,z
-x,1/2-y,z
x,-y,-z
-x,1/2+y,-z
-x,-y,-z
x,1/2+y,-z
-x,y,z
x,1/2-y,z
1/2+x,1/2+y,z
1/2-x,-y,z
1/2+x,1/2-y,-z
1/2-x,y,-z
1/2-x,1/2-y,-z
1/2+x,y,-z
1/2-x,1/2+y,z
1/2+x,-y,z
loop_
_atom_site_type_symbol
_atom_site_label
_atom_site_fract_x
_atom_site_fract_y
_atom_site_fract_z
Si Si1 0.659028 0.166805 0.369486
Si Si2 0.257219 0.915365 0.889008
Si Si3 0.332655 0.572456 0.543468
Si Si4 0.000000 0.417463 0.953316
Si Si5 0.000000 0.413062 0.053933
Si Si6 0.341358 0.164906 0.713848
Si Si7 0.838022 0.834187 0.200646
O O1 0.500000 0.153819 0.353032
O O2 0.686694 0.250000 0.378452
O O3 0.690289 0.127193 0.416046
O O4 0.763423 0.136424 0.331134
O O5 0.370603 0.890622 0.924886
O O6 0.124030 0.886246 0.914935
O O7 0.278186 0.875826 0.842023
O O8 0.250000 0.000000 0.879366
O O9 0.500000 0.559971 0.534318
O O10 0.250000 0.500000 0.556164
O O11 0.250000 0.604775 0.500000
O O12 0.000000 0.502789 0.955224
O O13 0.000000 0.380506 0.003083
O O14 0.500000 0.134658 0.715654
O O15 0.342768 0.250000 0.713202
O O16 0.253273 0.138264 0.757018
O O17 0.819094 0.750000 0.192583
O O18 0.000000 0.853514 0.209247
#
# Coordination Sequence:
#
# PCOD8278973 Si02
#       7
#    16  16  16   8   8  16  16
#     4   9  18  34  55  78 104 134 172 216 261 306
#     4  10  19  32  51  76 101 128 165 209 251 295
#     4  10  20  34  53  76 106 145 181 215 255 307
#     4   9  16  32  49  73 101 129 169 201 244 305
#     4   9  18  28  51  75  99 131 161 209 252 287
#     4   9  18  32  52  78 103 130 168 213 257 302
#     4  10  20  35  54  73 100 138 172 201 245 309
#
# _framework density 18.202483000000001
#
# number of rings (size 3 to 8) (size 9 to 14) (size 15 to 20)
#    0.000    2.500    0.833    2.000    1.167    5.667 
#    0.000    0.833    0.000    3.000    0.000    0.000 
#    0.000    0.000    0.000    0.000    0.000    0.000 
#
# Total GULP energy -594824.894488 kJ/mol
# GULP energy per Si atom -12392.185302 kJ/mol
# Density = 1.816105 g / cm^3
# Si number density = 18.202483 Si / 1000 Ang^3
#
#
#
# Elastic Constant Matrix: (Units=GPa)
#
#
# Indices 1 2 3 4 5 6 
#
# 1 175.7540 36.6671 106.1491 0.0000 0.0000 0.0000
# 2 36.6671 30.8298 51.7341 0.0000 0.0000 0.0000
# 3 106.1491 51.7341 186.1111 0.0000 0.0000 0.0000
# 4 0.0000 0.0000 0.0000 33.2601 0.0000 0.0000
# 5 0.0000 0.0000 0.0000 0.0000 43.6497 0.0000
# 6 0.0000 0.0000 0.0000 0.0000 0.0000 20.4747
#
#
#
# Elastic Compliance Matrix: (Units=1/GPa)
#
#
# Indices 1 2 3 4 5 6 
#
# 1 0.008921 -0.003883 -0.004009 0.000000 0.000000 0.000000
# 2 -0.003883 0.062484 -0.015154 0.000000 0.000000 0.000000
# 3 -0.004009 -0.015154 0.011872 0.000000 0.000000 0.000000
# 4 0.000000 0.000000 0.000000 0.030066 0.000000 0.000000
# 5 0.000000 0.000000 0.000000 0.000000 0.022910 0.000000
# 6 0.000000 0.000000 0.000000 0.000000 0.000000 0.048841
#
#
# Mechanical properties :
#
#
# Convention : Reuss Voigt Hill
#
# Bulk Modulus (GPa) = 26.89257 86.86618 56.87938
# Shear Modulus (GPa) = 20.52703 32.68655 26.60679
#
# Velocity S-wave (km/s) = 3.36178 4.24219 3.82738
# Velocity P-wave (km/s) = 5.46579 8.47471 7.13076
#
# Compressibility (1/GPa) = 0.03718499
#
# Stress axis : x y z
#
# Youngs Moduli (GPa) = 112.09446 16.00399 84.23217
#
# Poissons Ratio (x) = 0.06215 0.33766
# Poissons Ratio (y) = 0.43531 1.27647
# Poissons Ratio (z) = 0.44935 0.24253
#
# Static dielectric constant tensor:
#      x y z
#    x 3.800200 0.000000 0.000000 
#    y 0.000000 3.115820 0.000000 
#    z 0.000000 0.000000 3.521640 
# 
# 
# High freq. dielectric constant tensor:
#      x y z
#    x 1.725060 0.000000 0.000000 
#    y 0.000000 1.657970 0.000000 
#    z 0.000000 0.000000 1.720840 
# 
# From -- ./inp_files/43708.got.cif
#   From: 2010.03.12/outbox.cif.g09.slc.cpg/sg67_22_cif.got.tgz:43708.got - 2010.04.10 22:41:39.
