data_PCOD8278682
_publ_section_title
;
Structure prediction by ZEFSAII (Michael W. Deem and Ramdas Pophale) SiO2 
 PCOD8278682
Probable space group: C M M A
;
_chemical_formula_sum "Si O2"
_cell_formula_units_Z 112
_cell_length_a 19.478187
_cell_length_b 18.095667
_cell_length_c 17.673996
_cell_angle_alpha 90.000000
_cell_angle_beta 90.000000
_cell_angle_gamma 90.000000
_cell_volume 6229.567257
_symmetry_space_group_name_H-M "C M M A"
_symmetry_group_IT_number 67
_symmetry_cell_setting 'orthorhombic'
loop_
_space_group_symop_operation_xyz
x,y,z
-x,1/2-y,z
x,-y,-z
-x,1/2+y,-z
-x,-y,-z
x,1/2+y,-z
-x,y,z
x,1/2-y,z
1/2+x,1/2+y,z
1/2-x,-y,z
1/2+x,1/2-y,-z
1/2-x,y,-z
1/2-x,1/2-y,-z
1/2+x,y,-z
1/2-x,1/2+y,z
1/2+x,-y,z
loop_
_atom_site_type_symbol
_atom_site_label
_atom_site_fract_x
_atom_site_fract_y
_atom_site_fract_z
Si Si1 0.318490 0.665360 0.041800
Si Si2 0.836984 0.833630 0.358885
Si Si3 0.920755 0.666604 0.091772
Si Si4 0.681916 0.591634 0.197790
Si Si5 0.668241 0.582939 0.493970
Si Si6 0.658611 0.077439 0.214105
Si Si7 0.826151 0.832116 0.651676
O O1 0.304203 0.750000 0.065953
O O2 0.340643 0.619196 0.115453
O O3 0.250000 0.633963 0.000000
O O4 0.383373 0.657264 0.987870
O O5 0.865463 0.750000 0.349469
O O6 0.862320 0.866635 0.438816
O O7 0.865896 0.887193 0.293373
O O8 0.755374 0.833200 0.355290
O O9 0.909712 0.750000 0.122778
O O10 0.890809 0.608600 0.150313
O O11 0.000000 0.648703 0.078119
O O12 0.652908 0.510587 0.214670
O O13 0.763670 0.599422 0.197245
O O14 0.650782 0.641114 0.265220
O O15 0.639077 0.500000 0.500000
O O16 0.750000 0.582099 0.500000
O O17 0.643087 0.615664 0.413775
O O18 0.855098 0.750000 0.639359
#
# Coordination Sequence:
#
# PCOD8278682 Si02
#       7
#    16  16  16  16  16  16  16
#     4  10  19  33  53  73  96 128 170 212 254 306
#     4   9  16  25  40  60  88 128 170 202 240 299
#     4  10  21  37  55  75 101 133 170 214 262 310
#     4  10  19  30  46  71  98 129 165 210 255 307
#     4   9  15  23  35  56  89 129 164 200 245 298
#     4  10  19  31  46  70  99 129 164 208 255 306
#     4   9  16  25  39  60  91 127 165 204 246 295
#
# _framework density 17.978777000000001
#
# number of rings (size 3 to 8) (size 9 to 14) (size 15 to 20)
#    0.000    2.429    1.429    2.143    0.000    6.857 
#    0.000    1.429    0.000    0.000    0.000    0.000 
#    0.000    6.286    0.000    6.857    0.000    0.857 
#
# Total GULP energy -694306.635656 kJ/mol
# GULP energy per Si atom -12398.332780 kJ/mol
# Density = 1.793786 g / cm^3
# Si number density = 17.978777 Si / 1000 Ang^3
#
#
#
# Elastic Constant Matrix: (Units=GPa)
#
#
# Indices 1 2 3 4 5 6 
#
# 1 42.0999 33.0198 24.8765 0.0000 0.0000 0.0000
# 2 33.0198 126.5280 79.2309 0.0000 0.0000 0.0000
# 3 24.8765 79.2309 151.1016 0.0000 0.0000 0.0000
# 4 0.0000 0.0000 0.0000 37.1515 0.0000 0.0000
# 5 0.0000 0.0000 0.0000 0.0000 7.9122 0.0000
# 6 0.0000 0.0000 0.0000 0.0000 0.0000 11.9918
#
#
#
# Elastic Compliance Matrix: (Units=1/GPa)
#
#
# Indices 1 2 3 4 5 6 
#
# 1 0.030022 -0.007057 -0.001242 0.000000 0.000000 0.000000
# 2 -0.007057 0.013426 -0.005878 0.000000 0.000000 0.000000
# 3 -0.001242 -0.005878 0.009905 0.000000 0.000000 0.000000
# 4 0.000000 0.000000 0.000000 0.026917 0.000000 0.000000
# 5 0.000000 0.000000 0.000000 0.000000 0.126388 0.000000
# 6 0.000000 0.000000 0.000000 0.000000 0.000000 0.083390
#
#
# Mechanical properties :
#
#
# Convention : Reuss Voigt Hill
#
# Bulk Modulus (GPa) = 40.00316 65.99820 53.00068
# Shear Modulus (GPa) = 15.30293 23.58457 19.44375
#
# Velocity S-wave (km/s) = 2.92064 3.62581 3.29216
# Velocity P-wave (km/s) = 5.80276 7.37003 6.63285
#
# Compressibility (1/GPa) = 0.02499802
#
# Stress axis : x y z
#
# Youngs Moduli (GPa) = 33.30896 74.48329 100.96094
#
# Poissons Ratio (x) = 0.52562 0.12543
# Poissons Ratio (y) = 0.23506 0.59346
# Poissons Ratio (z) = 0.04138 0.43782
#
# Static dielectric constant tensor:
#      x y z
#    x 2.681210 0.000000 0.000000 
#    y 0.000000 3.470980 0.000000 
#    z 0.000000 0.000000 3.470190 
# 
# 
# High freq. dielectric constant tensor:
#      x y z
#    x 1.618000 0.000000 0.000000 
#    y 0.000000 1.706930 0.000000 
#    z 0.000000 0.000000 1.712430 
# 
# From -- ./inp_files/35118.got.cif
#   From: 2010.03.12/outbox.cif.g09.slc.cpg/sg67_18_cif.got.tgz:35118.got - 2010.04.10 22:41:39.
