data_PCOD8278250
_publ_section_title
;
Structure prediction by ZEFSAII (Michael W. Deem and Ramdas Pophale) SiO2 
 PCOD8278250
Probable space group: C M M A
;
_chemical_formula_sum "Si O2"
_cell_formula_units_Z 96
_cell_length_a 9.240177
_cell_length_b 23.238170
_cell_length_c 25.232645
_cell_angle_alpha 90.000000
_cell_angle_beta 90.000000
_cell_angle_gamma 90.000000
_cell_volume 5418.074751
_symmetry_space_group_name_H-M "C M M A"
_symmetry_group_IT_number 67
_symmetry_cell_setting 'orthorhombic'
loop_
_space_group_symop_operation_xyz
x,y,z
-x,1/2-y,z
x,-y,-z
-x,1/2+y,-z
-x,-y,-z
x,1/2+y,-z
-x,y,z
x,1/2-y,z
1/2+x,1/2+y,z
1/2-x,-y,z
1/2+x,1/2-y,-z
1/2-x,y,-z
1/2-x,1/2-y,-z
1/2+x,y,-z
1/2-x,1/2+y,z
1/2+x,-y,z
loop_
_atom_site_type_symbol
_atom_site_label
_atom_site_fract_x
_atom_site_fract_y
_atom_site_fract_z
Si Si1 0.159913 0.750000 0.419671
Si Si2 0.662820 0.181526 0.050162
Si Si3 0.666426 0.816168 0.152845
Si Si4 0.169935 0.750000 0.682862
Si Si5 0.327573 0.559524 0.655087
Si Si6 0.830366 0.865129 0.735572
Si Si7 0.162455 0.376057 0.549278
O O1 0.288216 0.750000 0.377985
O O2 0.175552 0.692999 0.454899
O O3 0.000000 0.750000 0.392129
O O4 0.500000 0.157290 0.048488
O O5 0.663811 0.250000 0.047688
O O6 0.737309 0.161003 0.104421
O O7 0.750000 0.156177 0.000000
O O8 0.500000 0.819333 0.135031
O O9 0.704082 0.750000 0.168686
O O10 0.696303 0.859397 0.201577
O O11 0.232395 0.693253 0.710243
O O12 0.000000 0.750000 0.690148
O O13 0.500000 0.552126 0.660839
O O14 0.250000 0.500000 0.642168
O O15 0.262892 0.583379 0.710398
O O16 0.283398 0.601908 0.606662
O O17 0.000000 0.874972 0.723037
O O18 0.250000 0.403065 0.500000
O O19 0.000000 0.397560 0.541137
#
# Coordination Sequence:
#
# PCOD8278250 Si02
#       7
#     8  16  16   8  16  16  16
#     4  10  19  35  53  78 110 133 161 201 246 299
#     4   9  16  25  37  57  89 132 177 214 249 291
#     4   9  16  27  44  68  99 133 168 206 248 297
#     4  10  18  29  51  80 104 133 166 199 247 305
#     4  11  24  41  58  76  99 131 169 212 258 304
#     4  10  19  33  53  78 105 133 168 208 253 306
#     4  10  22  37  56  79 104 132 163 202 249 301
#
# _framework density 17.718471000000001
#
# number of rings (size 3 to 8) (size 9 to 14) (size 15 to 20)
#    0.000    2.167    2.500    1.250    0.000    5.000 
#    0.000    1.667    0.000    0.000    0.000    0.000 
#    0.000    0.667    0.000    7.000    0.000    3.333 
#
# Total GULP energy -595083.927686 kJ/mol
# GULP energy per Si atom -12397.581827 kJ/mol
# Density = 1.767814 g / cm^3
# Si number density = 17.718471 Si / 1000 Ang^3
#
#
#
# Elastic Constant Matrix: (Units=GPa)
#
#
# Indices 1 2 3 4 5 6 
#
# 1 87.6548 31.5676 63.6284 0.0000 0.0000 0.0000
# 2 31.5676 58.0040 25.2501 0.0000 0.0000 0.0000
# 3 63.6284 25.2501 120.7648 0.0000 0.0000 0.0000
# 4 0.0000 0.0000 0.0000 9.4251 0.0000 0.0000
# 5 0.0000 0.0000 0.0000 0.0000 35.8441 0.0000
# 6 0.0000 0.0000 0.0000 0.0000 0.0000 20.0801
#
#
#
# Elastic Compliance Matrix: (Units=1/GPa)
#
#
# Indices 1 2 3 4 5 6 
#
# 1 0.020919 -0.007246 -0.009507 0.000000 0.000000 0.000000
# 2 -0.007246 0.021477 -0.000673 0.000000 0.000000 0.000000
# 3 -0.009507 -0.000673 0.013430 0.000000 0.000000 0.000000
# 4 0.000000 0.000000 0.000000 0.106099 0.000000 0.000000
# 5 0.000000 0.000000 0.000000 0.000000 0.027899 0.000000
# 6 0.000000 0.000000 0.000000 0.000000 0.000000 0.049801
#
#
# Mechanical properties :
#
#
# Convention : Reuss Voigt Hill
#
# Bulk Modulus (GPa) = 47.67670 56.36842 52.02256
# Shear Modulus (GPa) = 17.76410 22.80168 20.28289
#
# Velocity S-wave (km/s) = 3.16978 3.59121 3.38706
# Velocity P-wave (km/s) = 6.35319 7.00558 6.68735
#
# Compressibility (1/GPa) = 0.02097461
#
# Stress axis : x y z
#
# Youngs Moduli (GPa) = 47.80374 46.56227 74.46019
#
# Poissons Ratio (x) = 0.33740 0.70786
# Poissons Ratio (y) = 0.34640 0.05008
# Poissons Ratio (z) = 0.45445 0.03131
#
# Static dielectric constant tensor:
#      x y z
#    x 3.309290 0.000000 0.000000 
#    y 0.000000 2.955220 0.000000 
#    z 0.000000 0.000000 3.246690 
# 
# 
# High freq. dielectric constant tensor:
#      x y z
#    x 1.687770 0.000000 0.000000 
#    y 0.000000 1.638490 0.000000 
#    z 0.000000 0.000000 1.686960 
# 
# From -- ./inp_files/40840.got.cif
#   From: 2010.03.12/outbox.cif.g09.slc.cpg/sg67_21_cif.got.tgz:40840.got - 2010.04.10 22:41:39.
