data_PCOD8278434
_publ_section_title
;
Structure prediction by ZEFSAII (Michael W. Deem and Ramdas Pophale) SiO2 
 PCOD8278434
Probable space group: C M M A
;
_chemical_formula_sum "Si O2"
_cell_formula_units_Z 56
_cell_length_a 25.330753
_cell_length_b 8.668011
_cell_length_c 15.257986
_cell_angle_alpha 90.000000
_cell_angle_beta 90.000000
_cell_angle_gamma 90.000000
_cell_volume 3350.153960
_symmetry_space_group_name_H-M "C M M A"
_symmetry_group_IT_number 67
_symmetry_cell_setting 'orthorhombic'
loop_
_space_group_symop_operation_xyz
x,y,z
-x,1/2-y,z
x,-y,-z
-x,1/2+y,-z
-x,-y,-z
x,1/2+y,-z
-x,y,z
x,1/2-y,z
1/2+x,1/2+y,z
1/2-x,-y,z
1/2+x,1/2-y,-z
1/2-x,y,-z
1/2-x,1/2-y,-z
1/2+x,y,-z
1/2-x,1/2+y,z
1/2+x,-y,z
loop_
_atom_site_type_symbol
_atom_site_label
_atom_site_fract_x
_atom_site_fract_y
_atom_site_fract_z
Si Si1 0.691746 0.431190 0.777294
Si Si2 0.893340 0.067667 0.903659
Si Si3 0.000000 0.933326 0.902803
Si Si4 0.692555 0.571984 0.416079
O O1 0.693252 0.250000 0.799980
O O2 0.750000 0.500000 0.784648
O O3 0.656119 0.522640 0.845110
O O4 0.667037 0.458582 0.679616
O O5 0.898986 0.250000 0.910389
O O6 0.946366 0.997034 0.858356
O O7 0.884221 0.000000 0.000000
O O8 0.000000 0.750000 0.901776
O O9 0.000000 0.000000 0.000000
O O10 0.660726 0.500000 0.500000
O O11 0.697992 0.750000 0.434969
O O12 0.750000 0.500000 0.413449
#
# Coordination Sequence:
#
# PCOD8278434 Si02
#       4
#    16  16   8  16
#     4  10  20  33  47  69  98 129 161 195 234 281
#     4  11  21  34  51  71  95 125 159 197 236 279
#     4  10  18  32  52  72  93 118 153 198 238 276
#     4   9  16  26  43  64  90 120 154 192 231 273
#
# _framework density 16.715651000000001
#
# number of rings (size 3 to 8) (size 9 to 14) (size 15 to 20)
#    0.000    2.000    0.000    8.143    0.000    4.000 
#    0.000    2.857    0.000    0.000    0.000    1.000 
#    0.000    0.000    0.000    0.000    0.000    0.000 
#
# Total GULP energy -346937.891166 kJ/mol
# GULP energy per Si atom -12390.638970 kJ/mol
# Density = 1.667761 g / cm^3
# Si number density = 16.715651 Si / 1000 Ang^3
#
#
#
# Elastic Constant Matrix: (Units=GPa)
#
#
# Indices 1 2 3 4 5 6 
#
# 1 80.3807 42.1641 45.9365 0.0000 0.0000 0.0000
# 2 42.1641 154.1968 54.9514 0.0000 0.0000 0.0000
# 3 45.9365 54.9514 96.4505 0.0000 0.0000 0.0000
# 4 0.0000 0.0000 0.0000 26.4529 0.0000 0.0000
# 5 0.0000 0.0000 0.0000 0.0000 3.7059 0.0000
# 6 0.0000 0.0000 0.0000 0.0000 0.0000 25.4786
#
#
#
# Elastic Compliance Matrix: (Units=1/GPa)
#
#
# Indices 1 2 3 4 5 6 
#
# 1 0.017724 -0.002307 -0.007127 0.000000 0.000000 0.000000
# 2 -0.002307 0.008438 -0.003709 0.000000 0.000000 0.000000
# 3 -0.007127 -0.003709 0.015875 0.000000 0.000000 0.000000
# 4 0.000000 0.000000 0.000000 0.037803 0.000000 0.000000
# 5 0.000000 0.000000 0.000000 0.000000 0.269841 0.000000
# 6 0.000000 0.000000 0.000000 0.000000 0.000000 0.039249
#
#
# Mechanical properties :
#
#
# Convention : Reuss Voigt Hill
#
# Bulk Modulus (GPa) = 63.48386 68.57022 66.02704
# Shear Modulus (GPa) = 11.89161 23.65922 17.77541
#
# Velocity S-wave (km/s) = 2.67011 3.76625 3.26452
# Velocity P-wave (km/s) = 6.89689 7.74748 7.33453
#
# Compressibility (1/GPa) = 0.01575203
#
# Stress axis : x y z
#
# Youngs Moduli (GPa) = 56.42133 118.51722 62.99030
#
# Poissons Ratio (x) = 0.27336 0.44895
# Poissons Ratio (y) = 0.13014 0.23361
# Poissons Ratio (z) = 0.40213 0.43954
#
# Static dielectric constant tensor:
#      x y z
#    x 2.935240 0.000000 0.000000 
#    y 0.000000 3.351010 0.000000 
#    z 0.000000 0.000000 3.798490 
# 
# 
# High freq. dielectric constant tensor:
#      x y z
#    x 1.606890 0.000000 0.000000 
#    y 0.000000 1.671250 0.000000 
#    z 0.000000 0.000000 1.639070 
# 
# From -- ./inp_files/15712.got.cif
#   From: 2010.03.12/outbox.cif.g09.slc.cpg/sg67_8_cif.got.tgz:15712.got - 2010.04.10 22:41:39.
