data_PCOD8278099
_publ_section_title
;
Structure prediction by ZEFSAII (Michael W. Deem and Ramdas Pophale) SiO2 
 PCOD8278099
Probable space group: C M M A
;
_chemical_formula_sum "Si O2"
_cell_formula_units_Z 56
_cell_length_a 8.495889
_cell_length_b 36.867932
_cell_length_c 9.520120
_cell_angle_alpha 90.000000
_cell_angle_beta 90.000000
_cell_angle_gamma 90.000000
_cell_volume 2981.947755
_symmetry_space_group_name_H-M "C M M A"
_symmetry_group_IT_number 67
_symmetry_cell_setting 'orthorhombic'
loop_
_space_group_symop_operation_xyz
x,y,z
-x,1/2-y,z
x,-y,-z
-x,1/2+y,-z
-x,-y,-z
x,1/2+y,-z
-x,y,z
x,1/2-y,z
1/2+x,1/2+y,z
1/2-x,-y,z
1/2+x,1/2-y,-z
1/2-x,y,-z
1/2-x,1/2-y,-z
1/2+x,y,-z
1/2-x,1/2+y,z
1/2+x,-y,z
loop_
_atom_site_type_symbol
_atom_site_label
_atom_site_fract_x
_atom_site_fract_y
_atom_site_fract_z
Si Si1 0.813489 0.536612 0.842611
Si Si2 0.186198 0.175608 0.343281
Si Si3 0.313701 0.388878 0.156793
Si Si4 0.813346 0.250000 0.656941
O O1 0.750000 0.500000 0.765328
O O2 0.745770 0.573307 0.772752
O O3 0.000000 0.537263 0.839833
O O4 0.750000 0.536067 0.000000
O O5 0.250000 0.170837 0.500000
O O6 0.248448 0.143216 0.249983
O O7 0.247437 0.213218 0.272175
O O8 0.000000 0.175675 0.346828
O O9 0.500000 0.388190 0.154298
O O10 0.250000 0.384311 0.000000
O O11 0.750000 0.250000 0.500000
O O12 0.000000 0.250000 0.661131
#
# Coordination Sequence:
#
# PCOD8278099 Si02
#       4
#    16  16  16   8
#     4  10  17  28  46  71 100 134 172 214 256 303
#     4  11  21  36  56  80 106 138 175 216 259 308
#     4  11  21  35  53  78 108 140 174 216 263 312
#     4  10  18  32  53  78 103 134 173 216 256 302
#
# _framework density 18.779672000000001
#
# number of rings (size 3 to 8) (size 9 to 14) (size 15 to 20)
#    0.000    1.429    0.000   13.286    0.000    0.000 
#    0.000    0.714    0.000    0.857    0.000    6.000 
#    0.000    0.000    0.000    0.000    0.000    0.000 
#
# Total GULP energy -347083.998805 kJ/mol
# GULP energy per Si atom -12395.857100 kJ/mol
# Density = 1.873693 g / cm^3
# Si number density = 18.779672 Si / 1000 Ang^3
#
#
#
# Elastic Constant Matrix: (Units=GPa)
#
#
# Indices 1 2 3 4 5 6 
#
# 1 234.3684 95.6700 35.6864 0.0000 0.0000 0.0000
# 2 95.6700 238.0874 58.0636 0.0000 0.0000 0.0000
# 3 35.6864 58.0636 42.6674 0.0000 0.0000 0.0000
# 4 0.0000 0.0000 0.0000 30.0598 0.0000 0.0000
# 5 0.0000 0.0000 0.0000 0.0000 23.5959 0.0000
# 6 0.0000 0.0000 0.0000 0.0000 0.0000 42.5937
#
#
#
# Elastic Compliance Matrix: (Units=1/GPa)
#
#
# Indices 1 2 3 4 5 6 
#
# 1 0.005247 -0.001554 -0.002274 0.000000 0.000000 0.000000
# 2 -0.001554 0.006747 -0.007881 0.000000 0.000000 0.000000
# 3 -0.002274 -0.007881 0.036065 0.000000 0.000000 0.000000
# 4 0.000000 0.000000 0.000000 0.033267 0.000000 0.000000
# 5 0.000000 0.000000 0.000000 0.000000 0.042380 0.000000
# 6 0.000000 0.000000 0.000000 0.000000 0.000000 0.023478
#
#
# Mechanical properties :
#
#
# Convention : Reuss Voigt Hill
#
# Bulk Modulus (GPa) = 40.58518 99.32925 69.95722
# Shear Modulus (GPa) = 27.96174 40.96344 34.46259
#
# Velocity S-wave (km/s) = 3.86286 4.67547 4.28846
# Velocity P-wave (km/s) = 6.44622 9.06385 7.86470
#
# Compressibility (1/GPa) = 0.02463953
#
# Stress axis : x y z
#
# Youngs Moduli (GPa) = 190.57112 148.22200 27.72801
#
# Poissons Ratio (x) = 0.23033 0.06306
# Poissons Ratio (y) = 0.29613 0.21854
# Poissons Ratio (z) = 0.43339 1.16820
#
# Static dielectric constant tensor:
#      x y z
#    x 3.684020 0.000000 0.000000 
#    y 0.000000 4.713310 0.000000 
#    z 0.000000 0.000000 2.919120 
# 
# 
# High freq. dielectric constant tensor:
#      x y z
#    x 1.760190 0.000000 0.000000 
#    y 0.000000 1.767740 0.000000 
#    z 0.000000 0.000000 1.660680 
# 
# From -- ./inp_files/15704.got.cif
#   From: 2010.03.12/outbox.cif.g09.slc.cpg/sg67_8_cif.got.tgz:15704.got - 2010.04.10 22:41:39.
