data_PCOD8278909
_publ_section_title
;
Structure prediction by ZEFSAII (Michael W. Deem and Ramdas Pophale) SiO2 
 PCOD8278909
Probable space group: C M M A
;
_chemical_formula_sum "Si O2"
_cell_formula_units_Z 96
_cell_length_a 19.777412
_cell_length_b 8.974422
_cell_length_c 30.988360
_cell_angle_alpha 90.000000
_cell_angle_beta 90.000000
_cell_angle_gamma 90.000000
_cell_volume 5500.150089
_symmetry_space_group_name_H-M "C M M A"
_symmetry_group_IT_number 67
_symmetry_cell_setting 'orthorhombic'
loop_
_space_group_symop_operation_xyz
x,y,z
-x,1/2-y,z
x,-y,-z
-x,1/2+y,-z
-x,-y,-z
x,1/2+y,-z
-x,y,z
x,1/2-y,z
1/2+x,1/2+y,z
1/2-x,-y,z
1/2+x,1/2-y,-z
1/2-x,y,-z
1/2-x,1/2-y,-z
1/2+x,y,-z
1/2-x,1/2+y,z
1/2+x,-y,z
loop_
_atom_site_type_symbol
_atom_site_label
_atom_site_fract_x
_atom_site_fract_y
_atom_site_fract_z
Si Si1 0.919481 0.417451 0.457991
Si Si2 0.820980 0.071421 0.207161
Si Si3 0.080430 0.585838 0.959192
Si Si4 0.423061 0.576186 0.627875
Si Si5 0.075175 0.427528 0.134685
Si Si6 0.820588 0.072747 0.703072
O O1 0.889529 0.500000 0.500000
O O2 0.891870 0.250000 0.458513
O O3 0.893645 0.495175 0.414368
O O4 0.000000 0.423001 0.459297
O O5 0.815500 0.250000 0.210588
O O6 0.874239 0.017116 0.171470
O O7 0.750000 0.000000 0.193567
O O8 0.844874 0.002602 0.252522
O O9 0.111853 0.750000 0.961544
O O10 0.098784 0.511969 0.912608
O O11 0.000000 0.592467 0.963029
O O12 0.112202 0.500000 0.000000
O O13 0.500000 0.526174 0.638047
O O14 0.419736 0.750000 0.617994
O O15 0.377249 0.531633 0.668278
O O16 0.073567 0.250000 0.132096
O O17 0.000000 0.487303 0.145904
O O18 0.811726 0.250000 0.709032
O O19 0.750000 0.000000 0.688106
#
# Coordination Sequence:
#
# PCOD8278909 Si02
#       6
#    16  16  16  16  16  16
#     4   9  16  26  43  68  97 127 157 189 226 270
#     4  10  19  32  50  68  89 119 154 189 226 273
#     4   8  13  23  40  62  88 115 144 179 220 266
#     4   9  18  32  49  70  96 124 154 190 232 273
#     4   8  15  28  46  68  92 119 151 187 227 269
#     4  10  20  34  51  69  92 123 156 190 230 276
#
# _framework density 17.454069
#
# number of rings (size 3 to 8) (size 9 to 14) (size 15 to 20)
#    0.000    3.000    0.000    3.500    0.000    4.000 
#    0.000    1.667    0.000    4.500    0.000    7.000 
#    0.000    0.000    0.000    0.000    0.000    0.000 
#
# Total GULP energy -594929.571911 kJ/mol
# GULP energy per Si atom -12394.366081 kJ/mol
# Density = 1.741434 g / cm^3
# Si number density = 17.454069 Si / 1000 Ang^3
#
#
#
# Elastic Constant Matrix: (Units=GPa)
#
#
# Indices 1 2 3 4 5 6 
#
# 1 67.5098 34.6258 83.9804 0.0000 0.0000 0.0000
# 2 34.6258 77.1844 65.2203 0.0000 0.0000 0.0000
# 3 83.9804 65.2203 181.0558 0.0000 0.0000 0.0000
# 4 0.0000 0.0000 0.0000 30.9720 0.0000 0.0000
# 5 0.0000 0.0000 0.0000 0.0000 3.9031 0.0000
# 6 0.0000 0.0000 0.0000 0.0000 0.0000 15.8775
#
#
#
# Elastic Compliance Matrix: (Units=1/GPa)
#
#
# Indices 1 2 3 4 5 6 
#
# 1 0.035461 -0.002889 -0.015407 0.000000 0.000000 0.000000
# 2 -0.002889 0.018861 -0.005454 0.000000 0.000000 0.000000
# 3 -0.015407 -0.005454 0.014634 0.000000 0.000000 0.000000
# 4 0.000000 0.000000 0.000000 0.032287 0.000000 0.000000
# 5 0.000000 0.000000 0.000000 0.000000 0.256210 0.000000
# 6 0.000000 0.000000 0.000000 0.000000 0.000000 0.062982
#
#
# Mechanical properties :
#
#
# Convention : Reuss Voigt Hill
#
# Bulk Modulus (GPa) = 46.60918 77.04479 61.82699
# Shear Modulus (GPa) = 10.52438 19.61207 15.06823
#
# Velocity S-wave (km/s) = 2.45822 3.35571 2.94140
# Velocity P-wave (km/s) = 5.90076 7.69751 6.85823
#
# Compressibility (1/GPa) = 0.02145500
#
# Stress axis : x y z
#
# Youngs Moduli (GPa) = 28.20019 53.02063 68.33269
#
# Poissons Ratio (x) = 0.15318 1.05282
# Poissons Ratio (y) = 0.08147 0.37268
# Poissons Ratio (z) = 0.43449 0.28917
#
# Static dielectric constant tensor:
#      x y z
#    x 2.970950 0.000000 0.000000 
#    y 0.000000 3.240590 0.000000 
#    z 0.000000 0.000000 3.522990 
# 
# 
# High freq. dielectric constant tensor:
#      x y z
#    x 1.631370 0.000000 0.000000 
#    y 0.000000 1.666470 0.000000 
#    z 0.000000 0.000000 1.690900 
# 
# From -- ./inp_files/44781.got.cif
#   From: 2010.03.12/outbox.cif.g09.slc.cpg/sg67_23_cif.got.tgz:44781.got - 2010.04.10 22:41:39.
