data_PCOD8278018
_publ_section_title
;
Structure prediction by ZEFSAII (Michael W. Deem and Ramdas Pophale) SiO2 
 PCOD8278018
Probable space group: C M M A
;
_chemical_formula_sum "Si O2"
_cell_formula_units_Z 96
_cell_length_a 8.694190
_cell_length_b 27.659940
_cell_length_c 24.141051
_cell_angle_alpha 90.000000
_cell_angle_beta 90.000000
_cell_angle_gamma 90.000000
_cell_volume 5805.458624
_symmetry_space_group_name_H-M "C M M A"
_symmetry_group_IT_number 67
_symmetry_cell_setting 'orthorhombic'
loop_
_space_group_symop_operation_xyz
x,y,z
-x,1/2-y,z
x,-y,-z
-x,1/2+y,-z
-x,-y,-z
x,1/2+y,-z
-x,y,z
x,1/2-y,z
1/2+x,1/2+y,z
1/2-x,-y,z
1/2+x,1/2-y,-z
1/2-x,y,-z
1/2-x,1/2-y,-z
1/2+x,y,-z
1/2-x,1/2+y,z
1/2+x,-y,z
loop_
_atom_site_type_symbol
_atom_site_label
_atom_site_fract_x
_atom_site_fract_y
_atom_site_fract_z
Si Si1 0.181414 0.052892 0.832856
Si Si2 0.317392 0.196688 0.666984
Si Si3 0.317035 0.446296 0.944894
Si Si4 0.317931 0.854832 0.441664
Si Si5 0.318666 0.396933 0.729850
Si Si6 0.319691 0.051040 0.618299
O O1 0.255348 0.077422 0.888050
O O2 0.220581 0.088684 0.783016
O O3 0.000000 0.047872 0.840526
O O4 0.250000 0.000000 0.820531
O O5 0.500000 0.197006 0.664807
O O6 0.252396 0.250000 0.682137
O O7 0.257333 0.181508 0.606015
O O8 0.267096 0.157476 0.712996
O O9 0.500000 0.446265 0.946561
O O10 0.250000 0.500000 0.944369
O O11 0.250000 0.419590 0.000000
O O12 0.500000 0.853097 0.445191
O O13 0.250000 0.838320 0.500000
O O14 0.261475 0.908855 0.425523
O O15 0.500000 0.399805 0.742890
O O16 0.273071 0.433241 0.680329
O O17 0.500000 0.046494 0.614581
O O18 0.250000 0.000000 0.601802
#
# Coordination Sequence:
#
# PCOD8278018 Si02
#       6
#    16  16  16  16  16  16
#     4  11  20  29  42  63  91 123 156 187 221 258
#     4   8  15  30  51  69  86 111 141 175 219 270
#     4  10  17  27  41  59  86 121 159 193 223 254
#     4   9  18  31  45  64  87 109 138 175 214 258
#     4   9  17  30  46  65  87 111 144 183 221 263
#     4   9  18  30  43  59  82 112 143 176 213 256
#
# _framework density 16.536159999999999
#
# number of rings (size 3 to 8) (size 9 to 14) (size 15 to 20)
#    0.000    2.667    0.000    7.000    0.000    3.333 
#    0.000    4.167    0.000    1.500    0.000    0.000 
#    0.000    0.667    0.000    1.833    0.000    3.000 
#
# Total GULP energy -594913.484136 kJ/mol
# GULP energy per Si atom -12394.030920 kJ/mol
# Density = 1.649852 g / cm^3
# Si number density = 16.536160 Si / 1000 Ang^3
#
#
#
# Elastic Constant Matrix: (Units=GPa)
#
#
# Indices 1 2 3 4 5 6 
#
# 1 76.3653 19.9032 38.5090 0.0000 0.0000 0.0000
# 2 19.9032 91.4342 36.6299 0.0000 0.0000 0.0000
# 3 38.5090 36.6299 119.5787 0.0000 0.0000 0.0000
# 4 0.0000 0.0000 0.0000 15.9005 0.0000 0.0000
# 5 0.0000 0.0000 0.0000 0.0000 28.5200 0.0000
# 6 0.0000 0.0000 0.0000 0.0000 0.0000 12.7203
#
#
#
# Elastic Compliance Matrix: (Units=1/GPa)
#
#
# Indices 1 2 3 4 5 6 
#
# 1 0.015837 -0.001601 -0.004610 0.000000 0.000000 0.000000
# 2 -0.001601 0.012628 -0.003353 0.000000 0.000000 0.000000
# 3 -0.004610 -0.003353 0.010874 0.000000 0.000000 0.000000
# 4 0.000000 0.000000 0.000000 0.062891 0.000000 0.000000
# 5 0.000000 0.000000 0.000000 0.000000 0.035063 0.000000
# 6 0.000000 0.000000 0.000000 0.000000 0.000000 0.078614
#
#
# Mechanical properties :
#
#
# Convention : Reuss Voigt Hill
#
# Bulk Modulus (GPa) = 49.47328 53.05138 51.26233
# Shear Modulus (GPa) = 20.68061 24.25055 22.46558
#
# Velocity S-wave (km/s) = 3.54026 3.83367 3.68988
# Velocity P-wave (km/s) = 6.83333 7.19359 7.01577
#
# Compressibility (1/GPa) = 0.02021293
#
# Stress axis : x y z
#
# Youngs Moduli (GPa) = 63.14450 79.18601 91.95977
#
# Poissons Ratio (x) = 0.12674 0.42391
# Poissons Ratio (y) = 0.10107 0.30834
# Poissons Ratio (z) = 0.29108 0.26551
#
# Static dielectric constant tensor:
#      x y z
#    x 2.911820 0.000000 0.000000 
#    y 0.000000 1.558380 0.000000 
#    z 0.000000 0.000000 3.636260 
# 
# 
# High freq. dielectric constant tensor:
#      x y z
#    x 1.626210 0.000000 0.000000 
#    y 0.000000 1.600010 0.000000 
#    z 0.000000 0.000000 1.641900 
# 
# From -- ./inp_files/40947.got.cif
#   From: 2010.03.12/outbox.cif.g09.slc.cpg/sg67_21_cif.got.tgz:40947.got - 2010.04.10 22:41:39.
