data_PCOD8278230
_publ_section_title
;
Structure prediction by ZEFSAII (Michael W. Deem and Ramdas Pophale) SiO2 
 PCOD8278230
Probable space group: C M M A
;
_chemical_formula_sum "Si O2"
_cell_formula_units_Z 104
_cell_length_a 8.823602
_cell_length_b 24.827086
_cell_length_c 27.509225
_cell_angle_alpha 90.000000
_cell_angle_beta 90.000000
_cell_angle_gamma 90.000000
_cell_volume 6026.289825
_symmetry_space_group_name_H-M "C M M A"
_symmetry_group_IT_number 67
_symmetry_cell_setting 'orthorhombic'
loop_
_space_group_symop_operation_xyz
x,y,z
-x,1/2-y,z
x,-y,-z
-x,1/2+y,-z
-x,-y,-z
x,1/2+y,-z
-x,y,z
x,1/2-y,z
1/2+x,1/2+y,z
1/2-x,-y,z
1/2+x,1/2-y,-z
1/2-x,y,-z
1/2-x,1/2-y,-z
1/2+x,y,-z
1/2-x,1/2+y,z
1/2+x,-y,z
loop_
_atom_site_type_symbol
_atom_site_label
_atom_site_fract_x
_atom_site_fract_y
_atom_site_fract_z
Si Si1 0.320202 0.250000 0.447193
Si Si2 0.180277 0.750000 0.805143
Si Si3 0.322492 0.750000 0.300402
Si Si4 0.679761 0.144230 0.857494
Si Si5 0.678622 0.311701 0.051144
Si Si6 0.678843 0.834753 0.377679
Si Si7 0.679328 0.056072 0.780901
Si Si8 0.820965 0.556541 0.670678
O O1 0.500000 0.250000 0.449762
O O2 0.250000 0.250000 0.500000
O O3 0.266188 0.305588 0.421610
O O4 0.256726 0.750000 0.751858
O O5 0.239439 0.698253 0.832754
O O6 0.000000 0.750000 0.801807
O O7 0.500000 0.750000 0.292232
O O8 0.274688 0.696527 0.328889
O O9 0.500000 0.141949 0.864225
O O10 0.757814 0.144639 0.910249
O O11 0.738366 0.097460 0.821641
O O12 0.500000 0.317510 0.047577
O O13 0.726049 0.250000 0.064456
O O14 0.750000 0.328267 0.000000
O O15 0.500000 0.830133 0.388432
O O16 0.728762 0.896679 0.367599
O O17 0.500000 0.052515 0.782351
O O18 0.731610 0.071499 0.725815
O O19 0.750000 0.000000 0.796654
O O20 0.750000 0.500000 0.653414
O O21 0.000000 0.550195 0.669481
#
# Coordination Sequence:
#
# PCOD8278230 Si02
#       8
#     8   8   8  16  16  16  16  16
#     4  11  22  36  55  78 104 133 168 209 257 306
#     4   9  15  23  41  69  96 122 153 193 234 277
#     4   8  13  23  42  67  94 125 161 198 234 279
#     4  10  18  29  47  70  95 123 159 197 238 286
#     4  10  20  33  49  68  92 120 152 191 241 298
#     4   9  17  31  51  74 101 134 172 210 248 291
#     4   9  18  31  48  72 100 135 173 204 236 280
#     4   9  17  30  49  74 104 138 175 210 244 286
#
# _framework density 17.257715999999999
#
# number of rings (size 3 to 8) (size 9 to 14) (size 15 to 20)
#    0.000    2.615    0.769    2.538    0.000    5.538 
#    0.000    0.000    0.000    8.308    0.000    6.462 
#    0.000    0.000    0.000    0.000    0.000    0.000 
#
# Total GULP energy -644464.636051 kJ/mol
# GULP energy per Si atom -12393.550693 kJ/mol
# Density = 1.721844 g / cm^3
# Si number density = 17.257716 Si / 1000 Ang^3
#
#
#
# Elastic Constant Matrix: (Units=GPa)
#
#
# Indices 1 2 3 4 5 6 
#
# 1 47.1685 37.3137 39.3805 0.0000 0.0000 0.0000
# 2 37.3137 133.6693 68.6847 0.0000 0.0000 0.0000
# 3 39.3805 68.6847 125.4359 0.0000 0.0000 0.0000
# 4 0.0000 0.0000 0.0000 24.0426 0.0000 0.0000
# 5 0.0000 0.0000 0.0000 0.0000 23.3609 0.0000
# 6 0.0000 0.0000 0.0000 0.0000 0.0000 25.9887
#
#
#
# Elastic Compliance Matrix: (Units=1/GPa)
#
#
# Indices 1 2 3 4 5 6 
#
# 1 0.031034 -0.005088 -0.006957 0.000000 0.000000 0.000000
# 2 -0.005088 0.011244 -0.004560 0.000000 0.000000 0.000000
# 3 -0.006957 -0.004560 0.012653 0.000000 0.000000 0.000000
# 4 0.000000 0.000000 0.000000 0.041593 0.000000 0.000000
# 5 0.000000 0.000000 0.000000 0.000000 0.042807 0.000000
# 6 0.000000 0.000000 0.000000 0.000000 0.000000 0.038478
#
#
# Mechanical properties :
#
#
# Convention : Reuss Voigt Hill
#
# Bulk Modulus (GPa) = 46.03677 66.33683 56.18680
# Shear Modulus (GPa) = 22.90849 25.40477 24.15663
#
# Velocity S-wave (km/s) = 3.64735 3.84093 3.74539
# Velocity P-wave (km/s) = 6.66870 7.62842 7.16464
#
# Compressibility (1/GPa) = 0.02172177
#
# Stress axis : x y z
#
# Youngs Moduli (GPa) = 32.22264 88.93240 79.03256
#
# Poissons Ratio (x) = 0.45252 0.54982
# Poissons Ratio (y) = 0.16396 0.36036
# Poissons Ratio (z) = 0.22417 0.40550
#
# Static dielectric constant tensor:
#      x y z
#    x 2.958720 0.000000 0.000000 
#    y 0.000000 3.210840 0.000000 
#    z 0.000000 0.000000 3.292830 
# 
# 
# High freq. dielectric constant tensor:
#      x y z
#    x 1.646070 0.000000 0.000000 
#    y 0.000000 1.655640 0.000000 
#    z 0.000000 0.000000 1.660660 
# 
# From -- ./inp_files/43776.got.cif
#   From: 2010.03.12/outbox.cif.g09.slc.cpg/sg67_22_cif.got.tgz:43776.got - 2010.04.10 22:41:39.
