data_PCOD8278092
_publ_section_title
;
Structure prediction by ZEFSAII (Michael W. Deem and Ramdas Pophale) SiO2 
 PCOD8278092
Probable space group: C M M A
;
_chemical_formula_sum "Si O2"
_cell_formula_units_Z 80
_cell_length_a 19.674448
_cell_length_b 8.595346
_cell_length_c 25.743104
_cell_angle_alpha 90.000000
_cell_angle_beta 90.000000
_cell_angle_gamma 90.000000
_cell_volume 4353.382540
_symmetry_space_group_name_H-M "C M M A"
_symmetry_group_IT_number 67
_symmetry_cell_setting 'orthorhombic'
loop_
_space_group_symop_operation_xyz
x,y,z
-x,1/2-y,z
x,-y,-z
-x,1/2+y,-z
-x,-y,-z
x,1/2+y,-z
-x,y,z
x,1/2-y,z
1/2+x,1/2+y,z
1/2-x,-y,z
1/2+x,1/2-y,-z
1/2-x,y,-z
1/2-x,1/2-y,-z
1/2+x,y,-z
1/2-x,1/2+y,z
1/2+x,-y,z
loop_
_atom_site_type_symbol
_atom_site_label
_atom_site_fract_x
_atom_site_fract_y
_atom_site_fract_z
Si Si1 0.675993 0.564780 0.445289
Si Si2 0.420764 0.930400 0.240860
Si Si3 0.175689 0.068209 0.842760
Si Si4 0.574892 0.434443 0.642246
Si Si5 0.174321 0.566191 0.948163
O O1 0.648520 0.500000 0.500000
O O2 0.678196 0.750000 0.447425
O O3 0.750000 0.500000 0.432925
O O4 0.627352 0.499514 0.399980
O O5 0.500000 0.960751 0.229240
O O6 0.402765 0.750000 0.231626
O O7 0.402834 0.981893 0.299667
O O8 0.374876 0.036664 0.204427
O O9 0.184030 0.250000 0.852023
O O10 0.250000 0.000000 0.830300
O O11 0.141058 0.992580 0.894402
O O12 0.500000 0.502628 0.629980
O O13 0.571843 0.250000 0.638888
O O14 0.173941 0.750000 0.950409
O O15 0.250000 0.500000 0.947537
O O16 0.136657 0.500000 0.000000
#
# Coordination Sequence:
#
# PCOD8278092 Si02
#       5
#    16  16  16  16  16
#     4  10  19  32  50  72 100 131 163 199 243 293
#     4   9  18  35  56  75  99 133 169 205 252 307
#     4  11  21  33  50  75 105 134 170 212 253 298
#     4   8  16  32  53  74  96 126 164 203 244 293
#     4  10  17  28  46  70 100 132 167 206 253 301
#
# _framework density 18.376515999999999
#
# number of rings (size 3 to 8) (size 9 to 14) (size 15 to 20)
#    0.000    2.400    0.000    7.800    0.000    1.600 
#    0.000    4.000    0.000    4.800    0.000    0.000 
#    0.000    0.000    0.000    0.000    0.000    0.000 
#
# Total GULP energy -495853.516217 kJ/mol
# GULP energy per Si atom -12396.337905 kJ/mol
# Density = 1.833469 g / cm^3
# Si number density = 18.376516 Si / 1000 Ang^3
#
#
#
# Elastic Constant Matrix: (Units=GPa)
#
#
# Indices 1 2 3 4 5 6 
#
# 1 66.8196 31.0153 75.6137 0.0000 0.0000 0.0000
# 2 31.0153 112.9296 48.3998 0.0000 0.0000 0.0000
# 3 75.6137 48.3998 168.6436 0.0000 0.0000 0.0000
# 4 0.0000 0.0000 0.0000 24.4793 0.0000 0.0000
# 5 0.0000 0.0000 0.0000 0.0000 8.3457 0.0000
# 6 0.0000 0.0000 0.0000 0.0000 0.0000 19.1169
#
#
#
# Elastic Compliance Matrix: (Units=1/GPa)
#
#
# Indices 1 2 3 4 5 6 
#
# 1 0.031210 -0.002935 -0.013151 0.000000 0.000000 0.000000
# 2 -0.002935 0.010373 -0.001661 0.000000 0.000000 0.000000
# 3 -0.013151 -0.001661 0.012303 0.000000 0.000000 0.000000
# 4 0.000000 0.000000 0.000000 0.040851 0.000000 0.000000
# 5 0.000000 0.000000 0.000000 0.000000 0.119823 0.000000
# 6 0.000000 0.000000 0.000000 0.000000 0.000000 0.052310
#
#
# Mechanical properties :
#
#
# Convention : Reuss Voigt Hill
#
# Bulk Modulus (GPa) = 54.37345 73.16117 63.76731
# Shear Modulus (GPa) = 16.20778 23.27930 19.74354
#
# Velocity S-wave (km/s) = 2.97304 3.56307 3.28134
# Velocity P-wave (km/s) = 6.43724 7.53830 7.00943
#
# Compressibility (1/GPa) = 0.01839133
#
# Stress axis : x y z
#
# Youngs Moduli (GPa) = 32.04113 96.40338 81.28254
#
# Poissons Ratio (x) = 0.28297 1.06894
# Poissons Ratio (y) = 0.09405 0.13501
# Poissons Ratio (z) = 0.42137 0.16012
#
# Static dielectric constant tensor:
#      x y z
#    x 3.248480 0.000000 0.000000 
#    y 0.000000 3.221570 0.000000 
#    z 0.000000 0.000000 4.092880 
# 
# 
# High freq. dielectric constant tensor:
#      x y z
#    x 1.679640 0.000000 0.000000 
#    y 0.000000 1.705880 0.000000 
#    z 0.000000 0.000000 1.732740 
# 
# From -- ./inp_files/43333.got.cif
#   From: 2010.03.12/outbox.cif.g09.slc.cpg/sg67_22_cif.got.tgz:43333.got - 2010.04.10 22:41:39.
