data_PCOD8278869
_publ_section_title
;
Structure prediction by ZEFSAII (Michael W. Deem and Ramdas Pophale) SiO2 
 PCOD8278869
Probable space group: C M M A
;
_chemical_formula_sum "Si O2"
_cell_formula_units_Z 96
_cell_length_a 15.819228
_cell_length_b 19.103884
_cell_length_c 18.003991
_cell_angle_alpha 90.000000
_cell_angle_beta 90.000000
_cell_angle_gamma 90.000000
_cell_volume 5440.962655
_symmetry_space_group_name_H-M "C M M A"
_symmetry_group_IT_number 67
_symmetry_cell_setting 'orthorhombic'
loop_
_space_group_symop_operation_xyz
x,y,z
-x,1/2-y,z
x,-y,-z
-x,1/2+y,-z
-x,-y,-z
x,1/2+y,-z
-x,y,z
x,1/2-y,z
1/2+x,1/2+y,z
1/2-x,-y,z
1/2+x,1/2-y,-z
1/2-x,y,-z
1/2-x,1/2-y,-z
1/2+x,y,-z
1/2-x,1/2+y,z
1/2+x,-y,z
loop_
_atom_site_type_symbol
_atom_site_label
_atom_site_fract_x
_atom_site_fract_y
_atom_site_fract_z
Si Si1 0.000000 0.887304 0.008148
Si Si2 0.782203 0.422446 0.337777
Si Si3 0.174753 0.446566 0.172859
Si Si4 0.500000 0.501802 0.123339
Si Si5 0.320377 0.328827 0.436107
Si Si6 0.595289 0.570220 0.466221
Si Si7 0.668471 0.170163 0.951287
O O1 0.915798 0.840578 0.000564
O O2 0.000000 0.923598 0.089212
O O3 0.000000 0.944678 0.944145
O O4 0.750000 0.500000 0.352131
O O5 0.808957 0.412480 0.252897
O O6 0.709687 0.366724 0.360307
O O7 0.861825 0.406760 0.389758
O O8 0.250000 0.500000 0.150581
O O9 0.170813 0.381549 0.117892
O O10 0.084847 0.487565 0.172449
O O11 0.346055 0.250000 0.415792
O O12 0.250000 0.332664 0.500000
O O13 0.400182 0.369230 0.471134
O O14 0.638275 0.500000 0.500000
O O15 0.500000 0.554300 0.444872
O O16 0.670154 0.250000 0.922312
O O17 0.750000 0.152929 0.000000
#
# Coordination Sequence:
#
# PCOD8278869 Si02
#       7
#     8  16  16   8  16  16  16
#     4   9  17  32  54  76 105 137 177 223 272 320
#     4  10  19  33  52  74 105 139 178 218 272 329
#     4  10  21  34  52  80 111 143 181 230 277 332
#     4   9  18  32  52  78 105 140 175 223 274 319
#     4   9  18  32  51  73  98 134 176 215 264 326
#     4  10  19  31  53  78 102 137 174 222 270 324
#     4  10  20  34  54  78 106 143 187 227 272 330
#
# _framework density 17.643936
#
# number of rings (size 3 to 8) (size 9 to 14) (size 15 to 20)
#    0.000    2.333    1.667    1.250    1.167    2.667 
#    0.000    0.000    0.000    0.000    0.000    0.000 
#    0.000    0.000    0.000    0.000    0.000    0.000 
#
# Total GULP energy -595063.899009 kJ/mol
# GULP energy per Si atom -12397.164563 kJ/mol
# Density = 1.760378 g / cm^3
# Si number density = 17.643936 Si / 1000 Ang^3
#
#
#
# Elastic Constant Matrix: (Units=GPa)
#
#
# Indices 1 2 3 4 5 6 
#
# 1 107.2019 32.7704 41.0159 0.0000 0.0000 0.0000
# 2 32.7704 116.5361 50.0323 0.0000 0.0000 0.0000
# 3 41.0159 50.0323 100.8814 0.0000 0.0000 0.0000
# 4 0.0000 0.0000 0.0000 15.9001 0.0000 0.0000
# 5 0.0000 0.0000 0.0000 0.0000 23.3284 0.0000
# 6 0.0000 0.0000 0.0000 0.0000 0.0000 19.8007
#
#
#
# Elastic Compliance Matrix: (Units=1/GPa)
#
#
# Indices 1 2 3 4 5 6 
#
# 1 0.011256 -0.001525 -0.003820 0.000000 0.000000 0.000000
# 2 -0.001525 0.011109 -0.004889 0.000000 0.000000 0.000000
# 3 -0.003820 -0.004889 0.013891 0.000000 0.000000 0.000000
# 4 0.000000 0.000000 0.000000 0.062893 0.000000 0.000000
# 5 0.000000 0.000000 0.000000 0.000000 0.042866 0.000000
# 6 0.000000 0.000000 0.000000 0.000000 0.000000 0.050503
#
#
# Mechanical properties :
#
#
# Convention : Reuss Voigt Hill
#
# Bulk Modulus (GPa) = 63.34541 63.58407 63.46474
# Shear Modulus (GPa) = 22.90955 25.19255 24.05105
#
# Velocity S-wave (km/s) = 3.60729 3.78276 3.69607
# Velocity P-wave (km/s) = 7.30275 7.42931 7.36630
#
# Compressibility (1/GPa) = 0.01578646
#
# Stress axis : x y z
#
# Youngs Moduli (GPa) = 88.84175 90.01624 71.99071
#
# Poissons Ratio (x) = 0.13729 0.27500
# Poissons Ratio (y) = 0.13550 0.35200
# Poissons Ratio (z) = 0.33937 0.44013
#
# Static dielectric constant tensor:
#      x y z
#    x 3.326470 0.000000 0.000000 
#    y 0.000000 3.338210 0.000000 
#    z 0.000000 0.000000 3.159510 
# 
# 
# High freq. dielectric constant tensor:
#      x y z
#    x 1.684340 0.000000 0.000000 
#    y 0.000000 1.680880 0.000000 
#    z 0.000000 0.000000 1.664640 
# 
# From -- ./inp_files/34276.got.cif
#   From: 2010.03.12/outbox.cif.g09.slc.cpg/sg67_18_cif.got.tgz:34276.got - 2010.04.10 22:41:39.
