data_PCOD8278685
_publ_section_title
;
Structure prediction by ZEFSAII (Michael W. Deem and Ramdas Pophale) SiO2 
 PCOD8278685
Probable space group: C M M A
;
_chemical_formula_sum "Si O2"
_cell_formula_units_Z 112
_cell_length_a 18.242980
_cell_length_b 17.557572
_cell_length_c 18.967625
_cell_angle_alpha 90.000000
_cell_angle_beta 90.000000
_cell_angle_gamma 90.000000
_cell_volume 6075.376471
_symmetry_space_group_name_H-M "C M M A"
_symmetry_group_IT_number 67
_symmetry_cell_setting 'orthorhombic'
loop_
_space_group_symop_operation_xyz
x,y,z
-x,1/2-y,z
x,-y,-z
-x,1/2+y,-z
-x,-y,-z
x,1/2+y,-z
-x,y,z
x,1/2-y,z
1/2+x,1/2+y,z
1/2-x,-y,z
1/2+x,1/2-y,-z
1/2-x,y,-z
1/2-x,1/2-y,-z
1/2+x,y,-z
1/2-x,1/2+y,z
1/2+x,-y,z
loop_
_atom_site_type_symbol
_atom_site_label
_atom_site_fract_x
_atom_site_fract_y
_atom_site_fract_z
Si Si1 0.081731 0.159387 0.030604
Si Si2 0.081819 0.835200 0.230466
Si Si3 0.829530 0.660373 0.100754
Si Si4 0.724487 0.913516 0.572438
Si Si5 0.416122 0.949491 0.642065
Si Si6 0.325061 0.160969 0.841987
Si Si7 0.692998 0.934712 0.297454
O O1 0.083631 0.250000 0.025938
O O2 0.106923 0.135493 0.109253
O O3 0.000000 0.127547 0.018309
O O4 0.135697 0.124791 0.970477
O O5 0.109368 0.750000 0.250274
O O6 0.131155 0.873558 0.170001
O O7 0.085821 0.886105 0.298681
O O8 0.000000 0.831651 0.200017
O O9 0.844172 0.750000 0.099548
O O10 0.744304 0.641012 0.108365
O O11 0.750000 0.870989 0.500000
O O12 0.635666 0.914410 0.579939
O O13 0.766686 0.881768 0.642381
O O14 0.750000 0.000000 0.568487
O O15 0.500000 0.963359 0.615657
O O16 0.381746 0.028190 0.671541
O O17 0.326144 0.250000 0.822856
O O18 0.327755 0.116250 0.768965
O O19 0.750000 0.000000 0.273366
#
# Coordination Sequence:
#
# PCOD8278685 Si02
#       7
#    16  16  16  16  16  16  16
#     4   9  17  28  42  63  90 117 149 195 242 270
#     4   9  16  26  44  71  98 121 147 186 234 275
#     4   9  15  25  43  66  88 112 151 198 233 266
#     4   8  15  30  48  67  93 119 145 185 231 266
#     4   9  17  29  48  72  95 122 154 184 221 275
#     4  10  19  30  47  68  89 119 158 191 224 275
#     4   9  18  32  48  67  93 122 148 183 232 273
#
# _framework density 18.435072000000002
#
# number of rings (size 3 to 8) (size 9 to 14) (size 15 to 20)
#    0.000    3.286    0.000    2.571    0.000    4.000 
#    0.000    5.714    0.000    7.714    0.000    6.000 
#    0.000    0.000    0.000    0.000    0.000    0.000 
#
# Total GULP energy -693774.350245 kJ/mol
# GULP energy per Si atom -12388.827683 kJ/mol
# Density = 1.839311 g / cm^3
# Si number density = 18.435072 Si / 1000 Ang^3
#
#
#
# Elastic Constant Matrix: (Units=GPa)
#
#
# Indices 1 2 3 4 5 6 
#
# 1 124.0075 17.5818 54.8693 0.0000 0.0000 0.0000
# 2 17.5818 22.0964 19.5798 0.0000 0.0000 0.0000
# 3 54.8693 19.5798 114.3398 0.0000 0.0000 0.0000
# 4 0.0000 0.0000 0.0000 18.4228 0.0000 0.0000
# 5 0.0000 0.0000 0.0000 0.0000 26.5055 0.0000
# 6 0.0000 0.0000 0.0000 0.0000 0.0000 13.6528
#
#
#
# Elastic Compliance Matrix: (Units=1/GPa)
#
#
# Indices 1 2 3 4 5 6 
#
# 1 0.010627 -0.004641 -0.004305 0.000000 0.000000 0.000000
# 2 -0.004641 0.055379 -0.007256 0.000000 0.000000 0.000000
# 3 -0.004305 -0.007256 0.012054 0.000000 0.000000 0.000000
# 4 0.000000 0.000000 0.000000 0.054280 0.000000 0.000000
# 5 0.000000 0.000000 0.000000 0.000000 0.037728 0.000000
# 6 0.000000 0.000000 0.000000 0.000000 0.000000 0.073245
#
#
# Mechanical properties :
#
#
# Convention : Reuss Voigt Hill
#
# Bulk Modulus (GPa) = 21.90296 49.38951 35.64623
# Shear Modulus (GPa) = 17.18593 22.94376 20.06484
#
# Velocity S-wave (km/s) = 3.05657 3.53167 3.30268
# Velocity P-wave (km/s) = 4.93597 6.59390 5.82423
#
# Compressibility (1/GPa) = 0.04565593
#
# Stress axis : x y z
#
# Youngs Moduli (GPa) = 94.10188 18.05744 82.95862
#
# Poissons Ratio (x) = 0.08381 0.35712
# Poissons Ratio (y) = 0.43673 0.60195
# Poissons Ratio (z) = 0.40509 0.13103
#
# Static dielectric constant tensor:
#      x y z
#    x 3.753360 0.000000 0.000000 
#    y 0.000000 2.866960 0.000000 
#    z 0.000000 0.000000 4.113310 
# 
# 
# High freq. dielectric constant tensor:
#      x y z
#    x 1.722890 0.000000 0.000000 
#    y 0.000000 1.651870 0.000000 
#    z 0.000000 0.000000 1.716770 
# 
# From -- ./inp_files/34428.got.cif
#   From: 2010.03.12/outbox.cif.g09.slc.cpg/sg67_18_cif.got.tgz:34428.got - 2010.04.10 22:41:39.
