data_PCOD8278911
_publ_section_title
;
Structure prediction by ZEFSAII (Michael W. Deem and Ramdas Pophale) SiO2 
 PCOD8278911
Probable space group: C M M A
;
_chemical_formula_sum "Si O2"
_cell_formula_units_Z 104
_cell_length_a 8.913197
_cell_length_b 30.350953
_cell_length_c 22.885213
_cell_angle_alpha 90.000000
_cell_angle_beta 90.000000
_cell_angle_gamma 90.000000
_cell_volume 6190.999893
_symmetry_space_group_name_H-M "C M M A"
_symmetry_group_IT_number 67
_symmetry_cell_setting 'orthorhombic'
loop_
_space_group_symop_operation_xyz
x,y,z
-x,1/2-y,z
x,-y,-z
-x,1/2+y,-z
-x,-y,-z
x,1/2+y,-z
-x,y,z
x,1/2-y,z
1/2+x,1/2+y,z
1/2-x,-y,z
1/2+x,1/2-y,-z
1/2-x,y,-z
1/2-x,1/2-y,-z
1/2+x,y,-z
1/2-x,1/2+y,z
1/2+x,-y,z
loop_
_atom_site_type_symbol
_atom_site_label
_atom_site_fract_x
_atom_site_fract_y
_atom_site_fract_z
Si Si1 0.170707 0.661252 0.880942
Si Si2 0.673762 0.250000 0.939409
Si Si3 0.322945 0.955905 0.819330
Si Si4 0.322795 0.199630 0.676494
Si Si5 0.167392 0.197881 0.556737
Si Si6 0.326831 0.364783 0.232238
Si Si7 0.328051 0.572460 0.060663
O O1 0.224786 0.707629 0.904337
O O2 0.292680 0.652758 0.831783
O O3 0.181033 0.625284 0.932443
O O4 0.000000 0.662480 0.855672
O O5 0.500000 0.250000 0.951407
O O6 0.750000 0.250000 0.000000
O O7 0.500000 0.960894 0.827388
O O8 0.286315 0.916972 0.772390
O O9 0.252311 0.948900 0.883456
O O10 0.250000 0.000000 0.792296
O O11 0.500000 0.198390 0.672229
O O12 0.270641 0.250000 0.692822
O O13 0.257321 0.184613 0.614499
O O14 0.271079 0.162948 0.722395
O O15 0.159508 0.250000 0.550391
O O16 0.250000 0.177617 0.500000
O O17 0.000000 0.177976 0.560440
O O18 0.500000 0.357419 0.248106
O O19 0.500000 0.556182 0.059107
O O20 0.250000 0.558193 0.000000
#
# Coordination Sequence:
#
# PCOD8278911 Si02
#       7
#    16   8  16  16  16  16  16
#     4   9  19  33  47  64  89 121 154 192 237 284
#     4  10  20  32  46  64  86 114 153 194 233 278
#     4  10  21  37  55  74  95 120 152 193 243 298
#     4  10  20  32  48  71 101 138 175 208 241 281
#     4   9  16  27  44  67  98 135 174 212 247 283
#     4  10  21  35  51  72  97 124 158 200 243 287
#     4  10  19  32  50  70  93 119 148 187 236 291
#
# _framework density 16.798579
#
# number of rings (size 3 to 8) (size 9 to 14) (size 15 to 20)
#    0.000    2.308    0.000    2.769    1.077    6.154 
#    0.000    1.538    0.000    0.000    0.000    0.000 
#    0.000    0.615    0.000    6.462    0.000    3.846 
#
# Total GULP energy -644571.877283 kJ/mol
# GULP energy per Si atom -12395.613025 kJ/mol
# Density = 1.676034 g / cm^3
# Si number density = 16.798579 Si / 1000 Ang^3
#
#
#
# Elastic Constant Matrix: (Units=GPa)
#
#
# Indices 1 2 3 4 5 6 
#
# 1 91.9249 41.8010 43.6270 0.0000 0.0000 0.0000
# 2 41.8010 96.1257 32.0567 0.0000 0.0000 0.0000
# 3 43.6270 32.0567 79.4128 0.0000 0.0000 0.0000
# 4 0.0000 0.0000 0.0000 12.7927 0.0000 0.0000
# 5 0.0000 0.0000 0.0000 0.0000 33.3396 0.0000
# 6 0.0000 0.0000 0.0000 0.0000 0.0000 22.8570
#
#
#
# Elastic Compliance Matrix: (Units=1/GPa)
#
#
# Indices 1 2 3 4 5 6 
#
# 1 0.016414 -0.004773 -0.007091 0.000000 0.000000 0.000000
# 2 -0.004773 0.013409 -0.002791 0.000000 0.000000 0.000000
# 3 -0.007091 -0.002791 0.017614 0.000000 0.000000 0.000000
# 4 0.000000 0.000000 0.000000 0.078169 0.000000 0.000000
# 5 0.000000 0.000000 0.000000 0.000000 0.029994 0.000000
# 6 0.000000 0.000000 0.000000 0.000000 0.000000 0.043750
#
#
# Mechanical properties :
#
#
# Convention : Reuss Voigt Hill
#
# Bulk Modulus (GPa) = 55.16100 55.82586 55.49343
# Shear Modulus (GPa) = 21.30344 23.79645 22.54994
#
# Velocity S-wave (km/s) = 3.56500 3.76782 3.66781
# Velocity P-wave (km/s) = 7.06071 7.22726 7.14447
#
# Compressibility (1/GPa) = 0.01812875
#
# Stress axis : x y z
#
# Youngs Moduli (GPa) = 60.92324 74.57474 56.77188
#
# Poissons Ratio (x) = 0.35596 0.40255
# Poissons Ratio (y) = 0.29080 0.15844
# Poissons Ratio (z) = 0.43198 0.20812
#
# Static dielectric constant tensor:
#      x y z
#    x 3.259580 0.000000 0.000000 
#    y 0.000000 3.361650 0.000000 
#    z 0.000000 0.000000 3.006470 
# 
# 
# High freq. dielectric constant tensor:
#      x y z
#    x 1.663570 0.000000 0.000000 
#    y 0.000000 1.630400 0.000000 
#    z 0.000000 0.000000 1.625240 
# 
# From -- ./inp_files/37491.got.cif
#   From: 2010.03.12/outbox.cif.g09.slc.cpg/sg67_19_cif.got.tgz:37491.got - 2010.04.10 22:41:39.
