data_PCOD8278234
_publ_section_title
;
Structure prediction by ZEFSAII (Michael W. Deem and Ramdas Pophale) SiO2 
 PCOD8278234
Probable space group: C M M A
;
_chemical_formula_sum "Si O2"
_cell_formula_units_Z 128
_cell_length_a 19.069884
_cell_length_b 17.969262
_cell_length_c 21.466751
_cell_angle_alpha 90.000000
_cell_angle_beta 90.000000
_cell_angle_gamma 90.000000
_cell_volume 7356.048958
_symmetry_space_group_name_H-M "C M M A"
_symmetry_group_IT_number 67
_symmetry_cell_setting 'orthorhombic'
loop_
_space_group_symop_operation_xyz
x,y,z
-x,1/2-y,z
x,-y,-z
-x,1/2+y,-z
-x,-y,-z
x,1/2+y,-z
-x,y,z
x,1/2-y,z
1/2+x,1/2+y,z
1/2-x,-y,z
1/2+x,1/2-y,-z
1/2-x,y,-z
1/2-x,1/2-y,-z
1/2+x,y,-z
1/2-x,1/2+y,z
1/2+x,-y,z
loop_
_atom_site_type_symbol
_atom_site_label
_atom_site_fract_x
_atom_site_fract_y
_atom_site_fract_z
Si Si1 0.692509 0.835227 0.254450
Si Si2 0.919984 0.411449 0.495180
Si Si3 0.847461 0.114437 0.748467
Si Si4 0.176689 0.907845 0.616927
Si Si5 0.338333 0.917057 0.614281
Si Si6 0.324759 0.027396 0.826384
Si Si7 0.582191 0.830015 0.867693
Si Si8 0.083195 0.524080 0.067998
O O1 0.668365 0.750000 0.242824
O O2 0.776001 0.839436 0.253382
O O3 0.659090 0.864402 0.319270
O O4 0.668643 0.888511 0.198164
O O5 0.916709 0.500000 0.500000
O O6 0.874112 0.378368 0.438160
O O7 0.885488 0.383203 0.559298
O O8 0.000000 0.383191 0.488524
O O9 0.873426 0.115755 0.677205
O O10 0.900695 0.153091 0.795766
O O11 0.838348 0.028615 0.769039
O O12 0.258172 0.892473 0.601146
O O13 0.160628 0.994599 0.623075
O O14 0.250000 0.000000 0.854654
O O15 0.382305 0.028527 0.880666
O O16 0.500000 0.826597 0.873128
O O17 0.614944 0.750000 0.886629
O O18 0.610068 0.892166 0.915910
O O19 0.000000 0.516335 0.073750
O O20 0.109648 0.500000 0.000000
#
# Coordination Sequence:
#
# PCOD8278234 Si02
#       8
#    16  16  16  16  16  16  16  16
#     4  10  18  29  48  71  95 124 160 199 238 284
#     4   9  17  27  41  65  91 114 148 197 245 281
#     4   9  16  28  47  70  96 123 155 195 241 286
#     4   9  16  28  44  64  90 120 153 193 235 285
#     4   9  15  26  46  67  88 116 155 194 236 282
#     4   9  17  31  50  73  99 125 156 196 237 279
#     4   9  17  29  46  70  99 128 157 191 238 291
#     4   9  18  33  52  73  98 130 165 197 230 273
#
# _framework density 17.400645999999998
#
# number of rings (size 3 to 8) (size 9 to 14) (size 15 to 20)
#    0.000    2.875    1.250    0.750    0.000    2.250 
#    0.000    1.250    0.000    9.000    0.000    5.250 
#    0.000    0.000    0.000    0.000    0.000    0.000 
#
# Total GULP energy -792981.135774 kJ/mol
# GULP energy per Si atom -12390.330246 kJ/mol
# Density = 1.736104 g / cm^3
# Si number density = 17.400646 Si / 1000 Ang^3
#
#
#
# Elastic Constant Matrix: (Units=GPa)
#
#
# Indices 1 2 3 4 5 6 
#
# 1 45.5019 26.8977 46.7912 0.0000 0.0000 0.0000
# 2 26.8977 93.5041 53.1875 0.0000 0.0000 0.0000
# 3 46.7912 53.1875 137.4582 0.0000 0.0000 0.0000
# 4 0.0000 0.0000 0.0000 14.2504 0.0000 0.0000
# 5 0.0000 0.0000 0.0000 0.0000 28.5266 0.0000
# 6 0.0000 0.0000 0.0000 0.0000 0.0000 10.4351
#
#
#
# Elastic Compliance Matrix: (Units=1/GPa)
#
#
# Indices 1 2 3 4 5 6 
#
# 1 0.035071 -0.004228 -0.010302 0.000000 0.000000 0.000000
# 2 -0.004228 0.014223 -0.004064 0.000000 0.000000 0.000000
# 3 -0.010302 -0.004064 0.012354 0.000000 0.000000 0.000000
# 4 0.000000 0.000000 0.000000 0.070173 0.000000 0.000000
# 5 0.000000 0.000000 0.000000 0.000000 0.035055 0.000000
# 6 0.000000 0.000000 0.000000 0.000000 0.000000 0.095831
#
#
# Mechanical properties :
#
#
# Convention : Reuss Voigt Hill
#
# Bulk Modulus (GPa) = 40.88504 58.91301 49.89903
# Shear Modulus (GPa) = 16.23123 20.61495 18.42309
#
# Velocity S-wave (km/s) = 3.05748 3.44571 3.25739
# Velocity P-wave (km/s) = 6.00096 7.05414 6.54876
#
# Compressibility (1/GPa) = 0.02445882
#
# Stress axis : x y z
#
# Youngs Moduli (GPa) = 28.51395 70.30994 80.94389
#
# Poissons Ratio (x) = 0.29730 0.83388
# Poissons Ratio (y) = 0.12057 0.32895
# Poissons Ratio (z) = 0.29375 0.28573
#
# Static dielectric constant tensor:
#      x y z
#    x 3.112410 0.000000 0.000000 
#    y 0.000000 3.279310 0.000000 
#    z 0.000000 0.000000 3.308720 
# 
# 
# High freq. dielectric constant tensor:
#      x y z
#    x 1.651070 0.000000 0.000000 
#    y 0.000000 1.647710 0.000000 
#    z 0.000000 0.000000 1.670690 
# 
# From -- ./inp_files/39408.got.cif
#   From: 2010.03.12/outbox.cif.g09.slc.cpg/sg67_20_cif.got.tgz:39408.got - 2010.04.10 22:41:39.
