data_PCOD8278437
_publ_section_title
;
Structure prediction by ZEFSAII (Michael W. Deem and Ramdas Pophale) SiO2 
 PCOD8278437
Probable space group: C M M A
;
_chemical_formula_sum "Si O2"
_cell_formula_units_Z 120
_cell_length_a 28.635066
_cell_length_b 8.828430
_cell_length_c 29.719711
_cell_angle_alpha 90.000000
_cell_angle_beta 90.000000
_cell_angle_gamma 90.000000
_cell_volume 7513.222463
_symmetry_space_group_name_H-M "C M M A"
_symmetry_group_IT_number 67
_symmetry_cell_setting 'orthorhombic'
loop_
_space_group_symop_operation_xyz
x,y,z
-x,1/2-y,z
x,-y,-z
-x,1/2+y,-z
-x,-y,-z
x,1/2+y,-z
-x,y,z
x,1/2-y,z
1/2+x,1/2+y,z
1/2-x,-y,z
1/2+x,1/2-y,-z
1/2-x,y,-z
1/2-x,1/2-y,-z
1/2+x,y,-z
1/2-x,1/2+y,z
1/2+x,-y,z
loop_
_atom_site_type_symbol
_atom_site_label
_atom_site_fract_x
_atom_site_fract_y
_atom_site_fract_z
Si Si1 0.395811 0.928380 0.629553
Si Si2 0.551432 0.578382 0.876420
Si Si3 0.202308 0.929163 0.231349
Si Si4 0.610550 0.571421 0.199305
Si Si5 0.445548 0.425308 0.712403
Si Si6 0.797179 0.072311 0.665978
Si Si7 0.553278 0.928270 0.453107
Si Si8 0.000000 0.069539 0.049025
O O1 0.400089 0.750000 0.622589
O O2 0.342151 0.978777 0.637376
O O3 0.427397 0.973501 0.671694
O O4 0.412852 0.012026 0.585245
O O5 0.500000 0.580802 0.853060
O O6 0.569607 0.750000 0.883903
O O7 0.586791 0.485753 0.845951
O O8 0.546161 0.492101 0.924534
O O9 0.203975 0.750000 0.226963
O O10 0.194910 0.982881 0.282869
O O11 0.250000 0.000000 0.212351
O O12 0.160768 0.993954 0.201472
O O13 0.616393 0.750000 0.196970
O O14 0.579944 0.522112 0.242208
O O15 0.500000 0.455543 0.719111
O O16 0.435385 0.250000 0.701265
O O17 0.790504 0.250000 0.664469
O O18 0.750000 0.000000 0.645499
O O19 0.500000 0.975447 0.441759
O O20 0.558396 0.750000 0.456908
O O21 0.569454 0.000000 0.500000
O O22 0.000000 0.250000 0.047112
O O23 0.000000 0.000000 0.000000
#
# Coordination Sequence:
#
# PCOD8278437 Si02
#       8
#    16  16  16  16  16  16  16   8
#     4  11  21  34  51  75 100 126 160 200 244 291
#     4   9  19  32  47  70  99 136 175 213 257 304
#     4  10  19  33  49  68  95 128 171 216 256 302
#     4  11  20  31  48  69  98 136 173 211 256 303
#     4  10  21  33  45  66  97 133 169 203 238 286
#     4   9  19  33  50  71  96 125 162 203 245 291
#     4  10  21  37  56  77 100 127 158 194 237 288
#     4  10  18  32  52  74 102 136 178 224 265 308
#
# _framework density 15.971841
#
# number of rings (size 3 to 8) (size 9 to 14) (size 15 to 20)
#    0.400    1.600    1.333    3.200    0.000    5.333 
#    0.000    0.000    0.000    0.400    0.000    2.800 
#    0.000    0.533    0.000    5.333    0.000    3.200 
#
# Total GULP energy -744013.430426 kJ/mol
# GULP energy per Si atom -12400.223840 kJ/mol
# Density = 1.593549 g / cm^3
# Si number density = 15.971841 Si / 1000 Ang^3
#
#
#
# Elastic Constant Matrix: (Units=GPa)
#
#
# Indices 1 2 3 4 5 6 
#
# 1 107.0394 38.1882 53.9510 0.0000 0.0000 0.0000
# 2 38.1882 75.6107 40.7566 0.0000 0.0000 0.0000
# 3 53.9510 40.7566 104.6724 0.0000 0.0000 0.0000
# 4 0.0000 0.0000 0.0000 28.5256 0.0000 0.0000
# 5 0.0000 0.0000 0.0000 0.0000 -48.9028 0.0000
# 6 0.0000 0.0000 0.0000 0.0000 0.0000 29.0738
#
#
#
# Elastic Compliance Matrix: (Units=1/GPa)
#
#
# Indices 1 2 3 4 5 6 
#
# 1 0.013461 -0.003871 -0.005431 0.000000 0.000000 0.000000
# 2 -0.003871 0.017852 -0.004956 0.000000 0.000000 0.000000
# 3 -0.005431 -0.004956 0.014282 0.000000 0.000000 0.000000
# 4 0.000000 0.000000 0.000000 0.035056 0.000000 0.000000
# 5 0.000000 0.000000 0.000000 0.000000 -0.020449 0.000000
# 6 0.000000 0.000000 0.000000 0.000000 0.000000 0.034395
#
#
# Mechanical properties :
#
#
# Convention : Reuss Voigt Hill
#
# Bulk Modulus (GPa) = 58.54842 61.45713 60.00277
# Shear Modulus (GPa) = 38.81786 12.03444 25.42615
#
# Velocity S-wave (km/s) = 4.93525 2.74793 3.99424
# Velocity P-wave (km/s) = 8.31940 6.97353 7.67602
#
# Compressibility (1/GPa) = 0.01707988
#
# Stress axis : x y z
#
# Youngs Moduli (GPa) = 74.29042 56.01547 70.01627
#
# Poissons Ratio (x) = 0.21685 0.38023
# Poissons Ratio (y) = 0.28759 0.34699
# Poissons Ratio (z) = 0.40345 0.27760
#
# Static dielectric constant tensor:
#      x y z
#    x 3.049770 0.000000 0.000000 
#    y 0.000000 3.117850 0.000000 
#    z 0.000000 0.000000 2.708190 
# 
# 
# High freq. dielectric constant tensor:
#      x y z
#    x 1.607530 0.000000 0.000000 
#    y 0.000000 1.629340 0.000000 
#    z 0.000000 0.000000 1.586200 
# 
# From -- ./inp_files/45027.got.cif
#   From: 2010.03.12/outbox.cif.g09.slc.cpg/sg67_23_cif.got.tgz:45027.got - 2010.04.10 22:41:39.
