data_PCOD8278574
_publ_section_title
;
Structure prediction by ZEFSAII (Michael W. Deem and Ramdas Pophale) SiO2 
 PCOD8278574
Probable space group: C M M A
;
_chemical_formula_sum "Si O2"
_cell_formula_units_Z 96
_cell_length_a 17.727270
_cell_length_b 24.060451
_cell_length_c 12.029148
_cell_angle_alpha 90.000000
_cell_angle_beta 90.000000
_cell_angle_gamma 90.000000
_cell_volume 5130.745717
_symmetry_space_group_name_H-M "C M M A"
_symmetry_group_IT_number 67
_symmetry_cell_setting 'orthorhombic'
loop_
_space_group_symop_operation_xyz
x,y,z
-x,1/2-y,z
x,-y,-z
-x,1/2+y,-z
-x,-y,-z
x,1/2+y,-z
-x,y,z
x,1/2-y,z
1/2+x,1/2+y,z
1/2-x,-y,z
1/2+x,1/2-y,-z
1/2-x,y,-z
1/2-x,1/2-y,-z
1/2+x,y,-z
1/2-x,1/2+y,z
1/2+x,-y,z
loop_
_atom_site_type_symbol
_atom_site_label
_atom_site_fract_x
_atom_site_fract_y
_atom_site_fract_z
Si Si1 0.084286 0.866995 0.250236
Si Si2 0.874233 0.544443 0.080289
Si Si3 0.767034 0.608082 0.371124
Si Si4 0.250000 0.616467 0.000000
Si Si5 0.250000 0.500000 0.758839
Si Si6 0.715069 0.811303 0.200508
Si Si7 0.410601 0.750000 0.851319
Si Si8 0.411203 0.250000 0.893901
O O1 0.075497 0.911580 0.148900
O O2 0.143154 0.887577 0.344090
O O3 0.115792 0.806959 0.208965
O O4 0.000000 0.861147 0.301743
O O5 0.823392 0.578263 0.992357
O O6 0.822975 0.510790 0.166866
O O7 0.918909 0.500000 0.000000
O O8 0.750000 0.608414 0.500000
O O9 0.732471 0.552439 0.319238
O O10 0.721494 0.660289 0.320220
O O11 0.240134 0.651673 0.111924
O O12 0.754356 0.750000 0.202050
O O13 0.626800 0.804317 0.164540
O O14 0.500000 0.750000 0.854660
O O15 0.383411 0.750000 0.978951
O O16 0.500000 0.250000 0.874963
#
# Coordination Sequence:
#
# PCOD8278574 Si02
#       8
#    16  16  16   8   8  16   8   8
#     4  10  22  37  57  84 119 153 192 242 294 350
#     4  11  18  30  56  85 120 150 186 235 291 345
#     4  11  23  39  60  82 109 149 205 251 286 335
#     4  12  16  32  54  90 118 146 190 228 284 350
#     4  10  18  36  56  82 108 147 195 246 284 330
#     4  10  22  32  56  85 114 152 189 233 285 345
#     4   9  18  35  55  82 118 157 184 217 282 359
#     4   9  20  34  52  83 126 155 184 227 284 352
#
# _framework density 18.710730000000002
#
# number of rings (size 3 to 8) (size 9 to 14) (size 15 to 20)
#    0.500    1.167    5.000    1.500    1.167    0.667 
#    0.000    0.833    0.000   16.000    0.000    0.000 
#    0.000    0.000    0.000    0.000    0.000    0.000 
#
# Total GULP energy -594808.368865 kJ/mol
# GULP energy per Si atom -12391.841018 kJ/mol
# Density = 1.866814 g / cm^3
# Si number density = 18.710730 Si / 1000 Ang^3
#
#
#
# Elastic Constant Matrix: (Units=GPa)
#
#
# Indices 1 2 3 4 5 6 
#
# 1 62.4225 26.9394 19.9279 0.0000 0.0000 0.0000
# 2 26.9394 126.4411 58.4416 0.0000 0.0000 0.0000
# 3 19.9279 58.4416 113.5368 0.0000 0.0000 0.0000
# 4 0.0000 0.0000 0.0000 200.6890 0.0000 0.0000
# 5 0.0000 0.0000 0.0000 0.0000 18.0072 0.0000
# 6 0.0000 0.0000 0.0000 0.0000 0.0000 13.6952
#
#
#
# Elastic Compliance Matrix: (Units=1/GPa)
#
#
# Indices 1 2 3 4 5 6 
#
# 1 0.017845 -0.003089 -0.001542 0.000000 0.000000 0.000000
# 2 -0.003089 0.010913 -0.005075 0.000000 0.000000 0.000000
# 3 -0.001542 -0.005075 0.011691 0.000000 0.000000 0.000000
# 4 0.000000 0.000000 0.000000 0.004983 0.000000 0.000000
# 5 0.000000 0.000000 0.000000 0.000000 0.055533 0.000000
# 6 0.000000 0.000000 0.000000 0.000000 0.000000 0.073018
#
#
# Mechanical properties :
#
#
# Convention : Reuss Voigt Hill
#
# Bulk Modulus (GPa) = 47.53734 57.00203 52.26969
# Shear Modulus (GPa) = 24.94914 59.61770 42.28342
#
# Velocity S-wave (km/s) = 3.65555 5.65084 4.75894
# Velocity P-wave (km/s) = 6.57868 8.55027 7.62844
#
# Compressibility (1/GPa) = 0.02103609
#
# Stress axis : x y z
#
# Youngs Moduli (GPa) = 56.03680 91.63641 85.53870
#
# Poissons Ratio (x) = 0.28310 0.13190
# Poissons Ratio (y) = 0.17312 0.43410
# Poissons Ratio (z) = 0.08641 0.46505
#
# Static dielectric constant tensor:
#      x y z
#    x 3.209070 0.000000 0.000000 
#    y 0.000000 3.831020 0.000000 
#    z 0.000000 0.000000 3.141830 
# 
# 
# High freq. dielectric constant tensor:
#      x y z
#    x 1.710410 0.000000 0.000000 
#    y 0.000000 1.748300 0.000000 
#    z 0.000000 0.000000 1.693590 
# 
# From -- ./inp_files/21058.got.cif
#   From: 2010.03.12/outbox.cif.g09.slc.cpg/sg67_11_cif.got.tgz:21058.got - 2010.04.10 22:41:39.
