data_PCOD8278926
_publ_section_title
;
Structure prediction by ZEFSAII (Michael W. Deem and Ramdas Pophale) SiO2 
 PCOD8278926
Probable space group: C M M A
;
_chemical_formula_sum "Si O2"
_cell_formula_units_Z 96
_cell_length_a 27.117104
_cell_length_b 8.747339
_cell_length_c 23.701007
_cell_angle_alpha 90.000000
_cell_angle_beta 90.000000
_cell_angle_gamma 90.000000
_cell_volume 5621.938146
_symmetry_space_group_name_H-M "C M M A"
_symmetry_group_IT_number 67
_symmetry_cell_setting 'orthorhombic'
loop_
_space_group_symop_operation_xyz
x,y,z
-x,1/2-y,z
x,-y,-z
-x,1/2+y,-z
-x,-y,-z
x,1/2+y,-z
-x,y,z
x,1/2-y,z
1/2+x,1/2+y,z
1/2-x,-y,z
1/2+x,1/2-y,-z
1/2-x,y,-z
1/2-x,1/2-y,-z
1/2+x,y,-z
1/2-x,1/2+y,z
1/2+x,-y,z
loop_
_atom_site_type_symbol
_atom_site_label
_atom_site_fract_x
_atom_site_fract_y
_atom_site_fract_z
Si Si1 0.649137 0.071246 0.663449
Si Si2 0.555872 0.070466 0.941665
Si Si3 0.897541 0.426393 0.835761
Si Si4 0.199390 0.070639 0.769119
Si Si5 0.055194 0.425202 0.267839
Si Si6 0.802706 0.068744 0.559440
O O1 0.658217 0.250000 0.653105
O O2 0.593067 0.034874 0.682114
O O3 0.686823 0.013339 0.710806
O O4 0.657384 0.978717 0.606012
O O5 0.500000 0.013869 0.928956
O O6 0.557751 0.250000 0.947702
O O7 0.592143 0.020643 0.891977
O O8 0.575357 0.000000 0.000000
O O9 0.905010 0.250000 0.849756
O O10 0.842065 0.463497 0.815872
O O11 0.935572 0.471223 0.786656
O O12 0.204436 0.250000 0.757150
O O13 0.250000 0.000000 0.792822
O O14 0.062408 0.250000 0.248639
O O15 0.000000 0.455663 0.290449
O O16 0.798549 0.250000 0.554628
O O17 0.820351 0.000000 0.500000
O O18 0.750000 0.000000 0.577110
#
# Coordination Sequence:
#
# PCOD8278926 Si02
#       6
#    16  16  16  16  16  16
#     4  10  19  32  50  72  99 129 160 196 239 283
#     4  10  20  33  50  72  98 128 161 196 236 283
#     4  10  20  32  48  72 100 128 159 197 240 285
#     4  10  20  33  49  71  98 128 162 198 238 283
#     4   9  18  32  50  72  98 129 163 197 235 281
#     4  11  21  34  51  72  98 126 159 196 238 286
#
# _framework density 17.075961
#
# number of rings (size 3 to 8) (size 9 to 14) (size 15 to 20)
#    0.000    2.000    0.000    5.000    0.000    6.000 
#    0.000    0.000    0.000    1.000    0.000    3.500 
#    0.000    0.000    0.000    0.000    0.000    0.000 
#
# Total GULP energy -595377.573577 kJ/mol
# GULP energy per Si atom -12403.699450 kJ/mol
# Density = 1.703710 g / cm^3
# Si number density = 17.075961 Si / 1000 Ang^3
#
#
#
# Elastic Constant Matrix: (Units=GPa)
#
#
# Indices 1 2 3 4 5 6 
#
# 1 103.2225 39.2937 54.4275 0.0000 0.0000 0.0000
# 2 39.2937 96.8399 50.7258 0.0000 0.0000 0.0000
# 3 54.4275 50.7258 118.1274 0.0000 0.0000 0.0000
# 4 0.0000 0.0000 0.0000 33.5610 0.0000 0.0000
# 5 0.0000 0.0000 0.0000 0.0000 22.1903 0.0000
# 6 0.0000 0.0000 0.0000 0.0000 0.0000 24.0817
#
#
#
# Elastic Compliance Matrix: (Units=1/GPa)
#
#
# Indices 1 2 3 4 5 6 
#
# 1 0.013375 -0.002837 -0.004944 0.000000 0.000000 0.000000
# 2 -0.002837 0.013925 -0.004672 0.000000 0.000000 0.000000
# 3 -0.004944 -0.004672 0.012750 0.000000 0.000000 0.000000
# 4 0.000000 0.000000 0.000000 0.029797 0.000000 0.000000
# 5 0.000000 0.000000 0.000000 0.000000 0.045065 0.000000
# 6 0.000000 0.000000 0.000000 0.000000 0.000000 0.041525
#
#
# Mechanical properties :
#
#
# Convention : Reuss Voigt Hill
#
# Bulk Modulus (GPa) = 66.04035 67.45376 66.74706
# Shear Modulus (GPa) = 26.82533 27.54944 27.18739
#
# Velocity S-wave (km/s) = 3.96781 4.02101 3.99450
# Velocity P-wave (km/s) = 7.72980 7.81959 7.77482
#
# Compressibility (1/GPa) = 0.01514226
#
# Stress axis : x y z
#
# Youngs Moduli (GPa) = 74.76748 71.81347 78.43217
#
# Poissons Ratio (x) = 0.20375 0.38778
# Poissons Ratio (y) = 0.21213 0.36646
# Poissons Ratio (z) = 0.36966 0.33554
#
# Static dielectric constant tensor:
#      x y z
#    x 3.187630 0.000000 0.000000 
#    y 0.000000 3.315250 0.000000 
#    z 0.000000 0.000000 3.097070 
# 
# 
# High freq. dielectric constant tensor:
#      x y z
#    x 1.647220 0.000000 0.000000 
#    y 0.000000 1.676530 0.000000 
#    z 0.000000 0.000000 1.647570 
# 
# From -- ./inp_files/39865.got.cif
#   From: 2010.03.12/outbox.cif.g09.slc.cpg/sg67_20_cif.got.tgz:39865.got - 2010.04.10 22:41:39.
