data_PCOD8278415
_publ_section_title
;
Structure prediction by ZEFSAII (Michael W. Deem and Ramdas Pophale) SiO2 
 PCOD8278415
Probable space group: C M M A
;
_chemical_formula_sum "Si O2"
_cell_formula_units_Z 112
_cell_length_a 17.574014
_cell_length_b 29.422107
_cell_length_c 12.324291
_cell_angle_alpha 90.000000
_cell_angle_beta 90.000000
_cell_angle_gamma 90.000000
_cell_volume 6372.453614
_symmetry_space_group_name_H-M "C M M A"
_symmetry_group_IT_number 67
_symmetry_cell_setting 'orthorhombic'
loop_
_space_group_symop_operation_xyz
x,y,z
-x,1/2-y,z
x,-y,-z
-x,1/2+y,-z
-x,-y,-z
x,1/2+y,-z
-x,y,z
x,1/2-y,z
1/2+x,1/2+y,z
1/2-x,-y,z
1/2+x,1/2-y,-z
1/2-x,y,-z
1/2-x,1/2-y,-z
1/2+x,y,-z
1/2-x,1/2+y,z
1/2+x,-y,z
loop_
_atom_site_type_symbol
_atom_site_label
_atom_site_fract_x
_atom_site_fract_y
_atom_site_fract_z
Si Si1 0.666016 0.555543 0.325560
Si Si2 0.341658 0.452123 0.295424
Si Si3 0.090264 0.799248 0.788161
Si Si4 0.089957 0.799120 0.543102
Si Si5 0.411293 0.104855 0.475489
Si Si6 0.412044 0.544959 0.935169
Si Si7 0.588401 0.393316 0.868230
O O1 0.643296 0.502942 0.336942
O O2 0.755859 0.562610 0.317810
O O3 0.636711 0.580165 0.432281
O O4 0.630017 0.574575 0.216490
O O5 0.396640 0.417841 0.359468
O O6 0.358851 0.448495 0.168219
O O7 0.121089 0.750000 0.830665
O O8 0.119342 0.807548 0.665606
O O9 0.119562 0.841344 0.861525
O O10 0.000000 0.798016 0.790371
O O11 0.121922 0.750000 0.499945
O O12 0.115305 0.842057 0.469839
O O13 0.000000 0.796017 0.544725
O O14 0.500000 0.101355 0.505714
O O15 0.500000 0.540819 0.899018
O O16 0.387011 0.500000 0.000000
O O17 0.397843 0.588776 0.010601
O O18 0.500000 0.395378 0.836858
#
# Coordination Sequence:
#
# PCOD8278415 Si02
#       7
#    16  16  16  16  16  16  16
#     4  11  22  36  51  74 104 141 175 214 255 310
#     4  11  24  37  49  72 108 148 176 203 255 315
#     4   8  13  24  46  77 107 128 159 215 272 308
#     4   8  14  26  48  78 104 125 159 212 267 311
#     4  11  21  34  56  79 104 136 173 215 261 309
#     4  10  20  35  55  77 102 132 176 224 254 295
#     4  10  18  31  54  80 104 130 171 224 265 296
#
# _framework density 17.575647
#
# number of rings (size 3 to 8) (size 9 to 14) (size 15 to 20)
#    0.000    2.143    2.857    2.571    0.000    4.000 
#    0.000    0.000    0.000    3.429    0.000    5.000 
#    0.000    0.000    0.000    0.000    0.000    0.000 
#
# Total GULP energy -694155.376303 kJ/mol
# GULP energy per Si atom -12395.631720 kJ/mol
# Density = 1.753564 g / cm^3
# Si number density = 17.575647 Si / 1000 Ang^3
#
#
#
# Elastic Constant Matrix: (Units=GPa)
#
#
# Indices 1 2 3 4 5 6 
#
# 1 45.3668 48.5734 32.2764 0.0000 0.0000 0.0000
# 2 48.5734 155.7909 59.5087 0.0000 0.0000 0.0000
# 3 32.2764 59.5087 86.0825 0.0000 0.0000 0.0000
# 4 0.0000 0.0000 0.0000 25.2697 0.0000 0.0000
# 5 0.0000 0.0000 0.0000 0.0000 17.4543 0.0000
# 6 0.0000 0.0000 0.0000 0.0000 0.0000 2.9842
#
#
#
# Elastic Compliance Matrix: (Units=1/GPa)
#
#
# Indices 1 2 3 4 5 6 
#
# 1 0.036697 -0.008405 -0.007949 0.000000 0.000000 0.000000
# 2 -0.008405 0.010647 -0.004209 0.000000 0.000000 0.000000
# 3 -0.007949 -0.004209 0.017507 0.000000 0.000000 0.000000
# 4 0.000000 0.000000 0.000000 0.039573 0.000000 0.000000
# 5 0.000000 0.000000 0.000000 0.000000 0.057292 0.000000
# 6 0.000000 0.000000 0.000000 0.000000 0.000000 0.335102
#
#
# Mechanical properties :
#
#
# Convention : Reuss Voigt Hill
#
# Bulk Modulus (GPa) = 42.14958 63.10634 52.62796
# Shear Modulus (GPa) = 9.15997 18.93375 14.04686
#
# Velocity S-wave (km/s) = 2.28540 3.28574 2.83012
# Velocity P-wave (km/s) = 5.56758 7.09777 6.37872
#
# Compressibility (1/GPa) = 0.02372503
#
# Stress axis : x y z
#
# Youngs Moduli (GPa) = 27.24989 93.92124 57.12087
#
# Poissons Ratio (x) = 0.78945 0.45405
# Poissons Ratio (y) = 0.22905 0.24041
# Poissons Ratio (z) = 0.21661 0.39530
#
# Static dielectric constant tensor:
#      x y z
#    x 2.996360 0.000000 0.000000 
#    y 0.000000 3.914920 0.000000 
#    z 0.000000 0.000000 3.113940 
# 
# 
# High freq. dielectric constant tensor:
#      x y z
#    x 1.648680 0.000000 0.000000 
#    y 0.000000 1.696090 0.000000 
#    z 0.000000 0.000000 1.659190 
# 
# From -- ./inp_files/18646.got.cif
#   From: 2010.03.12/outbox.cif.g09.slc.cpg/sg67_10_cif.got.tgz:18646.got - 2010.04.10 22:41:39.
