data_PCOD8278587
_publ_section_title
;
Structure prediction by ZEFSAII (Michael W. Deem and Ramdas Pophale) SiO2 
 PCOD8278587
Probable space group: C M M A
;
_chemical_formula_sum "Si O2"
_cell_formula_units_Z 72
_cell_length_a 13.621268
_cell_length_b 30.272507
_cell_length_c 8.705307
_cell_angle_alpha 90.000000
_cell_angle_beta 90.000000
_cell_angle_gamma 90.000000
_cell_volume 3589.632740
_symmetry_space_group_name_H-M "C M M A"
_symmetry_group_IT_number 67
_symmetry_cell_setting 'orthorhombic'
loop_
_space_group_symop_operation_xyz
x,y,z
-x,1/2-y,z
x,-y,-z
-x,1/2+y,-z
-x,-y,-z
x,1/2+y,-z
-x,y,z
x,1/2-y,z
1/2+x,1/2+y,z
1/2-x,-y,z
1/2+x,1/2-y,-z
1/2-x,y,-z
1/2-x,1/2-y,-z
1/2+x,y,-z
1/2-x,1/2+y,z
1/2+x,-y,z
loop_
_atom_site_type_symbol
_atom_site_label
_atom_site_fract_x
_atom_site_fract_y
_atom_site_fract_z
Si Si1 0.000000 0.250000 0.019794
Si Si2 0.744838 0.925704 0.818987
Si Si3 0.500000 0.750000 0.539408
Si Si4 0.500000 0.680264 0.282111
Si Si5 0.172138 0.250000 0.775397
Si Si6 0.280428 0.335757 0.675473
Si Si7 0.606539 0.997638 0.182554
O O1 0.000000 0.293344 0.123425
O O2 0.898774 0.250000 0.923381
O O3 0.726780 0.879676 0.733659
O O4 0.841417 0.952396 0.765147
O O5 0.656691 0.957151 0.763391
O O6 0.750000 0.916544 0.000000
O O7 0.500000 0.707644 0.436167
O O8 0.600739 0.750000 0.630833
O O9 0.396475 0.654246 0.292795
O O10 0.242807 0.293049 0.771817
O O11 0.250000 0.327671 0.500000
O O12 0.500000 0.996257 0.257583
O O13 0.605540 0.000000 0.000000
#
# Coordination Sequence:
#
# PCOD8278587 Si02
#       7
#     4  16   4   8   8  16  16
#     4  10  26  42  66  96 118 154 218 272 302 358
#     4   9  20  36  60  93 121 154 206 256 310 366
#     4  10  18  44  64  80 110 172 218 232 300 376
#     4  11  24  40  64  92 118 162 217 256 309 360
#     4  11  23  43  65  86 124 170 202 253 310 359
#     4  12  25  42  64  88 128 174 209 250 304 375
#     4   8  15  35  61  86 120 158 194 252 320 371
#
# _framework density 20.057762
#
# number of rings (size 3 to 8) (size 9 to 14) (size 15 to 20)
#    0.000    2.000    2.222    3.000    4.667    0.889 
#    6.000    2.222    0.000    1.333    0.000    0.000 
#    0.000    0.000    0.000    0.000    0.000    0.000 
#
# Total GULP energy -446074.964155 kJ/mol
# GULP energy per Si atom -12390.971227 kJ/mol
# Density = 2.001211 g / cm^3
# Si number density = 20.057762 Si / 1000 Ang^3
#
#
#
# Elastic Constant Matrix: (Units=GPa)
#
#
# Indices 1 2 3 4 5 6 
#
# 1 153.2282 49.6552 24.7618 0.0000 0.0000 0.0000
# 2 49.6552 148.1803 25.8720 0.0000 0.0000 0.0000
# 3 24.7618 25.8720 69.4430 0.0000 0.0000 0.0000
# 4 0.0000 0.0000 0.0000 27.2080 0.0000 0.0000
# 5 0.0000 0.0000 0.0000 0.0000 4.3495 0.0000
# 6 0.0000 0.0000 0.0000 0.0000 0.0000 34.5183
#
#
#
# Elastic Compliance Matrix: (Units=1/GPa)
#
#
# Indices 1 2 3 4 5 6 
#
# 1 0.007541 -0.002201 -0.001869 0.000000 0.000000 0.000000
# 2 -0.002201 0.007860 -0.002144 0.000000 0.000000 0.000000
# 3 -0.001869 -0.002144 0.015865 0.000000 0.000000 0.000000
# 4 0.000000 0.000000 0.000000 0.036754 0.000000 0.000000
# 5 0.000000 0.000000 0.000000 0.000000 0.229912 0.000000
# 6 0.000000 0.000000 0.000000 0.000000 0.000000 0.028970
#
#
# Mechanical properties :
#
#
# Convention : Reuss Voigt Hill
#
# Bulk Modulus (GPa) = 53.07888 63.49215 58.28552
# Shear Modulus (GPa) = 14.46715 31.25265 22.85990
#
# Velocity S-wave (km/s) = 2.68857 3.95160 3.37961
# Velocity P-wave (km/s) = 6.01318 7.24869 6.65965
#
# Compressibility (1/GPa) = 0.01883988
#
# Stress axis : x y z
#
# Youngs Moduli (GPa) = 132.60031 127.22151 63.02989
#
# Poissons Ratio (x) = 0.27999 0.11781
# Poissons Ratio (y) = 0.29182 0.13512
# Poissons Ratio (z) = 0.24785 0.27273
#
# Static dielectric constant tensor:
#      x y z
#    x 4.675280 0.000000 0.000000 
#    y 0.000000 3.514000 0.000000 
#    z 0.000000 0.000000 3.356510 
# 
# 
# High freq. dielectric constant tensor:
#      x y z
#    x 1.796350 0.000000 0.000000 
#    y 0.000000 1.779020 0.000000 
#    z 0.000000 0.000000 1.760080 
# 
# From -- ./inp_files/8389.got.cif
#   From: 2010.03.12/outbox.cif.g09.slc.cpg/sg67_5_cif.got.tgz:8389.got - 2010.04.10 22:41:39.
