data_PCOD8278972
_publ_section_title
;
Structure prediction by ZEFSAII (Michael W. Deem and Ramdas Pophale) SiO2 
 PCOD8278972
Probable space group: C M M A
;
_chemical_formula_sum "Si O2"
_cell_formula_units_Z 80
_cell_length_a 18.042187
_cell_length_b 9.595170
_cell_length_c 24.548606
_cell_angle_alpha 90.000000
_cell_angle_beta 90.000000
_cell_angle_gamma 90.000000
_cell_volume 4249.801926
_symmetry_space_group_name_H-M "C M M A"
_symmetry_group_IT_number 67
_symmetry_cell_setting 'orthorhombic'
loop_
_space_group_symop_operation_xyz
x,y,z
-x,1/2-y,z
x,-y,-z
-x,1/2+y,-z
-x,-y,-z
x,1/2+y,-z
-x,y,z
x,1/2-y,z
1/2+x,1/2+y,z
1/2-x,-y,z
1/2+x,1/2-y,-z
1/2-x,y,-z
1/2-x,1/2-y,-z
1/2+x,y,-z
1/2-x,1/2+y,z
1/2+x,-y,z
loop_
_atom_site_type_symbol
_atom_site_label
_atom_site_fract_x
_atom_site_fract_y
_atom_site_fract_z
Si Si1 0.911763 0.410626 0.948491
Si Si2 0.911900 0.090184 0.153624
Si Si3 0.164381 0.250000 0.555792
Si Si4 0.337561 0.007898 0.367264
Si Si5 0.840104 0.750000 0.565328
Si Si6 0.587607 0.590093 0.743981
O O1 0.881437 0.250000 0.949307
O O2 0.881917 0.496293 0.896313
O O3 0.000000 0.404164 0.948068
O O4 0.883181 0.500000 0.000000
O O5 0.881009 0.250000 0.151561
O O6 0.000000 0.095706 0.151394
O O7 0.884526 0.010880 0.207786
O O8 0.136052 0.120489 0.589587
O O9 0.126662 0.250000 0.495863
O O10 0.252853 0.250000 0.554545
O O11 0.375872 0.031148 0.310014
O O12 0.250000 0.000000 0.357107
O O13 0.368408 0.873798 0.397352
O O14 0.500000 0.582298 0.737706
O O15 0.612445 0.750000 0.755283
#
# Coordination Sequence:
#
# PCOD8278972 Si02
#       6
#    16  16   8  16   8  16
#     4   9  15  23  37  58  86 120 158 200 244 287
#     4   9  17  28  42  62  88 121 162 202 241 287
#     4   9  16  32  49  73  99 123 156 193 242 294
#     4  10  19  32  51  75  98 123 159 201 243 288
#     4   9  18  28  51  75  97 123 152 199 244 288
#     4  10  20  34  50  67  95 134 168 197 237 293
#
# _framework density 18.824407000000001
#
# number of rings (size 3 to 8) (size 9 to 14) (size 15 to 20)
#    0.000    2.600    1.000    1.800    1.400    7.200 
#    0.000    0.000    0.000    3.600    0.000    0.000 
#    0.000    0.800    0.000    5.800    0.000    8.000 
#
# Total GULP energy -495639.864705 kJ/mol
# GULP energy per Si atom -12390.996618 kJ/mol
# Density = 1.878156 g / cm^3
# Si number density = 18.824407 Si / 1000 Ang^3
#
#
#
# Elastic Constant Matrix: (Units=GPa)
#
#
# Indices 1 2 3 4 5 6 
#
# 1 4.2027 13.5042 21.2275 0.0000 0.0000 0.0000
# 2 13.5042 211.1116 119.2734 0.0000 0.0000 0.0000
# 3 21.2275 119.2734 200.9815 0.0000 0.0000 0.0000
# 4 0.0000 0.0000 0.0000 47.4735 0.0000 0.0000
# 5 0.0000 0.0000 0.0000 0.0000 120.3660 0.0000
# 6 0.0000 0.0000 0.0000 0.0000 0.0000 13.4005
#
#
#
# Elastic Compliance Matrix: (Units=1/GPa)
#
#
# Indices 1 2 3 4 5 6 
#
# 1 0.511561 -0.003305 -0.052069 0.000000 0.000000 0.000000
# 2 -0.003305 0.007148 -0.003893 0.000000 0.000000 0.000000
# 3 -0.052069 -0.003893 0.012785 0.000000 0.000000 0.000000
# 4 0.000000 0.000000 0.000000 0.021064 0.000000 0.000000
# 5 0.000000 0.000000 0.000000 0.000000 0.008308 0.000000
# 6 0.000000 0.000000 0.000000 0.000000 0.000000 0.074624
#
#
# Mechanical properties :
#
#
# Convention : Reuss Voigt Hill
#
# Bulk Modulus (GPa) = 2.42154 80.47843 41.44999
# Shear Modulus (GPa) = 5.60741 53.73403 29.67072
#
# Velocity S-wave (km/s) = 1.72779 5.34854 3.97442
# Velocity P-wave (km/s) = 2.29554 8.99930 6.56723
#
# Compressibility (1/GPa) = 0.41296003
#
# Stress axis : x y z
#
# Youngs Moduli (GPa) = 1.95480 139.90899 78.21567
#
# Poissons Ratio (x) = 0.46243 4.07262
# Poissons Ratio (y) = 0.00646 0.30446
# Poissons Ratio (z) = 0.10178 0.54461
#
# Static dielectric constant tensor:
#      x y z
#    x 2.723090 0.000000 0.000000 
#    y 0.000000 3.871190 0.000000 
#    z 0.000000 0.000000 3.667930 
# 
# 
# High freq. dielectric constant tensor:
#      x y z
#    x 1.648900 0.000000 0.000000 
#    y 0.000000 1.756240 0.000000 
#    z 0.000000 0.000000 1.751310 
# 
# From -- ./inp_files/39537.got.cif
#   From: 2010.03.12/outbox.cif.g09.slc.cpg/sg67_20_cif.got.tgz:39537.got - 2010.04.10 22:41:39.
