data_PCOD8278605
_publ_section_title
;
Structure prediction by ZEFSAII (Michael W. Deem and Ramdas Pophale) SiO2 
 PCOD8278605
Probable space group: C M M A
;
_chemical_formula_sum "Si O2"
_cell_formula_units_Z 104
_cell_length_a 25.369524
_cell_length_b 9.012396
_cell_length_c 30.020416
_cell_angle_alpha 90.000000
_cell_angle_beta 90.000000
_cell_angle_gamma 90.000000
_cell_volume 6863.873817
_symmetry_space_group_name_H-M "C M M A"
_symmetry_group_IT_number 67
_symmetry_cell_setting 'orthorhombic'
loop_
_space_group_symop_operation_xyz
x,y,z
-x,1/2-y,z
x,-y,-z
-x,1/2+y,-z
-x,-y,-z
x,1/2+y,-z
-x,y,z
x,1/2-y,z
1/2+x,1/2+y,z
1/2-x,-y,z
1/2+x,1/2-y,-z
1/2-x,y,-z
1/2-x,1/2-y,-z
1/2+x,y,-z
1/2-x,1/2+y,z
1/2+x,-y,z
loop_
_atom_site_type_symbol
_atom_site_label
_atom_site_fract_x
_atom_site_fract_y
_atom_site_fract_z
Si Si1 0.597558 0.577606 0.393254
Si Si2 0.562716 0.917243 0.218537
Si Si3 0.060894 0.924318 0.307660
Si Si4 0.695833 0.924563 0.454195
Si Si5 0.500000 0.924351 0.452699
Si Si6 0.937123 0.917505 0.131359
Si Si7 0.062841 0.582557 0.956242
O O1 0.589919 0.750000 0.381510
O O2 0.595929 0.484309 0.348057
O O3 0.653216 0.545296 0.416172
O O4 0.551437 0.523014 0.425979
O O5 0.500000 0.918281 0.216882
O O6 0.584653 0.750000 0.219246
O O7 0.582459 0.001846 0.262495
O O8 0.585248 0.999614 0.174949
O O9 0.068210 0.750000 0.303007
O O10 0.000000 0.967867 0.316119
O O11 0.704128 0.750000 0.462477
O O12 0.676434 0.000000 0.500000
O O13 0.750000 0.000000 0.438163
O O14 0.500000 0.750000 0.460592
O O15 0.500000 0.000000 0.500000
O O16 0.915643 0.750000 0.131324
O O17 0.000000 0.918913 0.131599
O O18 0.915453 0.999787 0.087504
O O19 0.084422 0.750000 0.956183
O O20 0.000000 0.581483 0.956311
O O21 0.084673 0.500000 0.000000
#
# Coordination Sequence:
#
# PCOD8278605 Si02
#       7
#    16  16  16  16   8  16  16
#     4  10  20  33  48  65  87 114 139 165 201 243
#     4   9  16  25  37  50  67  93 121 151 187 230
#     4  10  19  29  42  61  82 105 132 162 197 238
#     4  10  20  34  52  71  89 112 140 170 203 239
#     4  10  20  32  46  64  88 112 136 164 195 236
#     4   9  15  22  31  43  59  79 108 146 185 228
#     4   9  15  21  28  38  53  74 102 138 184 234
#
# _framework density 15.151794000000001
#
# number of rings (size 3 to 8) (size 9 to 14) (size 15 to 20)
#    0.000    2.462    0.769    3.231    0.000    8.000 
#    0.000    0.000    0.000    0.000    0.000    0.000 
#    0.000    0.000    0.000    0.000    0.000    0.000 
#
# Total GULP energy -644827.335805 kJ/mol
# GULP energy per Si atom -12400.525689 kJ/mol
# Density = 1.511731 g / cm^3
# Si number density = 15.151794 Si / 1000 Ang^3
#
#
#
# Elastic Constant Matrix: (Units=GPa)
#
#
# Indices 1 2 3 4 5 6 
#
# 1 35.0602 26.1957 31.6823 0.0000 0.0000 0.0000
# 2 26.1957 123.5150 79.5758 0.0000 0.0000 0.0000
# 3 31.6823 79.5758 156.0036 0.0000 0.0000 0.0000
# 4 0.0000 0.0000 0.0000 36.3592 0.0000 0.0000
# 5 0.0000 0.0000 0.0000 0.0000 7.3188 0.0000
# 6 0.0000 0.0000 0.0000 0.0000 0.0000 12.3762
#
#
#
# Elastic Compliance Matrix: (Units=1/GPa)
#
#
# Indices 1 2 3 4 5 6 
#
# 1 0.036481 -0.004415 -0.005157 0.000000 0.000000 0.000000
# 2 -0.004415 0.012593 -0.005527 0.000000 0.000000 0.000000
# 3 -0.005157 -0.005527 0.010277 0.000000 0.000000 0.000000
# 4 0.000000 0.000000 0.000000 0.027503 0.000000 0.000000
# 5 0.000000 0.000000 0.000000 0.000000 0.136635 0.000000
# 6 0.000000 0.000000 0.000000 0.000000 0.000000 0.080800
#
#
# Mechanical properties :
#
#
# Convention : Reuss Voigt Hill
#
# Bulk Modulus (GPa) = 34.30119 65.49850 49.89985
# Shear Modulus (GPa) = 14.52624 23.01917 18.77271
#
# Velocity S-wave (km/s) = 3.09967 3.90197 3.52373
# Velocity P-wave (km/s) = 5.95803 7.97637 7.03991
#
# Compressibility (1/GPa) = 0.02915351
#
# Stress axis : x y z
#
# Youngs Moduli (GPa) = 27.41161 79.40650 97.30661
#
# Poissons Ratio (x) = 0.35055 0.50180
# Poissons Ratio (y) = 0.12101 0.53783
# Poissons Ratio (z) = 0.14136 0.43890
#
# Static dielectric constant tensor:
#      x y z
#    x 2.363430 0.000000 0.000000 
#    y 0.000000 3.082410 0.000000 
#    z 0.000000 0.000000 3.046560 
# 
# 
# High freq. dielectric constant tensor:
#      x y z
#    x 1.497920 0.000000 0.000000 
#    y 0.000000 1.599600 0.000000 
#    z 0.000000 0.000000 1.593660 
# 
# From -- ./inp_files/46029.got.cif
#   From: 2010.03.12/outbox.cif.g09.slc.cpg/sg67_24_cif.got.tgz:46029.got - 2010.04.10 22:41:39.
