data_PCOD8278851
_publ_section_title
;
Structure prediction by ZEFSAII (Michael W. Deem and Ramdas Pophale) SiO2 
 PCOD8278851
Probable space group: C M M A
;
_chemical_formula_sum "Si O2"
_cell_formula_units_Z 52
_cell_length_a 10.069900
_cell_length_b 28.341920
_cell_length_c 10.400997
_cell_angle_alpha 90.000000
_cell_angle_beta 90.000000
_cell_angle_gamma 90.000000
_cell_volume 2968.447666
_symmetry_space_group_name_H-M "C M M A"
_symmetry_group_IT_number 67
_symmetry_cell_setting 'orthorhombic'
loop_
_space_group_symop_operation_xyz
x,y,z
-x,1/2-y,z
x,-y,-z
-x,1/2+y,-z
-x,-y,-z
x,1/2+y,-z
-x,y,z
x,1/2-y,z
1/2+x,1/2+y,z
1/2-x,-y,z
1/2+x,1/2-y,-z
1/2-x,y,-z
1/2-x,1/2-y,-z
1/2+x,y,-z
1/2-x,1/2+y,z
1/2+x,-y,z
loop_
_atom_site_type_symbol
_atom_site_label
_atom_site_fract_x
_atom_site_fract_y
_atom_site_fract_z
Si Si1 0.000000 0.698144 0.855711
Si Si2 0.750000 0.000000 0.500000
Si Si3 0.000000 0.803644 0.160613
Si Si4 0.845728 0.540089 0.745754
Si Si5 0.253727 0.861645 0.152413
O O1 0.872649 0.671499 0.804034
O O2 0.000000 0.750000 0.795142
O O3 0.000000 0.701171 0.008471
O O4 0.842842 0.967152 0.590931
O O5 0.874839 0.834508 0.205708
O O6 0.000000 0.750000 0.218629
O O7 0.750000 0.500000 0.810807
O O8 0.774000 0.588718 0.779082
O O9 0.000000 0.537807 0.794293
O O10 0.250000 0.870033 0.000000
#
# Coordination Sequence:
#
# PCOD8278851 Si02
#       5
#     8   4   8  16  16
#     4   9  16  30  49  71 106 142 171 207 245 305
#     4   8  22  36  60  72 100 128 186 214 262 304
#     4   9  18  30  47  75 110 142 171 201 245 305
#     4  10  21  37  55  76 104 133 177 217 258 306
#     4  10  19  31  50  79 109 138 171 206 257 309
#
# _framework density 17.517572999999999
#
# number of rings (size 3 to 8) (size 9 to 14) (size 15 to 20)
#    0.923    1.538    1.538    1.385    2.154    4.308 
#    0.000    1.538    0.000    0.000    0.000    6.462 
#    0.000    0.000    0.000    0.000    0.000    0.000 
#
# Total GULP energy -322118.630376 kJ/mol
# GULP energy per Si atom -12389.178091 kJ/mol
# Density = 1.747770 g / cm^3
# Si number density = 17.517573 Si / 1000 Ang^3
#
#
#
# Elastic Constant Matrix: (Units=GPa)
#
#
# Indices 1 2 3 4 5 6 
#
# 1 170.7376 93.7656 16.2553 0.0000 0.0000 0.0000
# 2 93.7656 195.6619 32.6173 0.0000 0.0000 0.0000
# 3 16.2553 32.6173 29.6862 0.0000 0.0000 0.0000
# 4 0.0000 0.0000 0.0000 -5.4695 0.0000 0.0000
# 5 0.0000 0.0000 0.0000 0.0000 12.4931 0.0000
# 6 0.0000 0.0000 0.0000 0.0000 0.0000 34.2827
#
#
#
# Elastic Compliance Matrix: (Units=1/GPa)
#
#
# Indices 1 2 3 4 5 6 
#
# 1 0.007950 -0.003776 -0.000205 0.000000 0.000000 0.000000
# 2 -0.003776 0.008050 -0.006777 0.000000 0.000000 0.000000
# 3 -0.000205 -0.006777 0.041244 0.000000 0.000000 0.000000
# 4 0.000000 0.000000 0.000000 -0.182832 0.000000 0.000000
# 5 0.000000 0.000000 0.000000 0.000000 0.080044 0.000000
# 6 0.000000 0.000000 0.000000 0.000000 0.000000 0.029169
#
#
# Mechanical properties :
#
#
# Convention : Reuss Voigt Hill
#
# Bulk Modulus (GPa) = 27.98866 75.70690 51.84778
# Shear Modulus (GPa) = 293.24449 25.15777 159.20113
#
# Velocity S-wave (km/s) = 12.95236 3.79376 9.54349
# Velocity P-wave (km/s) = 15.48215 7.90580 12.29225
#
# Compressibility (1/GPa) = 0.03572875
#
# Stress axis : x y z
#
# Youngs Moduli (GPa) = 125.78691 124.22264 24.24575
#
# Poissons Ratio (x) = 0.46902 0.00496
# Poissons Ratio (y) = 0.47493 0.16432
# Poissons Ratio (z) = 0.02575 0.84191
#
# Static dielectric constant tensor:
#      x y z
#    x 3.420880 0.000000 0.000000 
#    y 0.000000 3.379210 0.000000 
#    z 0.000000 0.000000 2.686220 
# 
# 
# High freq. dielectric constant tensor:
#      x y z
#    x 1.694130 0.000000 0.000000 
#    y 0.000000 1.692080 0.000000 
#    z 0.000000 0.000000 1.610820 
# 
# From -- ./inp_files/24729.got.cif
#   From: 2010.03.12/outbox.cif.g09.slc.cpg/sg67_13_cif.got.tgz:24729.got - 2010.04.10 22:41:39.
