data_PCOD8278861
_publ_section_title
;
Structure prediction by ZEFSAII (Michael W. Deem and Ramdas Pophale) SiO2 
 PCOD8278861
Probable space group: C M M A
;
_chemical_formula_sum "Si O2"
_cell_formula_units_Z 128
_cell_length_a 18.733526
_cell_length_b 23.150870
_cell_length_c 17.771381
_cell_angle_alpha 90.000000
_cell_angle_beta 90.000000
_cell_angle_gamma 90.000000
_cell_volume 7707.402180
_symmetry_space_group_name_H-M "C M M A"
_symmetry_group_IT_number 67
_symmetry_cell_setting 'orthorhombic'
loop_
_space_group_symop_operation_xyz
x,y,z
-x,1/2-y,z
x,-y,-z
-x,1/2+y,-z
-x,-y,-z
x,1/2+y,-z
-x,y,z
x,1/2-y,z
1/2+x,1/2+y,z
1/2-x,-y,z
1/2+x,1/2-y,-z
1/2-x,y,-z
1/2-x,1/2-y,-z
1/2+x,y,-z
1/2-x,1/2+y,z
1/2+x,-y,z
loop_
_atom_site_type_symbol
_atom_site_label
_atom_site_fract_x
_atom_site_fract_y
_atom_site_fract_z
Si Si1 0.164710 0.392763 0.131089
Si Si2 0.679804 0.814791 0.711275
Si Si3 0.584682 0.004383 0.088353
Si Si4 0.680664 0.681392 0.542923
Si Si5 0.166421 0.615004 0.145561
Si Si6 0.078825 0.181293 0.415588
Si Si7 0.653555 0.314184 0.732987
Si Si8 0.333832 0.313051 0.005024
O O1 0.124412 0.453218 0.131782
O O2 0.250105 0.402384 0.136823
O O3 0.132632 0.356611 0.200087
O O4 0.140367 0.358940 0.056385
O O5 0.645512 0.750000 0.717775
O O6 0.669822 0.842003 0.627770
O O7 0.647276 0.859749 0.771748
O O8 0.762487 0.808594 0.728015
O O9 0.500000 0.001705 0.101639
O O10 0.615981 0.061500 0.126687
O O11 0.603568 0.000000 0.000000
O O12 0.688939 0.750000 0.548885
O O13 0.750000 0.656158 0.500000
O O14 0.613357 0.660775 0.493871
O O15 0.145474 0.665468 0.087721
O O16 0.078388 0.250000 0.413938
O O17 0.123260 0.158756 0.344142
O O18 0.000000 0.154876 0.411721
O O19 0.621475 0.250000 0.748212
O O20 0.369361 0.250000 0.991436
O O21 0.250000 0.306047 0.000000
#
# Coordination Sequence:
#
# PCOD8278861 Si02
#       8
#    16  16  16  16  16  16  16  16
#     4  10  19  31  52  76  96 123 163 205 244 292
#     4   9  16  27  47  76 104 130 163 200 244 298
#     4  11  23  38  53  67  91 129 173 216 253 292
#     4   9  14  24  43  66  97 136 168 194 231 287
#     4  10  19  32  52  75  98 126 163 209 248 289
#     4   9  16  25  39  63  98 136 166 193 232 285
#     4   9  16  27  44  72 106 130 152 192 246 299
#     4   9  16  27  46  74 103 127 153 191 243 294
#
# _framework density 16.607412
#
# number of rings (size 3 to 8) (size 9 to 14) (size 15 to 20)
#    0.000    2.500    2.500    1.125    0.000    4.000 
#    0.000    0.625    0.000    4.125    0.000    0.875 
#    0.000    2.000    0.000    0.000    0.000    0.000 
#
# Total GULP energy -793250.412247 kJ/mol
# GULP energy per Si atom -12394.537691 kJ/mol
# Density = 1.656961 g / cm^3
# Si number density = 16.607412 Si / 1000 Ang^3
#
#
#
# Elastic Constant Matrix: (Units=GPa)
#
#
# Indices 1 2 3 4 5 6 
#
# 1 40.0387 23.8346 23.0990 0.0000 0.0000 0.0000
# 2 23.8346 73.4107 37.7153 0.0000 0.0000 0.0000
# 3 23.0990 37.7153 134.9564 0.0000 0.0000 0.0000
# 4 0.0000 0.0000 0.0000 11.2410 0.0000 0.0000
# 5 0.0000 0.0000 0.0000 0.0000 17.0952 0.0000
# 6 0.0000 0.0000 0.0000 0.0000 0.0000 11.4314
#
#
#
# Elastic Compliance Matrix: (Units=1/GPa)
#
#
# Indices 1 2 3 4 5 6 
#
# 1 0.031968 -0.008837 -0.003002 0.000000 0.000000 0.000000
# 2 -0.008837 0.018348 -0.003615 0.000000 0.000000 0.000000
# 3 -0.003002 -0.003615 0.008934 0.000000 0.000000 0.000000
# 4 0.000000 0.000000 0.000000 0.088960 0.000000 0.000000
# 5 0.000000 0.000000 0.000000 0.000000 0.058496 0.000000
# 6 0.000000 0.000000 0.000000 0.000000 0.000000 0.087479
#
#
# Mechanical properties :
#
#
# Convention : Reuss Voigt Hill
#
# Bulk Modulus (GPa) = 35.28293 46.41148 40.84721
# Shear Modulus (GPa) = 14.94582 18.87063 16.90823
#
# Velocity S-wave (km/s) = 3.00317 3.37453 3.19425
# Velocity P-wave (km/s) = 5.77207 6.57192 6.18494
#
# Compressibility (1/GPa) = 0.02834232
#
# Stress axis : x y z
#
# Youngs Moduli (GPa) = 31.28096 54.50053 111.93271
#
# Poissons Ratio (x) = 0.48162 0.33603
# Poissons Ratio (y) = 0.27643 0.40466
# Poissons Ratio (z) = 0.09391 0.19703
#
# Static dielectric constant tensor:
#      x y z
#    x 2.953030 0.000000 0.000000 
#    y 0.000000 2.968400 0.000000 
#    z 0.000000 0.000000 3.460050 
# 
# 
# High freq. dielectric constant tensor:
#      x y z
#    x 1.611830 0.000000 0.000000 
#    y 0.000000 1.603220 0.000000 
#    z 0.000000 0.000000 1.650830 
# 
# From -- ./inp_files/35285.got.cif
#   From: 2010.03.12/outbox.cif.g09.slc.cpg/sg67_18_cif.got.tgz:35285.got - 2010.04.10 22:41:39.
