data_PCOD8278801
_publ_section_title
;
Structure prediction by ZEFSAII (Michael W. Deem and Ramdas Pophale) SiO2 
 PCOD8278801
Probable space group: C M M A
;
_chemical_formula_sum "Si O2"
_cell_formula_units_Z 112
_cell_length_a 17.377620
_cell_length_b 13.548200
_cell_length_c 25.923757
_cell_angle_alpha 90.000000
_cell_angle_beta 90.000000
_cell_angle_gamma 90.000000
_cell_volume 6103.371947
_symmetry_space_group_name_H-M "C M M A"
_symmetry_group_IT_number 67
_symmetry_cell_setting 'orthorhombic'
loop_
_space_group_symop_operation_xyz
x,y,z
-x,1/2-y,z
x,-y,-z
-x,1/2+y,-z
-x,-y,-z
x,1/2+y,-z
-x,y,z
x,1/2-y,z
1/2+x,1/2+y,z
1/2-x,-y,z
1/2+x,1/2-y,-z
1/2-x,y,-z
1/2-x,1/2-y,-z
1/2+x,y,-z
1/2-x,1/2+y,z
1/2+x,-y,z
loop_
_atom_site_type_symbol
_atom_site_label
_atom_site_fract_x
_atom_site_fract_y
_atom_site_fract_z
Si Si1 0.186028 0.862630 0.871426
Si Si2 0.908421 0.357724 0.528378
Si Si3 0.591155 0.361340 0.683887
Si Si4 0.589527 0.461712 0.787414
Si Si5 0.586955 0.494678 0.939909
Si Si6 0.362537 0.634251 0.856143
Si Si7 0.591605 0.553365 0.422184
O O1 0.182231 0.750000 0.886943
O O2 0.136039 0.883331 0.821063
O O3 0.150375 0.919681 0.919461
O O4 0.273450 0.894102 0.861274
O O5 0.876675 0.250000 0.544856
O O6 0.879049 0.382053 0.470560
O O7 0.879759 0.440221 0.569123
O O8 0.000000 0.358136 0.527284
O O9 0.500000 0.356488 0.679154
O O10 0.622649 0.250000 0.694459
O O11 0.614900 0.439049 0.728664
O O12 0.627036 0.403096 0.630572
O O13 0.500000 0.439180 0.795006
O O14 0.606836 0.573927 0.806013
O O15 0.500000 0.456021 0.930707
O O16 0.595785 0.598474 0.908908
O O17 0.604437 0.500000 0.000000
O O18 0.378395 0.750000 0.847424
O O19 0.500000 0.555990 0.419279
#
# Coordination Sequence:
#
# PCOD8278801 Si02
#       7
#    16  16  16  16  16  16  16
#     4  10  20  34  53  74  95 123 159 197 236 276
#     4   8  12  18  29  44  66 102 146 186 222 268
#     4   9  16  25  38  58  84 112 144 187 238 284
#     4  10  19  31  49  71  94 121 155 196 239 282
#     4  10  21  35  52  76 103 128 155 191 233 276
#     4  10  21  36  53  71  94 128 163 192 229 280
#     4   8  13  20  30  47  72 104 144 186 228 275
#
# _framework density 18.350512999999999
#
# number of rings (size 3 to 8) (size 9 to 14) (size 15 to 20)
#    0.000    2.714    0.000    5.143    0.000    6.286 
#    0.000    3.571    0.000    2.571    0.000    0.000 
#    0.000    0.000    0.000   10.286    0.000   77.714 
#
# Total GULP energy -693941.618945 kJ/mol
# GULP energy per Si atom -12391.814624 kJ/mol
# Density = 1.830875 g / cm^3
# Si number density = 18.350513 Si / 1000 Ang^3
#
#
#
# Elastic Constant Matrix: (Units=GPa)
#
#
# Indices 1 2 3 4 5 6 
#
# 1 52.0404 9.8444 23.3015 0.0000 0.0000 0.0000
# 2 9.8444 113.5018 63.7560 0.0000 0.0000 0.0000
# 3 23.3015 63.7560 141.6552 0.0000 0.0000 0.0000
# 4 0.0000 0.0000 0.0000 18.8287 0.0000 0.0000
# 5 0.0000 0.0000 0.0000 0.0000 -0.3674 0.0000
# 6 0.0000 0.0000 0.0000 0.0000 0.0000 16.6568
#
#
#
# Elastic Compliance Matrix: (Units=1/GPa)
#
#
# Indices 1 2 3 4 5 6 
#
# 1 0.020746 0.000157 -0.003483 0.000000 0.000000 0.000000
# 2 0.000157 0.011793 -0.005334 0.000000 0.000000 0.000000
# 3 -0.003483 -0.005334 0.010033 0.000000 0.000000 0.000000
# 4 0.000000 0.000000 0.000000 0.053110 0.000000 0.000000
# 5 0.000000 0.000000 0.000000 0.000000 -2.721646 0.000000
# 6 0.000000 0.000000 0.000000 0.000000 0.000000 0.060036
#
#
# Mechanical properties :
#
#
# Convention : Reuss Voigt Hill
#
# Bulk Modulus (GPa) = 39.60042 55.66679 47.63360
# Shear Modulus (GPa) = -1.96835 21.04330 9.53747
#
# Velocity S-wave (km/s) = -1.03681 3.39003 2.28225
# Velocity P-wave (km/s) = 4.49372 6.76197 5.74098
#
# Compressibility (1/GPa) = 0.02525226
#
# Stress axis : x y z
#
# Youngs Moduli (GPa) = 48.20252 84.79798 99.67208
#
# Poissons Ratio (x) = -0.01334 0.34719
# Poissons Ratio (y) = -0.00758 0.53160
# Poissons Ratio (z) = 0.16791 0.45227
#
# Static dielectric constant tensor:
#      x y z
#    x 3.097310 0.000000 0.000000 
#    y 0.000000 3.579660 0.000000 
#    z 0.000000 0.000000 3.543320 
# 
# 
# High freq. dielectric constant tensor:
#      x y z
#    x 1.674950 0.000000 0.000000 
#    y 0.000000 1.716490 0.000000 
#    z 0.000000 0.000000 1.705450 
# 
# From -- ./inp_files/44364.got.cif
#   From: 2010.03.12/outbox.cif.g09.slc.cpg/sg67_23_cif.got.tgz:44364.got - 2010.04.10 22:41:39.
