data_PCOD8278955
_publ_section_title
;
Structure prediction by ZEFSAII (Michael W. Deem and Ramdas Pophale) SiO2 
 PCOD8278955
Probable space group: C M M A
;
_chemical_formula_sum "Si O2"
_cell_formula_units_Z 120
_cell_length_a 26.287876
_cell_length_b 9.020798
_cell_length_c 27.954245
_cell_angle_alpha 90.000000
_cell_angle_beta 90.000000
_cell_angle_gamma 90.000000
_cell_volume 6629.003107
_symmetry_space_group_name_H-M "C M M A"
_symmetry_group_IT_number 67
_symmetry_cell_setting 'orthorhombic'
loop_
_space_group_symop_operation_xyz
x,y,z
-x,1/2-y,z
x,-y,-z
-x,1/2+y,-z
-x,-y,-z
x,1/2+y,-z
-x,y,z
x,1/2-y,z
1/2+x,1/2+y,z
1/2-x,-y,z
1/2+x,1/2-y,-z
1/2-x,y,-z
1/2-x,1/2-y,-z
1/2+x,y,-z
1/2-x,1/2+y,z
1/2+x,-y,z
loop_
_atom_site_type_symbol
_atom_site_label
_atom_site_fract_x
_atom_site_fract_y
_atom_site_fract_z
Si Si1 0.602568 0.075400 0.137411
Si Si2 0.059995 0.416574 0.046334
Si Si3 0.802637 0.574828 0.823245
Si Si4 0.697073 0.925787 0.376572
Si Si5 0.650791 0.576498 0.277404
Si Si6 0.557035 0.923182 0.760979
Si Si7 0.500000 0.921581 0.450193
Si Si8 0.110382 0.924473 0.551179
O O1 0.611269 0.250000 0.131591
O O2 0.569651 0.037006 0.184232
O O3 0.572623 0.012698 0.092551
O O4 0.656466 0.993020 0.140526
O O5 0.082951 0.250000 0.049834
O O6 0.000000 0.406102 0.041345
O O7 0.083117 0.500000 0.000000
O O8 0.799465 0.750000 0.830271
O O9 0.750000 0.500000 0.836966
O O10 0.816567 0.530982 0.768859
O O11 0.703603 0.750000 0.378296
O O12 0.681087 0.980571 0.323726
O O13 0.653677 0.982280 0.412942
O O14 0.750000 0.000000 0.391476
O O15 0.641282 0.750000 0.280342
O O16 0.595175 0.503269 0.275406
O O17 0.500000 0.978581 0.749954
O O18 0.562546 0.750000 0.752124
O O19 0.500000 0.750000 0.461549
O O20 0.445726 0.962892 0.425188
O O21 0.500000 0.000000 0.500000
O O22 0.116035 0.750000 0.543441
O O23 0.117998 0.000000 0.500000
#
# Coordination Sequence:
#
# PCOD8278955 Si02
#       8
#    16  16  16  16  16  16   8  16
#     4  10  19  32  51  74 101 134 170 209 255 301
#     4  10  20  33  50  74 104 137 172 210 251 298
#     4  10  19  32  51  74  99 127 166 212 254 300
#     4  10  21  36  52  74 102 133 170 209 253 305
#     4   9  19  34  50  72 100 131 170 209 249 300
#     4   9  18  32  50  73 103 136 169 206 251 304
#     4   8  14  28  50  72  94 122 154 198 244 288
#     4   9  18  33  53  76 101 128 165 206 251 303
#
# _framework density 18.102269
#
# number of rings (size 3 to 8) (size 9 to 14) (size 15 to 20)
#    0.000    2.533    0.000    2.000    0.000    4.000 
#    1.200    1.333    0.000    0.400    0.000    2.800 
#    0.000    0.000    0.000    0.000    0.000    0.000 
#
# Total GULP energy -743838.510063 kJ/mol
# GULP energy per Si atom -12397.308501 kJ/mol
# Density = 1.806107 g / cm^3
# Si number density = 18.102269 Si / 1000 Ang^3
#
#
#
# Elastic Constant Matrix: (Units=GPa)
#
#
# Indices 1 2 3 4 5 6 
#
# 1 119.1516 32.3064 26.7190 0.0000 0.0000 0.0000
# 2 32.3064 53.8083 20.5713 0.0000 0.0000 0.0000
# 3 26.7190 20.5713 64.1956 0.0000 0.0000 0.0000
# 4 0.0000 0.0000 0.0000 25.2864 0.0000 0.0000
# 5 0.0000 0.0000 0.0000 0.0000 18.4564 0.0000
# 6 0.0000 0.0000 0.0000 0.0000 0.0000 33.6387
#
#
#
# Elastic Compliance Matrix: (Units=1/GPa)
#
#
# Indices 1 2 3 4 5 6 
#
# 1 0.010407 -0.005233 -0.002654 0.000000 0.000000 0.000000
# 2 -0.005233 0.023811 -0.005452 0.000000 0.000000 0.000000
# 3 -0.002654 -0.005452 0.018429 0.000000 0.000000 0.000000
# 4 0.000000 0.000000 0.000000 0.039547 0.000000 0.000000
# 5 0.000000 0.000000 0.000000 0.000000 0.054182 0.000000
# 6 0.000000 0.000000 0.000000 0.000000 0.000000 0.029728
#
#
# Mechanical properties :
#
#
# Convention : Reuss Voigt Hill
#
# Bulk Modulus (GPa) = 38.50973 44.03877 41.27425
# Shear Modulus (GPa) = 23.64752 25.98024 24.81388
#
# Velocity S-wave (km/s) = 3.61824 3.79250 3.70639
# Velocity P-wave (km/s) = 6.22697 6.59985 6.41612
#
# Compressibility (1/GPa) = 0.02596747
#
# Stress axis : x y z
#
# Youngs Moduli (GPa) = 96.09015 41.99750 54.26165
#
# Poissons Ratio (x) = 0.21979 0.14403
# Poissons Ratio (y) = 0.50289 0.29583
# Poissons Ratio (z) = 0.25506 0.22897
#
# Static dielectric constant tensor:
#      x y z
#    x 3.591310 0.000000 0.000000 
#    y 0.000000 3.317540 0.000000 
#    z 0.000000 0.000000 3.222940 
# 
# 
# High freq. dielectric constant tensor:
#      x y z
#    x 1.705650 0.000000 0.000000 
#    y 0.000000 1.703720 0.000000 
#    z 0.000000 0.000000 1.681760 
# 
# From -- ./inp_files/44991.got.cif
#   From: 2010.03.12/outbox.cif.g09.slc.cpg/sg67_23_cif.got.tgz:44991.got - 2010.04.10 22:41:39.
