data_PCOD8278347
_publ_section_title
;
Structure prediction by ZEFSAII (Michael W. Deem and Ramdas Pophale) SiO2 
 PCOD8278347
Probable space group: C M M A
;
_chemical_formula_sum "Si O2"
_cell_formula_units_Z 88
_cell_length_a 9.378146
_cell_length_b 18.651849
_cell_length_c 30.033462
_cell_angle_alpha 90.000000
_cell_angle_beta 90.000000
_cell_angle_gamma 90.000000
_cell_volume 5253.446058
_symmetry_space_group_name_H-M "C M M A"
_symmetry_group_IT_number 67
_symmetry_cell_setting 'orthorhombic'
loop_
_space_group_symop_operation_xyz
x,y,z
-x,1/2-y,z
x,-y,-z
-x,1/2+y,-z
-x,-y,-z
x,1/2+y,-z
-x,y,z
x,1/2-y,z
1/2+x,1/2+y,z
1/2-x,-y,z
1/2+x,1/2-y,-z
1/2-x,y,-z
1/2-x,1/2-y,-z
1/2+x,y,-z
1/2-x,1/2+y,z
1/2+x,-y,z
loop_
_atom_site_type_symbol
_atom_site_label
_atom_site_fract_x
_atom_site_fract_y
_atom_site_fract_z
Si Si1 0.160423 0.335220 0.137994
Si Si2 0.159799 0.328320 0.614418
Si Si3 0.328616 0.750000 0.453254
Si Si4 0.660383 0.664695 0.040462
Si Si5 0.333137 0.167761 0.221450
Si Si6 0.331548 0.573900 0.694998
O O1 0.162659 0.250000 0.139076
O O2 0.217132 0.360671 0.089226
O O3 0.259094 0.365422 0.177462
O O4 0.000000 0.363454 0.145601
O O5 0.151849 0.250000 0.638466
O O6 0.272205 0.321268 0.573269
O O7 0.214769 0.386675 0.649479
O O8 0.000000 0.348296 0.596958
O O9 0.500000 0.750000 0.457816
O O10 0.250000 0.750000 0.500000
O O11 0.500000 0.637523 0.034299
O O12 0.667102 0.750000 0.037975
O O13 0.750000 0.630174 0.000000
O O14 0.500000 0.161143 0.213622
O O15 0.287387 0.250000 0.229558
O O16 0.282103 0.122499 0.263796
O O17 0.500000 0.560602 0.695940
O O18 0.250000 0.500000 0.697710
#
# Coordination Sequence:
#
# PCOD8278347 Si02
#       6
#    16  16   8  16  16  16
#     4   8  14  24  36  53  79 109 141 182 229 271
#     4   8  16  32  52  72  98 132 164 196 236 276
#     4  10  18  30  52  82 108 130 162 202 237 274
#     4   8  13  20  30  46  71 103 136 171 216 268
#     4   9  17  29  46  65  86 118 158 194 229 274
#     4  10  20  33  49  69  97 129 160 197 239 282
#
# _framework density 16.750910000000001
#
# number of rings (size 3 to 8) (size 9 to 14) (size 15 to 20)
#    0.545    2.727    0.000    2.182    0.000    4.364 
#    0.000    3.636    0.000    0.545    0.000    3.818 
#    0.000    0.727    0.000    8.000    0.000   13.091 
#
# Total GULP energy -545082.325992 kJ/mol
# GULP energy per Si atom -12388.234682 kJ/mol
# Density = 1.671278 g / cm^3
# Si number density = 16.750910 Si / 1000 Ang^3
#
#
#
# Elastic Constant Matrix: (Units=GPa)
#
#
# Indices 1 2 3 4 5 6 
#
# 1 77.4059 30.3670 76.6683 0.0000 0.0000 0.0000
# 2 30.3670 51.5362 47.3365 0.0000 0.0000 0.0000
# 3 76.6683 47.3365 166.2202 0.0000 0.0000 0.0000
# 4 0.0000 0.0000 0.0000 2.3770 0.0000 0.0000
# 5 0.0000 0.0000 0.0000 0.0000 33.7780 0.0000
# 6 0.0000 0.0000 0.0000 0.0000 0.0000 19.5512
#
#
#
# Elastic Compliance Matrix: (Units=1/GPa)
#
#
# Indices 1 2 3 4 5 6 
#
# 1 0.024919 -0.005588 -0.009903 0.000000 0.000000 0.000000
# 2 -0.005588 0.027530 -0.005263 0.000000 0.000000 0.000000
# 3 -0.009903 -0.005263 0.012082 0.000000 0.000000 0.000000
# 4 0.000000 0.000000 0.000000 0.420690 0.000000 0.000000
# 5 0.000000 0.000000 0.000000 0.000000 0.029605 0.000000
# 6 0.000000 0.000000 0.000000 0.000000 0.000000 0.051148
#
#
# Mechanical properties :
#
#
# Convention : Reuss Voigt Hill
#
# Bulk Modulus (GPa) = 43.42979 67.10065 55.26522
# Shear Modulus (GPa) = 8.12801 20.52729 14.32765
#
# Velocity S-wave (km/s) = 2.20518 3.50443 2.92778
# Velocity P-wave (km/s) = 5.69797 7.51795 6.67032
#
# Compressibility (1/GPa) = 0.02302567
#
# Stress axis : x y z
#
# Youngs Moduli (GPa) = 40.12959 36.32365 82.76499
#
# Poissons Ratio (x) = 0.20297 0.81959
# Poissons Ratio (y) = 0.22423 0.43558
# Poissons Ratio (z) = 0.39739 0.19116
#
# Static dielectric constant tensor:
#      x y z
#    x 3.143040 0.000000 0.000000 
#    y 0.000000 2.653980 0.000000 
#    z 0.000000 0.000000 3.385200 
# 
# 
# High freq. dielectric constant tensor:
#      x y z
#    x 1.639840 0.000000 0.000000 
#    y 0.000000 1.587410 0.000000 
#    z 0.000000 0.000000 1.654850 
# 
# From -- ./inp_files/45286.got.cif
#   From: 2010.03.12/outbox.cif.g09.slc.cpg/sg67_23_cif.got.tgz:45286.got - 2010.04.10 22:41:39.
