data_PCOD8278905
_publ_section_title
;
Structure prediction by ZEFSAII (Michael W. Deem and Ramdas Pophale) SiO2 
 PCOD8278905
Probable space group: C M M A
;
_chemical_formula_sum "Si O2"
_cell_formula_units_Z 120
_cell_length_a 26.948782
_cell_length_b 9.097463
_cell_length_c 26.240205
_cell_angle_alpha 90.000000
_cell_angle_beta 90.000000
_cell_angle_gamma 90.000000
_cell_volume 6433.194216
_symmetry_space_group_name_H-M "C M M A"
_symmetry_group_IT_number 67
_symmetry_cell_setting 'orthorhombic'
loop_
_space_group_symop_operation_xyz
x,y,z
-x,1/2-y,z
x,-y,-z
-x,1/2+y,-z
-x,-y,-z
x,1/2+y,-z
-x,y,z
x,1/2-y,z
1/2+x,1/2+y,z
1/2-x,-y,z
1/2+x,1/2-y,-z
1/2-x,y,-z
1/2-x,1/2-y,-z
1/2+x,y,-z
1/2-x,1/2+y,z
1/2+x,-y,z
loop_
_atom_site_type_symbol
_atom_site_label
_atom_site_fract_x
_atom_site_fract_y
_atom_site_fract_z
Si Si1 0.500000 0.074467 0.554370
Si Si2 0.802999 0.424831 0.049011
Si Si3 0.197036 0.425191 0.639946
Si Si4 0.101308 0.080598 0.389006
Si Si5 0.055322 0.083341 0.282785
Si Si6 0.446157 0.082613 0.186024
Si Si7 0.650043 0.916133 0.860247
Si Si8 0.798896 0.418470 0.755581
O O1 0.500000 0.250000 0.551157
O O2 0.448351 0.023050 0.581580
O O3 0.500000 0.000000 0.500000
O O4 0.799308 0.250000 0.042087
O O5 0.750000 0.500000 0.052937
O O6 0.830129 0.461934 0.101462
O O7 0.830319 0.500000 0.000000
O O8 0.200921 0.250000 0.631581
O O9 0.250000 0.500000 0.625137
O O10 0.152451 0.487334 0.603095
O O11 0.183697 0.467903 0.698867
O O12 0.111496 0.250000 0.403980
O O13 0.091237 0.060887 0.329731
O O14 0.053729 0.250000 0.264976
O O15 0.000000 0.029308 0.297773
O O16 0.076961 0.993861 0.235611
O O17 0.500000 0.015548 0.171280
O O18 0.451431 0.250000 0.202163
O O19 0.409608 0.066742 0.137814
O O20 0.666982 0.750000 0.875754
O O21 0.662725 0.949608 0.801221
O O22 0.784546 0.250000 0.752258
O O23 0.750000 0.500000 0.773338
#
# Coordination Sequence:
#
# PCOD8278905 Si02
#       8
#     8  16  16  16  16  16  16  16
#     4  10  22  40  60  84 114 144 180 226 281 332
#     4  11  22  37  56  77  99 123 156 200 253 308
#     4  10  20  34  52  78 111 148 188 224 261 314
#     4  10  19  34  55  78 108 145 181 223 273 323
#     4   9  16  28  47  72 103 140 179 214 255 308
#     4   9  18  31  47  70 103 140 174 211 252 295
#     4  10  19  32  49  71 101 135 170 209 254 302
#     4   9  18  30  45  68 103 140 174 211 250 297
#
# _framework density 18.653252999999999
#
# number of rings (size 3 to 8) (size 9 to 14) (size 15 to 20)
#    0.000    2.267    0.667    3.200    0.000    4.800 
#    0.000    0.000    0.000    0.800    0.000    2.800 
#    0.000    0.000    0.000    0.000    0.000    0.000 
#
# Total GULP energy -743306.437316 kJ/mol
# GULP energy per Si atom -12388.440622 kJ/mol
# Density = 1.861080 g / cm^3
# Si number density = 18.653253 Si / 1000 Ang^3
#
#
#
# Elastic Constant Matrix: (Units=GPa)
#
#
# Indices 1 2 3 4 5 6 
#
# 1 107.3487 53.6374 47.6368 0.0000 0.0000 0.0000
# 2 53.6374 81.4415 38.4127 0.0000 0.0000 0.0000
# 3 47.6368 38.4127 60.7943 0.0000 0.0000 0.0000
# 4 0.0000 0.0000 0.0000 12.5117 0.0000 0.0000
# 5 0.0000 0.0000 0.0000 0.0000 18.5915 0.0000
# 6 0.0000 0.0000 0.0000 0.0000 0.0000 25.2723
#
#
#
# Elastic Compliance Matrix: (Units=1/GPa)
#
#
# Indices 1 2 3 4 5 6 
#
# 1 0.016575 -0.006824 -0.008676 0.000000 0.000000 0.000000
# 2 -0.006824 0.020301 -0.007480 0.000000 0.000000 0.000000
# 3 -0.008676 -0.007480 0.027973 0.000000 0.000000 0.000000
# 4 0.000000 0.000000 0.000000 0.079925 0.000000 0.000000
# 5 0.000000 0.000000 0.000000 0.000000 0.053788 0.000000
# 6 0.000000 0.000000 0.000000 0.000000 0.000000 0.039569
#
#
# Mechanical properties :
#
#
# Convention : Reuss Voigt Hill
#
# Bulk Modulus (GPa) = 52.93985 58.77315 55.85650
# Shear Modulus (GPa) = 17.21827 18.60160 17.90993
#
# Velocity S-wave (km/s) = 3.04150 3.16132 3.10199
# Velocity P-wave (km/s) = 6.38568 6.70089 6.54519
#
# Compressibility (1/GPa) = 0.01888936
#
# Stress axis : x y z
#
# Youngs Moduli (GPa) = 60.33060 49.25804 35.74834
#
# Poissons Ratio (x) = 0.33616 0.31015
# Poissons Ratio (y) = 0.41172 0.26739
# Poissons Ratio (z) = 0.52343 0.36844
#
# Static dielectric constant tensor:
#      x y z
#    x 3.764900 0.000000 0.000000 
#    y 0.000000 3.201700 0.000000 
#    z 0.000000 0.000000 3.343540 
# 
# 
# High freq. dielectric constant tensor:
#      x y z
#    x 1.730010 0.000000 0.000000 
#    y 0.000000 1.720380 0.000000 
#    z 0.000000 0.000000 1.689530 
# 
# From -- ./inp_files/43897.got.cif
#   From: 2010.03.12/outbox.cif.g09.slc.cpg/sg67_22_cif.got.tgz:43897.got - 2010.04.10 22:41:39.
