data_PCOD8278554
_publ_section_title
;
Structure prediction by ZEFSAII (Michael W. Deem and Ramdas Pophale) SiO2 
 PCOD8278554
Probable space group: C M M A
;
_chemical_formula_sum "Si O2"
_cell_formula_units_Z 92
_cell_length_a 22.573290
_cell_length_b 17.425538
_cell_length_c 11.371772
_cell_angle_alpha 90.000000
_cell_angle_beta 90.000000
_cell_angle_gamma 90.000000
_cell_volume 4473.106106
_symmetry_space_group_name_H-M "C M M A"
_symmetry_group_IT_number 67
_symmetry_cell_setting 'orthorhombic'
loop_
_space_group_symop_operation_xyz
x,y,z
-x,1/2-y,z
x,-y,-z
-x,1/2+y,-z
-x,-y,-z
x,1/2+y,-z
-x,y,z
x,1/2-y,z
1/2+x,1/2+y,z
1/2-x,-y,z
1/2+x,1/2-y,-z
1/2-x,y,-z
1/2-x,1/2-y,-z
1/2+x,y,-z
1/2-x,1/2+y,z
1/2+x,-y,z
loop_
_atom_site_type_symbol
_atom_site_label
_atom_site_fract_x
_atom_site_fract_y
_atom_site_fract_z
Si Si1 0.180934 0.089830 0.502868
Si Si2 0.867429 0.837061 0.259418
Si Si3 0.064644 0.750000 0.758336
Si Si4 0.000000 0.750000 0.526596
Si Si5 0.884719 0.601201 0.719791
Si Si6 0.315957 0.520568 0.864251
Si Si7 0.000000 0.358746 0.691059
Si Si8 0.500000 0.473875 0.631127
O O1 0.250000 0.104161 0.500000
O O2 0.148861 0.129228 0.612819
O O3 0.160412 0.127073 0.381110
O O4 0.163922 0.000000 0.500000
O O5 0.842914 0.750000 0.245247
O O6 0.834746 0.891141 0.162079
O O7 0.939047 0.832469 0.244931
O O8 0.057241 0.750000 0.613976
O O9 0.101719 0.824306 0.799882
O O10 0.000000 0.750000 0.820285
O O11 0.000000 0.674397 0.442741
O O12 0.862398 0.532218 0.798356
O O13 0.944607 0.578517 0.656171
O O14 0.250000 0.500000 0.816645
O O15 0.319813 0.500000 0.000000
O O16 0.000000 0.449587 0.707403
O O17 0.500000 0.500000 0.500000
#
# Coordination Sequence:
#
# PCOD8278554 Si02
#       8
#    16  16   8   4  16  16   8   8
#     4  11  22  38  61  91 138 180 217 266 336 403
#     4  12  24  41  67 102 138 170 221 279 339 407
#     4  10  22  36  59  93 139 169 216 263 321 403
#     4  10  18  34  54  92 150 184 200 248 320 408
#     4  12  22  40  65  95 135 176 222 274 334 403
#     4  11  26  52  74  91 125 180 238 289 339 397
#     4  12  20  34  61  91 137 176 210 255 328 409
#     4  12  20  33  61  96 129 181 218 254 331 419
#
# _framework density 20.567364000000001
#
# number of rings (size 3 to 8) (size 9 to 14) (size 15 to 20)
#    0.261    0.348    5.217    4.696    1.217    0.348 
#    6.261    2.609    0.000    0.000    0.000    0.000 
#    0.000    0.000    0.000    0.000    0.000    0.000 
#
# Total GULP energy -570200.834523 kJ/mol
# GULP energy per Si atom -12395.670316 kJ/mol
# Density = 2.052055 g / cm^3
# Si number density = 20.567364 Si / 1000 Ang^3
#
#
#
# Elastic Constant Matrix: (Units=GPa)
#
#
# Indices 1 2 3 4 5 6 
#
# 1 121.5011 48.6712 26.4804 0.0000 0.0000 0.0000
# 2 48.6712 159.5794 23.7668 0.0000 0.0000 0.0000
# 3 26.4804 23.7668 53.2471 0.0000 0.0000 0.0000
# 4 0.0000 0.0000 0.0000 20.0316 0.0000 0.0000
# 5 0.0000 0.0000 0.0000 0.0000 -45.3314 0.0000
# 6 0.0000 0.0000 0.0000 0.0000 0.0000 15.7445
#
#
#
# Elastic Compliance Matrix: (Units=1/GPa)
#
#
# Indices 1 2 3 4 5 6 
#
# 1 0.010079 -0.002493 -0.003900 0.000000 0.000000 0.000000
# 2 -0.002493 0.007329 -0.002032 0.000000 0.000000 0.000000
# 3 -0.003900 -0.002032 0.021626 0.000000 0.000000 0.000000
# 4 0.000000 0.000000 0.000000 0.049921 0.000000 0.000000
# 5 0.000000 0.000000 0.000000 0.000000 -0.022060 0.000000
# 6 0.000000 0.000000 0.000000 0.000000 0.000000 0.063514
#
#
# Mechanical properties :
#
#
# Convention : Reuss Voigt Hill
#
# Bulk Modulus (GPa) = 45.07316 59.12939 52.10128
# Shear Modulus (GPa) = 32.33003 13.78287 23.05645
#
# Velocity S-wave (km/s) = 3.96903 2.59150 3.35180
# Velocity P-wave (km/s) = 6.55490 6.14541 6.35346
#
# Compressibility (1/GPa) = 0.02218615
#
# Stress axis : x y z
#
# Youngs Moduli (GPa) = 99.21589 136.43515 46.23973
#
# Poissons Ratio (x) = 0.34017 0.18031
# Poissons Ratio (y) = 0.24738 0.09394
# Poissons Ratio (z) = 0.38690 0.27718
#
# Static dielectric constant tensor:
#      x y z
#    x 3.991320 0.000000 0.000000 
#    y 0.000000 5.250080 0.000000 
#    z 0.000000 0.000000 3.344730 
# 
# 
# High freq. dielectric constant tensor:
#      x y z
#    x 1.817930 0.000000 0.000000 
#    y 0.000000 1.820330 0.000000 
#    z 0.000000 0.000000 1.756420 
# 
# From -- ./inp_files/20728.got.cif
#   From: 2010.03.12/outbox.cif.g09.slc.cpg/sg67_11_cif.got.tgz:20728.got - 2010.04.10 22:41:39.
