data_PCOD8278089
_publ_section_title
;
Structure prediction by ZEFSAII (Michael W. Deem and Ramdas Pophale) SiO2 
 PCOD8278089
Probable space group: C M M A
;
_chemical_formula_sum "Si O2"
_cell_formula_units_Z 80
_cell_length_a 18.898971
_cell_length_b 8.850139
_cell_length_c 26.209684
_cell_angle_alpha 90.000000
_cell_angle_beta 90.000000
_cell_angle_gamma 90.000000
_cell_volume 4383.792964
_symmetry_space_group_name_H-M "C M M A"
_symmetry_group_IT_number 67
_symmetry_cell_setting 'orthorhombic'
loop_
_space_group_symop_operation_xyz
x,y,z
-x,1/2-y,z
x,-y,-z
-x,1/2+y,-z
-x,-y,-z
x,1/2+y,-z
-x,y,z
x,1/2-y,z
1/2+x,1/2+y,z
1/2-x,-y,z
1/2+x,1/2-y,-z
1/2-x,y,-z
1/2-x,1/2-y,-z
1/2+x,y,-z
1/2-x,1/2+y,z
1/2+x,-y,z
loop_
_atom_site_type_symbol
_atom_site_label
_atom_site_fract_x
_atom_site_fract_y
_atom_site_fract_z
Si Si1 0.415606 0.418298 0.050093
Si Si2 0.915983 0.417057 0.148891
Si Si3 0.582827 0.425751 0.737711
Si Si4 0.828283 0.431167 0.449611
Si Si5 0.326660 0.429078 0.347737
O O1 0.500000 0.428707 0.050802
O O2 0.387659 0.250000 0.046457
O O3 0.384161 0.484211 0.102861
O O4 0.385196 0.500000 0.000000
O O5 0.884900 0.250000 0.141681
O O6 0.895072 0.477755 0.205029
O O7 0.000000 0.412025 0.145225
O O8 0.500000 0.450233 0.728652
O O9 0.602743 0.250000 0.728891
O O10 0.624266 0.535446 0.700112
O O11 0.867218 0.500000 0.500000
O O12 0.828013 0.250000 0.451378
O O13 0.750000 0.500000 0.448791
O O14 0.863674 0.493063 0.397548
O O15 0.319809 0.250000 0.355964
O O16 0.250000 0.500000 0.337505
#
# Coordination Sequence:
#
# PCOD8278089 Si02
#       5
#    16  16  16  16  16
#     4   9  15  21  31  49  75 107 143 183 226 271
#     4   8  14  25  40  57  80 112 148 184 225 275
#     4   9  18  33  51  70  95 128 162 196 238 287
#     4  10  17  28  46  69  96 123 154 191 235 282
#     4  11  21  33  50  73 100 128 161 199 238 279
#
# _framework density 18.249037000000001
#
# number of rings (size 3 to 8) (size 9 to 14) (size 15 to 20)
#    0.000    2.600    0.000    7.200    0.000    3.600 
#    0.000    2.000    0.000    0.600    0.000    0.000 
#    0.000    0.800    0.000    8.400    0.000   11.600 
#
# Total GULP energy -495676.313931 kJ/mol
# GULP energy per Si atom -12391.907848 kJ/mol
# Density = 1.820750 g / cm^3
# Si number density = 18.249037 Si / 1000 Ang^3
#
#
#
# Elastic Constant Matrix: (Units=GPa)
#
#
# Indices 1 2 3 4 5 6 
#
# 1 19.5107 21.0509 27.7597 0.0000 0.0000 0.0000
# 2 21.0509 157.4800 87.8824 0.0000 0.0000 0.0000
# 3 27.7597 87.8824 186.3526 0.0000 0.0000 0.0000
# 4 0.0000 0.0000 0.0000 40.0518 0.0000 0.0000
# 5 0.0000 0.0000 0.0000 0.0000 -522.7439 0.0000
# 6 0.0000 0.0000 0.0000 0.0000 0.0000 15.0788
#
#
#
# Elastic Compliance Matrix: (Units=1/GPa)
#
#
# Indices 1 2 3 4 5 6 
#
# 1 0.067433 -0.004626 -0.007864 0.000000 0.000000 0.000000
# 2 -0.004626 0.008935 -0.003525 0.000000 0.000000 0.000000
# 3 -0.007864 -0.003525 0.008200 0.000000 0.000000 0.000000
# 4 0.000000 0.000000 0.000000 0.024968 0.000000 0.000000
# 5 0.000000 0.000000 0.000000 0.000000 -0.001913 0.000000
# 6 0.000000 0.000000 0.000000 0.000000 0.000000 0.066318
#
#
# Mechanical properties :
#
#
# Convention : Reuss Voigt Hill
#
# Bulk Modulus (GPa) = 19.03312 70.74769 44.89040
# Shear Modulus (GPa) = 22.37312 -78.41263 -28.01976
#
# Velocity S-wave (km/s) = 3.50521 -6.56212 -3.92268
# Velocity P-wave (km/s) = 5.18018 4.30849 2.03362
#
# Compressibility (1/GPa) = 0.05254000
#
# Stress axis : x y z
#
# Youngs Moduli (GPa) = 14.82955 111.91479 121.95390
#
# Poissons Ratio (x) = 0.51768 0.95899
# Poissons Ratio (y) = 0.06860 0.42986
# Poissons Ratio (z) = 0.11661 0.39448
#
# Static dielectric constant tensor:
#      x y z
#    x 2.621590 0.000000 0.000000 
#    y 0.000000 3.451260 0.000000 
#    z 0.000000 0.000000 4.168200 
# 
# 
# High freq. dielectric constant tensor:
#      x y z
#    x 1.620060 0.000000 0.000000 
#    y 0.000000 1.715190 0.000000 
#    z 0.000000 0.000000 1.738140 
# 
# From -- ./inp_files/43261.got.cif
#   From: 2010.03.12/outbox.cif.g09.slc.cpg/sg67_22_cif.got.tgz:43261.got - 2010.04.10 22:41:39.
