data_PCOD8278974
_publ_section_title
;
Structure prediction by ZEFSAII (Michael W. Deem and Ramdas Pophale) SiO2 
 PCOD8278974
Probable space group: C M M A
;
_chemical_formula_sum "Si O2"
_cell_formula_units_Z 116
_cell_length_a 29.040195
_cell_length_b 20.221175
_cell_length_c 11.287021
_cell_angle_alpha 90.000000
_cell_angle_beta 90.000000
_cell_angle_gamma 90.000000
_cell_volume 6628.041958
_symmetry_space_group_name_H-M "C M M A"
_symmetry_group_IT_number 67
_symmetry_cell_setting 'orthorhombic'
loop_
_space_group_symop_operation_xyz
x,y,z
-x,1/2-y,z
x,-y,-z
-x,1/2+y,-z
-x,-y,-z
x,1/2+y,-z
-x,y,z
x,1/2-y,z
1/2+x,1/2+y,z
1/2-x,-y,z
1/2+x,1/2-y,-z
1/2-x,y,-z
1/2-x,1/2-y,-z
1/2+x,y,-z
1/2-x,1/2+y,z
1/2+x,-y,z
loop_
_atom_site_type_symbol
_atom_site_label
_atom_site_fract_x
_atom_site_fract_y
_atom_site_fract_z
Si Si1 0.641504 0.671985 0.442942
Si Si2 0.640870 0.172901 0.066360
Si Si3 0.200347 0.567077 0.945850
Si Si4 0.282234 0.098385 0.685411
Si Si5 0.948807 0.828694 0.680112
Si Si6 0.250000 0.500000 0.500000
Si Si7 0.949990 0.171838 0.054158
Si Si8 0.314601 0.672479 0.686290
O O1 0.638997 0.750000 0.443286
O O2 0.678951 0.651889 0.344861
O O3 0.590998 0.643080 0.407468
O O4 0.656888 0.646809 0.572687
O O5 0.648880 0.250000 0.037294
O O6 0.653451 0.156455 0.201257
O O7 0.671645 0.132009 0.975596
O O8 0.588220 0.150632 0.041965
O O9 0.204609 0.560158 0.804954
O O10 0.177874 0.500000 0.000000
O O11 0.250000 0.577983 0.000000
O O12 0.233011 0.133645 0.696873
O O13 0.282784 0.044423 0.581645
O O14 0.947541 0.750000 0.678275
O O15 0.938352 0.854529 0.813577
O O16 0.000000 0.852907 0.639672
O O17 0.952488 0.250000 0.061228
O O18 0.000000 0.144028 0.013279
O O19 0.302950 0.750000 0.676786
#
# Coordination Sequence:
#
# PCOD8278974 Si02
#       8
#    16  16  16  16  16   4  16  16
#     4  10  19  32  51  76 103 132 168 207 253 301
#     4  10  20  34  53  77 104 138 175 212 257 307
#     4  11  23  37  52  73 105 136 170 212 259 304
#     4  12  22  36  54  72  99 137 172 208 250 301
#     4   8  14  26  46  72 101 128 158 203 252 299
#     4  12  24  36  52  72  98 132 184 208 236 304
#     4   8  14  27  48  74 101 129 166 211 256 303
#     4  10  20  34  50  73 105 135 167 213 257 297
#
# _framework density 17.501397000000001
#
# number of rings (size 3 to 8) (size 9 to 14) (size 15 to 20)
#    0.000    2.069    2.759    2.897    0.000    3.586 
#    0.000    0.690    0.000    4.552    0.000    0.483 
#    0.000    0.000    0.000    0.000    0.000    0.000 
#
# Total GULP energy -718944.354544 kJ/mol
# GULP energy per Si atom -12395.592320 kJ/mol
# Density = 1.746156 g / cm^3
# Si number density = 17.501397 Si / 1000 Ang^3
#
#
#
# Elastic Constant Matrix: (Units=GPa)
#
#
# Indices 1 2 3 4 5 6 
#
# 1 125.5330 31.6344 65.8552 0.0000 0.0000 0.0000
# 2 31.6344 38.5819 34.0591 0.0000 0.0000 0.0000
# 3 65.8552 34.0591 132.2013 0.0000 0.0000 0.0000
# 4 0.0000 0.0000 0.0000 23.2069 0.0000 0.0000
# 5 0.0000 0.0000 0.0000 0.0000 21.9192 0.0000
# 6 0.0000 0.0000 0.0000 0.0000 0.0000 3.3663
#
#
#
# Elastic Compliance Matrix: (Units=1/GPa)
#
#
# Indices 1 2 3 4 5 6 
#
# 1 0.011695 -0.005755 -0.004343 0.000000 0.000000 0.000000
# 2 -0.005755 0.036381 -0.006506 0.000000 0.000000 0.000000
# 3 -0.004343 -0.006506 0.011404 0.000000 0.000000 0.000000
# 4 0.000000 0.000000 0.000000 0.043091 0.000000 0.000000
# 5 0.000000 0.000000 0.000000 0.000000 0.045622 0.000000
# 6 0.000000 0.000000 0.000000 0.000000 0.000000 0.297058
#
#
# Mechanical properties :
#
#
# Convention : Reuss Voigt Hill
#
# Bulk Modulus (GPa) = 38.06413 62.15709 50.11061
# Shear Modulus (GPa) = 10.26240 20.68298 15.47269
#
# Velocity S-wave (km/s) = 2.42415 3.44145 2.97658
# Velocity P-wave (km/s) = 5.44350 7.16826 6.36458
#
# Compressibility (1/GPa) = 0.02627145
#
# Stress axis : x y z
#
# Youngs Moduli (GPa) = 85.50947 27.48695 87.69006
#
# Poissons Ratio (x) = 0.15818 0.38083
# Poissons Ratio (y) = 0.49210 0.57052
# Poissons Ratio (z) = 0.37136 0.17883
#
# Static dielectric constant tensor:
#      x y z
#    x 3.673900 0.000000 0.000000 
#    y 0.000000 3.029890 0.000000 
#    z 0.000000 0.000000 3.464830 
# 
# 
# High freq. dielectric constant tensor:
#      x y z
#    x 1.675420 0.000000 0.000000 
#    y 0.000000 1.639180 0.000000 
#    z 0.000000 0.000000 1.681680 
# 
# From -- ./inp_files/23040.got.cif
#   From: 2010.03.12/outbox.cif.g09.slc.cpg/sg67_12_cif.got.tgz:23040.got - 2010.04.10 22:41:39.
