data_PCOD8278306
_publ_section_title
;
Structure prediction by ZEFSAII (Michael W. Deem and Ramdas Pophale) SiO2 
 PCOD8278306
Probable space group: C M M A
;
_chemical_formula_sum "Si O2"
_cell_formula_units_Z 104
_cell_length_a 26.743163
_cell_length_b 9.119615
_cell_length_c 24.482707
_cell_angle_alpha 90.000000
_cell_angle_beta 90.000000
_cell_angle_gamma 90.000000
_cell_volume 5971.022542
_symmetry_space_group_name_H-M "C M M A"
_symmetry_group_IT_number 67
_symmetry_cell_setting 'orthorhombic'
loop_
_space_group_symop_operation_xyz
x,y,z
-x,1/2-y,z
x,-y,-z
-x,1/2+y,-z
-x,-y,-z
x,1/2+y,-z
-x,y,z
x,1/2-y,z
1/2+x,1/2+y,z
1/2-x,-y,z
1/2+x,1/2-y,-z
1/2-x,y,-z
1/2-x,1/2-y,-z
1/2+x,y,-z
1/2-x,1/2+y,z
1/2+x,-y,z
loop_
_atom_site_type_symbol
_atom_site_label
_atom_site_fract_x
_atom_site_fract_y
_atom_site_fract_z
Si Si1 0.799968 0.578436 0.719414
Si Si2 0.942589 0.412755 0.245450
Si Si3 0.299998 0.420313 0.846204
Si Si4 0.443238 0.921419 0.554053
Si Si5 0.608855 0.077472 0.334833
Si Si6 0.500000 0.574703 0.058125
Si Si7 0.092259 0.423570 0.130893
O O1 0.794708 0.750000 0.709053
O O2 0.750000 0.500000 0.699903
O O3 0.810955 0.541974 0.782846
O O4 0.842479 0.513235 0.680973
O O5 0.919038 0.250000 0.258105
O O6 0.935311 0.525040 0.294925
O O7 0.918630 0.484094 0.191370
O O8 0.000000 0.391918 0.233022
O O9 0.289234 0.250000 0.853604
O O10 0.250000 0.500000 0.867957
O O11 0.349509 0.467429 0.881639
O O12 0.500000 0.973149 0.566965
O O13 0.441956 0.750000 0.543042
O O14 0.407306 0.964272 0.603975
O O15 0.422429 0.000000 0.500000
O O16 0.617939 0.250000 0.328003
O O17 0.500000 0.750000 0.052467
O O18 0.449209 0.517214 0.088233
O O19 0.500000 0.500000 0.000000
O O20 0.086693 0.250000 0.132960
#
# Coordination Sequence:
#
# PCOD8278306 Si02
#       7
#    16  16  16  16  16   8  16
#     4  10  19  32  50  73 103 135 172 209 250 309
#     4  10  18  30  49  73 100 134 174 208 250 312
#     4   9  17  30  49  73 102 134 171 209 253 305
#     4   9  19  35  52  70  96 131 171 212 254 303
#     4  11  21  32  48  73 106 137 165 206 264 313
#     4  10  20  36  58  78 104 140 179 218 261 306
#     4   9  16  31  53  74 100 137 172 210 255 306
#
# _framework density 17.417452000000001
#
# number of rings (size 3 to 8) (size 9 to 14) (size 15 to 20)
#    0.000    2.308    2.308    1.385    0.000    2.769 
#    0.000    3.077    0.000    0.923    0.000    6.462 
#    0.000    0.000    0.000    0.000    0.000    0.000 
#
# Total GULP energy -644505.872207 kJ/mol
# GULP energy per Si atom -12394.343696 kJ/mol
# Density = 1.737781 g / cm^3
# Si number density = 17.417452 Si / 1000 Ang^3
#
#
#
# Elastic Constant Matrix: (Units=GPa)
#
#
# Indices 1 2 3 4 5 6 
#
# 1 141.4325 40.9569 52.3807 0.0000 0.0000 0.0000
# 2 40.9569 50.0993 30.4022 0.0000 0.0000 0.0000
# 3 52.3807 30.4022 81.2219 0.0000 0.0000 0.0000
# 4 0.0000 0.0000 0.0000 25.1881 0.0000 0.0000
# 5 0.0000 0.0000 0.0000 0.0000 19.1215 0.0000
# 6 0.0000 0.0000 0.0000 0.0000 0.0000 28.6523
#
#
#
# Elastic Compliance Matrix: (Units=1/GPa)
#
#
# Indices 1 2 3 4 5 6 
#
# 1 0.010430 -0.005751 -0.004574 0.000000 0.000000 0.000000
# 2 -0.005751 0.028998 -0.007145 0.000000 0.000000 0.000000
# 3 -0.004574 -0.007145 0.017936 0.000000 0.000000 0.000000
# 4 0.000000 0.000000 0.000000 0.039701 0.000000 0.000000
# 5 0.000000 0.000000 0.000000 0.000000 0.052297 0.000000
# 6 0.000000 0.000000 0.000000 0.000000 0.000000 0.034901
#
#
# Mechanical properties :
#
#
# Convention : Reuss Voigt Hill
#
# Bulk Modulus (GPa) = 44.59530 57.80371 51.19951
# Shear Modulus (GPa) = 22.05771 24.52665 23.29218
#
# Velocity S-wave (km/s) = 3.56253 3.75662 3.66086
# Velocity P-wave (km/s) = 6.52546 7.21634 6.87958
#
# Compressibility (1/GPa) = 0.02242389
#
# Stress axis : x y z
#
# Youngs Moduli (GPa) = 95.87894 34.48515 55.75359
#
# Poissons Ratio (x) = 0.19833 0.25499
# Poissons Ratio (y) = 0.55141 0.39838
# Poissons Ratio (z) = 0.43851 0.24641
#
# Static dielectric constant tensor:
#      x y z
#    x 3.495940 0.000000 0.000000 
#    y 0.000000 3.146040 0.000000 
#    z 0.000000 0.000000 3.048430 
# 
# 
# High freq. dielectric constant tensor:
#      x y z
#    x 1.683670 0.000000 0.000000 
#    y 0.000000 1.658540 0.000000 
#    z 0.000000 0.000000 1.642390 
# 
# From -- ./inp_files/42745.got.cif
#   From: 2010.03.12/outbox.cif.g09.slc.cpg/sg67_22_cif.got.tgz:42745.got - 2010.04.10 22:41:39.
