data_PCOD8278134
_publ_section_title
;
Structure prediction by ZEFSAII (Michael W. Deem and Ramdas Pophale) SiO2 
 PCOD8278134
Probable space group: C M M A
;
_chemical_formula_sum "Si O2"
_cell_formula_units_Z 80
_cell_length_a 8.590490
_cell_length_b 15.044198
_cell_length_c 29.921818
_cell_angle_alpha 90.000000
_cell_angle_beta 90.000000
_cell_angle_gamma 90.000000
_cell_volume 3867.006965
_symmetry_space_group_name_H-M "C M M A"
_symmetry_group_IT_number 67
_symmetry_cell_setting 'orthorhombic'
loop_
_space_group_symop_operation_xyz
x,y,z
-x,1/2-y,z
x,-y,-z
-x,1/2+y,-z
-x,-y,-z
x,1/2+y,-z
-x,y,z
x,1/2-y,z
1/2+x,1/2+y,z
1/2-x,-y,z
1/2+x,1/2-y,-z
1/2-x,y,-z
1/2-x,1/2-y,-z
1/2+x,y,-z
1/2-x,1/2+y,z
1/2+x,-y,z
loop_
_atom_site_type_symbol
_atom_site_label
_atom_site_fract_x
_atom_site_fract_y
_atom_site_fract_z
Si Si1 0.816976 0.596666 0.358809
Si Si2 0.817420 0.402047 0.543552
Si Si3 0.184970 0.900895 0.955246
Si Si4 0.184833 0.401323 0.863677
Si Si5 0.815017 0.750000 0.293034
Si Si6 0.316854 0.750000 0.195977
O O1 0.750000 0.500000 0.348643
O O2 0.768410 0.636654 0.407765
O O3 0.760884 0.663797 0.320716
O O4 0.000000 0.586537 0.357780
O O5 0.750000 0.500000 0.542415
O O6 0.750000 0.349004 0.500000
O O7 0.000000 0.403450 0.538161
O O8 0.249361 0.857346 0.909703
O O9 0.000000 0.898909 0.955466
O O10 0.250000 0.000000 0.955492
O O11 0.250000 0.851804 0.000000
O O12 0.250000 0.500000 0.855408
O O13 0.239206 0.338601 0.823741
O O14 0.000000 0.405852 0.865986
O O15 0.716579 0.750000 0.248202
O O16 0.000000 0.750000 0.283623
O O17 0.500000 0.750000 0.186360
#
# Coordination Sequence:
#
# PCOD8278134 Si02
#       6
#    16  16  16  16   8   8
#     4   9  19  35  57  81 110 145 185 227 277 334
#     4   9  15  25  44  73 105 141 178 218 264 321
#     4  10  17  29  51  83 120 159 198 239 284 339
#     4  11  22  40  64  91 121 158 198 242 293 349
#     4  10  22  42  61  80 108 146 186 234 291 348
#     4  12  26  44  63  88 117 150 193 246 300 356
#
# _framework density 20.687833000000001
#
# number of rings (size 3 to 8) (size 9 to 14) (size 15 to 20)
#    0.000    2.000    0.000    7.500    0.000    2.400 
#    0.000    3.000    0.000    0.000    0.000    0.000 
#    0.000    0.000    0.000    0.000    0.000    0.000 
#
# Total GULP energy -495684.313961 kJ/mol
# GULP energy per Si atom -12392.107849 kJ/mol
# Density = 2.064075 g / cm^3
# Si number density = 20.687833 Si / 1000 Ang^3
#
#
#
# Elastic Constant Matrix: (Units=GPa)
#
#
# Indices 1 2 3 4 5 6 
#
# 1 142.0207 34.3957 61.3898 0.0000 0.0000 0.0000
# 2 34.3957 89.0916 62.1364 0.0000 0.0000 0.0000
# 3 61.3898 62.1364 184.3721 0.0000 0.0000 0.0000
# 4 0.0000 0.0000 0.0000 1150.9607 0.0000 0.0000
# 5 0.0000 0.0000 0.0000 0.0000 35.7516 0.0000
# 6 0.0000 0.0000 0.0000 0.0000 0.0000 15.2986
#
#
#
# Elastic Compliance Matrix: (Units=1/GPa)
#
#
# Indices 1 2 3 4 5 6 
#
# 1 0.008416 -0.001693 -0.002232 0.000000 0.000000 0.000000
# 2 -0.001693 0.015014 -0.004496 0.000000 0.000000 0.000000
# 3 -0.002232 -0.004496 0.007682 0.000000 0.000000 0.000000
# 4 0.000000 0.000000 0.000000 0.000869 0.000000 0.000000
# 5 0.000000 0.000000 0.000000 0.000000 0.027971 0.000000
# 6 0.000000 0.000000 0.000000 0.000000 0.000000 0.065365
#
#
# Mechanical properties :
#
#
# Convention : Reuss Voigt Hill
#
# Bulk Modulus (GPa) = 70.07436 81.25868 75.66652
# Shear Modulus (GPa) = 34.03328 257.57303 145.80316
#
# Velocity S-wave (km/s) = 4.06037 11.17027 8.40421
# Velocity P-wave (km/s) = 7.47850 14.34330 11.43805
#
# Compressibility (1/GPa) = 0.01427056
#
# Stress axis : x y z
#
# Youngs Moduli (GPa) = 118.82337 66.60545 130.17012
#
# Poissons Ratio (x) = 0.11273 0.29051
# Poissons Ratio (y) = 0.20112 0.58529
# Poissons Ratio (z) = 0.26519 0.29948
#
# Static dielectric constant tensor:
#      x y z
#    x 3.746870 0.000000 0.000000 
#    y 0.000000 2.927140 0.000000 
#    z 0.000000 0.000000 4.901050 
# 
# 
# High freq. dielectric constant tensor:
#      x y z
#    x 1.815610 0.000000 0.000000 
#    y 0.000000 1.780120 0.000000 
#    z 0.000000 0.000000 1.830140 
# 
# From -- ./inp_files/43383.got.cif
#   From: 2010.03.12/outbox.cif.g09.slc.cpg/sg67_22_cif.got.tgz:43383.got - 2010.04.10 22:41:39.
