data_PCOD8278917
_publ_section_title
;
Structure prediction by ZEFSAII (Michael W. Deem and Ramdas Pophale) SiO2 
 PCOD8278917
Probable space group: C M M A
;
_chemical_formula_sum "Si O2"
_cell_formula_units_Z 56
_cell_length_a 8.569950
_cell_length_b 14.511853
_cell_length_c 23.955053
_cell_angle_alpha 90.000000
_cell_angle_beta 90.000000
_cell_angle_gamma 90.000000
_cell_volume 2979.190639
_symmetry_space_group_name_H-M "C M M A"
_symmetry_group_IT_number 67
_symmetry_cell_setting 'orthorhombic'
loop_
_space_group_symop_operation_xyz
x,y,z
-x,1/2-y,z
x,-y,-z
-x,1/2+y,-z
-x,-y,-z
x,1/2+y,-z
-x,y,z
x,1/2-y,z
1/2+x,1/2+y,z
1/2-x,-y,z
1/2+x,1/2-y,-z
1/2-x,y,-z
1/2-x,1/2-y,-z
1/2+x,y,-z
1/2-x,1/2+y,z
1/2+x,-y,z
loop_
_atom_site_type_symbol
_atom_site_label
_atom_site_fract_x
_atom_site_fract_y
_atom_site_fract_z
Si Si1 0.814937 0.750000 0.438267
Si Si2 0.685123 0.397267 0.643599
Si Si3 0.815352 0.099928 0.058174
Si Si4 0.314740 0.750000 0.143831
Si Si5 0.815631 0.250000 0.267752
O O1 0.750000 0.750000 0.500000
O O2 0.754214 0.656881 0.409117
O O3 0.000000 0.750000 0.438223
O O4 0.500000 0.399818 0.637469
O O5 0.750000 0.500000 0.646652
O O6 0.737681 0.341968 0.699324
O O7 0.756908 0.161103 0.109842
O O8 0.000000 0.097730 0.053467
O O9 0.750000 0.000000 0.070304
O O10 0.750000 0.140149 0.000000
O O11 0.500000 0.750000 0.148006
O O12 0.239929 0.750000 0.205872
O O13 0.000000 0.250000 0.262724
#
# Coordination Sequence:
#
# PCOD8278917 Si02
#       5
#     8  16  16   8   8
#     4  11  22  38  59  85 116 145 180 223 265 313
#     4  10  20  36  58  82 110 146 182 219 265 315
#     4  10  19  32  50  71  98 130 167 209 259 314
#     4   9  18  32  51  74 100 134 170 211 262 311
#     4   8  17  34  53  75 105 137 174 218 264 312
#
# _framework density 18.797052000000001
#
# number of rings (size 3 to 8) (size 9 to 14) (size 15 to 20)
#    0.000    2.286    0.000    5.143    0.000    1.714 
#    0.000    5.000    0.000   18.857    0.000    0.000 
#    0.000    0.000    0.000    0.000    0.000    0.000 
#
# Total GULP energy -347139.253237 kJ/mol
# GULP energy per Si atom -12397.830473 kJ/mol
# Density = 1.875427 g / cm^3
# Si number density = 18.797052 Si / 1000 Ang^3
#
#
#
# Elastic Constant Matrix: (Units=GPa)
#
#
# Indices 1 2 3 4 5 6 
#
# 1 93.2867 48.0335 47.8405 0.0000 0.0000 0.0000
# 2 48.0335 166.8106 102.3808 0.0000 0.0000 0.0000
# 3 47.8405 102.3808 202.8308 0.0000 0.0000 0.0000
# 4 0.0000 0.0000 0.0000 -66.2286 0.0000 0.0000
# 5 0.0000 0.0000 0.0000 0.0000 21.1761 0.0000
# 6 0.0000 0.0000 0.0000 0.0000 0.0000 25.8232
#
#
#
# Elastic Compliance Matrix: (Units=1/GPa)
#
#
# Indices 1 2 3 4 5 6 
#
# 1 0.012979 -0.002693 -0.001702 0.000000 0.000000 0.000000
# 2 -0.002693 0.009244 -0.004031 0.000000 0.000000 0.000000
# 3 -0.001702 -0.004031 0.007366 0.000000 0.000000 0.000000
# 4 0.000000 0.000000 0.000000 -0.015099 0.000000 0.000000
# 5 0.000000 0.000000 0.000000 0.000000 0.047223 0.000000
# 6 0.000000 0.000000 0.000000 0.000000 0.000000 0.038725
#
#
# Mechanical properties :
#
#
# Convention : Reuss Voigt Hill
#
# Bulk Modulus (GPa) = 78.50514 95.49308 86.99911
# Shear Modulus (GPa) = 41.14015 13.79904 27.46959
#
# Velocity S-wave (km/s) = 4.68338 2.71238 3.82694
# Velocity P-wave (km/s) = 8.43212 7.79242 8.11857
#
# Compressibility (1/GPa) = 0.01273802
#
# Stress axis : x y z
#
# Youngs Moduli (GPa) = 77.04754 108.17568 135.75173
#
# Poissons Ratio (x) = 0.29128 0.23107
# Poissons Ratio (y) = 0.20746 0.54722
# Poissons Ratio (z) = 0.13115 0.43606
#
# Static dielectric constant tensor:
#      x y z
#    x 3.342790 0.000000 0.000000 
#    y 0.000000 6.013410 0.000000 
#    z 0.000000 0.000000 3.835130 
# 
# 
# High freq. dielectric constant tensor:
#      x y z
#    x 1.720260 0.000000 0.000000 
#    y 0.000000 1.737760 0.000000 
#    z 0.000000 0.000000 1.736220 
# 
# From -- ./inp_files/40402.got.cif
#   From: 2010.03.12/outbox.cif.g09.slc.cpg/sg67_21_cif.got.tgz:40402.got - 2010.04.10 22:41:39.
