data_PCOD8278913
_publ_section_title
;
Structure prediction by ZEFSAII (Michael W. Deem and Ramdas Pophale) SiO2 
 PCOD8278913
Probable space group: C M M A
;
_chemical_formula_sum "Si O2"
_cell_formula_units_Z 96
_cell_length_a 8.882361
_cell_length_b 20.073004
_cell_length_c 29.986793
_cell_angle_alpha 90.000000
_cell_angle_beta 90.000000
_cell_angle_gamma 90.000000
_cell_volume 5346.515286
_symmetry_space_group_name_H-M "C M M A"
_symmetry_group_IT_number 67
_symmetry_cell_setting 'orthorhombic'
loop_
_space_group_symop_operation_xyz
x,y,z
-x,1/2-y,z
x,-y,-z
-x,1/2+y,-z
-x,-y,-z
x,1/2+y,-z
-x,y,z
x,1/2-y,z
1/2+x,1/2+y,z
1/2-x,-y,z
1/2+x,1/2-y,-z
1/2-x,y,-z
1/2-x,1/2-y,-z
1/2+x,y,-z
1/2-x,1/2+y,z
1/2+x,-y,z
loop_
_atom_site_type_symbol
_atom_site_label
_atom_site_fract_x
_atom_site_fract_y
_atom_site_fract_z
Si Si1 0.321453 0.823462 0.119027
Si Si2 0.819466 0.429465 0.046888
Si Si3 0.326324 0.827587 0.219072
Si Si4 0.176843 0.431813 0.718061
Si Si5 0.322472 0.568012 0.616750
Si Si6 0.177690 0.174582 0.545804
O O1 0.500000 0.820478 0.118092
O O2 0.257573 0.750000 0.106733
O O3 0.262162 0.876872 0.083532
O O4 0.270284 0.843595 0.168822
O O5 0.750000 0.500000 0.061048
O O6 0.000000 0.434305 0.043547
O O7 0.750000 0.406145 0.000000
O O8 0.500000 0.847814 0.225032
O O9 0.302607 0.750000 0.229809
O O10 0.226071 0.869511 0.252643
O O11 0.250000 0.500000 0.736164
O O12 0.229595 0.417806 0.667384
O O13 0.000000 0.440337 0.721418
O O14 0.500000 0.560329 0.613630
O O15 0.250000 0.500000 0.598750
O O16 0.264245 0.628641 0.586222
O O17 0.230067 0.250000 0.556182
O O18 0.250000 0.148621 0.500000
O O19 0.000000 0.170141 0.540578
#
# Coordination Sequence:
#
# PCOD8278913 Si02
#       6
#    16  16  16  16  16  16
#     4   8  16  32  52  72  96 128 162 196 239 289
#     4  10  19  32  50  71  97 127 160 198 239 285
#     4   9  18  34  54  75 101 132 165 202 246 296
#     4  10  20  34  52  74 101 132 167 206 248 294
#     4   9  19  34  51  71  97 129 161 198 242 288
#     4   9  18  33  51  71  96 126 160 197 238 284
#
# _framework density 17.955621000000001
#
# number of rings (size 3 to 8) (size 9 to 14) (size 15 to 20)
#    0.000    2.833    0.000    2.500    0.000    3.667 
#    0.000    6.667    0.000    5.500    0.000    0.000 
#    0.000    0.000    0.000    0.000    0.000    0.000 
#
# Total GULP energy -595158.777248 kJ/mol
# GULP energy per Si atom -12399.141193 kJ/mol
# Density = 1.791475 g / cm^3
# Si number density = 17.955621 Si / 1000 Ang^3
#
#
#
# Elastic Constant Matrix: (Units=GPa)
#
#
# Indices 1 2 3 4 5 6 
#
# 1 43.8980 34.6292 32.4774 0.0000 0.0000 0.0000
# 2 34.6292 119.4957 91.5143 0.0000 0.0000 0.0000
# 3 32.4774 91.5143 120.5977 0.0000 0.0000 0.0000
# 4 0.0000 0.0000 0.0000 38.2824 0.0000 0.0000
# 5 0.0000 0.0000 0.0000 0.0000 25.0011 0.0000
# 6 0.0000 0.0000 0.0000 0.0000 0.0000 27.7833
#
#
#
# Elastic Compliance Matrix: (Units=1/GPa)
#
#
# Indices 1 2 3 4 5 6 
#
# 1 0.030157 -0.006016 -0.003556 0.000000 0.000000 0.000000
# 2 -0.006016 0.021180 -0.014452 0.000000 0.000000 0.000000
# 3 -0.003556 -0.014452 0.020216 0.000000 0.000000 0.000000
# 4 0.000000 0.000000 0.000000 0.026122 0.000000 0.000000
# 5 0.000000 0.000000 0.000000 0.000000 0.039998 0.000000
# 6 0.000000 0.000000 0.000000 0.000000 0.000000 0.035993
#
#
# Mechanical properties :
#
#
# Convention : Reuss Voigt Hill
#
# Bulk Modulus (GPa) = 42.54427 66.80369 54.67398
# Shear Modulus (GPa) = 21.78188 26.57137 24.17663
#
# Velocity S-wave (km/s) = 3.48673 3.85104 3.67340
# Velocity P-wave (km/s) = 6.32102 7.55378 6.96473
#
# Compressibility (1/GPa) = 0.02350493
#
# Stress axis : x y z
#
# Youngs Moduli (GPa) = 33.16006 47.21520 49.46461
#
# Poissons Ratio (x) = 0.28403 0.17592
# Poissons Ratio (y) = 0.19948 0.71486
# Poissons Ratio (z) = 0.11793 0.68235
#
# Static dielectric constant tensor:
#      x y z
#    x 3.111410 0.000000 0.000000 
#    y 0.000000 3.515010 0.000000 
#    z 0.000000 0.000000 3.487580 
# 
# 
# High freq. dielectric constant tensor:
#      x y z
#    x 1.679440 0.000000 0.000000 
#    y 0.000000 1.699250 0.000000 
#    z 0.000000 0.000000 1.697530 
# 
# From -- ./inp_files/43485.got.cif
#   From: 2010.03.12/outbox.cif.g09.slc.cpg/sg67_22_cif.got.tgz:43485.got - 2010.04.10 22:41:39.
