data_PCOD8278186
_publ_section_title
;
Structure prediction by ZEFSAII (Michael W. Deem and Ramdas Pophale) SiO2 
 PCOD8278186
Probable space group: C M M A
;
_chemical_formula_sum "Si O2"
_cell_formula_units_Z 104
_cell_length_a 27.224206
_cell_length_b 8.931637
_cell_length_c 23.965251
_cell_angle_alpha 90.000000
_cell_angle_beta 90.000000
_cell_angle_gamma 90.000000
_cell_volume 5827.311961
_symmetry_space_group_name_H-M "C M M A"
_symmetry_group_IT_number 67
_symmetry_cell_setting 'orthorhombic'
loop_
_space_group_symop_operation_xyz
x,y,z
-x,1/2-y,z
x,-y,-z
-x,1/2+y,-z
-x,-y,-z
x,1/2+y,-z
-x,y,z
x,1/2-y,z
1/2+x,1/2+y,z
1/2-x,-y,z
1/2+x,1/2-y,-z
1/2-x,y,-z
1/2-x,1/2-y,-z
1/2+x,y,-z
1/2-x,1/2+y,z
1/2+x,-y,z
loop_
_atom_site_type_symbol
_atom_site_label
_atom_site_fract_x
_atom_site_fract_y
_atom_site_fract_z
Si Si1 0.943801 0.573253 0.943039
Si Si2 0.401626 0.073270 0.440848
Si Si3 0.300631 0.073330 0.764600
Si Si4 0.852045 0.920830 0.331849
Si Si5 0.500000 0.929875 0.438904
Si Si6 0.105388 0.573538 0.831667
Si Si7 0.053898 0.579339 0.263239
O O1 0.940485 0.750000 0.949510
O O2 0.907675 0.515236 0.893738
O O3 0.000000 0.523867 0.930449
O O4 0.924547 0.500000 0.000000
O O5 0.412065 0.250000 0.448569
O O6 0.355619 0.047251 0.398375
O O7 0.387237 0.000000 0.500000
O O8 0.449607 0.994470 0.412697
O O9 0.295247 0.250000 0.766028
O O10 0.342109 0.014299 0.808170
O O11 0.250000 0.000000 0.784053
O O12 0.313592 0.025165 0.700909
O O13 0.836286 0.750000 0.320202
O O14 0.906819 0.955646 0.310644
O O15 0.500000 0.750000 0.438141
O O16 0.500000 0.000000 0.500000
O O17 0.105994 0.750000 0.831401
O O18 0.062265 0.521400 0.791010
O O19 0.057684 0.750000 0.243261
O O20 0.000000 0.542070 0.287779
#
# Coordination Sequence:
#
# PCOD8278186 Si02
#       7
#    16  16  16  16   8  16  16
#     4   9  17  29  46  70 102 138 171 201 234 274
#     4  10  19  31  48  67  94 130 165 202 242 289
#     4  10  20  35  56  77  98 122 156 202 252 304
#     4   9  19  33  50  71  96 127 161 197 243 295
#     4  10  18  28  42  62  90 126 168 204 233 274
#     4   9  18  32  49  70  97 129 163 201 244 289
#     4   9  17  28  44  67  95 127 161 197 236 283
#
# _framework density 17.846993000000001
#
# number of rings (size 3 to 8) (size 9 to 14) (size 15 to 20)
#    0.000    2.615    0.000    3.000    1.077    3.385 
#    0.000    1.538    0.000    0.923    0.000    6.462 
#    0.000    0.000    0.000    0.000    0.000    0.000 
#
# Total GULP energy -644459.031640 kJ/mol
# GULP energy per Si atom -12393.442916 kJ/mol
# Density = 1.780637 g / cm^3
# Si number density = 17.846993 Si / 1000 Ang^3
#
#
#
# Elastic Constant Matrix: (Units=GPa)
#
#
# Indices 1 2 3 4 5 6 
#
# 1 76.4730 24.6914 34.9699 0.0000 0.0000 0.0000
# 2 24.6914 53.5859 30.3555 0.0000 0.0000 0.0000
# 3 34.9699 30.3555 101.1597 0.0000 0.0000 0.0000
# 4 0.0000 0.0000 0.0000 26.8832 0.0000 0.0000
# 5 0.0000 0.0000 0.0000 0.0000 17.8140 0.0000
# 6 0.0000 0.0000 0.0000 0.0000 0.0000 24.1774
#
#
#
# Elastic Compliance Matrix: (Units=1/GPa)
#
#
# Indices 1 2 3 4 5 6 
#
# 1 0.016708 -0.005333 -0.004175 0.000000 0.000000 0.000000
# 2 -0.005333 0.024186 -0.005414 0.000000 0.000000 0.000000
# 3 -0.004175 -0.005414 0.012953 0.000000 0.000000 0.000000
# 4 0.000000 0.000000 0.000000 0.037198 0.000000 0.000000
# 5 0.000000 0.000000 0.000000 0.000000 0.056136 0.000000
# 6 0.000000 0.000000 0.000000 0.000000 0.000000 0.041361
#
#
# Mechanical properties :
#
#
# Convention : Reuss Voigt Hill
#
# Bulk Modulus (GPa) = 41.66335 45.69468 43.67902
# Shear Modulus (GPa) = 22.08601 23.18838 22.63720
#
# Velocity S-wave (km/s) = 3.52166 3.60847 3.56533
# Velocity P-wave (km/s) = 6.31914 6.55901 6.44019
#
# Compressibility (1/GPa) = 0.02400191
#
# Stress axis : x y z
#
# Youngs Moduli (GPa) = 59.85209 41.34618 77.20044
#
# Poissons Ratio (x) = 0.22052 0.32234
# Poissons Ratio (y) = 0.31922 0.41796
# Poissons Ratio (z) = 0.24990 0.22384
#
# Static dielectric constant tensor:
#      x y z
#    x 3.388000 0.000000 0.000000 
#    y 0.000000 3.268670 0.000000 
#    z 0.000000 0.000000 3.458110 
# 
# 
# High freq. dielectric constant tensor:
#      x y z
#    x 1.664960 0.000000 0.000000 
#    y 0.000000 1.690320 0.000000 
#    z 0.000000 0.000000 1.682820 
# 
# From -- ./inp_files/42750.got.cif
#   From: 2010.03.12/outbox.cif.g09.slc.cpg/sg67_22_cif.got.tgz:42750.got - 2010.04.10 22:41:39.
