data_PCOD8278592
_publ_section_title
;
Structure prediction by ZEFSAII (Michael W. Deem and Ramdas Pophale) SiO2 
 PCOD8278592
Probable space group: C M M A
;
_chemical_formula_sum "Si O2"
_cell_formula_units_Z 96
_cell_length_a 27.296513
_cell_length_b 9.143370
_cell_length_c 23.787078
_cell_angle_alpha 90.000000
_cell_angle_beta 90.000000
_cell_angle_gamma 90.000000
_cell_volume 5936.829310
_symmetry_space_group_name_H-M "C M M A"
_symmetry_group_IT_number 67
_symmetry_cell_setting 'orthorhombic'
loop_
_space_group_symop_operation_xyz
x,y,z
-x,1/2-y,z
x,-y,-z
-x,1/2+y,-z
-x,-y,-z
x,1/2+y,-z
-x,y,z
x,1/2-y,z
1/2+x,1/2+y,z
1/2-x,-y,z
1/2+x,1/2-y,-z
1/2-x,y,-z
1/2-x,1/2-y,-z
1/2+x,y,-z
1/2-x,1/2+y,z
1/2+x,-y,z
loop_
_atom_site_type_symbol
_atom_site_label
_atom_site_fract_x
_atom_site_fract_y
_atom_site_fract_z
Si Si1 0.798685 0.418872 0.830923
Si Si2 0.897413 0.420291 0.769257
Si Si3 0.443265 0.578244 0.333900
Si Si4 0.850981 0.423131 0.943437
Si Si5 0.058221 0.084935 0.554082
Si Si6 0.446082 0.576296 0.883298
O O1 0.785938 0.250000 0.834443
O O2 0.750000 0.500000 0.811166
O O3 0.840850 0.447599 0.785134
O O4 0.815882 0.472993 0.892574
O O5 0.907061 0.250000 0.755483
O O6 0.910152 0.518911 0.716297
O O7 0.931173 0.474487 0.820863
O O8 0.500000 0.540821 0.321778
O O9 0.435097 0.750000 0.341084
O O10 0.424636 0.499990 0.390363
O O11 0.849406 0.250000 0.951624
O O12 0.906305 0.477845 0.928881
O O13 0.832611 0.500000 0.000000
O O14 0.079145 0.250000 0.555099
O O15 0.000000 0.088034 0.550691
O O16 0.079682 0.000000 0.500000
O O17 0.500000 0.513473 0.898356
O O18 0.445806 0.750000 0.883397
#
# Coordination Sequence:
#
# PCOD8278592 Si02
#       6
#    16  16  16  16  16  16
#     4   9  19  34  50  67  86 109 139 177 223 273
#     4   9  17  30  47  65  84 110 147 184 218 263
#     4  10  19  28  40  63  94 124 153 185 220 258
#     4   9  18  31  45  64  87 109 138 174 211 257
#     4   9  16  26  40  58  84 121 161 195 224 254
#     4   8  14  26  44  62  82 111 143 174 210 253
#
# _framework density 16.170247
#
# number of rings (size 3 to 8) (size 9 to 14) (size 15 to 20)
#    0.000    3.000    0.000    3.500    0.000    5.667 
#    0.000    4.167    0.000    1.000    0.000    0.000 
#    0.000    0.667    0.000    7.000    0.000    4.167 
#
# Total GULP energy -595058.331791 kJ/mol
# GULP energy per Si atom -12397.048579 kJ/mol
# Density = 1.613344 g / cm^3
# Si number density = 16.170247 Si / 1000 Ang^3
#
#
#
# Elastic Constant Matrix: (Units=GPa)
#
#
# Indices 1 2 3 4 5 6 
#
# 1 64.2826 26.3409 19.0185 0.0000 0.0000 0.0000
# 2 26.3409 71.0048 47.3947 0.0000 0.0000 0.0000
# 3 19.0185 47.3947 104.2730 0.0000 0.0000 0.0000
# 4 0.0000 0.0000 0.0000 31.3732 0.0000 0.0000
# 5 0.0000 0.0000 0.0000 0.0000 12.3199 0.0000
# 6 0.0000 0.0000 0.0000 0.0000 0.0000 21.0082
#
#
#
# Elastic Compliance Matrix: (Units=1/GPa)
#
#
# Indices 1 2 3 4 5 6 
#
# 1 0.018355 -0.006567 -0.000363 0.000000 0.000000 0.000000
# 2 -0.006567 0.022567 -0.009059 0.000000 0.000000 0.000000
# 3 -0.000363 -0.009059 0.013774 0.000000 0.000000 0.000000
# 4 0.000000 0.000000 0.000000 0.031874 0.000000 0.000000
# 5 0.000000 0.000000 0.000000 0.000000 0.081170 0.000000
# 6 0.000000 0.000000 0.000000 0.000000 0.000000 0.047601
#
#
# Mechanical properties :
#
#
# Convention : Reuss Voigt Hill
#
# Bulk Modulus (GPa) = 44.01972 47.22986 45.62479
# Shear Modulus (GPa) = 19.61628 22.72734 21.17181
#
# Velocity S-wave (km/s) = 3.48675 3.75307 3.62236
# Velocity P-wave (km/s) = 6.59482 6.93196 6.76549
#
# Compressibility (1/GPa) = 0.02271709
#
# Stress axis : x y z
#
# Youngs Moduli (GPa) = 54.48243 44.31315 72.59994
#
# Poissons Ratio (x) = 0.29100 0.02635
# Poissons Ratio (y) = 0.35777 0.65771
# Poissons Ratio (z) = 0.01977 0.40145
#
# Static dielectric constant tensor:
#      x y z
#    x 2.951750 0.000000 0.000000 
#    y 0.000000 2.905820 0.000000 
#    z 0.000000 0.000000 3.029770 
# 
# 
# High freq. dielectric constant tensor:
#      x y z
#    x 1.589730 0.000000 0.000000 
#    y 0.000000 1.611860 0.000000 
#    z 0.000000 0.000000 1.618700 
# 
# From -- ./inp_files/37169.got.cif
#   From: 2010.03.12/outbox.cif.g09.slc.cpg/sg67_19_cif.got.tgz:37169.got - 2010.04.10 22:41:39.
