data_PCOD8278127
_publ_section_title
;
Structure prediction by ZEFSAII (Michael W. Deem and Ramdas Pophale) SiO2 
 PCOD8278127
Probable space group: C M M A
;
_chemical_formula_sum "Si O2"
_cell_formula_units_Z 96
_cell_length_a 18.096554
_cell_length_b 23.050897
_cell_length_c 13.768319
_cell_angle_alpha 90.000000
_cell_angle_beta 90.000000
_cell_angle_gamma 90.000000
_cell_volume 5743.341402
_symmetry_space_group_name_H-M "C M M A"
_symmetry_group_IT_number 67
_symmetry_cell_setting 'orthorhombic'
loop_
_space_group_symop_operation_xyz
x,y,z
-x,1/2-y,z
x,-y,-z
-x,1/2+y,-z
-x,-y,-z
x,1/2+y,-z
-x,y,z
x,1/2-y,z
1/2+x,1/2+y,z
1/2-x,-y,z
1/2+x,1/2-y,-z
1/2-x,y,-z
1/2-x,1/2-y,-z
1/2+x,y,-z
1/2-x,1/2+y,z
1/2+x,-y,z
loop_
_atom_site_type_symbol
_atom_site_label
_atom_site_fract_x
_atom_site_fract_y
_atom_site_fract_z
Si Si1 0.777111 0.817895 0.899504
Si Si2 0.412696 0.874481 0.596891
Si Si3 0.646505 0.120247 0.619665
Si Si4 0.285463 0.816977 0.695944
Si Si5 0.418721 0.318016 0.795867
Si Si6 0.918877 0.497694 0.385476
O O1 0.783789 0.750000 0.918083
O O2 0.721584 0.831428 0.810574
O O3 0.858308 0.842655 0.871784
O O4 0.750000 0.847939 0.000000
O O5 0.500000 0.861047 0.598072
O O6 0.381637 0.868470 0.488508
O O7 0.369570 0.828415 0.663864
O O8 0.394870 0.937398 0.645100
O O9 0.730447 0.142222 0.633107
O O10 0.591866 0.154389 0.690467
O O11 0.640650 0.051232 0.645278
O O12 0.264391 0.750000 0.676732
O O13 0.500000 0.332698 0.836390
O O14 0.406742 0.250000 0.781208
O O15 0.927391 0.500000 0.500000
O O16 0.000000 0.482117 0.341495
#
# Coordination Sequence:
#
# PCOD8278127 Si02
#       6
#    16  16  16  16  16  16
#     4   8  15  30  48  62  83 115 145 183 234 271
#     4  10  20  32  45  64  94 128 156 183 216 258
#     4  10  17  29  48  66  91 122 151 187 227 257
#     4  10  21  33  45  67  94 118 152 189 220 271
#     4   9  16  25  41  69  95 113 144 185 223 272
#     4   8  15  28  45  65  88 117 156 193 219 250
#
# _framework density 16.715008999999998
#
# number of rings (size 3 to 8) (size 9 to 14) (size 15 to 20)
#    0.000    2.833    0.000    4.500    0.000    3.000 
#    0.000    3.333    0.000    3.000    0.000    9.333 
#    0.000   12.000    0.000    0.000    0.000    0.000 
#
# Total GULP energy -594772.659183 kJ/mol
# GULP energy per Si atom -12391.097066 kJ/mol
# Density = 1.667696 g / cm^3
# Si number density = 16.715009 Si / 1000 Ang^3
#
#
#
# Elastic Constant Matrix: (Units=GPa)
#
#
# Indices 1 2 3 4 5 6 
#
# 1 107.7786 42.2110 61.7908 0.0000 0.0000 0.0000
# 2 42.2110 55.6815 30.9713 0.0000 0.0000 0.0000
# 3 61.7908 30.9713 92.9210 0.0000 0.0000 0.0000
# 4 0.0000 0.0000 0.0000 2.4768 0.0000 0.0000
# 5 0.0000 0.0000 0.0000 0.0000 15.5142 0.0000
# 6 0.0000 0.0000 0.0000 0.0000 0.0000 15.7009
#
#
#
# Elastic Compliance Matrix: (Units=1/GPa)
#
#
# Indices 1 2 3 4 5 6 
#
# 1 0.017734 -0.008451 -0.008976 0.000000 0.000000 0.000000
# 2 -0.008451 0.026074 -0.003071 0.000000 0.000000 0.000000
# 3 -0.008976 -0.003071 0.017754 0.000000 0.000000 0.000000
# 4 0.000000 0.000000 0.000000 0.403752 0.000000 0.000000
# 5 0.000000 0.000000 0.000000 0.000000 0.064457 0.000000
# 6 0.000000 0.000000 0.000000 0.000000 0.000000 0.063691
#
#
# Mechanical properties :
#
#
# Convention : Reuss Voigt Hill
#
# Bulk Modulus (GPa) = 48.62309 58.48081 53.55195
# Shear Modulus (GPa) = 7.79649 14.83224 11.31436
#
# Velocity S-wave (km/s) = 2.16206 2.98209 2.60455
# Velocity P-wave (km/s) = 5.94855 6.84983 6.41504
#
# Compressibility (1/GPa) = 0.02056636
#
# Stress axis : x y z
#
# Youngs Moduli (GPa) = 56.38788 38.35233 56.32450
#
# Poissons Ratio (x) = 0.32413 0.50557
# Poissons Ratio (y) = 0.47655 0.17296
# Poissons Ratio (z) = 0.50614 0.11777
#
# Static dielectric constant tensor:
#      x y z
#    x 3.303720 0.000000 0.000000 
#    y 0.000000 3.306470 0.000000 
#    z 0.000000 0.000000 3.033910 
# 
# 
# High freq. dielectric constant tensor:
#      x y z
#    x 1.647870 0.000000 0.000000 
#    y 0.000000 1.627460 0.000000 
#    z 0.000000 0.000000 1.609980 
# 
# From -- ./inp_files/20848.got.cif
#   From: 2010.03.12/outbox.cif.g09.slc.cpg/sg67_11_cif.got.tgz:20848.got - 2010.04.10 22:41:39.
