data_PCOD8278964
_publ_section_title
;
Structure prediction by ZEFSAII (Michael W. Deem and Ramdas Pophale) SiO2 
 PCOD8278964
Probable space group: C M M A
;
_chemical_formula_sum "Si O2"
_cell_formula_units_Z 112
_cell_length_a 18.197931
_cell_length_b 19.382820
_cell_length_c 17.991565
_cell_angle_alpha 90.000000
_cell_angle_beta 90.000000
_cell_angle_gamma 90.000000
_cell_volume 6346.114723
_symmetry_space_group_name_H-M "C M M A"
_symmetry_group_IT_number 67
_symmetry_cell_setting 'orthorhombic'
loop_
_space_group_symop_operation_xyz
x,y,z
-x,1/2-y,z
x,-y,-z
-x,1/2+y,-z
-x,-y,-z
x,1/2+y,-z
-x,y,z
x,1/2-y,z
1/2+x,1/2+y,z
1/2-x,-y,z
1/2+x,1/2-y,-z
1/2-x,y,-z
1/2-x,1/2-y,-z
1/2+x,y,-z
1/2-x,1/2+y,z
1/2+x,-y,z
loop_
_atom_site_type_symbol
_atom_site_label
_atom_site_fract_x
_atom_site_fract_y
_atom_site_fract_z
Si Si1 0.804031 0.061934 0.315823
Si Si2 0.289384 0.572160 0.145161
Si Si3 0.920311 0.672468 0.466579
Si Si4 0.768915 0.670886 0.416669
Si Si5 0.914684 0.078362 0.026073
Si Si6 0.689703 0.671199 0.936144
Si Si7 0.082575 0.047069 0.434784
O O1 0.817063 0.075130 0.229419
O O2 0.773089 0.130455 0.353369
O O3 0.879077 0.039148 0.355450
O O4 0.750000 0.000000 0.330112
O O5 0.250000 0.500000 0.124032
O O6 0.363332 0.585392 0.098374
O O7 0.227915 0.631651 0.132913
O O8 0.912654 0.750000 0.497266
O O9 0.856764 0.658632 0.405952
O O10 0.912221 0.626308 0.539969
O O11 0.000000 0.659675 0.428251
O O12 0.746078 0.750000 0.407312
O O13 0.750000 0.644634 0.500000
O O14 0.000000 0.098151 0.043298
O O15 0.883386 0.130250 0.962714
O O16 0.909790 0.000000 0.000000
O O17 0.668729 0.750000 0.913983
O O18 0.750000 0.670748 0.000000
O O19 0.000000 0.021019 0.422111
O O20 0.118869 0.000000 0.500000
#
# Coordination Sequence:
#
# PCOD8278964 Si02
#       7
#    16  16  16  16  16  16  16
#     4  11  23  33  51  76 106 141 177 224 278 322
#     4  10  20  36  53  79 113 146 182 220 271 334
#     4   9  17  30  49  70  92 122 168 222 268 313
#     4  10  19  32  51  74  98 131 182 233 267 312
#     4  10  19  33  61  88 110 143 181 224 268 319
#     4   9  18  33  57  84 110 145 181 217 260 316
#     4  10  20  33  49  70  99 136 176 223 279 329
#
# _framework density 17.648593999999999
#
# number of rings (size 3 to 8) (size 9 to 14) (size 15 to 20)
#    0.000    2.143    2.857    0.857    0.000    1.429 
#    0.000    0.000    0.000    1.714    0.000    6.000 
#    0.000    0.000    0.000    0.000    0.000    0.000 
#
# Total GULP energy -694085.709477 kJ/mol
# GULP energy per Si atom -12394.387669 kJ/mol
# Density = 1.760842 g / cm^3
# Si number density = 17.648594 Si / 1000 Ang^3
#
#
#
# Elastic Constant Matrix: (Units=GPa)
#
#
# Indices 1 2 3 4 5 6 
#
# 1 120.2251 40.7100 53.6224 0.0000 0.0000 0.0000
# 2 40.7100 101.7232 34.5068 0.0000 0.0000 0.0000
# 3 53.6224 34.5068 85.7641 0.0000 0.0000 0.0000
# 4 0.0000 0.0000 0.0000 19.5956 0.0000 0.0000
# 5 0.0000 0.0000 0.0000 0.0000 12.8259 0.0000
# 6 0.0000 0.0000 0.0000 0.0000 0.0000 20.5133
#
#
#
# Elastic Compliance Matrix: (Units=1/GPa)
#
#
# Indices 1 2 3 4 5 6 
#
# 1 0.012117 -0.002640 -0.006514 0.000000 0.000000 0.000000
# 2 -0.002640 0.011959 -0.003161 0.000000 0.000000 0.000000
# 3 -0.006514 -0.003161 0.017004 0.000000 0.000000 0.000000
# 4 0.000000 0.000000 0.000000 0.051032 0.000000 0.000000
# 5 0.000000 0.000000 0.000000 0.000000 0.077967 0.000000
# 6 0.000000 0.000000 0.000000 0.000000 0.000000 0.048749
#
#
# Mechanical properties :
#
#
# Convention : Reuss Voigt Hill
#
# Bulk Modulus (GPa) = 60.78630 62.82118 61.80374
# Shear Modulus (GPa) = 20.08503 22.51186 21.29844
#
# Velocity S-wave (km/s) = 3.37716 3.57537 3.47768
# Velocity P-wave (km/s) = 7.05155 7.26066 7.15687
#
# Compressibility (1/GPa) = 0.01645108
#
# Stress axis : x y z
#
# Youngs Moduli (GPa) = 82.53021 83.61624 58.80796
#
# Poissons Ratio (x) = 0.22071 0.38306
# Poissons Ratio (y) = 0.21784 0.18592
# Poissons Ratio (z) = 0.53758 0.26435
#
# Static dielectric constant tensor:
#      x y z
#    x 3.564750 0.000000 0.000000 
#    y 0.000000 4.969440 0.000000 
#    z 0.000000 0.000000 3.008450 
# 
# 
# High freq. dielectric constant tensor:
#      x y z
#    x 1.690880 0.000000 0.000000 
#    y 0.000000 1.695240 0.000000 
#    z 0.000000 0.000000 1.642110 
# 
# From -- ./inp_files/34460.got.cif
#   From: 2010.03.12/outbox.cif.g09.slc.cpg/sg67_18_cif.got.tgz:34460.got - 2010.04.10 22:41:39.
