data_PCOD8278997
_publ_section_title
;
Structure prediction by ZEFSAII (Michael W. Deem and Ramdas Pophale) SiO2 
 PCOD8278997
Probable space group: C M M A
;
_chemical_formula_sum "Si O2"
_cell_formula_units_Z 96
_cell_length_a 18.704048
_cell_length_b 8.750390
_cell_length_c 31.057463
_cell_angle_alpha 90.000000
_cell_angle_beta 90.000000
_cell_angle_gamma 90.000000
_cell_volume 5083.103990
_symmetry_space_group_name_H-M "C M M A"
_symmetry_group_IT_number 67
_symmetry_cell_setting 'orthorhombic'
loop_
_space_group_symop_operation_xyz
x,y,z
-x,1/2-y,z
x,-y,-z
-x,1/2+y,-z
-x,-y,-z
x,1/2+y,-z
-x,y,z
x,1/2-y,z
1/2+x,1/2+y,z
1/2-x,-y,z
1/2+x,1/2-y,-z
1/2-x,y,-z
1/2-x,1/2-y,-z
1/2+x,y,-z
1/2-x,1/2+y,z
1/2+x,-y,z
loop_
_atom_site_type_symbol
_atom_site_label
_atom_site_fract_x
_atom_site_fract_y
_atom_site_fract_z
Si Si1 0.672384 0.431741 0.455992
Si Si2 0.828403 0.431716 0.205948
Si Si3 0.080215 0.068738 0.125410
Si Si4 0.919019 0.069237 0.286838
Si Si5 0.918446 0.570704 0.374909
Si Si6 0.673472 0.568438 0.045135
O O1 0.639219 0.500000 0.500000
O O2 0.676159 0.250000 0.459650
O O3 0.750000 0.500000 0.448104
O O4 0.624304 0.487661 0.416362
O O5 0.822948 0.250000 0.205223
O O6 0.750000 0.500000 0.204244
O O7 0.873363 0.493811 0.165263
O O8 0.868660 0.491353 0.248642
O O9 0.076624 0.250000 0.128069
O O10 0.116749 0.016638 0.080987
O O11 0.000000 0.000312 0.127515
O O12 0.918812 0.250000 0.287871
O O13 0.000000 0.008193 0.279512
O O14 0.887623 0.007745 0.331896
O O15 0.909926 0.750000 0.368955
O O16 0.000000 0.521073 0.382092
O O17 0.680333 0.750000 0.041521
O O18 0.750000 0.500000 0.058013
O O19 0.646453 0.500000 0.000000
#
# Coordination Sequence:
#
# PCOD8278997 Si02
#       6
#    16  16  16  16  16  16
#     4  10  20  34  52  73  99 131 166 204 246 292
#     4  10  20  34  53  76 102 130 164 206 247 293
#     4   9  18  33  53  75  99 131 169 207 249 295
#     4   9  18  33  53  75  98 128 166 204 242 287
#     4   9  19  35  53  74 101 132 164 201 247 295
#     4  10  19  32  52  75 101 133 167 205 249 297
#
# _framework density 18.886099000000002
#
# number of rings (size 3 to 8) (size 9 to 14) (size 15 to 20)
#    0.000    2.500    0.000    3.000    0.000    5.333 
#    0.000    4.167    0.000    5.000    0.000    0.000 
#    0.000    0.000    0.000    0.000    0.000    0.000 
#
# Total GULP energy -595215.759226 kJ/mol
# GULP energy per Si atom -12400.328317 kJ/mol
# Density = 1.884311 g / cm^3
# Si number density = 18.886099 Si / 1000 Ang^3
#
#
#
# Elastic Constant Matrix: (Units=GPa)
#
#
# Indices 1 2 3 4 5 6 
#
# 1 133.3292 27.4993 111.3146 0.0000 0.0000 0.0000
# 2 27.4993 40.2560 39.5261 0.0000 0.0000 0.0000
# 3 111.3146 39.5261 201.6267 0.0000 0.0000 0.0000
# 4 0.0000 0.0000 0.0000 26.2534 0.0000 0.0000
# 5 0.0000 0.0000 0.0000 0.0000 42.6762 0.0000
# 6 0.0000 0.0000 0.0000 0.0000 0.0000 23.8135
#
#
#
# Elastic Compliance Matrix: (Units=1/GPa)
#
#
# Indices 1 2 3 4 5 6 
#
# 1 0.014108 -0.002464 -0.007306 0.000000 0.000000 0.000000
# 2 -0.002464 0.031193 -0.004755 0.000000 0.000000 0.000000
# 3 -0.007306 -0.004755 0.009925 0.000000 0.000000 0.000000
# 4 0.000000 0.000000 0.000000 0.038090 0.000000 0.000000
# 5 0.000000 0.000000 0.000000 0.000000 0.023432 0.000000
# 6 0.000000 0.000000 0.000000 0.000000 0.000000 0.041993
#
#
# Mechanical properties :
#
#
# Convention : Reuss Voigt Hill
#
# Bulk Modulus (GPa) = 38.20141 81.32131 59.76136
# Shear Modulus (GPa) = 25.44336 31.67342 28.55839
#
# Velocity S-wave (km/s) = 3.67440 4.09965 3.89284
# Velocity P-wave (km/s) = 6.18650 8.09703 7.20537
#
# Compressibility (1/GPa) = 0.02617704
#
# Stress axis : x y z
#
# Youngs Moduli (GPa) = 70.88270 32.05895 100.75525
#
# Poissons Ratio (x) = 0.07899 0.73608
# Poissons Ratio (y) = 0.17465 0.47904
# Poissons Ratio (z) = 0.51784 0.15243
#
# Static dielectric constant tensor:
#      x y z
#    x 3.537220 0.000000 0.000000 
#    y 0.000000 3.235270 0.000000 
#    z 0.000000 0.000000 3.795070 
# 
# 
# High freq. dielectric constant tensor:
#      x y z
#    x 1.731140 0.000000 0.000000 
#    y 0.000000 1.713480 0.000000 
#    z 0.000000 0.000000 1.751780 
# 
# From -- ./inp_files/43420.got.cif
#   From: 2010.03.12/outbox.cif.g09.slc.cpg/sg67_22_cif.got.tgz:43420.got - 2010.04.10 22:41:39.
