data_PCOD8278103
_publ_section_title
;
Structure prediction by ZEFSAII (Michael W. Deem and Ramdas Pophale) SiO2 
 PCOD8278103
Probable space group: C M M A
;
_chemical_formula_sum "Si O2"
_cell_formula_units_Z 64
_cell_length_a 17.752031
_cell_length_b 15.777218
_cell_length_c 12.663538
_cell_angle_alpha 90.000000
_cell_angle_beta 90.000000
_cell_angle_gamma 90.000000
_cell_volume 3546.774129
_symmetry_space_group_name_H-M "C M M A"
_symmetry_group_IT_number 67
_symmetry_cell_setting 'orthorhombic'
loop_
_space_group_symop_operation_xyz
x,y,z
-x,1/2-y,z
x,-y,-z
-x,1/2+y,-z
-x,-y,-z
x,1/2+y,-z
-x,y,z
x,1/2-y,z
1/2+x,1/2+y,z
1/2-x,-y,z
1/2+x,1/2-y,-z
1/2-x,y,-z
1/2-x,1/2-y,-z
1/2+x,y,-z
1/2-x,1/2+y,z
1/2+x,-y,z
loop_
_atom_site_type_symbol
_atom_site_label
_atom_site_fract_x
_atom_site_fract_y
_atom_site_fract_z
Si Si1 0.230468 0.407001 0.742322
Si Si2 0.371044 0.605733 0.394563
Si Si3 0.581678 0.750000 0.239770
Si Si4 0.773890 0.250000 0.120162
Si Si5 0.914276 0.584683 0.379909
O O1 0.250000 0.500000 0.791043
O O2 0.282504 0.398368 0.636817
O O3 0.243722 0.335639 0.828407
O O4 0.142936 0.393034 0.714184
O O5 0.410390 0.668334 0.313391
O O6 0.382907 0.633915 0.515946
O O7 0.413099 0.516335 0.389840
O O8 0.500000 0.750000 0.187422
O O9 0.636498 0.750000 0.138951
O O10 0.750000 0.250000 0.000000
O O11 0.000000 0.614166 0.354738
#
# Coordination Sequence:
#
# PCOD8278103 Si02
#       5
#    16  16   8   8  16
#     4   9  19  34  52  72  98 132 164 198 243 292
#     4   9  17  29  47  71 103 135 163 189 228 285
#     4  10  18  31  51  75  95 121 162 209 243 278
#     4  10  22  39  55  71  93 123 166 211 255 300
#     4  10  17  28  46  73 105 136 161 189 228 283
#
# _framework density 18.044566
#
# number of rings (size 3 to 8) (size 9 to 14) (size 15 to 20)
#    0.000    2.500    0.000    3.750    0.000    4.500 
#    0.000    6.875    0.000    0.000    0.000   10.500 
#    0.000    0.000    0.000    0.000    0.000    0.000 
#
# Total GULP energy -396504.730762 kJ/mol
# GULP energy per Si atom -12390.772836 kJ/mol
# Density = 1.800350 g / cm^3
# Si number density = 18.044566 Si / 1000 Ang^3
#
#
#
# Elastic Constant Matrix: (Units=GPa)
#
#
# Indices 1 2 3 4 5 6 
#
# 1 153.2048 50.0454 65.0082 0.0000 0.0000 0.0000
# 2 50.0454 80.8716 55.8724 0.0000 0.0000 0.0000
# 3 65.0082 55.8724 107.5061 0.0000 0.0000 0.0000
# 4 0.0000 0.0000 0.0000 17.3407 0.0000 0.0000
# 5 0.0000 0.0000 0.0000 0.0000 14.9873 0.0000
# 6 0.0000 0.0000 0.0000 0.0000 0.0000 15.1356
#
#
#
# Elastic Compliance Matrix: (Units=1/GPa)
#
#
# Indices 1 2 3 4 5 6 
#
# 1 0.009192 -0.002883 -0.004060 0.000000 0.000000 0.000000
# 2 -0.002883 0.020197 -0.008753 0.000000 0.000000 0.000000
# 3 -0.004060 -0.008753 0.016306 0.000000 0.000000 0.000000
# 4 0.000000 0.000000 0.000000 0.057668 0.000000 0.000000
# 5 0.000000 0.000000 0.000000 0.000000 0.066723 0.000000
# 6 0.000000 0.000000 0.000000 0.000000 0.000000 0.066069
#
#
# Mechanical properties :
#
#
# Convention : Reuss Voigt Hill
#
# Bulk Modulus (GPa) = 69.91929 75.93715 72.92822
# Shear Modulus (GPa) = 18.36117 20.86983 19.61550
#
# Velocity S-wave (km/s) = 3.19336 3.40453 3.30063
# Velocity P-wave (km/s) = 7.24078 7.59137 7.41815
#
# Compressibility (1/GPa) = 0.01430221
#
# Stress axis : x y z
#
# Youngs Moduli (GPa) = 108.79426 49.51265 61.32823
#
# Poissons Ratio (x) = 0.14276 0.24897
# Poissons Ratio (y) = 0.31369 0.53681
# Poissons Ratio (z) = 0.44166 0.43339
#
# Static dielectric constant tensor:
#      x y z
#    x 3.484700 0.000000 0.000000 
#    y 0.000000 3.424480 0.000000 
#    z 0.000000 0.000000 2.898810 
# 
# 
# High freq. dielectric constant tensor:
#      x y z
#    x 1.709930 0.000000 0.000000 
#    y 0.000000 1.701170 0.000000 
#    z 0.000000 0.000000 1.647260 
# 
# From -- ./inp_files/17565.got.cif
#   From: 2010.03.12/outbox.cif.g09.slc.cpg/sg67_9_cif.got.tgz:17565.got - 2010.04.10 22:41:39.
