data_PCOD8278439
_publ_section_title
;
Structure prediction by ZEFSAII (Michael W. Deem and Ramdas Pophale) SiO2 
 PCOD8278439
Probable space group: C M M A
;
_chemical_formula_sum "Si O2"
_cell_formula_units_Z 120
_cell_length_a 8.722663
_cell_length_b 29.229274
_cell_length_c 27.185931
_cell_angle_alpha 90.000000
_cell_angle_beta 90.000000
_cell_angle_gamma 90.000000
_cell_volume 6931.246314
_symmetry_space_group_name_H-M "C M M A"
_symmetry_group_IT_number 67
_symmetry_cell_setting 'orthorhombic'
loop_
_space_group_symop_operation_xyz
x,y,z
-x,1/2-y,z
x,-y,-z
-x,1/2+y,-z
-x,-y,-z
x,1/2+y,-z
-x,y,z
x,1/2-y,z
1/2+x,1/2+y,z
1/2-x,-y,z
1/2+x,1/2-y,-z
1/2-x,y,-z
1/2-x,1/2-y,-z
1/2+x,y,-z
1/2-x,1/2+y,z
1/2+x,-y,z
loop_
_atom_site_type_symbol
_atom_site_label
_atom_site_fract_x
_atom_site_fract_y
_atom_site_fract_z
Si Si1 0.682052 0.250000 0.553878
Si Si2 0.175381 0.699430 0.363621
Si Si3 0.318326 0.547702 0.130152
Si Si4 0.677865 0.453656 0.758372
Si Si5 0.320674 0.642951 0.280434
Si Si6 0.178446 0.302358 0.091051
Si Si7 0.824585 0.697583 0.193089
Si Si8 0.320168 0.887372 0.949606
O O1 0.500000 0.250000 0.552194
O O2 0.750000 0.250000 0.500000
O O3 0.744187 0.204755 0.582763
O O4 0.180996 0.750000 0.337610
O O5 0.268538 0.661722 0.333169
O O6 0.000000 0.683152 0.369900
O O7 0.500000 0.547056 0.125199
O O8 0.250000 0.500000 0.110712
O O9 0.262434 0.556512 0.186215
O O10 0.252173 0.588024 0.097243
O O11 0.500000 0.462983 0.761311
O O12 0.750000 0.500000 0.736389
O O13 0.716408 0.411138 0.722732
O O14 0.500000 0.652644 0.272153
O O15 0.222780 0.667532 0.239049
O O16 0.223404 0.250000 0.079811
O O17 0.217299 0.314893 0.147279
O O18 0.277303 0.333748 0.054528
O O19 0.000000 0.311835 0.082115
O O20 0.802889 0.750000 0.208584
O O21 0.000000 0.687015 0.178611
O O22 0.500000 0.894832 0.950453
O O23 0.250000 0.907437 0.000000
#
# Coordination Sequence:
#
# PCOD8278439 Si02
#       8
#     8  16  16  16  16  16  16  16
#     4  10  18  32  52  74 104 146 188 230 271 310
#     4   9  19  32  46  70 104 141 183 223 261 307
#     4  10  20  38  60  81 105 130 161 202 248 303
#     4   9  20  35  52  74  99 130 168 207 249 303
#     4  11  20  30  47  72 103 138 174 214 262 308
#     4  10  21  38  57  76  99 128 163 201 242 293
#     4  10  20  32  48  72 101 133 168 203 242 296
#     4  12  25  40  58  79 101 126 157 196 247 301
#
# _framework density 17.312902999999999
#
# number of rings (size 3 to 8) (size 9 to 14) (size 15 to 20)
#    0.400    1.467    0.000    4.800    0.000    6.400 
#    0.000    1.333    0.000    0.000    0.000    0.000 
#    0.000    0.533    0.000    5.600    0.000    3.067 
#
# Total GULP energy -744012.764373 kJ/mol
# GULP energy per Si atom -12400.212740 kJ/mol
# Density = 1.727350 g / cm^3
# Si number density = 17.312903 Si / 1000 Ang^3
#
#
#
# Elastic Constant Matrix: (Units=GPa)
#
#
# Indices 1 2 3 4 5 6 
#
# 1 89.9385 37.4865 25.9138 0.0000 0.0000 0.0000
# 2 37.4865 87.8589 41.6823 0.0000 0.0000 0.0000
# 3 25.9138 41.6823 71.7344 0.0000 0.0000 0.0000
# 4 0.0000 0.0000 0.0000 17.1774 0.0000 0.0000
# 5 0.0000 0.0000 0.0000 0.0000 28.9685 0.0000
# 6 0.0000 0.0000 0.0000 0.0000 0.0000 30.1468
#
#
#
# Elastic Compliance Matrix: (Units=1/GPa)
#
#
# Indices 1 2 3 4 5 6 
#
# 1 0.013760 -0.004850 -0.002153 0.000000 0.000000 0.000000
# 2 -0.004850 0.017423 -0.008372 0.000000 0.000000 0.000000
# 3 -0.002153 -0.008372 0.019583 0.000000 0.000000 0.000000
# 4 0.000000 0.000000 0.000000 0.058216 0.000000 0.000000
# 5 0.000000 0.000000 0.000000 0.000000 0.034520 0.000000
# 6 0.000000 0.000000 0.000000 0.000000 0.000000 0.033171
#
#
# Mechanical properties :
#
#
# Convention : Reuss Voigt Hill
#
# Bulk Modulus (GPa) = 49.95767 51.07743 50.51755
# Shear Modulus (GPa) = 23.35418 24.88850 24.12134
#
# Velocity S-wave (km/s) = 3.67678 3.79564 3.73669
# Velocity P-wave (km/s) = 6.85152 6.98397 6.91806
#
# Compressibility (1/GPa) = 0.02001695
#
# Stress axis : x y z
#
# Youngs Moduli (GPa) = 72.67238 57.39571 51.06570
#
# Poissons Ratio (x) = 0.27835 0.10994
# Poissons Ratio (y) = 0.35244 0.42752
# Poissons Ratio (z) = 0.15646 0.48051
#
# Static dielectric constant tensor:
#      x y z
#    x 3.317100 0.000000 0.000000 
#    y 0.000000 3.267470 0.000000 
#    z 0.000000 0.000000 3.027610 
# 
# 
# High freq. dielectric constant tensor:
#      x y z
#    x 1.685190 0.000000 0.000000 
#    y 0.000000 1.659820 0.000000 
#    z 0.000000 0.000000 1.635380 
# 
# From -- ./inp_files/43950.got.cif
#   From: 2010.03.12/outbox.cif.g09.slc.cpg/sg67_22_cif.got.tgz:43950.got - 2010.04.10 22:41:39.
