data_PCOD8278049
_publ_section_title
;
Structure prediction by ZEFSAII (Michael W. Deem and Ramdas Pophale) SiO2 
 PCOD8278049
Probable space group: C M M A
;
_chemical_formula_sum "Si O2"
_cell_formula_units_Z 96
_cell_length_a 8.794436
_cell_length_b 19.310399
_cell_length_c 31.268880
_cell_angle_alpha 90.000000
_cell_angle_beta 90.000000
_cell_angle_gamma 90.000000
_cell_volume 5310.208408
_symmetry_space_group_name_H-M "C M M A"
_symmetry_group_IT_number 67
_symmetry_cell_setting 'orthorhombic'
loop_
_space_group_symop_operation_xyz
x,y,z
-x,1/2-y,z
x,-y,-z
-x,1/2+y,-z
-x,-y,-z
x,1/2+y,-z
-x,y,z
x,1/2-y,z
1/2+x,1/2+y,z
1/2-x,-y,z
1/2+x,1/2-y,-z
1/2-x,y,-z
1/2-x,1/2-y,-z
1/2+x,y,-z
1/2-x,1/2+y,z
1/2+x,-y,z
loop_
_atom_site_type_symbol
_atom_site_label
_atom_site_fract_x
_atom_site_fract_y
_atom_site_fract_z
Si Si1 0.323070 0.424919 0.459360
Si Si2 0.323241 0.670810 0.792866
Si Si3 0.181704 0.923278 0.957674
Si Si4 0.180339 0.075207 0.871889
Si Si5 0.677285 0.925167 0.634830
Si Si6 0.176947 0.669784 0.705314
O O1 0.500000 0.430887 0.467972
O O2 0.250000 0.500000 0.458664
O O3 0.250000 0.382995 0.500000
O O4 0.288826 0.392741 0.412522
O O5 0.500000 0.662774 0.782277
O O6 0.281168 0.750000 0.803913
O O7 0.274871 0.624173 0.832741
O O8 0.231231 0.643937 0.751753
O O9 0.243574 0.888965 0.913922
O O10 0.000000 0.923631 0.959213
O O11 0.250000 0.000000 0.957024
O O12 0.250000 0.885091 0.000000
O O13 0.000000 0.068928 0.878542
O O14 0.250000 0.000000 0.862683
O O15 0.500000 0.935559 0.641781
O O16 0.738221 0.871157 0.668635
O O17 0.750000 0.000000 0.641639
O O18 0.218974 0.750000 0.699672
O O19 0.000000 0.655307 0.701009
#
# Coordination Sequence:
#
# PCOD8278049 Si02
#       6
#    16  16  16  16  16  16
#     4   9  16  26  43  68  97 129 162 197 240 289
#     4   9  19  36  55  72  94 129 168 203 243 294
#     4  10  17  27  44  67  97 129 161 196 236 283
#     4  10  19  31  49  74 101 127 159 199 243 288
#     4  10  20  33  51  76 104 133 166 206 250 295
#     4  10  21  36  54  75  99 130 168 208 250 299
#
# _framework density 18.078386999999999
#
# number of rings (size 3 to 8) (size 9 to 14) (size 15 to 20)
#    0.000    2.333    0.000    5.500    0.000    5.000 
#    0.000    1.667    0.000    1.000    0.000    0.000 
#    0.000    0.000    0.000    0.000    0.000    0.000 
#
# Total GULP energy -594913.181588 kJ/mol
# GULP energy per Si atom -12394.024616 kJ/mol
# Density = 1.803724 g / cm^3
# Si number density = 18.078387 Si / 1000 Ang^3
#
#
#
# Elastic Constant Matrix: (Units=GPa)
#
#
# Indices 1 2 3 4 5 6 
#
# 1 121.2782 36.4179 86.7602 0.0000 0.0000 0.0000
# 2 36.4179 45.2791 62.3831 0.0000 0.0000 0.0000
# 3 86.7602 62.3831 194.9050 0.0000 0.0000 0.0000
# 4 0.0000 0.0000 0.0000 -9.6218 0.0000 0.0000
# 5 0.0000 0.0000 0.0000 0.0000 42.7594 0.0000
# 6 0.0000 0.0000 0.0000 0.0000 0.0000 20.9595
#
#
#
# Elastic Compliance Matrix: (Units=1/GPa)
#
#
# Indices 1 2 3 4 5 6 
#
# 1 0.012547 -0.004287 -0.004213 0.000000 0.000000 0.000000
# 2 -0.004287 0.040971 -0.011205 0.000000 0.000000 0.000000
# 3 -0.004213 -0.011205 0.010593 0.000000 0.000000 0.000000
# 4 0.000000 0.000000 0.000000 -0.103931 0.000000 0.000000
# 5 0.000000 0.000000 0.000000 0.000000 0.023387 0.000000
# 6 0.000000 0.000000 0.000000 0.000000 0.000000 0.047711
#
#
# Mechanical properties :
#
#
# Convention : Reuss Voigt Hill
#
# Bulk Modulus (GPa) = 40.48564 81.39829 60.94197
# Shear Modulus (GPa) = 63.35428 22.54616 42.95022
#
# Velocity S-wave (km/s) = 5.92624 3.53531 4.87948
# Velocity P-wave (km/s) = 8.32287 7.86050 8.09499
#
# Compressibility (1/GPa) = 0.02470011
#
# Stress axis : x y z
#
# Youngs Moduli (GPa) = 79.70268 24.40731 94.40601
#
# Poissons Ratio (x) = 0.10463 0.39772
# Poissons Ratio (y) = 0.34168 1.05786
# Poissons Ratio (z) = 0.33578 0.27349
#
# Static dielectric constant tensor:
#      x y z
#    x 3.460000 0.000000 0.000000 
#    y 0.000000 2.914420 0.000000 
#    z 0.000000 0.000000 4.547190 
# 
# 
# High freq. dielectric constant tensor:
#      x y z
#    x 1.717160 0.000000 0.000000 
#    y 0.000000 1.644030 0.000000 
#    z 0.000000 0.000000 1.729190 
# 
# From -- ./inp_files/43649.got.cif
#   From: 2010.03.12/outbox.cif.g09.slc.cpg/sg67_22_cif.got.tgz:43649.got - 2010.04.10 22:41:39.
