data_PCOD8278372
_publ_section_title
;
Structure prediction by ZEFSAII (Michael W. Deem and Ramdas Pophale) SiO2 
 PCOD8278372
Probable space group: C M M A
;
_chemical_formula_sum "Si O2"
_cell_formula_units_Z 72
_cell_length_a 8.873458
_cell_length_b 25.326716
_cell_length_c 19.950647
_cell_angle_alpha 90.000000
_cell_angle_beta 90.000000
_cell_angle_gamma 90.000000
_cell_volume 4483.619640
_symmetry_space_group_name_H-M "C M M A"
_symmetry_group_IT_number 67
_symmetry_cell_setting 'orthorhombic'
loop_
_space_group_symop_operation_xyz
x,y,z
-x,1/2-y,z
x,-y,-z
-x,1/2+y,-z
-x,-y,-z
x,1/2+y,-z
-x,y,z
x,1/2-y,z
1/2+x,1/2+y,z
1/2-x,-y,z
1/2+x,1/2-y,-z
1/2-x,y,-z
1/2-x,1/2-y,-z
1/2+x,y,-z
1/2-x,1/2+y,z
1/2+x,-y,z
loop_
_atom_site_type_symbol
_atom_site_label
_atom_site_fract_x
_atom_site_fract_y
_atom_site_fract_z
Si Si1 0.820503 0.943931 0.929941
Si Si2 0.822175 0.854004 0.152562
Si Si3 0.676621 0.750000 0.927873
Si Si4 0.679181 0.808604 0.709043
Si Si5 0.333214 0.186970 0.435558
O O1 0.775637 0.902772 0.872924
O O2 0.000000 0.948576 0.936598
O O3 0.750000 0.000000 0.909986
O O4 0.750000 0.924107 0.000000
O O5 0.772816 0.801668 0.112751
O O6 0.775719 0.847312 0.230505
O O7 0.000000 0.865111 0.144063
O O8 0.500000 0.750000 0.938093
O O9 0.750000 0.750000 0.000000
O O10 0.500000 0.804203 0.703999
O O11 0.743795 0.750000 0.724070
O O12 0.740402 0.829579 0.636576
O O13 0.500000 0.163683 0.439865
O O14 0.334072 0.250000 0.439050
O O15 0.250000 0.162486 0.500000
#
# Coordination Sequence:
#
# PCOD8278372 Si02
#       5
#    16  16   8  16  16
#     4  11  22  37  54  71  89 114 149 191 236 278
#     4  10  18  31  49  69  92 121 154 189 226 270
#     4  10  20  30  44  64  89 120 152 182 219 266
#     4   8  13  24  42  62  87 121 157 185 217 264
#     4   8  13  21  35  55  80 114 153 188 217 252
#
# _framework density 16.058453
#
# number of rings (size 3 to 8) (size 9 to 14) (size 15 to 20)
#    0.000    2.667    1.111    4.667    0.000    2.667 
#    0.000    1.111    0.000    1.333    0.000    0.000 
#    0.000    0.889    0.000   10.222    0.000    3.556 
#
# Total GULP energy -446125.132145 kJ/mol
# GULP energy per Si atom -12392.364782 kJ/mol
# Density = 1.602190 g / cm^3
# Si number density = 16.058453 Si / 1000 Ang^3
#
#
#
# Elastic Constant Matrix: (Units=GPa)
#
#
# Indices 1 2 3 4 5 6 
#
# 1 65.3532 30.5492 45.9376 0.0000 0.0000 0.0000
# 2 30.5492 62.9531 55.8577 0.0000 0.0000 0.0000
# 3 45.9376 55.8577 163.4757 0.0000 0.0000 0.0000
# 4 0.0000 0.0000 0.0000 13.0232 0.0000 0.0000
# 5 0.0000 0.0000 0.0000 0.0000 23.8480 0.0000
# 6 0.0000 0.0000 0.0000 0.0000 0.0000 17.8795
#
#
#
# Elastic Compliance Matrix: (Units=1/GPa)
#
#
# Indices 1 2 3 4 5 6 
#
# 1 0.021090 -0.007141 -0.003487 0.000000 0.000000 0.000000
# 2 -0.007141 0.025214 -0.006609 0.000000 0.000000 0.000000
# 3 -0.003487 -0.006609 0.009355 0.000000 0.000000 0.000000
# 4 0.000000 0.000000 0.000000 0.076786 0.000000 0.000000
# 5 0.000000 0.000000 0.000000 0.000000 0.041932 0.000000
# 6 0.000000 0.000000 0.000000 0.000000 0.000000 0.055930
#
#
# Mechanical properties :
#
#
# Convention : Reuss Voigt Hill
#
# Bulk Modulus (GPa) = 47.19892 61.83012 54.51452
# Shear Modulus (GPa) = 18.39307 21.57932 19.98619
#
# Velocity S-wave (km/s) = 3.38802 3.66976 3.53170
# Velocity P-wave (km/s) = 6.69034 7.51950 7.11701
#
# Compressibility (1/GPa) = 0.02118693
#
# Stress axis : x y z
#
# Youngs Moduli (GPa) = 47.41553 39.66075 106.89535
#
# Poissons Ratio (x) = 0.28321 0.37269
# Poissons Ratio (y) = 0.33859 0.70643
# Poissons Ratio (z) = 0.16532 0.26210
#
# Static dielectric constant tensor:
#      x y z
#    x 2.891250 0.000000 0.000000 
#    y 0.000000 2.715730 0.000000 
#    z 0.000000 0.000000 3.451180 
# 
# 
# High freq. dielectric constant tensor:
#      x y z
#    x 1.597200 0.000000 0.000000 
#    y 0.000000 1.569190 0.000000 
#    z 0.000000 0.000000 1.632390 
# 
# From -- ./inp_files/32060.got.cif
#   From: 2010.03.12/outbox.cif.g09.slc.cpg/sg67_17_cif.got.tgz:32060.got - 2010.04.10 22:41:39.
