data_PCOD8278852
_publ_section_title
;
Structure prediction by ZEFSAII (Michael W. Deem and Ramdas Pophale) SiO2 
 PCOD8278852
Probable space group: C M M A
;
_chemical_formula_sum "Si O2"
_cell_formula_units_Z 120
_cell_length_a 8.639252
_cell_length_b 26.572923
_cell_length_c 27.271831
_cell_angle_alpha 90.000000
_cell_angle_beta 90.000000
_cell_angle_gamma 90.000000
_cell_volume 6260.799102
_symmetry_space_group_name_H-M "C M M A"
_symmetry_group_IT_number 67
_symmetry_cell_setting 'orthorhombic'
loop_
_space_group_symop_operation_xyz
x,y,z
-x,1/2-y,z
x,-y,-z
-x,1/2+y,-z
-x,-y,-z
x,1/2+y,-z
-x,y,z
x,1/2-y,z
1/2+x,1/2+y,z
1/2-x,-y,z
1/2+x,1/2-y,-z
1/2-x,y,-z
1/2-x,1/2-y,-z
1/2+x,y,-z
1/2-x,1/2+y,z
1/2+x,-y,z
loop_
_atom_site_type_symbol
_atom_site_label
_atom_site_fract_x
_atom_site_fract_y
_atom_site_fract_z
Si Si1 0.177936 0.808691 0.813093
Si Si2 0.820032 0.660063 0.615946
Si Si3 0.316291 0.946046 0.235784
Si Si4 0.318211 0.554924 0.049462
Si Si5 0.682340 0.750000 0.553748
Si Si6 0.327996 0.691094 0.713450
Si Si7 0.317443 0.445914 0.652629
Si Si8 0.320317 0.893174 0.857725
O O1 0.198121 0.750000 0.819230
O O2 0.244804 0.829369 0.761744
O O3 0.279878 0.833740 0.856481
O O4 0.000000 0.825493 0.816458
O O5 0.730878 0.697333 0.579181
O O6 0.789343 0.679448 0.670093
O O7 0.767972 0.600425 0.615987
O O8 0.000000 0.664642 0.603151
O O9 0.500000 0.945557 0.230564
O O10 0.263965 0.931867 0.291682
O O11 0.241209 0.910738 0.195090
O O12 0.250000 0.000000 0.222632
O O13 0.500000 0.551647 0.044141
O O14 0.250000 0.500000 0.055687
O O15 0.274675 0.585195 0.097438
O O16 0.250000 0.580547 0.000000
O O17 0.500000 0.750000 0.552003
O O18 0.750000 0.750000 0.500000
O O19 0.500000 0.666783 0.706419
O O20 0.349770 0.750000 0.717704
O O21 0.500000 0.451997 0.651680
O O22 0.250000 0.500000 0.635214
O O23 0.500000 0.904858 0.864829
#
# Coordination Sequence:
#
# PCOD8278852 Si02
#       8
#    16  16  16  16   8  16  16  16
#     4  10  21  36  53  75 107 147 187 229 277 328
#     4  11  21  36  59  86 117 154 193 237 288 343
#     4  10  19  33  51  77 113 152 192 231 273 325
#     4  11  22  39  60  83 109 136 172 219 274 332
#     4  12  26  44  64  90 118 150 190 240 299 350
#     4  10  19  31  50  80 114 149 191 232 276 332
#     4   9  20  35  54  81 115 155 196 233 276 331
#     4  12  23  35  53  78 107 143 185 228 278 333
#
# _framework density 19.166882999999999
#
# number of rings (size 3 to 8) (size 9 to 14) (size 15 to 20)
#    0.000    1.467    0.667    6.200    0.000    4.000 
#    0.000    0.000    0.000    0.800    0.000    2.800 
#    0.000    0.000    0.000    0.000    0.000    0.000 
#
# Total GULP energy -743620.997303 kJ/mol
# GULP energy per Si atom -12393.683288 kJ/mol
# Density = 1.912326 g / cm^3
# Si number density = 19.166883 Si / 1000 Ang^3
#
#
#
# Elastic Constant Matrix: (Units=GPa)
#
#
# Indices 1 2 3 4 5 6 
#
# 1 113.5694 44.9530 37.3210 0.0000 0.0000 0.0000
# 2 44.9530 81.6845 82.3720 0.0000 0.0000 0.0000
# 3 37.3210 82.3720 82.1756 0.0000 0.0000 0.0000
# 4 0.0000 0.0000 0.0000 24.5024 0.0000 0.0000
# 5 0.0000 0.0000 0.0000 0.0000 27.1115 0.0000
# 6 0.0000 0.0000 0.0000 0.0000 0.0000 30.2108
#
#
#
# Elastic Compliance Matrix: (Units=1/GPa)
#
#
# Indices 1 2 3 4 5 6 
#
# 1 0.006213 0.052993 -0.055941 0.000000 0.000000 0.000000
# 2 0.052993 -0.678809 0.656363 0.000000 0.000000 0.000000
# 3 -0.055941 0.656363 -0.620356 0.000000 0.000000 0.000000
# 4 0.000000 0.000000 0.000000 0.040812 0.000000 0.000000
# 5 0.000000 0.000000 0.000000 0.000000 0.036885 0.000000
# 6 0.000000 0.000000 0.000000 0.000000 0.000000 0.033101
#
#
# Mechanical properties :
#
#
# Convention : Reuss Voigt Hill
#
# Bulk Modulus (GPa) = 72.05636 67.41350 69.73493
# Shear Modulus (GPa) = -2.01259 23.88386 10.93563
#
# Velocity S-wave (km/s) = -1.02582 3.53384 2.39121
# Velocity P-wave (km/s) = 6.02268 7.20409 6.63972
#
# Compressibility (1/GPa) = 0.01387803
#
# Stress axis : x y z
#
# Youngs Moduli (GPa) = 160.95621 -1.47317 -1.61198
#
# Poissons Ratio (x) = 0.07807 -0.09018
# Poissons Ratio (y) = -8.52950 1.05804
# Poissons Ratio (z) = 9.00404 0.96693
#
# Static dielectric constant tensor:
#      x y z
#    x 3.672740 0.000000 0.000000 
#    y 0.000000 3.874590 0.000000 
#    z 0.000000 0.000000 3.472960 
# 
# 
# High freq. dielectric constant tensor:
#      x y z
#    x 1.759990 0.000000 0.000000 
#    y 0.000000 1.755080 0.000000 
#    z 0.000000 0.000000 1.715060 
# 
# From -- ./inp_files/43900.got.cif
#   From: 2010.03.12/outbox.cif.g09.slc.cpg/sg67_22_cif.got.tgz:43900.got - 2010.04.10 22:41:39.
