data_PCOD8278982
_publ_section_title
;
Structure prediction by ZEFSAII (Michael W. Deem and Ramdas Pophale) SiO2 
 PCOD8278982
Probable space group: C M M A
;
_chemical_formula_sum "Si O2"
_cell_formula_units_Z 104
_cell_length_a 24.632835
_cell_length_b 8.883271
_cell_length_c 27.336022
_cell_angle_alpha 90.000000
_cell_angle_beta 90.000000
_cell_angle_gamma 90.000000
_cell_volume 5981.672402
_symmetry_space_group_name_H-M "C M M A"
_symmetry_group_IT_number 67
_symmetry_cell_setting 'orthorhombic'
loop_
_space_group_symop_operation_xyz
x,y,z
-x,1/2-y,z
x,-y,-z
-x,1/2+y,-z
-x,-y,-z
x,1/2+y,-z
-x,y,z
x,1/2-y,z
1/2+x,1/2+y,z
1/2-x,-y,z
1/2+x,1/2-y,-z
1/2-x,y,-z
1/2-x,1/2-y,-z
1/2+x,y,-z
1/2-x,1/2+y,z
1/2+x,-y,z
loop_
_atom_site_type_symbol
_atom_site_label
_atom_site_fract_x
_atom_site_fract_y
_atom_site_fract_z
Si Si1 0.912735 0.571367 0.369026
Si Si2 0.500000 0.925441 0.552229
Si Si3 0.500000 0.926885 0.303668
Si Si4 0.903739 0.575134 0.847116
Si Si5 0.807534 0.428735 0.332676
Si Si6 0.000000 0.923744 0.203086
Si Si7 0.305129 0.575281 0.221585
Si Si8 0.438644 0.423467 0.951750
O O1 0.908611 0.750000 0.362854
O O2 0.945714 0.502862 0.323949
O O3 0.852978 0.498320 0.368790
O O4 0.945542 0.527143 0.418329
O O5 0.500000 0.750000 0.543658
O O6 0.500000 0.000000 0.500000
O O7 0.500000 0.750000 0.315057
O O8 0.500000 0.956748 0.246625
O O9 0.919890 0.750000 0.836824
O O10 0.947757 0.457669 0.828923
O O11 0.849164 0.530970 0.818828
O O12 0.899121 0.546990 0.905395
O O13 0.805480 0.250000 0.339952
O O14 0.750000 0.500000 0.347974
O O15 0.821947 0.475561 0.276632
O O16 0.000000 0.750000 0.220495
O O17 0.293921 0.750000 0.222797
O O18 0.250000 0.500000 0.204185
O O19 0.500000 0.483467 0.940694
O O20 0.441552 0.250000 0.963995
O O21 0.413519 0.500000 0.000000
#
# Coordination Sequence:
#
# PCOD8278982 Si02
#       8
#    16   8   8  16  16   8  16  16
#     4  10  20  35  53  78 108 137 174 222 263 301
#     4   9  20  36  56  81 110 141 174 215 265 312
#     4  11  21  33  49  70 101 140 174 205 248 310
#     4  10  19  34  51  69  96 130 163 199 248 307
#     4  10  19  32  51  77 105 141 179 214 257 307
#     4  12  23  31  45  73 103 131 160 202 252 298
#     4   9  19  33  51  72  98 131 169 206 243 292
#     4   9  17  30  48  68  92 122 156 199 248 300
#
# _framework density 17.386441999999999
#
# number of rings (size 3 to 8) (size 9 to 14) (size 15 to 20)
#    0.000    2.154    0.769    3.692    0.000    4.923 
#    0.000    0.000    0.000    0.923    0.000    6.462 
#    0.000    0.000    0.000    0.000    0.000    0.000 
#
# Total GULP energy -644683.113340 kJ/mol
# GULP energy per Si atom -12397.752180 kJ/mol
# Density = 1.734687 g / cm^3
# Si number density = 17.386442 Si / 1000 Ang^3
#
#
#
# Elastic Constant Matrix: (Units=GPa)
#
#
# Indices 1 2 3 4 5 6 
#
# 1 129.4619 52.1754 62.9811 0.0000 0.0000 0.0000
# 2 52.1754 69.1632 40.4146 0.0000 0.0000 0.0000
# 3 62.9811 40.4146 112.0754 0.0000 0.0000 0.0000
# 4 0.0000 0.0000 0.0000 28.1440 0.0000 0.0000
# 5 0.0000 0.0000 0.0000 0.0000 36.4107 0.0000
# 6 0.0000 0.0000 0.0000 0.0000 0.0000 27.1733
#
#
#
# Elastic Compliance Matrix: (Units=1/GPa)
#
#
# Indices 1 2 3 4 5 6 
#
# 1 0.012793 -0.006905 -0.004699 0.000000 0.000000 0.000000
# 2 -0.006905 0.022045 -0.004069 0.000000 0.000000 0.000000
# 3 -0.004699 -0.004069 0.013031 0.000000 0.000000 0.000000
# 4 0.000000 0.000000 0.000000 0.035532 0.000000 0.000000
# 5 0.000000 0.000000 0.000000 0.000000 0.027464 0.000000
# 6 0.000000 0.000000 0.000000 0.000000 0.000000 0.036801
#
#
# Mechanical properties :
#
#
# Convention : Reuss Voigt Hill
#
# Bulk Modulus (GPa) = 60.52456 69.09363 64.80910
# Shear Modulus (GPa) = 27.09722 28.68756 27.89239
#
# Velocity S-wave (km/s) = 3.95210 4.06642 4.00967
# Velocity P-wave (km/s) = 7.46407 7.86600 7.66767
#
# Compressibility (1/GPa) = 0.01652222
#
# Stress axis : x y z
#
# Youngs Moduli (GPa) = 78.16631 45.36084 76.74185
#
# Poissons Ratio (x) = 0.31322 0.36063
# Poissons Ratio (y) = 0.53974 0.31229
# Poissons Ratio (z) = 0.36732 0.18459
#
# Static dielectric constant tensor:
#      x y z
#    x 3.024460 0.000000 0.000000 
#    y 0.000000 3.213520 0.000000 
#    z 0.000000 0.000000 3.329600 
# 
# 
# High freq. dielectric constant tensor:
#      x y z
#    x 1.657790 0.000000 0.000000 
#    y 0.000000 1.676800 0.000000 
#    z 0.000000 0.000000 1.657640 
# 
# From -- ./inp_files/44852.got.cif
#   From: 2010.03.12/outbox.cif.g09.slc.cpg/sg67_23_cif.got.tgz:44852.got - 2010.04.10 22:41:39.
