data_PCOD8278969
_publ_section_title
;
Structure prediction by ZEFSAII (Michael W. Deem and Ramdas Pophale) SiO2 
 PCOD8278969
Probable space group: C M M A
;
_chemical_formula_sum "Si O2"
_cell_formula_units_Z 80
_cell_length_a 14.996353
_cell_length_b 17.990572
_cell_length_c 14.666666
_cell_angle_alpha 90.000000
_cell_angle_beta 90.000000
_cell_angle_gamma 90.000000
_cell_volume 3956.963356
_symmetry_space_group_name_H-M "C M M A"
_symmetry_group_IT_number 67
_symmetry_cell_setting 'orthorhombic'
loop_
_space_group_symop_operation_xyz
x,y,z
-x,1/2-y,z
x,-y,-z
-x,1/2+y,-z
-x,-y,-z
x,1/2+y,-z
-x,y,z
x,1/2-y,z
1/2+x,1/2+y,z
1/2-x,-y,z
1/2+x,1/2-y,-z
1/2-x,y,-z
1/2-x,1/2-y,-z
1/2+x,y,-z
1/2-x,1/2+y,z
1/2+x,-y,z
loop_
_atom_site_type_symbol
_atom_site_label
_atom_site_fract_x
_atom_site_fract_y
_atom_site_fract_z
Si Si1 0.334438 0.555196 0.893887
Si Si2 0.402907 0.908997 0.077505
Si Si3 0.398438 0.337945 0.738081
Si Si4 0.748790 0.163247 0.600652
Si Si5 0.603148 0.663895 0.740734
O O1 0.250000 0.500000 0.881700
O O2 0.164142 0.598867 0.008613
O O3 0.346171 0.614936 0.815252
O O4 0.415705 0.496164 0.894988
O O5 0.500000 0.875748 0.052908
O O6 0.362104 0.864402 0.163357
O O7 0.500000 0.366596 0.721251
O O8 0.394878 0.250000 0.736973
O O9 0.332124 0.371263 0.661043
O O10 0.728880 0.250000 0.590861
O O11 0.750000 0.126200 0.500000
O O12 0.845318 0.149334 0.646100
O O13 0.500000 0.640833 0.728615
O O14 0.611464 0.750000 0.769906
#
# Coordination Sequence:
#
# PCOD8278969 Si02
#       5
#    16  16  16  16  16
#     4  11  21  34  53  78 108 146 186 224 269 328
#     4  10  19  32  51  75 105 143 185 224 269 329
#     4   9  18  32  52  80 111 143 183 233 287 339
#     4   9  18  33  53  78 108 142 183 232 285 339
#     4  10  21  37  58  85 115 147 187 235 284 333
#
# _framework density 20.217524000000001
#
# number of rings (size 3 to 8) (size 9 to 14) (size 15 to 20)
#    0.000    2.200    0.000    4.800    0.000    1.600 
#    0.000    6.000    0.000   16.200    0.000    8.400 
#    0.000    0.000    0.000    0.000    0.000    0.000 
#
# Total GULP energy -495558.622289 kJ/mol
# GULP energy per Si atom -12388.965557 kJ/mol
# Density = 2.017151 g / cm^3
# Si number density = 20.217524 Si / 1000 Ang^3
#
#
#
# Elastic Constant Matrix: (Units=GPa)
#
#
# Indices 1 2 3 4 5 6 
#
# 1 145.2498 31.1106 85.3719 0.0000 0.0000 0.0000
# 2 31.1106 34.1869 44.7012 0.0000 0.0000 0.0000
# 3 85.3719 44.7012 176.2119 0.0000 0.0000 0.0000
# 4 0.0000 0.0000 0.0000 5.7227 0.0000 0.0000
# 5 0.0000 0.0000 0.0000 0.0000 30.1745 0.0000
# 6 0.0000 0.0000 0.0000 0.0000 0.0000 25.0184
#
#
#
# Elastic Compliance Matrix: (Units=1/GPa)
#
#
# Indices 1 2 3 4 5 6 
#
# 1 0.010002 -0.004139 -0.003796 0.000000 0.000000 0.000000
# 2 -0.004139 0.045482 -0.009533 0.000000 0.000000 0.000000
# 3 -0.003796 -0.009533 0.009932 0.000000 0.000000 0.000000
# 4 0.000000 0.000000 0.000000 0.174741 0.000000 0.000000
# 5 0.000000 0.000000 0.000000 0.000000 0.033141 0.000000
# 6 0.000000 0.000000 0.000000 0.000000 0.000000 0.039971
#
#
# Mechanical properties :
#
#
# Convention : Reuss Voigt Hill
#
# Bulk Modulus (GPa) = 32.80675 75.33511 54.07093
# Shear Modulus (GPa) = 13.95230 25.14746 19.54988
#
# Velocity S-wave (km/s) = 2.62984 3.53064 3.11300
# Velocity P-wave (km/s) = 5.04812 7.34600 6.30267
#
# Compressibility (1/GPa) = 0.03048153
#
# Stress axis : x y z
#
# Youngs Moduli (GPa) = 99.97690 21.98695 100.68129
#
# Poissons Ratio (x) = 0.09100 0.38219
# Poissons Ratio (y) = 0.41377 0.95975
# Poissons Ratio (z) = 0.37952 0.20959
#
# Static dielectric constant tensor:
#      x y z
#    x 4.035650 0.000000 0.000000 
#    y 0.000000 3.480830 0.000000 
#    z 0.000000 0.000000 3.846520 
# 
# 
# High freq. dielectric constant tensor:
#      x y z
#    x 1.809320 0.000000 0.000000 
#    y 0.000000 1.750370 0.000000 
#    z 0.000000 0.000000 1.782680 
# 
# From -- ./inp_files/26963.got.cif
#   From: 2010.03.12/outbox.cif.g09.slc.cpg/sg67_14_cif.got.tgz:26963.got - 2010.04.10 22:41:39.
