data_PCOD8278147
_publ_section_title
;
Structure prediction by ZEFSAII (Michael W. Deem and Ramdas Pophale) SiO2 
 PCOD8278147
Probable space group: C M M A
;
_chemical_formula_sum "Si O2"
_cell_formula_units_Z 48
_cell_length_a 10.091912
_cell_length_b 27.932909
_cell_length_c 8.552286
_cell_angle_alpha 90.000000
_cell_angle_beta 90.000000
_cell_angle_gamma 90.000000
_cell_volume 2410.859144
_symmetry_space_group_name_H-M "C M M A"
_symmetry_group_IT_number 67
_symmetry_cell_setting 'orthorhombic'
loop_
_space_group_symop_operation_xyz
x,y,z
-x,1/2-y,z
x,-y,-z
-x,1/2+y,-z
-x,-y,-z
x,1/2+y,-z
-x,y,z
x,1/2-y,z
1/2+x,1/2+y,z
1/2-x,-y,z
1/2+x,1/2-y,-z
1/2-x,y,-z
1/2-x,1/2-y,-z
1/2+x,y,-z
1/2-x,1/2+y,z
1/2+x,-y,z
loop_
_atom_site_type_symbol
_atom_site_label
_atom_site_fract_x
_atom_site_fract_y
_atom_site_fract_z
Si Si1 0.500000 0.697471 0.666309
Si Si2 0.000000 0.456297 0.120702
Si Si3 0.736442 0.928589 0.329819
Si Si4 0.000000 0.098707 0.830434
Si Si5 0.750000 0.662272 0.500000
O O1 0.500000 0.750000 0.747649
O O2 0.500000 0.655373 0.794521
O O3 0.629600 0.694819 0.557521
O O4 0.870397 0.457419 0.228991
O O5 0.000000 0.500000 0.000000
O O6 0.000000 0.407464 0.017858
O O7 0.750000 0.954148 0.500000
O O8 0.695527 0.872781 0.360758
O O9 0.875406 0.929311 0.240345
#
# Coordination Sequence:
#
# PCOD8278147 Si02
#       5
#     8   8  16   8   8
#     4  10  17  31  56  88 119 156 199 243 298 360
#     4  12  24  39  61  91 120 156 203 247 309 361
#     4   9  19  39  63  82 116 156 205 245 292 349
#     4  10  21  36  56  88 121 159 190 251 309 350
#     4   8  17  32  60  83 114 154 202 251 291 334
#
# _framework density 19.909914000000001
#
# number of rings (size 3 to 8) (size 9 to 14) (size 15 to 20)
#    1.000    1.333    0.000    3.500    0.000    2.667 
#    0.000    5.000    0.000   20.000    0.000    0.000 
#    0.000    0.000    0.000    0.000    0.000    0.000 
#
# Total GULP energy -297373.061223 kJ/mol
# GULP energy per Si atom -12390.544218 kJ/mol
# Density = 1.986460 g / cm^3
# Si number density = 19.909914 Si / 1000 Ang^3
#
#
#
# Elastic Constant Matrix: (Units=GPa)
#
#
# Indices 1 2 3 4 5 6 
#
# 1 141.6826 48.2609 66.8211 0.0000 0.0000 0.0000
# 2 48.2609 106.1896 37.8558 0.0000 0.0000 0.0000
# 3 66.8211 37.8558 136.7494 0.0000 0.0000 0.0000
# 4 0.0000 0.0000 0.0000 22.7937 0.0000 0.0000
# 5 0.0000 0.0000 0.0000 0.0000 38.7863 0.0000
# 6 0.0000 0.0000 0.0000 0.0000 0.0000 -17.3895
#
#
#
# Elastic Compliance Matrix: (Units=1/GPa)
#
#
# Indices 1 2 3 4 5 6 
#
# 1 0.010022 -0.003117 -0.004035 0.000000 0.000000 0.000000
# 2 -0.003117 0.011417 -0.001638 0.000000 0.000000 0.000000
# 3 -0.004035 -0.001638 0.009737 0.000000 0.000000 0.000000
# 4 0.000000 0.000000 0.000000 0.043872 0.000000 0.000000
# 5 0.000000 0.000000 0.000000 0.000000 0.025782 0.000000
# 6 0.000000 0.000000 0.000000 0.000000 0.000000 -0.057506
#
#
# Mechanical properties :
#
#
# Convention : Reuss Voigt Hill
#
# Bulk Modulus (GPa) = 73.53275 76.72191 75.12733
# Shear Modulus (GPa) = 76.40998 24.28369 50.34684
#
# Velocity S-wave (km/s) = 6.20171 3.49618 5.03411
# Velocity P-wave (km/s) = 9.39651 7.41052 8.46198
#
# Compressibility (1/GPa) = 0.01359938
#
# Stress axis : x y z
#
# Youngs Moduli (GPa) = 99.77574 87.58551 102.69611
#
# Poissons Ratio (x) = 0.27298 0.41434
# Poissons Ratio (y) = 0.31097 0.16819
# Poissons Ratio (z) = 0.40255 0.14344
#
# Static dielectric constant tensor:
#      x y z
#    x 3.620540 0.000000 0.000000 
#    y 0.000000 3.364940 0.000000 
#    z 0.000000 0.000000 3.625350 
# 
# 
# High freq. dielectric constant tensor:
#      x y z
#    x 1.785620 0.000000 0.000000 
#    y 0.000000 1.764470 0.000000 
#    z 0.000000 0.000000 1.759500 
# 
# From -- ./inp_files/5713.got.cif
#   From: 2010.03.12/outbox.cif.g09.slc.cpg/sg67_3_cif.got.tgz:5713.got - 2010.04.10 22:41:39.
