data_PCOD8278593
_publ_section_title
;
Structure prediction by ZEFSAII (Michael W. Deem and Ramdas Pophale) SiO2 
 PCOD8278593
Probable space group: C M M A
;
_chemical_formula_sum "Si O2"
_cell_formula_units_Z 96
_cell_length_a 27.390030
_cell_length_b 8.903876
_cell_length_c 23.986468
_cell_angle_alpha 90.000000
_cell_angle_beta 90.000000
_cell_angle_gamma 90.000000
_cell_volume 5849.758189
_symmetry_space_group_name_H-M "C M M A"
_symmetry_group_IT_number 67
_symmetry_cell_setting 'orthorhombic'
loop_
_space_group_symop_operation_xyz
x,y,z
-x,1/2-y,z
x,-y,-z
-x,1/2+y,-z
-x,-y,-z
x,1/2+y,-z
-x,y,z
x,1/2-y,z
1/2+x,1/2+y,z
1/2-x,-y,z
1/2+x,1/2-y,-z
1/2-x,y,-z
1/2-x,1/2-y,-z
1/2+x,y,-z
1/2-x,1/2+y,z
1/2+x,-y,z
loop_
_atom_site_type_symbol
_atom_site_label
_atom_site_fract_x
_atom_site_fract_y
_atom_site_fract_z
Si Si1 0.302578 0.424881 0.447626
Si Si2 0.392376 0.928183 0.942272
Si Si3 0.944536 0.923212 0.843878
Si Si4 0.354687 0.078315 0.772302
Si Si5 0.697864 0.575916 0.675202
Si Si6 0.198300 0.425847 0.114048
O O1 0.332228 0.500000 0.500000
O O2 0.297894 0.250000 0.459717
O O3 0.250000 0.500000 0.446199
O O4 0.325261 0.456187 0.386375
O O5 0.388946 0.750000 0.947220
O O6 0.432616 0.972283 0.896359
O O7 0.339804 0.995421 0.926927
O O8 0.410144 0.000000 0.000000
O O9 0.934853 0.750000 0.861339
O O10 0.909344 0.964381 0.792192
O O11 0.000000 0.950236 0.824686
O O12 0.351648 0.250000 0.753146
O O13 0.316862 0.045713 0.822098
O O14 0.341906 0.977382 0.719517
O O15 0.707724 0.750000 0.683700
O O16 0.750000 0.500000 0.685044
O O17 0.200018 0.250000 0.100065
O O18 0.250000 0.500000 0.102547
#
# Coordination Sequence:
#
# PCOD8278593 Si02
#       6
#    16  16  16  16  16  16
#     4   9  16  25  37  55  81 117 157 193 226 258
#     4  11  22  36  53  73  96 121 151 186 224 269
#     4   9  19  37  57  74  93 117 146 184 230 277
#     4   9  18  31  48  69  92 118 149 185 224 268
#     4  10  19  28  41  63  92 125 159 192 224 262
#     4  10  20  34  50  70  95 124 157 190 226 267
#
# _framework density 16.410936
#
# number of rings (size 3 to 8) (size 9 to 14) (size 15 to 20)
#    0.000    2.333    0.000    5.000    0.000    7.667 
#    0.000    1.667    0.000    0.000    0.000    0.000 
#    0.000    0.667    0.000    1.500    0.000    2.667 
#
# Total GULP energy -595058.907666 kJ/mol
# GULP energy per Si atom -12397.060576 kJ/mol
# Density = 1.637358 g / cm^3
# Si number density = 16.410936 Si / 1000 Ang^3
#
#
#
# Elastic Constant Matrix: (Units=GPa)
#
#
# Indices 1 2 3 4 5 6 
#
# 1 84.1225 32.7786 36.7659 0.0000 0.0000 0.0000
# 2 32.7786 110.0005 61.0571 0.0000 0.0000 0.0000
# 3 36.7659 61.0571 118.9763 0.0000 0.0000 0.0000
# 4 0.0000 0.0000 0.0000 27.9323 0.0000 0.0000
# 5 0.0000 0.0000 0.0000 0.0000 10.9425 0.0000
# 6 0.0000 0.0000 0.0000 0.0000 0.0000 20.7912
#
#
#
# Elastic Compliance Matrix: (Units=1/GPa)
#
#
# Indices 1 2 3 4 5 6 
#
# 1 0.014224 -0.002515 -0.003105 0.000000 0.000000 0.000000
# 2 -0.002515 0.013157 -0.005975 0.000000 0.000000 0.000000
# 3 -0.003105 -0.005975 0.012431 0.000000 0.000000 0.000000
# 4 0.000000 0.000000 0.000000 0.035801 0.000000 0.000000
# 5 0.000000 0.000000 0.000000 0.000000 0.091387 0.000000
# 6 0.000000 0.000000 0.000000 0.000000 0.000000 0.048097
#
#
# Mechanical properties :
#
#
# Convention : Reuss Voigt Hill
#
# Bulk Modulus (GPa) = 60.16006 63.81139 61.98572
# Shear Modulus (GPa) = 20.50639 24.09971 22.30305
#
# Velocity S-wave (km/s) = 3.53874 3.83628 3.69051
# Velocity P-wave (km/s) = 7.30993 7.65445 7.48417
#
# Compressibility (1/GPa) = 0.01662232
#
# Stress axis : x y z
#
# Youngs Moduli (GPa) = 70.30128 76.00729 80.44721
#
# Poissons Ratio (x) = 0.19119 0.24977
# Poissons Ratio (y) = 0.17683 0.48063
# Poissons Ratio (z) = 0.21827 0.45411
#
# Static dielectric constant tensor:
#      x y z
#    x 2.836500 0.000000 0.000000 
#    y 0.000000 3.197630 0.000000 
#    z 0.000000 0.000000 3.673720 
# 
# 
# High freq. dielectric constant tensor:
#      x y z
#    x 1.592640 0.000000 0.000000 
#    y 0.000000 1.645830 0.000000 
#    z 0.000000 0.000000 1.633630 
# 
# From -- ./inp_files/40910.got.cif
#   From: 2010.03.12/outbox.cif.g09.slc.cpg/sg67_21_cif.got.tgz:40910.got - 2010.04.10 22:41:39.
