data_PCOD8278153
_publ_section_title
;
Structure prediction by ZEFSAII (Michael W. Deem and Ramdas Pophale) SiO2 
 PCOD8278153
Probable space group: C M M A
;
_chemical_formula_sum "Si O2"
_cell_formula_units_Z 80
_cell_length_a 22.813985
_cell_length_b 14.772247
_cell_length_c 12.219947
_cell_angle_alpha 90.000000
_cell_angle_beta 90.000000
_cell_angle_gamma 90.000000
_cell_volume 4118.291037
_symmetry_space_group_name_H-M "C M M A"
_symmetry_group_IT_number 67
_symmetry_cell_setting 'orthorhombic'
loop_
_space_group_symop_operation_xyz
x,y,z
-x,1/2-y,z
x,-y,-z
-x,1/2+y,-z
-x,-y,-z
x,1/2+y,-z
-x,y,z
x,1/2-y,z
1/2+x,1/2+y,z
1/2-x,-y,z
1/2+x,1/2-y,-z
1/2-x,y,-z
1/2-x,1/2-y,-z
1/2+x,y,-z
1/2-x,1/2+y,z
1/2+x,-y,z
loop_
_atom_site_type_symbol
_atom_site_label
_atom_site_fract_x
_atom_site_fract_y
_atom_site_fract_z
Si Si1 0.566278 0.855289 0.195406
Si Si2 0.653674 0.750000 0.464491
Si Si3 0.763752 0.250000 0.667764
Si Si4 0.932962 0.591520 0.565526
Si Si5 0.269440 0.401470 0.166841
Si Si6 0.838512 0.351997 0.027407
O O1 0.500000 0.864767 0.153854
O O2 0.580474 0.750000 0.226296
O O3 0.576878 0.917051 0.303173
O O4 0.606626 0.891173 0.096102
O O5 0.692883 0.750000 0.352683
O O6 0.701527 0.750000 0.557064
O O7 0.612743 0.663448 0.479326
O O8 0.784804 0.159449 0.729617
O O9 0.919673 0.500000 0.500000
O O10 0.000000 0.623290 0.544186
O O11 0.250000 0.500000 0.207492
O O12 0.217589 0.349931 0.105312
O O13 0.324566 0.410914 0.082002
O O14 0.852493 0.250000 0.989107
#
# Coordination Sequence:
#
# PCOD8278153 Si02
#       6
#    16   8   8  16  16  16
#     4   9  17  30  55  88 113 143 184 230 282 336
#     4  11  23  38  58  81 119 151 188 242 295 332
#     4  11  24  39  54  83 116 155 192 236 285 345
#     4  10  20  36  60  87 113 147 193 238 285 343
#     4  11  21  36  56  80 111 149 189 230 281 338
#     4  10  17  32  58  81 110 139 183 239 278 330
#
# _framework density 19.425535
#
# number of rings (size 3 to 8) (size 9 to 14) (size 15 to 20)
#    0.000    1.800    3.000    3.300    0.000    3.200 
#    0.000    2.000    0.000    4.800    0.000    0.000 
#    0.000    0.000    0.000    0.000    0.000    0.000 
#
# Total GULP energy -495867.131116 kJ/mol
# GULP energy per Si atom -12396.678278 kJ/mol
# Density = 1.938132 g / cm^3
# Si number density = 19.425535 Si / 1000 Ang^3
#
#
#
# Elastic Constant Matrix: (Units=GPa)
#
#
# Indices 1 2 3 4 5 6 
#
# 1 113.4167 44.8311 58.6934 0.0000 0.0000 0.0000
# 2 44.8311 101.4249 52.4105 0.0000 0.0000 0.0000
# 3 58.6934 52.4105 98.2868 0.0000 0.0000 0.0000
# 4 0.0000 0.0000 0.0000 -5.4905 0.0000 0.0000
# 5 0.0000 0.0000 0.0000 0.0000 32.9573 0.0000
# 6 0.0000 0.0000 0.0000 0.0000 0.0000 -48.2281
#
#
#
# Elastic Compliance Matrix: (Units=1/GPa)
#
#
# Indices 1 2 3 4 5 6 
#
# 1 0.013180 -0.002427 -0.006576 0.000000 0.000000 0.000000
# 2 -0.002427 0.014057 -0.006046 0.000000 0.000000 0.000000
# 3 -0.006576 -0.006046 0.017325 0.000000 0.000000 0.000000
# 4 0.000000 0.000000 0.000000 -0.182133 0.000000 0.000000
# 5 0.000000 0.000000 0.000000 0.000000 0.030342 0.000000
# 6 0.000000 0.000000 0.000000 0.000000 0.000000 -0.020735
#
#
# Mechanical properties :
#
#
# Convention : Reuss Voigt Hill
#
# Bulk Modulus (GPa) = 69.14366 69.44428 69.29397
# Shear Modulus (GPa) = -53.73818 6.32730 -23.70544
#
# Velocity S-wave (km/s) = -5.26533 1.80673 -3.49710
# Velocity P-wave (km/s) = 1.13732 6.33869 4.40939
#
# Compressibility (1/GPa) = 0.01446264
#
# Stress axis : x y z
#
# Youngs Moduli (GPa) = 75.87438 71.14034 57.71921
#
# Poissons Ratio (x) = 0.17269 0.37956
# Poissons Ratio (y) = 0.18418 0.34897
# Poissons Ratio (z) = 0.49895 0.43012
#
# Static dielectric constant tensor:
#      x y z
#    x 3.667270 0.000000 0.000000 
#    y 0.000000 3.327010 0.000000 
#    z 0.000000 0.000000 3.498050 
# 
# 
# High freq. dielectric constant tensor:
#      x y z
#    x 1.754130 0.000000 0.000000 
#    y 0.000000 1.741390 0.000000 
#    z 0.000000 0.000000 1.746850 
# 
# From -- ./inp_files/18031.got.cif
#   From: 2010.03.12/outbox.cif.g09.slc.cpg/sg67_10_cif.got.tgz:18031.got - 2010.04.10 22:41:39.
