data_PCOD8278254
_publ_section_title
;
Structure prediction by ZEFSAII (Michael W. Deem and Ramdas Pophale) SiO2 
 PCOD8278254
Probable space group: C M M A
;
_chemical_formula_sum "Si O2"
_cell_formula_units_Z 112
_cell_length_a 15.249036
_cell_length_b 22.492889
_cell_length_c 15.586231
_cell_angle_alpha 90.000000
_cell_angle_beta 90.000000
_cell_angle_gamma 90.000000
_cell_volume 5345.997340
_symmetry_space_group_name_H-M "C M M A"
_symmetry_group_IT_number 67
_symmetry_cell_setting 'orthorhombic'
loop_
_space_group_symop_operation_xyz
x,y,z
-x,1/2-y,z
x,-y,-z
-x,1/2+y,-z
-x,-y,-z
x,1/2+y,-z
-x,y,z
x,1/2-y,z
1/2+x,1/2+y,z
1/2-x,-y,z
1/2+x,1/2-y,-z
1/2-x,y,-z
1/2-x,1/2-y,-z
1/2+x,y,-z
1/2-x,1/2+y,z
1/2+x,-y,z
loop_
_atom_site_type_symbol
_atom_site_label
_atom_site_fract_x
_atom_site_fract_y
_atom_site_fract_z
Si Si1 0.345048 0.943206 0.456604
Si Si2 0.153750 0.484459 0.263923
Si Si3 0.757124 0.316687 0.253808
Si Si4 0.852713 0.066597 0.984810
Si Si5 0.666526 0.815030 0.440851
Si Si6 0.902454 0.396727 0.794084
Si Si7 0.596738 0.123182 0.847894
O O1 0.250000 0.940287 0.500000
O O2 0.337147 0.955749 0.356691
O O3 0.387399 0.875934 0.467898
O O4 0.396622 0.000000 0.500000
O O5 0.250000 0.500000 0.226852
O O6 0.096129 0.543953 0.264185
O O7 0.108743 0.438972 0.200148
O O8 0.726314 0.250000 0.240791
O O9 0.802334 0.327570 0.344715
O O10 0.668298 0.353636 0.247819
O O11 0.828022 0.331359 0.180590
O O12 0.876535 0.088115 0.890626
O O13 0.750000 0.069055 0.000000
O O14 0.898502 0.111815 0.050594
O O15 0.888627 0.000000 0.000000
O O16 0.615701 0.750000 0.445932
O O17 0.750000 0.808335 0.500000
O O18 0.000000 0.368458 0.790323
O O19 0.500000 0.149090 0.826245
#
# Coordination Sequence:
#
# PCOD8278254 Si02
#       7
#    16  16  16  16  16  16  16
#     4  10  18  29  55  93 120 165 210 263 311 377
#     4  12  19  36  60  92 128 163 206 254 317 378
#     4  11  24  44  67  89 123 170 219 266 310 371
#     4  11  21  39  63  93 128 165 206 258 319 385
#     4   9  18  34  59  91 119 161 218 259 311 377
#     4  12  25  40  63  96 130 165 208 262 324 386
#     4  12  24  39  63  96 130 162 207 262 321 381
#
# _framework density 20.950254000000001
#
# number of rings (size 3 to 8) (size 9 to 14) (size 15 to 20)
#    0.000    1.000    7.143    0.857    2.000    1.143 
#    0.000    1.429    0.000    6.000    0.000    4.000 
#    0.000    0.000    0.000    0.000    0.000    0.000 
#
# Total GULP energy -693866.074078 kJ/mol
# GULP energy per Si atom -12390.465609 kJ/mol
# Density = 2.090257 g / cm^3
# Si number density = 20.950254 Si / 1000 Ang^3
#
#
#
# Elastic Constant Matrix: (Units=GPa)
#
#
# Indices 1 2 3 4 5 6 
#
# 1 73.2161 7.9896 -4.4028 0.0000 0.0000 0.0000
# 2 7.9896 171.2313 30.2575 0.0000 0.0000 0.0000
# 3 -4.4028 30.2575 65.8004 0.0000 0.0000 0.0000
# 4 0.0000 0.0000 0.0000 28.2727 0.0000 0.0000
# 5 0.0000 0.0000 0.0000 0.0000 -0.3516 0.0000
# 6 0.0000 0.0000 0.0000 0.0000 0.0000 -2.5493
#
#
#
# Elastic Compliance Matrix: (Units=1/GPa)
#
#
# Indices 1 2 3 4 5 6 
#
# 1 0.013834 -0.000881 0.001331 0.000000 0.000000 0.000000
# 2 -0.000881 0.006413 -0.003008 0.000000 0.000000 0.000000
# 3 0.001331 -0.003008 0.016670 0.000000 0.000000 0.000000
# 4 0.000000 0.000000 0.000000 0.035370 0.000000 0.000000
# 5 0.000000 0.000000 0.000000 0.000000 -2.844222 0.000000
# 6 0.000000 0.000000 0.000000 0.000000 0.000000 -0.392266
#
#
# Mechanical properties :
#
#
# Convention : Reuss Voigt Hill
#
# Bulk Modulus (GPa) = 31.44547 41.99294 36.71921
# Shear Modulus (GPa) = -1.58806 23.50125 10.95659
#
# Velocity S-wave (km/s) = -0.87159 3.35291 2.28936
# Velocity P-wave (km/s) = 3.74557 5.92258 4.95511
#
# Compressibility (1/GPa) = 0.03180108
#
# Stress axis : x y z
#
# Youngs Moduli (GPa) = 72.28406 155.94256 59.98955
#
# Poissons Ratio (x) = 0.13733 -0.07982
# Poissons Ratio (y) = 0.06366 0.18043
# Poissons Ratio (z) = -0.09618 0.46903
#
# Static dielectric constant tensor:
#      x y z
#    x 3.581220 0.000000 0.000000 
#    y 0.000000 4.491680 0.000000 
#    z 0.000000 0.000000 4.045270 
# 
# 
# High freq. dielectric constant tensor:
#      x y z
#    x 1.785750 0.000000 0.000000 
#    y 0.000000 1.823670 0.000000 
#    z 0.000000 0.000000 1.830660 
# 
# From -- ./inp_files/27560.got.cif
#   From: 2010.03.12/outbox.cif.g09.slc.cpg/sg67_14_cif.got.tgz:27560.got - 2010.04.10 22:41:39.
