data_PCOD8278296
_publ_section_title
;
Structure prediction by ZEFSAII (Michael W. Deem and Ramdas Pophale) SiO2 
 PCOD8278296
Probable space group: C M M A
;
_chemical_formula_sum "Si O2"
_cell_formula_units_Z 112
_cell_length_a 15.975495
_cell_length_b 19.978990
_cell_length_c 17.534559
_cell_angle_alpha 90.000000
_cell_angle_beta 90.000000
_cell_angle_gamma 90.000000
_cell_volume 5596.579803
_symmetry_space_group_name_H-M "C M M A"
_symmetry_group_IT_number 67
_symmetry_cell_setting 'orthorhombic'
loop_
_space_group_symop_operation_xyz
x,y,z
-x,1/2-y,z
x,-y,-z
-x,1/2+y,-z
-x,-y,-z
x,1/2+y,-z
-x,y,z
x,1/2-y,z
1/2+x,1/2+y,z
1/2-x,-y,z
1/2+x,1/2-y,-z
1/2-x,y,-z
1/2-x,1/2-y,-z
1/2+x,y,-z
1/2-x,1/2+y,z
1/2+x,-y,z
loop_
_atom_site_type_symbol
_atom_site_label
_atom_site_fract_x
_atom_site_fract_y
_atom_site_fract_z
Si Si1 0.094496 0.406007 0.036159
Si Si2 0.099491 0.087412 0.314717
Si Si3 0.340241 0.533012 0.894823
Si Si4 0.900120 0.675337 0.824098
Si Si5 0.900447 0.324966 0.452069
Si Si6 0.900543 0.058768 0.731027
Si Si7 0.900455 0.324892 0.622089
O O1 0.092715 0.475579 0.084104
O O2 0.131363 0.349520 0.093019
O O3 0.000000 0.388764 0.011395
O O4 0.152161 0.410027 0.960481
O O5 0.136124 0.127255 0.241903
O O6 0.136201 0.121334 0.391739
O O7 0.000000 0.092732 0.315431
O O8 0.128055 0.010324 0.309335
O O9 0.250000 0.500000 0.897346
O O10 0.359061 0.565771 0.813646
O O11 0.866449 0.750000 0.809812
O O12 0.000000 0.672900 0.822412
O O13 0.872147 0.250000 0.427940
O O14 0.866588 0.341465 0.536968
O O15 0.000000 0.328415 0.452467
O O16 0.864839 0.120098 0.680719
O O17 0.000000 0.061672 0.739735
O O18 0.871729 0.250000 0.646465
O O19 0.000000 0.328721 0.621353
#
# Coordination Sequence:
#
# PCOD8278296 Si02
#       7
#    16  16  16  16  16  16  16
#     4  10  18  32  53  74  97 126 160 197 239 291
#     4   9  15  23  39  67  99 129 162 200 244 291
#     4  11  21  33  50  71  96 125 163 202 245 292
#     4   9  16  26  43  70 102 130 157 195 242 288
#     4   8  13  22  37  62  99 136 163 195 247 299
#     4  10  18  30  48  72  98 127 166 209 248 288
#     4   8  15  27  43  66  99 135 166 201 248 296
#
# _framework density 20.012222000000001
#
# number of rings (size 3 to 8) (size 9 to 14) (size 15 to 20)
#    0.000    2.714    1.429    3.857    0.000    2.286 
#    0.000    3.571    0.000    6.000    0.000    2.000 
#    0.000    2.286    0.000    0.000    0.000    0.000 
#
# Total GULP energy -694106.194505 kJ/mol
# GULP energy per Si atom -12394.753473 kJ/mol
# Density = 1.996667 g / cm^3
# Si number density = 20.012222 Si / 1000 Ang^3
#
#
#
# Elastic Constant Matrix: (Units=GPa)
#
#
# Indices 1 2 3 4 5 6 
#
# 1 24.0185 13.3382 24.9935 0.0000 0.0000 0.0000
# 2 13.3382 150.7846 106.7119 0.0000 0.0000 0.0000
# 3 24.9935 106.7119 188.6611 0.0000 0.0000 0.0000
# 4 0.0000 0.0000 0.0000 41.8717 0.0000 0.0000
# 5 0.0000 0.0000 0.0000 0.0000 6.1891 0.0000
# 6 0.0000 0.0000 0.0000 0.0000 0.0000 6.6006
#
#
#
# Elastic Compliance Matrix: (Units=1/GPa)
#
#
# Indices 1 2 3 4 5 6 
#
# 1 0.048308 0.000427 -0.006641 0.000000 0.000000 0.000000
# 2 0.000427 0.011063 -0.006314 0.000000 0.000000 0.000000
# 3 -0.006641 -0.006314 0.009752 0.000000 0.000000 0.000000
# 4 0.000000 0.000000 0.000000 0.023882 0.000000 0.000000
# 5 0.000000 0.000000 0.000000 0.000000 0.161576 0.000000
# 6 0.000000 0.000000 0.000000 0.000000 0.000000 0.151502
#
#
# Mechanical properties :
#
#
# Convention : Reuss Voigt Hill
#
# Bulk Modulus (GPa) = 22.69322 72.61686 47.65504
# Shear Modulus (GPa) = 11.21508 25.49363 18.35436
#
# Velocity S-wave (km/s) = 2.36987 3.57305 3.03175
# Velocity P-wave (km/s) = 4.34197 7.30666 6.00999
#
# Compressibility (1/GPa) = 0.04406603
#
# Stress axis : x y z
#
# Youngs Moduli (GPa) = 20.70032 90.39462 102.54713
#
# Poissons Ratio (x) = -0.03858 0.68104
# Poissons Ratio (y) = -0.00883 0.64747
# Poissons Ratio (z) = 0.13748 0.57074
#
# Static dielectric constant tensor:
#      x y z
#    x 2.987250 0.000000 0.000000 
#    y 0.000000 3.786390 0.000000 
#    z 0.000000 0.000000 3.936820 
# 
# 
# High freq. dielectric constant tensor:
#      x y z
#    x 1.725590 0.000000 0.000000 
#    y 0.000000 1.766330 0.000000 
#    z 0.000000 0.000000 1.790140 
# 
# From -- ./inp_files/34452.got.cif
#   From: 2010.03.12/outbox.cif.g09.slc.cpg/sg67_18_cif.got.tgz:34452.got - 2010.04.10 22:41:39.
