data_PCOD8278495
_publ_section_title
;
Structure prediction by ZEFSAII (Michael W. Deem and Ramdas Pophale) SiO2 
 PCOD8278495
Probable space group: C M M A
;
_chemical_formula_sum "Si O2"
_cell_formula_units_Z 96
_cell_length_a 29.209682
_cell_length_b 8.727584
_cell_length_c 20.570386
_cell_angle_alpha 90.000000
_cell_angle_beta 90.000000
_cell_angle_gamma 90.000000
_cell_volume 5244.007542
_symmetry_space_group_name_H-M "C M M A"
_symmetry_group_IT_number 67
_symmetry_cell_setting 'orthorhombic'
loop_
_space_group_symop_operation_xyz
x,y,z
-x,1/2-y,z
x,-y,-z
-x,1/2+y,-z
-x,-y,-z
x,1/2+y,-z
-x,y,z
x,1/2-y,z
1/2+x,1/2+y,z
1/2-x,-y,z
1/2+x,1/2-y,-z
1/2-x,y,-z
1/2-x,1/2-y,-z
1/2+x,y,-z
1/2-x,1/2+y,z
1/2+x,-y,z
loop_
_atom_site_type_symbol
_atom_site_label
_atom_site_fract_x
_atom_site_fract_y
_atom_site_fract_z
Si Si1 0.950070 0.567949 0.379044
Si Si2 0.450206 0.431481 0.233321
Si Si3 0.201751 0.068980 0.069166
Si Si4 0.299768 0.069600 0.308844
Si Si5 0.855980 0.431825 0.567090
Si Si6 0.144376 0.069081 0.818937
O O1 0.947534 0.750000 0.376272
O O2 0.944142 0.502441 0.306076
O O3 0.908116 0.506489 0.422631
O O4 0.000000 0.515554 0.406894
O O5 0.500000 0.483571 0.205010
O O6 0.448032 0.250000 0.238444
O O7 0.408479 0.485710 0.187891
O O8 0.206588 0.250000 0.062962
O O9 0.250000 0.000000 0.092841
O O10 0.163316 0.025491 0.120747
O O11 0.187271 0.000000 0.000000
O O12 0.295150 0.250000 0.312527
O O13 0.324570 0.007615 0.373850
O O14 0.329186 0.020903 0.246377
O O15 0.250000 0.000000 0.302483
O O16 0.836712 0.500000 0.500000
O O17 0.854475 0.250000 0.563680
O O18 0.148991 0.250000 0.832279
#
# Coordination Sequence:
#
# PCOD8278495 Si02
#       6
#    16  16  16  16  16  16
#     4   8  13  25  47  72  97 126 162 204 251 306
#     4   8  13  24  48  79 105 132 169 211 253 301
#     4  11  22  37  56  81 112 145 177 211 253 303
#     4  10  21  35  51  71  97 129 169 214 259 306
#     4  10  20  34  49  69  96 129 167 210 258 308
#     4  10  18  32  55  82 109 136 170 214 258 305
#
# _framework density 18.306609000000002
#
# number of rings (size 3 to 8) (size 9 to 14) (size 15 to 20)
#    0.000    2.500    1.667    3.500    0.000    3.333 
#    0.000    1.667    0.000    1.000    0.000    2.333 
#    0.000    0.000    0.000    0.000    0.000    0.000 
#
# Total GULP energy -594953.799838 kJ/mol
# GULP energy per Si atom -12394.870830 kJ/mol
# Density = 1.826494 g / cm^3
# Si number density = 18.306609 Si / 1000 Ang^3
#
#
#
# Elastic Constant Matrix: (Units=GPa)
#
#
# Indices 1 2 3 4 5 6 
#
# 1 142.1916 31.4803 64.6193 0.0000 0.0000 0.0000
# 2 31.4803 45.3228 31.8230 0.0000 0.0000 0.0000
# 3 64.6193 31.8230 106.6106 0.0000 0.0000 0.0000
# 4 0.0000 0.0000 0.0000 23.1594 0.0000 0.0000
# 5 0.0000 0.0000 0.0000 0.0000 30.3804 0.0000
# 6 0.0000 0.0000 0.0000 0.0000 0.0000 18.2972
#
#
#
# Elastic Compliance Matrix: (Units=1/GPa)
#
#
# Indices 1 2 3 4 5 6 
#
# 1 0.010114 -0.003442 -0.005103 0.000000 0.000000 0.000000
# 2 -0.003442 0.029086 -0.006596 0.000000 0.000000 0.000000
# 3 -0.005103 -0.006596 0.014442 0.000000 0.000000 0.000000
# 4 0.000000 0.000000 0.000000 0.043179 0.000000 0.000000
# 5 0.000000 0.000000 0.000000 0.000000 0.032916 0.000000
# 6 0.000000 0.000000 0.000000 0.000000 0.000000 0.054653
#
#
# Mechanical properties :
#
#
# Convention : Reuss Voigt Hill
#
# Bulk Modulus (GPa) = 42.80780 61.10780 51.95780
# Shear Modulus (GPa) = 22.47623 25.44755 23.96189
#
# Velocity S-wave (km/s) = 3.50775 3.73242 3.62183
# Velocity P-wave (km/s) = 6.31192 7.21299 6.77744
#
# Compressibility (1/GPa) = 0.02336023
#
# Stress axis : x y z
#
# Youngs Moduli (GPa) = 98.87511 34.38097 69.24402
#
# Poissons Ratio (x) = 0.11834 0.35334
# Poissons Ratio (y) = 0.34032 0.45672
# Poissons Ratio (z) = 0.50454 0.22677
#
# Static dielectric constant tensor:
#      x y z
#    x 3.657110 0.000000 0.000000 
#    y 0.000000 2.947250 0.000000 
#    z 0.000000 0.000000 3.315490 
# 
# 
# High freq. dielectric constant tensor:
#      x y z
#    x 1.721380 0.000000 0.000000 
#    y 0.000000 1.670680 0.000000 
#    z 0.000000 0.000000 1.696370 
# 
# From -- ./inp_files/37214.got.cif
#   From: 2010.03.12/outbox.cif.g09.slc.cpg/sg67_19_cif.got.tgz:37214.got - 2010.04.10 22:41:39.
