data_PCOD8278346
_publ_section_title
;
Structure prediction by ZEFSAII (Michael W. Deem and Ramdas Pophale) SiO2 
 PCOD8278346
Probable space group: C M M A
;
_chemical_formula_sum "Si O2"
_cell_formula_units_Z 56
_cell_length_a 9.043921
_cell_length_b 18.831558
_cell_length_c 19.548931
_cell_angle_alpha 90.000000
_cell_angle_beta 90.000000
_cell_angle_gamma 90.000000
_cell_volume 3329.400389
_symmetry_space_group_name_H-M "C M M A"
_symmetry_group_IT_number 67
_symmetry_cell_setting 'orthorhombic'
loop_
_space_group_symop_operation_xyz
x,y,z
-x,1/2-y,z
x,-y,-z
-x,1/2+y,-z
-x,-y,-z
x,1/2+y,-z
-x,y,z
x,1/2-y,z
1/2+x,1/2+y,z
1/2-x,-y,z
1/2+x,1/2-y,-z
1/2-x,y,-z
1/2-x,1/2-y,-z
1/2+x,y,-z
1/2-x,1/2+y,z
1/2+x,-y,z
loop_
_atom_site_type_symbol
_atom_site_label
_atom_site_fract_x
_atom_site_fract_y
_atom_site_fract_z
Si Si1 0.165721 0.672181 0.318585
Si Si2 0.674557 0.250000 0.572932
Si Si3 0.173957 0.668954 0.068835
Si Si4 0.324283 0.575785 0.803847
O O1 0.159528 0.750000 0.281934
O O2 0.271350 0.679292 0.385514
O O3 0.229810 0.615268 0.265170
O O4 0.000000 0.650460 0.342247
O O5 0.500000 0.250000 0.564667
O O6 0.750000 0.250000 0.500000
O O7 0.221779 0.750000 0.083423
O O8 0.230532 0.620995 0.131345
O O9 0.000000 0.662364 0.059093
O O10 0.250000 0.640220 0.000000
O O11 0.500000 0.568373 0.803897
O O12 0.250000 0.500000 0.806863
#
# Coordination Sequence:
#
# PCOD8278346 Si02
#       4
#    16   8  16  16
#     4   8  16  32  52  72  97 131 166 201 243 291
#     4  10  18  30  52  82 107 128 159 202 243 286
#     4   9  18  33  52  71  93 127 169 212 256 299
#     4  10  20  33  50  71 100 135 168 206 251 300
#
# _framework density 16.819845000000001
#
# number of rings (size 3 to 8) (size 9 to 14) (size 15 to 20)
#    0.857    2.000    0.000    1.714    0.000    6.286 
#    0.000    2.857    0.000    0.857    0.000    6.000 
#    0.000    0.000    0.000    0.000    0.000    0.000 
#
# Total GULP energy -346988.112039 kJ/mol
# GULP energy per Si atom -12392.432573 kJ/mol
# Density = 1.678156 g / cm^3
# Si number density = 16.819845 Si / 1000 Ang^3
#
#
#
# Elastic Constant Matrix: (Units=GPa)
#
#
# Indices 1 2 3 4 5 6 
#
# 1 66.0834 34.5967 61.7103 0.0000 0.0000 0.0000
# 2 34.5967 92.3702 72.1808 0.0000 0.0000 0.0000
# 3 61.7103 72.1808 161.4613 0.0000 0.0000 0.0000
# 4 0.0000 0.0000 0.0000 9.6915 0.0000 0.0000
# 5 0.0000 0.0000 0.0000 0.0000 30.0222 0.0000
# 6 0.0000 0.0000 0.0000 0.0000 0.0000 27.8768
#
#
#
# Elastic Compliance Matrix: (Units=1/GPa)
#
#
# Indices 1 2 3 4 5 6 
#
# 1 0.023992 -0.002798 -0.007919 0.000000 0.000000 0.000000
# 2 -0.002798 0.016965 -0.006515 0.000000 0.000000 0.000000
# 3 -0.007919 -0.006515 0.012132 0.000000 0.000000 0.000000
# 4 0.000000 0.000000 0.000000 0.103183 0.000000 0.000000
# 5 0.000000 0.000000 0.000000 0.000000 0.033309 0.000000
# 6 0.000000 0.000000 0.000000 0.000000 0.000000 0.035872
#
#
# Mechanical properties :
#
#
# Convention : Reuss Voigt Hill
#
# Bulk Modulus (GPa) = 53.68813 72.98782 63.33798
# Shear Modulus (GPa) = 18.78818 23.61325 21.20071
#
# Velocity S-wave (km/s) = 3.34582 3.75092 3.55414
# Velocity P-wave (km/s) = 6.84944 7.88969 7.38790
#
# Compressibility (1/GPa) = 0.01862609
#
# Stress axis : x y z
#
# Youngs Moduli (GPa) = 41.68030 58.94594 82.42412
#
# Poissons Ratio (x) = 0.16493 0.65271
# Poissons Ratio (y) = 0.11662 0.53696
# Poissons Ratio (z) = 0.33006 0.38401
#
# Static dielectric constant tensor:
#      x y z
#    x 3.020510 0.000000 0.000000 
#    y 0.000000 3.001750 0.000000 
#    z 0.000000 0.000000 3.148590 
# 
# 
# High freq. dielectric constant tensor:
#      x y z
#    x 1.640030 0.000000 0.000000 
#    y 0.000000 1.626340 0.000000 
#    z 0.000000 0.000000 1.647080 
# 
# From -- ./inp_files/31704.got.cif
#   From: 2010.03.12/outbox.cif.g09.slc.cpg/sg67_16_cif.got.tgz:31704.got - 2010.04.10 22:41:39.
