data_PCOD8278792
_publ_section_title
;
Structure prediction by ZEFSAII (Michael W. Deem and Ramdas Pophale) SiO2 
 PCOD8278792
Probable space group: C M M A
;
_chemical_formula_sum "Si O2"
_cell_formula_units_Z 104
_cell_length_a 26.510654
_cell_length_b 9.051049
_cell_length_c 23.959743
_cell_angle_alpha 90.000000
_cell_angle_beta 90.000000
_cell_angle_gamma 90.000000
_cell_volume 5749.121845
_symmetry_space_group_name_H-M "C M M A"
_symmetry_group_IT_number 67
_symmetry_cell_setting 'orthorhombic'
loop_
_space_group_symop_operation_xyz
x,y,z
-x,1/2-y,z
x,-y,-z
-x,1/2+y,-z
-x,-y,-z
x,1/2+y,-z
-x,y,z
x,1/2-y,z
1/2+x,1/2+y,z
1/2-x,-y,z
1/2+x,1/2-y,-z
1/2-x,y,-z
1/2-x,1/2-y,-z
1/2+x,y,-z
1/2-x,1/2+y,z
1/2+x,-y,z
loop_
_atom_site_type_symbol
_atom_site_label
_atom_site_fract_x
_atom_site_fract_y
_atom_site_fract_z
Si Si1 0.000000 0.574404 0.940417
Si Si2 0.558202 0.077180 0.557614
Si Si3 0.400370 0.076795 0.874614
Si Si4 0.801463 0.575433 0.143378
Si Si5 0.398132 0.576796 0.662005
Si Si6 0.056545 0.585572 0.758019
Si Si7 0.299427 0.077916 0.272088
O O1 0.050938 0.520870 0.909085
O O2 0.000000 0.750000 0.945725
O O3 0.000000 0.500000 0.000000
O O4 0.500000 0.045202 0.573063
O O5 0.568819 0.250000 0.551956
O O6 0.572944 0.000000 0.500000
O O7 0.593985 0.009323 0.604650
O O8 0.391643 0.250000 0.884637
O O9 0.408618 0.039993 0.809547
O O10 0.349397 0.988545 0.891358
O O11 0.797976 0.750000 0.133890
O O12 0.750000 0.500000 0.121033
O O13 0.809293 0.531506 0.208161
O O14 0.402467 0.750000 0.650550
O O15 0.439729 0.529392 0.707341
O O16 0.344951 0.527961 0.688264
O O17 0.070703 0.750000 0.736169
O O18 0.000000 0.584593 0.781393
O O19 0.290340 0.250000 0.276080
O O20 0.250000 0.000000 0.296178
#
# Coordination Sequence:
#
# PCOD8278792 Si02
#       7
#     8  16  16  16  16  16  16
#     4  10  22  40  60  84 114 152 195 232 275 328
#     4  10  21  37  55  75  99 133 176 217 260 313
#     4  10  19  34  55  79 110 147 184 227 273 323
#     4  10  19  33  52  79 112 147 186 226 274 331
#     4  11  21  33  49  75 107 137 171 215 264 317
#     4  10  19  31  48  73 105 141 176 212 260 317
#     4   9  19  32  47  71 104 138 173 212 257 313
#
# _framework density 18.08972
#
# number of rings (size 3 to 8) (size 9 to 14) (size 15 to 20)
#    0.000    2.000    2.308    1.846    0.000    5.538 
#    0.000    0.000    0.000    0.923    0.000    6.462 
#    0.000    0.000    0.000    0.000    0.000    0.000 
#
# Total GULP energy -644787.297495 kJ/mol
# GULP energy per Si atom -12399.755721 kJ/mol
# Density = 1.804855 g / cm^3
# Si number density = 18.089720 Si / 1000 Ang^3
#
#
#
# Elastic Constant Matrix: (Units=GPa)
#
#
# Indices 1 2 3 4 5 6 
#
# 1 134.8198 51.4045 44.0498 0.0000 0.0000 0.0000
# 2 51.4045 66.5302 36.0486 0.0000 0.0000 0.0000
# 3 44.0498 36.0486 65.5386 0.0000 0.0000 0.0000
# 4 0.0000 0.0000 0.0000 28.7158 0.0000 0.0000
# 5 0.0000 0.0000 0.0000 0.0000 15.0359 0.0000
# 6 0.0000 0.0000 0.0000 0.0000 0.0000 33.0139
#
#
#
# Elastic Compliance Matrix: (Units=1/GPa)
#
#
# Indices 1 2 3 4 5 6 
#
# 1 0.011186 -0.006509 -0.003938 0.000000 0.000000 0.000000
# 2 -0.006509 0.025200 -0.009486 0.000000 0.000000 0.000000
# 3 -0.003938 -0.009486 0.023123 0.000000 0.000000 0.000000
# 4 0.000000 0.000000 0.000000 0.034824 0.000000 0.000000
# 5 0.000000 0.000000 0.000000 0.000000 0.066507 0.000000
# 6 0.000000 0.000000 0.000000 0.000000 0.000000 0.030290
#
#
# Mechanical properties :
#
#
# Convention : Reuss Voigt Hill
#
# Bulk Modulus (GPa) = 50.91062 58.87717 54.89389
# Shear Modulus (GPa) = 21.04881 24.37883 22.71382
#
# Velocity S-wave (km/s) = 3.41483 3.67503 3.54732
# Velocity P-wave (km/s) = 6.61457 7.11518 6.86944
#
# Compressibility (1/GPa) = 0.01964227
#
# Stress axis : x y z
#
# Youngs Moduli (GPa) = 89.39996 39.68297 43.24754
#
# Poissons Ratio (x) = 0.25829 0.17031
# Poissons Ratio (y) = 0.58189 0.41025
# Poissons Ratio (z) = 0.35206 0.37644
#
# Static dielectric constant tensor:
#      x y z
#    x 3.455910 0.000000 0.000000 
#    y 0.000000 3.324570 0.000000 
#    z 0.000000 0.000000 3.070210 
# 
# 
# High freq. dielectric constant tensor:
#      x y z
#    x 1.704180 0.000000 0.000000 
#    y 0.000000 1.703920 0.000000 
#    z 0.000000 0.000000 1.670770 
# 
# From -- ./inp_files/42772.got.cif
#   From: 2010.03.12/outbox.cif.g09.slc.cpg/sg67_22_cif.got.tgz:42772.got - 2010.04.10 22:41:39.
