data_PCOD8278732
_publ_section_title
;
Structure prediction by ZEFSAII (Michael W. Deem and Ramdas Pophale) SiO2 
 PCOD8278732
Probable space group: C M M A
;
_chemical_formula_sum "Si O2"
_cell_formula_units_Z 88
_cell_length_a 24.583587
_cell_length_b 9.297442
_cell_length_c 23.190765
_cell_angle_alpha 90.000000
_cell_angle_beta 90.000000
_cell_angle_gamma 90.000000
_cell_volume 5300.585010
_symmetry_space_group_name_H-M "C M M A"
_symmetry_group_IT_number 67
_symmetry_cell_setting 'orthorhombic'
loop_
_space_group_symop_operation_xyz
x,y,z
-x,1/2-y,z
x,-y,-z
-x,1/2+y,-z
-x,-y,-z
x,1/2+y,-z
-x,y,z
x,1/2-y,z
1/2+x,1/2+y,z
1/2-x,-y,z
1/2+x,1/2-y,-z
1/2-x,y,-z
1/2-x,1/2-y,-z
1/2+x,y,-z
1/2-x,1/2+y,z
1/2+x,-y,z
loop_
_atom_site_type_symbol
_atom_site_label
_atom_site_fract_x
_atom_site_fract_y
_atom_site_fract_z
Si Si1 0.500000 0.415290 0.058883
Si Si2 0.436800 0.088574 0.764232
Si Si3 0.691979 0.073522 0.941739
Si Si4 0.105783 0.079928 0.867086
Si Si5 0.935269 0.750000 0.543870
Si Si6 0.435453 0.250000 0.415617
Si Si7 0.564356 0.035077 0.637500
O O1 0.500000 0.250000 0.041659
O O2 0.552619 0.455695 0.095777
O O3 0.500000 0.500000 0.000000
O O4 0.500000 0.043914 0.764057
O O5 0.429158 0.250000 0.789007
O O6 0.412459 0.085346 0.699200
O O7 0.404615 0.971630 0.801907
O O8 0.694976 0.250000 0.945892
O O9 0.750000 0.000000 0.930399
O O10 0.653984 0.021147 0.890064
O O11 0.668135 0.000000 0.000000
O O12 0.120406 0.250000 0.868177
O O13 0.909248 0.750000 0.479802
O O14 0.913648 0.882897 0.581302
O O15 0.000000 0.750000 0.537316
O O16 0.500000 0.250000 0.423320
O O17 0.415292 0.376832 0.375197
O O18 0.500000 0.055848 0.640014
#
# Coordination Sequence:
#
# PCOD8278732 Si02
#       7
#     8  16  16  16   8   8  16
#     4  10  22  36  50  72 100 130 161 202 247 291
#     4  10  19  31  45  62  91 128 171 208 249 297
#     4  11  22  39  61  84 106 131 162 203 250 302
#     4  11  22  36  52  76 101 134 170 209 251 298
#     4   9  14  24  36  50  76 106 149 204 247 291
#     4   9  16  22  34  54  74 106 151 200 253 289
#     4   9  16  25  36  54  77 112 154 203 248 290
#
# _framework density 16.601942000000001
#
# number of rings (size 3 to 8) (size 9 to 14) (size 15 to 20)
#    0.000    2.000    1.818    3.818    1.273    5.091 
#    0.000    0.000    0.000    0.000    0.000    0.000 
#    0.000    0.000    0.000    0.000    0.000    5.455 
#
# Total GULP energy -545156.994445 kJ/mol
# GULP energy per Si atom -12389.931692 kJ/mol
# Density = 1.656416 g / cm^3
# Si number density = 16.601942 Si / 1000 Ang^3
#
#
#
# Elastic Constant Matrix: (Units=GPa)
#
#
# Indices 1 2 3 4 5 6 
#
# 1 31.7713 23.5410 21.7063 0.0000 0.0000 0.0000
# 2 23.5410 125.6462 39.9158 0.0000 0.0000 0.0000
# 3 21.7063 39.9158 99.7744 0.0000 0.0000 0.0000
# 4 0.0000 0.0000 0.0000 29.2801 0.0000 0.0000
# 5 0.0000 0.0000 0.0000 0.0000 9.3091 0.0000
# 6 0.0000 0.0000 0.0000 0.0000 0.0000 17.8347
#
#
#
# Elastic Compliance Matrix: (Units=1/GPa)
#
#
# Indices 1 2 3 4 5 6 
#
# 1 0.039942 -0.005411 -0.006525 0.000000 0.000000 0.000000
# 2 -0.005411 0.009851 -0.002764 0.000000 0.000000 0.000000
# 3 -0.006525 -0.002764 0.012548 0.000000 0.000000 0.000000
# 4 0.000000 0.000000 0.000000 0.034153 0.000000 0.000000
# 5 0.000000 0.000000 0.000000 0.000000 0.107422 0.000000
# 6 0.000000 0.000000 0.000000 0.000000 0.000000 0.056071
#
#
# Mechanical properties :
#
#
# Convention : Reuss Voigt Hill
#
# Bulk Modulus (GPa) = 30.35667 47.50201 38.92934
# Shear Modulus (GPa) = 16.64645 22.75337 19.69991
#
# Velocity S-wave (km/s) = 3.16995 3.70608 3.44845
# Velocity P-wave (km/s) = 5.63230 6.85476 6.27338
#
# Compressibility (1/GPa) = 0.03294169
#
# Stress axis : x y z
#
# Youngs Moduli (GPa) = 25.03639 101.51691 79.69530
#
# Poissons Ratio (x) = 0.54927 0.52001
# Poissons Ratio (y) = 0.13546 0.22026
# Poissons Ratio (z) = 0.16336 0.28057
#
# Static dielectric constant tensor:
#      x y z
#    x 2.610910 0.000000 0.000000 
#    y 0.000000 3.493510 0.000000 
#    z 0.000000 0.000000 3.278480 
# 
# 
# High freq. dielectric constant tensor:
#      x y z
#    x 1.562410 0.000000 0.000000 
#    y 0.000000 1.660530 0.000000 
#    z 0.000000 0.000000 1.651940 
# 
# From -- ./inp_files/42406.got.cif
#   From: 2010.03.12/outbox.cif.g09.slc.cpg/sg67_22_cif.got.tgz:42406.got - 2010.04.10 22:41:39.
