data_PCOD8278360
_publ_section_title
;
Structure prediction by ZEFSAII (Michael W. Deem and Ramdas Pophale) SiO2 
 PCOD8278360
Probable space group: C M M A
;
_chemical_formula_sum "Si O2"
_cell_formula_units_Z 88
_cell_length_a 18.710343
_cell_length_b 9.156220
_cell_length_c 29.842026
_cell_angle_alpha 90.000000
_cell_angle_beta 90.000000
_cell_angle_gamma 90.000000
_cell_volume 5112.417027
_symmetry_space_group_name_H-M "C M M A"
_symmetry_group_IT_number 67
_symmetry_cell_setting 'orthorhombic'
loop_
_space_group_symop_operation_xyz
x,y,z
-x,1/2-y,z
x,-y,-z
-x,1/2+y,-z
-x,-y,-z
x,1/2+y,-z
-x,y,z
x,1/2-y,z
1/2+x,1/2+y,z
1/2-x,-y,z
1/2+x,1/2-y,-z
1/2-x,y,-z
1/2-x,1/2-y,-z
1/2+x,y,-z
1/2-x,1/2+y,z
1/2+x,-y,z
loop_
_atom_site_type_symbol
_atom_site_label
_atom_site_fract_x
_atom_site_fract_y
_atom_site_fract_z
Si Si1 0.085314 0.913351 0.957028
Si Si2 0.500000 0.423326 0.452489
Si Si3 0.421787 0.913382 0.382536
Si Si4 0.915139 0.911518 0.127123
Si Si5 0.083282 0.079807 0.772573
Si Si6 0.174286 0.076428 0.301152
O O1 0.114861 0.750000 0.960266
O O2 0.000000 0.916417 0.956663
O O3 0.115976 0.982105 0.911024
O O4 0.114865 0.000000 0.000000
O O5 0.500000 0.250000 0.457652
O O6 0.500000 0.500000 0.500000
O O7 0.571243 0.477745 0.425432
O O8 0.500000 0.908099 0.358537
O O9 0.400978 0.750000 0.399159
O O10 0.364227 0.972507 0.347220
O O11 0.884341 0.750000 0.117903
O O12 0.893254 0.963478 0.176884
O O13 0.000000 0.905713 0.124280
O O14 0.099842 0.250000 0.763278
O O15 0.000000 0.047725 0.764875
O O16 0.128286 0.976916 0.740532
O O17 0.182584 0.250000 0.298436
O O18 0.250000 0.000000 0.300084
#
# Coordination Sequence:
#
# PCOD8278360 Si02
#       6
#    16   8  16  16  16  16
#     4   9  15  21  31  49  75 108 145 184 229 284
#     4  10  18  30  54  84 110 136 168 208 247 288
#     4   8  17  34  52  74 104 134 169 208 248 291
#     4   8  14  25  39  56  81 113 148 189 236 285
#     4   9  18  32  50  71  96 127 165 207 250 300
#     4  11  22  35  51  72 102 136 170 210 253 297
#
# _framework density 17.212993000000001
#
# number of rings (size 3 to 8) (size 9 to 14) (size 15 to 20)
#    0.545    2.364    0.000    3.273    0.000    5.455 
#    0.000    1.818    0.000    0.545    0.000    3.818 
#    0.000    0.727    0.000    7.636    0.000   10.545 
#
# Total GULP energy -545232.584931 kJ/mol
# GULP energy per Si atom -12391.649658 kJ/mol
# Density = 1.717382 g / cm^3
# Si number density = 17.212993 Si / 1000 Ang^3
#
#
#
# Elastic Constant Matrix: (Units=GPa)
#
#
# Indices 1 2 3 4 5 6 
#
# 1 47.6281 36.8214 42.7379 0.0000 0.0000 0.0000
# 2 36.8214 127.4391 90.0167 0.0000 0.0000 0.0000
# 3 42.7379 90.0167 155.3846 0.0000 0.0000 0.0000
# 4 0.0000 0.0000 0.0000 35.0899 0.0000 0.0000
# 5 0.0000 0.0000 0.0000 0.0000 -0.0163 0.0000
# 6 0.0000 0.0000 0.0000 0.0000 0.0000 17.3661
#
#
#
# Elastic Compliance Matrix: (Units=1/GPa)
#
#
# Indices 1 2 3 4 5 6 
#
# 1 0.029463 -0.004720 -0.005369 0.000000 0.000000 0.000000
# 2 -0.004720 0.014038 -0.006834 0.000000 0.000000 0.000000
# 3 -0.005369 -0.006834 0.011872 0.000000 0.000000 0.000000
# 4 0.000000 0.000000 0.000000 0.028498 0.000000 0.000000
# 5 0.000000 0.000000 0.000000 0.000000-61.176236 0.000000
# 6 0.000000 0.000000 0.000000 0.000000 0.000000 0.057583
#
#
# Mechanical properties :
#
#
# Convention : Reuss Voigt Hill
#
# Bulk Modulus (GPa) = 46.45666 74.40045 60.42855
# Shear Modulus (GPa) = -0.08198 21.21299 10.56551
#
# Velocity S-wave (km/s) = -0.21847 3.51434 2.48021
# Velocity P-wave (km/s) = 5.19464 7.73206 6.58669
#
# Compressibility (1/GPa) = 0.02152544
#
# Stress axis : x y z
#
# Youngs Moduli (GPa) = 33.94060 71.23480 84.23517
#
# Poissons Ratio (x) = 0.33626 0.45227
# Poissons Ratio (y) = 0.16021 0.57568
# Poissons Ratio (z) = 0.18223 0.48683
#
# Static dielectric constant tensor:
#      x y z
#    x 2.738020 0.000000 0.000000 
#    y 0.000000 3.314270 0.000000 
#    z 0.000000 0.000000 3.297530 
# 
# 
# High freq. dielectric constant tensor:
#      x y z
#    x 1.605890 0.000000 0.000000 
#    y 0.000000 1.670620 0.000000 
#    z 0.000000 0.000000 1.670310 
# 
# From -- ./inp_files/45845.got.cif
#   From: 2010.03.12/outbox.cif.g09.slc.cpg/sg67_23_cif.got.tgz:45845.got - 2010.04.10 22:41:39.
