data_PCOD8278828
_publ_section_title
;
Structure prediction by ZEFSAII (Michael W. Deem and Ramdas Pophale) SiO2 
 PCOD8278828
Probable space group: C M M A
;
_chemical_formula_sum "Si O2"
_cell_formula_units_Z 128
_cell_length_a 21.213173
_cell_length_b 17.336565
_cell_length_c 17.583954
_cell_angle_alpha 90.000000
_cell_angle_beta 90.000000
_cell_angle_gamma 90.000000
_cell_volume 6466.737391
_symmetry_space_group_name_H-M "C M M A"
_symmetry_group_IT_number 67
_symmetry_cell_setting 'orthorhombic'
loop_
_space_group_symop_operation_xyz
x,y,z
-x,1/2-y,z
x,-y,-z
-x,1/2+y,-z
-x,-y,-z
x,1/2+y,-z
-x,y,z
x,1/2-y,z
1/2+x,1/2+y,z
1/2-x,-y,z
1/2+x,1/2-y,-z
1/2-x,y,-z
1/2-x,1/2-y,-z
1/2+x,y,-z
1/2-x,1/2+y,z
1/2+x,-y,z
loop_
_atom_site_type_symbol
_atom_site_label
_atom_site_fract_x
_atom_site_fract_y
_atom_site_fract_z
Si Si1 0.821156 0.590116 0.086835
Si Si2 0.933242 0.590958 0.493403
Si Si3 0.680383 0.093250 0.914861
Si Si4 0.249108 0.662852 0.412411
Si Si5 0.358398 0.574348 0.647813
Si Si6 0.428208 0.083473 0.200267
Si Si7 0.625011 0.107199 0.645509
Si Si8 0.429169 0.099707 0.805897
O O1 0.750939 0.619229 0.112896
O O2 0.822085 0.498374 0.089934
O O3 0.878721 0.620787 0.139617
O O4 0.832382 0.620093 0.001231
O O5 0.934869 0.500000 0.500000
O O6 0.883033 0.613638 0.430045
O O7 0.921801 0.625195 0.576490
O O8 0.000000 0.622881 0.464517
O O9 0.624417 0.130528 0.864232
O O10 0.223004 0.750000 0.413504
O O11 0.250000 0.630518 0.500000
O O12 0.211243 0.609247 0.352467
O O13 0.316688 0.661910 0.372436
O O14 0.401677 0.604504 0.716665
O O15 0.354212 0.482266 0.647229
O O16 0.500000 0.116105 0.189755
O O17 0.430341 0.992129 0.191390
O O18 0.590145 0.130571 0.722969
O O19 0.500000 0.130287 0.826120
#
# Coordination Sequence:
#
# PCOD8278828 Si02
#       8
#    16  16  16  16  16  16  16  16
#     4   8  14  24  37  57  92 136 171 197 236 292
#     4   9  16  27  45  68  94 123 154 195 244 289
#     4   8  14  24  37  57  92 136 171 197 236 292
#     4  11  23  37  51  69  96 127 164 206 247 293
#     4  10  19  31  50  73  97 124 161 203 245 293
#     4   9  17  27  42  68  98 127 164 208 247 287
#     4  10  19  31  50  73  97 124 161 203 245 293
#     4   9  17  27  42  68  98 127 164 208 247 287
#
# _framework density 19.793599
#
# number of rings (size 3 to 8) (size 9 to 14) (size 15 to 20)
#    0.000    2.750    1.250    1.875    1.750    4.000 
#    0.000    2.500    0.000    3.750    0.000    0.000 
#    0.000    2.000    0.000    2.250    0.000    2.500 
#
# Total GULP energy -792849.407349 kJ/mol
# GULP energy per Si atom -12388.271990 kJ/mol
# Density = 1.974855 g / cm^3
# Si number density = 19.793599 Si / 1000 Ang^3
#
#
#
# Elastic Constant Matrix: (Units=GPa)
#
#
# Indices 1 2 3 4 5 6 
#
# 1 153.9428 7.7192 74.3203 0.0000 0.0000 0.0000
# 2 7.7192 14.8958 5.3858 0.0000 0.0000 0.0000
# 3 74.3203 5.3858 129.3093 0.0000 0.0000 0.0000
# 4 0.0000 0.0000 0.0000 6.1616 0.0000 0.0000
# 5 0.0000 0.0000 0.0000 0.0000 29.8408 0.0000
# 6 0.0000 0.0000 0.0000 0.0000 0.0000 4.6063
#
#
#
# Elastic Compliance Matrix: (Units=1/GPa)
#
#
# Indices 1 2 3 4 5 6 
#
# 1 0.009110 -0.002871 -0.005116 0.000000 0.000000 0.000000
# 2 -0.002871 0.069064 -0.001226 0.000000 0.000000 0.000000
# 3 -0.005116 -0.001226 0.010725 0.000000 0.000000 0.000000
# 4 0.000000 0.000000 0.000000 0.162297 0.000000 0.000000
# 5 0.000000 0.000000 0.000000 0.000000 0.033511 0.000000
# 6 0.000000 0.000000 0.000000 0.000000 0.000000 0.217092
#
#
# Mechanical properties :
#
#
# Convention : Reuss Voigt Hill
#
# Bulk Modulus (GPa) = 14.19010 52.55538 33.37274
# Shear Modulus (GPa) = 9.19595 22.16990 15.68292
#
# Velocity S-wave (km/s) = 2.15778 3.35035 2.81788
# Velocity P-wave (km/s) = 3.65959 6.44793 5.24254
#
# Compressibility (1/GPa) = 0.07047165
#
# Stress axis : x y z
#
# Youngs Moduli (GPa) = 109.77011 14.47928 93.23927
#
# Poissons Ratio (x) = 0.04157 0.47704
# Poissons Ratio (y) = 0.31515 0.11435
# Poissons Ratio (z) = 0.56162 0.01776
#
# Static dielectric constant tensor:
#      x y z
#    x 4.049990 0.000000 0.000000 
#    y 0.000000 2.799240 0.000000 
#    z 0.000000 0.000000 3.856170 
# 
# 
# High freq. dielectric constant tensor:
#      x y z
#    x 1.789520 0.000000 0.000000 
#    y 0.000000 1.690590 0.000000 
#    z 0.000000 0.000000 1.771330 
# 
# From -- ./inp_files/35259.got.cif
#   From: 2010.03.12/outbox.cif.g09.slc.cpg/sg67_18_cif.got.tgz:35259.got - 2010.04.10 22:41:39.
