data_PCOD8278461
_publ_section_title
;
Structure prediction by ZEFSAII (Michael W. Deem and Ramdas Pophale) SiO2 
 PCOD8278461
Probable space group: C M M A
;
_chemical_formula_sum "Si O2"
_cell_formula_units_Z 96
_cell_length_a 23.682154
_cell_length_b 8.715442
_cell_length_c 25.349852
_cell_angle_alpha 90.000000
_cell_angle_beta 90.000000
_cell_angle_gamma 90.000000
_cell_volume 5232.220597
_symmetry_space_group_name_H-M "C M M A"
_symmetry_group_IT_number 67
_symmetry_cell_setting 'orthorhombic'
loop_
_space_group_symop_operation_xyz
x,y,z
-x,1/2-y,z
x,-y,-z
-x,1/2+y,-z
-x,-y,-z
x,1/2+y,-z
-x,y,z
x,1/2-y,z
1/2+x,1/2+y,z
1/2-x,-y,z
1/2+x,1/2-y,-z
1/2-x,y,-z
1/2-x,1/2-y,-z
1/2+x,y,-z
1/2-x,1/2+y,z
1/2+x,-y,z
loop_
_atom_site_type_symbol
_atom_site_label
_atom_site_fract_x
_atom_site_fract_y
_atom_site_fract_z
Si Si1 0.111371 0.928886 0.845892
Si Si2 0.435836 0.569714 0.944702
Si Si3 0.376882 0.567566 0.650816
Si Si4 0.500000 0.071147 0.786004
Si Si5 0.311420 0.931770 0.445999
Si Si6 0.500000 0.929179 0.673642
Si Si7 0.687855 0.432233 0.749761
O O1 0.111313 0.750000 0.858623
O O2 0.164064 0.972514 0.808168
O O3 0.054768 0.981816 0.817140
O O4 0.110554 0.017574 0.901423
O O5 0.500000 0.513166 0.930991
O O6 0.434202 0.750000 0.949685
O O7 0.416060 0.500000 0.000000
O O8 0.367639 0.750000 0.646576
O O9 0.348694 0.479985 0.602960
O O10 0.442502 0.517267 0.645241
O O11 0.351929 0.509264 0.706126
O O12 0.500000 0.250000 0.773973
O O13 0.500000 0.984679 0.732259
O O14 0.307721 0.750000 0.450413
O O15 0.337639 0.000000 0.500000
O O16 0.250000 0.000000 0.436435
O O17 0.500000 0.750000 0.676409
O O18 0.688474 0.250000 0.740349
O O19 0.750000 0.500000 0.744542
#
# Coordination Sequence:
#
# PCOD8278461 Si02
#       7
#    16  16  16   8  16   8  16
#     4  10  20  34  54  78 109 144 179 222 274 327
#     4  10  20  32  50  77 109 143 179 220 268 322
#     4  11  22  38  58  84 116 149 185 228 275 328
#     4  10  18  32  53  78 109 144 181 223 271 331
#     4  11  22  39  62  87 113 146 187 233 280 327
#     4  10  22  36  55  82 115 150 185 225 271 327
#     4  11  23  38  56  81 111 147 186 229 277 326
#
# _framework density 18.347850999999999
#
# number of rings (size 3 to 8) (size 9 to 14) (size 15 to 20)
#    0.000    1.500    2.500    4.000    0.000    3.333 
#    0.000    0.417    0.000    0.500    0.000    3.500 
#    0.000    0.000    0.000    0.000    0.000    0.000 
#
# Total GULP energy -595138.730593 kJ/mol
# GULP energy per Si atom -12398.723554 kJ/mol
# Density = 1.830609 g / cm^3
# Si number density = 18.347851 Si / 1000 Ang^3
#
#
#
# Elastic Constant Matrix: (Units=GPa)
#
#
# Indices 1 2 3 4 5 6 
#
# 1 94.5957 39.9546 44.4183 0.0000 0.0000 0.0000
# 2 39.9546 94.2550 52.7024 0.0000 0.0000 0.0000
# 3 44.4183 52.7024 130.7931 0.0000 0.0000 0.0000
# 4 0.0000 0.0000 0.0000 38.9169 0.0000 0.0000
# 5 0.0000 0.0000 0.0000 0.0000 27.1037 0.0000
# 6 0.0000 0.0000 0.0000 0.0000 0.0000 27.3747
#
#
#
# Elastic Compliance Matrix: (Units=1/GPa)
#
#
# Indices 1 2 3 4 5 6 
#
# 1 0.013727 -0.004146 -0.002991 0.000000 0.000000 0.000000
# 2 -0.004146 0.014948 -0.004615 0.000000 0.000000 0.000000
# 3 -0.002991 -0.004615 0.010521 0.000000 0.000000 0.000000
# 4 0.000000 0.000000 0.000000 0.025696 0.000000 0.000000
# 5 0.000000 0.000000 0.000000 0.000000 0.036895 0.000000
# 6 0.000000 0.000000 0.000000 0.000000 0.000000 0.036530
#
#
# Mechanical properties :
#
#
# Convention : Reuss Voigt Hill
#
# Bulk Modulus (GPa) = 63.73113 65.97715 64.85414
# Shear Modulus (GPa) = 29.93078 30.85027 30.39052
#
# Velocity S-wave (km/s) = 4.04331 4.10495 4.07425
# Velocity P-wave (km/s) = 7.52384 7.64883 7.58659
#
# Compressibility (1/GPa) = 0.01569092
#
# Stress axis : x y z
#
# Youngs Moduli (GPa) = 72.84840 66.90030 95.04814
#
# Poissons Ratio (x) = 0.27740 0.28429
# Poissons Ratio (y) = 0.30207 0.43864
# Poissons Ratio (z) = 0.21789 0.30874
#
# Static dielectric constant tensor:
#      x y z
#    x 3.394190 0.000000 0.000000 
#    y 0.000000 3.639310 0.000000 
#    z 0.000000 0.000000 3.486600 
# 
# 
# High freq. dielectric constant tensor:
#      x y z
#    x 1.696780 0.000000 0.000000 
#    y 0.000000 1.721790 0.000000 
#    z 0.000000 0.000000 1.716950 
# 
# From -- ./inp_files/42578.got.cif
#   From: 2010.03.12/outbox.cif.g09.slc.cpg/sg67_22_cif.got.tgz:42578.got - 2010.04.10 22:41:39.
