data_PCOD8278084
_publ_section_title
;
Structure prediction by ZEFSAII (Michael W. Deem and Ramdas Pophale) SiO2 
 PCOD8278084
Probable space group: C M M A
;
_chemical_formula_sum "Si O2"
_cell_formula_units_Z 80
_cell_length_a 30.180365
_cell_length_b 8.722076
_cell_length_c 20.438332
_cell_angle_alpha 90.000000
_cell_angle_beta 90.000000
_cell_angle_gamma 90.000000
_cell_volume 5380.093260
_symmetry_space_group_name_H-M "C M M A"
_symmetry_group_IT_number 67
_symmetry_cell_setting 'orthorhombic'
loop_
_space_group_symop_operation_xyz
x,y,z
-x,1/2-y,z
x,-y,-z
-x,1/2+y,-z
-x,-y,-z
x,1/2+y,-z
-x,y,z
x,1/2-y,z
1/2+x,1/2+y,z
1/2-x,-y,z
1/2+x,1/2-y,-z
1/2-x,y,-z
1/2-x,1/2-y,-z
1/2+x,y,-z
1/2-x,1/2+y,z
1/2+x,-y,z
loop_
_atom_site_type_symbol
_atom_site_label
_atom_site_fract_x
_atom_site_fract_y
_atom_site_fract_z
Si Si1 0.052851 0.077455 0.934148
Si Si2 0.383244 0.430763 0.571237
Si Si3 0.552118 0.926260 0.670408
Si Si4 0.705966 0.067488 0.427344
Si Si5 0.552646 0.078339 0.803313
O O1 0.070573 0.250000 0.931791
O O2 0.000000 0.072884 0.934064
O O3 0.071968 0.990159 0.870705
O O4 0.071495 0.000000 0.000000
O O5 0.392603 0.500000 0.500000
O O6 0.376534 0.250000 0.564674
O O7 0.424950 0.467885 0.616522
O O8 0.339475 0.506358 0.605182
O O9 0.500000 0.953487 0.663028
O O10 0.565079 0.750000 0.659138
O O11 0.568523 0.975568 0.742465
O O12 0.707507 0.250000 0.427526
O O13 0.705214 0.000000 0.500000
O O14 0.750000 0.000000 0.391387
O O15 0.500000 0.078936 0.807178
O O16 0.571104 0.250000 0.794268
#
# Coordination Sequence:
#
# PCOD8278084 Si02
#       5
#    16  16  16  16  16
#     4   9  15  22  33  50  71  94 121 156 196 235
#     4  11  21  33  47  63  82 104 133 169 208 247
#     4  10  20  33  46  59  77 104 138 174 210 246
#     4  10  17  28  45  65  86 105 126 154 194 242
#     4   9  16  26  39  54  72  96 127 162 199 239
#
# _framework density 14.869631
#
# number of rings (size 3 to 8) (size 9 to 14) (size 15 to 20)
#    0.000    2.200    0.000    7.200    0.000    6.400 
#    0.000    0.000    0.000    0.000    0.000    0.000 
#    0.000    0.000    0.000    0.000    0.000    1.000 
#
# Total GULP energy -495884.203097 kJ/mol
# GULP energy per Si atom -12397.105077 kJ/mol
# Density = 1.483579 g / cm^3
# Si number density = 14.869631 Si / 1000 Ang^3
#
#
#
# Elastic Constant Matrix: (Units=GPa)
#
#
# Indices 1 2 3 4 5 6 
#
# 1 40.7197 30.1272 29.7824 0.0000 0.0000 0.0000
# 2 30.1272 130.5610 36.1558 0.0000 0.0000 0.0000
# 3 29.7824 36.1558 83.6919 0.0000 0.0000 0.0000
# 4 0.0000 0.0000 0.0000 27.2699 0.0000 0.0000
# 5 0.0000 0.0000 0.0000 0.0000 0.3610 0.0000
# 6 0.0000 0.0000 0.0000 0.0000 0.0000 19.3474
#
#
#
# Elastic Compliance Matrix: (Units=1/GPa)
#
#
# Indices 1 2 3 4 5 6 
#
# 1 0.036325 -0.005455 -0.010570 0.000000 0.000000 0.000000
# 2 -0.005455 0.009519 -0.002171 0.000000 0.000000 0.000000
# 3 -0.010570 -0.002171 0.016648 0.000000 0.000000 0.000000
# 4 0.000000 0.000000 0.000000 0.036670 0.000000 0.000000
# 5 0.000000 0.000000 0.000000 0.000000 2.769992 0.000000
# 6 0.000000 0.000000 0.000000 0.000000 0.000000 0.051687
#
#
# Mechanical properties :
#
#
# Convention : Reuss Voigt Hill
#
# Bulk Modulus (GPa) = 38.31420 49.67815 43.99617
# Shear Modulus (GPa) = 1.68581 19.98947 10.83764
#
# Velocity S-wave (km/s) = 1.06592 3.67047 2.70264
# Velocity P-wave (km/s) = 5.22854 7.17250 6.27624
#
# Compressibility (1/GPa) = 0.02609999
#
# Stress axis : x y z
#
# Youngs Moduli (GPa) = 27.52931 105.05007 60.06748
#
# Poissons Ratio (x) = 0.57304 0.63491
# Poissons Ratio (y) = 0.15017 0.13042
# Poissons Ratio (z) = 0.29098 0.22809
#
# Static dielectric constant tensor:
#      x y z
#    x 2.950430 0.000000 0.000000 
#    y 0.000000 3.075390 0.000000 
#    z 0.000000 0.000000 2.814590 
# 
# 
# High freq. dielectric constant tensor:
#      x y z
#    x 1.516310 0.000000 0.000000 
#    y 0.000000 1.595170 0.000000 
#    z 0.000000 0.000000 1.549410 
# 
# From -- ./inp_files/32130.got.cif
#   From: 2010.03.12/outbox.cif.g09.slc.cpg/sg67_17_cif.got.tgz:32130.got - 2010.04.10 22:41:39.
