data_PCOD8278362
_publ_section_title
;
Structure prediction by ZEFSAII (Michael W. Deem and Ramdas Pophale) SiO2 
 PCOD8278362
Probable space group: C M M A
;
_chemical_formula_sum "Si O2"
_cell_formula_units_Z 72
_cell_length_a 8.900304
_cell_length_b 18.507092
_cell_length_c 24.815294
_cell_angle_alpha 90.000000
_cell_angle_beta 90.000000
_cell_angle_gamma 90.000000
_cell_volume 4087.544083
_symmetry_space_group_name_H-M "C M M A"
_symmetry_group_IT_number 67
_symmetry_cell_setting 'orthorhombic'
loop_
_space_group_symop_operation_xyz
x,y,z
-x,1/2-y,z
x,-y,-z
-x,1/2+y,-z
-x,-y,-z
x,1/2+y,-z
-x,y,z
x,1/2-y,z
1/2+x,1/2+y,z
1/2-x,-y,z
1/2+x,1/2-y,-z
1/2-x,y,-z
1/2-x,1/2-y,-z
1/2+x,y,-z
1/2-x,1/2+y,z
1/2+x,-y,z
loop_
_atom_site_type_symbol
_atom_site_label
_atom_site_fract_x
_atom_site_fract_y
_atom_site_fract_z
Si Si1 0.321392 0.577894 0.243200
Si Si2 0.675982 0.250000 0.057806
Si Si3 0.669470 0.664024 0.446711
Si Si4 0.173017 0.335369 0.662001
Si Si5 0.168106 0.829315 0.855509
O O1 0.500000 0.572795 0.244748
O O2 0.250000 0.500000 0.248808
O O3 0.267900 0.627619 0.291567
O O4 0.265820 0.613115 0.186806
O O5 0.500000 0.250000 0.050710
O O6 0.728453 0.322164 0.090794
O O7 0.750000 0.250000 0.000000
O O8 0.500000 0.633621 0.443706
O O9 0.667227 0.750000 0.448993
O O10 0.750000 0.632818 0.500000
O O11 0.762411 0.637284 0.394999
O O12 0.191819 0.250000 0.668003
O O13 0.000000 0.359014 0.666035
O O14 0.163995 0.750000 0.826959
O O15 0.000000 0.851951 0.873483
#
# Coordination Sequence:
#
# PCOD8278362 Si02
#       5
#    16   8  16  16  16
#     4  11  22  36  53  74 105 141 176 216 262 311
#     4  10  18  30  54  84 112 138 171 212 253 298
#     4   9  16  27  45  70  99 130 165 209 262 313
#     4  10  20  33  51  76 104 134 173 218 261 312
#     4   8  17  34  53  76 105 137 173 211 254 302
#
# _framework density 17.61449
#
# number of rings (size 3 to 8) (size 9 to 14) (size 15 to 20)
#    0.667    1.778    0.000    3.333    0.000    6.667 
#    0.000    0.000    0.000    1.333    0.000    9.333 
#    0.000    0.000    0.000    0.000    0.000    0.000 
#
# Total GULP energy -446203.717244 kJ/mol
# GULP energy per Si atom -12394.547701 kJ/mol
# Density = 1.757440 g / cm^3
# Si number density = 17.614490 Si / 1000 Ang^3
#
#
#
# Elastic Constant Matrix: (Units=GPa)
#
#
# Indices 1 2 3 4 5 6 
#
# 1 116.3734 29.8649 69.5857 0.0000 0.0000 0.0000
# 2 29.8649 28.4163 32.0736 0.0000 0.0000 0.0000
# 3 69.5857 32.0736 151.3611 0.0000 0.0000 0.0000
# 4 0.0000 0.0000 0.0000 0.3876 0.0000 0.0000
# 5 0.0000 0.0000 0.0000 0.0000 35.6872 0.0000
# 6 0.0000 0.0000 0.0000 0.0000 0.0000 20.8901
#
#
#
# Elastic Compliance Matrix: (Units=1/GPa)
#
#
# Indices 1 2 3 4 5 6 
#
# 1 0.013549 -0.009475 -0.004221 0.000000 0.000000 0.000000
# 2 -0.009475 0.052880 -0.006849 0.000000 0.000000 0.000000
# 3 -0.004221 -0.006849 0.009999 0.000000 0.000000 0.000000
# 4 0.000000 0.000000 0.000000 2.580122 0.000000 0.000000
# 5 0.000000 0.000000 0.000000 0.000000 0.028021 0.000000
# 6 0.000000 0.000000 0.000000 0.000000 0.000000 0.047870
#
#
# Mechanical properties :
#
#
# Convention : Reuss Voigt Hill
#
# Bulk Modulus (GPa) = 28.29932 62.13324 45.21628
# Shear Modulus (GPa) = 1.79513 22.36807 12.08160
#
# Velocity S-wave (km/s) = 1.01061 3.56739 2.62179
# Velocity P-wave (km/s) = 4.17883 7.23318 5.90684
#
# Compressibility (1/GPa) = 0.03533654
#
# Stress axis : x y z
#
# Youngs Moduli (GPa) = 73.80879 18.91071 100.01401
#
# Poissons Ratio (x) = 0.17918 0.42215
# Poissons Ratio (y) = 0.69934 0.68503
# Poissons Ratio (z) = 0.31154 0.12953
#
# Static dielectric constant tensor:
#      x y z
#    x 3.410050 0.000000 0.000000 
#    y 0.000000 2.910760 0.000000 
#    z 0.000000 0.000000 3.306030 
# 
# 
# High freq. dielectric constant tensor:
#      x y z
#    x 1.694690 0.000000 0.000000 
#    y 0.000000 1.634890 0.000000 
#    z 0.000000 0.000000 1.684240 
# 
# From -- ./inp_files/43191.got.cif
#   From: 2010.03.12/outbox.cif.g09.slc.cpg/sg67_22_cif.got.tgz:43191.got - 2010.04.10 22:41:39.
