data_PCOD8278275
_publ_section_title
;
Structure prediction by ZEFSAII (Michael W. Deem and Ramdas Pophale) SiO2 
 PCOD8278275
Probable space group: C M M A
;
_chemical_formula_sum "Si O2"
_cell_formula_units_Z 88
_cell_length_a 28.009717
_cell_length_b 8.651314
_cell_length_c 18.980342
_cell_angle_alpha 90.000000
_cell_angle_beta 90.000000
_cell_angle_gamma 90.000000
_cell_volume 4599.332736
_symmetry_space_group_name_H-M "C M M A"
_symmetry_group_IT_number 67
_symmetry_cell_setting 'orthorhombic'
loop_
_space_group_symop_operation_xyz
x,y,z
-x,1/2-y,z
x,-y,-z
-x,1/2+y,-z
-x,-y,-z
x,1/2+y,-z
-x,y,z
x,1/2-y,z
1/2+x,1/2+y,z
1/2-x,-y,z
1/2+x,1/2-y,-z
1/2-x,y,-z
1/2-x,1/2-y,-z
1/2+x,y,-z
1/2-x,1/2+y,z
1/2+x,-y,z
loop_
_atom_site_type_symbol
_atom_site_label
_atom_site_fract_x
_atom_site_fract_y
_atom_site_fract_z
Si Si1 0.801193 0.566087 0.826440
Si Si2 0.054577 0.070762 0.205833
Si Si3 0.902480 0.067119 0.422658
Si Si4 0.362075 0.068710 0.292256
Si Si5 0.000000 0.934365 0.421990
Si Si6 0.114993 0.072997 0.074840
O O1 0.800328 0.750000 0.821761
O O2 0.750000 0.500000 0.847037
O O3 0.817773 0.500448 0.751064
O O4 0.837956 0.505705 0.886179
O O5 0.062553 0.250000 0.226825
O O6 0.068870 0.045935 0.124158
O O7 0.000000 0.018852 0.216161
O O8 0.087742 0.965910 0.254337
O O9 0.905046 0.250000 0.428109
O O10 0.892449 0.000000 0.500000
O O11 0.861190 0.011316 0.369436
O O12 0.951731 0.001380 0.387632
O O13 0.355076 0.250000 0.301269
O O14 0.000000 0.750000 0.420368
O O15 0.000000 0.000000 0.500000
O O16 0.124770 0.250000 0.060330
O O17 0.104814 0.000000 0.000000
#
# Coordination Sequence:
#
# PCOD8278275 Si02
#       6
#    16  16  16  16   8  16
#     4  10  21  39  60  83 109 140 178 222 276 331
#     4   9  19  36  54  74 106 148 190 228 272 322
#     4  11  21  35  53  76 108 146 184 227 276 323
#     4  11  22  36  55  81 110 142 183 229 274 327
#     4  10  18  30  46  70 102 138 179 220 263 316
#     4   9  19  34  53  79 111 144 180 223 269 324
#
# _framework density 19.133209999999998
#
# number of rings (size 3 to 8) (size 9 to 14) (size 15 to 20)
#    0.000    2.000    0.000    6.818    1.273    4.727 
#    0.000    1.818    0.000    0.545    0.000    3.818 
#    0.000    0.000    0.000    0.000    0.000    0.000 
#
# Total GULP energy -545554.421413 kJ/mol
# GULP energy per Si atom -12398.964123 kJ/mol
# Density = 1.908966 g / cm^3
# Si number density = 19.133210 Si / 1000 Ang^3
#
#
#
# Elastic Constant Matrix: (Units=GPa)
#
#
# Indices 1 2 3 4 5 6 
#
# 1 51.3351 6.2931 -8.5374 0.0000 0.0000 0.0000
# 2 6.2931 114.2512 21.2297 0.0000 0.0000 0.0000
# 3 -8.5374 21.2297 71.5340 0.0000 0.0000 0.0000
# 4 0.0000 0.0000 0.0000 34.6202 0.0000 0.0000
# 5 0.0000 0.0000 0.0000 0.0000 25.9636 0.0000
# 6 0.0000 0.0000 0.0000 0.0000 0.0000 28.5651
#
#
#
# Elastic Compliance Matrix: (Units=1/GPa)
#
#
# Indices 1 2 3 4 5 6 
#
# 1 0.020164 -0.001649 0.002896 0.000000 0.000000 0.000000
# 2 -0.001649 0.009398 -0.002986 0.000000 0.000000 0.000000
# 3 0.002896 -0.002986 0.015211 0.000000 0.000000 0.000000
# 4 0.000000 0.000000 0.000000 0.028885 0.000000 0.000000
# 5 0.000000 0.000000 0.000000 0.000000 0.038515 0.000000
# 6 0.000000 0.000000 0.000000 0.000000 0.000000 0.035008
#
#
# Mechanical properties :
#
#
# Convention : Reuss Voigt Hill
#
# Bulk Modulus (GPa) = 24.21594 30.56570 27.39082
# Shear Modulus (GPa) = 30.40920 32.37212 31.39066
#
# Velocity S-wave (km/s) = 3.99098 4.11777 4.05487
# Velocity P-wave (km/s) = 5.82419 6.21434 6.02242
#
# Compressibility (1/GPa) = 0.04129511
#
# Stress axis : x y z
#
# Youngs Moduli (GPa) = 49.59448 106.40221 65.74131
#
# Poissons Ratio (x) = 0.17543 -0.19037
# Poissons Ratio (y) = 0.08177 0.19630
# Poissons Ratio (z) = -0.14361 0.31771
#
# Static dielectric constant tensor:
#      x y z
#    x 2.668420 0.000000 0.000000 
#    y 0.000000 3.451660 0.000000 
#    z 0.000000 0.000000 3.651030 
# 
# 
# High freq. dielectric constant tensor:
#      x y z
#    x 1.722210 0.000000 0.000000 
#    y 0.000000 1.749630 0.000000 
#    z 0.000000 0.000000 1.747740 
# 
# From -- ./inp_files/36139.got.cif
#   From: 2010.03.12/outbox.cif.g09.slc.cpg/sg67_19_cif.got.tgz:36139.got - 2010.04.10 22:41:39.
