data_PCOD8278549
_publ_section_title
;
Structure prediction by ZEFSAII (Michael W. Deem and Ramdas Pophale) SiO2 
 PCOD8278549
Probable space group: C M M A
;
_chemical_formula_sum "Si O2"
_cell_formula_units_Z 80
_cell_length_a 25.960932
_cell_length_b 9.772848
_cell_length_c 17.544361
_cell_angle_alpha 90.000000
_cell_angle_beta 90.000000
_cell_angle_gamma 90.000000
_cell_volume 4451.219170
_symmetry_space_group_name_H-M "C M M A"
_symmetry_group_IT_number 67
_symmetry_cell_setting 'orthorhombic'
loop_
_space_group_symop_operation_xyz
x,y,z
-x,1/2-y,z
x,-y,-z
-x,1/2+y,-z
-x,-y,-z
x,1/2+y,-z
-x,y,z
x,1/2-y,z
1/2+x,1/2+y,z
1/2-x,-y,z
1/2+x,1/2-y,-z
1/2-x,y,-z
1/2-x,1/2-y,-z
1/2+x,y,-z
1/2-x,1/2+y,z
1/2+x,-y,z
loop_
_atom_site_type_symbol
_atom_site_label
_atom_site_fract_x
_atom_site_fract_y
_atom_site_fract_z
Si Si1 0.606130 0.250000 0.927122
Si Si2 0.346365 0.522518 0.272695
Si Si3 0.199750 0.250000 0.169378
Si Si4 0.698000 0.085462 0.570946
Si Si5 0.587471 0.750000 0.894879
Si Si6 0.314056 0.250000 0.204815
Si Si7 0.942429 0.523035 0.825315
O O1 0.668031 0.250000 0.910511
O O2 0.580567 0.381075 0.889785
O O3 0.593572 0.250000 0.015136
O O4 0.314587 0.617686 0.216917
O O5 0.341609 0.573328 0.359267
O O6 0.320488 0.375508 0.262413
O O7 0.406877 0.524018 0.250359
O O8 0.260823 0.250000 0.157686
O O9 0.707461 0.250000 0.554271
O O10 0.673514 0.000000 0.500000
O O11 0.750000 0.000000 0.590756
O O12 0.644686 0.750000 0.861921
O O13 0.555034 0.623145 0.865055
O O14 0.000000 0.567680 0.800928
#
# Coordination Sequence:
#
# PCOD8278549 Si02
#       7
#     8  16   8  16   8   8  16
#     4  10  21  33  52  78 105 135 174 226 269 330
#     4  10  21  34  53  77 105 139 180 220 256 312
#     4  10  18  34  50  74 105 139 181 212 261 314
#     4  11  22  35  55  84 117 146 175 209 255 311
#     4  10  21  35  50  78 107 133 178 222 277 322
#     4  10  20  32  52  74 103 147 177 216 261 316
#     4  10  21  37  55  76 101 136 181 226 273 315
#
# _framework density 17.972605000000001
#
# number of rings (size 3 to 8) (size 9 to 14) (size 15 to 20)
#    0.000    1.800    1.000    4.200    2.800    2.800 
#    0.000    0.000    0.000    7.800    0.000    0.000 
#    0.000    0.000    0.000    0.000    0.000    0.000 
#
# Total GULP energy -495739.634590 kJ/mol
# GULP energy per Si atom -12393.490865 kJ/mol
# Density = 1.793170 g / cm^3
# Si number density = 17.972605 Si / 1000 Ang^3
#
#
#
# Elastic Constant Matrix: (Units=GPa)
#
#
# Indices 1 2 3 4 5 6 
#
# 1 109.8012 12.1136 26.6972 0.0000 0.0000 0.0000
# 2 12.1136 125.4596 19.0615 0.0000 0.0000 0.0000
# 3 26.6972 19.0615 101.5846 0.0000 0.0000 0.0000
# 4 0.0000 0.0000 0.0000 24.1938 0.0000 0.0000
# 5 0.0000 0.0000 0.0000 0.0000 15.0774 0.0000
# 6 0.0000 0.0000 0.0000 0.0000 0.0000 -36.6505
#
#
#
# Elastic Compliance Matrix: (Units=1/GPa)
#
#
# Indices 1 2 3 4 5 6 
#
# 1 0.009768 -0.000569 -0.002460 0.000000 0.000000 0.000000
# 2 -0.000569 0.008238 -0.001396 0.000000 0.000000 0.000000
# 3 -0.002460 -0.001396 0.010753 0.000000 0.000000 0.000000
# 4 0.000000 0.000000 0.000000 0.041333 0.000000 0.000000
# 5 0.000000 0.000000 0.000000 0.000000 0.066325 0.000000
# 6 0.000000 0.000000 0.000000 0.000000 0.000000 -0.027285
#
#
# Mechanical properties :
#
#
# Convention : Reuss Voigt Hill
#
# Bulk Modulus (GPa) = 50.23342 50.28776 50.26059
# Shear Modulus (GPa) = 40.12230 19.12233 29.62231
#
# Velocity S-wave (km/s) = 4.72997 3.26540 4.06420
# Velocity P-wave (km/s) = 7.60531 6.50062 7.07456
#
# Compressibility (1/GPa) = 0.01990707
#
# Stress axis : x y z
#
# Youngs Moduli (GPa) = 102.37087 121.39188 93.00083
#
# Poissons Ratio (x) = 0.06912 0.22882
# Poissons Ratio (y) = 0.05829 0.12984
# Poissons Ratio (z) = 0.25187 0.16948
#
# Static dielectric constant tensor:
#      x y z
#    x 3.296580 0.000000 0.000000 
#    y 0.000000 3.714210 0.000000 
#    z 0.000000 0.000000 3.221810 
# 
# 
# High freq. dielectric constant tensor:
#      x y z
#    x 1.682730 0.000000 0.000000 
#    y 0.000000 1.725250 0.000000 
#    z 0.000000 0.000000 1.676840 
# 
# From -- ./inp_files/35829.got.cif
#   From: 2010.03.12/outbox.cif.g09.slc.cpg/sg67_18_cif.got.tgz:35829.got - 2010.04.10 22:41:39.
