data_PCOD8278349
_publ_section_title
;
Structure prediction by ZEFSAII (Michael W. Deem and Ramdas Pophale) SiO2 
 PCOD8278349
Probable space group: C M M A
;
_chemical_formula_sum "Si O2"
_cell_formula_units_Z 80
_cell_length_a 19.767040
_cell_length_b 15.412368
_cell_length_c 14.223113
_cell_angle_alpha 90.000000
_cell_angle_beta 90.000000
_cell_angle_gamma 90.000000
_cell_volume 4333.169440
_symmetry_space_group_name_H-M "C M M A"
_symmetry_group_IT_number 67
_symmetry_cell_setting 'orthorhombic'
loop_
_space_group_symop_operation_xyz
x,y,z
-x,1/2-y,z
x,-y,-z
-x,1/2+y,-z
-x,-y,-z
x,1/2+y,-z
-x,y,z
x,1/2-y,z
1/2+x,1/2+y,z
1/2-x,-y,z
1/2+x,1/2-y,-z
1/2-x,y,-z
1/2-x,1/2-y,-z
1/2+x,y,-z
1/2-x,1/2+y,z
1/2+x,-y,z
loop_
_atom_site_type_symbol
_atom_site_label
_atom_site_fract_x
_atom_site_fract_y
_atom_site_fract_z
Si Si1 0.181504 0.148477 0.449078
Si Si2 0.673832 0.250000 0.883166
Si Si3 0.077022 0.350838 0.608039
Si Si4 0.184718 0.402657 0.244334
Si Si5 0.833885 0.750000 0.092430
Si Si6 0.161752 0.405406 0.777942
O O1 0.190091 0.250000 0.426406
O O2 0.250000 0.113847 0.500000
O O3 0.117927 0.127450 0.514290
O O4 0.161638 0.098986 0.352879
O O5 0.649297 0.167252 0.823134
O O6 0.753395 0.250000 0.902267
O O7 0.638616 0.250000 0.985474
O O8 0.083220 0.250000 0.633015
O O9 0.108120 0.402764 0.694492
O O10 0.000000 0.379968 0.592285
O O11 0.167617 0.493534 0.192695
O O12 0.263718 0.377606 0.254722
O O13 0.861884 0.838944 0.140200
#
# Coordination Sequence:
#
# PCOD8278349 Si02
#       6
#    16   8  16  16   8  16
#     4  10  18  30  53  76 104 147 181 219 267 316
#     4   9  18  32  50  78 106 137 176 222 282 325
#     4  10  20  34  53  79 109 144 185 224 266 320
#     4  10  19  31  51  79 111 140 178 219 270 327
#     4   9  18  32  52  73 109 140 170 226 280 326
#     4  10  19  32  51  78 108 142 176 221 271 324
#
# _framework density 18.462236999999998
#
# number of rings (size 3 to 8) (size 9 to 14) (size 15 to 20)
#    0.000    2.200    4.000    0.000    0.000    1.600 
#    0.000    6.000    0.000    0.000    0.000    7.000 
#    0.000    0.000    0.000    0.000    0.000    0.000 
#
# Total GULP energy -495802.170825 kJ/mol
# GULP energy per Si atom -12395.054271 kJ/mol
# Density = 1.842022 g / cm^3
# Si number density = 18.462237 Si / 1000 Ang^3
#
#
#
# Elastic Constant Matrix: (Units=GPa)
#
#
# Indices 1 2 3 4 5 6 
#
# 1 72.7742 28.0677 27.9294 0.0000 0.0000 0.0000
# 2 28.0677 105.0826 68.9521 0.0000 0.0000 0.0000
# 3 27.9294 68.9521 140.4031 0.0000 0.0000 0.0000
# 4 0.0000 0.0000 0.0000 13.9463 0.0000 0.0000
# 5 0.0000 0.0000 0.0000 0.0000 12.9762 0.0000
# 6 0.0000 0.0000 0.0000 0.0000 0.0000 12.6122
#
#
#
# Elastic Compliance Matrix: (Units=1/GPa)
#
#
# Indices 1 2 3 4 5 6 
#
# 1 0.015546 -0.003133 -0.001554 0.000000 0.000000 0.000000
# 2 -0.003133 0.014672 -0.006582 0.000000 0.000000 0.000000
# 3 -0.001554 -0.006582 0.010664 0.000000 0.000000 0.000000
# 4 0.000000 0.000000 0.000000 0.071703 0.000000 0.000000
# 5 0.000000 0.000000 0.000000 0.000000 0.077064 0.000000
# 6 0.000000 0.000000 0.000000 0.000000 0.000000 0.079289
#
#
# Mechanical properties :
#
#
# Convention : Reuss Voigt Hill
#
# Bulk Modulus (GPa) = 54.51353 63.12871 58.82112
# Shear Modulus (GPa) = 16.80157 20.79430 18.79794
#
# Velocity S-wave (km/s) = 3.01998 3.35970 3.19436
# Velocity P-wave (km/s) = 6.46154 7.02266 6.74794
#
# Compressibility (1/GPa) = 0.01834407
#
# Stress axis : x y z
#
# Youngs Moduli (GPa) = 64.32643 68.15595 93.77260
#
# Poissons Ratio (x) = 0.21351 0.14572
# Poissons Ratio (y) = 0.20151 0.61725
# Poissons Ratio (z) = 0.09996 0.44863
#
# Static dielectric constant tensor:
#      x y z
#    x 2.997300 0.000000 0.000000 
#    y 0.000000 3.392910 0.000000 
#    z 0.000000 0.000000 3.427840 
# 
# 
# High freq. dielectric constant tensor:
#      x y z
#    x 1.662780 0.000000 0.000000 
#    y 0.000000 1.720010 0.000000 
#    z 0.000000 0.000000 1.711670 
# 
# From -- ./inp_files/29418.got.cif
#   From: 2010.03.12/outbox.cif.g09.slc.cpg/sg67_15_cif.got.tgz:29418.got - 2010.04.10 22:41:39.
