data_PCOD8278350
_publ_section_title
;
Structure prediction by ZEFSAII (Michael W. Deem and Ramdas Pophale) SiO2 
 PCOD8278350
Probable space group: C M M A
;
_chemical_formula_sum "Si O2"
_cell_formula_units_Z 112
_cell_length_a 15.620379
_cell_length_b 25.397634
_cell_length_c 15.995441
_cell_angle_alpha 90.000000
_cell_angle_beta 90.000000
_cell_angle_gamma 90.000000
_cell_volume 6345.722051
_symmetry_space_group_name_H-M "C M M A"
_symmetry_group_IT_number 67
_symmetry_cell_setting 'orthorhombic'
loop_
_space_group_symop_operation_xyz
x,y,z
-x,1/2-y,z
x,-y,-z
-x,1/2+y,-z
-x,-y,-z
x,1/2+y,-z
-x,y,z
x,1/2-y,z
1/2+x,1/2+y,z
1/2-x,-y,z
1/2+x,1/2-y,-z
1/2-x,y,-z
1/2-x,1/2-y,-z
1/2+x,y,-z
1/2-x,1/2+y,z
1/2+x,-y,z
loop_
_atom_site_type_symbol
_atom_site_label
_atom_site_fract_x
_atom_site_fract_y
_atom_site_fract_z
Si Si1 0.325052 0.461160 0.715009
Si Si2 0.407162 0.688400 0.843083
Si Si3 0.725260 0.114810 0.406199
Si Si4 0.753054 0.311649 0.733039
Si Si5 0.347779 0.189316 0.976417
Si Si6 0.398928 0.369173 0.812884
Si Si7 0.596672 0.028488 0.419366
O O1 0.250000 0.500000 0.749064
O O2 0.291256 0.421561 0.644293
O O3 0.368176 0.429275 0.792262
O O4 0.395519 0.495389 0.666182
O O5 0.500000 0.665872 0.812346
O O6 0.403842 0.750000 0.824396
O O7 0.325057 0.663197 0.795848
O O8 0.403303 0.678060 0.941820
O O9 0.750000 0.127362 0.500000
O O10 0.719934 0.170774 0.359600
O O11 0.634580 0.086137 0.406055
O O12 0.752458 0.250000 0.739067
O O13 0.657589 0.330814 0.755184
O O14 0.359346 0.250000 0.944582
O O15 0.380078 0.147261 0.908276
O O16 0.250000 0.179009 0.000000
O O17 0.500000 0.362978 0.792883
O O18 0.500000 0.038438 0.442866
O O19 0.641536 0.000000 0.500000
#
# Coordination Sequence:
#
# PCOD8278350 Si02
#       7
#    16  16  16  16  16  16  16
#     4   9  19  34  54  77 107 136 171 219 279 325
#     4   9  17  31  51  73 100 138 184 229 267 303
#     4  10  19  33  51  74 101 135 178 218 261 325
#     4  10  21  35  50  74 111 150 182 220 267 319
#     4  10  18  31  52  79 114 146 179 222 266 315
#     4  11  21  33  54  84 113 142 178 219 271 332
#     4  10  18  30  53  79 100 124 164 224 283 323
#
# _framework density 17.649685000000002
#
# number of rings (size 3 to 8) (size 9 to 14) (size 15 to 20)
#    0.000    2.143    2.857    1.286    0.000    2.571 
#    0.000    0.000    0.000    0.429    0.000    3.000 
#    0.000    0.000    0.000    0.000    0.000    0.000 
#
# Total GULP energy -693906.007555 kJ/mol
# GULP energy per Si atom -12391.178706 kJ/mol
# Density = 1.760951 g / cm^3
# Si number density = 17.649685 Si / 1000 Ang^3
#
#
#
# Elastic Constant Matrix: (Units=GPa)
#
#
# Indices 1 2 3 4 5 6 
#
# 1 124.8717 40.6474 48.2097 0.0000 0.0000 0.0000
# 2 40.6474 63.2792 46.0376 0.0000 0.0000 0.0000
# 3 48.2097 46.0376 97.7687 0.0000 0.0000 0.0000
# 4 0.0000 0.0000 0.0000 30.1768 0.0000 0.0000
# 5 0.0000 0.0000 0.0000 0.0000 17.3786 0.0000
# 6 0.0000 0.0000 0.0000 0.0000 0.0000 5.8489
#
#
#
# Elastic Compliance Matrix: (Units=1/GPa)
#
#
# Indices 1 2 3 4 5 6 
#
# 1 0.010711 -0.004621 -0.003106 0.000000 0.000000 0.000000
# 2 -0.004621 0.026031 -0.009979 0.000000 0.000000 0.000000
# 3 -0.003106 -0.009979 0.016459 0.000000 0.000000 0.000000
# 4 0.000000 0.000000 0.000000 0.033138 0.000000 0.000000
# 5 0.000000 0.000000 0.000000 0.000000 0.057542 0.000000
# 6 0.000000 0.000000 0.000000 0.000000 0.000000 0.170972
#
#
# Mechanical properties :
#
#
# Convention : Reuss Voigt Hill
#
# Bulk Modulus (GPa) = 56.21241 61.74546 58.97893
# Shear Modulus (GPa) = 14.03722 20.74918 17.39320
#
# Velocity S-wave (km/s) = 2.82321 3.43244 3.14262
# Velocity P-wave (km/s) = 6.52269 7.12521 6.83060
#
# Compressibility (1/GPa) = 0.01778967
#
# Stress axis : x y z
#
# Youngs Moduli (GPa) = 93.35763 38.41526 60.75778
#
# Poissons Ratio (x) = 0.17751 0.18871
# Poissons Ratio (y) = 0.43139 0.60631
# Poissons Ratio (z) = 0.28997 0.38335
#
# Static dielectric constant tensor:
#      x y z
#    x 3.422270 0.000000 0.000000 
#    y 0.000000 3.201500 0.000000 
#    z 0.000000 0.000000 3.430530 
# 
# 
# High freq. dielectric constant tensor:
#      x y z
#    x 1.691570 0.000000 0.000000 
#    y 0.000000 1.653550 0.000000 
#    z 0.000000 0.000000 1.673680 
# 
# From -- ./inp_files/27755.got.cif
#   From: 2010.03.12/outbox.cif.g09.slc.cpg/sg67_14_cif.got.tgz:27755.got - 2010.04.10 22:41:39.
