data_PCOD8278267
_publ_section_title
;
Structure prediction by ZEFSAII (Michael W. Deem and Ramdas Pophale) SiO2 
 PCOD8278267
Probable space group: C M M A
;
_chemical_formula_sum "Si O2"
_cell_formula_units_Z 112
_cell_length_a 15.419854
_cell_length_b 20.391938
_cell_length_c 19.690867
_cell_angle_alpha 90.000000
_cell_angle_beta 90.000000
_cell_angle_gamma 90.000000
_cell_volume 6191.610136
_symmetry_space_group_name_H-M "C M M A"
_symmetry_group_IT_number 67
_symmetry_cell_setting 'orthorhombic'
loop_
_space_group_symop_operation_xyz
x,y,z
-x,1/2-y,z
x,-y,-z
-x,1/2+y,-z
-x,-y,-z
x,1/2+y,-z
-x,y,z
x,1/2-y,z
1/2+x,1/2+y,z
1/2-x,-y,z
1/2+x,1/2-y,-z
1/2-x,y,-z
1/2-x,1/2-y,-z
1/2+x,y,-z
1/2-x,1/2+y,z
1/2+x,-y,z
loop_
_atom_site_type_symbol
_atom_site_label
_atom_site_fract_x
_atom_site_fract_y
_atom_site_fract_z
Si Si1 0.596684 0.610977 0.309905
Si Si2 0.253366 0.078110 0.076747
Si Si3 0.096990 0.063554 0.824235
Si Si4 0.602471 0.435252 0.458327
Si Si5 0.097610 0.907970 0.836977
Si Si6 0.344301 0.471550 0.316639
Si Si7 0.896382 0.823563 0.558389
O O1 0.500000 0.637762 0.305851
O O2 0.635461 0.620609 0.234335
O O3 0.592702 0.533693 0.327645
O O4 0.644466 0.652046 0.369315
O O5 0.338866 0.098090 0.120633
O O6 0.167491 0.112698 0.107134
O O7 0.250000 0.000000 0.078166
O O8 0.250000 0.104571 0.000000
O O9 0.128063 0.075262 0.746327
O O10 0.000000 0.092603 0.834837
O O11 0.095222 0.986052 0.834151
O O12 0.629682 0.500000 0.500000
O O13 0.500000 0.433606 0.445649
O O14 0.652059 0.430705 0.386375
O O15 0.636027 0.371638 0.499186
O O16 0.000000 0.882062 0.853766
O O17 0.250000 0.500000 0.300486
O O18 0.864220 0.750000 0.543062
O O19 0.000000 0.827906 0.562555
#
# Coordination Sequence:
#
# PCOD8278267 Si02
#       7
#    16  16  16  16  16  16  16
#     4   9  15  27  44  61  82 110 144 184 228 272
#     4   9  16  25  36  54  83 114 146 183 222 272
#     4   9  16  26  39  57  81 113 150 188 233 273
#     4  10  18  30  46  65  88 115 150 195 237 279
#     4   8  14  23  37  55  78 109 145 181 222 271
#     4  11  19  27  43  63  86 112 151 197 235 273
#     4   9  17  29  46  66  88 116 149 185 233 288
#
# _framework density 18.088994
#
# number of rings (size 3 to 8) (size 9 to 14) (size 15 to 20)
#    0.000    2.714    1.429    4.286    0.000    0.857 
#    0.000    2.857    0.000    1.714    0.000    0.000 
#    0.000    0.571    0.000    0.286    0.000   19.714 
#
# Total GULP energy -693788.023668 kJ/mol
# GULP energy per Si atom -12389.071851 kJ/mol
# Density = 1.804782 g / cm^3
# Si number density = 18.088994 Si / 1000 Ang^3
#
#
#
# Elastic Constant Matrix: (Units=GPa)
#
#
# Indices 1 2 3 4 5 6 
#
# 1 92.5983 9.0226 64.8507 0.0000 0.0000 0.0000
# 2 9.0226 54.6086 38.5162 0.0000 0.0000 0.0000
# 3 64.8507 38.5162 177.1062 0.0000 0.0000 0.0000
# 4 0.0000 0.0000 0.0000 10.1242 0.0000 0.0000
# 5 0.0000 0.0000 0.0000 0.0000 29.0108 0.0000
# 6 0.0000 0.0000 0.0000 0.0000 0.0000 2.2808
#
#
#
# Elastic Compliance Matrix: (Units=1/GPa)
#
#
# Indices 1 2 3 4 5 6 
#
# 1 0.014643 0.001609 -0.005712 0.000000 0.000000 0.000000
# 2 0.001609 0.021807 -0.005332 0.000000 0.000000 0.000000
# 3 -0.005712 -0.005332 0.008897 0.000000 0.000000 0.000000
# 4 0.000000 0.000000 0.000000 0.098773 0.000000 0.000000
# 5 0.000000 0.000000 0.000000 0.000000 0.034470 0.000000
# 6 0.000000 0.000000 0.000000 0.000000 0.000000 0.438446
#
#
# Mechanical properties :
#
#
# Convention : Reuss Voigt Hill
#
# Bulk Modulus (GPa) = 37.76654 61.01022 49.38838
# Shear Modulus (GPa) = 7.75518 22.41139 15.08328
#
# Velocity S-wave (km/s) = 2.07281 3.52369 2.89076
# Velocity P-wave (km/s) = 5.16258 7.09621 6.20518
#
# Compressibility (1/GPa) = 0.02647847
#
# Stress axis : x y z
#
# Youngs Moduli (GPa) = 68.29369 45.85730 112.39415
#
# Poissons Ratio (x) = -0.07379 0.64195
# Poissons Ratio (y) = -0.10990 0.59925
# Poissons Ratio (z) = 0.39007 0.24450
#
# Static dielectric constant tensor:
#      x y z
#    x 3.371790 0.000000 0.000000 
#    y 0.000000 2.795310 0.000000 
#    z 0.000000 0.000000 3.641680 
# 
# 
# High freq. dielectric constant tensor:
#      x y z
#    x 1.693380 0.000000 0.000000 
#    y 0.000000 1.614170 0.000000 
#    z 0.000000 0.000000 1.712400 
# 
# From -- ./inp_files/34438.got.cif
#   From: 2010.03.12/outbox.cif.g09.slc.cpg/sg67_18_cif.got.tgz:34438.got - 2010.04.10 22:41:39.
