data_PCOD8278363
_publ_section_title
;
Structure prediction by ZEFSAII (Michael W. Deem and Ramdas Pophale) SiO2 
 PCOD8278363
Probable space group: C M M A
;
_chemical_formula_sum "Si O2"
_cell_formula_units_Z 88
_cell_length_a 18.052844
_cell_length_b 8.749229
_cell_length_c 29.803410
_cell_angle_alpha 90.000000
_cell_angle_beta 90.000000
_cell_angle_gamma 90.000000
_cell_volume 4707.402899
_symmetry_space_group_name_H-M "C M M A"
_symmetry_group_IT_number 67
_symmetry_cell_setting 'orthorhombic'
loop_
_space_group_symop_operation_xyz
x,y,z
-x,1/2-y,z
x,-y,-z
-x,1/2+y,-z
-x,-y,-z
x,1/2+y,-z
-x,y,z
x,1/2-y,z
1/2+x,1/2+y,z
1/2-x,-y,z
1/2+x,1/2-y,-z
1/2-x,y,-z
1/2-x,1/2-y,-z
1/2+x,y,-z
1/2-x,1/2+y,z
1/2+x,-y,z
loop_
_atom_site_type_symbol
_atom_site_label
_atom_site_fract_x
_atom_site_fract_y
_atom_site_fract_z
Si Si1 0.418531 0.420191 0.878511
Si Si2 0.000000 0.427389 0.951595
Si Si3 0.085225 0.571008 0.452068
Si Si4 0.669640 0.067738 0.794047
Si Si5 0.587601 0.575484 0.711682
Si Si6 0.830092 0.568984 0.629812
O O1 0.500000 0.415031 0.855071
O O2 0.393973 0.250000 0.893083
O O3 0.425871 0.522063 0.923832
O O4 0.360333 0.487735 0.842732
O O5 0.000000 0.250000 0.958369
O O6 0.000000 0.500000 0.000000
O O7 0.103816 0.500000 0.500000
O O8 0.102547 0.750000 0.453062
O O9 0.138699 0.490243 0.417089
O O10 0.000000 0.539582 0.438775
O O11 0.670981 0.250000 0.790997
O O12 0.750000 0.000000 0.786056
O O13 0.615641 0.002480 0.756751
O O14 0.500000 0.569009 0.711511
O O15 0.616126 0.750000 0.708987
O O16 0.615803 0.482199 0.669190
O O17 0.824562 0.750000 0.628625
O O18 0.750000 0.500000 0.639315
#
# Coordination Sequence:
#
# PCOD8278363 Si02
#       6
#    16   8  16  16  16  16
#     4   8  17  34  53  77 109 145 187 231 279 331
#     4  10  18  30  54  84 114 146 188 238 285 334
#     4  10  21  39  63  90 119 150 188 234 283 338
#     4  11  22  37  57  82 116 153 190 234 284 339
#     4  11  24  41  61  85 114 148 190 237 283 338
#     4  12  25  41  61  85 116 152 191 234 286 343
#
# _framework density 18.693960000000001
#
# number of rings (size 3 to 8) (size 9 to 14) (size 15 to 20)
#    0.545    1.091    0.000    5.455    0.000    7.273 
#    0.000    1.818    0.000    0.545    0.000    3.818 
#    0.000    0.000    0.000    0.000    0.000    0.000 
#
# Total GULP energy -545543.666728 kJ/mol
# GULP energy per Si atom -12398.719698 kJ/mol
# Density = 1.865141 g / cm^3
# Si number density = 18.693960 Si / 1000 Ang^3
#
#
#
# Elastic Constant Matrix: (Units=GPa)
#
#
# Indices 1 2 3 4 5 6 
#
# 1 67.2945 38.2218 40.1501 0.0000 0.0000 0.0000
# 2 38.2218 139.4057 66.6262 0.0000 0.0000 0.0000
# 3 40.1501 66.6262 128.3774 0.0000 0.0000 0.0000
# 4 0.0000 0.0000 0.0000 35.6579 0.0000 0.0000
# 5 0.0000 0.0000 0.0000 0.0000 7.8719 0.0000
# 6 0.0000 0.0000 0.0000 0.0000 0.0000 26.9898
#
#
#
# Elastic Compliance Matrix: (Units=1/GPa)
#
#
# Indices 1 2 3 4 5 6 
#
# 1 0.019285 -0.003198 -0.004372 0.000000 0.000000 0.000000
# 2 -0.003198 0.010070 -0.004226 0.000000 0.000000 0.000000
# 3 -0.004372 -0.004226 0.011350 0.000000 0.000000 0.000000
# 4 0.000000 0.000000 0.000000 0.028044 0.000000 0.000000
# 5 0.000000 0.000000 0.000000 0.000000 0.127034 0.000000
# 6 0.000000 0.000000 0.000000 0.000000 0.000000 0.037051
#
#
# Mechanical properties :
#
#
# Convention : Reuss Voigt Hill
#
# Bulk Modulus (GPa) = 58.43383 69.45264 63.94323
# Shear Modulus (GPa) = 19.07455 26.77589 22.92522
#
# Velocity S-wave (km/s) = 3.19777 3.78872 3.50572
# Velocity P-wave (km/s) = 6.70525 7.50815 7.11803
#
# Compressibility (1/GPa) = 0.01711338
#
# Stress axis : x y z
#
# Youngs Moduli (GPa) = 51.85447 99.30636 88.10649
#
# Poissons Ratio (x) = 0.31760 0.38516
# Poissons Ratio (y) = 0.16584 0.37233
# Poissons Ratio (z) = 0.22668 0.41966
#
# Static dielectric constant tensor:
#      x y z
#    x 3.384360 0.000000 0.000000 
#    y 0.000000 3.608630 0.000000 
#    z 0.000000 0.000000 3.444330 
# 
# 
# High freq. dielectric constant tensor:
#      x y z
#    x 1.716480 0.000000 0.000000 
#    y 0.000000 1.740440 0.000000 
#    z 0.000000 0.000000 1.729650 
# 
# From -- ./inp_files/45270.got.cif
#   From: 2010.03.12/outbox.cif.g09.slc.cpg/sg67_23_cif.got.tgz:45270.got - 2010.04.10 22:41:39.
