data_PCOD8278329
_publ_section_title
;
Structure prediction by ZEFSAII (Michael W. Deem and Ramdas Pophale) SiO2 
 PCOD8278329
Probable space group: C M M A
;
_chemical_formula_sum "Si O2"
_cell_formula_units_Z 96
_cell_length_a 28.646950
_cell_length_b 8.887102
_cell_length_c 20.813135
_cell_angle_alpha 90.000000
_cell_angle_beta 90.000000
_cell_angle_gamma 90.000000
_cell_volume 5298.782044
_symmetry_space_group_name_H-M "C M M A"
_symmetry_group_IT_number 67
_symmetry_cell_setting 'orthorhombic'
loop_
_space_group_symop_operation_xyz
x,y,z
-x,1/2-y,z
x,-y,-z
-x,1/2+y,-z
-x,-y,-z
x,1/2+y,-z
-x,y,z
x,1/2-y,z
1/2+x,1/2+y,z
1/2-x,-y,z
1/2+x,1/2-y,-z
1/2-x,y,-z
1/2-x,1/2-y,-z
1/2+x,y,-z
1/2-x,1/2+y,z
1/2+x,-y,z
loop_
_atom_site_type_symbol
_atom_site_label
_atom_site_fract_x
_atom_site_fract_y
_atom_site_fract_z
Si Si1 0.945275 0.924247 0.816905
Si Si2 0.296270 0.573326 0.263344
Si Si3 0.604587 0.073807 0.690082
Si Si4 0.446244 0.927005 0.434678
Si Si5 0.203215 0.572534 0.125563
Si Si6 0.105706 0.426312 0.933388
O O1 0.931844 0.750000 0.826686
O O2 0.920059 0.992824 0.753724
O O3 0.000000 0.946902 0.807758
O O4 0.928346 0.014694 0.878476
O O5 0.288607 0.750000 0.253458
O O6 0.250000 0.500000 0.294995
O O7 0.340159 0.539325 0.309283
O O8 0.306200 0.499263 0.194783
O O9 0.593871 0.250000 0.689975
O O10 0.582825 0.004251 0.625173
O O11 0.500000 0.970824 0.423502
O O12 0.439246 0.750000 0.440638
O O13 0.426931 0.000000 0.500000
O O14 0.210027 0.750000 0.133362
O O15 0.250000 0.500000 0.094769
O O16 0.159514 0.531734 0.080870
O O17 0.098594 0.250000 0.938935
O O18 0.090405 0.500000 0.000000
#
# Coordination Sequence:
#
# PCOD8278329 Si02
#       6
#    16  16  16  16  16  16
#     4  10  20  36  58  80 101 131 174 219 262 309
#     4  10  18  30  51  77 105 135 168 210 257 307
#     4   9  17  31  54  80 105 137 173 211 255 306
#     4   9  17  31  51  77 109 141 174 210 252 304
#     4  10  20  34  53  77 103 133 167 210 261 312
#     4  11  24  39  55  75 103 137 173 214 263 315
#
# _framework density 18.117370000000001
#
# number of rings (size 3 to 8) (size 9 to 14) (size 15 to 20)
#    0.000    2.167    1.667    3.000    0.000    5.000 
#    0.000    4.167    0.000    2.500    0.000    3.500 
#    0.000    0.000    0.000    0.000    0.000    0.000 
#
# Total GULP energy -595215.305094 kJ/mol
# GULP energy per Si atom -12400.318856 kJ/mol
# Density = 1.807613 g / cm^3
# Si number density = 18.117370 Si / 1000 Ang^3
#
#
#
# Elastic Constant Matrix: (Units=GPa)
#
#
# Indices 1 2 3 4 5 6 
#
# 1 96.7354 36.9106 60.6501 0.0000 0.0000 0.0000
# 2 36.9106 59.9627 30.0425 0.0000 0.0000 0.0000
# 3 60.6501 30.0425 134.7152 0.0000 0.0000 0.0000
# 4 0.0000 0.0000 0.0000 23.7937 0.0000 0.0000
# 5 0.0000 0.0000 0.0000 0.0000 30.9124 0.0000
# 6 0.0000 0.0000 0.0000 0.0000 0.0000 23.6928
#
#
#
# Elastic Compliance Matrix: (Units=1/GPa)
#
#
# Indices 1 2 3 4 5 6 
#
# 1 0.016902 -0.007421 -0.005955 0.000000 0.000000 0.000000
# 2 -0.007421 0.022033 -0.001572 0.000000 0.000000 0.000000
# 3 -0.005955 -0.001572 0.010455 0.000000 0.000000 0.000000
# 4 0.000000 0.000000 0.000000 0.042028 0.000000 0.000000
# 5 0.000000 0.000000 0.000000 0.000000 0.032349 0.000000
# 6 0.000000 0.000000 0.000000 0.000000 0.000000 0.042207
#
#
# Mechanical properties :
#
#
# Convention : Reuss Voigt Hill
#
# Bulk Modulus (GPa) = 51.29900 60.73554 56.01727
# Shear Modulus (GPa) = 24.70738 26.60047 25.65392
#
# Velocity S-wave (km/s) = 3.69689 3.83591 3.76704
# Velocity P-wave (km/s) = 6.82634 7.29486 7.06449
#
# Compressibility (1/GPa) = 0.01949356
#
# Stress axis : x y z
#
# Youngs Moduli (GPa) = 59.16287 45.38654 95.65157
#
# Poissons Ratio (x) = 0.33682 0.56958
# Poissons Ratio (y) = 0.43905 0.15041
# Poissons Ratio (z) = 0.35230 0.07137
#
# Static dielectric constant tensor:
#      x y z
#    x 3.507400 0.000000 0.000000 
#    y 0.000000 3.259740 0.000000 
#    z 0.000000 0.000000 3.327170 
# 
# 
# High freq. dielectric constant tensor:
#      x y z
#    x 1.708600 0.000000 0.000000 
#    y 0.000000 1.690600 0.000000 
#    z 0.000000 0.000000 1.687320 
# 
# From -- ./inp_files/37200.got.cif
#   From: 2010.03.12/outbox.cif.g09.slc.cpg/sg67_19_cif.got.tgz:37200.got - 2010.04.10 22:41:39.
