data_PCOD8278404
_publ_section_title
;
Structure prediction by ZEFSAII (Michael W. Deem and Ramdas Pophale) SiO2 
 PCOD8278404
Probable space group: C M M A
;
_chemical_formula_sum "Si O2"
_cell_formula_units_Z 112
_cell_length_a 17.660223
_cell_length_b 18.806229
_cell_length_c 18.720271
_cell_angle_alpha 90.000000
_cell_angle_beta 90.000000
_cell_angle_gamma 90.000000
_cell_volume 6217.417550
_symmetry_space_group_name_H-M "C M M A"
_symmetry_group_IT_number 67
_symmetry_cell_setting 'orthorhombic'
loop_
_space_group_symop_operation_xyz
x,y,z
-x,1/2-y,z
x,-y,-z
-x,1/2+y,-z
-x,-y,-z
x,1/2+y,-z
-x,y,z
x,1/2-y,z
1/2+x,1/2+y,z
1/2-x,-y,z
1/2+x,1/2-y,-z
1/2-x,y,-z
1/2-x,1/2-y,-z
1/2+x,y,-z
1/2-x,1/2+y,z
1/2+x,-y,z
loop_
_atom_site_type_symbol
_atom_site_label
_atom_site_fract_x
_atom_site_fract_y
_atom_site_fract_z
Si Si1 0.203802 0.926974 0.852433
Si Si2 0.910032 0.024125 0.576347
Si Si3 0.331295 0.484283 0.711201
Si Si4 0.587131 0.174259 0.376781
Si Si5 0.914746 0.615170 0.227602
Si Si6 0.664432 0.332592 0.094026
Si Si7 0.086021 0.579347 0.972041
O O1 0.255603 0.861350 0.876798
O O2 0.250000 0.000000 0.866576
O O3 0.178932 0.919759 0.768193
O O4 0.125356 0.923434 0.895108
O O5 0.885267 0.972438 0.642180
O O6 0.875938 0.103606 0.588614
O O7 0.000000 0.024138 0.576732
O O8 0.877646 0.000000 0.500000
O O9 0.250000 0.500000 0.676516
O O10 0.358854 0.549025 0.761544
O O11 0.500000 0.175008 0.399820
O O12 0.624203 0.250000 0.401918
O O13 0.595588 0.171063 0.291532
O O14 0.899002 0.655590 0.154249
O O15 0.000000 0.584806 0.226575
O O16 0.674000 0.250000 0.076178
O O17 0.637335 0.371679 0.022653
O O18 0.000000 0.609306 0.965329
O O19 0.083523 0.500000 0.000000
#
# Coordination Sequence:
#
# PCOD8278404 Si02
#       7
#    16  16  16  16  16  16  16
#     4  11  21  39  58  77 109 148 189 231 274 339
#     4   9  18  31  50  81 115 143 180 231 277 324
#     4  10  18  33  55  79 104 146 192 221 266 334
#     4   8  14  25  44  71 104 139 168 204 265 331
#     4  10  18  31  52  81 113 141 175 227 282 332
#     4  12  24  37  57  85 112 147 185 236 297 345
#     4  11  23  37  57  81 108 145 188 230 278 337
#
# _framework density 18.013909999999999
#
# number of rings (size 3 to 8) (size 9 to 14) (size 15 to 20)
#    0.000    1.857    4.286    2.571    0.000    5.429 
#    0.000    0.000    0.000    0.857    0.000    2.000 
#    0.000    0.000    0.000    0.000    0.000    0.000 
#
# Total GULP energy -693908.505117 kJ/mol
# GULP energy per Si atom -12391.223306 kJ/mol
# Density = 1.797291 g / cm^3
# Si number density = 18.013910 Si / 1000 Ang^3
#
#
#
# Elastic Constant Matrix: (Units=GPa)
#
#
# Indices 1 2 3 4 5 6 
#
# 1 66.4385 28.6331 32.9612 0.0000 0.0000 0.0000
# 2 28.6331 70.7265 32.0539 0.0000 0.0000 0.0000
# 3 32.9612 32.0539 130.7086 0.0000 0.0000 0.0000
# 4 0.0000 0.0000 0.0000 11.8175 0.0000 0.0000
# 5 0.0000 0.0000 0.0000 0.0000 32.5932 0.0000
# 6 0.0000 0.0000 0.0000 0.0000 0.0000 17.1184
#
#
#
# Elastic Compliance Matrix: (Units=1/GPa)
#
#
# Indices 1 2 3 4 5 6 
#
# 1 0.019452 -0.006359 -0.003346 0.000000 0.000000 0.000000
# 2 -0.006359 0.017985 -0.002807 0.000000 0.000000 0.000000
# 3 -0.003346 -0.002807 0.009183 0.000000 0.000000 0.000000
# 4 0.000000 0.000000 0.000000 0.084621 0.000000 0.000000
# 5 0.000000 0.000000 0.000000 0.000000 0.030681 0.000000
# 6 0.000000 0.000000 0.000000 0.000000 0.000000 0.058417
#
#
# Mechanical properties :
#
#
# Convention : Reuss Voigt Hill
#
# Bulk Modulus (GPa) = 46.30311 50.57443 48.43877
# Shear Modulus (GPa) = 19.79723 23.92083 21.85903
#
# Velocity S-wave (km/s) = 3.31871 3.64800 3.48724
# Velocity P-wave (km/s) = 6.35964 6.77348 6.56982
#
# Compressibility (1/GPa) = 0.02159682
#
# Stress axis : x y z
#
# Youngs Moduli (GPa) = 51.40904 55.60066 108.89973
#
# Poissons Ratio (x) = 0.35354 0.36437
# Poissons Ratio (y) = 0.32689 0.30570
# Poissons Ratio (z) = 0.17201 0.15608
#
# Static dielectric constant tensor:
#      x y z
#    x 3.367800 0.000000 0.000000 
#    y 0.000000 3.307020 0.000000 
#    z 0.000000 0.000000 3.440940 
# 
# 
# High freq. dielectric constant tensor:
#      x y z
#    x 1.689990 0.000000 0.000000 
#    y 0.000000 1.668150 0.000000 
#    z 0.000000 0.000000 1.695080 
# 
# From -- ./inp_files/34459.got.cif
#   From: 2010.03.12/outbox.cif.g09.slc.cpg/sg67_18_cif.got.tgz:34459.got - 2010.04.10 22:41:39.
