data_PCOD8278438
_publ_section_title
;
Structure prediction by ZEFSAII (Michael W. Deem and Ramdas Pophale) SiO2 
 PCOD8278438
Probable space group: C M M A
;
_chemical_formula_sum "Si O2"
_cell_formula_units_Z 72
_cell_length_a 30.553912
_cell_length_b 8.546030
_cell_length_c 14.487685
_cell_angle_alpha 90.000000
_cell_angle_beta 90.000000
_cell_angle_gamma 90.000000
_cell_volume 3782.946777
_symmetry_space_group_name_H-M "C M M A"
_symmetry_group_IT_number 67
_symmetry_cell_setting 'orthorhombic'
loop_
_space_group_symop_operation_xyz
x,y,z
-x,1/2-y,z
x,-y,-z
-x,1/2+y,-z
-x,-y,-z
x,1/2+y,-z
-x,y,z
x,1/2-y,z
1/2+x,1/2+y,z
1/2-x,-y,z
1/2+x,1/2-y,-z
1/2-x,y,-z
1/2-x,1/2-y,-z
1/2+x,y,-z
1/2-x,1/2+y,z
1/2+x,-y,z
loop_
_atom_site_type_symbol
_atom_site_label
_atom_site_fract_x
_atom_site_fract_y
_atom_site_fract_z
Si Si1 0.951055 0.934877 0.599538
Si Si2 0.589772 0.434930 0.102146
Si Si3 0.202103 0.064539 0.597803
Si Si4 0.628235 0.064179 0.725289
Si Si5 0.500000 0.435859 0.897464
O O1 0.949642 0.750000 0.593891
O O2 0.915145 0.995924 0.671888
O O3 0.000000 0.991200 0.629175
O O4 0.938216 0.000000 0.500000
O O5 0.588575 0.250000 0.096432
O O6 0.627408 0.496054 0.170681
O O7 0.544416 0.499349 0.147629
O O8 0.598528 0.500000 0.000000
O O9 0.203360 0.250000 0.593521
O O10 0.184654 0.000000 0.500000
O O11 0.250000 0.000000 0.619650
O O12 0.170875 0.006581 0.678512
O O13 0.631501 0.250000 0.727615
O O14 0.500000 0.250000 0.892478
O O15 0.500000 0.500000 0.000000
#
# Coordination Sequence:
#
# PCOD8278438 Si02
#       5
#    16  16  16  16   8
#     4   9  19  34  51  74 107 148 187 226 271 326
#     4  11  22  37  55  80 111 149 194 242 292 342
#     4  11  22  39  62  89 119 150 188 236 290 347
#     4  11  22  36  57  84 114 150 192 237 287 343
#     4  10  18  32  52  74 103 142 187 238 288 336
#
# _framework density 19.032781
#
# number of rings (size 3 to 8) (size 9 to 14) (size 15 to 20)
#    0.000    1.556    0.000    8.333    1.556    3.556 
#    0.000    0.000    0.000    0.667    0.000    4.667 
#    0.000    0.000    0.000    0.000    0.000    0.000 
#
# Total GULP energy -446418.623077 kJ/mol
# GULP energy per Si atom -12400.517308 kJ/mol
# Density = 1.898946 g / cm^3
# Si number density = 19.032781 Si / 1000 Ang^3
#
#
#
# Elastic Constant Matrix: (Units=GPa)
#
#
# Indices 1 2 3 4 5 6 
#
# 1 93.0580 49.6432 72.5163 0.0000 0.0000 0.0000
# 2 49.6432 150.1365 52.5071 0.0000 0.0000 0.0000
# 3 72.5163 52.5071 118.9803 0.0000 0.0000 0.0000
# 4 0.0000 0.0000 0.0000 32.1372 0.0000 0.0000
# 5 0.0000 0.0000 0.0000 0.0000 30.1112 0.0000
# 6 0.0000 0.0000 0.0000 0.0000 0.0000 29.7480
#
#
#
# Elastic Compliance Matrix: (Units=1/GPa)
#
#
# Indices 1 2 3 4 5 6 
#
# 1 0.021547 -0.002994 -0.011811 0.000000 0.000000 0.000000
# 2 -0.002994 0.008292 -0.001835 0.000000 0.000000 0.000000
# 3 -0.011811 -0.001835 0.016413 0.000000 0.000000 0.000000
# 4 0.000000 0.000000 0.000000 0.031117 0.000000 0.000000
# 5 0.000000 0.000000 0.000000 0.000000 0.033210 0.000000
# 6 0.000000 0.000000 0.000000 0.000000 0.000000 0.033616
#
#
# Mechanical properties :
#
#
# Convention : Reuss Voigt Hill
#
# Bulk Modulus (GPa) = 77.08498 79.05644 78.07071
# Shear Modulus (GPa) = 27.50279 30.89981 29.20130
#
# Velocity S-wave (km/s) = 3.80547 4.03365 3.92122
# Velocity P-wave (km/s) = 7.73937 7.95744 7.84916
#
# Compressibility (1/GPa) = 0.01297270
#
# Stress axis : x y z
#
# Youngs Moduli (GPa) = 46.40953 120.59542 60.92625
#
# Poissons Ratio (x) = 0.36105 0.71963
# Poissons Ratio (y) = 0.13894 0.11178
# Poissons Ratio (z) = 0.54816 0.22126
#
# Static dielectric constant tensor:
#      x y z
#    x 3.706030 0.000000 0.000000 
#    y 0.000000 3.545150 0.000000 
#    z 0.000000 0.000000 3.467120 
# 
# 
# High freq. dielectric constant tensor:
#      x y z
#    x 1.725520 0.000000 0.000000 
#    y 0.000000 1.753710 0.000000 
#    z 0.000000 0.000000 1.738120 
# 
# From -- ./inp_files/25330.got.cif
#   From: 2010.03.12/outbox.cif.g09.slc.cpg/sg67_13_cif.got.tgz:25330.got - 2010.04.10 22:41:39.
