data_PCOD8278791
_publ_section_title
;
Structure prediction by ZEFSAII (Michael W. Deem and Ramdas Pophale) SiO2 
 PCOD8278791
Probable space group: C M M A
;
_chemical_formula_sum "Si O2"
_cell_formula_units_Z 88
_cell_length_a 28.807719
_cell_length_b 13.815717
_cell_length_c 12.382810
_cell_angle_alpha 90.000000
_cell_angle_beta 90.000000
_cell_angle_gamma 90.000000
_cell_volume 4928.349627
_symmetry_space_group_name_H-M "C M M A"
_symmetry_group_IT_number 67
_symmetry_cell_setting 'orthorhombic'
loop_
_space_group_symop_operation_xyz
x,y,z
-x,1/2-y,z
x,-y,-z
-x,1/2+y,-z
-x,-y,-z
x,1/2+y,-z
-x,y,z
x,1/2-y,z
1/2+x,1/2+y,z
1/2-x,-y,z
1/2+x,1/2-y,-z
1/2-x,y,-z
1/2-x,1/2-y,-z
1/2+x,y,-z
1/2-x,1/2+y,z
1/2+x,-y,z
loop_
_atom_site_type_symbol
_atom_site_label
_atom_site_fract_x
_atom_site_fract_y
_atom_site_fract_z
Si Si1 0.909536 0.526779 0.164829
Si Si2 0.326197 0.504826 0.305854
Si Si3 0.553894 0.641067 0.633183
Si Si4 0.753634 0.362332 0.626767
Si Si5 0.891306 0.500000 0.500000
Si Si6 0.053992 0.138532 0.032655
O O1 0.855402 0.505849 0.194650
O O2 0.936096 0.576570 0.262723
O O3 0.934515 0.424440 0.138902
O O4 0.913267 0.599208 0.063299
O O5 0.286568 0.586769 0.302341
O O6 0.303229 0.400771 0.332073
O O7 0.360955 0.535722 0.400082
O O8 0.500000 0.643681 0.609309
O O9 0.573100 0.750000 0.650469
O O10 0.578004 0.593354 0.529592
O O11 0.750322 0.250000 0.649839
O O12 0.750000 0.387987 0.500000
O O13 0.065879 0.250000 0.056476
O O14 0.000000 0.125667 0.000203
#
# Coordination Sequence:
#
# PCOD8278791 Si02
#       6
#    16  16  16  16   8  16
#     4  10  20  33  56  79 106 136 174 226 266 313
#     4  10  19  34  50  77 108 131 173 216 258 313
#     4  10  20  33  49  71 102 142 181 214 257 314
#     4  10  19  33  55  75 103 141 174 214 264 313
#     4  10  19  31  48  72 106 136 170 217 255 302
#     4  10  20  36  57  81 108 139 178 223 272 318
#
# _framework density 17.855875999999999
#
# number of rings (size 3 to 8) (size 9 to 14) (size 15 to 20)
#    0.000    2.000    1.818    3.545    0.000    6.545 
#    0.000    2.727    0.000   18.545    0.000   10.182 
#    0.000    0.000    0.000    0.000    0.000    0.000 
#
# Total GULP energy -545531.262098 kJ/mol
# GULP energy per Si atom -12398.437775 kJ/mol
# Density = 1.781523 g / cm^3
# Si number density = 17.855876 Si / 1000 Ang^3
#
#
#
# Elastic Constant Matrix: (Units=GPa)
#
#
# Indices 1 2 3 4 5 6 
#
# 1 98.3894 57.8397 49.4850 0.0000 0.0000 0.0000
# 2 57.8397 161.0702 54.0018 0.0000 0.0000 0.0000
# 3 49.4850 54.0018 76.8933 0.0000 0.0000 0.0000
# 4 0.0000 0.0000 0.0000 25.7075 0.0000 0.0000
# 5 0.0000 0.0000 0.0000 0.0000 37.2128 0.0000
# 6 0.0000 0.0000 0.0000 0.0000 0.0000 18.0912
#
#
#
# Elastic Compliance Matrix: (Units=1/GPa)
#
#
# Indices 1 2 3 4 5 6 
#
# 1 0.016073 -0.003013 -0.008228 0.000000 0.000000 0.000000
# 2 -0.003013 0.008685 -0.004160 0.000000 0.000000 0.000000
# 3 -0.008228 -0.004160 0.021222 0.000000 0.000000 0.000000
# 4 0.000000 0.000000 0.000000 0.038899 0.000000 0.000000
# 5 0.000000 0.000000 0.000000 0.000000 0.026872 0.000000
# 6 0.000000 0.000000 0.000000 0.000000 0.000000 0.055275
#
#
# Mechanical properties :
#
#
# Convention : Reuss Voigt Hill
#
# Bulk Modulus (GPa) = 65.88718 73.22288 69.55503
# Shear Modulus (GPa) = 24.64388 27.87072 26.25730
#
# Velocity S-wave (km/s) = 3.71907 3.95507 3.83889
# Velocity P-wave (km/s) = 7.44457 7.87106 7.66078
#
# Compressibility (1/GPa) = 0.01517746
#
# Stress axis : x y z
#
# Youngs Moduli (GPa) = 62.21493 115.13521 47.12099
#
# Poissons Ratio (x) = 0.34694 0.38770
# Poissons Ratio (y) = 0.18748 0.19605
# Poissons Ratio (z) = 0.51189 0.47902
#
# Static dielectric constant tensor:
#      x y z
#    x 3.456690 0.000000 0.000000 
#    y 0.000000 3.451150 0.000000 
#    z 0.000000 0.000000 3.241570 
# 
# 
# High freq. dielectric constant tensor:
#      x y z
#    x 1.694060 0.000000 0.000000 
#    y 0.000000 1.700390 0.000000 
#    z 0.000000 0.000000 1.665900 
# 
# From -- ./inp_files/22836.got.cif
#   From: 2010.03.12/outbox.cif.g09.slc.cpg/sg67_12_cif.got.tgz:22836.got - 2010.04.10 22:41:39.
