data_PCOD8278258
_publ_section_title
;
Structure prediction by ZEFSAII (Michael W. Deem and Ramdas Pophale) SiO2 
 PCOD8278258
Probable space group: C M M A
;
_chemical_formula_sum "Si O2"
_cell_formula_units_Z 104
_cell_length_a 25.540448
_cell_length_b 9.030595
_cell_length_c 30.260216
_cell_angle_alpha 90.000000
_cell_angle_beta 90.000000
_cell_angle_gamma 90.000000
_cell_volume 6979.380895
_symmetry_space_group_name_H-M "C M M A"
_symmetry_group_IT_number 67
_symmetry_cell_setting 'orthorhombic'
loop_
_space_group_symop_operation_xyz
x,y,z
-x,1/2-y,z
x,-y,-z
-x,1/2+y,-z
-x,-y,-z
x,1/2+y,-z
-x,y,z
x,1/2-y,z
1/2+x,1/2+y,z
1/2-x,-y,z
1/2+x,1/2-y,-z
1/2-x,y,-z
1/2-x,1/2-y,-z
1/2+x,y,-z
1/2-x,1/2+y,z
1/2+x,-y,z
loop_
_atom_site_type_symbol
_atom_site_label
_atom_site_fract_x
_atom_site_fract_y
_atom_site_fract_z
Si Si1 0.597458 0.424545 0.396768
Si Si2 0.562362 0.583182 0.216186
Si Si3 0.061329 0.921868 0.303528
Si Si4 0.695890 0.426977 0.453712
Si Si5 0.500000 0.573375 0.547168
Si Si6 0.937550 0.583010 0.129937
Si Si7 0.062426 0.582963 0.956690
O O1 0.590535 0.250000 0.395123
O O2 0.592077 0.483650 0.346566
O O3 0.653197 0.470451 0.416996
O O4 0.550948 0.487134 0.427148
O O5 0.500000 0.578226 0.215628
O O6 0.583465 0.750000 0.213817
O O7 0.583124 0.509224 0.261158
O O8 0.584576 0.495613 0.173867
O O9 0.072517 0.750000 0.294882
O O10 0.000000 0.949993 0.311480
O O11 0.678646 0.500000 0.500000
O O12 0.701592 0.250000 0.459452
O O13 0.750000 0.500000 0.437650
O O14 0.500000 0.750000 0.542238
O O15 0.500000 0.500000 0.500000
O O16 0.916261 0.750000 0.128831
O O17 0.915930 0.498308 0.086910
O O18 0.000000 0.580788 0.130088
O O19 0.083843 0.750000 0.956952
O O20 0.000000 0.581586 0.956726
O O21 0.084113 0.500000 0.000000
#
# Coordination Sequence:
#
# PCOD8278258 Si02
#       7
#    16  16  16  16   8  16  16
#     4   9  17  29  46  63  81 104 130 157 189 229
#     4   9  16  24  33  47  67  88 110 141 178 216
#     4   9  15  26  42  56  71  95 123 148 178 222
#     4  10  19  32  48  65  83 105 132 161 191 225
#     4  10  18  30  44  62  84 106 128 154 187 228
#     4   9  15  22  31  42  55  76 108 141 174 217
#     4   9  15  21  28  38  53  73  98 134 180 226
#
# _framework density 14.901035
#
# number of rings (size 3 to 8) (size 9 to 14) (size 15 to 20)
#    0.000    2.769    0.769    2.769    0.000    5.538 
#    0.000    3.077    0.000    0.000    0.000    0.000 
#    0.000    0.000    0.000    0.000    0.000    0.000 
#
# Total GULP energy -644643.294337 kJ/mol
# GULP energy per Si atom -12396.986430 kJ/mol
# Density = 1.486712 g / cm^3
# Si number density = 14.901035 Si / 1000 Ang^3
#
#
#
# Elastic Constant Matrix: (Units=GPa)
#
#
# Indices 1 2 3 4 5 6 
#
# 1 39.2968 24.0459 39.1444 0.0000 0.0000 0.0000
# 2 24.0459 103.0355 71.1025 0.0000 0.0000 0.0000
# 3 39.1444 71.1025 167.7588 0.0000 0.0000 0.0000
# 4 0.0000 0.0000 0.0000 28.7434 0.0000 0.0000
# 5 0.0000 0.0000 0.0000 0.0000 8.0824 0.0000
# 6 0.0000 0.0000 0.0000 0.0000 0.0000 8.6304
#
#
#
# Elastic Compliance Matrix: (Units=1/GPa)
#
#
# Indices 1 2 3 4 5 6 
#
# 1 0.034013 -0.003478 -0.006462 0.000000 0.000000 0.000000
# 2 -0.003478 0.014073 -0.005153 0.000000 0.000000 0.000000
# 3 -0.006462 -0.005153 0.009653 0.000000 0.000000 0.000000
# 4 0.000000 0.000000 0.000000 0.034791 0.000000 0.000000
# 5 0.000000 0.000000 0.000000 0.000000 0.123726 0.000000
# 6 0.000000 0.000000 0.000000 0.000000 0.000000 0.115870
#
#
# Mechanical properties :
#
#
# Convention : Reuss Voigt Hill
#
# Bulk Modulus (GPa) = 36.29542 64.29740 50.29641
# Shear Modulus (GPa) = 13.45905 20.81111 17.13508
#
# Velocity S-wave (km/s) = 3.00864 3.74119 3.39473
# Velocity P-wave (km/s) = 6.03985 7.86799 7.01374
#
# Compressibility (1/GPa) = 0.02755168
#
# Stress axis : x y z
#
# Youngs Moduli (GPa) = 29.40056 71.05705 103.59561
#
# Poissons Ratio (x) = 0.24716 0.66946
# Poissons Ratio (y) = 0.10226 0.53384
# Poissons Ratio (z) = 0.18999 0.36617
#
# Static dielectric constant tensor:
#      x y z
#    x 2.378420 0.000000 0.000000 
#    y 0.000000 2.924610 0.000000 
#    z 0.000000 0.000000 3.113840 
# 
# 
# High freq. dielectric constant tensor:
#      x y z
#    x 1.489380 0.000000 0.000000 
#    y 0.000000 1.573850 0.000000 
#    z 0.000000 0.000000 1.586160 
# 
# From -- ./inp_files/46030.got.cif
#   From: 2010.03.12/outbox.cif.g09.slc.cpg/sg67_24_cif.got.tgz:46030.got - 2010.04.10 22:41:39.
