data_PCOD8278318
_publ_section_title
;
Structure prediction by ZEFSAII (Michael W. Deem and Ramdas Pophale) SiO2 
 PCOD8278318
Probable space group: C M M A
;
_chemical_formula_sum "Si O2"
_cell_formula_units_Z 88
_cell_length_a 19.275907
_cell_length_b 8.865042
_cell_length_c 24.806268
_cell_angle_alpha 90.000000
_cell_angle_beta 90.000000
_cell_angle_gamma 90.000000
_cell_volume 4238.937870
_symmetry_space_group_name_H-M "C M M A"
_symmetry_group_IT_number 67
_symmetry_cell_setting 'orthorhombic'
loop_
_space_group_symop_operation_xyz
x,y,z
-x,1/2-y,z
x,-y,-z
-x,1/2+y,-z
-x,-y,-z
x,1/2+y,-z
-x,y,z
x,1/2-y,z
1/2+x,1/2+y,z
1/2-x,-y,z
1/2+x,1/2-y,-z
1/2-x,y,-z
1/2-x,1/2-y,-z
1/2+x,y,-z
1/2-x,1/2+y,z
1/2+x,-y,z
loop_
_atom_site_type_symbol
_atom_site_label
_atom_site_fract_x
_atom_site_fract_y
_atom_site_fract_z
Si Si1 0.077273 0.428428 0.246232
Si Si2 0.921174 0.927093 0.058062
Si Si3 0.683165 0.078998 0.669498
Si Si4 0.634962 0.077492 0.555603
Si Si5 0.000000 0.928473 0.441142
Si Si6 0.173674 0.570248 0.852432
O O1 0.068794 0.250000 0.244792
O O2 0.113036 0.483996 0.302508
O O3 0.126713 0.482923 0.197966
O O4 0.000000 0.501674 0.242440
O O5 0.904723 0.750000 0.055015
O O6 0.000000 0.954990 0.079212
O O7 0.865132 0.008419 0.095255
O O8 0.912143 0.000000 0.000000
O O9 0.689217 0.250000 0.687862
O O10 0.688997 0.065287 0.604272
O O11 0.750000 0.000000 0.694664
O O12 0.616838 0.250000 0.540954
O O13 0.661478 0.000000 0.500000
O O14 0.569867 0.994076 0.584216
O O15 0.000000 0.750000 0.440584
O O16 0.000000 0.000000 0.500000
O O17 0.180172 0.750000 0.855840
O O18 0.250000 0.500000 0.847295
#
# Coordination Sequence:
#
# PCOD8278318 Si02
#       6
#    16  16  16  16   8  16
#     4   9  19  37  62  88 112 146 194 242 290 350
#     4  10  21  38  61  90 125 164 206 252 298 347
#     4  10  22  38  59  83 112 150 188 234 287 344
#     4  10  20  34  54  80 109 148 187 229 282 341
#     4  10  18  30  50  76 106 138 174 222 271 322
#     4  11  22  37  60  89 122 160 200 245 298 354
#
# _framework density 20.759917999999999
#
# number of rings (size 3 to 8) (size 9 to 14) (size 15 to 20)
#    0.000    2.000    0.000    4.636    1.273    4.000 
#    0.000    4.545    0.000    2.182    0.000    0.000 
#    0.000    0.000    0.000    0.000    0.000    0.000 
#
# Total GULP energy -545209.863515 kJ/mol
# GULP energy per Si atom -12391.133262 kJ/mol
# Density = 2.071267 g / cm^3
# Si number density = 20.759918 Si / 1000 Ang^3
#
#
#
# Elastic Constant Matrix: (Units=GPa)
#
#
# Indices 1 2 3 4 5 6 
#
# 1 167.9175 54.3182 66.0304 0.0000 0.0000 0.0000
# 2 54.3182 109.0574 40.2341 0.0000 0.0000 0.0000
# 3 66.0304 40.2341 111.5549 0.0000 0.0000 0.0000
# 4 0.0000 0.0000 0.0000 17.9924 0.0000 0.0000
# 5 0.0000 0.0000 0.0000 0.0000 27.1494 0.0000
# 6 0.0000 0.0000 0.0000 0.0000 0.0000 32.5587
#
#
#
# Elastic Compliance Matrix: (Units=1/GPa)
#
#
# Indices 1 2 3 4 5 6 
#
# 1 0.008404 -0.002711 -0.003996 0.000000 0.000000 0.000000
# 2 -0.002711 0.011452 -0.002525 0.000000 0.000000 0.000000
# 3 -0.003996 -0.002525 0.012241 0.000000 0.000000 0.000000
# 4 0.000000 0.000000 0.000000 0.055579 0.000000 0.000000
# 5 0.000000 0.000000 0.000000 0.000000 0.036833 0.000000
# 6 0.000000 0.000000 0.000000 0.000000 0.000000 0.030714
#
#
# Mechanical properties :
#
#
# Convention : Reuss Voigt Hill
#
# Bulk Modulus (GPa) = 73.36884 78.85502 76.11193
# Shear Modulus (GPa) = 28.05337 30.73656 29.39497
#
# Velocity S-wave (km/s) = 3.68002 3.85200 3.76699
# Velocity P-wave (km/s) = 7.31267 7.60595 7.46075
#
# Compressibility (1/GPa) = 0.01362977
#
# Stress axis : x y z
#
# Youngs Moduli (GPa) = 118.99222 87.32425 81.69565
#
# Poissons Ratio (x) = 0.23677 0.32649
# Poissons Ratio (y) = 0.32263 0.20631
# Poissons Ratio (z) = 0.47555 0.22052
#
# Static dielectric constant tensor:
#      x y z
#    x -5.387390 0.000000 0.000000 
#    y 0.000000 3.652230 0.000000 
#    z 0.000000 0.000000 3.660030 
# 
# 
# High freq. dielectric constant tensor:
#      x y z
#    x 1.821760 0.000000 0.000000 
#    y 0.000000 1.798740 0.000000 
#    z 0.000000 0.000000 1.811920 
# 
# From -- ./inp_files/42387.got.cif
#   From: 2010.03.12/outbox.cif.g09.slc.cpg/sg67_22_cif.got.tgz:42387.got - 2010.04.10 22:41:39.
