data_PCOD8278340
_publ_section_title
;
Structure prediction by ZEFSAII (Michael W. Deem and Ramdas Pophale) SiO2 
 PCOD8278340
Probable space group: C M M A
;
_chemical_formula_sum "Si O2"
_cell_formula_units_Z 120
_cell_length_a 8.641790
_cell_length_b 26.974394
_cell_length_c 28.421034
_cell_angle_alpha 90.000000
_cell_angle_beta 90.000000
_cell_angle_gamma 90.000000
_cell_volume 6625.143346
_symmetry_space_group_name_H-M "C M M A"
_symmetry_group_IT_number 67
_symmetry_cell_setting 'orthorhombic'
loop_
_space_group_symop_operation_xyz
x,y,z
-x,1/2-y,z
x,-y,-z
-x,1/2+y,-z
-x,-y,-z
x,1/2+y,-z
-x,y,z
x,1/2-y,z
1/2+x,1/2+y,z
1/2-x,-y,z
1/2+x,1/2-y,-z
1/2-x,y,-z
1/2-x,1/2-y,-z
1/2+x,y,-z
1/2-x,1/2+y,z
1/2+x,-y,z
loop_
_atom_site_type_symbol
_atom_site_label
_atom_site_fract_x
_atom_site_fract_y
_atom_site_fract_z
Si Si1 0.181915 0.899135 0.309015
Si Si2 0.316070 0.147799 0.948048
Si Si3 0.818325 0.551941 0.213611
Si Si4 0.682632 0.446295 0.886305
Si Si5 0.317367 0.803338 0.641555
Si Si6 0.682014 0.641854 0.549405
Si Si7 0.815460 0.250000 0.947619
Si Si8 0.817821 0.051809 0.396941
O O1 0.220760 0.908855 0.254513
O O2 0.243893 0.844043 0.321346
O O3 0.265267 0.937548 0.343433
O O4 0.000000 0.904308 0.319089
O O5 0.500000 0.152671 0.949510
O O6 0.262700 0.098640 0.919838
O O7 0.247347 0.198574 0.924184
O O8 0.250000 0.141101 0.000000
O O9 0.750000 0.500000 0.230823
O O10 0.738125 0.569048 0.165582
O O11 0.000000 0.546547 0.204517
O O12 0.500000 0.451742 0.886892
O O13 0.750000 0.500000 0.902100
O O14 0.500000 0.800050 0.646138
O O15 0.241879 0.750000 0.653527
O O16 0.272183 0.817365 0.588295
O O17 0.500000 0.634851 0.545335
O O18 0.750000 0.659983 0.500000
O O19 0.755429 0.590271 0.565004
O O20 0.000000 0.250000 0.946666
O O21 0.750000 0.250000 0.000000
O O22 0.000000 0.050886 0.398686
O O23 0.750000 0.000000 0.413437
#
# Coordination Sequence:
#
# PCOD8278340 Si02
#       8
#    16  16  16  16  16  16   8  16
#     4   9  18  32  51  76 101 128 163 204 247 293
#     4  10  20  34  53  77 105 140 180 222 270 318
#     4  10  19  31  50  74 102 134 169 209 251 300
#     4  10  21  35  52  75 105 142 178 217 264 317
#     4   8  15  30  52  74  97 127 160 198 244 288
#     4  10  20  34  50  71  98 127 163 200 239 290
#     4  10  18  30  52  78 102 132 172 220 266 308
#     4  11  21  33  50  72  98 128 160 198 242 291
#
# _framework density 18.112815999999999
#
# number of rings (size 3 to 8) (size 9 to 14) (size 15 to 20)
#    0.000    2.267    0.000    6.200    0.000    5.067 
#    0.000    2.667    1.467    9.600    0.000    0.000 
#    0.000    0.000    0.000    0.000    0.000    0.000 
#
# Total GULP energy -743762.337378 kJ/mol
# GULP energy per Si atom -12396.038956 kJ/mol
# Density = 1.807159 g / cm^3
# Si number density = 18.112816 Si / 1000 Ang^3
#
#
#
# Elastic Constant Matrix: (Units=GPa)
#
#
# Indices 1 2 3 4 5 6 
#
# 1 83.0370 47.4624 32.7395 0.0000 0.0000 0.0000
# 2 47.4624 139.6996 61.8725 0.0000 0.0000 0.0000
# 3 32.7395 61.8725 90.0698 0.0000 0.0000 0.0000
# 4 0.0000 0.0000 0.0000 17.4951 0.0000 0.0000
# 5 0.0000 0.0000 0.0000 0.0000 27.1902 0.0000
# 6 0.0000 0.0000 0.0000 0.0000 0.0000 20.9239
#
#
#
# Elastic Compliance Matrix: (Units=1/GPa)
#
#
# Indices 1 2 3 4 5 6 
#
# 1 0.015451 -0.003970 -0.002889 0.000000 0.000000 0.000000
# 2 -0.003970 0.011308 -0.006325 0.000000 0.000000 0.000000
# 3 -0.002889 -0.006325 0.016498 0.000000 0.000000 0.000000
# 4 0.000000 0.000000 0.000000 0.057159 0.000000 0.000000
# 5 0.000000 0.000000 0.000000 0.000000 0.036778 0.000000
# 6 0.000000 0.000000 0.000000 0.000000 0.000000 0.047792
#
#
# Mechanical properties :
#
#
# Convention : Reuss Voigt Hill
#
# Bulk Modulus (GPa) = 59.21146 66.32836 62.76991
# Shear Modulus (GPa) = 23.04312 24.50395 23.77354
#
# Velocity S-wave (km/s) = 3.57066 3.68210 3.62681
# Velocity P-wave (km/s) = 7.05414 7.40110 7.22970
#
# Compressibility (1/GPa) = 0.01688862
#
# Stress axis : x y z
#
# Youngs Moduli (GPa) = 64.72050 88.43050 60.61428
#
# Poissons Ratio (x) = 0.35105 0.17514
# Poissons Ratio (y) = 0.25692 0.38340
# Poissons Ratio (z) = 0.18700 0.55934
#
# Static dielectric constant tensor:
#      x y z
#    x 3.323810 0.000000 0.000000 
#    y 0.000000 3.899340 0.000000 
#    z 0.000000 0.000000 3.258860 
# 
# 
# High freq. dielectric constant tensor:
#      x y z
#    x 1.703160 0.000000 0.000000 
#    y 0.000000 1.707770 0.000000 
#    z 0.000000 0.000000 1.682720 
# 
# From -- ./inp_files/43934.got.cif
#   From: 2010.03.12/outbox.cif.g09.slc.cpg/sg67_22_cif.got.tgz:43934.got - 2010.04.10 22:41:39.
