data_PCOD8278037
_publ_section_title
;
Structure prediction by ZEFSAII (Michael W. Deem and Ramdas Pophale) SiO2 
 PCOD8278037
Probable space group: C M M A
;
_chemical_formula_sum "Si O2"
_cell_formula_units_Z 56
_cell_length_a 25.306105
_cell_length_b 8.649967
_cell_length_c 15.329857
_cell_angle_alpha 90.000000
_cell_angle_beta 90.000000
_cell_angle_gamma 90.000000
_cell_volume 3355.659296
_symmetry_space_group_name_H-M "C M M A"
_symmetry_group_IT_number 67
_symmetry_cell_setting 'orthorhombic'
loop_
_space_group_symop_operation_xyz
x,y,z
-x,1/2-y,z
x,-y,-z
-x,1/2+y,-z
-x,-y,-z
x,1/2+y,-z
-x,y,z
x,1/2-y,z
1/2+x,1/2+y,z
1/2-x,-y,z
1/2+x,1/2-y,-z
1/2-x,y,-z
1/2-x,1/2-y,-z
1/2+x,y,-z
1/2-x,1/2+y,z
1/2+x,-y,z
loop_
_atom_site_type_symbol
_atom_site_label
_atom_site_fract_x
_atom_site_fract_y
_atom_site_fract_z
Si Si1 0.500000 0.067028 0.096692
Si Si2 0.893516 0.068751 0.095000
Si Si3 0.807501 0.068429 0.237024
Si Si4 0.808780 0.933133 0.413126
O O1 0.500000 0.250000 0.097455
O O2 0.553950 0.004178 0.140379
O O3 0.500000 0.000000 0.000000
O O4 0.902403 0.250000 0.085619
O O5 0.844007 0.027285 0.155264
O O6 0.881867 0.000000 0.000000
O O7 0.802253 0.250000 0.252769
O O8 0.750000 0.000000 0.217004
O O9 0.834863 0.992681 0.323135
O O10 0.808693 0.750000 0.416923
O O11 0.837947 0.000000 0.500000
O O12 0.750000 0.000000 0.411621
#
# Coordination Sequence:
#
# PCOD8278037 Si02
#       4
#     8  16  16  16
#     4  10  18  30  50  70  89 114 151 196 236 272
#     4  10  20  33  49  68  93 123 156 193 232 273
#     4  10  20  32  46  67  95 126 157 190 228 274
#     4  10  17  27  44  64  89 119 152 190 228 270
#
# _framework density 16.688226
#
# number of rings (size 3 to 8) (size 9 to 14) (size 15 to 20)
#    0.000    2.000    0.000    9.857    0.000    5.143 
#    0.000    2.857    0.000    0.000    0.000    1.000 
#    0.000    0.000    0.000    0.000    0.000    0.000 
#
# Total GULP energy -347043.754393 kJ/mol
# GULP energy per Si atom -12394.419800 kJ/mol
# Density = 1.665024 g / cm^3
# Si number density = 16.688226 Si / 1000 Ang^3
#
#
#
# Elastic Constant Matrix: (Units=GPa)
#
#
# Indices 1 2 3 4 5 6 
#
# 1 87.1100 53.9400 57.4030 0.0000 0.0000 0.0000
# 2 53.9400 146.0975 66.4627 0.0000 0.0000 0.0000
# 3 57.4030 66.4627 117.8443 0.0000 0.0000 0.0000
# 4 0.0000 0.0000 0.0000 29.1137 0.0000 0.0000
# 5 0.0000 0.0000 0.0000 0.0000 0.6488 0.0000
# 6 0.0000 0.0000 0.0000 0.0000 0.0000 20.2003
#
#
#
# Elastic Compliance Matrix: (Units=1/GPa)
#
#
# Indices 1 2 3 4 5 6 
#
# 1 0.018226 -0.003619 -0.006837 0.000000 0.000000 0.000000
# 2 -0.003619 0.009925 -0.003835 0.000000 0.000000 0.000000
# 3 -0.006837 -0.003835 0.013979 0.000000 0.000000 0.000000
# 4 0.000000 0.000000 0.000000 0.034348 0.000000 0.000000
# 5 0.000000 0.000000 0.000000 0.000000 1.541206 0.000000
# 6 0.000000 0.000000 0.000000 0.000000 0.000000 0.049504
#
#
# Mechanical properties :
#
#
# Convention : Reuss Voigt Hill
#
# Bulk Modulus (GPa) = 73.80815 78.51813 76.16314
# Shear Modulus (GPa) = 2.94068 21.54229 12.24148
#
# Velocity S-wave (km/s) = 1.32889 3.59676 2.71133
# Velocity P-wave (km/s) = 6.83215 8.02503 7.45250
#
# Compressibility (1/GPa) = 0.01354864
#
# Stress axis : x y z
#
# Youngs Moduli (GPa) = 54.86663 100.75062 71.53522
#
# Poissons Ratio (x) = 0.36460 0.48909
# Poissons Ratio (y) = 0.19855 0.27435
# Poissons Ratio (z) = 0.37513 0.38639
#
# Static dielectric constant tensor:
#      x y z
#    x 3.278690 0.000000 0.000000 
#    y 0.000000 3.305620 0.000000 
#    z 0.000000 0.000000 3.861030 
# 
# 
# High freq. dielectric constant tensor:
#      x y z
#    x 1.604580 0.000000 0.000000 
#    y 0.000000 1.668910 0.000000 
#    z 0.000000 0.000000 1.639100 
# 
# From -- ./inp_files/15699.got.cif
#   From: 2010.03.12/outbox.cif.g09.slc.cpg/sg67_8_cif.got.tgz:15699.got - 2010.04.10 22:41:39.
