data_PCOD8278779
_publ_section_title
;
Structure prediction by ZEFSAII (Michael W. Deem and Ramdas Pophale) SiO2 
 PCOD8278779
Probable space group: C M M A
;
_chemical_formula_sum "Si O2"
_cell_formula_units_Z 96
_cell_length_a 9.138603
_cell_length_b 27.099110
_cell_length_c 23.789417
_cell_angle_alpha 90.000000
_cell_angle_beta 90.000000
_cell_angle_gamma 90.000000
_cell_volume 5891.401730
_symmetry_space_group_name_H-M "C M M A"
_symmetry_group_IT_number 67
_symmetry_cell_setting 'orthorhombic'
loop_
_space_group_symop_operation_xyz
x,y,z
-x,1/2-y,z
x,-y,-z
-x,1/2+y,-z
-x,-y,-z
x,1/2+y,-z
-x,y,z
x,1/2-y,z
1/2+x,1/2+y,z
1/2-x,-y,z
1/2+x,1/2-y,-z
1/2-x,y,-z
1/2-x,1/2-y,-z
1/2+x,y,-z
1/2-x,1/2+y,z
1/2+x,-y,z
loop_
_atom_site_type_symbol
_atom_site_label
_atom_site_fract_x
_atom_site_fract_y
_atom_site_fract_z
Si Si1 0.669281 0.308024 0.176828
Si Si2 0.329915 0.638809 0.275040
Si Si3 0.668946 0.693519 0.388522
Si Si4 0.329238 0.107560 0.444686
Si Si5 0.828082 0.051557 0.668589
Si Si6 0.668426 0.693305 0.947808
O O1 0.500000 0.317900 0.192387
O O2 0.702798 0.250000 0.181037
O O3 0.775602 0.337476 0.217545
O O4 0.703665 0.328590 0.113938
O O5 0.500000 0.625012 0.269872
O O6 0.301774 0.678193 0.324329
O O7 0.238523 0.589416 0.286567
O O8 0.500000 0.685152 0.404540
O O9 0.716499 0.750000 0.395624
O O10 0.767214 0.661667 0.430595
O O11 0.500000 0.112407 0.456555
O O12 0.250000 0.086390 0.500000
O O13 0.294468 0.069983 0.394406
O O14 0.000000 0.046375 0.679521
O O15 0.750000 0.000000 0.677963
O O16 0.500000 0.687821 0.961476
O O17 0.717649 0.750000 0.945595
O O18 0.750000 0.666244 0.000000
#
# Coordination Sequence:
#
# PCOD8278779 Si02
#       6
#    16  16  16  16  16  16
#     4   9  17  28  42  63  94 130 163 195 232 272
#     4  10  19  31  48  70  94 119 152 192 230 272
#     4   9  18  32  48  66  91 122 153 186 223 262
#     4  10  21  35  51  71  93 117 147 182 220 266
#     4  10  21  37  55  73  92 116 145 180 228 279
#     4   8  14  24  37  55  83 121 162 199 232 265
#
# _framework density 16.294933
#
# number of rings (size 3 to 8) (size 9 to 14) (size 15 to 20)
#    0.000    2.667    0.000    3.000    0.000    5.333 
#    0.000    3.333    0.000    0.000    0.000    0.000 
#    0.000    0.667    0.000    7.000    0.000    4.167 
#
# Total GULP energy -595132.783119 kJ/mol
# GULP energy per Si atom -12398.599648 kJ/mol
# Density = 1.625785 g / cm^3
# Si number density = 16.294933 Si / 1000 Ang^3
#
#
#
# Elastic Constant Matrix: (Units=GPa)
#
#
# Indices 1 2 3 4 5 6 
#
# 1 68.1928 26.9323 33.3512 0.0000 0.0000 0.0000
# 2 26.9323 64.5677 12.9370 0.0000 0.0000 0.0000
# 3 33.3512 12.9370 79.6167 0.0000 0.0000 0.0000
# 4 0.0000 0.0000 0.0000 10.6480 0.0000 0.0000
# 5 0.0000 0.0000 0.0000 0.0000 33.6916 0.0000
# 6 0.0000 0.0000 0.0000 0.0000 0.0000 26.0952
#
#
#
# Elastic Compliance Matrix: (Units=1/GPa)
#
#
# Indices 1 2 3 4 5 6 
#
# 1 0.021362 -0.007357 -0.007753 0.000000 0.000000 0.000000
# 2 -0.007357 0.018543 0.000069 0.000000 0.000000 0.000000
# 3 -0.007753 0.000069 0.015797 0.000000 0.000000 0.000000
# 4 0.000000 0.000000 0.000000 0.093914 0.000000 0.000000
# 5 0.000000 0.000000 0.000000 0.000000 0.029681 0.000000
# 6 0.000000 0.000000 0.000000 0.000000 0.000000 0.038321
#
#
# Mechanical properties :
#
#
# Convention : Reuss Voigt Hill
#
# Bulk Modulus (GPa) = 39.03384 39.86869 39.45126
# Shear Modulus (GPa) = 19.51306 23.36408 21.43857
#
# Velocity S-wave (km/s) = 3.46423 3.79070 3.63114
# Velocity P-wave (km/s) = 6.32517 6.60902 6.46866
#
# Compressibility (1/GPa) = 0.02561880
#
# Stress axis : x y z
#
# Youngs Moduli (GPa) = 46.81304 53.93005 63.30462
#
# Poissons Ratio (x) = 0.39676 0.49079
# Poissons Ratio (y) = 0.34440 -0.00435
# Poissons Ratio (z) = 0.36293 -0.00371
#
# Static dielectric constant tensor:
#      x y z
#    x 3.125410 0.000000 0.000000 
#    y 0.000000 2.805230 0.000000 
#    z 0.000000 0.000000 2.790350 
# 
# 
# High freq. dielectric constant tensor:
#      x y z
#    x 1.636670 0.000000 0.000000 
#    y 0.000000 1.590230 0.000000 
#    z 0.000000 0.000000 1.626710 
# 
# From -- ./inp_files/37185.got.cif
#   From: 2010.03.12/outbox.cif.g09.slc.cpg/sg67_19_cif.got.tgz:37185.got - 2010.04.10 22:41:39.
