data_PCOD8278820
_publ_section_title
;
Structure prediction by ZEFSAII (Michael W. Deem and Ramdas Pophale) SiO2 
 PCOD8278820
Probable space group: C M M A
;
_chemical_formula_sum "Si O2"
_cell_formula_units_Z 116
_cell_length_a 9.206070
_cell_length_b 30.041423
_cell_length_c 23.578520
_cell_angle_alpha 90.000000
_cell_angle_beta 90.000000
_cell_angle_gamma 90.000000
_cell_volume 6520.956673
_symmetry_space_group_name_H-M "C M M A"
_symmetry_group_IT_number 67
_symmetry_cell_setting 'orthorhombic'
loop_
_space_group_symop_operation_xyz
x,y,z
-x,1/2-y,z
x,-y,-z
-x,1/2+y,-z
-x,-y,-z
x,1/2+y,-z
-x,y,z
x,1/2-y,z
1/2+x,1/2+y,z
1/2-x,-y,z
1/2+x,1/2-y,-z
1/2-x,y,-z
1/2-x,1/2-y,-z
1/2+x,y,-z
1/2-x,1/2+y,z
1/2+x,-y,z
loop_
_atom_site_type_symbol
_atom_site_label
_atom_site_fract_x
_atom_site_fract_y
_atom_site_fract_z
Si Si1 0.831807 0.043596 0.885255
Si Si2 0.170902 0.955517 0.246001
Si Si3 0.171209 0.798279 0.728963
Si Si4 0.750000 0.000000 0.500000
Si Si5 0.333561 0.198108 0.856189
Si Si6 0.660550 0.085982 0.551256
Si Si7 0.327531 0.864646 0.941263
Si Si8 0.327712 0.112088 0.674250
O O1 0.794268 0.052866 0.819761
O O2 0.781181 0.086117 0.921075
O O3 0.000000 0.033804 0.893375
O O4 0.750000 0.000000 0.908228
O O5 0.238746 0.914701 0.279442
O O6 0.000000 0.959393 0.258228
O O7 0.250000 0.000000 0.267604
O O8 0.235966 0.750000 0.709893
O O9 0.224226 0.810589 0.792270
O O10 0.214182 0.836181 0.683813
O O11 0.000000 0.793730 0.732968
O O12 0.655586 0.032244 0.541128
O O13 0.500000 0.181584 0.863826
O O14 0.322575 0.250000 0.871500
O O15 0.226124 0.171302 0.896335
O O16 0.500000 0.106002 0.549089
O O17 0.750000 0.109071 0.500000
O O18 0.729224 0.097722 0.612110
O O19 0.500000 0.860384 0.947862
O O20 0.250000 0.854076 0.000000
O O21 0.500000 0.103251 0.681351
#
# Coordination Sequence:
#
# PCOD8278820 Si02
#       8
#    16  16  16   4  16  16  16  16
#     4   9  20  37  54  72  98 131 168 207 248 299
#     4  10  20  33  49  73 103 134 165 200 249 302
#     4   8  15  30  54  80 104 130 162 205 254 303
#     4   8  18  32  46  60  92 132 174 208 240 288
#     4   9  18  34  56  80 103 130 163 199 248 307
#     4   9  19  31  46  67  95 132 172 210 248 290
#     4  11  23  37  53  75 101 131 168 208 251 297
#     4  10  19  31  49  77 104 129 170 213 251 300
#
# _framework density 17.788799999999998
#
# number of rings (size 3 to 8) (size 9 to 14) (size 15 to 20)
#    0.414    2.207    0.000    2.690    0.966    3.034 
#    0.000    1.379    0.000    1.655    0.000    0.000 
#    0.000    0.000    0.000    0.000    0.000    0.000 
#
# Total GULP energy -718940.979218 kJ/mol
# GULP energy per Si atom -12395.534124 kJ/mol
# Density = 1.774831 g / cm^3
# Si number density = 17.788800 Si / 1000 Ang^3
#
#
#
# Elastic Constant Matrix: (Units=GPa)
#
#
# Indices 1 2 3 4 5 6 
#
# 1 55.6391 28.5719 24.6694 0.0000 0.0000 0.0000
# 2 28.5719 103.3611 56.2726 0.0000 0.0000 0.0000
# 3 24.6694 56.2726 86.5022 0.0000 0.0000 0.0000
# 4 0.0000 0.0000 0.0000 21.1452 0.0000 0.0000
# 5 0.0000 0.0000 0.0000 0.0000 20.3928 0.0000
# 6 0.0000 0.0000 0.0000 0.0000 0.0000 21.2535
#
#
#
# Elastic Compliance Matrix: (Units=1/GPa)
#
#
# Indices 1 2 3 4 5 6 
#
# 1 0.021620 -0.004056 -0.003527 0.000000 0.000000 0.000000
# 2 -0.004056 0.015741 -0.009084 0.000000 0.000000 0.000000
# 3 -0.003527 -0.009084 0.018475 0.000000 0.000000 0.000000
# 4 0.000000 0.000000 0.000000 0.047292 0.000000 0.000000
# 5 0.000000 0.000000 0.000000 0.000000 0.049037 0.000000
# 6 0.000000 0.000000 0.000000 0.000000 0.000000 0.047051
#
#
# Mechanical properties :
#
#
# Convention : Reuss Voigt Hill
#
# Bulk Modulus (GPa) = 44.43827 51.61446 48.02636
# Shear Modulus (GPa) = 20.82891 21.62419 21.22655
#
# Velocity S-wave (km/s) = 3.42555 3.49034 3.45810
# Velocity P-wave (km/s) = 6.37818 6.73212 6.55754
#
# Compressibility (1/GPa) = 0.02250313
#
# Stress axis : x y z
#
# Youngs Moduli (GPa) = 46.25414 63.52688 54.12583
#
# Poissons Ratio (x) = 0.25767 0.19091
# Poissons Ratio (y) = 0.18761 0.49166
# Poissons Ratio (z) = 0.16314 0.57705
#
# Static dielectric constant tensor:
#      x y z
#    x 3.116130 0.000000 0.000000 
#    y 0.000000 3.509850 0.000000 
#    z 0.000000 0.000000 3.271870 
# 
# 
# High freq. dielectric constant tensor:
#      x y z
#    x 1.673410 0.000000 0.000000 
#    y 0.000000 1.684230 0.000000 
#    z 0.000000 0.000000 1.681210 
# 
# From -- ./inp_files/41195.got.cif
#   From: 2010.03.12/outbox.cif.g09.slc.cpg/sg67_21_cif.got.tgz:41195.got - 2010.04.10 22:41:39.
