data_PCOD8278455
_publ_section_title
;
Structure prediction by ZEFSAII (Michael W. Deem and Ramdas Pophale) SiO2 
 PCOD8278455
Probable space group: C M M A
;
_chemical_formula_sum "Si O2"
_cell_formula_units_Z 112
_cell_length_a 16.748688
_cell_length_b 21.588097
_cell_length_c 16.719215
_cell_angle_alpha 90.000000
_cell_angle_beta 90.000000
_cell_angle_gamma 90.000000
_cell_volume 6045.205041
_symmetry_space_group_name_H-M "C M M A"
_symmetry_group_IT_number 67
_symmetry_cell_setting 'orthorhombic'
loop_
_space_group_symop_operation_xyz
x,y,z
-x,1/2-y,z
x,-y,-z
-x,1/2+y,-z
-x,-y,-z
x,1/2+y,-z
-x,y,z
x,1/2-y,z
1/2+x,1/2+y,z
1/2-x,-y,z
1/2+x,1/2-y,-z
1/2-x,y,-z
1/2-x,1/2-y,-z
1/2+x,y,-z
1/2-x,1/2+y,z
1/2+x,-y,z
loop_
_atom_site_type_symbol
_atom_site_label
_atom_site_fract_x
_atom_site_fract_y
_atom_site_fract_z
Si Si1 0.595109 0.318492 0.645389
Si Si2 0.907997 0.088795 0.482856
Si Si3 0.091767 0.011239 0.785872
Si Si4 0.840035 0.980957 0.384402
Si Si5 0.659635 0.820734 0.027880
Si Si6 0.407261 0.369142 0.813528
Si Si7 0.093431 0.942139 0.049757
O O1 0.500000 0.320015 0.645853
O O2 0.630277 0.250000 0.642137
O O3 0.626925 0.353084 0.566475
O O4 0.625612 0.350439 0.726477
O O5 0.857646 0.081800 0.565106
O O6 0.000000 0.098104 0.505563
O O7 0.900423 0.030815 0.422246
O O8 0.103421 0.942424 0.820468
O O9 0.000000 0.022364 0.761468
O O10 0.145433 0.027393 0.709477
O O11 0.121748 0.055438 0.857703
O O12 0.750000 0.000000 0.400779
O O13 0.630793 0.750000 0.008739
O O14 0.647772 0.833729 0.122134
O O15 0.750000 0.828743 0.000000
O O16 0.609921 0.873397 0.982290
O O17 0.500000 0.349887 0.826599
O O18 0.000000 0.953498 0.047961
O O19 0.132771 0.000000 0.000000
#
# Coordination Sequence:
#
# PCOD8278455 Si02
#       7
#    16  16  16  16  16  16  16
#     4   9  17  29  51  83 108 129 167 221 273 316
#     4  10  18  32  53  75 105 138 170 214 263 315
#     4  10  19  34  56  82 108 135 176 227 277 323
#     4  11  21  32  50  76 108 141 175 214 261 322
#     4  11  24  38  53  78 115 153 187 224 273 340
#     4  10  18  33  57  83 108 136 178 229 277 326
#     4  10  20  37  59  82 109 142 185 236 282 330
#
# _framework density 18.527080000000002
#
# number of rings (size 3 to 8) (size 9 to 14) (size 15 to 20)
#    0.000    1.857    2.857    3.429    0.000    3.143 
#    0.000    0.000    0.000    2.571    0.000    2.000 
#    0.000    0.000    0.000    0.000    0.000    0.000 
#
# Total GULP energy -694131.771394 kJ/mol
# GULP energy per Si atom -12395.210203 kJ/mol
# Density = 1.848491 g / cm^3
# Si number density = 18.527080 Si / 1000 Ang^3
#
#
#
# Elastic Constant Matrix: (Units=GPa)
#
#
# Indices 1 2 3 4 5 6 
#
# 1 47.5768 6.1061 45.1355 0.0000 0.0000 0.0000
# 2 6.1061 81.7106 54.2584 0.0000 0.0000 0.0000
# 3 45.1355 54.2584 134.3289 0.0000 0.0000 0.0000
# 4 0.0000 0.0000 0.0000 28.2681 0.0000 0.0000
# 5 0.0000 0.0000 0.0000 0.0000 16.3978 0.0000
# 6 0.0000 0.0000 0.0000 0.0000 0.0000 14.2433
#
#
#
# Elastic Compliance Matrix: (Units=1/GPa)
#
#
# Indices 1 2 3 4 5 6 
#
# 1 0.033387 0.006770 -0.013953 0.000000 0.000000 0.000000
# 2 0.006770 0.018097 -0.009585 0.000000 0.000000 0.000000
# 3 -0.013953 -0.009585 0.016004 0.000000 0.000000 0.000000
# 4 0.000000 0.000000 0.000000 0.035376 0.000000 0.000000
# 5 0.000000 0.000000 0.000000 0.000000 0.060984 0.000000
# 6 0.000000 0.000000 0.000000 0.000000 0.000000 0.070208
#
#
# Mechanical properties :
#
#
# Convention : Reuss Voigt Hill
#
# Bulk Modulus (GPa) = 29.45235 52.73514 41.09374
# Shear Modulus (GPa) = 17.92712 22.32293 20.12503
#
# Velocity S-wave (km/s) = 3.11403 3.47491 3.29940
# Velocity P-wave (km/s) = 5.37224 6.68024 6.06162
#
# Compressibility (1/GPa) = 0.03395314
#
# Stress axis : x y z
#
# Youngs Moduli (GPa) = 29.95220 55.25840 62.48428
#
# Poissons Ratio (x) = -0.37411 0.87183
# Poissons Ratio (y) = -0.20278 0.59888
# Poissons Ratio (z) = 0.41791 0.52962
#
# Static dielectric constant tensor:
#      x y z
#    x 3.118040 0.000000 0.000000 
#    y 0.000000 3.510450 0.000000 
#    z 0.000000 0.000000 3.687230 
# 
# 
# High freq. dielectric constant tensor:
#      x y z
#    x 1.688150 0.000000 0.000000 
#    y 0.000000 1.702830 0.000000 
#    z 0.000000 0.000000 1.731070 
# 
# From -- ./inp_files/34470.got.cif
#   From: 2010.03.12/outbox.cif.g09.slc.cpg/sg67_18_cif.got.tgz:34470.got - 2010.04.10 22:41:39.
