data_PCOD8278979
_publ_section_title
;
Structure prediction by ZEFSAII (Michael W. Deem and Ramdas Pophale) SiO2 
 PCOD8278979
Probable space group: C M M A
;
_chemical_formula_sum "Si O2"
_cell_formula_units_Z 80
_cell_length_a 25.978045
_cell_length_b 9.140429
_cell_length_c 18.622025
_cell_angle_alpha 90.000000
_cell_angle_beta 90.000000
_cell_angle_gamma 90.000000
_cell_volume 4421.808698
_symmetry_space_group_name_H-M "C M M A"
_symmetry_group_IT_number 67
_symmetry_cell_setting 'orthorhombic'
loop_
_space_group_symop_operation_xyz
x,y,z
-x,1/2-y,z
x,-y,-z
-x,1/2+y,-z
-x,-y,-z
x,1/2+y,-z
-x,y,z
x,1/2-y,z
1/2+x,1/2+y,z
1/2-x,-y,z
1/2+x,1/2-y,-z
1/2-x,y,-z
1/2-x,1/2-y,-z
1/2+x,y,-z
1/2-x,1/2+y,z
1/2+x,-y,z
loop_
_atom_site_type_symbol
_atom_site_label
_atom_site_fract_x
_atom_site_fract_y
_atom_site_fract_z
Si Si1 0.591254 0.923755 0.678804
Si Si2 0.703084 0.410041 0.332730
Si Si3 0.500000 0.579987 0.074888
Si Si4 0.403503 0.423487 0.827656
Si Si5 0.799483 0.084822 0.837803
Si Si6 0.000000 0.920943 0.424859
O O1 0.590867 0.750000 0.696255
O O2 0.646822 0.972788 0.646889
O O3 0.549813 0.969058 0.619859
O O4 0.579604 0.011111 0.751246
O O5 0.709372 0.250000 0.365710
O O6 0.750000 0.500000 0.366991
O O7 0.706714 0.407056 0.247209
O O8 0.500000 0.750000 0.058686
O O9 0.449070 0.535350 0.118334
O O10 0.500000 0.500000 0.000000
O O11 0.395035 0.250000 0.820061
O O12 0.351302 0.496936 0.857750
O O13 0.802131 0.250000 0.869425
O O14 0.750000 0.000000 0.870720
O O15 0.000000 0.750000 0.439727
O O16 0.000000 0.000000 0.500000
#
# Coordination Sequence:
#
# PCOD8278979 Si02
#       6
#    16  16   8  16  16   8
#     4   9  18  32  50  73  99 129 163 201 246 299
#     4   8  14  24  40  65  95 122 152 188 230 279
#     4  10  23  38  52  72 100 134 171 210 254 302
#     4  10  19  32  51  77 104 130 166 211 251 295
#     4   9  16  27  45  72 103 134 164 199 246 297
#     4  10  21  36  52  70  96 128 165 208 254 302
#
# _framework density 18.092144999999999
#
# number of rings (size 3 to 8) (size 9 to 14) (size 15 to 20)
#    0.000    2.800    0.000    3.000    0.000    7.200 
#    0.000    0.000    0.000    1.200    0.000    8.400 
#    0.000    0.000    0.000    0.000    0.000    0.000 
#
# Total GULP energy -495836.273834 kJ/mol
# GULP energy per Si atom -12395.906846 kJ/mol
# Density = 1.805097 g / cm^3
# Si number density = 18.092145 Si / 1000 Ang^3
#
#
#
# Elastic Constant Matrix: (Units=GPa)
#
#
# Indices 1 2 3 4 5 6 
#
# 1 193.0112 77.1556 75.2947 0.0000 0.0000 0.0000
# 2 77.1556 94.8548 48.5587 0.0000 0.0000 0.0000
# 3 75.2947 48.5587 75.9556 0.0000 0.0000 0.0000
# 4 0.0000 0.0000 0.0000 23.3268 0.0000 0.0000
# 5 0.0000 0.0000 0.0000 0.0000 -1.2891 0.0000
# 6 0.0000 0.0000 0.0000 0.0000 0.0000 33.8474
#
#
#
# Elastic Compliance Matrix: (Units=1/GPa)
#
#
# Indices 1 2 3 4 5 6 
#
# 1 0.009508 -0.004324 -0.006661 0.000000 0.000000 0.000000
# 2 -0.004324 0.017638 -0.006989 0.000000 0.000000 0.000000
# 3 -0.006661 -0.006989 0.024237 0.000000 0.000000 0.000000
# 4 0.000000 0.000000 0.000000 0.042869 0.000000 0.000000
# 5 0.000000 0.000000 0.000000 0.000000 -0.775731 0.000000
# 6 0.000000 0.000000 0.000000 0.000000 0.000000 0.029544
#
#
# Mechanical properties :
#
#
# Convention : Reuss Voigt Hill
#
# Bulk Modulus (GPa) = 64.79260 85.09329 74.94295
# Shear Modulus (GPa) = -8.18544 22.03120 6.92288
#
# Velocity S-wave (km/s) = -2.12935 3.49337 1.95826
# Velocity P-wave (km/s) = 5.46304 7.96285 6.82831
#
# Compressibility (1/GPa) = 0.01543386
#
# Stress axis : x y z
#
# Youngs Moduli (GPa) = 105.17449 56.69680 41.25929
#
# Poissons Ratio (x) = 0.24516 0.27483
# Poissons Ratio (y) = 0.45477 0.28838
# Poissons Ratio (z) = 0.70056 0.39628
#
# Static dielectric constant tensor:
#      x y z
#    x 3.771080 0.000000 0.000000 
#    y 0.000000 3.485460 0.000000 
#    z 0.000000 0.000000 2.793900 
# 
# 
# High freq. dielectric constant tensor:
#      x y z
#    x 1.725650 0.000000 0.000000 
#    y 0.000000 1.704980 0.000000 
#    z 0.000000 0.000000 1.642030 
# 
# From -- ./inp_files/32178.got.cif
#   From: 2010.03.12/outbox.cif.g09.slc.cpg/sg67_17_cif.got.tgz:32178.got - 2010.04.10 22:41:39.
