data_PCOD8278925
_publ_section_title
;
Structure prediction by ZEFSAII (Michael W. Deem and Ramdas Pophale) SiO2 
 PCOD8278925
Probable space group: C M M A
;
_chemical_formula_sum "Si O2"
_cell_formula_units_Z 96
_cell_length_a 27.332461
_cell_length_b 8.604349
_cell_length_c 23.928636
_cell_angle_alpha 90.000000
_cell_angle_beta 90.000000
_cell_angle_gamma 90.000000
_cell_volume 5627.489558
_symmetry_space_group_name_H-M "C M M A"
_symmetry_group_IT_number 67
_symmetry_cell_setting 'orthorhombic'
loop_
_space_group_symop_operation_xyz
x,y,z
-x,1/2-y,z
x,-y,-z
-x,1/2+y,-z
-x,-y,-z
x,1/2+y,-z
-x,y,z
x,1/2-y,z
1/2+x,1/2+y,z
1/2-x,-y,z
1/2+x,1/2-y,-z
1/2-x,y,-z
1/2-x,1/2-y,-z
1/2+x,y,-z
1/2-x,1/2+y,z
1/2+x,-y,z
loop_
_atom_site_type_symbol
_atom_site_label
_atom_site_fract_x
_atom_site_fract_y
_atom_site_fract_z
Si Si1 0.142133 0.566778 0.331421
Si Si2 0.944727 0.933816 0.057763
Si Si3 0.197113 0.932682 0.441809
Si Si4 0.608991 0.433183 0.168083
Si Si5 0.697891 0.933319 0.228454
Si Si6 0.944198 0.430574 0.270219
O O1 0.136365 0.750000 0.324097
O O2 0.159494 0.520198 0.393232
O O3 0.181976 0.507814 0.287127
O O4 0.089829 0.485597 0.321413
O O5 0.944680 0.750000 0.055252
O O6 0.911095 0.992534 0.108592
O O7 0.000000 0.996663 0.066725
O O8 0.922859 0.000000 0.000000
O O9 0.202617 0.750000 0.447374
O O10 0.176663 0.000000 0.500000
O O11 0.250000 0.000000 0.427000
O O12 0.618730 0.250000 0.168450
O O13 0.659449 0.522256 0.180139
O O14 0.568748 0.472752 0.214900
O O15 0.700741 0.750000 0.235535
O O16 0.750000 0.000000 0.210194
O O17 0.934457 0.250000 0.257838
O O18 0.000000 0.463155 0.287237
#
# Coordination Sequence:
#
# PCOD8278925 Si02
#       6
#    16  16  16  16  16  16
#     4  10  20  33  50  73  98 127 161 196 238 284
#     4   9  18  31  48  71  98 128 160 194 234 280
#     4  10  20  32  49  72  97 126 158 193 235 282
#     4  10  19  32  50  72  98 128 161 197 239 284
#     4  11  21  33  50  72  98 128 160 196 239 284
#     4  10  20  32  48  72  99 128 161 197 239 284
#
# _framework density 17.059116
#
# number of rings (size 3 to 8) (size 9 to 14) (size 15 to 20)
#    0.000    2.000    0.000    7.000    0.000    7.333 
#    0.000    1.667    0.000    1.000    0.000    3.500 
#    0.000    0.000    0.000    0.000    0.000    0.000 
#
# Total GULP energy -595292.332179 kJ/mol
# GULP energy per Si atom -12401.923587 kJ/mol
# Density = 1.702029 g / cm^3
# Si number density = 17.059116 Si / 1000 Ang^3
#
#
#
# Elastic Constant Matrix: (Units=GPa)
#
#
# Indices 1 2 3 4 5 6 
#
# 1 115.2463 26.0803 65.4798 0.0000 0.0000 0.0000
# 2 26.0803 37.5118 23.0437 0.0000 0.0000 0.0000
# 3 65.4798 23.0437 133.0455 0.0000 0.0000 0.0000
# 4 0.0000 0.0000 0.0000 27.6181 0.0000 0.0000
# 5 0.0000 0.0000 0.0000 0.0000 26.1526 0.0000
# 6 0.0000 0.0000 0.0000 0.0000 0.0000 27.6370
#
#
#
# Elastic Compliance Matrix: (Units=1/GPa)
#
#
# Indices 1 2 3 4 5 6 
#
# 1 0.013065 -0.005745 -0.005435 0.000000 0.000000 0.000000
# 2 -0.005745 0.032358 -0.002777 0.000000 0.000000 0.000000
# 3 -0.005435 -0.002777 0.010672 0.000000 0.000000 0.000000
# 4 0.000000 0.000000 0.000000 0.036208 0.000000 0.000000
# 5 0.000000 0.000000 0.000000 0.000000 0.038237 0.000000
# 6 0.000000 0.000000 0.000000 0.000000 0.000000 0.036183
#
#
# Mechanical properties :
#
#
# Convention : Reuss Voigt Hill
#
# Bulk Modulus (GPa) = 35.48417 57.22344 46.35381
# Shear Modulus (GPa) = 24.50587 27.69486 26.10037
#
# Velocity S-wave (km/s) = 3.79427 4.03359 3.91576
# Velocity P-wave (km/s) = 6.32781 7.43708 6.90476
#
# Compressibility (1/GPa) = 0.02818158
#
# Stress axis : x y z
#
# Youngs Moduli (GPa) = 76.53888 30.90382 93.70117
#
# Poissons Ratio (x) = 0.17754 0.50928
# Poissons Ratio (y) = 0.43970 0.26022
# Poissons Ratio (z) = 0.41600 0.08582
#
# Static dielectric constant tensor:
#      x y z
#    x 3.143900 0.000000 0.000000 
#    y 0.000000 3.281670 0.000000 
#    z 0.000000 0.000000 3.271490 
# 
# 
# High freq. dielectric constant tensor:
#      x y z
#    x 1.648210 0.000000 0.000000 
#    y 0.000000 1.674190 0.000000 
#    z 0.000000 0.000000 1.648770 
# 
# From -- ./inp_files/42697.got.cif
#   From: 2010.03.12/outbox.cif.g09.slc.cpg/sg67_22_cif.got.tgz:42697.got - 2010.04.10 22:41:39.
