data_PCOD8278192
_publ_section_title
;
Structure prediction by ZEFSAII (Michael W. Deem and Ramdas Pophale) SiO2 
 PCOD8278192
Probable space group: C M M A
;
_chemical_formula_sum "Si O2"
_cell_formula_units_Z 72
_cell_length_a 26.328025
_cell_length_b 10.581276
_cell_length_c 15.748437
_cell_angle_alpha 90.000000
_cell_angle_beta 90.000000
_cell_angle_gamma 90.000000
_cell_volume 4387.264133
_symmetry_space_group_name_H-M "C M M A"
_symmetry_group_IT_number 67
_symmetry_cell_setting 'orthorhombic'
loop_
_space_group_symop_operation_xyz
x,y,z
-x,1/2-y,z
x,-y,-z
-x,1/2+y,-z
-x,-y,-z
x,1/2+y,-z
-x,y,z
x,1/2-y,z
1/2+x,1/2+y,z
1/2-x,-y,z
1/2+x,1/2-y,-z
1/2-x,y,-z
1/2-x,1/2-y,-z
1/2+x,y,-z
1/2-x,1/2+y,z
1/2+x,-y,z
loop_
_atom_site_type_symbol
_atom_site_label
_atom_site_fract_x
_atom_site_fract_y
_atom_site_fract_z
Si Si1 0.060579 0.750000 0.087116
Si Si2 0.720609 0.613415 0.411993
Si Si3 0.442756 0.606083 0.634957
Si Si4 0.628881 0.000000 0.500000
Si Si5 0.939431 0.750000 0.894168
Si Si6 0.560320 0.007401 0.187537
O O1 0.082329 0.624192 0.132591
O O2 0.000000 0.750000 0.090264
O O3 0.080248 0.750000 0.990563
O O4 0.722734 0.750000 0.363952
O O5 0.750000 0.500000 0.360188
O O6 0.750000 0.627630 0.500000
O O7 0.662405 0.580111 0.433371
O O8 0.500000 0.567035 0.608584
O O9 0.441758 0.750000 0.666681
O O10 0.406495 0.592691 0.554163
O O11 0.423564 0.521194 0.713949
O O12 0.917783 0.625139 0.847371
O O13 0.000000 0.750000 0.891185
O O14 0.500000 0.009570 0.179764
#
# Coordination Sequence:
#
# PCOD8278192 Si02
#       6
#     8  16  16   8   8  16
#     4   9  14  24  42  57  71  95 129 171 219 269
#     4   8  15  28  46  66  84  98 125 169 218 264
#     4  10  19  31  42  54  80 118 158 191 216 243
#     4  10  18  28  44  62  80 108 156 184 208 244
#     4   9  16  24  38  59  75  91 127 175 223 267
#     4   9  16  27  39  54  76 102 133 177 222 252
#
# _framework density 16.411138999999999
#
# number of rings (size 3 to 8) (size 9 to 14) (size 15 to 20)
#    0.000    3.111    1.111    1.667    0.000    3.556 
#    4.000    0.000    0.000    0.000    0.000    0.000 
#    0.000    0.000    0.000    0.000    0.000  106.667 
#
# Total GULP energy -446056.300464 kJ/mol
# GULP energy per Si atom -12390.452791 kJ/mol
# Density = 1.637379 g / cm^3
# Si number density = 16.411139 Si / 1000 Ang^3
#
#
#
# Elastic Constant Matrix: (Units=GPa)
#
#
# Indices 1 2 3 4 5 6 
#
# 1 50.4944 25.7270 27.5190 0.0000 0.0000 0.0000
# 2 25.7270 148.5202 40.8649 0.0000 0.0000 0.0000
# 3 27.5190 40.8649 63.7405 0.0000 0.0000 0.0000
# 4 0.0000 0.0000 0.0000 23.5312 0.0000 0.0000
# 5 0.0000 0.0000 0.0000 0.0000 -0.0565 0.0000
# 6 0.0000 0.0000 0.0000 0.0000 0.0000 -248.4254
#
#
#
# Elastic Compliance Matrix: (Units=1/GPa)
#
#
# Indices 1 2 3 4 5 6 
#
# 1 0.026261 -0.001736 -0.010225 0.000000 0.000000 0.000000
# 2 -0.001736 0.008290 -0.004565 0.000000 0.000000 0.000000
# 3 -0.010225 -0.004565 0.023030 0.000000 0.000000 0.000000
# 4 0.000000 0.000000 0.000000 0.042497 0.000000 0.000000
# 5 0.000000 0.000000 0.000000 0.000000-17.707841 0.000000
# 6 0.000000 0.000000 0.000000 0.000000 0.000000 -0.004025
#
#
# Mechanical properties :
#
#
# Convention : Reuss Voigt Hill
#
# Bulk Modulus (GPa) = 40.76843 50.10856 45.43850
# Shear Modulus (GPa) = -0.28457 -33.74720 -17.01588
#
# Velocity S-wave (km/s) = -0.41686 -4.53963 -3.22351
# Velocity P-wave (km/s) = 4.96630 1.76689 3.72734
#
# Compressibility (1/GPa) = 0.02452878
#
# Stress axis : x y z
#
# Youngs Moduli (GPa) = 38.07914 120.62864 43.42140
#
# Poissons Ratio (x) = 0.20936 0.44399
# Poissons Ratio (y) = 0.06609 0.19824
# Poissons Ratio (z) = 0.38936 0.55072
#
# Static dielectric constant tensor:
#      x y z
#    x 2.717090 0.000000 0.000000 
#    y 0.000000 4.216140 0.000000 
#    z 0.000000 0.000000 2.820850 
# 
# 
# High freq. dielectric constant tensor:
#      x y z
#    x 1.570980 0.000000 0.000000 
#    y 0.000000 1.651990 0.000000 
#    z 0.000000 0.000000 1.595490 
# 
# From -- ./inp_files/29847.got.cif
#   From: 2010.03.12/outbox.cif.g09.slc.cpg/sg67_15_cif.got.tgz:29847.got - 2010.04.10 22:41:39.
