data_PCOD8278033
_publ_section_title
;
Structure prediction by ZEFSAII (Michael W. Deem and Ramdas Pophale) SiO2 
 PCOD8278033
Probable space group: C M M A
;
_chemical_formula_sum "Si O2"
_cell_formula_units_Z 104
_cell_length_a 27.168217
_cell_length_b 8.843435
_cell_length_c 24.747946
_cell_angle_alpha 90.000000
_cell_angle_beta 90.000000
_cell_angle_gamma 90.000000
_cell_volume 5945.950443
_symmetry_space_group_name_H-M "C M M A"
_symmetry_group_IT_number 67
_symmetry_cell_setting 'orthorhombic'
loop_
_space_group_symop_operation_xyz
x,y,z
-x,1/2-y,z
x,-y,-z
-x,1/2+y,-z
-x,-y,-z
x,1/2+y,-z
-x,y,z
x,1/2-y,z
1/2+x,1/2+y,z
1/2-x,-y,z
1/2+x,1/2-y,-z
1/2-x,y,-z
1/2-x,1/2-y,-z
1/2+x,y,-z
1/2-x,1/2+y,z
1/2+x,-y,z
loop_
_atom_site_type_symbol
_atom_site_label
_atom_site_fract_x
_atom_site_fract_y
_atom_site_fract_z
Si Si1 0.557035 0.916812 0.659343
Si Si2 0.941240 0.419906 0.446056
Si Si3 0.797737 0.071367 0.120942
Si Si4 0.103984 0.428855 0.245658
Si Si5 0.702201 0.570507 0.760831
Si Si6 0.000000 0.430838 0.058744
Si Si7 0.906007 0.572408 0.876255
O O1 0.500000 0.898915 0.647898
O O2 0.580581 0.750000 0.667872
O O3 0.580740 0.995099 0.606512
O O4 0.562313 0.020753 0.712555
O O5 0.921240 0.500000 0.500000
O O6 0.920799 0.250000 0.445204
O O7 0.000000 0.420431 0.445298
O O8 0.789929 0.250000 0.125725
O O9 0.852270 0.034513 0.096228
O O10 0.750000 0.000000 0.088901
O O11 0.798522 0.996409 0.179167
O O12 0.111232 0.250000 0.245453
O O13 0.153227 0.510188 0.268108
O O14 0.090821 0.488767 0.185345
O O15 0.704628 0.750000 0.761348
O O16 0.750000 0.500000 0.730778
O O17 0.048884 0.494807 0.088980
O O18 0.000000 0.250000 0.055363
O O19 0.000000 0.500000 0.000000
O O20 0.913187 0.750000 0.873790
#
# Coordination Sequence:
#
# PCOD8278033 Si02
#       7
#    16  16  16  16  16   8  16
#     4  10  20  31  42  62  94 128 158 196 240 282
#     4   9  16  27  43  61  82 115 159 202 240 282
#     4   9  15  26  44  70  95 121 151 187 229 282
#     4  10  19  31  47  69  93 123 159 193 233 287
#     4  10  17  27  43  64  92 124 153 187 228 276
#     4  10  20  38  56  72  92 122 159 202 239 278
#     4   8  17  31  50  70  93 122 157 192 236 288
#
# _framework density 17.490895999999999
#
# number of rings (size 3 to 8) (size 9 to 14) (size 15 to 20)
#    0.000    2.615    0.000    5.077    1.077    2.769 
#    0.000    4.615    0.000    0.462    0.000    3.231 
#    0.000    0.615    0.000    6.154    0.000    4.154 
#
# Total GULP energy -644253.527164 kJ/mol
# GULP energy per Si atom -12389.490907 kJ/mol
# Density = 1.745109 g / cm^3
# Si number density = 17.490896 Si / 1000 Ang^3
#
#
#
# Elastic Constant Matrix: (Units=GPa)
#
#
# Indices 1 2 3 4 5 6 
#
# 1 92.4559 38.6651 43.7012 0.0000 0.0000 0.0000
# 2 38.6651 109.4682 32.6984 0.0000 0.0000 0.0000
# 3 43.7012 32.6984 89.6315 0.0000 0.0000 0.0000
# 4 0.0000 0.0000 0.0000 23.5236 0.0000 0.0000
# 5 0.0000 0.0000 0.0000 0.0000 3.3258 0.0000
# 6 0.0000 0.0000 0.0000 0.0000 0.0000 24.6713
#
#
#
# Elastic Compliance Matrix: (Units=1/GPa)
#
#
# Indices 1 2 3 4 5 6 
#
# 1 0.015185 -0.003537 -0.006113 0.000000 0.000000 0.000000
# 2 -0.003537 0.011076 -0.002316 0.000000 0.000000 0.000000
# 3 -0.006113 -0.002316 0.014982 0.000000 0.000000 0.000000
# 4 0.000000 0.000000 0.000000 0.042510 0.000000 0.000000
# 5 0.000000 0.000000 0.000000 0.000000 0.300682 0.000000
# 6 0.000000 0.000000 0.000000 0.000000 0.000000 0.040533
#
#
# Mechanical properties :
#
#
# Convention : Reuss Voigt Hill
#
# Bulk Modulus (GPa) = 57.76913 57.96500 57.86707
# Shear Modulus (GPa) = 10.99695 22.07020 16.53358
#
# Velocity S-wave (km/s) = 2.51016 3.55605 3.07786
# Velocity P-wave (km/s) = 6.44213 7.07621 6.76660
#
# Compressibility (1/GPa) = 0.01731028
#
# Stress axis : x y z
#
# Youngs Moduli (GPa) = 65.85537 90.28275 66.74571
#
# Poissons Ratio (x) = 0.31937 0.40802
# Poissons Ratio (y) = 0.23296 0.15459
# Poissons Ratio (z) = 0.40258 0.20910
#
# Static dielectric constant tensor:
#      x y z
#    x 4.001010 0.000000 0.000000 
#    y 0.000000 3.339750 0.000000 
#    z 0.000000 0.000000 2.998410 
# 
# 
# High freq. dielectric constant tensor:
#      x y z
#    x 1.661960 0.000000 0.000000 
#    y 0.000000 1.680230 0.000000 
#    z 0.000000 0.000000 1.635890 
# 
# From -- ./inp_files/44951.got.cif
#   From: 2010.03.12/outbox.cif.g09.slc.cpg/sg67_23_cif.got.tgz:44951.got - 2010.04.10 22:41:39.
