data_PCOD8278024
_publ_section_title
;
Structure prediction by ZEFSAII (Michael W. Deem and Ramdas Pophale) SiO2 
 PCOD8278024
Probable space group: C M M A
;
_chemical_formula_sum "Si O2"
_cell_formula_units_Z 96
_cell_length_a 8.620158
_cell_length_b 27.250026
_cell_length_c 24.125078
_cell_angle_alpha 90.000000
_cell_angle_beta 90.000000
_cell_angle_gamma 90.000000
_cell_volume 5666.969474
_symmetry_space_group_name_H-M "C M M A"
_symmetry_group_IT_number 67
_symmetry_cell_setting 'orthorhombic'
loop_
_space_group_symop_operation_xyz
x,y,z
-x,1/2-y,z
x,-y,-z
-x,1/2+y,-z
-x,-y,-z
x,1/2+y,-z
-x,y,z
x,1/2-y,z
1/2+x,1/2+y,z
1/2-x,-y,z
1/2+x,1/2-y,-z
1/2-x,y,-z
1/2-x,1/2-y,-z
1/2+x,y,-z
1/2-x,1/2+y,z
1/2+x,-y,z
loop_
_atom_site_type_symbol
_atom_site_label
_atom_site_fract_x
_atom_site_fract_y
_atom_site_fract_z
Si Si1 0.684006 0.054653 0.555381
Si Si2 0.183074 0.054008 0.668160
Si Si3 0.182141 0.896300 0.773054
Si Si4 0.320532 0.146739 0.058285
Si Si5 0.682369 0.806042 0.830137
Si Si6 0.817654 0.948581 0.122282
O O1 0.500000 0.054870 0.554067
O O2 0.750000 0.081762 0.500000
O O3 0.746145 0.078743 0.612234
O O4 0.750000 0.000000 0.555678
O O5 0.227384 0.090074 0.717592
O O6 0.000000 0.049685 0.662001
O O7 0.250000 0.000000 0.679882
O O8 0.225396 0.840245 0.787472
O O9 0.233771 0.933292 0.821213
O O10 0.000000 0.901480 0.763276
O O11 0.500000 0.154621 0.050994
O O12 0.259811 0.182299 0.107323
O O13 0.279957 0.090613 0.074172
O O14 0.250000 0.162143 0.000000
O O15 0.500000 0.818228 0.825391
O O16 0.719807 0.750000 0.815337
O O17 0.000000 0.951984 0.134031
O O18 0.750000 0.000000 0.101260
#
# Coordination Sequence:
#
# PCOD8278024 Si02
#       6
#    16  16  16  16  16  16
#     4  10  17  27  41  61  90 127 168 205 239 274
#     4  11  20  31  46  67  96 131 167 201 238 277
#     4  11  21  33  49  71  96 121 154 195 236 281
#     4   9  19  33  49  70  95 121 151 187 226 274
#     4   9  19  37  56  72  93 121 150 185 234 286
#     4  10  20  34  49  67  92 124 158 191 231 275
#
# _framework density 16.940272
#
# number of rings (size 3 to 8) (size 9 to 14) (size 15 to 20)
#    0.000    2.000    0.000    8.000    0.000    4.333 
#    0.000    1.667    0.000    0.000    0.000    0.000 
#    0.000    0.667    0.000    2.500    0.000    4.167 
#
# Total GULP energy -595140.472098 kJ/mol
# GULP energy per Si atom -12398.759835 kJ/mol
# Density = 1.690172 g / cm^3
# Si number density = 16.940272 Si / 1000 Ang^3
#
#
#
# Elastic Constant Matrix: (Units=GPa)
#
#
# Indices 1 2 3 4 5 6 
#
# 1 108.9937 21.1337 36.8092 0.0000 0.0000 0.0000
# 2 21.1337 61.0499 20.5799 0.0000 0.0000 0.0000
# 3 36.8092 20.5799 118.7814 0.0000 0.0000 0.0000
# 4 0.0000 0.0000 0.0000 11.7090 0.0000 0.0000
# 5 0.0000 0.0000 0.0000 0.0000 31.7209 0.0000
# 6 0.0000 0.0000 0.0000 0.0000 0.0000 21.5063
#
#
#
# Elastic Compliance Matrix: (Units=1/GPa)
#
#
# Indices 1 2 3 4 5 6 
#
# 1 0.010661 -0.002737 -0.002830 0.000000 0.000000 0.000000
# 2 -0.002737 0.018099 -0.002288 0.000000 0.000000 0.000000
# 3 -0.002830 -0.002288 0.009692 0.000000 0.000000 0.000000
# 4 0.000000 0.000000 0.000000 0.085405 0.000000 0.000000
# 5 0.000000 0.000000 0.000000 0.000000 0.031525 0.000000
# 6 0.000000 0.000000 0.000000 0.000000 0.000000 0.046498
#
#
# Mechanical properties :
#
#
# Convention : Reuss Voigt Hill
#
# Bulk Modulus (GPa) = 43.96808 49.54120 46.75464
# Shear Modulus (GPa) = 22.20559 27.00738 24.60648
#
# Velocity S-wave (km/s) = 3.62445 3.99716 3.81536
# Velocity P-wave (km/s) = 6.59747 7.11416 6.86068
#
# Compressibility (1/GPa) = 0.02274377
#
# Stress axis : x y z
#
# Youngs Moduli (GPa) = 93.79902 55.25300 103.17726
#
# Poissons Ratio (x) = 0.15121 0.29195
# Poissons Ratio (y) = 0.25670 0.23603
# Poissons Ratio (z) = 0.26542 0.12640
#
# Static dielectric constant tensor:
#      x y z
#    x 3.223250 0.000000 0.000000 
#    y 0.000000 2.927610 0.000000 
#    z 0.000000 0.000000 3.808550 
# 
# 
# High freq. dielectric constant tensor:
#      x y z
#    x 1.666930 0.000000 0.000000 
#    y 0.000000 1.613180 0.000000 
#    z 0.000000 0.000000 1.657250 
# 
# From -- ./inp_files/40933.got.cif
#   From: 2010.03.12/outbox.cif.g09.slc.cpg/sg67_21_cif.got.tgz:40933.got - 2010.04.10 22:41:39.
