data_PCOD8278486
_publ_section_title
;
Structure prediction by ZEFSAII (Michael W. Deem and Ramdas Pophale) SiO2 
 PCOD8278486
Probable space group: C M M A
;
_chemical_formula_sum "Si O2"
_cell_formula_units_Z 56
_cell_length_a 21.019156
_cell_length_b 8.598866
_cell_length_c 14.587260
_cell_angle_alpha 90.000000
_cell_angle_beta 90.000000
_cell_angle_gamma 90.000000
_cell_volume 2636.514587
_symmetry_space_group_name_H-M "C M M A"
_symmetry_group_IT_number 67
_symmetry_cell_setting 'orthorhombic'
loop_
_space_group_symop_operation_xyz
x,y,z
-x,1/2-y,z
x,-y,-z
-x,1/2+y,-z
-x,-y,-z
x,1/2+y,-z
-x,y,z
x,1/2-y,z
1/2+x,1/2+y,z
1/2-x,-y,z
1/2+x,1/2-y,-z
1/2-x,y,-z
1/2-x,1/2-y,-z
1/2+x,y,-z
1/2-x,1/2+y,z
1/2+x,-y,z
loop_
_atom_site_type_symbol
_atom_site_label
_atom_site_fract_x
_atom_site_fract_y
_atom_site_fract_z
Si Si1 0.571288 0.066293 0.099111
Si Si2 0.685102 0.565271 0.772609
Si Si3 0.500000 0.065220 0.398384
Si Si4 0.129550 0.566250 0.600972
O O1 0.500000 0.014185 0.130912
O O2 0.574786 0.250000 0.093112
O O3 0.624735 0.004107 0.169055
O O4 0.587596 0.000000 0.000000
O O5 0.686673 0.750000 0.766457
O O6 0.750000 0.500000 0.818395
O O7 0.683410 0.490978 0.670665
O O8 0.500000 0.250000 0.394286
O O9 0.500000 0.000000 0.500000
O O10 0.564257 0.000388 0.353286
O O11 0.143194 0.500000 0.500000
O O12 0.126525 0.750000 0.593398
#
# Coordination Sequence:
#
# PCOD8278486 Si02
#       4
#    16  16   8  16
#     4   9  20  40  66  94 122 157 199 249 308 368
#     4  11  24  41  61  89 125 165 208 255 310 368
#     4  10  18  32  54  82 115 152 197 250 304 356
#     4  11  22  38  59  87 121 162 210 257 309 365
#
# _framework density 21.240162000000002
#
# number of rings (size 3 to 8) (size 9 to 14) (size 15 to 20)
#    0.000    1.714    0.000    6.429    2.000    3.429 
#    0.000    5.714    0.000    0.000    0.000    0.000 
#    0.000    0.000    0.000    0.000    0.000    0.000 
#
# Total GULP energy -347145.659977 kJ/mol
# GULP energy per Si atom -12398.059285 kJ/mol
# Density = 2.119182 g / cm^3
# Si number density = 21.240162 Si / 1000 Ang^3
#
#
#
# Elastic Constant Matrix: (Units=GPa)
#
#
# Indices 1 2 3 4 5 6 
#
# 1 151.2693 48.2392 77.7711 0.0000 0.0000 0.0000
# 2 48.2392 130.1809 37.3460 0.0000 0.0000 0.0000
# 3 77.7711 37.3460 102.9078 0.0000 0.0000 0.0000
# 4 0.0000 0.0000 0.0000 31.5920 0.0000 0.0000
# 5 0.0000 0.0000 0.0000 0.0000 20.4196 0.0000
# 6 0.0000 0.0000 0.0000 0.0000 0.0000 36.7897
#
#
#
# Elastic Compliance Matrix: (Units=1/GPa)
#
#
# Indices 1 2 3 4 5 6 
#
# 1 0.011228 -0.001927 -0.007786 0.000000 0.000000 0.000000
# 2 -0.001927 0.008905 -0.001775 0.000000 0.000000 0.000000
# 3 -0.007786 -0.001775 0.016246 0.000000 0.000000 0.000000
# 4 0.000000 0.000000 0.000000 0.031654 0.000000 0.000000
# 5 0.000000 0.000000 0.000000 0.000000 0.048972 0.000000
# 6 0.000000 0.000000 0.000000 0.000000 0.000000 0.027181
#
#
# Mechanical properties :
#
#
# Convention : Reuss Voigt Hill
#
# Bulk Modulus (GPa) = 74.61548 79.00785 76.81167
# Shear Modulus (GPa) = 29.13209 32.49371 30.81290
#
# Velocity S-wave (km/s) = 3.70747 3.91554 3.81293
# Velocity P-wave (km/s) = 7.31661 7.59737 7.45831
#
# Compressibility (1/GPa) = 0.01340204
#
# Stress axis : x y z
#
# Youngs Moduli (GPa) = 89.05981 112.29647 61.55293
#
# Poissons Ratio (x) = 0.21640 0.47927
# Poissons Ratio (y) = 0.17162 0.10928
# Poissons Ratio (z) = 0.69345 0.19937
#
# Static dielectric constant tensor:
#      x y z
#    x 4.011500 0.000000 0.000000 
#    y 0.000000 3.715230 0.000000 
#    z 0.000000 0.000000 3.747830 
# 
# 
# High freq. dielectric constant tensor:
#      x y z
#    x 1.846030 0.000000 0.000000 
#    y 0.000000 1.834700 0.000000 
#    z 0.000000 0.000000 1.820280 
# 
# From -- ./inp_files/24591.got.cif
#   From: 2010.03.12/outbox.cif.g09.slc.cpg/sg67_13_cif.got.tgz:24591.got - 2010.04.10 22:41:39.
