data_PCOD8278462
_publ_section_title
;
Structure prediction by ZEFSAII (Michael W. Deem and Ramdas Pophale) SiO2 
 PCOD8278462
Probable space group: C M M A
;
_chemical_formula_sum "Si O2"
_cell_formula_units_Z 120
_cell_length_a 23.576773
_cell_length_b 23.127820
_cell_length_c 12.028286
_cell_angle_alpha 90.000000
_cell_angle_beta 90.000000
_cell_angle_gamma 90.000000
_cell_volume 6558.776118
_symmetry_space_group_name_H-M "C M M A"
_symmetry_group_IT_number 67
_symmetry_cell_setting 'orthorhombic'
loop_
_space_group_symop_operation_xyz
x,y,z
-x,1/2-y,z
x,-y,-z
-x,1/2+y,-z
-x,-y,-z
x,1/2+y,-z
-x,y,z
x,1/2-y,z
1/2+x,1/2+y,z
1/2-x,-y,z
1/2+x,1/2-y,-z
1/2-x,y,-z
1/2-x,1/2-y,-z
1/2+x,y,-z
1/2-x,1/2+y,z
1/2+x,-y,z
loop_
_atom_site_type_symbol
_atom_site_label
_atom_site_fract_x
_atom_site_fract_y
_atom_site_fract_z
Si Si1 0.066997 0.001418 0.762324
Si Si2 0.874203 0.317985 0.798970
Si Si3 0.439095 0.129573 0.998420
Si Si4 0.434142 0.114569 0.632048
Si Si5 0.253107 0.181918 0.124052
Si Si6 0.631651 0.682297 0.198062
Si Si7 0.934026 0.885500 0.375165
Si Si8 0.921073 0.500000 0.000000
O O1 0.082571 0.055094 0.684947
O O2 0.000000 0.002723 0.796661
O O3 0.081339 0.944941 0.691944
O O4 0.106909 0.002174 0.875131
O O5 0.879944 0.250000 0.820414
O O6 0.809416 0.339756 0.812844
O O7 0.896387 0.333804 0.676143
O O8 0.913314 0.352472 0.884367
O O9 0.500000 0.160750 0.983249
O O10 0.397994 0.147462 0.900069
O O11 0.453140 0.061294 0.996006
O O12 0.500000 0.130544 0.648526
O O13 0.395835 0.165334 0.684325
O O14 0.418113 0.108569 0.503701
O O15 0.256616 0.250000 0.110516
O O16 0.197988 0.164641 0.196053
O O17 0.250000 0.154320 0.000000
O O18 0.623529 0.750000 0.176389
O O19 0.000000 0.870633 0.359570
#
# Coordination Sequence:
#
# PCOD8278462 Si02
#       8
#    16  16  16  16  16  16  16   8
#     4  10  18  32  53  79 111 146 185 221 264 327
#     4  11  22  36  56  81 110 145 185 226 274 329
#     4  12  22  33  53  84 118 145 174 219 278 333
#     4  10  21  36  55  80 112 150 187 225 270 321
#     4   9  18  36  57  77 104 145 188 224 268 326
#     4  11  22  36  56  81 110 145 185 226 274 329
#     4  10  21  36  55  80 112 150 187 225 270 321
#     4  12  21  32  54  85 116 145 178 220 267 324
#
# _framework density 18.296095999999999
#
# number of rings (size 3 to 8) (size 9 to 14) (size 15 to 20)
#    0.000    1.467    4.000    2.800    0.000    4.800 
#    0.000    2.000    0.000    6.400    0.000    1.867 
#    0.000    0.000    0.000    0.000    0.000    0.000 
#
# Total GULP energy -743373.249440 kJ/mol
# GULP energy per Si atom -12389.554157 kJ/mol
# Density = 1.825445 g / cm^3
# Si number density = 18.296096 Si / 1000 Ang^3
#
#
#
# Elastic Constant Matrix: (Units=GPa)
#
#
# Indices 1 2 3 4 5 6 
#
# 1 77.9286 35.8800 41.0642 0.0000 0.0000 0.0000
# 2 35.8800 80.2110 36.9630 0.0000 0.0000 0.0000
# 3 41.0642 36.9630 146.0213 0.0000 0.0000 0.0000
# 4 0.0000 0.0000 0.0000 29.4514 0.0000 0.0000
# 5 0.0000 0.0000 0.0000 0.0000 16.6691 0.0000
# 6 0.0000 0.0000 0.0000 0.0000 0.0000 2.0771
#
#
#
# Elastic Compliance Matrix: (Units=1/GPa)
#
#
# Indices 1 2 3 4 5 6 
#
# 1 0.017478 -0.006287 -0.003324 0.000000 0.000000 0.000000
# 2 -0.006287 0.016375 -0.002377 0.000000 0.000000 0.000000
# 3 -0.003324 -0.002377 0.008385 0.000000 0.000000 0.000000
# 4 0.000000 0.000000 0.000000 0.033954 0.000000 0.000000
# 5 0.000000 0.000000 0.000000 0.000000 0.059991 0.000000
# 6 0.000000 0.000000 0.000000 0.000000 0.000000 0.481445
#
#
# Mechanical properties :
#
#
# Convention : Reuss Voigt Hill
#
# Bulk Modulus (GPa) = 54.75693 59.10835 56.93264
# Shear Modulus (GPa) = 7.71972 22.32309 15.02141
#
# Velocity S-wave (km/s) = 2.05633 3.49678 2.86845
# Velocity P-wave (km/s) = 5.96918 6.97711 6.49273
#
# Compressibility (1/GPa) = 0.01826253
#
# Stress axis : x y z
#
# Youngs Moduli (GPa) = 57.21384 61.06991 119.26382
#
# Poissons Ratio (x) = 0.38393 0.39642
# Poissons Ratio (y) = 0.35968 0.28350
# Poissons Ratio (z) = 0.19017 0.14517
#
# Static dielectric constant tensor:
#      x y z
#    x 3.258150 0.000000 0.000000 
#    y 0.000000 3.378790 0.000000 
#    z 0.000000 0.000000 3.584840 
# 
# 
# High freq. dielectric constant tensor:
#      x y z
#    x 1.676120 0.000000 0.000000 
#    y 0.000000 1.706670 0.000000 
#    z 0.000000 0.000000 1.717410 
# 
# From -- ./inp_files/21166.got.cif
#   From: 2010.03.12/outbox.cif.g09.slc.cpg/sg67_11_cif.got.tgz:21166.got - 2010.04.10 22:41:39.
