data_PCOD8278214
_publ_section_title
;
Structure prediction by ZEFSAII (Michael W. Deem and Ramdas Pophale) SiO2 
 PCOD8278214
Probable space group: C M M A
;
_chemical_formula_sum "Si O2"
_cell_formula_units_Z 96
_cell_length_a 8.775493
_cell_length_b 30.553694
_cell_length_c 24.524167
_cell_angle_alpha 90.000000
_cell_angle_beta 90.000000
_cell_angle_gamma 90.000000
_cell_volume 6575.511078
_symmetry_space_group_name_H-M "C M M A"
_symmetry_group_IT_number 67
_symmetry_cell_setting 'orthorhombic'
loop_
_space_group_symop_operation_xyz
x,y,z
-x,1/2-y,z
x,-y,-z
-x,1/2+y,-z
-x,-y,-z
x,1/2+y,-z
-x,y,z
x,1/2-y,z
1/2+x,1/2+y,z
1/2-x,-y,z
1/2+x,1/2-y,-z
1/2-x,y,-z
1/2-x,1/2-y,-z
1/2+x,y,-z
1/2-x,1/2+y,z
1/2+x,-y,z
loop_
_atom_site_type_symbol
_atom_site_label
_atom_site_fract_x
_atom_site_fract_y
_atom_site_fract_z
Si Si1 0.182326 0.047147 0.557792
Si Si2 0.820882 0.800068 0.835224
Si Si3 0.819498 0.087291 0.340516
Si Si4 0.326087 0.459015 0.248324
Si Si5 0.828589 0.697901 0.054154
Si Si6 0.674826 0.864015 0.750793
O O1 0.250000 0.062163 0.500000
O O2 0.238394 0.083422 0.601000
O O3 0.000000 0.044753 0.555467
O O4 0.250000 0.000000 0.574039
O O5 0.768656 0.750000 0.826814
O O6 0.755428 0.819207 0.891742
O O7 0.760053 0.827330 0.784641
O O8 0.000000 0.804318 0.838126
O O9 0.769527 0.044919 0.304869
O O10 0.755198 0.130552 0.308625
O O11 0.000000 0.090384 0.347350
O O12 0.500000 0.470225 0.261524
O O13 0.250000 0.500000 0.215392
O O14 0.314647 0.411635 0.217903
O O15 0.821689 0.750000 0.052129
O O16 0.000000 0.680357 0.055906
O O17 0.750000 0.678355 0.000000
O O18 0.500000 0.849959 0.742596
#
# Coordination Sequence:
#
# PCOD8278214 Si02
#       6
#    16  16  16  16  16  16
#     4  11  20  30  41  58  82 111 146 180 215 260
#     4  10  19  30  45  65  90 120 151 183 221 263
#     4  10  18  29  43  58  81 111 142 178 216 255
#     4   9  17  27  41  60  81 109 141 175 213 256
#     4   9  16  26  41  61  86 116 148 180 214 256
#     4   9  19  31  43  62  85 113 149 184 219 262
#
# _framework density 14.599625
#
# number of rings (size 3 to 8) (size 9 to 14) (size 15 to 20)
#    1.000    1.333    0.000    5.500    0.000    3.000 
#    0.000    0.000    0.000    0.000    0.000    0.000 
#    0.000    1.333    0.000    9.500    0.000    8.167 
#
# Total GULP energy -594666.652677 kJ/mol
# GULP energy per Si atom -12388.888597 kJ/mol
# Density = 1.456640 g / cm^3
# Si number density = 14.599625 Si / 1000 Ang^3
#
#
#
# Elastic Constant Matrix: (Units=GPa)
#
#
# Indices 1 2 3 4 5 6 
#
# 1 110.9642 32.1751 48.1265 0.0000 0.0000 0.0000
# 2 32.1751 45.0926 40.8013 0.0000 0.0000 0.0000
# 3 48.1265 40.8013 101.3241 0.0000 0.0000 0.0000
# 4 0.0000 0.0000 0.0000 0.0320 0.0000 0.0000
# 5 0.0000 0.0000 0.0000 0.0000 28.0136 0.0000
# 6 0.0000 0.0000 0.0000 0.0000 0.0000 20.7215
#
#
#
# Elastic Compliance Matrix: (Units=1/GPa)
#
#
# Indices 1 2 3 4 5 6 
#
# 1 0.012137 -0.005418 -0.003583 0.000000 0.000000 0.000000
# 2 -0.005418 0.037307 -0.012449 0.000000 0.000000 0.000000
# 3 -0.003583 -0.012449 0.016584 0.000000 0.000000 0.000000
# 4 0.000000 0.000000 0.000000 31.225474 0.000000 0.000000
# 5 0.000000 0.000000 0.000000 0.000000 0.035697 0.000000
# 6 0.000000 0.000000 0.000000 0.000000 0.000000 0.048259
#
#
# Mechanical properties :
#
#
# Convention : Reuss Voigt Hill
#
# Bulk Modulus (GPa) = 43.23871 55.50962 49.37417
# Shear Modulus (GPa) = 0.15910 18.83863 9.49887
#
# Velocity S-wave (km/s) = 0.33048 3.59604 2.55350
# Velocity P-wave (km/s) = 5.46134 7.43948 6.52580
#
# Compressibility (1/GPa) = 0.02312742
#
# Stress axis : x y z
#
# Youngs Moduli (GPa) = 82.39324 26.80441 60.29795
#
# Poissons Ratio (x) = 0.14523 0.21605
# Poissons Ratio (y) = 0.44641 0.75068
# Poissons Ratio (z) = 0.29521 0.33370
#
# Static dielectric constant tensor:
#      x y z
#    x 2.966020 0.000000 0.000000 
#    y 0.000000 2.577020 0.000000 
#    z 0.000000 0.000000 2.756930 
# 
# 
# High freq. dielectric constant tensor:
#      x y z
#    x 1.584140 0.000000 0.000000 
#    y 0.000000 1.512380 0.000000 
#    z 0.000000 0.000000 1.536230 
# 
# From -- ./inp_files/43813.got.cif
#   From: 2010.03.12/outbox.cif.g09.slc.cpg/sg67_22_cif.got.tgz:43813.got - 2010.04.10 22:41:39.
