data_PCOD8278139
_publ_section_title
;
Structure prediction by ZEFSAII (Michael W. Deem and Ramdas Pophale) SiO2 
 PCOD8278139
Probable space group: C M M A
;
_chemical_formula_sum "Si O2"
_cell_formula_units_Z 80
_cell_length_a 28.921100
_cell_length_b 17.842497
_cell_length_c 7.915314
_cell_angle_alpha 90.000000
_cell_angle_beta 90.000000
_cell_angle_gamma 90.000000
_cell_volume 4084.497057
_symmetry_space_group_name_H-M "C M M A"
_symmetry_group_IT_number 67
_symmetry_cell_setting 'orthorhombic'
loop_
_space_group_symop_operation_xyz
x,y,z
-x,1/2-y,z
x,-y,-z
-x,1/2+y,-z
-x,-y,-z
x,1/2+y,-z
-x,y,z
x,1/2-y,z
1/2+x,1/2+y,z
1/2-x,-y,z
1/2+x,1/2-y,-z
1/2-x,y,-z
1/2-x,1/2-y,-z
1/2+x,y,-z
1/2-x,1/2+y,z
1/2+x,-y,z
loop_
_atom_site_type_symbol
_atom_site_label
_atom_site_fract_x
_atom_site_fract_y
_atom_site_fract_z
Si Si1 0.640058 0.916955 0.305688
Si Si2 0.948477 0.428473 0.109097
Si Si3 0.551614 0.164398 0.206698
Si Si4 0.358702 0.908725 0.674222
Si Si5 0.802363 0.910398 0.007329
O O1 0.585501 0.910166 0.263701
O O2 0.652769 0.877667 0.485225
O O3 0.651310 0.003861 0.323175
O O4 0.670371 0.879399 0.156855
O O5 0.000000 0.446309 0.179242
O O6 0.929975 0.500000 0.000000
O O7 0.949239 0.355414 0.991265
O O8 0.500000 0.152077 0.282689
O O9 0.567647 0.250000 0.228145
O O10 0.587425 0.109815 0.299104
O O11 0.326380 0.875457 0.823917
O O12 0.750000 0.881009 0.000000
O O13 0.804498 0.000000 0.000000
#
# Coordination Sequence:
#
# PCOD8278139 Si02
#       5
#    16  16  16  16  16
#     4  10  18  30  51  80 105 131 174 219 261 307
#     4  10  17  30  52  75 103 137 175 218 259 307
#     4  10  20  34  52  75 108 146 177 212 261 310
#     4  10  19  31  51  77 105 137 174 214 259 312
#     4   9  17  31  50  76 110 138 166 215 271 313
#
# _framework density 19.586255000000001
#
# number of rings (size 3 to 8) (size 9 to 14) (size 15 to 20)
#    0.000    2.200    4.000    0.600    0.000    1.600 
#    0.000    7.000    0.000    3.000    0.000    1.400 
#    0.000    0.000    0.000    0.000    0.000    0.000 
#
# Total GULP energy -495653.253672 kJ/mol
# GULP energy per Si atom -12391.331342 kJ/mol
# Density = 1.954168 g / cm^3
# Si number density = 19.586255 Si / 1000 Ang^3
#
#
#
# Elastic Constant Matrix: (Units=GPa)
#
#
# Indices 1 2 3 4 5 6 
#
# 1 136.3141 6.0289 84.0190 0.0000 0.0000 0.0000
# 2 6.0289 21.7585 8.5717 0.0000 0.0000 0.0000
# 3 84.0190 8.5717 177.7273 0.0000 0.0000 0.0000
# 4 0.0000 0.0000 0.0000 7.5418 0.0000 0.0000
# 5 0.0000 0.0000 0.0000 0.0000 15.2541 0.0000
# 6 0.0000 0.0000 0.0000 0.0000 0.0000 4.5891
#
#
#
# Elastic Compliance Matrix: (Units=1/GPa)
#
#
# Indices 1 2 3 4 5 6 
#
# 1 0.010372 -0.000961 -0.004857 0.000000 0.000000 0.000000
# 2 -0.000961 0.046938 -0.001810 0.000000 0.000000 0.000000
# 3 -0.004857 -0.001810 0.008010 0.000000 0.000000 0.000000
# 4 0.000000 0.000000 0.000000 0.132595 0.000000 0.000000
# 5 0.000000 0.000000 0.000000 0.000000 0.065556 0.000000
# 6 0.000000 0.000000 0.000000 0.000000 0.000000 0.217910
#
#
# Mechanical properties :
#
#
# Convention : Reuss Voigt Hill
#
# Bulk Modulus (GPa) = 19.97378 59.22657 39.60018
# Shear Modulus (GPa) = 9.74043 21.28900 15.51472
#
# Velocity S-wave (km/s) = 2.23246 3.30045 2.81752
# Velocity P-wave (km/s) = 4.10672 6.69540 5.55399
#
# Compressibility (1/GPa) = 0.05006564
#
# Stress axis : x y z
#
# Youngs Moduli (GPa) = 96.41175 21.30469 124.84396
#
# Poissons Ratio (x) = 0.02046 0.60637
# Poissons Ratio (y) = 0.09261 0.22593
# Poissons Ratio (z) = 0.46827 0.03856
#
# Static dielectric constant tensor:
#      x y z
#    x 3.649780 0.000000 0.000000 
#    y 0.000000 3.026850 0.000000 
#    z 0.000000 0.000000 4.047380 
# 
# 
# High freq. dielectric constant tensor:
#      x y z
#    x 1.763720 0.000000 0.000000 
#    y 0.000000 1.700160 0.000000 
#    z 0.000000 0.000000 1.757650 
# 
# From -- ./inp_files/14572.got.cif
#   From: 2010.03.12/outbox.cif.g09.slc.cpg/sg67_8_cif.got.tgz:14572.got - 2010.04.10 22:41:39.
