data_PCOD8278378
_publ_section_title
;
Structure prediction by ZEFSAII (Michael W. Deem and Ramdas Pophale) SiO2 
 PCOD8278378
Probable space group: C M M A
;
_chemical_formula_sum "Si O2"
_cell_formula_units_Z 96
_cell_length_a 25.433220
_cell_length_b 8.521319
_cell_length_c 25.452617
_cell_angle_alpha 90.000000
_cell_angle_beta 90.000000
_cell_angle_gamma 90.000000
_cell_volume 5516.207750
_symmetry_space_group_name_H-M "C M M A"
_symmetry_group_IT_number 67
_symmetry_cell_setting 'orthorhombic'
loop_
_space_group_symop_operation_xyz
x,y,z
-x,1/2-y,z
x,-y,-z
-x,1/2+y,-z
-x,-y,-z
x,1/2+y,-z
-x,y,z
x,1/2-y,z
1/2+x,1/2+y,z
1/2-x,-y,z
1/2+x,1/2-y,-z
1/2-x,y,-z
1/2-x,1/2-y,-z
1/2+x,y,-z
1/2-x,1/2+y,z
1/2+x,-y,z
loop_
_atom_site_type_symbol
_atom_site_label
_atom_site_fract_x
_atom_site_fract_y
_atom_site_fract_z
Si Si1 0.808618 0.563957 0.754149
Si Si2 0.500000 0.434496 0.442634
Si Si3 0.892274 0.435741 0.058522
Si Si4 0.613370 0.935793 0.558102
Si Si5 0.191157 0.564197 0.138022
Si Si6 0.000000 0.063943 0.941334
Si Si7 0.808287 0.063586 0.646789
O O1 0.809860 0.750000 0.758100
O O2 0.750000 0.500000 0.751442
O O3 0.834794 0.491084 0.806550
O O4 0.835304 0.504916 0.700083
O O5 0.500000 0.250000 0.445064
O O6 0.500000 0.500000 0.500000
O O7 0.444056 0.489939 0.418007
O O8 0.893792 0.250000 0.057171
O O9 0.842889 0.494548 0.091245
O O10 0.946463 0.499417 0.085346
O O11 0.885694 0.500000 0.000000
O O12 0.616231 0.750000 0.554354
O O13 0.657177 0.998858 0.598130
O O14 0.624473 0.000000 0.500000
O O15 0.191862 0.750000 0.134797
O O16 0.250000 0.500000 0.132241
O O17 0.000000 0.250000 0.940012
O O18 0.000000 0.000000 0.000000
O O19 0.807135 0.250000 0.650802
O O20 0.750000 0.000000 0.637782
#
# Coordination Sequence:
#
# PCOD8278378 Si02
#       7
#    16   8  16  16  16   8  16
#     4  10  18  31  50  71  93 124 162 201 239 284
#     4   8  14  28  46  65  86 115 152 192 228 270
#     4  11  21  35  53  77 105 136 170 208 250 296
#     4   9  18  30  47  68  93 121 154 191 234 280
#     4  11  21  35  53  76 103 133 166 205 249 299
#     4  10  18  32  52  75 100 133 172 210 248 292
#     4  10  19  31  46  68  94 124 156 192 234 282
#
# _framework density 17.403261000000001
#
# number of rings (size 3 to 8) (size 9 to 14) (size 15 to 20)
#    0.000    2.000    0.000    8.750    0.000    2.000 
#    0.000    3.333    0.000    1.000    0.000    4.667 
#    0.000    0.000    0.000    0.000    0.000    0.000 
#
# Total GULP energy -594776.971115 kJ/mol
# GULP energy per Si atom -12391.186898 kJ/mol
# Density = 1.736365 g / cm^3
# Si number density = 17.403261 Si / 1000 Ang^3
#
#
#
# Elastic Constant Matrix: (Units=GPa)
#
#
# Indices 1 2 3 4 5 6 
#
# 1 106.8420 40.6222 67.4523 0.0000 0.0000 0.0000
# 2 40.6222 130.0509 44.0000 0.0000 0.0000 0.0000
# 3 67.4523 44.0000 116.0011 0.0000 0.0000 0.0000
# 4 0.0000 0.0000 0.0000 28.1228 0.0000 0.0000
# 5 0.0000 0.0000 0.0000 0.0000 2.3880 0.0000
# 6 0.0000 0.0000 0.0000 0.0000 0.0000 24.5560
#
#
#
# Elastic Compliance Matrix: (Units=1/GPa)
#
#
# Indices 1 2 3 4 5 6 
#
# 1 0.015238 -0.002021 -0.008094 0.000000 0.000000 0.000000
# 2 -0.002021 0.009089 -0.002272 0.000000 0.000000 0.000000
# 3 -0.008094 -0.002272 0.014189 0.000000 0.000000 0.000000
# 4 0.000000 0.000000 0.000000 0.035558 0.000000 0.000000
# 5 0.000000 0.000000 0.000000 0.000000 0.418764 0.000000
# 6 0.000000 0.000000 0.000000 0.000000 0.000000 0.040723
#
#
# Mechanical properties :
#
#
# Convention : Reuss Voigt Hill
#
# Bulk Modulus (GPa) = 72.77303 73.00475 72.88889
# Shear Modulus (GPa) = 8.88229 24.40133 16.64181
#
# Velocity S-wave (km/s) = 2.26161 3.74854 3.09568
# Velocity P-wave (km/s) = 6.98043 7.79586 7.39938
#
# Compressibility (1/GPa) = 0.01374135
#
# Stress axis : x y z
#
# Youngs Moduli (GPa) = 65.62525 110.01748 70.47725
#
# Poissons Ratio (x) = 0.22238 0.57044
# Poissons Ratio (y) = 0.13265 0.16015
# Poissons Ratio (z) = 0.53117 0.25000
#
# Static dielectric constant tensor:
#      x y z
#    x 3.791770 0.000000 0.000000 
#    y 0.000000 3.263390 0.000000 
#    z 0.000000 0.000000 3.629870 
# 
# 
# High freq. dielectric constant tensor:
#      x y z
#    x 1.660530 0.000000 0.000000 
#    y 0.000000 1.690180 0.000000 
#    z 0.000000 0.000000 1.659030 
# 
# From -- ./inp_files/42575.got.cif
#   From: 2010.03.12/outbox.cif.g09.slc.cpg/sg67_22_cif.got.tgz:42575.got - 2010.04.10 22:41:39.
