data_PCOD8278006
_publ_section_title
;
Structure prediction by ZEFSAII (Michael W. Deem and Ramdas Pophale) SiO2 
 PCOD8278006
Probable space group: C M M A
;
_chemical_formula_sum "Si O2"
_cell_formula_units_Z 96
_cell_length_a 26.439865
_cell_length_b 10.229512
_cell_length_c 22.222381
_cell_angle_alpha 90.000000
_cell_angle_beta 90.000000
_cell_angle_gamma 90.000000
_cell_volume 6010.418862
_symmetry_space_group_name_H-M "C M M A"
_symmetry_group_IT_number 67
_symmetry_cell_setting 'orthorhombic'
loop_
_space_group_symop_operation_xyz
x,y,z
-x,1/2-y,z
x,-y,-z
-x,1/2+y,-z
-x,-y,-z
x,1/2+y,-z
-x,y,z
x,1/2-y,z
1/2+x,1/2+y,z
1/2-x,-y,z
1/2+x,1/2-y,-z
1/2-x,y,-z
1/2-x,1/2-y,-z
1/2+x,y,-z
1/2-x,1/2+y,z
1/2+x,-y,z
loop_
_atom_site_type_symbol
_atom_site_label
_atom_site_fract_x
_atom_site_fract_y
_atom_site_fract_z
Si Si1 0.939962 0.507386 0.359481
Si Si2 0.292781 0.897100 0.822914
Si Si3 0.345747 0.598607 0.949124
Si Si4 0.559937 0.750000 0.427438
Si Si5 0.102461 0.400951 0.761741
Si Si6 0.055807 0.094948 0.883944
Si Si7 0.440047 0.750000 0.561890
O O1 0.921428 0.375837 0.391265
O O2 0.911757 0.513918 0.295888
O O3 0.921142 0.623266 0.402550
O O4 0.000000 0.512592 0.348739
O O5 0.271117 0.750000 0.817019
O O6 0.311172 0.920074 0.890885
O O7 0.338409 0.916468 0.776215
O O8 0.250000 0.000000 0.805503
O O9 0.344064 0.750000 0.971183
O O10 0.403045 0.552284 0.933469
O O11 0.325113 0.500000 0.000000
O O12 0.500000 0.750000 0.432708
O O13 0.583301 0.750000 0.494685
O O14 0.088353 0.250000 0.749208
O O15 0.070325 0.457986 0.817855
O O16 0.057795 0.250000 0.879468
O O17 0.000000 0.043512 0.902375
O O18 0.500000 0.750000 0.557272
#
# Coordination Sequence:
#
# PCOD8278006 Si02
#       7
#    16  16  16   8  16  16   8
#     4  10  17  26  43  65  92 127 158 184 217 256
#     4   9  19  35  51  68  90 113 141 186 235 273
#     4   9  18  31  47  68  92 116 145 181 218 263
#     4   9  18  28  36  58  99 133 154 185 219 249
#     4   9  16  28  46  68  89 111 152 194 220 262
#     4   8  14  25  43  65  89 118 150 185 218 249
#     4   9  16  26  42  62  87 127 168 187 207 249
#
# _framework density 15.972263999999999
#
# number of rings (size 3 to 8) (size 9 to 14) (size 15 to 20)
#    0.000    3.000    0.833    3.000    0.000    4.000 
#    1.500    1.667    1.833    0.000    0.000    0.000 
#    0.000    4.000    0.000    0.000    0.000    0.000 
#
# Total GULP energy -595026.642850 kJ/mol
# GULP energy per Si atom -12396.388393 kJ/mol
# Density = 1.593591 g / cm^3
# Si number density = 15.972264 Si / 1000 Ang^3
#
#
#
# Elastic Constant Matrix: (Units=GPa)
#
#
# Indices 1 2 3 4 5 6 
#
# 1 44.9308 21.8654 9.1725 0.0000 0.0000 0.0000
# 2 21.8654 93.4333 46.9046 0.0000 0.0000 0.0000
# 3 9.1725 46.9046 93.5012 0.0000 0.0000 0.0000
# 4 0.0000 0.0000 0.0000 19.3744 0.0000 0.0000
# 5 0.0000 0.0000 0.0000 0.0000 12.3403 0.0000
# 6 0.0000 0.0000 0.0000 0.0000 0.0000 16.6765
#
#
#
# Elastic Compliance Matrix: (Units=1/GPa)
#
#
# Indices 1 2 3 4 5 6 
#
# 1 0.025146 -0.006210 0.000649 0.000000 0.000000 0.000000
# 2 -0.006210 0.015839 -0.007336 0.000000 0.000000 0.000000
# 3 0.000649 -0.007336 0.014312 0.000000 0.000000 0.000000
# 4 0.000000 0.000000 0.000000 0.051615 0.000000 0.000000
# 5 0.000000 0.000000 0.000000 0.000000 0.081036 0.000000
# 6 0.000000 0.000000 0.000000 0.000000 0.000000 0.059965
#
#
# Mechanical properties :
#
#
# Convention : Reuss Voigt Hill
#
# Bulk Modulus (GPa) = 33.89748 43.08335 38.49042
# Shear Modulus (GPa) = 17.63408 19.93975 18.78692
#
# Velocity S-wave (km/s) = 3.32632 3.53710 3.43333
# Velocity P-wave (km/s) = 6.00178 6.61165 6.31408
#
# Compressibility (1/GPa) = 0.02950072
#
# Stress axis : x y z
#
# Youngs Moduli (GPa) = 39.76731 63.13465 69.87269
#
# Poissons Ratio (x) = 0.39209 -0.04532
# Poissons Ratio (y) = 0.24697 0.51262
# Poissons Ratio (z) = -0.02579 0.46318
#
# Static dielectric constant tensor:
#      x y z
#    x 2.836630 0.000000 0.000000 
#    y 0.000000 2.898340 0.000000 
#    z 0.000000 0.000000 3.002640 
# 
# 
# High freq. dielectric constant tensor:
#      x y z
#    x 1.579470 0.000000 0.000000 
#    y 0.000000 1.598920 0.000000 
#    z 0.000000 0.000000 1.613780 
# 
# From -- ./inp_files/39686.got.cif
#   From: 2010.03.12/outbox.cif.g09.slc.cpg/sg67_20_cif.got.tgz:39686.got - 2010.04.10 22:41:39.
