data_PCOD8278693
_publ_section_title
;
Structure prediction by ZEFSAII (Michael W. Deem and Ramdas Pophale) SiO2 
 PCOD8278693
Probable space group: C M M A
;
_chemical_formula_sum "Si O2"
_cell_formula_units_Z 96
_cell_length_a 8.529875
_cell_length_b 23.485017
_cell_length_c 25.566305
_cell_angle_alpha 90.000000
_cell_angle_beta 90.000000
_cell_angle_gamma 90.000000
_cell_volume 5121.551114
_symmetry_space_group_name_H-M "C M M A"
_symmetry_group_IT_number 67
_symmetry_cell_setting 'orthorhombic'
loop_
_space_group_symop_operation_xyz
x,y,z
-x,1/2-y,z
x,-y,-z
-x,1/2+y,-z
-x,-y,-z
x,1/2+y,-z
-x,y,z
x,1/2-y,z
1/2+x,1/2+y,z
1/2-x,-y,z
1/2+x,1/2-y,-z
1/2-x,y,-z
1/2-x,1/2-y,-z
1/2+x,y,-z
1/2-x,1/2+y,z
1/2+x,-y,z
loop_
_atom_site_type_symbol
_atom_site_label
_atom_site_fract_x
_atom_site_fract_y
_atom_site_fract_z
Si Si1 0.817072 0.855718 0.237724
Si Si2 0.320544 0.750000 0.182808
Si Si3 0.824625 0.817592 0.447174
Si Si4 0.182829 0.183938 0.338877
Si Si5 0.683842 0.129570 0.947190
Si Si6 0.680903 0.750000 0.926026
Si Si7 0.686712 0.437349 0.844480
O O1 0.707275 0.805533 0.216768
O O2 0.780096 0.857045 0.299603
O O3 0.765144 0.913299 0.208475
O O4 0.000000 0.844084 0.228028
O O5 0.500000 0.750000 0.162085
O O6 0.197688 0.750000 0.136101
O O7 0.826472 0.750000 0.451470
O O8 0.750000 0.843639 0.500000
O O9 0.722549 0.836747 0.397367
O O10 0.000000 0.841540 0.440831
O O11 0.233400 0.250000 0.331014
O O12 0.000000 0.175942 0.328511
O O13 0.500000 0.124798 0.948550
O O14 0.736252 0.194824 0.949250
O O15 0.745772 0.099509 0.894360
O O16 0.750000 0.099487 0.000000
O O17 0.500000 0.750000 0.941948
O O18 0.500000 0.436660 0.838943
O O19 0.750000 0.500000 0.853664
#
# Coordination Sequence:
#
# PCOD8278693 Si02
#       7
#    16   8  16  16  16   8  16
#     4  12  23  36  57  83 111 143 183 227 276 331
#     4  12  22  35  55  82 113 145 179 219 274 329
#     4   9  16  26  40  61  95 139 187 228 268 319
#     4  10  19  30  47  72 106 144 183 227 275 324
#     4  11  24  41  62  86 116 147 180 223 271 323
#     4  12  23  37  60  88 117 147 181 219 268 325
#     4  11  25  44  64  83 109 143 182 228 276 328
#
# _framework density 18.744320999999999
#
# number of rings (size 3 to 8) (size 9 to 14) (size 15 to 20)
#    0.000    1.167    2.500    5.250    0.000    5.000 
#    0.000    1.667    0.000    0.000    0.000    0.000 
#    0.000    0.667    0.000    6.667    0.000    4.333 
#
# Total GULP energy -595278.349683 kJ/mol
# GULP energy per Si atom -12401.632285 kJ/mol
# Density = 1.870166 g / cm^3
# Si number density = 18.744321 Si / 1000 Ang^3
#
#
#
# Elastic Constant Matrix: (Units=GPa)
#
#
# Indices 1 2 3 4 5 6 
#
# 1 94.9168 23.6841 38.0992 0.0000 0.0000 0.0000
# 2 23.6841 72.1007 35.2724 0.0000 0.0000 0.0000
# 3 38.0992 35.2724 144.9801 0.0000 0.0000 0.0000
# 4 0.0000 0.0000 0.0000 12.1551 0.0000 0.0000
# 5 0.0000 0.0000 0.0000 0.0000 36.9839 0.0000
# 6 0.0000 0.0000 0.0000 0.0000 0.0000 21.3168
#
#
#
# Elastic Compliance Matrix: (Units=1/GPa)
#
#
# Indices 1 2 3 4 5 6 
#
# 1 0.012250 -0.002780 -0.002543 0.000000 0.000000 0.000000
# 2 -0.002780 0.016374 -0.003253 0.000000 0.000000 0.000000
# 3 -0.002543 -0.003253 0.008357 0.000000 0.000000 0.000000
# 4 0.000000 0.000000 0.000000 0.082270 0.000000 0.000000
# 5 0.000000 0.000000 0.000000 0.000000 0.027039 0.000000
# 6 0.000000 0.000000 0.000000 0.000000 0.000000 0.046911
#
#
# Mechanical properties :
#
#
# Convention : Reuss Voigt Hill
#
# Bulk Modulus (GPa) = 50.43017 56.23435 53.33226
# Shear Modulus (GPa) = 23.04543 28.42063 25.73303
#
# Velocity S-wave (km/s) = 3.51017 3.89810 3.70921
# Velocity P-wave (km/s) = 6.58719 7.09409 6.84533
#
# Compressibility (1/GPa) = 0.01982940
#
# Stress axis : x y z
#
# Youngs Moduli (GPa) = 81.63344 61.07190 119.65758
#
# Poissons Ratio (x) = 0.16978 0.30427
# Poissons Ratio (y) = 0.22694 0.38926
# Poissons Ratio (z) = 0.20758 0.19868
#
# Static dielectric constant tensor:
#      x y z
#    x 3.509650 0.000000 0.000000 
#    y 0.000000 3.007370 0.000000 
#    z 0.000000 0.000000 3.800120 
# 
# 
# High freq. dielectric constant tensor:
#      x y z
#    x 1.743650 0.000000 0.000000 
#    y 0.000000 1.667810 0.000000 
#    z 0.000000 0.000000 1.745780 
# 
# From -- ./inp_files/40839.got.cif
#   From: 2010.03.12/outbox.cif.g09.slc.cpg/sg67_21_cif.got.tgz:40839.got - 2010.04.10 22:41:39.
