data_PCOD8278056
_publ_section_title
;
Structure prediction by ZEFSAII (Michael W. Deem and Ramdas Pophale) SiO2 
 PCOD8278056
Probable space group: C M M A
;
_chemical_formula_sum "Si O2"
_cell_formula_units_Z 80
_cell_length_a 8.621894
_cell_length_b 18.440122
_cell_length_c 26.200786
_cell_angle_alpha 90.000000
_cell_angle_beta 90.000000
_cell_angle_gamma 90.000000
_cell_volume 4165.630929
_symmetry_space_group_name_H-M "C M M A"
_symmetry_group_IT_number 67
_symmetry_cell_setting 'orthorhombic'
loop_
_space_group_symop_operation_xyz
x,y,z
-x,1/2-y,z
x,-y,-z
-x,1/2+y,-z
-x,-y,-z
x,1/2+y,-z
-x,y,z
x,1/2-y,z
1/2+x,1/2+y,z
1/2-x,-y,z
1/2+x,1/2-y,-z
1/2-x,y,-z
1/2-x,1/2-y,-z
1/2+x,y,-z
1/2-x,1/2+y,z
1/2+x,-y,z
loop_
_atom_site_type_symbol
_atom_site_label
_atom_site_fract_x
_atom_site_fract_y
_atom_site_fract_z
Si Si1 0.184065 0.919145 0.551048
Si Si2 0.683514 0.167747 0.052946
Si Si3 0.815818 0.080007 0.654685
Si Si4 0.815689 0.168618 0.752702
Si Si5 0.684326 0.079851 0.150245
O O1 0.250000 0.879287 0.500000
O O2 0.246923 0.882771 0.603151
O O3 0.000000 0.918973 0.549926
O O4 0.250000 0.000000 0.551488
O O5 0.500000 0.165260 0.050646
O O6 0.742362 0.250000 0.061666
O O7 0.746561 0.118516 0.099033
O O8 0.750000 0.136340 0.000000
O O9 0.758768 0.129421 0.701353
O O10 0.000000 0.075769 0.650376
O O11 0.750000 0.000000 0.663654
O O12 0.747673 0.250000 0.753930
O O13 0.751905 0.124976 0.801497
O O14 0.000000 0.170989 0.754409
O O15 0.500000 0.076957 0.150783
O O16 0.750000 0.000000 0.153286
#
# Coordination Sequence:
#
# PCOD8278056 Si02
#       5
#    16  16  16  16  16
#     4  10  17  27  44  68  99 130 163 201 242 289
#     4   9  18  33  53  75 100 133 171 208 246 291
#     4  10  18  29  48  73 100 128 160 200 245 292
#     4   9  18  33  53  74  96 127 167 206 244 292
#     4  10  20  34  53  76 102 131 165 206 250 296
#
# _framework density 19.204772999999999
#
# number of rings (size 3 to 8) (size 9 to 14) (size 15 to 20)
#    0.000    2.400    0.000    5.400    0.000    3.600 
#    0.000    3.000    0.000    7.200    0.000    0.000 
#    0.000    0.000    0.000    0.000    0.000    0.000 
#
# Total GULP energy -495907.118744 kJ/mol
# GULP energy per Si atom -12397.677969 kJ/mol
# Density = 1.916106 g / cm^3
# Si number density = 19.204773 Si / 1000 Ang^3
#
#
#
# Elastic Constant Matrix: (Units=GPa)
#
#
# Indices 1 2 3 4 5 6 
#
# 1 67.0494 22.4760 44.4724 0.0000 0.0000 0.0000
# 2 22.4760 116.5907 94.7039 0.0000 0.0000 0.0000
# 3 44.4724 94.7039 230.3501 0.0000 0.0000 0.0000
# 4 0.0000 0.0000 0.0000 19.4554 0.0000 0.0000
# 5 0.0000 0.0000 0.0000 0.0000 18.4200 0.0000
# 6 0.0000 0.0000 0.0000 0.0000 0.0000 19.7473
#
#
#
# Elastic Compliance Matrix: (Units=1/GPa)
#
#
# Indices 1 2 3 4 5 6 
#
# 1 0.017171 -0.000927 -0.002934 0.000000 0.000000 0.000000
# 2 -0.000927 0.012927 -0.005136 0.000000 0.000000 0.000000
# 3 -0.002934 -0.005136 0.007019 0.000000 0.000000 0.000000
# 4 0.000000 0.000000 0.000000 0.051400 0.000000 0.000000
# 5 0.000000 0.000000 0.000000 0.000000 0.054289 0.000000
# 6 0.000000 0.000000 0.000000 0.000000 0.000000 0.050640
#
#
# Mechanical properties :
#
#
# Convention : Reuss Voigt Hill
#
# Bulk Modulus (GPa) = 52.29018 81.92164 67.10591
# Shear Modulus (GPa) = 22.95528 28.34706 25.65117
#
# Velocity S-wave (km/s) = 3.46105 3.84610 3.65864
# Velocity P-wave (km/s) = 6.57713 7.90397 7.27088
#
# Compressibility (1/GPa) = 0.01912405
#
# Stress axis : x y z
#
# Youngs Moduli (GPa) = 58.23709 77.35451 142.46619
#
# Poissons Ratio (x) = 0.07170 0.41800
# Poissons Ratio (y) = 0.05398 0.73170
# Poissons Ratio (z) = 0.17087 0.39729
#
# Static dielectric constant tensor:
#      x y z
#    x 3.261970 0.000000 0.000000 
#    y 0.000000 3.346540 0.000000 
#    z 0.000000 0.000000 4.368540 
# 
# 
# High freq. dielectric constant tensor:
#      x y z
#    x 1.727310 0.000000 0.000000 
#    y 0.000000 1.715800 0.000000 
#    z 0.000000 0.000000 1.776080 
# 
# From -- ./inp_files/43217.got.cif
#   From: 2010.03.12/outbox.cif.g09.slc.cpg/sg67_22_cif.got.tgz:43217.got - 2010.04.10 22:41:39.
