data_PCOD8278846
_publ_section_title
;
Structure prediction by ZEFSAII (Michael W. Deem and Ramdas Pophale) SiO2 
 PCOD8278846
Probable space group: C M M A
;
_chemical_formula_sum "Si O2"
_cell_formula_units_Z 120
_cell_length_a 8.784659
_cell_length_b 27.205188
_cell_length_c 25.975069
_cell_angle_alpha 90.000000
_cell_angle_beta 90.000000
_cell_angle_gamma 90.000000
_cell_volume 6207.737573
_symmetry_space_group_name_H-M "C M M A"
_symmetry_group_IT_number 67
_symmetry_cell_setting 'orthorhombic'
loop_
_space_group_symop_operation_xyz
x,y,z
-x,1/2-y,z
x,-y,-z
-x,1/2+y,-z
-x,-y,-z
x,1/2+y,-z
-x,y,z
x,1/2-y,z
1/2+x,1/2+y,z
1/2-x,-y,z
1/2+x,1/2-y,-z
1/2-x,y,-z
1/2-x,1/2-y,-z
1/2+x,y,-z
1/2-x,1/2+y,z
1/2+x,-y,z
loop_
_atom_site_type_symbol
_atom_site_label
_atom_site_fract_x
_atom_site_fract_y
_atom_site_fract_z
Si Si1 0.172043 0.804652 0.818599
Si Si2 0.821656 0.651465 0.615534
Si Si3 0.176267 0.950292 0.245291
Si Si4 0.320205 0.553402 0.050675
Si Si5 0.818593 0.750000 0.556161
Si Si6 0.328451 0.694660 0.709534
Si Si7 0.319583 0.552681 0.637682
Si Si8 0.323013 0.892631 0.855608
O O1 0.169729 0.750000 0.841283
O O2 0.262222 0.806233 0.765792
O O3 0.265906 0.836722 0.859579
O O4 0.000000 0.824188 0.810834
O O5 0.761617 0.698792 0.582748
O O6 0.780964 0.662283 0.674477
O O7 0.742891 0.598471 0.602657
O O8 0.000000 0.644750 0.607861
O O9 0.231755 0.936606 0.302992
O O10 0.215899 0.908885 0.203160
O O11 0.000000 0.960913 0.247435
O O12 0.250000 0.000000 0.224821
O O13 0.500000 0.551070 0.045296
O O14 0.250000 0.500000 0.053058
O O15 0.276153 0.578672 0.103551
O O16 0.250000 0.580589 0.000000
O O17 0.750000 0.750000 0.500000
O O18 0.000000 0.750000 0.555302
O O19 0.500000 0.672114 0.709718
O O20 0.332327 0.750000 0.687967
O O21 0.500000 0.549978 0.630805
O O22 0.250000 0.500000 0.619713
O O23 0.500000 0.898309 0.868863
#
# Coordination Sequence:
#
# PCOD8278846 Si02
#       8
#    16  16  16  16   8  16  16  16
#     4  10  21  35  51  74 107 146 185 227 271 319
#     4  11  21  36  57  83 114 149 188 236 286 338
#     4   9  19  32  48  73 108 144 182 220 260 313
#     4  11  22  38  58  81 107 135 172 219 273 329
#     4  10  24  42  62  88 118 148 186 236 295 348
#     4  10  19  31  50  78 110 147 189 230 274 328
#     4  10  20  35  54  81 115 155 196 233 273 328
#     4  11  21  34  53  78 107 141 181 225 273 328
#
# _framework density 19.330714
#
# number of rings (size 3 to 8) (size 9 to 14) (size 15 to 20)
#    0.000    1.733    0.667    4.800    0.000    6.133 
#    0.000    0.000    0.000    0.800    0.000    2.800 
#    0.000    0.000    0.000    0.000    0.000    0.000 
#
# Total GULP energy -743696.205987 kJ/mol
# GULP energy per Si atom -12394.936766 kJ/mol
# Density = 1.928672 g / cm^3
# Si number density = 19.330714 Si / 1000 Ang^3
#
#
#
# Elastic Constant Matrix: (Units=GPa)
#
#
# Indices 1 2 3 4 5 6 
#
# 1 96.4690 51.9099 29.1804 0.0000 0.0000 0.0000
# 2 51.9099 132.0144 43.9816 0.0000 0.0000 0.0000
# 3 29.1804 43.9816 45.0013 0.0000 0.0000 0.0000
# 4 0.0000 0.0000 0.0000 13.1264 0.0000 0.0000
# 5 0.0000 0.0000 0.0000 0.0000 26.9924 0.0000
# 6 0.0000 0.0000 0.0000 0.0000 0.0000 34.3843
#
#
#
# Elastic Compliance Matrix: (Units=1/GPa)
#
#
# Indices 1 2 3 4 5 6 
#
# 1 0.014005 -0.003680 -0.005485 0.000000 0.000000 0.000000
# 2 -0.003680 0.012199 -0.009537 0.000000 0.000000 0.000000
# 3 -0.005485 -0.009537 0.035099 0.000000 0.000000 0.000000
# 4 0.000000 0.000000 0.000000 0.076182 0.000000 0.000000
# 5 0.000000 0.000000 0.000000 0.000000 0.037047 0.000000
# 6 0.000000 0.000000 0.000000 0.000000 0.000000 0.029083
#
#
# Mechanical properties :
#
#
# Convention : Reuss Voigt Hill
#
# Bulk Modulus (GPa) = 41.84059 58.18095 50.01077
# Shear Modulus (GPa) = 20.08150 24.79481 22.43816
#
# Velocity S-wave (km/s) = 3.22660 3.58532 3.41068
# Velocity P-wave (km/s) = 5.96430 6.87767 6.43720
#
# Compressibility (1/GPa) = 0.02390024
#
# Stress axis : x y z
#
# Youngs Moduli (GPa) = 71.40201 81.97405 28.49089
#
# Poissons Ratio (x) = 0.30163 0.15628
# Poissons Ratio (y) = 0.26273 0.27171
# Poissons Ratio (z) = 0.39166 0.78175
#
# Static dielectric constant tensor:
#      x y z
#    x 3.598010 0.000000 0.000000 
#    y 0.000000 4.162690 0.000000 
#    z 0.000000 0.000000 5.025440 
# 
# 
# High freq. dielectric constant tensor:
#      x y z
#    x 1.762930 0.000000 0.000000 
#    y 0.000000 1.762020 0.000000 
#    z 0.000000 0.000000 1.713550 
# 
# From -- ./inp_files/43898.got.cif
#   From: 2010.03.12/outbox.cif.g09.slc.cpg/sg67_22_cif.got.tgz:43898.got - 2010.04.10 22:41:39.
