data_PCOD8278902
_publ_section_title
;
Structure prediction by ZEFSAII (Michael W. Deem and Ramdas Pophale) SiO2 
 PCOD8278902
Probable space group: C M M A
;
_chemical_formula_sum "Si O2"
_cell_formula_units_Z 104
_cell_length_a 26.831421
_cell_length_b 9.163920
_cell_length_c 23.984758
_cell_angle_alpha 90.000000
_cell_angle_beta 90.000000
_cell_angle_gamma 90.000000
_cell_volume 5897.396175
_symmetry_space_group_name_H-M "C M M A"
_symmetry_group_IT_number 67
_symmetry_cell_setting 'orthorhombic'
loop_
_space_group_symop_operation_xyz
x,y,z
-x,1/2-y,z
x,-y,-z
-x,1/2+y,-z
-x,-y,-z
x,1/2+y,-z
-x,y,z
x,1/2-y,z
1/2+x,1/2+y,z
1/2-x,-y,z
1/2+x,1/2-y,-z
1/2-x,y,-z
1/2-x,1/2-y,-z
1/2+x,y,-z
1/2-x,1/2+y,z
1/2+x,-y,z
loop_
_atom_site_type_symbol
_atom_site_label
_atom_site_fract_x
_atom_site_fract_y
_atom_site_fract_z
Si Si1 0.890939 0.579005 0.059359
Si Si2 0.557125 0.583137 0.768813
Si Si3 0.862371 0.578351 0.837578
Si Si4 0.399496 0.420861 0.671073
Si Si5 0.799934 0.418050 0.267497
Si Si6 0.500000 0.585765 0.944366
Si Si7 0.556787 0.580383 0.445469
O O1 0.878218 0.750000 0.052721
O O2 0.853353 0.504323 0.103579
O O3 0.947030 0.555018 0.086039
O O4 0.884965 0.500000 0.000000
O O5 0.500000 0.578601 0.787714
O O6 0.576999 0.750000 0.771013
O O7 0.587206 0.480638 0.810425
O O8 0.562414 0.518844 0.706586
O O9 0.867986 0.750000 0.848310
O O10 0.816875 0.543431 0.795670
O O11 0.410516 0.250000 0.682965
O O12 0.343110 0.461168 0.688670
O O13 0.408037 0.460474 0.606567
O O14 0.787243 0.250000 0.272424
O O15 0.750000 0.500000 0.284005
O O16 0.500000 0.750000 0.964765
O O17 0.500000 0.500000 0.000000
O O18 0.577878 0.500000 0.500000
O O19 0.500000 0.531454 0.432454
O O20 0.559126 0.750000 0.458394
#
# Coordination Sequence:
#
# PCOD8278902 Si02
#       7
#    16  16  16  16  16   8  16
#     4  10  19  32  49  70  98 132 167 204 242 288
#     4  10  20  31  45  69 100 131 164 204 246 290
#     4  10  21  35  50  72  98 128 164 201 245 300
#     4   9  18  33  51  72  99 132 169 206 248 300
#     4   9  19  35  55  76  97 121 158 206 256 309
#     4   8  16  28  42  62  90 124 162 196 225 264
#     4   9  17  29  47  72 104 141 175 206 240 281
#
# _framework density 17.634900999999999
#
# number of rings (size 3 to 8) (size 9 to 14) (size 15 to 20)
#    0.000    2.615    0.000    2.769    1.077    6.154 
#    0.000    1.538    0.000    0.923    0.000    6.462 
#    0.000    0.000    0.000    0.000    0.000    0.000 
#
# Total GULP energy -644497.319391 kJ/mol
# GULP energy per Si atom -12394.179219 kJ/mol
# Density = 1.759476 g / cm^3
# Si number density = 17.634901 Si / 1000 Ang^3
#
#
#
# Elastic Constant Matrix: (Units=GPa)
#
#
# Indices 1 2 3 4 5 6 
#
# 1 66.1809 28.8160 31.1485 0.0000 0.0000 0.0000
# 2 28.8160 72.5856 41.8158 0.0000 0.0000 0.0000
# 3 31.1485 41.8158 107.2300 0.0000 0.0000 0.0000
# 4 0.0000 0.0000 0.0000 32.8439 0.0000 0.0000
# 5 0.0000 0.0000 0.0000 0.0000 15.8764 0.0000
# 6 0.0000 0.0000 0.0000 0.0000 0.0000 25.9313
#
#
#
# Elastic Compliance Matrix: (Units=1/GPa)
#
#
# Indices 1 2 3 4 5 6 
#
# 1 0.019159 -0.005675 -0.003352 0.000000 0.000000 0.000000
# 2 -0.005675 0.019449 -0.005936 0.000000 0.000000 0.000000
# 3 -0.003352 -0.005936 0.012614 0.000000 0.000000 0.000000
# 4 0.000000 0.000000 0.000000 0.030447 0.000000 0.000000
# 5 0.000000 0.000000 0.000000 0.000000 0.062987 0.000000
# 6 0.000000 0.000000 0.000000 0.000000 0.000000 0.038563
#
#
# Mechanical properties :
#
#
# Convention : Reuss Voigt Hill
#
# Bulk Modulus (GPa) = 46.95671 49.95078 48.45374
# Shear Modulus (GPa) = 22.70201 24.54472 23.62337
#
# Velocity S-wave (km/s) = 3.59184 3.73477 3.66400
# Velocity P-wave (km/s) = 6.62470 6.85452 6.74059
#
# Compressibility (1/GPa) = 0.02129621
#
# Stress axis : x y z
#
# Youngs Moduli (GPa) = 52.19560 51.41557 79.27420
#
# Poissons Ratio (x) = 0.29176 0.26576
# Poissons Ratio (y) = 0.29619 0.47058
# Poissons Ratio (z) = 0.17498 0.30521
#
# Static dielectric constant tensor:
#      x y z
#    x 3.013220 0.000000 0.000000 
#    y 0.000000 3.325260 0.000000 
#    z 0.000000 0.000000 3.287580 
# 
# 
# High freq. dielectric constant tensor:
#      x y z
#    x 1.648520 0.000000 0.000000 
#    y 0.000000 1.690170 0.000000 
#    z 0.000000 0.000000 1.678470 
# 
# From -- ./inp_files/42755.got.cif
#   From: 2010.03.12/outbox.cif.g09.slc.cpg/sg67_22_cif.got.tgz:42755.got - 2010.04.10 22:41:39.
