data_PCOD8278551
_publ_section_title
;
Structure prediction by ZEFSAII (Michael W. Deem and Ramdas Pophale) SiO2 
 PCOD8278551
Probable space group: C M M A
;
_chemical_formula_sum "Si O2"
_cell_formula_units_Z 80
_cell_length_a 20.886206
_cell_length_b 25.334729
_cell_length_c 7.457912
_cell_angle_alpha 90.000000
_cell_angle_beta 90.000000
_cell_angle_gamma 90.000000
_cell_volume 3946.327054
_symmetry_space_group_name_H-M "C M M A"
_symmetry_group_IT_number 67
_symmetry_cell_setting 'orthorhombic'
loop_
_space_group_symop_operation_xyz
x,y,z
-x,1/2-y,z
x,-y,-z
-x,1/2+y,-z
-x,-y,-z
x,1/2+y,-z
-x,y,z
x,1/2-y,z
1/2+x,1/2+y,z
1/2-x,-y,z
1/2+x,1/2-y,-z
1/2-x,y,-z
1/2-x,1/2-y,-z
1/2+x,y,-z
1/2-x,1/2+y,z
1/2+x,-y,z
loop_
_atom_site_type_symbol
_atom_site_label
_atom_site_fract_x
_atom_site_fract_y
_atom_site_fract_z
Si Si1 0.569987 0.366984 0.494064
Si Si2 0.116231 0.431414 0.194335
Si Si3 0.693007 0.691481 0.640118
Si Si4 0.114606 0.948377 0.220099
Si Si5 0.243637 0.909250 0.201019
O O1 0.500000 0.339468 0.476715
O O2 0.572398 0.390708 0.696228
O O3 0.626201 0.325354 0.453244
O O4 0.570609 0.414995 0.352015
O O5 0.093146 0.491129 0.229485
O O6 0.186446 0.419320 0.283408
O O7 0.111107 0.422379 0.980188
O O8 0.683476 0.750000 0.722885
O O9 0.750000 0.691866 0.500000
O O10 0.716866 0.650938 0.791852
O O11 0.188631 0.945674 0.289741
O O12 0.250000 0.928568 0.000000
#
# Coordination Sequence:
#
# PCOD8278551 Si02
#       5
#    16  16  16  16  16
#     4  11  23  37  54  79 111 147 184 223 273 324
#     4  10  18  34  53  80 113 148 182 220 266 317
#     4  10  20  37  59  81 104 134 181 233 278 325
#     4   9  20  32  53  81 113 147 183 221 263 321
#     4   9  17  32  54  83 112 140 177 227 277 325
#
# _framework density 20.272013999999999
#
# number of rings (size 3 to 8) (size 9 to 14) (size 15 to 20)
#    0.000    2.200    2.000    1.200    0.000    5.600 
#    0.000    4.000    0.000    0.000    0.000    2.800 
#    0.000    0.000    0.000    0.000    0.000    0.000 
#
# Total GULP energy -495544.749906 kJ/mol
# GULP energy per Si atom -12388.618748 kJ/mol
# Density = 2.022587 g / cm^3
# Si number density = 20.272014 Si / 1000 Ang^3
#
#
#
# Elastic Constant Matrix: (Units=GPa)
#
#
# Indices 1 2 3 4 5 6 
#
# 1 116.9165 13.4297 12.2816 0.0000 0.0000 0.0000
# 2 13.4297 71.7473 0.9840 0.0000 0.0000 0.0000
# 3 12.2816 0.9840 51.9682 0.0000 0.0000 0.0000
# 4 0.0000 0.0000 0.0000 20.7371 0.0000 0.0000
# 5 0.0000 0.0000 0.0000 0.0000 19.2819 0.0000
# 6 0.0000 0.0000 0.0000 0.0000 0.0000 2.2811
#
#
#
# Elastic Compliance Matrix: (Units=1/GPa)
#
#
# Indices 1 2 3 4 5 6 
#
# 1 0.008962 -0.001649 -0.002087 0.000000 0.000000 0.000000
# 2 -0.001649 0.014245 0.000120 0.000000 0.000000 0.000000
# 3 -0.002087 0.000120 0.019733 0.000000 0.000000 0.000000
# 4 0.000000 0.000000 0.000000 0.048223 0.000000 0.000000
# 5 0.000000 0.000000 0.000000 0.000000 0.051862 0.000000
# 6 0.000000 0.000000 0.000000 0.000000 0.000000 0.438392
#
#
# Mechanical properties :
#
#
# Convention : Reuss Voigt Hill
#
# Bulk Modulus (GPa) = 28.00436 32.66919 30.33678
# Shear Modulus (GPa) = 8.32569 22.72246 15.52407
#
# Velocity S-wave (km/s) = 2.02877 3.35158 2.77029
# Velocity P-wave (km/s) = 4.39683 5.57924 5.02295
#
# Compressibility (1/GPa) = 0.03570872
#
# Stress axis : x y z
#
# Youngs Moduli (GPa) = 111.58591 70.20111 50.67550
#
# Poissons Ratio (x) = 0.11575 0.10574
# Poissons Ratio (y) = 0.18399 -0.00608
# Poissons Ratio (z) = 0.23285 -0.00842
#
# Static dielectric constant tensor:
#      x y z
#    x 3.872020 0.000000 0.000000 
#    y 0.000000 3.730420 0.000000 
#    z 0.000000 0.000000 3.537630 
# 
# 
# High freq. dielectric constant tensor:
#      x y z
#    x 1.795240 0.000000 0.000000 
#    y 0.000000 1.765600 0.000000 
#    z 0.000000 0.000000 1.778710 
# 
# From -- ./inp_files/9935.got.cif
#   From: 2010.03.12/outbox.cif.g09.slc.cpg/sg67_5_cif.got.tgz:9935.got - 2010.04.10 22:41:39.
