data_PCOD8278008
_publ_section_title
;
Structure prediction by ZEFSAII (Michael W. Deem and Ramdas Pophale) SiO2 
 PCOD8278008
Probable space group: C M M A
;
_chemical_formula_sum "Si O2"
_cell_formula_units_Z 80
_cell_length_a 8.732740
_cell_length_b 26.405623
_cell_length_c 18.737403
_cell_angle_alpha 90.000000
_cell_angle_beta 90.000000
_cell_angle_gamma 90.000000
_cell_volume 4320.722218
_symmetry_space_group_name_H-M "C M M A"
_symmetry_group_IT_number 67
_symmetry_cell_setting 'orthorhombic'
loop_
_space_group_symop_operation_xyz
x,y,z
-x,1/2-y,z
x,-y,-z
-x,1/2+y,-z
-x,-y,-z
x,1/2+y,-z
-x,y,z
x,1/2-y,z
1/2+x,1/2+y,z
1/2-x,-y,z
1/2+x,1/2-y,-z
1/2-x,y,-z
1/2-x,1/2-y,-z
1/2+x,y,-z
1/2-x,1/2+y,z
1/2+x,-y,z
loop_
_atom_site_type_symbol
_atom_site_label
_atom_site_fract_x
_atom_site_fract_y
_atom_site_fract_z
Si Si1 0.681048 0.250000 0.577768
Si Si2 0.181941 0.153629 0.332933
Si Si3 0.178020 0.841174 0.828063
Si Si4 0.321045 0.451799 0.823172
Si Si5 0.819543 0.550578 0.332474
Si Si6 0.817209 0.750000 0.921925
O O1 0.500000 0.250000 0.572529
O O2 0.750000 0.250000 0.500000
O O3 0.738717 0.299571 0.619597
O O4 0.244956 0.162498 0.252241
O O5 0.253001 0.102303 0.366691
O O6 0.000000 0.147710 0.332413
O O7 0.206362 0.897544 0.861565
O O8 0.249513 0.799219 0.880407
O O9 0.000000 0.829156 0.822020
O O10 0.500000 0.460343 0.808137
O O11 0.250000 0.500000 0.867171
O O12 0.229559 0.449850 0.749674
O O13 0.750000 0.500000 0.370116
O O14 0.000000 0.549774 0.341290
O O15 0.000000 0.750000 0.926795
O O16 0.750000 0.750000 0.000000
#
# Coordination Sequence:
#
# PCOD8278008 Si02
#       6
#     8  16  16  16  16   8
#     4  10  21  35  53  73  99 130 162 198 242 290
#     4   9  17  32  52  74  96 127 166 201 234 280
#     4   8  15  28  49  70  91 120 158 194 229 273
#     4   9  15  25  42  67  95 123 153 190 233 282
#     4  10  17  26  43  70 101 130 156 194 241 286
#     4  10  19  33  49  67  91 122 156 196 240 284
#
# _framework density 18.515423999999999
#
# number of rings (size 3 to 8) (size 9 to 14) (size 15 to 20)
#    0.000    2.800    0.000    5.400    0.000    3.200 
#    0.000    5.000    0.000    2.400    0.000    8.400 
#    0.000    0.000    0.000    0.000    0.000    0.000 
#
# Total GULP energy -495594.164354 kJ/mol
# GULP energy per Si atom -12389.854109 kJ/mol
# Density = 1.847328 g / cm^3
# Si number density = 18.515424 Si / 1000 Ang^3
#
#
#
# Elastic Constant Matrix: (Units=GPa)
#
#
# Indices 1 2 3 4 5 6 
#
# 1 63.9868 53.7441 20.1877 0.0000 0.0000 0.0000
# 2 53.7441 225.5496 69.7286 0.0000 0.0000 0.0000
# 3 20.1877 69.7286 71.7769 0.0000 0.0000 0.0000
# 4 0.0000 0.0000 0.0000 4.5020 0.0000 0.0000
# 5 0.0000 0.0000 0.0000 0.0000 18.4363 0.0000
# 6 0.0000 0.0000 0.0000 0.0000 0.0000 30.5361
#
#
#
# Elastic Compliance Matrix: (Units=1/GPa)
#
#
# Indices 1 2 3 4 5 6 
#
# 1 0.019636 -0.004247 -0.001397 0.000000 0.000000 0.000000
# 2 -0.004247 0.007255 -0.005854 0.000000 0.000000 0.000000
# 3 -0.001397 -0.005854 0.020012 0.000000 0.000000 0.000000
# 4 0.000000 0.000000 0.000000 0.222125 0.000000 0.000000
# 5 0.000000 0.000000 0.000000 0.000000 0.054241 0.000000
# 6 0.000000 0.000000 0.000000 0.000000 0.000000 0.032748
#
#
# Mechanical properties :
#
#
# Convention : Reuss Voigt Hill
#
# Bulk Modulus (GPa) = 41.82766 72.07045 56.94906
# Shear Modulus (GPa) = 12.92052 25.20508 19.06280
#
# Velocity S-wave (km/s) = 2.64450 3.69358 3.21216
# Velocity P-wave (km/s) = 5.65370 7.56301 6.67695
#
# Compressibility (1/GPa) = 0.02390762
#
# Stress axis : x y z
#
# Youngs Moduli (GPa) = 50.92649 137.83068 49.97098
#
# Poissons Ratio (x) = 0.58537 0.06981
# Poissons Ratio (y) = 0.21629 0.29252
# Poissons Ratio (z) = 0.07114 0.80682
#
# Static dielectric constant tensor:
#      x y z
#    x 3.215610 0.000000 0.000000 
#    y 0.000000 4.510820 0.000000 
#    z 0.000000 0.000000 2.901350 
# 
# 
# High freq. dielectric constant tensor:
#      x y z
#    x 1.698240 0.000000 0.000000 
#    y 0.000000 1.754900 0.000000 
#    z 0.000000 0.000000 1.650980 
# 
# From -- ./inp_files/37089.got.cif
#   From: 2010.03.12/outbox.cif.g09.slc.cpg/sg67_19_cif.got.tgz:37089.got - 2010.04.10 22:41:39.
