data_PCOD8278286
_publ_section_title
;
Structure prediction by ZEFSAII (Michael W. Deem and Ramdas Pophale) SiO2 
 PCOD8278286
Probable space group: C M M A
;
_chemical_formula_sum "Si O2"
_cell_formula_units_Z 128
_cell_length_a 24.928595
_cell_length_b 16.991834
_cell_length_c 18.333511
_cell_angle_alpha 90.000000
_cell_angle_beta 90.000000
_cell_angle_gamma 90.000000
_cell_volume 7765.755305
_symmetry_space_group_name_H-M "C M M A"
_symmetry_group_IT_number 67
_symmetry_cell_setting 'orthorhombic'
loop_
_space_group_symop_operation_xyz
x,y,z
-x,1/2-y,z
x,-y,-z
-x,1/2+y,-z
-x,-y,-z
x,1/2+y,-z
-x,y,z
x,1/2-y,z
1/2+x,1/2+y,z
1/2-x,-y,z
1/2+x,1/2-y,-z
1/2-x,y,-z
1/2-x,1/2-y,-z
1/2+x,y,-z
1/2-x,1/2+y,z
1/2+x,-y,z
loop_
_atom_site_type_symbol
_atom_site_label
_atom_site_fract_x
_atom_site_fract_y
_atom_site_fract_z
Si Si1 0.167958 0.657353 0.487158
Si Si2 0.813914 0.837026 0.005993
Si Si3 0.440681 0.656332 0.584553
Si Si4 0.752879 0.157568 0.236232
Si Si5 0.301893 0.551264 0.115216
Si Si6 0.760046 0.407740 0.392174
Si Si7 0.152019 0.898082 0.161785
Si Si8 0.061503 0.661151 0.252778
O O1 0.168939 0.750000 0.502673
O O2 0.107469 0.627842 0.468255
O O3 0.187919 0.611484 0.558697
O O4 0.207823 0.639029 0.420218
O O5 0.834891 0.750000 0.983431
O O6 0.832983 0.906521 0.951771
O O7 0.750000 0.838239 0.000000
O O8 0.835447 0.853972 0.086432
O O9 0.500000 0.627781 0.556764
O O10 0.440960 0.750000 0.589265
O O11 0.430215 0.624060 0.666464
O O12 0.763351 0.250000 0.236812
O O13 0.786021 0.119980 0.170419
O O14 0.773309 0.119529 0.310973
O O15 0.690541 0.136989 0.224613
O O16 0.250000 0.500000 0.089367
O O17 0.342550 0.491863 0.153856
O O18 0.750000 0.500000 0.395831
O O19 0.092103 0.886409 0.189988
O O20 0.083273 0.750000 0.252275
O O21 0.000000 0.657670 0.229923
#
# Coordination Sequence:
#
# PCOD8278286 Si02
#       8
#    16  16  16  16  16  16  16  16
#     4  10  18  30  48  68  92 122 157 188 228 288
#     4  11  19  29  45  66  94 131 168 198 230 276
#     4   8  15  28  48  72  95 119 151 196 243 284
#     4  11  20  31  46  67  95 125 162 194 229 287
#     4  10  20  30  44  65  96 127 156 193 237 280
#     4  11  21  32  44  64  95 131 158 192 234 281
#     4  11  20  29  47  72  98 129 157 193 244 290
#     4   9  17  30  47  70  99 128 161 201 244 289
#
# _framework density 16.482621000000002
#
# number of rings (size 3 to 8) (size 9 to 14) (size 15 to 20)
#    0.000    1.875    2.500    6.750    0.000    1.000 
#    0.000    0.000    0.000    3.000    0.000    2.625 
#    0.000    2.500    0.000    0.250    0.000    0.000 
#
# Total GULP energy -793382.591644 kJ/mol
# GULP energy per Si atom -12396.602994 kJ/mol
# Density = 1.644511 g / cm^3
# Si number density = 16.482621 Si / 1000 Ang^3
#
#
#
# Elastic Constant Matrix: (Units=GPa)
#
#
# Indices 1 2 3 4 5 6 
#
# 1 89.8871 33.3846 46.2299 0.0000 0.0000 0.0000
# 2 33.3846 104.7136 38.4064 0.0000 0.0000 0.0000
# 3 46.2299 38.4064 96.9037 0.0000 0.0000 0.0000
# 4 0.0000 0.0000 0.0000 22.2534 0.0000 0.0000
# 5 0.0000 0.0000 0.0000 0.0000 23.5534 0.0000
# 6 0.0000 0.0000 0.0000 0.0000 0.0000 13.8645
#
#
#
# Elastic Compliance Matrix: (Units=1/GPa)
#
#
# Indices 1 2 3 4 5 6 
#
# 1 0.015315 -0.002578 -0.006285 0.000000 0.000000 0.000000
# 2 -0.002578 0.011608 -0.003371 0.000000 0.000000 0.000000
# 3 -0.006285 -0.003371 0.014654 0.000000 0.000000 0.000000
# 4 0.000000 0.000000 0.000000 0.044937 0.000000 0.000000
# 5 0.000000 0.000000 0.000000 0.000000 0.042457 0.000000
# 6 0.000000 0.000000 0.000000 0.000000 0.000000 0.072127
#
#
# Mechanical properties :
#
#
# Convention : Reuss Voigt Hill
#
# Bulk Modulus (GPa) = 58.44487 58.61624 58.53056
# Shear Modulus (GPa) = 21.62009 23.49982 22.55996
#
# Velocity S-wave (km/s) = 3.62566 3.77998 3.70362
# Velocity P-wave (km/s) = 7.28441 7.39532 7.34007
#
# Compressibility (1/GPa) = 0.01711014
#
# Stress axis : x y z
#
# Youngs Moduli (GPa) = 65.29711 86.14732 68.24184
#
# Poissons Ratio (x) = 0.22205 0.42887
# Poissons Ratio (y) = 0.16831 0.23004
# Poissons Ratio (z) = 0.41037 0.29040
#
# Static dielectric constant tensor:
#      x y z
#    x 2.960880 0.000000 0.000000 
#    y 0.000000 3.222960 0.000000 
#    z 0.000000 0.000000 3.184160 
# 
# 
# High freq. dielectric constant tensor:
#      x y z
#    x 1.595040 0.000000 0.000000 
#    y 0.000000 1.634120 0.000000 
#    z 0.000000 0.000000 1.637160 
# 
# From -- ./inp_files/35637.got.cif
#   From: 2010.03.12/outbox.cif.g09.slc.cpg/sg67_18_cif.got.tgz:35637.got - 2010.04.10 22:41:39.
