data_PCOD8278199
_publ_section_title
;
Structure prediction by ZEFSAII (Michael W. Deem and Ramdas Pophale) SiO2 
 PCOD8278199
Probable space group: C M M A
;
_chemical_formula_sum "Si O2"
_cell_formula_units_Z 120
_cell_length_a 9.050676
_cell_length_b 26.724964
_cell_length_c 29.600260
_cell_angle_alpha 90.000000
_cell_angle_beta 90.000000
_cell_angle_gamma 90.000000
_cell_volume 7159.681001
_symmetry_space_group_name_H-M "C M M A"
_symmetry_group_IT_number 67
_symmetry_cell_setting 'orthorhombic'
loop_
_space_group_symop_operation_xyz
x,y,z
-x,1/2-y,z
x,-y,-z
-x,1/2+y,-z
-x,-y,-z
x,1/2+y,-z
-x,y,z
x,1/2-y,z
1/2+x,1/2+y,z
1/2-x,-y,z
1/2+x,1/2-y,-z
1/2-x,y,-z
1/2-x,1/2-y,-z
1/2+x,y,-z
1/2-x,1/2+y,z
1/2+x,-y,z
loop_
_atom_site_type_symbol
_atom_site_label
_atom_site_fract_x
_atom_site_fract_y
_atom_site_fract_z
Si Si1 0.833723 0.309562 0.543727
Si Si2 0.674697 0.447687 0.121289
Si Si3 0.673533 0.307201 0.633519
Si Si4 0.672661 0.550359 0.774493
Si Si5 0.674577 0.750000 0.048037
Si Si6 0.672378 0.303590 0.808789
Si Si7 0.328135 0.364371 0.722890
Si Si8 0.825516 0.649494 0.898395
O O1 0.830901 0.250000 0.542009
O O2 0.750000 0.331591 0.500000
O O3 0.753939 0.328227 0.589117
O O4 0.000000 0.330281 0.543416
O O5 0.500000 0.451874 0.113294
O O6 0.750000 0.500000 0.106383
O O7 0.714570 0.436417 0.173765
O O8 0.740101 0.402422 0.089910
O O9 0.500000 0.309690 0.624747
O O10 0.720928 0.250000 0.644320
O O11 0.720992 0.343195 0.674462
O O12 0.500000 0.543855 0.769149
O O13 0.750000 0.500000 0.759444
O O14 0.728126 0.589753 0.737673
O O15 0.500000 0.750000 0.042533
O O16 0.723879 0.698549 0.073099
O O17 0.750000 0.750000 0.000000
O O18 0.500000 0.297137 0.817662
O O19 0.750987 0.250000 0.814974
O O20 0.705202 0.320893 0.758486
O O21 0.729254 0.341152 0.847043
O O22 0.500000 0.379961 0.723572
O O23 0.000000 0.639930 0.903551
#
# Coordination Sequence:
#
# PCOD8278199 Si02
#       8
#    16  16  16  16   8  16  16  16
#     4   9  16  26  41  59  80 112 153 198 244 285
#     4  10  20  33  51  76 104 134 168 209 256 299
#     4   9  17  28  41  62  91 123 159 194 230 281
#     4  10  20  32  46  65  92 124 161 200 240 286
#     4  10  22  38  58  84 110 142 174 210 255 300
#     4   9  15  25  44  69  95 126 164 201 231 273
#     4  10  18  28  45  66  92 127 162 195 236 280
#     4  10  18  32  54  78 103 133 172 209 245 294
#
# _framework density 16.760522999999999
#
# number of rings (size 3 to 8) (size 9 to 14) (size 15 to 20)
#    0.000    2.400    2.000    1.600    0.000    5.333 
#    0.000    0.000    0.000    2.400    0.000    2.800 
#    0.000    0.533    0.000    5.600    0.000    2.667 
#
# Total GULP energy -743611.211894 kJ/mol
# GULP energy per Si atom -12393.520198 kJ/mol
# Density = 1.672238 g / cm^3
# Si number density = 16.760523 Si / 1000 Ang^3
#
#
#
# Elastic Constant Matrix: (Units=GPa)
#
#
# Indices 1 2 3 4 5 6 
#
# 1 61.5158 46.9716 33.9489 0.0000 0.0000 0.0000
# 2 46.9716 114.9338 32.6731 0.0000 0.0000 0.0000
# 3 33.9489 32.6731 72.9875 0.0000 0.0000 0.0000
# 4 0.0000 0.0000 0.0000 13.5483 0.0000 0.0000
# 5 0.0000 0.0000 0.0000 0.0000 25.5965 0.0000
# 6 0.0000 0.0000 0.0000 0.0000 0.0000 25.1959
#
#
#
# Elastic Compliance Matrix: (Units=1/GPa)
#
#
# Indices 1 2 3 4 5 6 
#
# 1 0.028043 -0.008883 -0.009067 0.000000 0.000000 0.000000
# 2 -0.008883 0.012783 -0.001591 0.000000 0.000000 0.000000
# 3 -0.009067 -0.001591 0.018630 0.000000 0.000000 0.000000
# 4 0.000000 0.000000 0.000000 0.073810 0.000000 0.000000
# 5 0.000000 0.000000 0.000000 0.000000 0.039068 0.000000
# 6 0.000000 0.000000 0.000000 0.000000 0.000000 0.039689
#
#
# Mechanical properties :
#
#
# Convention : Reuss Voigt Hill
#
# Bulk Modulus (GPa) = 49.08019 52.95827 51.01923
# Shear Modulus (GPa) = 19.38763 21.92436 20.65599
#
# Velocity S-wave (km/s) = 3.40478 3.62068 3.51439
# Velocity P-wave (km/s) = 6.69354 7.01033 6.85377
#
# Compressibility (1/GPa) = 0.02037482
#
# Stress axis : x y z
#
# Youngs Moduli (GPa) = 35.65988 78.22756 53.67559
#
# Poissons Ratio (x) = 0.69490 0.48668
# Poissons Ratio (y) = 0.31677 0.08538
# Poissons Ratio (z) = 0.32333 0.12443
#
# Static dielectric constant tensor:
#      x y z
#    x 3.049510 0.000000 0.000000 
#    y 0.000000 3.044960 0.000000 
#    z 0.000000 0.000000 3.108470 
# 
# 
# High freq. dielectric constant tensor:
#      x y z
#    x 1.636310 0.000000 0.000000 
#    y 0.000000 1.629950 0.000000 
#    z 0.000000 0.000000 1.627660 
# 
# From -- ./inp_files/43921.got.cif
#   From: 2010.03.12/outbox.cif.g09.slc.cpg/sg67_22_cif.got.tgz:43921.got - 2010.04.10 22:41:39.
