data_PCOD8278756
_publ_section_title
;
Structure prediction by ZEFSAII (Michael W. Deem and Ramdas Pophale) SiO2 
 PCOD8278756
Probable space group: C M M A
;
_chemical_formula_sum "Si O2"
_cell_formula_units_Z 96
_cell_length_a 27.247721
_cell_length_b 8.728355
_cell_length_c 23.949492
_cell_angle_alpha 90.000000
_cell_angle_beta 90.000000
_cell_angle_gamma 90.000000
_cell_volume 5695.854558
_symmetry_space_group_name_H-M "C M M A"
_symmetry_group_IT_number 67
_symmetry_cell_setting 'orthorhombic'
loop_
_space_group_symop_operation_xyz
x,y,z
-x,1/2-y,z
x,-y,-z
-x,1/2+y,-z
-x,-y,-z
x,1/2+y,-z
-x,y,z
x,1/2-y,z
1/2+x,1/2+y,z
1/2-x,-y,z
1/2+x,1/2-y,-z
1/2-x,y,-z
1/2-x,1/2-y,-z
1/2+x,y,-z
1/2-x,1/2+y,z
1/2+x,-y,z
loop_
_atom_site_type_symbol
_atom_site_label
_atom_site_fract_x
_atom_site_fract_y
_atom_site_fract_z
Si Si1 0.649343 0.069236 0.662736
Si Si2 0.556109 0.931066 0.942706
Si Si3 0.897172 0.430181 0.830468
Si Si4 0.199046 0.068085 0.767963
Si Si5 0.054601 0.427214 0.272119
Si Si6 0.802590 0.067997 0.559019
O O1 0.657000 0.250000 0.655185
O O2 0.593956 0.025216 0.680846
O O3 0.687647 0.007573 0.708329
O O4 0.657817 0.982822 0.604693
O O5 0.500000 0.984775 0.933635
O O6 0.559677 0.750000 0.946551
O O7 0.588707 0.996373 0.891358
O O8 0.577498 0.000000 0.000000
O O9 0.901108 0.250000 0.832502
O O10 0.842415 0.481675 0.812760
O O11 0.936653 0.484502 0.785316
O O12 0.201957 0.250000 0.760806
O O13 0.250000 0.000000 0.790622
O O14 0.060932 0.250000 0.257811
O O15 0.000000 0.465509 0.294504
O O16 0.798988 0.250000 0.555040
O O17 0.819962 0.000000 0.500000
O O18 0.750000 0.000000 0.576297
#
# Coordination Sequence:
#
# PCOD8278756 Si02
#       6
#    16  16  16  16  16  16
#     4  10  19  32  49  70  97 126 155 188 228 272
#     4   9  17  29  45  66  91 118 148 184 227 273
#     4   9  18  31  47  67  92 122 154 189 229 275
#     4  10  19  31  47  68  93 121 154 190 230 274
#     4   9  18  31  48  71  97 124 154 189 229 272
#     4  11  21  34  51  72  97 124 156 191 231 275
#
# _framework density 16.854361999999998
#
# number of rings (size 3 to 8) (size 9 to 14) (size 15 to 20)
#    0.000    2.333    0.000    4.000    0.000    3.000 
#    0.000    1.667    0.000    1.000    0.000    3.500 
#    0.000    0.000    0.000    0.000    0.000    0.000 
#
# Total GULP energy -595211.215497 kJ/mol
# GULP energy per Si atom -12400.233656 kJ/mol
# Density = 1.681600 g / cm^3
# Si number density = 16.854362 Si / 1000 Ang^3
#
#
#
# Elastic Constant Matrix: (Units=GPa)
#
#
# Indices 1 2 3 4 5 6 
#
# 1 104.7672 28.6010 64.4213 0.0000 0.0000 0.0000
# 2 28.6010 58.8800 38.2323 0.0000 0.0000 0.0000
# 3 64.4213 38.2323 141.2784 0.0000 0.0000 0.0000
# 4 0.0000 0.0000 0.0000 27.9510 0.0000 0.0000
# 5 0.0000 0.0000 0.0000 0.0000 24.9145 0.0000
# 6 0.0000 0.0000 0.0000 0.0000 0.0000 20.9615
#
#
#
# Elastic Compliance Matrix: (Units=1/GPa)
#
#
# Indices 1 2 3 4 5 6 
#
# 1 0.013732 -0.003160 -0.005407 0.000000 0.000000 0.000000
# 2 -0.003160 0.021331 -0.004332 0.000000 0.000000 0.000000
# 3 -0.005407 -0.004332 0.010716 0.000000 0.000000 0.000000
# 4 0.000000 0.000000 0.000000 0.035777 0.000000 0.000000
# 5 0.000000 0.000000 0.000000 0.000000 0.040137 0.000000
# 6 0.000000 0.000000 0.000000 0.000000 0.000000 0.047707
#
#
# Mechanical properties :
#
#
# Convention : Reuss Voigt Hill
#
# Bulk Modulus (GPa) = 50.04270 63.04834 56.54552
# Shear Modulus (GPa) = 24.76998 26.34345 25.55672
#
# Velocity S-wave (km/s) = 3.83776 3.95777 3.89823
# Velocity P-wave (km/s) = 7.02805 7.64030 7.34057
#
# Compressibility (1/GPa) = 0.01998294
#
# Stress axis : x y z
#
# Youngs Moduli (GPa) = 72.82220 46.87951 93.31992
#
# Poissons Ratio (x) = 0.14813 0.50454
# Poissons Ratio (y) = 0.23010 0.40424
# Poissons Ratio (z) = 0.39372 0.20307
#
# Static dielectric constant tensor:
#      x y z
#    x 3.263410 0.000000 0.000000 
#    y 0.000000 3.168790 0.000000 
#    z 0.000000 0.000000 3.275370 
# 
# 
# High freq. dielectric constant tensor:
#      x y z
#    x 1.639160 0.000000 0.000000 
#    y 0.000000 1.656510 0.000000 
#    z 0.000000 0.000000 1.641440 
# 
# From -- ./inp_files/40893.got.cif
#   From: 2010.03.12/outbox.cif.g09.slc.cpg/sg67_21_cif.got.tgz:40893.got - 2010.04.10 22:41:39.
