data_PCOD8278990
_publ_section_title
;
Structure prediction by ZEFSAII (Michael W. Deem and Ramdas Pophale) SiO2 
 PCOD8278990
Probable space group: C M M A
;
_chemical_formula_sum "Si O2"
_cell_formula_units_Z 88
_cell_length_a 37.994980
_cell_length_b 24.428625
_cell_length_c 5.223930
_cell_angle_alpha 90.000000
_cell_angle_beta 90.000000
_cell_angle_gamma 90.000000
_cell_volume 4848.669606
_symmetry_space_group_name_H-M "C M M A"
_symmetry_group_IT_number 67
_symmetry_cell_setting 'orthorhombic'
loop_
_space_group_symop_operation_xyz
x,y,z
-x,1/2-y,z
x,-y,-z
-x,1/2+y,-z
-x,-y,-z
x,1/2+y,-z
-x,y,z
x,1/2-y,z
1/2+x,1/2+y,z
1/2-x,-y,z
1/2+x,1/2-y,-z
1/2-x,y,-z
1/2-x,1/2-y,-z
1/2+x,y,-z
1/2-x,1/2+y,z
1/2+x,-y,z
loop_
_atom_site_type_symbol
_atom_site_label
_atom_site_fract_x
_atom_site_fract_y
_atom_site_fract_z
Si Si1 0.581459 0.684993 0.552727
Si Si2 0.750000 0.101723 0.000000
Si Si3 0.783682 0.691404 0.338286
Si Si4 0.345375 0.876788 0.553019
Si Si5 0.460780 0.314680 0.947182
Si Si6 0.323276 0.061794 0.934373
O O1 0.589090 0.750000 0.553512
O O2 0.617131 0.651423 0.556350
O O3 0.559362 0.666096 0.799098
O O4 0.560057 0.665947 0.303394
O O5 0.725665 0.140484 0.165958
O O6 0.780751 0.064907 0.127142
O O7 0.793175 0.750000 0.199469
O O8 0.750000 0.705020 0.500000
O O9 0.816892 0.671342 0.506516
O O10 0.343214 0.921154 0.325803
O O11 0.337492 0.902319 0.830253
O O12 0.500000 0.340473 0.945085
O O13 0.464007 0.250000 0.945890
O O14 0.333100 0.000000 0.000000
#
# Coordination Sequence:
#
# PCOD8278990 Si02
#       6
#    16   8  16  16  16  16
#     4  10  19  32  51  79 113 147 173 205 254 306
#     4  10  20  36  52  76  98 134 180 228 272 320
#     4  10  19  33  51  74 106 141 177 214 255 309
#     4  11  22  37  53  78 106 137 179 221 265 318
#     4   9  17  30  50  77 112 149 178 201 236 298
#     4  11  23  38  56  73  98 132 179 234 282 316
#
# _framework density 18.149308000000001
#
# number of rings (size 3 to 8) (size 9 to 14) (size 15 to 20)
#    0.000    1.818    1.818    3.273    0.000    2.182 
#    0.000    3.636    0.000    0.000    0.000    0.000 
#    0.000   50.909    0.000    0.000    0.000    0.000 
#
# Total GULP energy -545114.595126 kJ/mol
# GULP energy per Si atom -12388.968071 kJ/mol
# Density = 1.810800 g / cm^3
# Si number density = 18.149308 Si / 1000 Ang^3
#
#
#
# Elastic Constant Matrix: (Units=GPa)
#
#
# Indices 1 2 3 4 5 6 
#
# 1 163.3380 48.9122 61.7817 0.0000 0.0000 0.0000
# 2 48.9122 60.8976 18.4128 0.0000 0.0000 0.0000
# 3 61.7817 18.4128 119.1376 0.0000 0.0000 0.0000
# 4 0.0000 0.0000 0.0000 -22.3717 0.0000 0.0000
# 5 0.0000 0.0000 0.0000 0.0000 -91.6795 0.0000
# 6 0.0000 0.0000 0.0000 0.0000 0.0000 22.3643
#
#
#
# Elastic Compliance Matrix: (Units=1/GPa)
#
#
# Indices 1 2 3 4 5 6 
#
# 1 0.009560 -0.006482 -0.003956 0.000000 0.000000 0.000000
# 2 -0.006482 0.021621 0.000020 0.000000 0.000000 0.000000
# 3 -0.003956 0.000020 0.010442 0.000000 0.000000 0.000000
# 4 0.000000 0.000000 0.000000 -0.044699 0.000000 0.000000
# 5 0.000000 0.000000 0.000000 0.000000 -0.010908 0.000000
# 6 0.000000 0.000000 0.000000 0.000000 0.000000 0.044714
#
#
# Mechanical properties :
#
#
# Convention : Reuss Voigt Hill
#
# Bulk Modulus (GPa) = 48.10659 66.84295 57.47477
# Shear Modulus (GPa) = 85.47809 -4.05296 40.71256
#
# Velocity S-wave (km/s) = 6.87018 -1.49598 4.74138
# Velocity P-wave (km/s) = 9.46024 5.82456 7.85562
#
# Compressibility (1/GPa) = 0.02078717
#
# Stress axis : x y z
#
# Youngs Moduli (GPa) = 104.60779 46.25060 95.76881
#
# Poissons Ratio (x) = 0.29980 0.37881
# Poissons Ratio (y) = 0.67808 -0.00190
# Poissons Ratio (z) = 0.41378 -0.00092
#
# Static dielectric constant tensor:
#      x y z
#    x 3.573410 0.000000 0.000000 
#    y 0.000000 3.599510 0.000000 
#    z 0.000000 0.000000 3.389160 
# 
# 
# High freq. dielectric constant tensor:
#      x y z
#    x 1.706290 0.000000 0.000000 
#    y 0.000000 1.676010 0.000000 
#    z 0.000000 0.000000 1.703490 
# 
# From -- ./inp_files/3630.got.cif
#   From: 2010.03.12/outbox.cif.g09.slc.cpg/sg67_2_cif.got.tgz:3630.got - 2010.04.10 22:41:39.
