data_PCOD8278148
_publ_section_title
;
Structure prediction by ZEFSAII (Michael W. Deem and Ramdas Pophale) SiO2 
 PCOD8278148
Probable space group: C M M A
;
_chemical_formula_sum "Si O2"
_cell_formula_units_Z 96
_cell_length_a 22.279059
_cell_length_b 24.832641
_cell_length_c 9.107462
_cell_angle_alpha 90.000000
_cell_angle_beta 90.000000
_cell_angle_gamma 90.000000
_cell_volume 5038.683989
_symmetry_space_group_name_H-M "C M M A"
_symmetry_group_IT_number 67
_symmetry_cell_setting 'orthorhombic'
loop_
_space_group_symop_operation_xyz
x,y,z
-x,1/2-y,z
x,-y,-z
-x,1/2+y,-z
-x,-y,-z
x,1/2+y,-z
-x,y,z
x,1/2-y,z
1/2+x,1/2+y,z
1/2-x,-y,z
1/2+x,1/2-y,-z
1/2-x,y,-z
1/2-x,1/2-y,-z
1/2+x,y,-z
1/2-x,1/2+y,z
1/2+x,-y,z
loop_
_atom_site_type_symbol
_atom_site_label
_atom_site_fract_x
_atom_site_fract_y
_atom_site_fract_z
Si Si1 0.873510 0.541100 0.868959
Si Si2 0.500000 0.996914 0.173274
Si Si3 0.000000 0.060754 0.565926
Si Si4 0.069339 0.353626 0.115323
Si Si5 0.928370 0.250000 0.611097
Si Si6 0.314992 0.448435 0.573942
Si Si7 0.403719 0.858531 0.449813
Si Si8 0.929155 0.250000 0.945263
O O1 0.937491 0.532291 0.781645
O O2 0.884585 0.599956 0.938205
O O3 0.819323 0.540268 0.750755
O O4 0.859347 0.500000 0.000000
O O5 0.500000 0.054376 0.256200
O O6 0.500000 0.000000 0.000000
O O7 0.943397 0.095593 0.523160
O O8 0.000000 0.000000 0.500000
O O9 0.073491 0.343029 0.288848
O O10 0.094643 0.302201 0.029660
O O11 0.000000 0.367500 0.074617
O O12 0.900765 0.303556 0.540453
O O13 0.000000 0.250000 0.592475
O O14 0.906815 0.250000 0.778662
O O15 0.349352 0.500000 0.500000
O O16 0.250000 0.447835 0.500000
O O17 0.339731 0.388326 0.548296
O O18 0.000000 0.250000 0.952520
#
# Coordination Sequence:
#
# PCOD8278148 Si02
#       8
#    16   8   8  16   8  16  16   8
#     4  10  20  34  55  86 118 153 191 235 299 363
#     4  10  20  30  47  83 124 152 177 220 289 366
#     4  12  20  31  53  84 116 150 192 234 286 364
#     4  10  17  32  49  77 114 154 188 230 281 362
#     4  11  21  37  50  87 119 154 192 242 294 365
#     4  10  22  40  59  82 114 152 204 256 296 337
#     4  11  21  35  59  82 115 154 198 241 299 350
#     4   9  21  31  49  73 114 154 184 221 289 346
#
# _framework density 19.052593999999999
#
# number of rings (size 3 to 8) (size 9 to 14) (size 15 to 20)
#    0.000    1.667    2.500    4.000    0.000    4.667 
#    0.000    2.083    0.000    1.000    0.000    4.667 
#    0.000    0.000    0.000    0.000    0.000    0.000 
#
# Total GULP energy -594633.535428 kJ/mol
# GULP energy per Si atom -12388.198655 kJ/mol
# Density = 1.900923 g / cm^3
# Si number density = 19.052594 Si / 1000 Ang^3
#
#
#
# Elastic Constant Matrix: (Units=GPa)
#
#
# Indices 1 2 3 4 5 6 
#
# 1 65.7619 30.7274 36.7709 0.0000 0.0000 0.0000
# 2 30.7274 176.8707 91.5505 0.0000 0.0000 0.0000
# 3 36.7709 91.5505 142.8955 0.0000 0.0000 0.0000
# 4 0.0000 0.0000 0.0000 43.4627 0.0000 0.0000
# 5 0.0000 0.0000 0.0000 0.0000 20.7472 0.0000
# 6 0.0000 0.0000 0.0000 0.0000 0.0000 17.4130
#
#
#
# Elastic Compliance Matrix: (Units=1/GPa)
#
#
# Indices 1 2 3 4 5 6 
#
# 1 0.017900 -0.001086 -0.003911 0.000000 0.000000 0.000000
# 2 -0.001086 0.008525 -0.005182 0.000000 0.000000 0.000000
# 3 -0.003911 -0.005182 0.011325 0.000000 0.000000 0.000000
# 4 0.000000 0.000000 0.000000 0.023008 0.000000 0.000000
# 5 0.000000 0.000000 0.000000 0.000000 0.048199 0.000000
# 6 0.000000 0.000000 0.000000 0.000000 0.000000 0.057428
#
#
# Mechanical properties :
#
#
# Convention : Reuss Voigt Hill
#
# Bulk Modulus (GPa) = 57.49589 78.18064 67.83826
# Shear Modulus (GPa) = 25.96855 31.42322 28.69588
#
# Velocity S-wave (km/s) = 3.69588 4.06555 3.88511
# Velocity P-wave (km/s) = 6.96101 7.94742 7.47051
#
# Compressibility (1/GPa) = 0.01739255
#
# Stress axis : x y z
#
# Youngs Moduli (GPa) = 55.86500 117.30321 88.30224
#
# Poissons Ratio (x) = 0.12734 0.34533
# Poissons Ratio (y) = 0.06064 0.45762
# Poissons Ratio (z) = 0.21847 0.60791
#
# Static dielectric constant tensor:
#      x y z
#    x 3.171330 0.000000 0.000000 
#    y 0.000000 4.826930 0.000000 
#    z 0.000000 0.000000 3.596670 
# 
# 
# High freq. dielectric constant tensor:
#      x y z
#    x 1.689380 0.000000 0.000000 
#    y 0.000000 1.754890 0.000000 
#    z 0.000000 0.000000 1.748710 
# 
# From -- ./inp_files/12728.got.cif
#   From: 2010.03.12/outbox.cif.g09.slc.cpg/sg67_7_cif.got.tgz:12728.got - 2010.04.10 22:41:39.
