data_PCOD8278933
_publ_section_title
;
Structure prediction by ZEFSAII (Michael W. Deem and Ramdas Pophale) SiO2 
 PCOD8278933
Probable space group: C M M A
;
_chemical_formula_sum "Si O2"
_cell_formula_units_Z 96
_cell_length_a 23.969573
_cell_length_b 13.608316
_cell_length_c 13.783602
_cell_angle_alpha 90.000000
_cell_angle_beta 90.000000
_cell_angle_gamma 90.000000
_cell_volume 4496.011438
_symmetry_space_group_name_H-M "C M M A"
_symmetry_group_IT_number 67
_symmetry_cell_setting 'orthorhombic'
loop_
_space_group_symop_operation_xyz
x,y,z
-x,1/2-y,z
x,-y,-z
-x,1/2+y,-z
-x,-y,-z
x,1/2+y,-z
-x,y,z
x,1/2-y,z
1/2+x,1/2+y,z
1/2-x,-y,z
1/2+x,1/2-y,-z
1/2-x,y,-z
1/2-x,1/2-y,-z
1/2+x,y,-z
1/2-x,1/2+y,z
1/2+x,-y,z
loop_
_atom_site_type_symbol
_atom_site_label
_atom_site_fract_x
_atom_site_fract_y
_atom_site_fract_z
Si Si1 0.000000 0.865233 0.769985
Si Si2 0.273023 0.133269 0.900298
Si Si3 0.835498 0.866082 0.608044
Si Si4 0.500000 0.028241 0.389667
Si Si5 0.885794 0.866958 0.407096
Si Si6 0.277104 0.133293 0.300187
Si Si7 0.618149 0.364906 0.808458
O O1 0.054149 0.889761 0.836614
O O2 0.000000 0.750000 0.737989
O O3 0.000000 0.929350 0.673084
O O4 0.272616 0.250000 0.907849
O O5 0.234226 0.098502 0.810439
O O6 0.336092 0.091337 0.882712
O O7 0.250000 0.086580 0.000000
O O8 0.831826 0.750000 0.596552
O O9 0.866359 0.908038 0.512674
O O10 0.772468 0.906263 0.628696
O O11 0.873423 0.900918 0.698026
O O12 0.555475 0.091792 0.369175
O O13 0.500000 0.000000 0.500000
O O14 0.890580 0.750000 0.407286
O O15 0.837395 0.905787 0.334125
O O16 0.276301 0.250000 0.305212
O O17 0.629846 0.250000 0.808396
#
# Coordination Sequence:
#
# PCOD8278933 Si02
#       7
#     8  16  16   8  16  16  16
#     4  10  20  35  52  68  95 135 177 220 251 284
#     4   8  13  23  44  77 108 127 156 207 256 302
#     4   8  13  23  43  70  98 132 170 203 240 290
#     4  12  25  35  48  72 100 135 178 210 248 302
#     4  10  19  32  50  73 105 139 170 206 245 293
#     4   8  14  25  45  73 102 136 170 199 247 305
#     4   8  14  25  44  69  95 127 165 204 253 297
#
# _framework density 21.352259
#
# number of rings (size 3 to 8) (size 9 to 14) (size 15 to 20)
#    0.000    3.167    0.000    3.750    0.000    4.000 
#    0.000    0.000    0.000   15.000    0.000    9.333 
#    0.000    2.667    0.000    0.000    0.000    0.167 
#
# Total GULP energy -594650.675997 kJ/mol
# GULP energy per Si atom -12388.555750 kJ/mol
# Density = 2.130366 g / cm^3
# Si number density = 21.352259 Si / 1000 Ang^3
#
#
#
# Elastic Constant Matrix: (Units=GPa)
#
#
# Indices 1 2 3 4 5 6 
#
# 1 226.5252 29.9504 87.4330 0.0000 0.0000 0.0000
# 2 29.9504 38.7488 9.1066 0.0000 0.0000 0.0000
# 3 87.4330 9.1066 127.6082 0.0000 0.0000 0.0000
# 4 0.0000 0.0000 0.0000 -7.7487 0.0000 0.0000
# 5 0.0000 0.0000 0.0000 0.0000 24.9048 0.0000
# 6 0.0000 0.0000 0.0000 0.0000 0.0000 23.1629
#
#
#
# Elastic Compliance Matrix: (Units=1/GPa)
#
#
# Indices 1 2 3 4 5 6 
#
# 1 0.006585 -0.004098 -0.004219 0.000000 0.000000 0.000000
# 2 -0.004098 0.028798 0.000753 0.000000 0.000000 0.000000
# 3 -0.004219 0.000753 0.010674 0.000000 0.000000 0.000000
# 4 0.000000 0.000000 0.000000 -0.129053 0.000000 0.000000
# 5 0.000000 0.000000 0.000000 0.000000 0.040153 0.000000
# 6 0.000000 0.000000 0.000000 0.000000 0.000000 0.043172
#
#
# Mechanical properties :
#
#
# Convention : Reuss Voigt Hill
#
# Bulk Modulus (GPa) = 32.33397 71.76247 52.04822
# Shear Modulus (GPa) = 194.04750 25.82328 109.93539
#
# Velocity S-wave (km/s) = 9.54340 3.48141 7.18320
# Velocity P-wave (km/s) = 11.68808 7.05989 9.65539
#
# Compressibility (1/GPa) = 0.03092723
#
# Stress axis : x y z
#
# Youngs Moduli (GPa) = 151.86250 34.72471 93.68825
#
# Poissons Ratio (x) = 0.14231 0.39530
# Poissons Ratio (y) = 0.62235 -0.07053
# Poissons Ratio (z) = 0.64075 -0.02614
#
# Static dielectric constant tensor:
#      x y z
#    x 4.401400 0.000000 0.000000 
#    y 0.000000 3.576880 0.000000 
#    z 0.000000 0.000000 3.857560 
# 
# 
# High freq. dielectric constant tensor:
#      x y z
#    x 1.848770 0.000000 0.000000 
#    y 0.000000 1.834630 0.000000 
#    z 0.000000 0.000000 1.795630 
# 
# From -- ./inp_files/30074.got.cif
#   From: 2010.03.12/outbox.cif.g09.slc.cpg/sg67_16_cif.got.tgz:30074.got - 2010.04.10 22:41:39.
