data_PCOD8278239
_publ_section_title
;
Structure prediction by ZEFSAII (Michael W. Deem and Ramdas Pophale) SiO2 
 PCOD8278239
Probable space group: C M M A
;
_chemical_formula_sum "Si O2"
_cell_formula_units_Z 96
_cell_length_a 25.757401
_cell_length_b 15.874988
_cell_length_c 13.438083
_cell_angle_alpha 90.000000
_cell_angle_beta 90.000000
_cell_angle_gamma 90.000000
_cell_volume 5494.811065
_symmetry_space_group_name_H-M "C M M A"
_symmetry_group_IT_number 67
_symmetry_cell_setting 'orthorhombic'
loop_
_space_group_symop_operation_xyz
x,y,z
-x,1/2-y,z
x,-y,-z
-x,1/2+y,-z
-x,-y,-z
x,1/2+y,-z
-x,y,z
x,1/2-y,z
1/2+x,1/2+y,z
1/2-x,-y,z
1/2+x,1/2-y,-z
1/2-x,y,-z
1/2-x,1/2-y,-z
1/2+x,y,-z
1/2-x,1/2+y,z
1/2+x,-y,z
loop_
_atom_site_type_symbol
_atom_site_label
_atom_site_fract_x
_atom_site_fract_y
_atom_site_fract_z
Si Si1 0.361825 0.474333 0.388535
Si Si2 0.277835 0.154130 0.402785
Si Si3 0.557454 0.407307 0.041372
Si Si4 0.620078 0.348312 0.864824
Si Si5 0.560656 0.998979 0.230030
Si Si6 0.211971 0.426282 0.243425
O O1 0.372843 0.500000 0.500000
O O2 0.334580 0.384153 0.388125
O O3 0.417364 0.470676 0.335215
O O4 0.325705 0.538674 0.328417
O O5 0.287470 0.250000 0.426845
O O6 0.250000 0.111908 0.500000
O O7 0.245403 0.143766 0.300944
O O8 0.500000 0.362791 0.036546
O O9 0.576178 0.424690 0.154353
O O10 0.550330 0.500000 0.000000
O O11 0.601594 0.355829 0.980592
O O12 0.617073 0.250000 0.832757
O O13 0.581678 0.406311 0.800279
O O14 0.678911 0.383711 0.846659
O O15 0.500000 0.988279 0.238392
O O16 0.250000 0.500000 0.200818
#
# Coordination Sequence:
#
# PCOD8278239 Si02
#       6
#    16  16  16  16  16  16
#     4  10  18  31  50  74  98 133 174 209 245 306
#     4  10  18  29  49  72  97 130 168 213 260 297
#     4   8  15  30  50  70  95 130 168 202 245 305
#     4  10  18  29  51  82 106 125 165 220 267 302
#     4   9  19  34  51  73 103 138 171 206 251 310
#     4   9  18  30  48  73 105 137 167 208 255 315
#
# _framework density 17.471029000000001
#
# number of rings (size 3 to 8) (size 9 to 14) (size 15 to 20)
#    0.000    2.667    1.667    2.000    0.000    1.667 
#    0.000    0.833    0.000   25.000    0.000   31.500 
#    0.000    0.000    0.000    0.000    0.000    0.000 
#
# Total GULP energy -594662.525395 kJ/mol
# GULP energy per Si atom -12388.802612 kJ/mol
# Density = 1.743126 g / cm^3
# Si number density = 17.471029 Si / 1000 Ang^3
#
#
#
# Elastic Constant Matrix: (Units=GPa)
#
#
# Indices 1 2 3 4 5 6 
#
# 1 107.8173 47.7151 63.4860 0.0000 0.0000 0.0000
# 2 47.7151 78.8785 40.2338 0.0000 0.0000 0.0000
# 3 63.4860 40.2338 93.5094 0.0000 0.0000 0.0000
# 4 0.0000 0.0000 0.0000 16.5439 0.0000 0.0000
# 5 0.0000 0.0000 0.0000 0.0000 11.7697 0.0000
# 6 0.0000 0.0000 0.0000 0.0000 0.0000 14.3986
#
#
#
# Elastic Compliance Matrix: (Units=1/GPa)
#
#
# Indices 1 2 3 4 5 6 
#
# 1 0.017254 -0.005717 -0.009255 0.000000 0.000000 0.000000
# 2 -0.005717 0.018137 -0.003922 0.000000 0.000000 0.000000
# 3 -0.009255 -0.003922 0.018665 0.000000 0.000000 0.000000
# 4 0.000000 0.000000 0.000000 0.060445 0.000000 0.000000
# 5 0.000000 0.000000 0.000000 0.000000 0.084964 0.000000
# 6 0.000000 0.000000 0.000000 0.000000 0.000000 0.069451
#
#
# Mechanical properties :
#
#
# Convention : Reuss Voigt Hill
#
# Bulk Modulus (GPa) = 61.46897 64.78614 63.12755
# Shear Modulus (GPa) = 16.01913 17.12712 16.57312
#
# Velocity S-wave (km/s) = 3.03131 3.13440 3.08329
# Velocity P-wave (km/s) = 6.89286 7.08956 6.99190
#
# Compressibility (1/GPa) = 0.01626837
#
# Stress axis : x y z
#
# Youngs Moduli (GPa) = 57.95598 55.13706 53.57644
#
# Poissons Ratio (x) = 0.31522 0.49583
# Poissons Ratio (y) = 0.33133 0.21013
# Poissons Ratio (z) = 0.53636 0.21625
#
# Static dielectric constant tensor:
#      x y z
#    x 3.362300 0.000000 0.000000 
#    y 0.000000 3.072160 0.000000 
#    z 0.000000 0.000000 3.728190 
# 
# 
# High freq. dielectric constant tensor:
#      x y z
#    x 1.669320 0.000000 0.000000 
#    y 0.000000 1.654600 0.000000 
#    z 0.000000 0.000000 1.662600 
# 
# From -- ./inp_files/31162.got.cif
#   From: 2010.03.12/outbox.cif.g09.slc.cpg/sg67_16_cif.got.tgz:31162.got - 2010.04.10 22:41:39.
