data_PCOD8278863
_publ_section_title
;
Structure prediction by ZEFSAII (Michael W. Deem and Ramdas Pophale) SiO2 
 PCOD8278863
Probable space group: C M M A
;
_chemical_formula_sum "Si O2"
_cell_formula_units_Z 96
_cell_length_a 14.776356
_cell_length_b 29.090446
_cell_length_c 9.990185
_cell_angle_alpha 90.000000
_cell_angle_beta 90.000000
_cell_angle_gamma 90.000000
_cell_volume 4294.288877
_symmetry_space_group_name_H-M "C M M A"
_symmetry_group_IT_number 67
_symmetry_cell_setting 'orthorhombic'
loop_
_space_group_symop_operation_xyz
x,y,z
-x,1/2-y,z
x,-y,-z
-x,1/2+y,-z
-x,-y,-z
x,1/2+y,-z
-x,y,z
x,1/2-y,z
1/2+x,1/2+y,z
1/2-x,-y,z
1/2+x,1/2-y,-z
1/2-x,y,-z
1/2-x,1/2-y,-z
1/2+x,y,-z
1/2-x,1/2+y,z
1/2+x,-y,z
loop_
_atom_site_type_symbol
_atom_site_label
_atom_site_fract_x
_atom_site_fract_y
_atom_site_fract_z
Si Si1 0.607565 0.301143 0.757583
Si Si2 0.892159 0.379471 0.043840
Si Si3 0.399287 0.025930 0.377121
Si Si4 0.107579 0.698585 0.458577
Si Si5 0.652348 0.522807 0.129137
Si Si6 0.891834 0.620390 0.262291
O O1 0.500000 0.301737 0.756451
O O2 0.642177 0.250000 0.794479
O O3 0.643121 0.336120 0.870262
O O4 0.642019 0.314737 0.608017
O O5 0.841944 0.422733 0.109838
O O6 0.000000 0.386016 0.052700
O O7 0.859240 0.373579 0.890731
O O8 0.500000 0.038875 0.426463
O O9 0.351658 0.073090 0.326429
O O10 0.347732 0.000000 0.500000
O O11 0.406750 0.989191 0.257754
O O12 0.141448 0.750000 0.421466
O O13 0.146635 0.662870 0.349536
O O14 0.000000 0.697238 0.455254
O O15 0.750000 0.500000 0.149000
O O16 0.604259 0.500000 0.000000
O O17 0.000000 0.618550 0.264433
#
# Coordination Sequence:
#
# PCOD8278863 Si02
#       6
#    16  16  16  16  16  16
#     4   8  15  27  45  74 109 140 172 215 269 327
#     4  10  19  31  52  78 106 141 182 226 271 322
#     4  10  21  35  54  79 105 134 174 226 275 327
#     4   8  14  25  41  65 102 140 168 204 262 323
#     4  11  23  38  54  74 105 147 183 226 275 324
#     4   9  17  28  43  70 101 132 171 213 261 316
#
# _framework density 22.355271999999999
#
# number of rings (size 3 to 8) (size 9 to 14) (size 15 to 20)
#    0.000    2.667    1.667    1.500    2.333    1.667 
#    0.000    3.333    0.000    0.000    0.000    3.500 
#    0.000    2.667    0.000    0.000    0.000    0.167 
#
# Total GULP energy -594924.349919 kJ/mol
# GULP energy per Si atom -12394.257290 kJ/mol
# Density = 2.230439 g / cm^3
# Si number density = 22.355272 Si / 1000 Ang^3
#
#
#
# Elastic Constant Matrix: (Units=GPa)
#
#
# Indices 1 2 3 4 5 6 
#
# 1 19.1129 9.3093 -0.3962 0.0000 0.0000 0.0000
# 2 9.3093 214.2945 132.7700 0.0000 0.0000 0.0000
# 3 -0.3962 132.7700 193.9024 0.0000 0.0000 0.0000
# 4 0.0000 0.0000 0.0000 55.2008 0.0000 0.0000
# 5 0.0000 0.0000 0.0000 0.0000 -1.5267 0.0000
# 6 0.0000 0.0000 0.0000 0.0000 0.0000 11.7258
#
#
#
# Elastic Compliance Matrix: (Units=1/GPa)
#
#
# Indices 1 2 3 4 5 6 
#
# 1 0.054442 -0.004227 0.003006 0.000000 0.000000 0.000000
# 2 -0.004227 0.008433 -0.005783 0.000000 0.000000 0.000000
# 3 0.003006 -0.005783 0.009123 0.000000 0.000000 0.000000
# 4 0.000000 0.000000 0.000000 0.018116 0.000000 0.000000
# 5 0.000000 0.000000 0.000000 0.000000 -0.654994 0.000000
# 6 0.000000 0.000000 0.000000 0.000000 0.000000 0.085282
#
#
# Mechanical properties :
#
#
# Convention : Reuss Voigt Hill
#
# Bulk Modulus (GPa) = 17.24459 78.96401 48.10430
# Shear Modulus (GPa) = -11.20425 32.12176 10.45875
#
# Velocity S-wave (km/s) = -2.24116 3.79473 2.16531
# Velocity P-wave (km/s) = 1.01665 7.38911 5.27411
#
# Compressibility (1/GPa) = 0.05798920
#
# Stress axis : x y z
#
# Youngs Moduli (GPa) = 18.36816 118.58075 109.61145
#
# Poissons Ratio (x) = 0.50128 -0.32947
# Poissons Ratio (y) = 0.07765 0.63388
# Poissons Ratio (z) = -0.05521 0.68575
#
# Static dielectric constant tensor:
#      x y z
#    x 3.316620 0.000000 0.000000 
#    y 0.000000 4.287280 0.000000 
#    z 0.000000 0.000000 4.355360 
# 
# 
# High freq. dielectric constant tensor:
#      x y z
#    x 1.833930 0.000000 0.000000 
#    y 0.000000 1.883650 0.000000 
#    z 0.000000 0.000000 1.887580 
# 
# From -- ./inp_files/11433.got.cif
#   From: 2010.03.12/outbox.cif.g09.slc.cpg/sg67_6_cif.got.tgz:11433.got - 2010.04.10 22:41:39.
