data_PCOD8278174
_publ_section_title
;
Structure prediction by ZEFSAII (Michael W. Deem and Ramdas Pophale) SiO2 
 PCOD8278174
Probable space group: C M M A
;
_chemical_formula_sum "Si O2"
_cell_formula_units_Z 104
_cell_length_a 30.590205
_cell_length_b 9.002048
_cell_length_c 23.086606
_cell_angle_alpha 90.000000
_cell_angle_beta 90.000000
_cell_angle_gamma 90.000000
_cell_volume 6357.462439
_symmetry_space_group_name_H-M "C M M A"
_symmetry_group_IT_number 67
_symmetry_cell_setting 'orthorhombic'
loop_
_space_group_symop_operation_xyz
x,y,z
-x,1/2-y,z
x,-y,-z
-x,1/2+y,-z
-x,-y,-z
x,1/2+y,-z
-x,y,z
x,1/2-y,z
1/2+x,1/2+y,z
1/2-x,-y,z
1/2+x,1/2-y,-z
1/2-x,y,-z
1/2-x,1/2-y,-z
1/2+x,y,-z
1/2-x,1/2+y,z
1/2+x,-y,z
loop_
_atom_site_type_symbol
_atom_site_label
_atom_site_fract_x
_atom_site_fract_y
_atom_site_fract_z
Si Si1 0.550215 0.573986 0.674619
Si Si2 0.088562 0.574031 0.889088
Si Si3 0.176503 0.075144 0.058636
Si Si4 0.000000 0.573351 0.939500
Si Si5 0.206357 0.924633 0.814604
Si Si6 0.448555 0.415943 0.555605
Si Si7 0.385250 0.425221 0.764899
O O1 0.500000 0.526917 0.691976
O O2 0.553682 0.750000 0.672327
O O3 0.562817 0.509880 0.612277
O O4 0.587679 0.512247 0.716665
O O5 0.089734 0.750000 0.885988
O O6 0.125883 0.524439 0.934413
O O7 0.095723 0.513961 0.824981
O O8 0.042145 0.510183 0.907335
O O9 0.181988 0.250000 0.050761
O O10 0.199186 0.021302 0.118588
O O11 0.195778 0.000000 0.000000
O O12 0.000000 0.750000 0.944173
O O13 0.000000 0.500000 0.000000
O O14 0.212644 0.750000 0.815835
O O15 0.166630 0.963831 0.770208
O O16 0.250000 0.000000 0.789710
O O17 0.428026 0.500000 0.500000
O O18 0.500000 0.402734 0.547209
O O19 0.428359 0.250000 0.560555
O O20 0.392317 0.250000 0.755028
#
# Coordination Sequence:
#
# PCOD8278174 Si02
#       7
#    16  16  16   8  16  16  16
#     4  10  20  31  44  68 101 132 162 198 234 272
#     4   8  16  29  44  60  80 108 144 183 224 270
#     4   9  17  30  45  63  86 109 137 177 224 279
#     4  10  18  28  42  60  78 104 141 180 221 268
#     4   9  19  34  50  68  90 114 146 188 235 288
#     4   9  16  27  44  66  94 131 170 203 234 268
#     4   9  18  33  50  67  87 117 157 195 229 276
#
# _framework density 16.358726999999998
#
# number of rings (size 3 to 8) (size 9 to 14) (size 15 to 20)
#    0.000    2.923    0.000    3.231    1.077    4.308 
#    0.000    4.615    0.000    0.000    0.000    0.000 
#    0.000    0.615    0.000    6.462    0.000    3.846 
#
# Total GULP energy -644247.756198 kJ/mol
# GULP energy per Si atom -12389.379927 kJ/mol
# Density = 1.632149 g / cm^3
# Si number density = 16.358727 Si / 1000 Ang^3
#
#
#
# Elastic Constant Matrix: (Units=GPa)
#
#
# Indices 1 2 3 4 5 6 
#
# 1 104.6166 36.4927 44.4310 0.0000 0.0000 0.0000
# 2 36.4927 57.3625 39.5912 0.0000 0.0000 0.0000
# 3 44.4310 39.5912 99.8675 0.0000 0.0000 0.0000
# 4 0.0000 0.0000 0.0000 29.9500 0.0000 0.0000
# 5 0.0000 0.0000 0.0000 0.0000 13.3624 0.0000
# 6 0.0000 0.0000 0.0000 0.0000 0.0000 21.8864
#
#
#
# Elastic Compliance Matrix: (Units=1/GPa)
#
#
# Indices 1 2 3 4 5 6 
#
# 1 0.013107 -0.005938 -0.003477 0.000000 0.000000 0.000000
# 2 -0.005938 0.026690 -0.007939 0.000000 0.000000 0.000000
# 3 -0.003477 -0.007939 0.014708 0.000000 0.000000 0.000000
# 4 0.000000 0.000000 0.000000 0.033389 0.000000 0.000000
# 5 0.000000 0.000000 0.000000 0.000000 0.074837 0.000000
# 6 0.000000 0.000000 0.000000 0.000000 0.000000 0.045691
#
#
# Mechanical properties :
#
#
# Convention : Reuss Voigt Hill
#
# Bulk Modulus (GPa) = 50.51599 55.87518 53.19558
# Shear Modulus (GPa) = 20.02171 22.46186 21.24179
#
# Velocity S-wave (km/s) = 3.50225 3.70953 3.60738
# Velocity P-wave (km/s) = 6.87761 7.25106 7.06680
#
# Compressibility (1/GPa) = 0.01979571
#
# Stress axis : x y z
#
# Youngs Moduli (GPa) = 76.29574 37.46667 67.99245
#
# Poissons Ratio (x) = 0.22250 0.23641
# Poissons Ratio (y) = 0.45308 0.53979
# Poissons Ratio (z) = 0.26528 0.29745
#
# Static dielectric constant tensor:
#      x y z
#    x 3.154260 0.000000 0.000000 
#    y 0.000000 2.937640 0.000000 
#    z 0.000000 0.000000 3.026550 
# 
# 
# High freq. dielectric constant tensor:
#      x y z
#    x 1.611210 0.000000 0.000000 
#    y 0.000000 1.619350 0.000000 
#    z 0.000000 0.000000 1.615640 
# 
# From -- ./inp_files/40225.got.cif
#   From: 2010.03.12/outbox.cif.g09.slc.cpg/sg67_21_cif.got.tgz:40225.got - 2010.04.10 22:41:39.
