data_PCOD8278313
_publ_section_title
;
Structure prediction by ZEFSAII (Michael W. Deem and Ramdas Pophale) SiO2 
 PCOD8278313
Probable space group: C M M A
;
_chemical_formula_sum "Si O2"
_cell_formula_units_Z 120
_cell_length_a 26.722852
_cell_length_b 8.928688
_cell_length_c 28.230225
_cell_angle_alpha 90.000000
_cell_angle_beta 90.000000
_cell_angle_gamma 90.000000
_cell_volume 6735.731910
_symmetry_space_group_name_H-M "C M M A"
_symmetry_group_IT_number 67
_symmetry_cell_setting 'orthorhombic'
loop_
_space_group_symop_operation_xyz
x,y,z
-x,1/2-y,z
x,-y,-z
-x,1/2+y,-z
-x,-y,-z
x,1/2+y,-z
-x,y,z
x,1/2-y,z
1/2+x,1/2+y,z
1/2-x,-y,z
1/2+x,1/2-y,-z
1/2-x,y,-z
1/2-x,1/2-y,-z
1/2+x,y,-z
1/2-x,1/2+y,z
1/2+x,-y,z
loop_
_atom_site_type_symbol
_atom_site_label
_atom_site_fract_x
_atom_site_fract_y
_atom_site_fract_z
Si Si1 0.801987 0.073597 0.611516
Si Si2 0.300674 0.075239 0.894636
Si Si3 0.601042 0.429462 0.448530
Si Si4 0.397515 0.577411 0.048630
Si Si5 0.699946 0.424078 0.282011
Si Si6 0.556937 0.422159 0.855432
Si Si7 0.000000 0.568926 0.552265
Si Si8 0.144428 0.575295 0.190068
O O1 0.794431 0.250000 0.608024
O O2 0.849759 0.023186 0.580851
O O3 0.813852 0.019451 0.665226
O O4 0.750000 0.000000 0.593177
O O5 0.292285 0.250000 0.887449
O O6 0.341042 0.040398 0.935394
O O7 0.250000 0.000000 0.912431
O O8 0.317319 0.009268 0.844289
O O9 0.608731 0.500000 0.500000
O O10 0.594469 0.250000 0.451326
O O11 0.551213 0.503623 0.424046
O O12 0.405564 0.750000 0.038890
O O13 0.434280 0.522141 0.090680
O O14 0.412125 0.500000 0.000000
O O15 0.710979 0.250000 0.283568
O O16 0.750000 0.500000 0.262908
O O17 0.656164 0.462683 0.244850
O O18 0.500000 0.441392 0.840704
O O19 0.575236 0.250000 0.851978
O O20 0.588027 0.520843 0.818596
O O21 0.000000 0.500000 0.500000
O O22 0.000000 0.750000 0.552479
O O23 0.149196 0.750000 0.179313
#
# Coordination Sequence:
#
# PCOD8278313 Si02
#       8
#    16  16  16  16  16  16   8  16
#     4   9  19  34  51  72 102 138 172 206 251 305
#     4  10  20  33  48  69  98 128 159 193 234 284
#     4  10  19  32  51  74 101 135 174 214 257 305
#     4   9  19  33  48  68  94 124 158 194 233 280
#     4   9  18  32  50  74 101 129 162 199 239 287
#     4   9  19  36  54  71  95 127 159 194 240 290
#     4  10  18  30  50  74  98 126 166 214 258 298
#     4  10  19  31  51  76  99 122 156 201 242 286
#
# _framework density 17.815436999999999
#
# number of rings (size 3 to 8) (size 9 to 14) (size 15 to 20)
#    0.000    2.533    0.000    3.800    0.000    6.933 
#    0.000    2.667    1.467    0.000    0.000    0.000 
#    0.000    0.000    0.000    0.000    0.000    0.000 
#
# Total GULP energy -743794.380431 kJ/mol
# GULP energy per Si atom -12396.573007 kJ/mol
# Density = 1.777489 g / cm^3
# Si number density = 17.815437 Si / 1000 Ang^3
#
#
#
# Elastic Constant Matrix: (Units=GPa)
#
#
# Indices 1 2 3 4 5 6 
#
# 1 113.7619 40.2260 48.8100 0.0000 0.0000 0.0000
# 2 40.2260 64.2737 32.2584 0.0000 0.0000 0.0000
# 3 48.8100 32.2584 81.0568 0.0000 0.0000 0.0000
# 4 0.0000 0.0000 0.0000 23.4421 0.0000 0.0000
# 5 0.0000 0.0000 0.0000 0.0000 26.4454 0.0000
# 6 0.0000 0.0000 0.0000 0.0000 0.0000 29.4122
#
#
#
# Elastic Compliance Matrix: (Units=1/GPa)
#
#
# Indices 1 2 3 4 5 6 
#
# 1 0.013165 -0.005324 -0.005809 0.000000 0.000000 0.000000
# 2 -0.005324 0.021595 -0.005388 0.000000 0.000000 0.000000
# 3 -0.005809 -0.005388 0.017979 0.000000 0.000000 0.000000
# 4 0.000000 0.000000 0.000000 0.042658 0.000000 0.000000
# 5 0.000000 0.000000 0.000000 0.000000 0.037814 0.000000
# 6 0.000000 0.000000 0.000000 0.000000 0.000000 0.033999
#
#
# Mechanical properties :
#
#
# Convention : Reuss Voigt Hill
#
# Bulk Modulus (GPa) = 50.76878 55.74234 53.25556
# Shear Modulus (GPa) = 24.17578 25.04649 24.61114
#
# Velocity S-wave (km/s) = 3.68776 3.75358 3.72082
# Velocity P-wave (km/s) = 6.83313 7.08114 6.95824
#
# Compressibility (1/GPa) = 0.01969715
#
# Stress axis : x y z
#
# Youngs Moduli (GPa) = 75.95800 46.30738 55.61965
#
# Poissons Ratio (x) = 0.24654 0.32308
# Poissons Ratio (y) = 0.40441 0.29969
# Poissons Ratio (z) = 0.44123 0.24951
#
# Static dielectric constant tensor:
#      x y z
#    x 3.621560 0.000000 0.000000 
#    y 0.000000 3.331450 0.000000 
#    z 0.000000 0.000000 3.242520 
# 
# 
# High freq. dielectric constant tensor:
#      x y z
#    x 1.692000 0.000000 0.000000 
#    y 0.000000 1.693700 0.000000 
#    z 0.000000 0.000000 1.668990 
# 
# From -- ./inp_files/45004.got.cif
#   From: 2010.03.12/outbox.cif.g09.slc.cpg/sg67_23_cif.got.tgz:45004.got - 2010.04.10 22:41:39.
