data_PCOD8278097
_publ_section_title
;
Structure prediction by ZEFSAII (Michael W. Deem and Ramdas Pophale) SiO2 
 PCOD8278097
Probable space group: C M M A
;
_chemical_formula_sum "Si O2"
_cell_formula_units_Z 80
_cell_length_a 8.722880
_cell_length_b 18.535751
_cell_length_c 26.143206
_cell_angle_alpha 90.000000
_cell_angle_beta 90.000000
_cell_angle_gamma 90.000000
_cell_volume 4226.967705
_symmetry_space_group_name_H-M "C M M A"
_symmetry_group_IT_number 67
_symmetry_cell_setting 'orthorhombic'
loop_
_space_group_symop_operation_xyz
x,y,z
-x,1/2-y,z
x,-y,-z
-x,1/2+y,-z
-x,-y,-z
x,1/2+y,-z
-x,y,z
x,1/2-y,z
1/2+x,1/2+y,z
1/2-x,-y,z
1/2+x,1/2-y,-z
1/2-x,y,-z
1/2-x,1/2-y,-z
1/2+x,y,-z
1/2-x,1/2+y,z
1/2+x,-y,z
loop_
_atom_site_type_symbol
_atom_site_label
_atom_site_fract_x
_atom_site_fract_y
_atom_site_fract_z
Si Si1 0.172561 0.336062 0.448536
Si Si2 0.682416 0.580109 0.050802
Si Si3 0.825131 0.835251 0.757360
Si Si4 0.819601 0.921532 0.153570
Si Si5 0.828217 0.164200 0.653830
O O1 0.177409 0.250000 0.448498
O O2 0.250000 0.366483 0.500000
O O3 0.259964 0.367041 0.398925
O O4 0.000000 0.364824 0.446628
O O5 0.500000 0.580068 0.048769
O O6 0.750000 0.500000 0.051684
O O7 0.742582 0.616113 0.103332
O O8 0.750000 0.619835 0.000000
O O9 0.805668 0.750000 0.761956
O O10 0.714261 0.870793 0.798654
O O11 0.774495 0.862378 0.701287
O O12 0.000000 0.859331 0.766707
O O13 0.000000 0.928756 0.144756
O O14 0.750000 0.000000 0.164330
O O15 0.828023 0.250000 0.651436
O O16 0.000000 0.134402 0.660750
#
# Coordination Sequence:
#
# PCOD8278097 Si02
#       5
#    16  16  16  16  16
#     4   9  15  22  33  51  77 110 147 188 234 282
#     4  10  17  28  46  70  98 126 158 195 239 286
#     4  10  20  34  51  71  97 130 166 202 242 290
#     4  11  21  34  52  75 102 130 163 202 244 287
#     4   9  16  26  40  59  84 116 154 193 234 283
#
# _framework density 18.926096999999999
#
# number of rings (size 3 to 8) (size 9 to 14) (size 15 to 20)
#    0.000    2.200    0.000    7.200    0.000    6.000 
#    0.000    0.000    0.000    0.600    0.000    0.000 
#    0.000    0.800    0.000    8.000    0.000   12.400 
#
# Total GULP energy -495904.511482 kJ/mol
# GULP energy per Si atom -12397.612787 kJ/mol
# Density = 1.888302 g / cm^3
# Si number density = 18.926097 Si / 1000 Ang^3
#
#
#
# Elastic Constant Matrix: (Units=GPa)
#
#
# Indices 1 2 3 4 5 6 
#
# 1 167.1947 17.9971 62.6336 0.0000 0.0000 0.0000
# 2 17.9971 12.9258 22.6783 0.0000 0.0000 0.0000
# 3 62.6336 22.6783 172.3685 0.0000 0.0000 0.0000
# 4 0.0000 0.0000 0.0000 156.3931 0.0000 0.0000
# 5 0.0000 0.0000 0.0000 0.0000 43.5160 0.0000
# 6 0.0000 0.0000 0.0000 0.0000 0.0000 15.2251
#
#
#
# Elastic Compliance Matrix: (Units=1/GPa)
#
#
# Indices 1 2 3 4 5 6 
#
# 1 0.007415 -0.007277 -0.001737 0.000000 0.000000 0.000000
# 2 -0.007277 0.107724 -0.011529 0.000000 0.000000 0.000000
# 3 -0.001737 -0.011529 0.007950 0.000000 0.000000 0.000000
# 4 0.000000 0.000000 0.000000 0.006394 0.000000 0.000000
# 5 0.000000 0.000000 0.000000 0.000000 0.022980 0.000000
# 6 0.000000 0.000000 0.000000 0.000000 0.000000 0.065681
#
#
# Mechanical properties :
#
#
# Convention : Reuss Voigt Hill
#
# Bulk Modulus (GPa) = 12.19465 62.12300 37.15883
# Shear Modulus (GPa) = 17.44816 59.63884 38.54350
#
# Velocity S-wave (km/s) = 3.03959 5.61959 4.51769
# Velocity P-wave (km/s) = 4.33314 8.66035 6.84755
#
# Compressibility (1/GPa) = 0.08200315
#
# Stress axis : x y z
#
# Youngs Moduli (GPa) = 134.86102 9.28300 125.79328
#
# Poissons Ratio (x) = 0.06755 0.21851
# Poissons Ratio (y) = 0.98134 1.45026
# Poissons Ratio (z) = 0.23426 0.10702
#
# Static dielectric constant tensor:
#      x y z
#    x 3.646700 0.000000 0.000000 
#    y 0.000000 2.723940 0.000000 
#    z 0.000000 0.000000 4.194240 
# 
# 
# High freq. dielectric constant tensor:
#      x y z
#    x 1.757590 0.000000 0.000000 
#    y 0.000000 1.645210 0.000000 
#    z 0.000000 0.000000 1.764610 
# 
# From -- ./inp_files/43272.got.cif
#   From: 2010.03.12/outbox.cif.g09.slc.cpg/sg67_22_cif.got.tgz:43272.got - 2010.04.10 22:41:39.
