data_PCOD8278854
_publ_section_title
;
Structure prediction by ZEFSAII (Michael W. Deem and Ramdas Pophale) SiO2 
 PCOD8278854
Probable space group: C M M A
;
_chemical_formula_sum "Si O2"
_cell_formula_units_Z 112
_cell_length_a 16.716337
_cell_length_b 13.959843
_cell_length_c 25.277155
_cell_angle_alpha 90.000000
_cell_angle_beta 90.000000
_cell_angle_gamma 90.000000
_cell_volume 5898.612183
_symmetry_space_group_name_H-M "C M M A"
_symmetry_group_IT_number 67
_symmetry_cell_setting 'orthorhombic'
loop_
_space_group_symop_operation_xyz
x,y,z
-x,1/2-y,z
x,-y,-z
-x,1/2+y,-z
-x,-y,-z
x,1/2+y,-z
-x,y,z
x,1/2-y,z
1/2+x,1/2+y,z
1/2-x,-y,z
1/2+x,1/2-y,-z
1/2-x,y,-z
1/2-x,1/2-y,-z
1/2+x,y,-z
1/2-x,1/2+y,z
1/2+x,-y,z
loop_
_atom_site_type_symbol
_atom_site_label
_atom_site_fract_x
_atom_site_fract_y
_atom_site_fract_z
Si Si1 0.157477 0.976847 0.579885
Si Si2 0.324827 0.146163 0.151111
Si Si3 0.224773 0.108161 0.056734
Si Si4 0.906965 0.139564 0.515036
Si Si5 0.823225 0.637706 0.784751
Si Si6 0.590909 0.956818 0.121925
Si Si7 0.907030 0.861050 0.677835
O O1 0.148084 0.901335 0.531990
O O2 0.116274 0.930585 0.630488
O O3 0.250000 0.000000 0.590137
O O4 0.111816 0.076659 0.567145
O O5 0.364220 0.250000 0.166123
O O6 0.266460 0.169573 0.101958
O O7 0.268171 0.106078 0.199346
O O8 0.388808 0.069063 0.131698
O O9 0.130979 0.098569 0.071660
O O10 0.250000 0.000000 0.060990
O O11 0.250000 0.152631 0.000000
O O12 0.884785 0.250000 0.526189
O O13 0.000000 0.128902 0.499245
O O14 0.829028 0.750000 0.791494
O O15 0.888742 0.593552 0.823332
O O16 0.848280 0.608190 0.725613
O O17 0.500000 0.949010 0.107515
O O18 0.892982 0.750000 0.661765
O O19 0.000000 0.876891 0.693270
#
# Coordination Sequence:
#
# PCOD8278854 Si02
#       7
#    16  16  16  16  16  16  16
#     4  11  22  33  51  79 109 139 170 211 263 319
#     4   9  18  32  50  71  99 136 172 202 238 299
#     4   8  15  30  48  68  94 127 167 206 250 296
#     4  10  20  36  57  76 100 139 183 223 260 303
#     4   9  18  34  56  78  99 129 170 215 262 308
#     4  10  19  31  51  77 104 133 167 212 260 309
#     4  10  20  35  56  80 105 132 167 216 267 311
#
# _framework density 18.987518000000001
#
# number of rings (size 3 to 8) (size 9 to 14) (size 15 to 20)
#    0.000    2.429    0.000    4.714    0.000    5.429 
#    0.000    5.714    0.000    0.857    0.000    0.000 
#    0.000    0.000    0.000    0.000    0.000    0.000 
#
# Total GULP energy -693759.939997 kJ/mol
# GULP energy per Si atom -12388.570357 kJ/mol
# Density = 1.894430 g / cm^3
# Si number density = 18.987518 Si / 1000 Ang^3
#
#
#
# Elastic Constant Matrix: (Units=GPa)
#
#
# Indices 1 2 3 4 5 6 
#
# 1 58.1336 4.3946 6.8095 0.0000 0.0000 0.0000
# 2 4.3946 64.5648 26.9410 0.0000 0.0000 0.0000
# 3 6.8095 26.9410 90.7211 0.0000 0.0000 0.0000
# 4 0.0000 0.0000 0.0000 91.9502 0.0000 0.0000
# 5 0.0000 0.0000 0.0000 0.0000 23.3405 0.0000
# 6 0.0000 0.0000 0.0000 0.0000 0.0000 20.6440
#
#
#
# Elastic Compliance Matrix: (Units=1/GPa)
#
#
# Indices 1 2 3 4 5 6 
#
# 1 0.017384 -0.000729 -0.001088 0.000000 0.000000 0.000000
# 2 -0.000729 0.017710 -0.005204 0.000000 0.000000 0.000000
# 3 -0.001088 -0.005204 0.012650 0.000000 0.000000 0.000000
# 4 0.000000 0.000000 0.000000 0.010875 0.000000 0.000000
# 5 0.000000 0.000000 0.000000 0.000000 0.042844 0.000000
# 6 0.000000 0.000000 0.000000 0.000000 0.000000 0.048440
#
#
# Mechanical properties :
#
#
# Convention : Reuss Voigt Hill
#
# Bulk Modulus (GPa) = 29.67340 32.18997 30.93169
# Shear Modulus (GPa) = 28.54194 38.87189 33.70691
#
# Velocity S-wave (km/s) = 3.88131 4.52955 4.21790
# Velocity P-wave (km/s) = 5.97895 6.65926 6.32826
#
# Compressibility (1/GPa) = 0.03370021
#
# Stress axis : x y z
#
# Youngs Moduli (GPa) = 57.52293 56.46662 79.05138
#
# Poissons Ratio (x) = 0.04117 0.08603
# Poissons Ratio (y) = 0.04194 0.41141
# Poissons Ratio (z) = 0.06260 0.29387
#
# Static dielectric constant tensor:
#      x y z
#    x 3.468260 0.000000 0.000000 
#    y 0.000000 3.382230 0.000000 
#    z 0.000000 0.000000 3.903860 
# 
# 
# High freq. dielectric constant tensor:
#      x y z
#    x 1.722170 0.000000 0.000000 
#    y 0.000000 1.749420 0.000000 
#    z 0.000000 0.000000 1.723880 
# 
# From -- ./inp_files/44348.got.cif
#   From: 2010.03.12/outbox.cif.g09.slc.cpg/sg67_23_cif.got.tgz:44348.got - 2010.04.10 22:41:39.
