data_PCOD8278407
_publ_section_title
;
Structure prediction by ZEFSAII (Michael W. Deem and Ramdas Pophale) SiO2 
 PCOD8278407
Probable space group: C M M A
;
_chemical_formula_sum "Si O2"
_cell_formula_units_Z 96
_cell_length_a 18.138357
_cell_length_b 21.943829
_cell_length_c 12.408576
_cell_angle_alpha 90.000000
_cell_angle_beta 90.000000
_cell_angle_gamma 90.000000
_cell_volume 4938.923516
_symmetry_space_group_name_H-M "C M M A"
_symmetry_group_IT_number 67
_symmetry_cell_setting 'orthorhombic'
loop_
_space_group_symop_operation_xyz
x,y,z
-x,1/2-y,z
x,-y,-z
-x,1/2+y,-z
-x,-y,-z
x,1/2+y,-z
-x,y,z
x,1/2-y,z
1/2+x,1/2+y,z
1/2-x,-y,z
1/2+x,1/2-y,-z
1/2-x,y,-z
1/2-x,1/2-y,-z
1/2+x,y,-z
1/2-x,1/2+y,z
1/2+x,-y,z
loop_
_atom_site_type_symbol
_atom_site_label
_atom_site_fract_x
_atom_site_fract_y
_atom_site_fract_z
Si Si1 0.664613 0.515454 0.618777
Si Si2 0.085457 0.182609 0.874468
Si Si3 0.914213 0.082325 0.255133
Si Si4 0.913986 0.569240 0.988850
Si Si5 0.084394 0.864020 0.357988
Si Si6 0.413782 0.184593 0.590371
O O1 0.633068 0.500000 0.500000
O O2 0.750000 0.500000 0.625184
O O3 0.622849 0.480395 0.712589
O O4 0.646960 0.584815 0.645105
O O5 0.118051 0.250000 0.908607
O O6 0.096022 0.177876 0.746113
O O7 0.000000 0.182699 0.906266
O O8 0.120968 0.122379 0.933503
O O9 0.898882 0.095002 0.130274
O O10 0.877773 0.134776 0.330101
O O11 0.000000 0.075477 0.279122
O O12 0.000000 0.562935 0.016291
O O13 0.879819 0.500000 0.000000
O O14 0.101237 0.825919 0.464802
O O15 0.000000 0.890002 0.360587
O O16 0.500000 0.185519 0.614294
O O17 0.378894 0.250000 0.620260
#
# Coordination Sequence:
#
# PCOD8278407 Si02
#       6
#    16  16  16  16  16  16
#     4  11  22  34  50  74 105 134 166 214 268 315
#     4   9  17  29  49  80 112 141 175 216 261 306
#     4  10  19  32  52  75 100 133 168 203 252 310
#     4   9  17  29  46  72 105 136 171 215 258 303
#     4  10  18  31  53  76 103 136 171 212 255 307
#     4   9  17  28  45  73 102 126 160 206 251 297
#
# _framework density 19.437435000000001
#
# number of rings (size 3 to 8) (size 9 to 14) (size 15 to 20)
#    0.000    2.333    1.667    2.000    0.000    6.000 
#    0.000    3.333    0.000    7.500    0.000    1.167 
#    0.000    0.000    0.000    0.000    0.000    0.000 
#
# Total GULP energy -594743.468073 kJ/mol
# GULP energy per Si atom -12390.488918 kJ/mol
# Density = 1.939319 g / cm^3
# Si number density = 19.437435 Si / 1000 Ang^3
#
#
#
# Elastic Constant Matrix: (Units=GPa)
#
#
# Indices 1 2 3 4 5 6 
#
# 1 24.5972 14.6767 12.0945 0.0000 0.0000 0.0000
# 2 14.6767 145.9764 43.9222 0.0000 0.0000 0.0000
# 3 12.0945 43.9222 95.1694 0.0000 0.0000 0.0000
# 4 0.0000 0.0000 0.0000 26.4934 0.0000 0.0000
# 5 0.0000 0.0000 0.0000 0.0000 -5.8211 0.0000
# 6 0.0000 0.0000 0.0000 0.0000 0.0000 8.0200
#
#
#
# Elastic Compliance Matrix: (Units=1/GPa)
#
#
# Indices 1 2 3 4 5 6 
#
# 1 0.044639 -0.003230 -0.004182 0.000000 0.000000 0.000000
# 2 -0.003230 0.008189 -0.003369 0.000000 0.000000 0.000000
# 3 -0.004182 -0.003369 0.012594 0.000000 0.000000 0.000000
# 4 0.000000 0.000000 0.000000 0.037745 0.000000 0.000000
# 5 0.000000 0.000000 0.000000 0.000000 -0.171789 0.000000
# 6 0.000000 0.000000 0.000000 0.000000 0.000000 0.124688
#
#
# Mechanical properties :
#
#
# Convention : Reuss Voigt Hill
#
# Bulk Modulus (GPa) = 22.80002 45.23665 34.01833
# Shear Modulus (GPa) = 54.20233 18.74177 36.47205
#
# Velocity S-wave (km/s) = 5.28640 3.10854 4.33642
# Velocity P-wave (km/s) = 7.00120 6.01727 6.52780
#
# Compressibility (1/GPa) = 0.04385962
#
# Stress axis : x y z
#
# Youngs Moduli (GPa) = 22.40216 122.11860 79.40385
#
# Poissons Ratio (x) = 0.39440 0.33209
# Poissons Ratio (y) = 0.07235 0.26750
# Poissons Ratio (z) = 0.09369 0.41139
#
# Static dielectric constant tensor:
#      x y z
#    x 2.919710 0.000000 0.000000 
#    y 0.000000 3.958560 0.000000 
#    z 0.000000 0.000000 3.643440 
# 
# 
# High freq. dielectric constant tensor:
#      x y z
#    x 1.678880 0.000000 0.000000 
#    y 0.000000 1.771080 0.000000 
#    z 0.000000 0.000000 1.764940 
# 
# From -- ./inp_files/19606.got.cif
#   From: 2010.03.12/outbox.cif.g09.slc.cpg/sg67_10_cif.got.tgz:19606.got - 2010.04.10 22:41:39.
