data_PCOD8278590
_publ_section_title
;
Structure prediction by ZEFSAII (Michael W. Deem and Ramdas Pophale) SiO2 
 PCOD8278590
Probable space group: C M M A
;
_chemical_formula_sum "Si O2"
_cell_formula_units_Z 88
_cell_length_a 9.221757
_cell_length_b 25.226959
_cell_length_c 24.911394
_cell_angle_alpha 90.000000
_cell_angle_beta 90.000000
_cell_angle_gamma 90.000000
_cell_volume 5795.309120
_symmetry_space_group_name_H-M "C M M A"
_symmetry_group_IT_number 67
_symmetry_cell_setting 'orthorhombic'
loop_
_space_group_symop_operation_xyz
x,y,z
-x,1/2-y,z
x,-y,-z
-x,1/2+y,-z
-x,-y,-z
x,1/2+y,-z
-x,y,z
x,1/2-y,z
1/2+x,1/2+y,z
1/2-x,-y,z
1/2+x,1/2-y,-z
1/2-x,y,-z
1/2-x,1/2-y,-z
1/2+x,y,-z
1/2-x,1/2+y,z
1/2+x,-y,z
loop_
_atom_site_type_symbol
_atom_site_label
_atom_site_fract_x
_atom_site_fract_y
_atom_site_fract_z
Si Si1 0.328730 0.946205 0.445864
Si Si2 0.836549 0.187039 0.049728
Si Si3 0.329906 0.250000 0.555869
Si Si4 0.167543 0.347693 0.371550
Si Si5 0.830230 0.688265 0.270339
Si Si6 0.162937 0.312977 0.167106
O O1 0.500000 0.955328 0.456788
O O2 0.250000 0.925794 0.500000
O O3 0.304436 0.903881 0.399194
O O4 0.250000 0.000000 0.426965
O O5 0.826012 0.250000 0.046589
O O6 0.778693 0.167972 0.108414
O O7 0.000000 0.167614 0.043253
O O8 0.750000 0.161047 0.000000
O O9 0.500000 0.250000 0.544364
O O10 0.250000 0.250000 0.500000
O O11 0.280410 0.301653 0.588484
O O12 0.260532 0.346007 0.317606
O O13 0.000000 0.339303 0.356285
O O14 0.790629 0.750000 0.278715
O O15 0.767898 0.666263 0.213992
O O16 0.000000 0.678548 0.270093
O O17 0.159980 0.250000 0.167413
O O18 0.000000 0.334480 0.177077
#
# Coordination Sequence:
#
# PCOD8278590 Si02
#       6
#    16  16   8  16  16  16
#     4  10  20  34  52  71  88 110 138 170 209 252
#     4   8  13  20  30  45  64  90 126 167 209 245
#     4  10  20  32  46  64  86 110 135 166 203 246
#     4  10  20  33  48  64  85 114 142 167 206 255
#     4  10  19  28  40  60  82 106 138 175 212 247
#     4   8  14  24  36  48  68 101 135 167 206 251
#
# _framework density 15.184696000000001
#
# number of rings (size 3 to 8) (size 9 to 14) (size 15 to 20)
#    0.000    2.727    0.909    3.273    0.000    3.636 
#    0.000    3.636    0.000    0.000    0.000    0.000 
#    0.000    0.000    0.000    0.000    0.000    0.909 
#
# Total GULP energy -545378.171851 kJ/mol
# GULP energy per Si atom -12394.958451 kJ/mol
# Density = 1.515013 g / cm^3
# Si number density = 15.184696 Si / 1000 Ang^3
#
#
#
# Elastic Constant Matrix: (Units=GPa)
#
#
# Indices 1 2 3 4 5 6 
#
# 1 85.8103 28.7706 74.9712 0.0000 0.0000 0.0000
# 2 28.7706 40.0891 37.7247 0.0000 0.0000 0.0000
# 3 74.9712 37.7247 157.9026 0.0000 0.0000 0.0000
# 4 0.0000 0.0000 0.0000 10.5070 0.0000 0.0000
# 5 0.0000 0.0000 0.0000 0.0000 33.4801 0.0000
# 6 0.0000 0.0000 0.0000 0.0000 0.0000 14.8690
#
#
#
# Elastic Compliance Matrix: (Units=1/GPa)
#
#
# Indices 1 2 3 4 5 6 
#
# 1 0.021543 -0.007528 -0.008430 0.000000 0.000000 0.000000
# 2 -0.007528 0.034809 -0.004742 0.000000 0.000000 0.000000
# 3 -0.008430 -0.004742 0.011468 0.000000 0.000000 0.000000
# 4 0.000000 0.000000 0.000000 0.095174 0.000000 0.000000
# 5 0.000000 0.000000 0.000000 0.000000 0.029868 0.000000
# 6 0.000000 0.000000 0.000000 0.000000 0.000000 0.067254
#
#
# Mechanical properties :
#
#
# Convention : Reuss Voigt Hill
#
# Bulk Modulus (GPa) = 37.84900 62.97058 50.40979
# Shear Modulus (GPa) = 16.11221 21.26026 18.68623
#
# Velocity S-wave (km/s) = 3.26096 3.74586 3.51179
# Velocity P-wave (km/s) = 6.25766 7.76328 7.05077
#
# Compressibility (1/GPa) = 0.02642077
#
# Stress axis : x y z
#
# Youngs Moduli (GPa) = 46.41982 28.72791 87.19601
#
# Poissons Ratio (x) = 0.21626 0.73505
# Poissons Ratio (y) = 0.34943 0.41350
# Poissons Ratio (z) = 0.39131 0.13623
#
# Static dielectric constant tensor:
#      x y z
#    x 2.997600 0.000000 0.000000 
#    y 0.000000 2.474700 0.000000 
#    z 0.000000 0.000000 3.234250 
# 
# 
# High freq. dielectric constant tensor:
#      x y z
#    x 1.587980 0.000000 0.000000 
#    y 0.000000 1.515760 0.000000 
#    z 0.000000 0.000000 1.594080 
# 
# From -- ./inp_files/41122.got.cif
#   From: 2010.03.12/outbox.cif.g09.slc.cpg/sg67_21_cif.got.tgz:41122.got - 2010.04.10 22:41:39.
