data_PCOD8278307
_publ_section_title
;
Structure prediction by ZEFSAII (Michael W. Deem and Ramdas Pophale) SiO2 
 PCOD8278307
Probable space group: C M M A
;
_chemical_formula_sum "Si O2"
_cell_formula_units_Z 112
_cell_length_a 19.565935
_cell_length_b 18.074714
_cell_length_c 17.272558
_cell_angle_alpha 90.000000
_cell_angle_beta 90.000000
_cell_angle_gamma 90.000000
_cell_volume 6108.417324
_symmetry_space_group_name_H-M "C M M A"
_symmetry_group_IT_number 67
_symmetry_cell_setting 'orthorhombic'
loop_
_space_group_symop_operation_xyz
x,y,z
-x,1/2-y,z
x,-y,-z
-x,1/2+y,-z
-x,-y,-z
x,1/2+y,-z
-x,y,z
x,1/2-y,z
1/2+x,1/2+y,z
1/2-x,-y,z
1/2+x,1/2-y,-z
1/2-x,y,-z
1/2-x,1/2-y,-z
1/2+x,y,-z
1/2-x,1/2+y,z
1/2+x,-y,z
loop_
_atom_site_type_symbol
_atom_site_label
_atom_site_fract_x
_atom_site_fract_y
_atom_site_fract_z
Si Si1 0.321297 0.663521 0.038263
Si Si2 0.843573 0.835242 0.352241
Si Si3 0.080086 0.571158 0.051071
Si Si4 0.691949 0.596294 0.197546
Si Si5 0.668436 0.583614 0.496327
Si Si6 0.655929 0.068985 0.208857
Si Si7 0.818692 0.832084 0.650267
O O1 0.319892 0.750000 0.057567
O O2 0.339686 0.617178 0.115196
O O3 0.250000 0.637674 0.000000
O O4 0.382343 0.644399 0.979960
O O5 0.868585 0.750000 0.344169
O O6 0.866849 0.869320 0.434683
O O7 0.874449 0.885737 0.282517
O O8 0.762461 0.841053 0.350795
O O9 0.100670 0.564887 0.140637
O O10 0.000000 0.583718 0.044625
O O11 0.103196 0.500000 0.000000
O O12 0.674139 0.515192 0.229270
O O13 0.773304 0.608789 0.184960
O O14 0.658691 0.648971 0.262547
O O15 0.641759 0.500000 0.500000
O O16 0.750000 0.587808 0.500000
O O17 0.645367 0.616146 0.413476
O O18 0.841920 0.750000 0.629288
#
# Coordination Sequence:
#
# PCOD8278307 Si02
#       7
#    16  16  16  16  16  16  16
#     4  11  22  35  55  79 105 137 176 223 274 323
#     4   9  17  27  41  65  97 134 175 214 257 314
#     4  11  23  39  57  77 104 140 180 222 273 328
#     4  10  18  30  49  74 100 131 176 217 260 316
#     4   9  15  24  38  59  93 136 177 206 248 310
#     4  10  19  31  51  72  98 134 172 219 265 312
#     4   9  16  25  39  62  97 134 166 208 257 307
#
# _framework density 18.335355
#
# number of rings (size 3 to 8) (size 9 to 14) (size 15 to 20)
#    0.000    2.143    2.857    1.714    0.000    6.857 
#    0.000    0.000    0.000    0.000    0.000    0.000 
#    0.000    6.286    0.000    2.857    0.000    0.000 
#
# Total GULP energy -694142.579980 kJ/mol
# GULP energy per Si atom -12395.403214 kJ/mol
# Density = 1.829362 g / cm^3
# Si number density = 18.335355 Si / 1000 Ang^3
#
#
#
# Elastic Constant Matrix: (Units=GPa)
#
#
# Indices 1 2 3 4 5 6 
#
# 1 40.5427 18.4903 24.0029 0.0000 0.0000 0.0000
# 2 18.4903 111.7940 63.9013 0.0000 0.0000 0.0000
# 3 24.0029 63.9013 144.4611 0.0000 0.0000 0.0000
# 4 0.0000 0.0000 0.0000 38.3823 0.0000 0.0000
# 5 0.0000 0.0000 0.0000 0.0000 8.7180 0.0000
# 6 0.0000 0.0000 0.0000 0.0000 0.0000 8.8035
#
#
#
# Elastic Compliance Matrix: (Units=1/GPa)
#
#
# Indices 1 2 3 4 5 6 
#
# 1 0.027923 -0.002632 -0.003475 0.000000 0.000000 0.000000
# 2 -0.002632 0.012220 -0.004968 0.000000 0.000000 0.000000
# 3 -0.003475 -0.004968 0.009697 0.000000 0.000000 0.000000
# 4 0.000000 0.000000 0.000000 0.026054 0.000000 0.000000
# 5 0.000000 0.000000 0.000000 0.000000 0.114706 0.000000
# 6 0.000000 0.000000 0.000000 0.000000 0.000000 0.113591
#
#
# Mechanical properties :
#
#
# Convention : Reuss Voigt Hill
#
# Bulk Modulus (GPa) = 36.11430 56.62075 46.36753
# Shear Modulus (GPa) = 14.89993 23.87431 19.38712
#
# Velocity S-wave (km/s) = 2.85377 3.61237 3.25524
# Velocity P-wave (km/s) = 5.53154 6.95317 6.28270
#
# Compressibility (1/GPa) = 0.02768986
#
# Stress axis : x y z
#
# Youngs Moduli (GPa) = 35.81242 81.83218 103.12071
#
# Poissons Ratio (x) = 0.21537 0.35839
# Poissons Ratio (y) = 0.09425 0.51232
# Poissons Ratio (z) = 0.12446 0.40656
#
# Static dielectric constant tensor:
#      x y z
#    x 2.693830 0.000000 0.000000 
#    y 0.000000 3.418440 0.000000 
#    z 0.000000 0.000000 3.563620 
# 
# 
# High freq. dielectric constant tensor:
#      x y z
#    x 1.627990 0.000000 0.000000 
#    y 0.000000 1.720060 0.000000 
#    z 0.000000 0.000000 1.729730 
# 
# From -- ./inp_files/35117.got.cif
#   From: 2010.03.12/outbox.cif.g09.slc.cpg/sg67_18_cif.got.tgz:35117.got - 2010.04.10 22:41:39.
