data_PCOD8278747
_publ_section_title
;
Structure prediction by ZEFSAII (Michael W. Deem and Ramdas Pophale) SiO2 
 PCOD8278747
Probable space group: C M M A
;
_chemical_formula_sum "Si O2"
_cell_formula_units_Z 96
_cell_length_a 20.228097
_cell_length_b 8.698171
_cell_length_c 30.035992
_cell_angle_alpha 90.000000
_cell_angle_beta 90.000000
_cell_angle_gamma 90.000000
_cell_volume 5284.756102
_symmetry_space_group_name_H-M "C M M A"
_symmetry_group_IT_number 67
_symmetry_cell_setting 'orthorhombic'
loop_
_space_group_symop_operation_xyz
x,y,z
-x,1/2-y,z
x,-y,-z
-x,1/2+y,-z
-x,-y,-z
x,1/2+y,-z
-x,y,z
x,1/2-y,z
1/2+x,1/2+y,z
1/2-x,-y,z
1/2+x,1/2-y,-z
1/2-x,y,-z
1/2-x,1/2-y,-z
1/2+x,y,-z
1/2-x,1/2+y,z
1/2+x,-y,z
loop_
_atom_site_type_symbol
_atom_site_label
_atom_site_fract_x
_atom_site_fract_y
_atom_site_fract_z
Si Si1 0.423864 0.930542 0.546923
Si Si2 0.180658 0.568513 0.612908
Si Si3 0.320593 0.066357 0.952408
Si Si4 0.181511 0.068329 0.285518
Si Si5 0.073534 0.567097 0.782133
Si Si6 0.573689 0.567462 0.118616
O O1 0.500000 0.973087 0.556794
O O2 0.412360 0.750000 0.545348
O O3 0.401010 0.000000 0.500000
O O4 0.380235 0.003123 0.585477
O O5 0.183530 0.750000 0.607474
O O6 0.250000 0.500000 0.595407
O O7 0.168214 0.517031 0.663792
O O8 0.317108 0.250000 0.954690
O O9 0.373836 0.003837 0.916872
O O10 0.250000 0.000000 0.937708
O O11 0.342068 0.000000 0.000000
O O12 0.185126 0.250000 0.281657
O O13 0.123960 0.998961 0.254248
O O14 0.250000 0.000000 0.267875
O O15 0.074654 0.750000 0.780499
O O16 0.093463 0.510845 0.831756
O O17 0.000000 0.507479 0.770332
O O18 0.500000 0.507283 0.106521
O O19 0.573864 0.750000 0.117459
#
# Coordination Sequence:
#
# PCOD8278747 Si02
#       6
#    16  16  16  16  16  16
#     4  10  21  37  56  78 104 133 166 205 249 296
#     4  10  20  34  52  75 104 135 169 207 246 291
#     4  10  19  31  47  67  92 121 154 192 235 282
#     4   9  18  31  49  73  99 128 160 197 239 282
#     4   8  14  27  47  70  95 123 158 197 234 277
#     4   8  15  28  46  68  93 121 155 195 236 279
#
# _framework density 18.165455000000001
#
# number of rings (size 3 to 8) (size 9 to 14) (size 15 to 20)
#    0.000    2.833    0.000    3.000    0.000    3.667 
#    0.000    3.333    0.000    3.000    0.000    4.667 
#    0.000    0.000    0.000    0.000    0.000    0.000 
#
# Total GULP energy -595106.744865 kJ/mol
# GULP energy per Si atom -12398.057185 kJ/mol
# Density = 1.812411 g / cm^3
# Si number density = 18.165455 Si / 1000 Ang^3
#
#
#
# Elastic Constant Matrix: (Units=GPa)
#
#
# Indices 1 2 3 4 5 6 
#
# 1 146.7462 33.2290 107.1411 0.0000 0.0000 0.0000
# 2 33.2290 45.4202 30.4161 0.0000 0.0000 0.0000
# 3 107.1411 30.4161 128.7981 0.0000 0.0000 0.0000
# 4 0.0000 0.0000 0.0000 16.5963 0.0000 0.0000
# 5 0.0000 0.0000 0.0000 0.0000 43.8260 0.0000
# 6 0.0000 0.0000 0.0000 0.0000 0.0000 25.9361
#
#
#
# Elastic Compliance Matrix: (Units=1/GPa)
#
#
# Indices 1 2 3 4 5 6 
#
# 1 0.017864 -0.003704 -0.013986 0.000000 0.000000 0.000000
# 2 -0.003704 0.026920 -0.003276 0.000000 0.000000 0.000000
# 3 -0.013986 -0.003276 0.020172 0.000000 0.000000 0.000000
# 4 0.000000 0.000000 0.000000 0.060254 0.000000 0.000000
# 5 0.000000 0.000000 0.000000 0.000000 0.022817 0.000000
# 6 0.000000 0.000000 0.000000 0.000000 0.000000 0.038556
#
#
# Mechanical properties :
#
#
# Convention : Reuss Voigt Hill
#
# Bulk Modulus (GPa) = 43.43151 73.61521 58.52336
# Shear Modulus (GPa) = 21.16922 27.28358 24.22640
#
# Velocity S-wave (km/s) = 3.41743 3.87970 3.65588
# Velocity P-wave (km/s) = 6.28749 7.78988 7.07866
#
# Compressibility (1/GPa) = 0.02302476
#
# Stress axis : x y z
#
# Youngs Moduli (GPa) = 55.97709 37.14673 49.57338
#
# Poissons Ratio (x) = 0.13758 0.69333
# Poissons Ratio (y) = 0.20732 0.16243
# Poissons Ratio (z) = 0.78289 0.12171
#
# Static dielectric constant tensor:
#      x y z
#    x 3.599760 0.000000 0.000000 
#    y 0.000000 3.081990 0.000000 
#    z 0.000000 0.000000 3.574910 
# 
# 
# High freq. dielectric constant tensor:
#      x y z
#    x 1.710210 0.000000 0.000000 
#    y 0.000000 1.679060 0.000000 
#    z 0.000000 0.000000 1.707390 
# 
# From -- ./inp_files/44573.got.cif
#   From: 2010.03.12/outbox.cif.g09.slc.cpg/sg67_23_cif.got.tgz:44573.got - 2010.04.10 22:41:39.
