data_PCOD8278401
_publ_section_title
;
Structure prediction by ZEFSAII (Michael W. Deem and Ramdas Pophale) SiO2 
 PCOD8278401
Probable space group: C M M A
;
_chemical_formula_sum "Si O2"
_cell_formula_units_Z 128
_cell_length_a 20.027824
_cell_length_b 17.156481
_cell_length_c 21.371954
_cell_angle_alpha 90.000000
_cell_angle_beta 90.000000
_cell_angle_gamma 90.000000
_cell_volume 7343.552612
_symmetry_space_group_name_H-M "C M M A"
_symmetry_group_IT_number 67
_symmetry_cell_setting 'orthorhombic'
loop_
_space_group_symop_operation_xyz
x,y,z
-x,1/2-y,z
x,-y,-z
-x,1/2+y,-z
-x,-y,-z
x,1/2+y,-z
-x,y,z
x,1/2-y,z
1/2+x,1/2+y,z
1/2-x,-y,z
1/2+x,1/2-y,-z
1/2-x,y,-z
1/2-x,1/2-y,-z
1/2+x,y,-z
1/2-x,1/2+y,z
1/2+x,-y,z
loop_
_atom_site_type_symbol
_atom_site_label
_atom_site_fract_x
_atom_site_fract_y
_atom_site_fract_z
Si Si1 0.925644 0.833840 0.631939
Si Si2 0.925932 0.949079 0.165728
Si Si3 0.323584 0.481144 0.927646
Si Si4 0.079167 0.512870 0.572023
Si Si5 0.802486 0.837987 0.851436
Si Si6 0.325481 0.341753 0.230082
Si Si7 0.611507 0.915206 0.247398
Si Si8 0.317420 0.965861 0.668282
O O1 0.886990 0.750000 0.628218
O O2 0.894594 0.899307 0.586607
O O3 0.929996 0.866960 0.702097
O O4 0.000000 0.818886 0.608544
O O5 0.895002 0.877554 0.205034
O O6 0.000000 0.924538 0.142930
O O7 0.879389 0.967913 0.106607
O O8 0.934854 0.026689 0.207701
O O9 0.250000 0.500000 0.902519
O O10 0.327237 0.389478 0.910640
O O11 0.332171 0.500000 0.000000
O O12 0.095126 0.500000 0.500000
O O13 0.123342 0.456285 0.616401
O O14 0.000000 0.501255 0.587250
O O15 0.805705 0.750000 0.875686
O O16 0.729347 0.857710 0.823817
O O17 0.853940 0.850602 0.795279
O O18 0.333567 0.250000 0.243449
O O19 0.306874 0.383177 0.296313
O O20 0.666936 0.969660 0.279318
O O21 0.250000 0.000000 0.635906
#
# Coordination Sequence:
#
# PCOD8278401 Si02
#       8
#    16  16  16  16  16  16  16  16
#     4   9  16  27  45  72 100 124 158 207 259 305
#     4  10  20  33  53  76 105 142 177 212 257 313
#     4  10  20  36  55  75 102 135 180 227 257 304
#     4   9  19  35  51  68  97 139 181 214 249 306
#     4  10  18  31  53  79 104 134 167 209 266 316
#     4  10  20  33  51  78 111 137 167 211 263 319
#     4   9  17  28  50  74 105 128 163 203 258 317
#     4  10  18  31  52  77 101 131 167 216 259 310
#
# _framework density 17.430256
#
# number of rings (size 3 to 8) (size 9 to 14) (size 15 to 20)
#    0.000    2.375    2.500    0.750    0.000    3.750 
#    0.000    2.500    0.000    4.125    0.000    2.625 
#    0.000    0.000    0.000    0.000    0.000    0.000 
#
# Total GULP energy -792933.836787 kJ/mol
# GULP energy per Si atom -12389.591200 kJ/mol
# Density = 1.739058 g / cm^3
# Si number density = 17.430256 Si / 1000 Ang^3
#
#
#
# Elastic Constant Matrix: (Units=GPa)
#
#
# Indices 1 2 3 4 5 6 
#
# 1 91.1068 28.3806 35.7285 0.0000 0.0000 0.0000
# 2 28.3806 103.0593 52.4725 0.0000 0.0000 0.0000
# 3 35.7285 52.4725 105.5500 0.0000 0.0000 0.0000
# 4 0.0000 0.0000 0.0000 15.0296 0.0000 0.0000
# 5 0.0000 0.0000 0.0000 0.0000 21.5900 0.0000
# 6 0.0000 0.0000 0.0000 0.0000 0.0000 15.3916
#
#
#
# Elastic Compliance Matrix: (Units=1/GPa)
#
#
# Indices 1 2 3 4 5 6 
#
# 1 0.012895 -0.001779 -0.003481 0.000000 0.000000 0.000000
# 2 -0.001779 0.013237 -0.005978 0.000000 0.000000 0.000000
# 3 -0.003481 -0.005978 0.013624 0.000000 0.000000 0.000000
# 4 0.000000 0.000000 0.000000 0.066535 0.000000 0.000000
# 5 0.000000 0.000000 0.000000 0.000000 0.046318 0.000000
# 6 0.000000 0.000000 0.000000 0.000000 0.000000 0.064971
#
#
# Mechanical properties :
#
#
# Convention : Reuss Voigt Hill
#
# Bulk Modulus (GPa) = 57.86802 59.20880 58.53841
# Shear Modulus (GPa) = 20.34039 22.61121 21.47580
#
# Velocity S-wave (km/s) = 3.41978 3.60563 3.51393
# Velocity P-wave (km/s) = 6.99035 7.16776 7.07961
#
# Compressibility (1/GPa) = 0.01728070
#
# Stress axis : x y z
#
# Youngs Moduli (GPa) = 77.54787 75.54640 73.39766
#
# Poissons Ratio (x) = 0.13439 0.25547
# Poissons Ratio (y) = 0.13795 0.43880
# Poissons Ratio (z) = 0.26992 0.45164
#
# Static dielectric constant tensor:
#      x y z
#    x 3.146990 0.000000 0.000000 
#    y 0.000000 3.382060 0.000000 
#    z 0.000000 0.000000 3.007770 
# 
# 
# High freq. dielectric constant tensor:
#      x y z
#    x 1.664990 0.000000 0.000000 
#    y 0.000000 1.669260 0.000000 
#    z 0.000000 0.000000 1.652000 
# 
# From -- ./inp_files/39442.got.cif
#   From: 2010.03.12/outbox.cif.g09.slc.cpg/sg67_20_cif.got.tgz:39442.got - 2010.04.10 22:41:39.
