data_PCOD8278775
_publ_section_title
;
Structure prediction by ZEFSAII (Michael W. Deem and Ramdas Pophale) SiO2 
 PCOD8278775
Probable space group: C M M A
;
_chemical_formula_sum "Si O2"
_cell_formula_units_Z 96
_cell_length_a 27.423533
_cell_length_b 8.892118
_cell_length_c 23.871724
_cell_angle_alpha 90.000000
_cell_angle_beta 90.000000
_cell_angle_gamma 90.000000
_cell_volume 5821.198469
_symmetry_space_group_name_H-M "C M M A"
_symmetry_group_IT_number 67
_symmetry_cell_setting 'orthorhombic'
loop_
_space_group_symop_operation_xyz
x,y,z
-x,1/2-y,z
x,-y,-z
-x,1/2+y,-z
-x,-y,-z
x,1/2+y,-z
-x,y,z
x,1/2-y,z
1/2+x,1/2+y,z
1/2-x,-y,z
1/2+x,1/2-y,-z
1/2-x,y,-z
1/2-x,1/2-y,-z
1/2+x,y,-z
1/2-x,1/2+y,z
1/2+x,-y,z
loop_
_atom_site_type_symbol
_atom_site_label
_atom_site_fract_x
_atom_site_fract_y
_atom_site_fract_z
Si Si1 0.056225 0.572991 0.943098
Si Si2 0.103963 0.426408 0.168276
Si Si3 0.801183 0.425798 0.556755
Si Si4 0.944474 0.927510 0.719161
Si Si5 0.800643 0.072865 0.230376
Si Si6 0.355431 0.425160 0.330910
O O1 0.063090 0.750000 0.948473
O O2 0.087083 0.503866 0.891036
O O3 0.000000 0.529090 0.933292
O O4 0.076483 0.500000 0.000000
O O5 0.096232 0.250000 0.163717
O O6 0.069526 0.485165 0.218588
O O7 0.160038 0.467239 0.182033
O O8 0.822034 0.500000 0.500000
O O9 0.792695 0.250000 0.546878
O O10 0.750000 0.500000 0.573609
O O11 0.839757 0.456769 0.605627
O O12 0.935149 0.750000 0.714165
O O13 0.000000 0.970822 0.706033
O O14 0.910185 0.011485 0.674662
O O15 0.794115 0.250000 0.237191
O O16 0.750000 0.000000 0.211597
O O17 0.818163 0.009258 0.289777
O O18 0.354076 0.250000 0.315917
#
# Coordination Sequence:
#
# PCOD8278775 Si02
#       6
#    16  16  16  16  16  16
#     4   9  16  27  44  65  89 116 146 182 223 267
#     4   8  15  28  46  66  89 119 152 184 221 269
#     4  10  20  32  48  69  93 121 152 186 225 269
#     4   9  17  30  49  71  93 121 156 190 227 272
#     4  10  19  31  48  69  92 120 153 188 227 272
#     4  10  20  32  47  70  97 124 152 185 228 272
#
# _framework density 16.49145
#
# number of rings (size 3 to 8) (size 9 to 14) (size 15 to 20)
#    0.000    2.667    0.000    4.000    0.000    6.333 
#    0.000    4.167    0.000    5.000    0.000    3.500 
#    0.000    0.000    0.000    0.000    0.000    0.000 
#
# Total GULP energy -595122.873284 kJ/mol
# GULP energy per Si atom -12398.393193 kJ/mol
# Density = 1.645391 g / cm^3
# Si number density = 16.491450 Si / 1000 Ang^3
#
#
#
# Elastic Constant Matrix: (Units=GPa)
#
#
# Indices 1 2 3 4 5 6 
#
# 1 119.3248 49.9512 74.0166 0.0000 0.0000 0.0000
# 2 49.9512 68.4089 51.3220 0.0000 0.0000 0.0000
# 3 74.0166 51.3220 132.5838 0.0000 0.0000 0.0000
# 4 0.0000 0.0000 0.0000 25.0949 0.0000 0.0000
# 5 0.0000 0.0000 0.0000 0.0000 27.5354 0.0000
# 6 0.0000 0.0000 0.0000 0.0000 0.0000 27.3205
#
#
#
# Elastic Compliance Matrix: (Units=1/GPa)
#
#
# Indices 1 2 3 4 5 6 
#
# 1 0.014565 -0.006391 -0.005657 0.000000 0.000000 0.000000
# 2 -0.006391 0.023405 -0.005492 0.000000 0.000000 0.000000
# 3 -0.005657 -0.005492 0.012826 0.000000 0.000000 0.000000
# 4 0.000000 0.000000 0.000000 0.039849 0.000000 0.000000
# 5 0.000000 0.000000 0.000000 0.000000 0.036317 0.000000
# 6 0.000000 0.000000 0.000000 0.000000 0.000000 0.036603
#
#
# Mechanical properties :
#
#
# Convention : Reuss Voigt Hill
#
# Bulk Modulus (GPa) = 63.62936 74.54412 69.08674
# Shear Modulus (GPa) = 24.52386 25.65869 25.09128
#
# Velocity S-wave (km/s) = 3.86043 3.94874 3.90484
# Velocity P-wave (km/s) = 7.65099 8.12957 7.89391
#
# Compressibility (1/GPa) = 0.01571601
#
# Stress axis : x y z
#
# Youngs Moduli (GPa) = 68.65789 42.72642 77.96372
#
# Poissons Ratio (x) = 0.27306 0.44106
# Poissons Ratio (y) = 0.43879 0.42817
# Poissons Ratio (z) = 0.38841 0.23465
#
# Static dielectric constant tensor:
#      x y z
#    x 3.116300 0.000000 0.000000 
#    y 0.000000 3.043980 0.000000 
#    z 0.000000 0.000000 3.193350 
# 
# 
# High freq. dielectric constant tensor:
#      x y z
#    x 1.625510 0.000000 0.000000 
#    y 0.000000 1.629460 0.000000 
#    z 0.000000 0.000000 1.627440 
# 
# From -- ./inp_files/40941.got.cif
#   From: 2010.03.12/outbox.cif.g09.slc.cpg/sg67_21_cif.got.tgz:40941.got - 2010.04.10 22:41:39.
