data_PCOD8278501
_publ_section_title
;
Structure prediction by ZEFSAII (Michael W. Deem and Ramdas Pophale) SiO2 
 PCOD8278501
Probable space group: C M M A
;
_chemical_formula_sum "Si O2"
_cell_formula_units_Z 96
_cell_length_a 14.078706
_cell_length_b 26.579630
_cell_length_c 14.572414
_cell_angle_alpha 90.000000
_cell_angle_beta 90.000000
_cell_angle_gamma 90.000000
_cell_volume 5453.096358
_symmetry_space_group_name_H-M "C M M A"
_symmetry_group_IT_number 67
_symmetry_cell_setting 'orthorhombic'
loop_
_space_group_symop_operation_xyz
x,y,z
-x,1/2-y,z
x,-y,-z
-x,1/2+y,-z
-x,-y,-z
x,1/2+y,-z
-x,y,z
x,1/2-y,z
1/2+x,1/2+y,z
1/2-x,-y,z
1/2+x,1/2-y,-z
1/2-x,y,-z
1/2-x,1/2-y,-z
1/2+x,y,-z
1/2-x,1/2+y,z
1/2+x,-y,z
loop_
_atom_site_type_symbol
_atom_site_label
_atom_site_fract_x
_atom_site_fract_y
_atom_site_fract_z
Si Si1 0.207944 0.891348 0.716955
Si Si2 0.803472 0.193799 0.594823
Si Si3 0.500000 0.138684 0.684496
Si Si4 0.607347 0.021041 0.908286
Si Si5 0.824694 0.629827 0.917314
Si Si6 0.000000 0.307902 0.127910
Si Si7 0.750000 0.500000 0.245122
Si Si8 0.000000 0.308343 0.511122
O O1 0.256314 0.849124 0.655403
O O2 0.231829 0.873633 0.820697
O O3 0.094574 0.894816 0.698141
O O4 0.249028 0.947821 0.696104
O O5 0.798368 0.250000 0.640915
O O6 0.750000 0.196721 0.500000
O O7 0.911041 0.177567 0.574565
O O8 0.500000 0.181171 0.763076
O O9 0.500000 0.161772 0.583662
O O10 0.500000 0.002202 0.900045
O O11 0.611562 0.080353 0.920415
O O12 0.657703 0.999431 0.818741
O O13 0.656722 0.000000 0.000000
O O14 0.902798 0.673638 0.920164
O O15 0.750000 0.636201 0.000000
O O16 0.000000 0.250000 0.110780
O O17 0.000000 0.250000 0.483538
#
# Coordination Sequence:
#
# PCOD8278501 Si02
#       8
#    16  16   8  16  16   8   8   8
#     4  10  21  36  57  84 113 149 182 236 278 339
#     4  10  20  36  59  86 112 140 185 239 289 328
#     4  10  19  34  61  83 104 137 192 241 279 316
#     4  10  18  32  56  81 102 135 186 244 282 314
#     4  10  20  36  56  80 112 147 192 232 276 324
#     4  10  21  34  50  80 114 146 190 233 276 332
#     4  10  21  34  51  78 118 148 178 220 280 346
#     4  10  19  34  60  87 110 135 178 246 295 326
#
# _framework density 17.604676999999999
#
# number of rings (size 3 to 8) (size 9 to 14) (size 15 to 20)
#    0.000    2.000    2.500    2.500    3.500    3.000 
#    1.500    1.250    0.000    2.000    0.000    0.000 
#    0.000    0.000    0.000    0.000    0.000    0.000 
#
# Total GULP energy -594864.260699 kJ/mol
# GULP energy per Si atom -12393.005431 kJ/mol
# Density = 1.756461 g / cm^3
# Si number density = 17.604677 Si / 1000 Ang^3
#
#
#
# Elastic Constant Matrix: (Units=GPa)
#
#
# Indices 1 2 3 4 5 6 
#
# 1 109.2575 56.7609 33.7778 0.0000 0.0000 0.0000
# 2 56.7609 130.4382 50.6470 0.0000 0.0000 0.0000
# 3 33.7778 50.6470 75.0987 0.0000 0.0000 0.0000
# 4 0.0000 0.0000 0.0000 26.6143 0.0000 0.0000
# 5 0.0000 0.0000 0.0000 0.0000 744.1762 0.0000
# 6 0.0000 0.0000 0.0000 0.0000 0.0000 18.0349
#
#
#
# Elastic Compliance Matrix: (Units=1/GPa)
#
#
# Indices 1 2 3 4 5 6 
#
# 1 0.012184 -0.004300 -0.002580 0.000000 0.000000 0.000000
# 2 -0.004300 0.011904 -0.006094 0.000000 0.000000 0.000000
# 3 -0.002580 -0.006094 0.018586 0.000000 0.000000 0.000000
# 4 0.000000 0.000000 0.000000 0.037574 0.000000 0.000000
# 5 0.000000 0.000000 0.000000 0.000000 0.001344 0.000000
# 6 0.000000 0.000000 0.000000 0.000000 0.000000 0.055448
#
#
# Mechanical properties :
#
#
# Convention : Reuss Voigt Hill
#
# Bulk Modulus (GPa) = 59.78812 66.35176 63.06994
# Shear Modulus (GPa) = 29.66236 169.33900 99.50068
#
# Velocity S-wave (km/s) = 4.10922 9.81828 7.52610
# Velocity P-wave (km/s) = 7.51994 12.89586 10.55587
#
# Compressibility (1/GPa) = 0.01672573
#
# Stress axis : x y z
#
# Youngs Moduli (GPa) = 82.07199 84.00604 53.80381
#
# Poissons Ratio (x) = 0.36125 0.13882
# Poissons Ratio (y) = 0.35293 0.32787
# Poissons Ratio (z) = 0.21176 0.51192
#
# Static dielectric constant tensor:
#      x y z
#    x 3.293650 0.000000 0.000000 
#    y 0.000000 3.354850 0.000000 
#    z 0.000000 0.000000 5.435780 
# 
# 
# High freq. dielectric constant tensor:
#      x y z
#    x 1.690980 0.000000 0.000000 
#    y 0.000000 1.676410 0.000000 
#    z 0.000000 0.000000 1.662160 
# 
# From -- ./inp_files/27460.got.cif
#   From: 2010.03.12/outbox.cif.g09.slc.cpg/sg67_14_cif.got.tgz:27460.got - 2010.04.10 22:41:39.
