data_PCOD8278120
_publ_section_title
;
Structure prediction by ZEFSAII (Michael W. Deem and Ramdas Pophale) SiO2 
 PCOD8278120
Probable space group: C M M A
;
_chemical_formula_sum "Si O2"
_cell_formula_units_Z 64
_cell_length_a 15.099591
_cell_length_b 8.525529
_cell_length_c 24.568738
_cell_angle_alpha 90.000000
_cell_angle_beta 90.000000
_cell_angle_gamma 90.000000
_cell_volume 3162.782804
_symmetry_space_group_name_H-M "C M M A"
_symmetry_group_IT_number 67
_symmetry_cell_setting 'orthorhombic'
loop_
_space_group_symop_operation_xyz
x,y,z
-x,1/2-y,z
x,-y,-z
-x,1/2+y,-z
-x,-y,-z
x,1/2+y,-z
-x,y,z
x,1/2-y,z
1/2+x,1/2+y,z
1/2-x,-y,z
1/2+x,1/2-y,-z
1/2-x,y,-z
1/2-x,1/2-y,-z
1/2+x,y,-z
1/2-x,1/2+y,z
1/2+x,-y,z
loop_
_atom_site_type_symbol
_atom_site_label
_atom_site_fract_x
_atom_site_fract_y
_atom_site_fract_z
Si Si1 0.348892 0.564443 0.054592
Si Si2 0.347914 0.435822 0.166471
Si Si3 0.500000 0.935651 0.754531
Si Si4 0.846361 0.436074 0.441684
Si Si5 0.000000 0.063329 0.631296
O O1 0.350862 0.750000 0.054017
O O2 0.250000 0.500000 0.054275
O O3 0.391586 0.501125 0.110422
O O4 0.398003 0.500000 0.000000
O O5 0.343239 0.250000 0.162386
O O6 0.250000 0.500000 0.177964
O O7 0.411514 0.494917 0.214947
O O8 0.500000 0.750000 0.754548
O O9 0.500000 0.998931 0.693138
O O10 0.878220 0.500000 0.500000
O O11 0.844470 0.250000 0.443972
O O12 0.750000 0.500000 0.426426
O O13 0.912689 0.494977 0.396030
O O14 0.000000 0.250000 0.627047
#
# Coordination Sequence:
#
# PCOD8278120 Si02
#       5
#    16  16   8  16   8
#     4  10  17  28  48  77 106 138 175 221 275 335
#     4  10  19  36  57  80 107 143 183 228 279 333
#     4   9  22  40  59  80 111 150 192 233 278 329
#     4  11  22  39  62  92 123 157 194 237 287 342
#     4  11  22  40  61  86 119 158 197 241 288 339
#
# _framework density 20.235344000000001
#
# number of rings (size 3 to 8) (size 9 to 14) (size 15 to 20)
#    0.000    1.750    0.000    9.000    0.000    1.000 
#    0.000   10.625    0.000    0.000    0.000    0.000 
#    0.000    0.000    0.000    0.000    0.000    0.000 
#
# Total GULP energy -396746.919336 kJ/mol
# GULP energy per Si atom -12398.341229 kJ/mol
# Density = 2.018929 g / cm^3
# Si number density = 20.235344 Si / 1000 Ang^3
#
#
#
# Elastic Constant Matrix: (Units=GPa)
#
#
# Indices 1 2 3 4 5 6 
#
# 1 108.2918 43.4871 95.3078 0.0000 0.0000 0.0000
# 2 43.4871 160.2509 67.3613 0.0000 0.0000 0.0000
# 3 95.3078 67.3613 212.0857 0.0000 0.0000 0.0000
# 4 0.0000 0.0000 0.0000 26.1757 0.0000 0.0000
# 5 0.0000 0.0000 0.0000 0.0000 12.7423 0.0000
# 6 0.0000 0.0000 0.0000 0.0000 0.0000 19.9503
#
#
#
# Elastic Compliance Matrix: (Units=1/GPa)
#
#
# Indices 1 2 3 4 5 6 
#
# 1 0.015575 -0.001482 -0.006528 0.000000 0.000000 0.000000
# 2 -0.001482 0.007343 -0.001666 0.000000 0.000000 0.000000
# 3 -0.006528 -0.001666 0.008178 0.000000 0.000000 0.000000
# 4 0.000000 0.000000 0.000000 0.038203 0.000000 0.000000
# 5 0.000000 0.000000 0.000000 0.000000 0.078479 0.000000
# 6 0.000000 0.000000 0.000000 0.000000 0.000000 0.050125
#
#
# Mechanical properties :
#
#
# Convention : Reuss Voigt Hill
#
# Bulk Modulus (GPa) = 85.16172 99.21565 92.18869
# Shear Modulus (GPa) = 22.60698 30.07181 26.33939
#
# Velocity S-wave (km/s) = 3.34608 3.85918 3.61176
# Velocity P-wave (km/s) = 7.55681 8.30632 7.94042
#
# Compressibility (1/GPa) = 0.01174236
#
# Stress axis : x y z
#
# Youngs Moduli (GPa) = 64.20414 136.18787 122.27926
#
# Poissons Ratio (x) = 0.20189 0.79829
# Poissons Ratio (y) = 0.09518 0.20372
# Poissons Ratio (z) = 0.41915 0.22689
#
# Static dielectric constant tensor:
#      x y z
#    x 3.629800 0.000000 0.000000 
#    y 0.000000 3.679390 0.000000 
#    z 0.000000 0.000000 4.443630 
# 
# 
# High freq. dielectric constant tensor:
#      x y z
#    x 1.779920 0.000000 0.000000 
#    y 0.000000 1.797730 0.000000 
#    z 0.000000 0.000000 1.800240 
# 
# From -- ./inp_files/44231.got.cif
#   From: 2010.03.12/outbox.cif.g09.slc.cpg/sg67_23_cif.got.tgz:44231.got - 2010.04.10 22:41:39.
