data_PCOD8278762
_publ_section_title
;
Structure prediction by ZEFSAII (Michael W. Deem and Ramdas Pophale) SiO2 
 PCOD8278762
Probable space group: C M M A
;
_chemical_formula_sum "Si O2"
_cell_formula_units_Z 88
_cell_length_a 28.384749
_cell_length_b 9.340132
_cell_length_c 19.067263
_cell_angle_alpha 90.000000
_cell_angle_beta 90.000000
_cell_angle_gamma 90.000000
_cell_volume 5055.061332
_symmetry_space_group_name_H-M "C M M A"
_symmetry_group_IT_number 67
_symmetry_cell_setting 'orthorhombic'
loop_
_space_group_symop_operation_xyz
x,y,z
-x,1/2-y,z
x,-y,-z
-x,1/2+y,-z
-x,-y,-z
x,1/2+y,-z
-x,y,z
x,1/2-y,z
1/2+x,1/2+y,z
1/2-x,-y,z
1/2+x,1/2-y,-z
1/2-x,y,-z
1/2-x,1/2-y,-z
1/2+x,y,-z
1/2-x,1/2+y,z
1/2+x,-y,z
loop_
_atom_site_type_symbol
_atom_site_label
_atom_site_fract_x
_atom_site_fract_y
_atom_site_fract_z
Si Si1 0.379278 0.418369 0.572377
Si Si2 0.447477 0.580064 0.307881
Si Si3 0.631267 0.582633 0.201522
Si Si4 0.797850 0.584637 0.677463
Si Si5 0.602634 0.082015 0.073726
Si Si6 0.000000 0.410202 0.931876
O O1 0.380784 0.500000 0.500000
O O2 0.380649 0.250000 0.557874
O O3 0.424321 0.467430 0.618430
O O4 0.332045 0.461022 0.614100
O O5 0.500000 0.513673 0.301153
O O6 0.449392 0.750000 0.305959
O O7 0.414922 0.528539 0.243668
O O8 0.626941 0.750000 0.182431
O O9 0.677285 0.552914 0.248238
O O10 0.637045 0.490174 0.130595
O O11 0.785273 0.750000 0.671350
O O12 0.750000 0.500000 0.671089
O O13 0.614789 0.250000 0.063724
O O14 0.549643 0.059952 0.107078
O O15 0.608464 0.000000 0.000000
O O16 0.000000 0.250000 0.959888
O O17 0.000000 0.500000 0.000000
#
# Coordination Sequence:
#
# PCOD8278762 Si02
#       6
#    16  16  16  16  16   8
#     4   9  18  32  49  72 101 128 160 201 240 285
#     4   8  15  29  48  69  95 131 168 198 235 285
#     4   9  18  32  50  73  97 124 163 206 245 290
#     4   9  19  35  53  73  98 126 159 201 247 298
#     4  10  19  31  47  69  99 133 166 202 243 285
#     4   8  16  28  40  60  92 126 159 192 227 270
#
# _framework density 17.408294999999999
#
# number of rings (size 3 to 8) (size 9 to 14) (size 15 to 20)
#    0.000    3.091    0.000    2.727    1.273    2.909 
#    0.000    4.545    0.000    1.636    0.000    3.818 
#    0.000    0.000    0.000    0.000    0.000    0.000 
#
# Total GULP energy -545197.323292 kJ/mol
# GULP energy per Si atom -12390.848257 kJ/mol
# Density = 1.736867 g / cm^3
# Si number density = 17.408295 Si / 1000 Ang^3
#
#
#
# Elastic Constant Matrix: (Units=GPa)
#
#
# Indices 1 2 3 4 5 6 
#
# 1 85.4064 21.4559 24.3457 0.0000 0.0000 0.0000
# 2 21.4559 51.8460 40.4531 0.0000 0.0000 0.0000
# 3 24.3457 40.4531 105.6418 0.0000 0.0000 0.0000
# 4 0.0000 0.0000 0.0000 34.5210 0.0000 0.0000
# 5 0.0000 0.0000 0.0000 0.0000 14.0104 0.0000
# 6 0.0000 0.0000 0.0000 0.0000 0.0000 20.7462
#
#
#
# Elastic Compliance Matrix: (Units=1/GPa)
#
#
# Indices 1 2 3 4 5 6 
#
# 1 0.013202 -0.004406 -0.001355 0.000000 0.000000 0.000000
# 2 -0.004406 0.028977 -0.010081 0.000000 0.000000 0.000000
# 3 -0.001355 -0.010081 0.013638 0.000000 0.000000 0.000000
# 4 0.000000 0.000000 0.000000 0.028968 0.000000 0.000000
# 5 0.000000 0.000000 0.000000 0.000000 0.071376 0.000000
# 6 0.000000 0.000000 0.000000 0.000000 0.000000 0.048202
#
#
# Mechanical properties :
#
#
# Convention : Reuss Voigt Hill
#
# Bulk Modulus (GPa) = 41.43649 46.15595 43.79622
# Shear Modulus (GPa) = 20.48423 24.29815 22.39119
#
# Velocity S-wave (km/s) = 3.43402 3.74007 3.59031
# Velocity P-wave (km/s) = 6.29108 6.72474 6.51152
#
# Compressibility (1/GPa) = 0.02413332
#
# Stress axis : x y z
#
# Youngs Moduli (GPa) = 75.74647 34.51049 73.32239
#
# Poissons Ratio (x) = 0.15205 0.09937
# Poissons Ratio (y) = 0.33374 0.73913
# Poissons Ratio (z) = 0.10266 0.34789
#
# Static dielectric constant tensor:
#      x y z
#    x 3.274470 0.000000 0.000000 
#    y 0.000000 2.998070 0.000000 
#    z 0.000000 0.000000 3.096380 
# 
# 
# High freq. dielectric constant tensor:
#      x y z
#    x 1.660310 0.000000 0.000000 
#    y 0.000000 1.656660 0.000000 
#    z 0.000000 0.000000 1.668500 
# 
# From -- ./inp_files/32391.got.cif
#   From: 2010.03.12/outbox.cif.g09.slc.cpg/sg67_17_cif.got.tgz:32391.got - 2010.04.10 22:41:39.
