data_PCOD8278110
_publ_section_title
;
Structure prediction by ZEFSAII (Michael W. Deem and Ramdas Pophale) SiO2 
 PCOD8278110
Probable space group: C M M A
;
_chemical_formula_sum "Si O2"
_cell_formula_units_Z 96
_cell_length_a 8.641739
_cell_length_b 18.177481
_cell_length_c 30.985011
_cell_angle_alpha 90.000000
_cell_angle_beta 90.000000
_cell_angle_gamma 90.000000
_cell_volume 4867.281893
_symmetry_space_group_name_H-M "C M M A"
_symmetry_group_IT_number 67
_symmetry_cell_setting 'orthorhombic'
loop_
_space_group_symop_operation_xyz
x,y,z
-x,1/2-y,z
x,-y,-z
-x,1/2+y,-z
-x,-y,-z
x,1/2+y,-z
-x,y,z
x,1/2-y,z
1/2+x,1/2+y,z
1/2-x,-y,z
1/2+x,1/2-y,-z
1/2-x,y,-z
1/2-x,1/2-y,-z
1/2+x,y,-z
1/2-x,1/2+y,z
1/2+x,-y,z
loop_
_atom_site_type_symbol
_atom_site_label
_atom_site_fract_x
_atom_site_fract_y
_atom_site_fract_z
Si Si1 0.320128 0.664610 0.621828
Si Si2 0.318391 0.080402 0.869658
Si Si3 0.181837 0.077925 0.454022
Si Si4 0.320808 0.336133 0.208358
Si Si5 0.316616 0.918146 0.956988
Si Si6 0.817151 0.080671 0.706286
O O1 0.500000 0.647756 0.613492
O O2 0.290839 0.750000 0.630384
O O3 0.223653 0.640246 0.580281
O O4 0.256280 0.621098 0.663397
O O5 0.500000 0.072340 0.876779
O O6 0.283220 0.134172 0.830352
O O7 0.243198 0.118099 0.912508
O O8 0.250000 0.000000 0.859764
O O9 0.250000 0.101869 0.500000
O O10 0.000000 0.069876 0.458594
O O11 0.250000 0.000000 0.438425
O O12 0.500000 0.354849 0.199143
O O13 0.293733 0.250000 0.213417
O O14 0.261468 0.373897 0.252161
O O15 0.500000 0.917879 0.958668
O O16 0.250000 0.000000 0.956395
O O17 0.250000 0.877515 0.000000
O O18 0.000000 0.076608 0.705191
O O19 0.750000 0.000000 0.708789
#
# Coordination Sequence:
#
# PCOD8278110 Si02
#       6
#    16  16  16  16  16  16
#     4  10  21  38  59  84 116 152 189 230 278 332
#     4  11  21  34  53  79 110 144 185 229 275 327
#     4  11  22  38  60  85 114 149 191 236 282 332
#     4  10  21  38  58  80 109 145 184 226 275 330
#     4  10  17  28  47  74 107 141 179 224 275 325
#     4  10  21  37  59  85 112 146 185 227 275 328
#
# _framework density 19.723534000000001
#
# number of rings (size 3 to 8) (size 9 to 14) (size 15 to 20)
#    0.000    1.667    0.000    8.000    0.000    7.000 
#    0.000    0.000    0.000    3.500    0.000    0.000 
#    0.000    0.000    0.000    0.000    0.000    0.000 
#
# Total GULP energy -595313.945953 kJ/mol
# GULP energy per Si atom -12402.373874 kJ/mol
# Density = 1.967864 g / cm^3
# Si number density = 19.723534 Si / 1000 Ang^3
#
#
#
# Elastic Constant Matrix: (Units=GPa)
#
#
# Indices 1 2 3 4 5 6 
#
# 1 128.1655 35.2116 57.1772 0.0000 0.0000 0.0000
# 2 35.2116 92.2781 61.9652 0.0000 0.0000 0.0000
# 3 57.1772 61.9652 164.6112 0.0000 0.0000 0.0000
# 4 0.0000 0.0000 0.0000 10.9050 0.0000 0.0000
# 5 0.0000 0.0000 0.0000 0.0000 30.3637 0.0000
# 6 0.0000 0.0000 0.0000 0.0000 0.0000 25.0994
#
#
#
# Elastic Compliance Matrix: (Units=1/GPa)
#
#
# Indices 1 2 3 4 5 6 
#
# 1 0.009471 -0.001880 -0.002582 0.000000 0.000000 0.000000
# 2 -0.001880 0.014876 -0.004947 0.000000 0.000000 0.000000
# 3 -0.002582 -0.004947 0.008834 0.000000 0.000000 0.000000
# 4 0.000000 0.000000 0.000000 0.091701 0.000000 0.000000
# 5 0.000000 0.000000 0.000000 0.000000 0.032934 0.000000
# 6 0.000000 0.000000 0.000000 0.000000 0.000000 0.039842
#
#
# Mechanical properties :
#
#
# Convention : Reuss Voigt Hill
#
# Bulk Modulus (GPa) = 69.62301 77.08476 73.35389
# Shear Modulus (GPa) = 22.59755 28.65367 25.62561
#
# Velocity S-wave (km/s) = 3.38851 3.81565 3.60841
# Velocity P-wave (km/s) = 7.11937 7.65374 7.39139
#
# Compressibility (1/GPa) = 0.01436307
#
# Stress axis : x y z
#
# Youngs Moduli (GPa) = 105.58782 67.22238 113.20067
#
# Poissons Ratio (x) = 0.12639 0.29227
# Poissons Ratio (y) = 0.19852 0.55998
# Poissons Ratio (z) = 0.27262 0.33253
#
# Static dielectric constant tensor:
#      x y z
#    x 3.614380 0.000000 0.000000 
#    y 0.000000 3.275430 0.000000 
#    z 0.000000 0.000000 4.212270 
# 
# 
# High freq. dielectric constant tensor:
#      x y z
#    x 1.769710 0.000000 0.000000 
#    y 0.000000 1.743670 0.000000 
#    z 0.000000 0.000000 1.793460 
# 
# From -- ./inp_files/43478.got.cif
#   From: 2010.03.12/outbox.cif.g09.slc.cpg/sg67_22_cif.got.tgz:43478.got - 2010.04.10 22:41:39.
