data_PCOD8278552
_publ_section_title
;
Structure prediction by ZEFSAII (Michael W. Deem and Ramdas Pophale) SiO2 
 PCOD8278552
Probable space group: C M M A
;
_chemical_formula_sum "Si O2"
_cell_formula_units_Z 96
_cell_length_a 17.395698
_cell_length_b 17.866636
_cell_length_c 16.502110
_cell_angle_alpha 90.000000
_cell_angle_beta 90.000000
_cell_angle_gamma 90.000000
_cell_volume 5128.898762
_symmetry_space_group_name_H-M "C M M A"
_symmetry_group_IT_number 67
_symmetry_cell_setting 'orthorhombic'
loop_
_space_group_symop_operation_xyz
x,y,z
-x,1/2-y,z
x,-y,-z
-x,1/2+y,-z
-x,-y,-z
x,1/2+y,-z
-x,y,z
x,1/2-y,z
1/2+x,1/2+y,z
1/2-x,-y,z
1/2+x,1/2-y,-z
1/2-x,y,-z
1/2-x,1/2-y,-z
1/2+x,y,-z
1/2-x,1/2+y,z
1/2+x,-y,z
loop_
_atom_site_type_symbol
_atom_site_label
_atom_site_fract_x
_atom_site_fract_y
_atom_site_fract_z
Si Si1 0.587215 0.102222 0.650818
Si Si2 0.725233 0.163120 0.908412
Si Si3 0.089145 0.924202 0.833595
Si Si4 0.316714 0.940899 0.801240
Si Si5 0.160369 0.830284 0.501954
Si Si6 0.670829 0.042386 0.379357
O O1 0.500000 0.122076 0.631963
O O2 0.606414 0.112822 0.745656
O O3 0.638279 0.156083 0.595515
O O4 0.602686 0.016781 0.626796
O O5 0.713468 0.250000 0.887669
O O6 0.644378 0.119865 0.895443
O O7 0.795936 0.131975 0.853799
O O8 0.750000 0.150186 0.000000
O O9 0.000000 0.914095 0.858926
O O10 0.106795 0.014101 0.830472
O O11 0.318623 0.916519 0.707066
O O12 0.250000 0.000000 0.814752
O O13 0.124144 0.750000 0.474490
O O14 0.250000 0.822724 0.500000
O O15 0.137530 0.898136 0.443333
O O16 0.750000 0.000000 0.406554
#
# Coordination Sequence:
#
# PCOD8278552 Si02
#       6
#    16  16  16  16  16  16
#     4  10  21  37  57  80 106 140 181 229 279 320
#     4  10  21  36  55  82 117 149 179 216 267 331
#     4   9  19  37  61  86 109 138 181 232 281 322
#     4   8  17  33  54  79 107 140 182 227 269 318
#     4  11  23  33  47  75 111 146 186 227 267 317
#     4  10  18  34  54  75 102 140 184 227 266 319
#
# _framework density 18.717469000000001
#
# number of rings (size 3 to 8) (size 9 to 14) (size 15 to 20)
#    0.000    2.333    1.667    1.500    0.000    6.333 
#    0.000    3.333    0.000    1.500    0.000    4.667 
#    0.000    0.000    0.000    0.000    0.000    0.000 
#
# Total GULP energy -594862.339952 kJ/mol
# GULP energy per Si atom -12392.965416 kJ/mol
# Density = 1.867487 g / cm^3
# Si number density = 18.717469 Si / 1000 Ang^3
#
#
#
# Elastic Constant Matrix: (Units=GPa)
#
#
# Indices 1 2 3 4 5 6 
#
# 1 88.3835 29.0176 37.6310 0.0000 0.0000 0.0000
# 2 29.0176 78.6993 41.4997 0.0000 0.0000 0.0000
# 3 37.6310 41.4997 84.6020 0.0000 0.0000 0.0000
# 4 0.0000 0.0000 0.0000 -1.8131 0.0000 0.0000
# 5 0.0000 0.0000 0.0000 0.0000 25.8051 0.0000
# 6 0.0000 0.0000 0.0000 0.0000 0.0000 -88.3531
#
#
#
# Elastic Compliance Matrix: (Units=1/GPa)
#
#
# Indices 1 2 3 4 5 6 
#
# 1 0.014340 -0.002595 -0.005105 0.000000 0.000000 0.000000
# 2 -0.002595 0.017610 -0.007484 0.000000 0.000000 0.000000
# 3 -0.005105 -0.007484 0.017762 0.000000 0.000000 0.000000
# 4 0.000000 0.000000 0.000000 -0.551544 0.000000 0.000000
# 5 0.000000 0.000000 0.000000 0.000000 0.038752 0.000000
# 6 0.000000 0.000000 0.000000 0.000000 0.000000 -0.011318
#
#
# Mechanical properties :
#
#
# Convention : Reuss Voigt Hill
#
# Bulk Modulus (GPa) = 51.69821 51.99793 51.84807
# Shear Modulus (GPa) = -11.42643 -3.30311 -7.36477
#
# Velocity S-wave (km/s) = -2.47345 -1.32987 -1.98576
# Velocity P-wave (km/s) = 4.41849 5.04804 4.74372
#
# Compressibility (1/GPa) = 0.01934303
#
# Stress axis : x y z
#
# Youngs Moduli (GPa) = 69.73434 56.78650 56.30003
#
# Poissons Ratio (x) = 0.14737 0.28744
# Poissons Ratio (y) = 0.18097 0.42134
# Poissons Ratio (z) = 0.35603 0.42498
#
# Static dielectric constant tensor:
#      x y z
#    x 3.219660 0.000000 0.000000 
#    y 0.000000 3.829340 0.000000 
#    z 0.000000 0.000000 3.518010 
# 
# 
# High freq. dielectric constant tensor:
#      x y z
#    x 1.711830 0.000000 0.000000 
#    y 0.000000 1.714790 0.000000 
#    z 0.000000 0.000000 1.724460 
# 
# From -- ./inp_files/34253.got.cif
#   From: 2010.03.12/outbox.cif.g09.slc.cpg/sg67_18_cif.got.tgz:34253.got - 2010.04.10 22:41:39.
