data_PCOD8278490
_publ_section_title
;
Structure prediction by ZEFSAII (Michael W. Deem and Ramdas Pophale) SiO2 
 PCOD8278490
Probable space group: C M M A
;
_chemical_formula_sum "Si O2"
_cell_formula_units_Z 112
_cell_length_a 14.279190
_cell_length_b 26.778967
_cell_length_c 15.599204
_cell_angle_alpha 90.000000
_cell_angle_beta 90.000000
_cell_angle_gamma 90.000000
_cell_volume 5964.854166
_symmetry_space_group_name_H-M "C M M A"
_symmetry_group_IT_number 67
_symmetry_cell_setting 'orthorhombic'
loop_
_space_group_symop_operation_xyz
x,y,z
-x,1/2-y,z
x,-y,-z
-x,1/2+y,-z
-x,-y,-z
x,1/2+y,-z
-x,y,z
x,1/2-y,z
1/2+x,1/2+y,z
1/2-x,-y,z
1/2+x,1/2-y,-z
1/2-x,y,-z
1/2-x,1/2-y,-z
1/2+x,y,-z
1/2-x,1/2+y,z
1/2+x,-y,z
loop_
_atom_site_type_symbol
_atom_site_label
_atom_site_fract_x
_atom_site_fract_y
_atom_site_fract_z
Si Si1 0.000000 0.077951 0.955656
Si Si2 0.858780 0.694060 0.514511
Si Si3 0.898556 0.691824 0.330281
Si Si4 0.500000 0.471219 0.869505
Si Si5 0.202802 0.107689 0.912090
Si Si6 0.691914 0.546472 0.228508
Si Si7 0.742346 0.308472 0.797774
Si Si8 0.392962 0.363063 0.686883
O O1 0.090806 0.107963 0.922885
O O2 0.000000 0.023446 0.916681
O O3 0.000000 0.073232 0.059544
O O4 0.898472 0.750000 0.533822
O O5 0.750000 0.697682 0.500000
O O6 0.900018 0.670225 0.427011
O O7 0.885778 0.657354 0.590926
O O8 0.875460 0.750000 0.339997
O O9 0.819364 0.669343 0.269205
O O10 0.000000 0.681871 0.287858
O O11 0.593029 0.468572 0.812537
O O12 0.237187 0.068480 0.841705
O O13 0.238870 0.163178 0.886860
O O14 0.250000 0.090949 0.000000
O O15 0.750000 0.500000 0.268899
O O16 0.669520 0.586835 0.302908
O O17 0.750704 0.250000 0.815732
O O18 0.642286 0.321739 0.755827
O O19 0.500000 0.375136 0.709966
#
# Coordination Sequence:
#
# PCOD8278490 Si02
#       8
#     8  16  16   8  16  16  16  16
#     4  11  22  34  61  90 109 144 194 241 304 365
#     4  10  18  32  54  84 123 156 190 236 287 333
#     4   9  17  31  52  78 108 145 190 239 283 326
#     4  11  20  36  62  86 113 140 181 249 310 356
#     4  11  23  37  56  83 117 151 195 243 289 347
#     4  11  22  39  59  86 119 147 183 238 302 354
#     4  10  22  38  55  79 117 160 195 237 286 338
#     4  11  22  35  59  89 117 151 193 240 288 351
#
# _framework density 18.776653
#
# number of rings (size 3 to 8) (size 9 to 14) (size 15 to 20)
#    0.000    1.571    5.000    0.857    1.000    2.286 
#    0.000    0.000    0.000    0.429    0.000    1.000 
#    0.000    0.000    0.000    0.000    0.000    0.000 
#
# Total GULP energy -694201.428426 kJ/mol
# GULP energy per Si atom -12396.454079 kJ/mol
# Density = 1.873392 g / cm^3
# Si number density = 18.776653 Si / 1000 Ang^3
#
#
#
# Elastic Constant Matrix: (Units=GPa)
#
#
# Indices 1 2 3 4 5 6 
#
# 1 115.5967 20.4914 11.7714 0.0000 0.0000 0.0000
# 2 20.4914 78.5091 16.5580 0.0000 0.0000 0.0000
# 3 11.7714 16.5580 50.0366 0.0000 0.0000 0.0000
# 4 0.0000 0.0000 0.0000 14.5944 0.0000 0.0000
# 5 0.0000 0.0000 0.0000 0.0000 19.0700 0.0000
# 6 0.0000 0.0000 0.0000 0.0000 0.0000 22.3524
#
#
#
# Elastic Compliance Matrix: (Units=1/GPa)
#
#
# Indices 1 2 3 4 5 6 
#
# 1 0.009170 -0.002084 -0.001468 0.000000 0.000000 0.000000
# 2 -0.002084 0.014167 -0.004198 0.000000 0.000000 0.000000
# 3 -0.001468 -0.004198 0.021720 0.000000 0.000000 0.000000
# 4 0.000000 0.000000 0.000000 0.068520 0.000000 0.000000
# 5 0.000000 0.000000 0.000000 0.000000 0.052438 0.000000
# 6 0.000000 0.000000 0.000000 0.000000 0.000000 0.044738
#
#
# Mechanical properties :
#
#
# Convention : Reuss Voigt Hill
#
# Bulk Modulus (GPa) = 33.83229 37.97600 35.90415
# Shear Modulus (GPa) = 21.17722 24.22479 22.70101
#
# Velocity S-wave (km/s) = 3.36199 3.59577 3.48084
# Velocity P-wave (km/s) = 5.75569 6.12441 5.94291
#
# Compressibility (1/GPa) = 0.02955756
#
# Stress axis : x y z
#
# Youngs Moduli (GPa) = 109.05602 70.58862 46.04107
#
# Poissons Ratio (x) = 0.14709 0.06757
# Poissons Ratio (y) = 0.22725 0.19327
# Poissons Ratio (z) = 0.16005 0.29631
#
# Static dielectric constant tensor:
#      x y z
#    x 3.631970 0.000000 0.000000 
#    y 0.000000 3.283090 0.000000 
#    z 0.000000 0.000000 3.545350 
# 
# 
# High freq. dielectric constant tensor:
#      x y z
#    x 1.749970 0.000000 0.000000 
#    y 0.000000 1.701980 0.000000 
#    z 0.000000 0.000000 1.714040 
# 
# From -- ./inp_files/27760.got.cif
#   From: 2010.03.12/outbox.cif.g09.slc.cpg/sg67_14_cif.got.tgz:27760.got - 2010.04.10 22:41:39.
