data_PCOD8278760
_publ_section_title
;
Structure prediction by ZEFSAII (Michael W. Deem and Ramdas Pophale) SiO2 
 PCOD8278760
Probable space group: C M M A
;
_chemical_formula_sum "Si O2"
_cell_formula_units_Z 96
_cell_length_a 27.551513
_cell_length_b 8.803689
_cell_length_c 23.672807
_cell_angle_alpha 90.000000
_cell_angle_beta 90.000000
_cell_angle_gamma 90.000000
_cell_volume 5741.956564
_symmetry_space_group_name_H-M "C M M A"
_symmetry_group_IT_number 67
_symmetry_cell_setting 'orthorhombic'
loop_
_space_group_symop_operation_xyz
x,y,z
-x,1/2-y,z
x,-y,-z
-x,1/2+y,-z
-x,-y,-z
x,1/2+y,-z
-x,y,z
x,1/2-y,z
1/2+x,1/2+y,z
1/2-x,-y,z
1/2+x,1/2-y,-z
1/2-x,y,-z
1/2-x,1/2-y,-z
1/2+x,y,-z
1/2-x,1/2+y,z
1/2+x,-y,z
loop_
_atom_site_type_symbol
_atom_site_label
_atom_site_fract_x
_atom_site_fract_y
_atom_site_fract_z
Si Si1 0.445735 0.570794 0.774550
Si Si2 0.555933 0.928145 0.440369
Si Si3 0.197897 0.930284 0.941800
Si Si4 0.640096 0.427858 0.832234
Si Si5 0.889653 0.070097 0.663299
Si Si6 0.697592 0.570351 0.278023
O O1 0.500000 0.504822 0.781499
O O2 0.445962 0.750000 0.779461
O O3 0.412034 0.506316 0.824381
O O4 0.425437 0.518957 0.713776
O O5 0.500000 0.963268 0.425758
O O6 0.566383 0.750000 0.442068
O O7 0.570252 0.000000 0.500000
O O8 0.589533 0.006965 0.394528
O O9 0.203073 0.750000 0.947162
O O10 0.161261 0.978730 0.892402
O O11 0.250000 0.000000 0.927373
O O12 0.177418 0.000000 0.000000
O O13 0.631590 0.250000 0.829327
O O14 0.677314 0.479584 0.783308
O O15 0.884501 0.250000 0.659817
O O16 0.837010 0.996833 0.673438
O O17 0.700523 0.750000 0.284248
O O18 0.750000 0.500000 0.286542
#
# Coordination Sequence:
#
# PCOD8278760 Si02
#       6
#    16  16  16  16  16  16
#     4   9  18  31  48  71  97 125 157 193 235 282
#     4  10  20  33  50  73 100 130 163 199 239 282
#     4  10  19  31  47  69  95 123 156 192 234 281
#     4   9  19  32  47  69  96 125 157 194 235 281
#     4  10  19  32  50  72  99 129 160 196 238 283
#     4  10  19  32  49  71  98 127 160 196 237 283
#
# _framework density 16.71904
#
# number of rings (size 3 to 8) (size 9 to 14) (size 15 to 20)
#    0.000    2.333    0.000    3.500    0.000    4.667 
#    0.000    0.000    0.000    1.000    0.000    3.500 
#    0.000    0.000    0.000    0.000    0.000    0.000 
#
# Total GULP energy -595309.558535 kJ/mol
# GULP energy per Si atom -12402.282469 kJ/mol
# Density = 1.668099 g / cm^3
# Si number density = 16.719040 Si / 1000 Ang^3
#
#
#
# Elastic Constant Matrix: (Units=GPa)
#
#
# Indices 1 2 3 4 5 6 
#
# 1 145.8868 49.4016 77.8604 0.0000 0.0000 0.0000
# 2 49.4016 69.0353 46.6036 0.0000 0.0000 0.0000
# 3 77.8604 46.6036 120.2325 0.0000 0.0000 0.0000
# 4 0.0000 0.0000 0.0000 29.5542 0.0000 0.0000
# 5 0.0000 0.0000 0.0000 0.0000 29.6405 0.0000
# 6 0.0000 0.0000 0.0000 0.0000 0.0000 30.4370
#
#
#
# Elastic Compliance Matrix: (Units=1/GPa)
#
#
# Indices 1 2 3 4 5 6 
#
# 1 0.011336 -0.004275 -0.005684 0.000000 0.000000 0.000000
# 2 -0.004275 0.021231 -0.005461 0.000000 0.000000 0.000000
# 3 -0.005684 -0.005461 0.014115 0.000000 0.000000 0.000000
# 4 0.000000 0.000000 0.000000 0.033836 0.000000 0.000000
# 5 0.000000 0.000000 0.000000 0.000000 0.033738 0.000000
# 6 0.000000 0.000000 0.000000 0.000000 0.000000 0.032855
#
#
# Mechanical properties :
#
#
# Convention : Reuss Voigt Hill
#
# Bulk Modulus (GPa) = 63.12345 75.87618 69.49982
# Shear Modulus (GPa) = 27.28808 28.67894 27.98351
#
# Velocity S-wave (km/s) = 4.04438 4.14617 4.09559
# Velocity P-wave (km/s) = 7.72313 8.27058 8.00154
#
# Compressibility (1/GPa) = 0.01584197
#
# Stress axis : x y z
#
# Youngs Moduli (GPa) = 88.21697 47.10081 70.84801
#
# Poissons Ratio (x) = 0.20135 0.40269
# Poissons Ratio (y) = 0.37711 0.38691
# Poissons Ratio (z) = 0.50141 0.25722
#
# Static dielectric constant tensor:
#      x y z
#    x 3.188790 0.000000 0.000000 
#    y 0.000000 3.193620 0.000000 
#    z 0.000000 0.000000 3.151870 
# 
# 
# High freq. dielectric constant tensor:
#      x y z
#    x 1.636840 0.000000 0.000000 
#    y 0.000000 1.655760 0.000000 
#    z 0.000000 0.000000 1.635360 
# 
# From -- ./inp_files/39876.got.cif
#   From: 2010.03.12/outbox.cif.g09.slc.cpg/sg67_20_cif.got.tgz:39876.got - 2010.04.10 22:41:39.
