data_PCOD8278924
_publ_section_title
;
Structure prediction by ZEFSAII (Michael W. Deem and Ramdas Pophale) SiO2 
 PCOD8278924
Probable space group: C M M A
;
_chemical_formula_sum "Si O2"
_cell_formula_units_Z 96
_cell_length_a 8.928773
_cell_length_b 25.456717
_cell_length_c 24.917766
_cell_angle_alpha 90.000000
_cell_angle_beta 90.000000
_cell_angle_gamma 90.000000
_cell_volume 5663.739624
_symmetry_space_group_name_H-M "C M M A"
_symmetry_group_IT_number 67
_symmetry_cell_setting 'orthorhombic'
loop_
_space_group_symop_operation_xyz
x,y,z
-x,1/2-y,z
x,-y,-z
-x,1/2+y,-z
-x,-y,-z
x,1/2+y,-z
-x,y,z
x,1/2-y,z
1/2+x,1/2+y,z
1/2-x,-y,z
1/2+x,1/2-y,-z
1/2-x,y,-z
1/2-x,1/2-y,-z
1/2+x,y,-z
1/2-x,1/2+y,z
1/2+x,-y,z
loop_
_atom_site_type_symbol
_atom_site_label
_atom_site_fract_x
_atom_site_fract_y
_atom_site_fract_z
Si Si1 0.177870 0.554870 0.555800
Si Si2 0.329875 0.250000 0.239552
Si Si3 0.823263 0.356049 0.240802
Si Si4 0.825992 0.353567 0.364334
Si Si5 0.826756 0.056238 0.949996
Si Si6 0.675158 0.443240 0.168787
Si Si7 0.667607 0.750000 0.632850
O O1 0.250000 0.500000 0.573860
O O2 0.250000 0.573863 0.500000
O O3 0.222317 0.596218 0.601372
O O4 0.000000 0.548684 0.549110
O O5 0.500000 0.250000 0.218159
O O6 0.245950 0.198139 0.218003
O O7 0.323461 0.250000 0.303305
O O8 0.779590 0.363929 0.302960
O O9 0.752940 0.404736 0.210171
O O10 0.000000 0.354623 0.231731
O O11 0.746015 0.302443 0.389044
O O12 0.000000 0.341918 0.368827
O O13 0.802220 0.081483 0.891125
O O14 0.000000 0.050017 0.963268
O O15 0.750000 0.000000 0.947737
O O16 0.750000 0.088294 0.000000
O O17 0.500000 0.448844 0.182240
O O18 0.750000 0.500000 0.174383
O O19 0.500000 0.750000 0.610947
#
# Coordination Sequence:
#
# PCOD8278924 Si02
#       7
#    16   8  16  16  16  16   8
#     4  10  20  35  53  72  94 123 158 196 234 275
#     4   9  17  31  49  70  95 124 159 198 235 276
#     4  10  19  32  50  72  97 127 160 195 236 283
#     4   9  19  34  51  71  97 126 155 190 236 283
#     4   9  16  26  42  62  87 120 158 195 233 276
#     4  10  20  32  45  67  99 131 160 196 239 283
#     4   9  17  29  50  76  97 120 153 192 233 276
#
# _framework density 16.949930999999999
#
# number of rings (size 3 to 8) (size 9 to 14) (size 15 to 20)
#    0.000    2.500    0.000    3.500    0.000    6.667 
#    0.000    2.083    0.000    0.000    0.000    0.583 
#    0.000    0.000    0.000    0.000    0.000    0.000 
#
# Total GULP energy -594999.321577 kJ/mol
# GULP energy per Si atom -12395.819200 kJ/mol
# Density = 1.691135 g / cm^3
# Si number density = 16.949931 Si / 1000 Ang^3
#
#
#
# Elastic Constant Matrix: (Units=GPa)
#
#
# Indices 1 2 3 4 5 6 
#
# 1 112.7239 64.2417 54.4397 0.0000 0.0000 0.0000
# 2 64.2417 118.5062 67.2532 0.0000 0.0000 0.0000
# 3 54.4397 67.2532 84.5369 0.0000 0.0000 0.0000
# 4 0.0000 0.0000 0.0000 -0.2136 0.0000 0.0000
# 5 0.0000 0.0000 0.0000 0.0000 25.5191 0.0000
# 6 0.0000 0.0000 0.0000 0.0000 0.0000 31.7642
#
#
#
# Elastic Compliance Matrix: (Units=1/GPa)
#
#
# Indices 1 2 3 4 5 6 
#
# 1 0.014099 -0.004540 -0.005468 0.000000 0.000000 0.000000
# 2 -0.004540 0.016846 -0.010478 0.000000 0.000000 0.000000
# 3 -0.005468 -0.010478 0.023686 0.000000 0.000000 0.000000
# 4 0.000000 0.000000 0.000000 -4.681952 0.000000 0.000000
# 5 0.000000 0.000000 0.000000 0.000000 0.039186 0.000000
# 6 0.000000 0.000000 0.000000 0.000000 0.000000 0.031482
#
#
# Mechanical properties :
#
#
# Convention : Reuss Voigt Hill
#
# Bulk Modulus (GPa) = 73.20917 76.40400 74.80658
# Shear Modulus (GPa) = -1.10837 20.06944 9.48054
#
# Velocity S-wave (km/s) = -0.80952 3.44473 2.36757
# Velocity P-wave (km/s) = 6.51240 7.80997 7.19052
#
# Compressibility (1/GPa) = 0.01365949
#
# Stress axis : x y z
#
# Youngs Moduli (GPa) = 70.92547 59.36146 42.21925
#
# Poissons Ratio (x) = 0.26952 0.23084
# Poissons Ratio (y) = 0.32202 0.44237
# Poissons Ratio (z) = 0.38779 0.62199
#
# Static dielectric constant tensor:
#      x y z
#    x 3.337170 0.000000 0.000000 
#    y 0.000000 3.073400 0.000000 
#    z 0.000000 0.000000 3.496770 
# 
# 
# High freq. dielectric constant tensor:
#      x y z
#    x 1.672740 0.000000 0.000000 
#    y 0.000000 1.633860 0.000000 
#    z 0.000000 0.000000 1.640660 
# 
# From -- ./inp_files/40809.got.cif
#   From: 2010.03.12/outbox.cif.g09.slc.cpg/sg67_21_cif.got.tgz:40809.got - 2010.04.10 22:41:39.
