data_PCOD8278692
_publ_section_title
;
Structure prediction by ZEFSAII (Michael W. Deem and Ramdas Pophale) SiO2 
 PCOD8278692
Probable space group: C M M A
;
_chemical_formula_sum "Si O2"
_cell_formula_units_Z 84
_cell_length_a 14.632225
_cell_length_b 19.094703
_cell_length_c 15.456273
_cell_angle_alpha 90.000000
_cell_angle_beta 90.000000
_cell_angle_gamma 90.000000
_cell_volume 4318.451618
_symmetry_space_group_name_H-M "C M M A"
_symmetry_group_IT_number 67
_symmetry_cell_setting 'orthorhombic'
loop_
_space_group_symop_operation_xyz
x,y,z
-x,1/2-y,z
x,-y,-z
-x,1/2+y,-z
-x,-y,-z
x,1/2+y,-z
-x,y,z
x,1/2-y,z
1/2+x,1/2+y,z
1/2-x,-y,z
1/2+x,1/2-y,-z
1/2-x,y,-z
1/2-x,1/2-y,-z
1/2+x,y,-z
1/2-x,1/2+y,z
1/2+x,-y,z
loop_
_atom_site_type_symbol
_atom_site_label
_atom_site_fract_x
_atom_site_fract_y
_atom_site_fract_z
Si Si1 0.669781 0.447447 0.262045
Si Si2 0.803142 0.332047 0.230924
Si Si3 0.602669 0.329180 0.589046
Si Si4 0.250000 0.500000 0.000000
Si Si5 0.606275 0.566145 0.547811
Si Si6 0.602605 0.554650 0.128221
O O1 0.750000 0.500000 0.287503
O O2 0.708246 0.375335 0.219239
O O3 0.619070 0.428229 0.349932
O O4 0.605743 0.488266 0.193855
O O5 0.792670 0.250000 0.204615
O O6 0.831210 0.341045 0.330285
O O7 0.880721 0.370096 0.173529
O O8 0.500000 0.355025 0.614459
O O9 0.599308 0.250000 0.560005
O O10 0.645002 0.367697 0.505366
O O11 0.317344 0.547865 0.057187
O O12 0.652772 0.500000 0.500000
O O13 0.500000 0.563865 0.530566
O O14 0.500000 0.555854 0.088154
#
# Coordination Sequence:
#
# PCOD8278692 Si02
#       6
#    16  16  16   4  16  16
#     4  10  20  35  52  80 116 152 194 243 292 345
#     4  10  20  36  58  85 120 156 197 246 289 342
#     4   9  18  31  47  72 108 150 198 244 283 329
#     4  12  22  44  66 102 118 140 188 240 300 362
#     4  10  19  30  47  72 105 150 203 254 293 332
#     4  11  22  40  67  92 119 153 189 236 296 356
#
# _framework density 19.451415999999998
#
# number of rings (size 3 to 8) (size 9 to 14) (size 15 to 20)
#    0.000    1.905    2.857    3.714    0.000    6.095 
#    0.000    2.381    0.000    1.714    0.000    0.000 
#    0.000    0.000    0.000    0.000    0.000    0.000 
#
# Total GULP energy -520440.908478 kJ/mol
# GULP energy per Si atom -12391.450202 kJ/mol
# Density = 1.940714 g / cm^3
# Si number density = 19.451416 Si / 1000 Ang^3
#
#
#
# Elastic Constant Matrix: (Units=GPa)
#
#
# Indices 1 2 3 4 5 6 
#
# 1 71.7745 43.0286 28.3065 0.0000 0.0000 0.0000
# 2 43.0286 130.0742 38.1413 0.0000 0.0000 0.0000
# 3 28.3065 38.1413 88.9222 0.0000 0.0000 0.0000
# 4 0.0000 0.0000 0.0000 20.4463 0.0000 0.0000
# 5 0.0000 0.0000 0.0000 0.0000 27.4417 0.0000
# 6 0.0000 0.0000 0.0000 0.0000 0.0000 11.4363
#
#
#
# Elastic Compliance Matrix: (Units=1/GPa)
#
#
# Indices 1 2 3 4 5 6 
#
# 1 0.018391 -0.004995 -0.003712 0.000000 0.000000 0.000000
# 2 -0.004995 0.010151 -0.002764 0.000000 0.000000 0.000000
# 3 -0.003712 -0.002764 0.013613 0.000000 0.000000 0.000000
# 4 0.000000 0.000000 0.000000 0.048909 0.000000 0.000000
# 5 0.000000 0.000000 0.000000 0.000000 0.036441 0.000000
# 6 0.000000 0.000000 0.000000 0.000000 0.000000 0.087441
#
#
# Mechanical properties :
#
#
# Convention : Reuss Voigt Hill
#
# Bulk Modulus (GPa) = 52.04852 56.63596 54.34224
# Shear Modulus (GPa) = 20.46736 23.95116 22.20926
#
# Velocity S-wave (km/s) = 3.24733 3.51284 3.38269
# Velocity P-wave (km/s) = 6.39347 6.75524 6.57684
#
# Compressibility (1/GPa) = 0.01921284
#
# Stress axis : x y z
#
# Youngs Moduli (GPa) = 54.37417 98.51417 73.46027
#
# Poissons Ratio (x) = 0.49212 0.27267
# Poissons Ratio (y) = 0.27162 0.20303
# Poissons Ratio (z) = 0.20182 0.27227
#
# Static dielectric constant tensor:
#      x y z
#    x 3.527350 0.000000 0.000000 
#    y 0.000000 3.790890 0.000000 
#    z 0.000000 0.000000 3.413300 
# 
# 
# High freq. dielectric constant tensor:
#      x y z
#    x 1.751270 0.000000 0.000000 
#    y 0.000000 1.753090 0.000000 
#    z 0.000000 0.000000 1.740750 
# 
# From -- ./inp_files/27084.got.cif
#   From: 2010.03.12/outbox.cif.g09.slc.cpg/sg67_14_cif.got.tgz:27084.got - 2010.04.10 22:41:39.
