data_PCOD8278482
_publ_section_title
;
Structure prediction by ZEFSAII (Michael W. Deem and Ramdas Pophale) SiO2 
 PCOD8278482
Probable space group: C M M A
;
_chemical_formula_sum "Si O2"
_cell_formula_units_Z 72
_cell_length_a 8.693605
_cell_length_b 21.021936
_cell_length_c 20.048676
_cell_angle_alpha 90.000000
_cell_angle_beta 90.000000
_cell_angle_gamma 90.000000
_cell_volume 3664.024009
_symmetry_space_group_name_H-M "C M M A"
_symmetry_group_IT_number 67
_symmetry_cell_setting 'orthorhombic'
loop_
_space_group_symop_operation_xyz
x,y,z
-x,1/2-y,z
x,-y,-z
-x,1/2+y,-z
-x,-y,-z
x,1/2+y,-z
-x,y,z
x,1/2-y,z
1/2+x,1/2+y,z
1/2-x,-y,z
1/2+x,1/2-y,-z
1/2-x,y,-z
1/2-x,1/2-y,-z
1/2+x,y,-z
1/2-x,1/2+y,z
1/2+x,-y,z
loop_
_atom_site_type_symbol
_atom_site_label
_atom_site_fract_x
_atom_site_fract_y
_atom_site_fract_z
Si Si1 0.182754 0.621070 0.426715
Si Si2 0.683674 0.321099 0.790077
Si Si3 0.183242 0.564507 0.697006
Si Si4 0.332360 0.824944 0.064134
Si Si5 0.316378 0.250000 0.573725
O O1 0.250000 0.607851 0.500000
O O2 0.240665 0.566836 0.376676
O O3 0.251013 0.685957 0.393328
O O4 0.000000 0.624124 0.431774
O O5 0.500000 0.320813 0.793755
O O6 0.738786 0.250000 0.767379
O O7 0.742678 0.375139 0.739708
O O8 0.749821 0.337533 0.864221
O O9 0.250000 0.500000 0.730206
O O10 0.000000 0.562416 0.692109
O O11 0.500000 0.856611 0.065838
O O12 0.346088 0.750000 0.053349
O O13 0.250000 0.856256 0.000000
O O14 0.500000 0.250000 0.576060
O O15 0.250000 0.250000 0.500000
#
# Coordination Sequence:
#
# PCOD8278482 Si02
#       5
#    16  16  16  16   8
#     4  11  22  38  58  83 111 141 182 230 280 332
#     4   8  16  32  55  81 107 142 185 224 266 327
#     4  11  23  39  58  80 109 146 186 229 283 338
#     4   8  13  24  45  75 108 137 171 215 265 317
#     4  10  18  32  54  82 112 142 173 214 271 326
#
# _framework density 19.650525999999999
#
# number of rings (size 3 to 8) (size 9 to 14) (size 15 to 20)
#    0.000    2.444    0.000    6.333    1.556    0.444 
#    0.000    4.444    0.000    3.333    0.000    4.667 
#    0.000    0.000    0.000    0.000    0.000    0.000 
#
# Total GULP energy -446064.558541 kJ/mol
# GULP energy per Si atom -12390.682182 kJ/mol
# Density = 1.960580 g / cm^3
# Si number density = 19.650526 Si / 1000 Ang^3
#
#
#
# Elastic Constant Matrix: (Units=GPa)
#
#
# Indices 1 2 3 4 5 6 
#
# 1 109.8452 32.9628 37.2499 0.0000 0.0000 0.0000
# 2 32.9628 109.0664 62.5090 0.0000 0.0000 0.0000
# 3 37.2499 62.5090 117.7772 0.0000 0.0000 0.0000
# 4 0.0000 0.0000 0.0000 11.6829 0.0000 0.0000
# 5 0.0000 0.0000 0.0000 0.0000 25.1903 0.0000
# 6 0.0000 0.0000 0.0000 0.0000 0.0000 26.7904
#
#
#
# Elastic Compliance Matrix: (Units=1/GPa)
#
#
# Indices 1 2 3 4 5 6 
#
# 1 0.010442 -0.001815 -0.002339 0.000000 0.000000 0.000000
# 2 -0.001815 0.013492 -0.006587 0.000000 0.000000 0.000000
# 3 -0.002339 -0.006587 0.012726 0.000000 0.000000 0.000000
# 4 0.000000 0.000000 0.000000 0.085595 0.000000 0.000000
# 5 0.000000 0.000000 0.000000 0.000000 0.039698 0.000000
# 6 0.000000 0.000000 0.000000 0.000000 0.000000 0.037327
#
#
# Mechanical properties :
#
#
# Convention : Reuss Voigt Hill
#
# Bulk Modulus (GPa) = 65.88398 66.90357 66.39377
# Shear Modulus (GPa) = 22.14139 26.33054 24.23597
#
# Velocity S-wave (km/s) = 3.36036 3.66449 3.51572
# Velocity P-wave (km/s) = 6.97543 7.21286 7.09514
#
# Compressibility (1/GPa) = 0.01517820
#
# Stress axis : x y z
#
# Youngs Moduli (GPa) = 95.77063 74.11553 78.57741
#
# Poissons Ratio (x) = 0.13453 0.18379
# Poissons Ratio (y) = 0.17384 0.51758
# Poissons Ratio (z) = 0.22401 0.48819
#
# Static dielectric constant tensor:
#      x y z
#    x 3.459790 0.000000 0.000000 
#    y 0.000000 3.985370 0.000000 
#    z 0.000000 0.000000 3.763560 
# 
# 
# High freq. dielectric constant tensor:
#      x y z
#    x 1.746320 0.000000 0.000000 
#    y 0.000000 1.739220 0.000000 
#    z 0.000000 0.000000 1.767360 
# 
# From -- ./inp_files/36775.got.cif
#   From: 2010.03.12/outbox.cif.g09.slc.cpg/sg67_19_cif.got.tgz:36775.got - 2010.04.10 22:41:39.
