data_PCOD8278642
_publ_section_title
;
Structure prediction by ZEFSAII (Michael W. Deem and Ramdas Pophale) SiO2 
 PCOD8278642
Probable space group: C M M A
;
_chemical_formula_sum "Si O2"
_cell_formula_units_Z 68
_cell_length_a 20.163442
_cell_length_b 21.591455
_cell_length_c 9.297392
_cell_angle_alpha 90.000000
_cell_angle_beta 90.000000
_cell_angle_gamma 90.000000
_cell_volume 4047.694457
_symmetry_space_group_name_H-M "C M M A"
_symmetry_group_IT_number 67
_symmetry_cell_setting 'orthorhombic'
loop_
_space_group_symop_operation_xyz
x,y,z
-x,1/2-y,z
x,-y,-z
-x,1/2+y,-z
-x,-y,-z
x,1/2+y,-z
-x,y,z
x,1/2-y,z
1/2+x,1/2+y,z
1/2-x,-y,z
1/2+x,1/2-y,-z
1/2-x,y,-z
1/2-x,1/2-y,-z
1/2+x,y,-z
1/2-x,1/2+y,z
1/2+x,-y,z
loop_
_atom_site_type_symbol
_atom_site_label
_atom_site_fract_x
_atom_site_fract_y
_atom_site_fract_z
Si Si1 0.073334 0.823696 0.892098
Si Si2 0.250000 0.000000 0.500000
Si Si3 0.313688 0.320354 0.098811
Si Si4 0.077008 0.678117 0.568524
Si Si5 0.807882 0.618547 0.400961
O O1 0.074537 0.750000 0.891698
O O2 0.091987 0.845218 0.730762
O O3 0.000000 0.847917 0.933774
O O4 0.125146 0.849549 0.008668
O O5 0.202153 0.956113 0.403266
O O6 0.329641 0.250000 0.145964
O O7 0.300174 0.360770 0.237952
O O8 0.250000 0.322569 0.000000
O O9 0.096266 0.750000 0.549862
O O10 0.120102 0.637128 0.459993
O O11 0.000000 0.668043 0.530293
O O12 0.750000 0.649875 0.500000
#
# Coordination Sequence:
#
# PCOD8278642 Si02
#       5
#    16   4  16  16  16
#     4   8  15  28  45  71 110 137 151 186 247 322
#     4   8  24  40  50  68  96 136 204 226 244 284
#     4  10  19  29  48  80 105 128 162 204 267 328
#     4   9  17  30  53  84 109 133 164 204 267 330
#     4  10  20  36  53  67 104 137 180 224 251 290
#
# _framework density 16.799686000000001
#
# number of rings (size 3 to 8) (size 9 to 14) (size 15 to 20)
#    0.706    2.118    0.000    3.529    0.000    4.706 
#    0.000    3.529    0.000    0.000    0.000    3.294 
#    0.000    0.000    0.000    0.000    0.000    0.000 
#
# Total GULP energy -421397.948662 kJ/mol
# GULP energy per Si atom -12394.057314 kJ/mol
# Density = 1.676145 g / cm^3
# Si number density = 16.799686 Si / 1000 Ang^3
#
#
#
# Elastic Constant Matrix: (Units=GPa)
#
#
# Indices 1 2 3 4 5 6 
#
# 1 87.8474 35.9384 41.9803 0.0000 0.0000 0.0000
# 2 35.9384 73.8751 42.6214 0.0000 0.0000 0.0000
# 3 41.9803 42.6214 99.2070 0.0000 0.0000 0.0000
# 4 0.0000 0.0000 0.0000 12.0446 0.0000 0.0000
# 5 0.0000 0.0000 0.0000 0.0000 31.3524 0.0000
# 6 0.0000 0.0000 0.0000 0.0000 0.0000 19.3652
#
#
#
# Elastic Compliance Matrix: (Units=1/GPa)
#
#
# Indices 1 2 3 4 5 6 
#
# 1 0.015549 -0.005010 -0.004427 0.000000 0.000000 0.000000
# 2 -0.005010 0.019611 -0.006306 0.000000 0.000000 0.000000
# 3 -0.004427 -0.006306 0.014662 0.000000 0.000000 0.000000
# 4 0.000000 0.000000 0.000000 0.083025 0.000000 0.000000
# 5 0.000000 0.000000 0.000000 0.000000 0.031895 0.000000
# 6 0.000000 0.000000 0.000000 0.000000 0.000000 0.051639
#
#
# Mechanical properties :
#
#
# Convention : Reuss Voigt Hill
#
# Bulk Modulus (GPa) = 54.53377 55.77886 55.15632
# Shear Modulus (GPa) = 19.68667 21.91174 20.79920
#
# Velocity S-wave (km/s) = 3.42694 3.61542 3.52244
# Velocity P-wave (km/s) = 6.94192 7.12059 7.03182
#
# Compressibility (1/GPa) = 0.01833726
#
# Stress axis : x y z
#
# Youngs Moduli (GPa) = 64.31475 50.99081 68.20199
#
# Poissons Ratio (x) = 0.25545 0.30194
# Poissons Ratio (y) = 0.32220 0.43005
# Poissons Ratio (z) = 0.28473 0.32152
#
# Static dielectric constant tensor:
#      x y z
#    x 3.379360 0.000000 0.000000 
#    y 0.000000 2.712860 0.000000 
#    z 0.000000 0.000000 3.098460 
# 
# 
# High freq. dielectric constant tensor:
#      x y z
#    x 1.659350 0.000000 0.000000 
#    y 0.000000 1.591520 0.000000 
#    z 0.000000 0.000000 1.648140 
# 
# From -- ./inp_files/9833.got.cif
#   From: 2010.03.12/outbox.cif.g09.slc.cpg/sg67_5_cif.got.tgz:9833.got - 2010.04.10 22:41:39.
