data_PCOD8278246
_publ_section_title
;
Structure prediction by ZEFSAII (Michael W. Deem and Ramdas Pophale) SiO2 
 PCOD8278246
Probable space group: C M M A
;
_chemical_formula_sum "Si O2"
_cell_formula_units_Z 96
_cell_length_a 18.179914
_cell_length_b 22.995740
_cell_length_c 12.086949
_cell_angle_alpha 90.000000
_cell_angle_beta 90.000000
_cell_angle_gamma 90.000000
_cell_volume 5053.076856
_symmetry_space_group_name_H-M "C M M A"
_symmetry_group_IT_number 67
_symmetry_cell_setting 'orthorhombic'
loop_
_space_group_symop_operation_xyz
x,y,z
-x,1/2-y,z
x,-y,-z
-x,1/2+y,-z
-x,-y,-z
x,1/2+y,-z
-x,y,z
x,1/2-y,z
1/2+x,1/2+y,z
1/2-x,-y,z
1/2+x,1/2-y,-z
1/2-x,y,-z
1/2-x,1/2-y,-z
1/2+x,y,-z
1/2-x,1/2+y,z
1/2+x,-y,z
loop_
_atom_site_type_symbol
_atom_site_label
_atom_site_fract_x
_atom_site_fract_y
_atom_site_fract_z
Si Si1 0.666377 0.015585 0.854422
Si Si2 0.669502 0.872192 0.266044
Si Si3 0.833634 0.182665 0.030573
Si Si4 0.206856 0.185933 0.614459
Si Si5 0.912550 0.080792 0.944186
Si Si6 0.916465 0.818172 0.536007
O O1 0.664078 0.057909 0.747895
O O2 0.750000 0.000000 0.884389
O O3 0.618216 0.956084 0.838049
O O4 0.629019 0.051929 0.952565
O O5 0.649626 0.836799 0.155666
O O6 0.753705 0.857856 0.301200
O O7 0.612182 0.854087 0.359527
O O8 0.852859 0.250000 0.016264
O O9 0.750000 0.168376 0.000000
O O10 0.886609 0.148005 0.944300
O O11 0.205097 0.250000 0.670562
O O12 0.250000 0.189654 0.500000
O O13 0.125205 0.164969 0.578757
O O14 0.000000 0.075917 0.953218
O O15 0.904747 0.750000 0.561915
O O16 0.000000 0.835072 0.515704
#
# Coordination Sequence:
#
# PCOD8278246 Si02
#       6
#    16  16  16  16  16  16
#     4  10  19  32  49  69  94 130 179 221 254 302
#     4  10  18  29  50  75 100 136 179 221 258 298
#     4  10  20  33  50  75 108 144 180 218 260 306
#     4   8  14  27  47  72 101 131 165 205 254 313
#     4  10  19  32  50  71  98 132 170 215 267 312
#     4   9  17  29  49  80 113 139 165 205 262 326
#
# _framework density 18.998325999999999
#
# number of rings (size 3 to 8) (size 9 to 14) (size 15 to 20)
#    0.000    2.500    0.000    6.500    0.000    3.667 
#    0.000    0.000    0.000    9.500    0.000    5.833 
#    0.000    0.000    0.000    0.000    0.000    0.000 
#
# Total GULP energy -594741.671277 kJ/mol
# GULP energy per Si atom -12390.451485 kJ/mol
# Density = 1.895508 g / cm^3
# Si number density = 18.998326 Si / 1000 Ang^3
#
#
#
# Elastic Constant Matrix: (Units=GPa)
#
#
# Indices 1 2 3 4 5 6 
#
# 1 164.9963 71.8052 28.6866 0.0000 0.0000 0.0000
# 2 71.8052 131.1940 46.0763 0.0000 0.0000 0.0000
# 3 28.6866 46.0763 40.8171 0.0000 0.0000 0.0000
# 4 0.0000 0.0000 0.0000 29.0004 0.0000 0.0000
# 5 0.0000 0.0000 0.0000 0.0000 19.4913 0.0000
# 6 0.0000 0.0000 0.0000 0.0000 0.0000 19.6856
#
#
#
# Elastic Compliance Matrix: (Units=1/GPa)
#
#
# Indices 1 2 3 4 5 6 
#
# 1 0.007987 -0.003976 -0.001124 0.000000 0.000000 0.000000
# 2 -0.003976 0.014609 -0.013697 0.000000 0.000000 0.000000
# 3 -0.001124 -0.013697 0.040751 0.000000 0.000000 0.000000
# 4 0.000000 0.000000 0.000000 0.034482 0.000000 0.000000
# 5 0.000000 0.000000 0.000000 0.000000 0.051305 0.000000
# 6 0.000000 0.000000 0.000000 0.000000 0.000000 0.050799
#
#
# Mechanical properties :
#
#
# Convention : Reuss Voigt Hill
#
# Bulk Modulus (GPa) = 38.83187 70.01594 54.42390
# Shear Modulus (GPa) = 20.31595 26.33142 23.32368
#
# Velocity S-wave (km/s) = 3.27365 3.72692 3.50761
# Velocity P-wave (km/s) = 5.89686 7.44672 6.71665
#
# Compressibility (1/GPa) = 0.02575204
#
# Stress axis : x y z
#
# Youngs Moduli (GPa) = 125.20758 68.45054 24.53906
#
# Poissons Ratio (x) = 0.27219 0.02759
# Poissons Ratio (y) = 0.49788 0.33611
# Poissons Ratio (z) = 0.14078 0.93755
#
# Static dielectric constant tensor:
#      x y z
#    x 3.813280 0.000000 0.000000 
#    y 0.000000 4.141710 0.000000 
#    z 0.000000 0.000000 3.377780 
# 
# 
# High freq. dielectric constant tensor:
#      x y z
#    x 1.740050 0.000000 0.000000 
#    y 0.000000 1.736930 0.000000 
#    z 0.000000 0.000000 1.699820 
# 
# From -- ./inp_files/19666.got.cif
#   From: 2010.03.12/outbox.cif.g09.slc.cpg/sg67_10_cif.got.tgz:19666.got - 2010.04.10 22:41:39.
