data_PCOD8278695
_publ_section_title
;
Structure prediction by ZEFSAII (Michael W. Deem and Ramdas Pophale) SiO2 
 PCOD8278695
Probable space group: C M M A
;
_chemical_formula_sum "Si O2"
_cell_formula_units_Z 112
_cell_length_a 18.632551
_cell_length_b 9.856573
_cell_length_c 34.476103
_cell_angle_alpha 90.000000
_cell_angle_beta 90.000000
_cell_angle_gamma 90.000000
_cell_volume 6331.643161
_symmetry_space_group_name_H-M "C M M A"
_symmetry_group_IT_number 67
_symmetry_cell_setting 'orthorhombic'
loop_
_space_group_symop_operation_xyz
x,y,z
-x,1/2-y,z
x,-y,-z
-x,1/2+y,-z
-x,-y,-z
x,1/2+y,-z
-x,y,z
x,1/2-y,z
1/2+x,1/2+y,z
1/2-x,-y,z
1/2+x,1/2-y,-z
1/2-x,y,-z
1/2-x,1/2-y,-z
1/2+x,y,-z
1/2-x,1/2+y,z
1/2+x,-y,z
loop_
_atom_site_type_symbol
_atom_site_label
_atom_site_fract_x
_atom_site_fract_y
_atom_site_fract_z
Si Si1 0.675449 0.105775 0.975285
Si Si2 0.582221 0.096133 0.821733
Si Si3 0.583022 0.595066 0.605657
Si Si4 0.180222 0.093296 0.679860
Si Si5 0.084898 0.594206 0.534568
Si Si6 0.309462 0.404716 0.887326
Si Si7 0.416979 0.906959 0.752908
O O1 0.636016 0.250000 0.973571
O O2 0.682260 0.049386 0.931866
O O3 0.750000 0.119063 0.000000
O O4 0.627010 0.000000 0.000000
O O5 0.500000 0.063631 0.829492
O O6 0.594950 0.250000 0.807295
O O7 0.618524 0.071094 0.863227
O O8 0.612227 0.996094 0.788727
O O9 0.500000 0.575024 0.617618
O O10 0.594180 0.750000 0.590255
O O11 0.632503 0.565228 0.642242
O O12 0.606271 0.484287 0.573793
O O13 0.204452 0.250000 0.681843
O O14 0.131139 0.053873 0.716277
O O15 0.250000 0.000000 0.679002
O O16 0.116573 0.500000 0.500000
O O17 0.115810 0.750000 0.534074
O O18 0.000000 0.603051 0.530085
O O19 0.283023 0.250000 0.885261
O O20 0.250000 0.500000 0.867673
O O21 0.500000 0.941366 0.743276
O O22 0.408269 0.750000 0.764162
#
# Coordination Sequence:
#
# PCOD8278695 Si02
#       7
#    16  16  16  16  16  16  16
#     4   9  15  25  42  65  90 118 153 194 235 274
#     4   9  19  35  52  71  98 130 161 195 240 293
#     4   9  17  31  51  73  98 131 171 210 248 296
#     4  10  21  35  52  75 103 133 163 202 252 299
#     4   9  16  26  43  70 102 133 167 210 257 300
#     4  10  19  30  47  72  97 124 159 199 240 282
#     4   9  18  35  57  76  95 126 168 206 241 288
#
# _framework density 17.688932000000001
#
# number of rings (size 3 to 8) (size 9 to 14) (size 15 to 20)
#    0.000    2.714    1.429    0.857    0.000    5.714 
#    0.000    2.857    0.000    5.143    0.000    3.000 
#    0.000    0.000    0.000    0.000    0.000    0.000 
#
# Total GULP energy -693866.588830 kJ/mol
# GULP energy per Si atom -12390.474801 kJ/mol
# Density = 1.764867 g / cm^3
# Si number density = 17.688932 Si / 1000 Ang^3
#
#
#
# Elastic Constant Matrix: (Units=GPa)
#
#
# Indices 1 2 3 4 5 6 
#
# 1 58.6296 45.5416 53.5125 0.0000 0.0000 0.0000
# 2 45.5416 118.3955 77.8102 0.0000 0.0000 0.0000
# 3 53.5125 77.8102 139.8756 0.0000 0.0000 0.0000
# 4 0.0000 0.0000 0.0000 32.5559 0.0000 0.0000
# 5 0.0000 0.0000 0.0000 0.0000 12.9717 0.0000
# 6 0.0000 0.0000 0.0000 0.0000 0.0000 23.1828
#
#
#
# Elastic Compliance Matrix: (Units=1/GPa)
#
#
# Indices 1 2 3 4 5 6 
#
# 1 0.028699 -0.006027 -0.007627 0.000000 0.000000 0.000000
# 2 -0.006027 0.014579 -0.005804 0.000000 0.000000 0.000000
# 3 -0.007627 -0.005804 0.013296 0.000000 0.000000 0.000000
# 4 0.000000 0.000000 0.000000 0.030716 0.000000 0.000000
# 5 0.000000 0.000000 0.000000 0.000000 0.077091 0.000000
# 6 0.000000 0.000000 0.000000 0.000000 0.000000 0.043135
#
#
# Mechanical properties :
#
#
# Convention : Reuss Voigt Hill
#
# Bulk Modulus (GPa) = 56.63203 74.51436 65.57319
# Shear Modulus (GPa) = 19.81618 23.07781 21.44699
#
# Velocity S-wave (km/s) = 3.35066 3.61591 3.48581
# Velocity P-wave (km/s) = 6.85961 7.72330 7.30423
#
# Compressibility (1/GPa) = 0.01765785
#
# Stress axis : x y z
#
# Youngs Moduli (GPa) = 34.84468 68.59058 75.21112
#
# Poissons Ratio (x) = 0.41338 0.57362
# Poissons Ratio (y) = 0.21000 0.43656
# Poissons Ratio (z) = 0.26575 0.39813
#
# Static dielectric constant tensor:
#      x y z
#    x 2.920530 0.000000 0.000000 
#    y 0.000000 4.425450 0.000000 
#    z 0.000000 0.000000 3.370190 
# 
# 
# High freq. dielectric constant tensor:
#      x y z
#    x 1.638170 0.000000 0.000000 
#    y 0.000000 1.699650 0.000000 
#    z 0.000000 0.000000 1.691360 
# 
# From -- ./inp_files/45585.got.cif
#   From: 2010.03.12/outbox.cif.g09.slc.cpg/sg67_23_cif.got.tgz:45585.got - 2010.04.10 22:41:39.
