data_PCOD8278464
_publ_section_title
;
Structure prediction by ZEFSAII (Michael W. Deem and Ramdas Pophale) SiO2 
 PCOD8278464
Probable space group: C M M A
;
_chemical_formula_sum "Si O2"
_cell_formula_units_Z 80
_cell_length_a 26.111617
_cell_length_b 14.090895
_cell_length_c 11.508709
_cell_angle_alpha 90.000000
_cell_angle_beta 90.000000
_cell_angle_gamma 90.000000
_cell_volume 4234.468970
_symmetry_space_group_name_H-M "C M M A"
_symmetry_group_IT_number 67
_symmetry_cell_setting 'orthorhombic'
loop_
_space_group_symop_operation_xyz
x,y,z
-x,1/2-y,z
x,-y,-z
-x,1/2+y,-z
-x,-y,-z
x,1/2+y,-z
-x,y,z
x,1/2-y,z
1/2+x,1/2+y,z
1/2-x,-y,z
1/2+x,1/2-y,-z
1/2-x,y,-z
1/2-x,1/2-y,-z
1/2+x,y,-z
1/2-x,1/2+y,z
1/2+x,-y,z
loop_
_atom_site_type_symbol
_atom_site_label
_atom_site_fract_x
_atom_site_fract_y
_atom_site_fract_z
Si Si1 0.060127 0.141324 0.959921
Si Si2 0.595507 0.467862 0.820751
Si Si3 0.307641 0.491061 0.686062
Si Si4 0.161628 0.645152 0.490486
Si Si5 0.555910 0.093379 0.575596
O O1 0.075566 0.250000 0.931500
O O2 0.000000 0.131117 0.980289
O O3 0.087887 0.107537 0.076861
O O4 0.076914 0.073718 0.854115
O O5 0.656274 0.468610 0.795198
O O6 0.564134 0.433173 0.709633
O O7 0.250000 0.500000 0.732606
O O8 0.307332 0.405600 0.593426
O O9 0.330575 0.585944 0.627142
O O10 0.184226 0.750000 0.471555
O O11 0.101798 0.657166 0.525968
O O12 0.500000 0.143836 0.564695
O O13 0.556637 0.000000 0.500000
#
# Coordination Sequence:
#
# PCOD8278464 Si02
#       5
#    16  16  16  16  16
#     4  10  21  37  59  83 107 141 182 221 266 321
#     4  10  19  37  57  79 108 144 180 229 266 316
#     4  10  21  37  54  77 106 143 186 228 275 320
#     4  10  19  34  53  78 111 148 186 222 262 321
#     4  10  18  32  53  81 117 150 175 211 267 330
#
# _framework density 18.892569000000002
#
# number of rings (size 3 to 8) (size 9 to 14) (size 15 to 20)
#    0.000    2.000    4.000    3.600    0.000    6.000 
#    0.000    2.000    0.000    1.200    0.000    0.000 
#    0.000    0.000    0.000    0.000    0.000    0.000 
#
# Total GULP energy -495877.001882 kJ/mol
# GULP energy per Si atom -12396.925047 kJ/mol
# Density = 1.884957 g / cm^3
# Si number density = 18.892569 Si / 1000 Ang^3
#
#
#
# Elastic Constant Matrix: (Units=GPa)
#
#
# Indices 1 2 3 4 5 6 
#
# 1 122.4344 7.4408 14.5187 0.0000 0.0000 0.0000
# 2 7.4408 104.0773 10.9088 0.0000 0.0000 0.0000
# 3 14.5187 10.9088 53.9558 0.0000 0.0000 0.0000
# 4 0.0000 0.0000 0.0000 7.5029 0.0000 0.0000
# 5 0.0000 0.0000 0.0000 0.0000 22.4041 0.0000
# 6 0.0000 0.0000 0.0000 0.0000 0.0000 7.1400
#
#
#
# Elastic Compliance Matrix: (Units=1/GPa)
#
#
# Indices 1 2 3 4 5 6 
#
# 1 0.008451 -0.000374 -0.002198 0.000000 0.000000 0.000000
# 2 -0.000374 0.009833 -0.001887 0.000000 0.000000 0.000000
# 3 -0.002198 -0.001887 0.019507 0.000000 0.000000 0.000000
# 4 0.000000 0.000000 0.000000 0.133282 0.000000 0.000000
# 5 0.000000 0.000000 0.000000 0.000000 0.044635 0.000000
# 6 0.000000 0.000000 0.000000 0.000000 0.000000 0.140057
#
#
# Mechanical properties :
#
#
# Convention : Reuss Voigt Hill
#
# Bulk Modulus (GPa) = 34.63638 38.46713 36.55175
# Shear Modulus (GPa) = 13.35801 23.91600 18.63700
#
# Velocity S-wave (km/s) = 2.66193 3.56180 3.14422
# Velocity P-wave (km/s) = 5.27456 6.10904 5.70707
#
# Compressibility (1/GPa) = 0.02887138
#
# Stress axis : x y z
#
# Youngs Moduli (GPa) = 118.32838 101.70052 51.26399
#
# Poissons Ratio (x) = 0.03801 0.11270
# Poissons Ratio (y) = 0.04423 0.09676
# Poissons Ratio (z) = 0.26014 0.19195
#
# Static dielectric constant tensor:
#      x y z
#    x 3.767390 0.000000 0.000000 
#    y 0.000000 3.356750 0.000000 
#    z 0.000000 0.000000 3.383140 
# 
# 
# High freq. dielectric constant tensor:
#      x y z
#    x 1.737740 0.000000 0.000000 
#    y 0.000000 1.727830 0.000000 
#    z 0.000000 0.000000 1.717110 
# 
# From -- ./inp_files/23643.got.cif
#   From: 2010.03.12/outbox.cif.g09.slc.cpg/sg67_12_cif.got.tgz:23643.got - 2010.04.10 22:41:39.
