data_PCOD8278515
_publ_section_title
;
Structure prediction by ZEFSAII (Michael W. Deem and Ramdas Pophale) SiO2 
 PCOD8278515
Probable space group: C M M A
;
_chemical_formula_sum "Si O2"
_cell_formula_units_Z 112
_cell_length_a 27.796053
_cell_length_b 14.996021
_cell_length_c 12.766376
_cell_angle_alpha 90.000000
_cell_angle_beta 90.000000
_cell_angle_gamma 90.000000
_cell_volume 5321.410991
_symmetry_space_group_name_H-M "C M M A"
_symmetry_group_IT_number 67
_symmetry_cell_setting 'orthorhombic'
loop_
_space_group_symop_operation_xyz
x,y,z
-x,1/2-y,z
x,-y,-z
-x,1/2+y,-z
-x,-y,-z
x,1/2+y,-z
-x,y,z
x,1/2-y,z
1/2+x,1/2+y,z
1/2-x,-y,z
1/2+x,1/2-y,-z
1/2-x,y,-z
1/2-x,1/2-y,-z
1/2+x,y,-z
1/2-x,1/2+y,z
1/2+x,-y,z
loop_
_atom_site_type_symbol
_atom_site_label
_atom_site_fract_x
_atom_site_fract_y
_atom_site_fract_z
Si Si1 0.366248 0.147987 0.899680
Si Si2 0.349309 0.351958 0.533703
Si Si3 0.552513 0.073224 0.587963
Si Si4 0.185771 0.143895 0.687569
Si Si5 0.114108 0.147899 0.867173
Si Si6 0.208220 0.643809 0.729535
Si Si7 0.055009 0.983790 0.819948
O O1 0.377388 0.250000 0.867020
O O2 0.319242 0.113147 0.835986
O O3 0.413377 0.091395 0.875167
O O4 0.356759 0.139841 0.023658
O O5 0.334227 0.250000 0.526620
O O6 0.406160 0.357061 0.557309
O O7 0.333017 0.396774 0.423531
O O8 0.320681 0.396289 0.630177
O O9 0.500000 0.121634 0.592884
O O10 0.563250 0.022784 0.696024
O O11 0.551793 0.000000 0.500000
O O12 0.187650 0.250000 0.681285
O O13 0.149661 0.113209 0.777467
O O14 0.237864 0.104989 0.720589
O O15 0.096777 0.250000 0.849226
O O16 0.068467 0.082430 0.861887
O O17 0.209845 0.750000 0.726234
O O18 0.000000 0.966274 0.851599
#
# Coordination Sequence:
#
# PCOD8278515 Si02
#       7
#    16  16  16  16  16  16  16
#     4  10  21  38  60  88 121 155 194 243 294 350
#     4  10  18  32  57  85 115 149 189 240 292 348
#     4  10  21  36  55  80 113 153 192 237 296 353
#     4   9  18  33  56  85 117 156 196 237 290 348
#     4  10  22  39  59  85 117 155 201 247 292 350
#     4   9  17  32  56  86 117 150 190 238 292 346
#     4  11  23  40  62  86 117 156 197 246 302 354
#
# _framework density 21.047049999999999
#
# number of rings (size 3 to 8) (size 9 to 14) (size 15 to 20)
#    0.000    2.143    1.429    1.714    0.000    4.286 
#    0.000    6.429    0.000    7.714    0.000    0.000 
#    0.000    0.000    0.000    0.000    0.000    0.000 
#
# Total GULP energy -694197.506311 kJ/mol
# GULP energy per Si atom -12396.384041 kJ/mol
# Density = 2.099915 g / cm^3
# Si number density = 21.047050 Si / 1000 Ang^3
#
#
#
# Elastic Constant Matrix: (Units=GPa)
#
#
# Indices 1 2 3 4 5 6 
#
# 1 130.0611 19.8111 37.8407 0.0000 0.0000 0.0000
# 2 19.8111 44.3979 14.0737 0.0000 0.0000 0.0000
# 3 37.8407 14.0737 132.0251 0.0000 0.0000 0.0000
# 4 0.0000 0.0000 0.0000 20.1602 0.0000 0.0000
# 5 0.0000 0.0000 0.0000 0.0000 29.5261 0.0000
# 6 0.0000 0.0000 0.0000 0.0000 0.0000 19.1546
#
#
#
# Elastic Compliance Matrix: (Units=1/GPa)
#
#
# Indices 1 2 3 4 5 6 
#
# 1 0.008817 -0.003243 -0.002182 0.000000 0.000000 0.000000
# 2 -0.003243 0.024504 -0.001683 0.000000 0.000000 0.000000
# 3 -0.002182 -0.001683 0.008379 0.000000 0.000000 0.000000
# 4 0.000000 0.000000 0.000000 0.049603 0.000000 0.000000
# 5 0.000000 0.000000 0.000000 0.000000 0.033868 0.000000
# 6 0.000000 0.000000 0.000000 0.000000 0.000000 0.052207
#
#
# Mechanical properties :
#
#
# Convention : Reuss Voigt Hill
#
# Bulk Modulus (GPa) = 36.38190 49.99279 43.18734
# Shear Modulus (GPa) = 24.90606 29.41876 27.16241
#
# Velocity S-wave (km/s) = 3.44372 3.74272 3.59633
# Velocity P-wave (km/s) = 5.75637 6.51780 6.14888
#
# Compressibility (1/GPa) = 0.02748619
#
# Stress axis : x y z
#
# Youngs Moduli (GPa) = 113.41256 40.80959 119.34685
#
# Poissons Ratio (x) = 0.13234 0.26036
# Poissons Ratio (y) = 0.36779 0.20082
# Poissons Ratio (z) = 0.24741 0.06867
#
# Static dielectric constant tensor:
#      x y z
#    x 4.090280 0.000000 0.000000 
#    y 0.000000 3.528850 0.000000 
#    z 0.000000 0.000000 4.201020 
# 
# 
# High freq. dielectric constant tensor:
#      x y z
#    x 1.821940 0.000000 0.000000 
#    y 0.000000 1.799080 0.000000 
#    z 0.000000 0.000000 1.841870 
# 
# From -- ./inp_files/18592.got.cif
#   From: 2010.03.12/outbox.cif.g09.slc.cpg/sg67_10_cif.got.tgz:18592.got - 2010.04.10 22:41:39.
