data_PCOD8278223
_publ_section_title
;
Structure prediction by ZEFSAII (Michael W. Deem and Ramdas Pophale) SiO2 
 PCOD8278223
Probable space group: C M M A
;
_chemical_formula_sum "Si O2"
_cell_formula_units_Z 80
_cell_length_a 8.626505
_cell_length_b 27.544322
_cell_length_c 18.872822
_cell_angle_alpha 90.000000
_cell_angle_beta 90.000000
_cell_angle_gamma 90.000000
_cell_volume 4484.394476
_symmetry_space_group_name_H-M "C M M A"
_symmetry_group_IT_number 67
_symmetry_cell_setting 'orthorhombic'
loop_
_space_group_symop_operation_xyz
x,y,z
-x,1/2-y,z
x,-y,-z
-x,1/2+y,-z
-x,-y,-z
x,1/2+y,-z
-x,y,z
x,1/2-y,z
1/2+x,1/2+y,z
1/2-x,-y,z
1/2+x,1/2-y,-z
1/2-x,y,-z
1/2-x,1/2-y,-z
1/2+x,y,-z
1/2-x,1/2+y,z
1/2+x,-y,z
loop_
_atom_site_type_symbol
_atom_site_label
_atom_site_fract_x
_atom_site_fract_y
_atom_site_fract_z
Si Si1 0.184727 0.446623 0.926445
Si Si2 0.318671 0.195246 0.295899
Si Si3 0.182594 0.603849 0.212992
Si Si4 0.816378 0.947900 0.352986
Si Si5 0.182470 0.857007 0.573998
O O1 0.250000 0.500000 0.912893
O O2 0.249291 0.412325 0.863166
O O3 0.000000 0.448773 0.929756
O O4 0.250000 0.425093 0.000000
O O5 0.500000 0.188100 0.312703
O O6 0.279879 0.250000 0.272075
O O7 0.267968 0.159147 0.231990
O O8 0.225853 0.182505 0.366722
O O9 0.243499 0.568058 0.274892
O O10 0.000000 0.599356 0.208977
O O11 0.755688 0.909444 0.409924
O O12 0.000000 0.949116 0.356525
O O13 0.750000 0.000000 0.372894
O O14 0.250000 0.837754 0.500000
O O15 0.000000 0.862275 0.569149
#
# Coordination Sequence:
#
# PCOD8278223 Si02
#       5
#    16  16  16  16  16
#     4  10  18  29  45  69 101 133 165 197 234 280
#     4   9  18  35  57  77  96 122 159 203 250 297
#     4   8  16  30  49  72  98 127 161 201 241 287
#     4  10  19  33  51  73  99 129 166 203 244 292
#     4  11  22  36  52  72  99 129 162 201 245 292
#
# _framework density 17.839645000000001
#
# number of rings (size 3 to 8) (size 9 to 14) (size 15 to 20)
#    0.000    2.400    0.000    5.400    0.000    1.200 
#    0.000   11.000    0.000    0.600    0.000    0.000 
#    0.000    0.000    0.000    0.000    0.000    0.800 
#
# Total GULP energy -495931.991736 kJ/mol
# GULP energy per Si atom -12398.299793 kJ/mol
# Density = 1.779904 g / cm^3
# Si number density = 17.839645 Si / 1000 Ang^3
#
#
#
# Elastic Constant Matrix: (Units=GPa)
#
#
# Indices 1 2 3 4 5 6 
#
# 1 79.9748 26.3995 29.4906 0.0000 0.0000 0.0000
# 2 26.3995 102.0278 42.8926 0.0000 0.0000 0.0000
# 3 29.4906 42.8926 126.7562 0.0000 0.0000 0.0000
# 4 0.0000 0.0000 0.0000 18.8346 0.0000 0.0000
# 5 0.0000 0.0000 0.0000 0.0000 22.5379 0.0000
# 6 0.0000 0.0000 0.0000 0.0000 0.0000 22.4709
#
#
#
# Elastic Compliance Matrix: (Units=1/GPa)
#
#
# Indices 1 2 3 4 5 6 
#
# 1 0.014279 -0.002679 -0.002416 0.000000 0.000000 0.000000
# 2 -0.002679 0.011930 -0.003413 0.000000 0.000000 0.000000
# 3 -0.002416 -0.003413 0.009606 0.000000 0.000000 0.000000
# 4 0.000000 0.000000 0.000000 0.053094 0.000000 0.000000
# 5 0.000000 0.000000 0.000000 0.000000 0.044370 0.000000
# 6 0.000000 0.000000 0.000000 0.000000 0.000000 0.044502
#
#
# Mechanical properties :
#
#
# Convention : Reuss Voigt Hill
#
# Bulk Modulus (GPa) = 53.19586 56.25825 54.72705
# Shear Modulus (GPa) = 24.86786 26.76709 25.81747
#
# Velocity S-wave (km/s) = 3.73764 3.87774 3.80833
# Velocity P-wave (km/s) = 6.96493 7.18701 7.07684
#
# Compressibility (1/GPa) = 0.01879846
#
# Stress axis : x y z
#
# Youngs Moduli (GPa) = 70.03265 83.82577 104.09939
#
# Poissons Ratio (x) = 0.22459 0.25145
# Poissons Ratio (y) = 0.18763 0.35534
# Poissons Ratio (z) = 0.16916 0.28614
#
# Static dielectric constant tensor:
#      x y z
#    x 3.191850 0.000000 0.000000 
#    y 0.000000 3.387240 0.000000 
#    z 0.000000 0.000000 3.586590 
# 
# 
# High freq. dielectric constant tensor:
#      x y z
#    x 1.683810 0.000000 0.000000 
#    y 0.000000 1.680360 0.000000 
#    z 0.000000 0.000000 1.685740 
# 
# From -- ./inp_files/32134.got.cif
#   From: 2010.03.12/outbox.cif.g09.slc.cpg/sg67_17_cif.got.tgz:32134.got - 2010.04.10 22:41:39.
