data_PCOD8278802
_publ_section_title
;
Structure prediction by ZEFSAII (Michael W. Deem and Ramdas Pophale) SiO2 
 PCOD8278802
Probable space group: C M M A
;
_chemical_formula_sum "Si O2"
_cell_formula_units_Z 112
_cell_length_a 9.696806
_cell_length_b 30.879627
_cell_length_c 20.274107
_cell_angle_alpha 90.000000
_cell_angle_beta 90.000000
_cell_angle_gamma 90.000000
_cell_volume 6070.751935
_symmetry_space_group_name_H-M "C M M A"
_symmetry_group_IT_number 67
_symmetry_cell_setting 'orthorhombic'
loop_
_space_group_symop_operation_xyz
x,y,z
-x,1/2-y,z
x,-y,-z
-x,1/2+y,-z
-x,-y,-z
x,1/2+y,-z
-x,y,z
x,1/2-y,z
1/2+x,1/2+y,z
1/2-x,-y,z
1/2+x,1/2-y,-z
1/2-x,y,-z
1/2-x,1/2-y,-z
1/2+x,y,-z
1/2-x,1/2+y,z
1/2+x,-y,z
loop_
_atom_site_type_symbol
_atom_site_label
_atom_site_fract_x
_atom_site_fract_y
_atom_site_fract_z
Si Si1 0.157979 0.063948 0.257258
Si Si2 0.161514 0.633574 0.936766
Si Si3 0.661542 0.134961 0.561054
Si Si4 0.836397 0.797637 0.828446
Si Si5 0.839034 0.461369 0.117073
Si Si6 0.655373 0.462557 0.598853
Si Si7 0.336157 0.155073 0.702463
O O1 0.220393 0.041944 0.192065
O O2 0.170908 0.034312 0.321861
O O3 0.229835 0.110178 0.271375
O O4 0.000000 0.073253 0.238474
O O5 0.214895 0.665469 0.878663
O O6 0.191442 0.583938 0.918641
O O7 0.000000 0.640965 0.951187
O O8 0.250000 0.646589 0.000000
O O9 0.500000 0.140670 0.545629
O O10 0.750000 0.152851 0.500000
O O11 0.698945 0.084615 0.573151
O O12 0.707513 0.162576 0.626005
O O13 0.778307 0.750000 0.847696
O O14 0.787361 0.807685 0.753033
O O15 0.000000 0.797146 0.829502
O O16 0.750000 0.500000 0.083343
O O17 0.000000 0.473682 0.112651
O O18 0.500000 0.472853 0.577562
O O19 0.750000 0.500000 0.566963
O O20 0.500000 0.149505 0.701476
#
# Coordination Sequence:
#
# PCOD8278802 Si02
#       7
#    16  16  16  16  16  16  16
#     4   8  13  25  44  64  89 121 158 201 249 291
#     4  10  21  36  53  75 106 139 167 204 253 299
#     4   9  18  30  45  65  91 127 164 197 241 294
#     4   9  16  29  54  84 105 125 163 210 252 299
#     4  10  19  31  49  71  97 132 171 210 250 291
#     4   9  17  27  40  60  86 118 157 202 247 289
#     4   8  13  26  48  71  95 124 160 203 246 287
#
# _framework density 18.449114000000002
#
# number of rings (size 3 to 8) (size 9 to 14) (size 15 to 20)
#    0.000    3.000    1.429    2.143    0.000    2.000 
#    0.000    2.857    0.000    2.143    0.000    0.000 
#    0.000    0.000    0.000    0.000    0.000    0.000 
#
# Total GULP energy -693840.688869 kJ/mol
# GULP energy per Si atom -12390.012301 kJ/mol
# Density = 1.840712 g / cm^3
# Si number density = 18.449114 Si / 1000 Ang^3
#
#
#
# Elastic Constant Matrix: (Units=GPa)
#
#
# Indices 1 2 3 4 5 6 
#
# 1 36.1748 29.7654 37.8520 0.0000 0.0000 0.0000
# 2 29.7654 98.1634 44.3595 0.0000 0.0000 0.0000
# 3 37.8520 44.3595 122.0593 0.0000 0.0000 0.0000
# 4 0.0000 0.0000 0.0000 9.1745 0.0000 0.0000
# 5 0.0000 0.0000 0.0000 0.0000 25.3939 0.0000
# 6 0.0000 0.0000 0.0000 0.0000 0.0000 12.8157
#
#
#
# Elastic Compliance Matrix: (Units=1/GPa)
#
#
# Indices 1 2 3 4 5 6 
#
# 1 0.046921 -0.009156 -0.011223 0.000000 0.000000 0.000000
# 2 -0.009156 0.013975 -0.002240 0.000000 0.000000 0.000000
# 3 -0.011223 -0.002240 0.012487 0.000000 0.000000 0.000000
# 4 0.000000 0.000000 0.000000 0.108998 0.000000 0.000000
# 5 0.000000 0.000000 0.000000 0.000000 0.039379 0.000000
# 6 0.000000 0.000000 0.000000 0.000000 0.000000 0.078029
#
#
# Mechanical properties :
#
#
# Convention : Reuss Voigt Hill
#
# Bulk Modulus (GPa) = 35.52909 53.37234 44.45072
# Shear Modulus (GPa) = 14.10798 19.10486 16.60642
#
# Velocity S-wave (km/s) = 2.76832 3.22148 3.00346
# Velocity P-wave (km/s) = 5.43303 6.54443 6.01445
#
# Compressibility (1/GPa) = 0.02814595
#
# Stress axis : x y z
#
# Youngs Moduli (GPa) = 21.31255 71.55401 80.08216
#
# Poissons Ratio (x) = 0.65513 0.89878
# Poissons Ratio (y) = 0.19513 0.17936
# Poissons Ratio (z) = 0.23920 0.16026
#
# Static dielectric constant tensor:
#      x y z
#    x 2.883580 0.000000 0.000000 
#    y 0.000000 3.330750 0.000000 
#    z 0.000000 0.000000 3.513840 
# 
# 
# High freq. dielectric constant tensor:
#      x y z
#    x 1.659410 0.000000 0.000000 
#    y 0.000000 1.696890 0.000000 
#    z 0.000000 0.000000 1.724200 
# 
# From -- ./inp_files/38088.got.cif
#   From: 2010.03.12/outbox.cif.g09.slc.cpg/sg67_20_cif.got.tgz:38088.got - 2010.04.10 22:41:39.
