data_PCOD8278393
_publ_section_title
;
Structure prediction by ZEFSAII (Michael W. Deem and Ramdas Pophale) SiO2 
 PCOD8278393
Probable space group: C M M A
;
_chemical_formula_sum "Si O2"
_cell_formula_units_Z 112
_cell_length_a 26.479347
_cell_length_b 14.463866
_cell_length_c 15.923017
_cell_angle_alpha 90.000000
_cell_angle_beta 90.000000
_cell_angle_gamma 90.000000
_cell_volume 6098.415622
_symmetry_space_group_name_H-M "C M M A"
_symmetry_group_IT_number 67
_symmetry_cell_setting 'orthorhombic'
loop_
_space_group_symop_operation_xyz
x,y,z
-x,1/2-y,z
x,-y,-z
-x,1/2+y,-z
-x,-y,-z
x,1/2+y,-z
-x,y,z
x,1/2-y,z
1/2+x,1/2+y,z
1/2-x,-y,z
1/2+x,1/2-y,-z
1/2-x,y,-z
1/2-x,1/2-y,-z
1/2+x,y,-z
1/2-x,1/2+y,z
1/2+x,-y,z
loop_
_atom_site_type_symbol
_atom_site_label
_atom_site_fract_x
_atom_site_fract_y
_atom_site_fract_z
Si Si1 0.733828 0.855929 0.905090
Si Si2 0.403285 0.852324 0.336715
Si Si3 0.140426 0.475134 0.907381
Si Si4 0.164556 0.646505 0.810590
Si Si5 0.442455 0.545961 0.677463
Si Si6 0.058140 0.354277 0.515133
Si Si7 0.558630 0.142344 0.158766
O O1 0.716251 0.750000 0.905221
O O2 0.687655 0.917161 0.870960
O O3 0.777692 0.873426 0.836067
O O4 0.750000 0.884261 0.000000
O O5 0.426761 0.750000 0.315834
O O6 0.348214 0.859492 0.290222
O O7 0.402610 0.863350 0.437563
O O8 0.437009 0.937049 0.302986
O O9 0.130194 0.569176 0.855391
O O10 0.090003 0.412827 0.911244
O O11 0.156163 0.500000 0.000000
O O12 0.150226 0.750000 0.842997
O O13 0.500000 0.576007 0.673924
O O14 0.420250 0.576829 0.586868
O O15 0.418503 0.606141 0.752512
O O16 0.058813 0.250000 0.550634
O O17 0.000000 0.379905 0.487301
O O18 0.500000 0.117591 0.147494
O O19 0.568863 0.250000 0.149603
#
# Coordination Sequence:
#
# PCOD8278393 Si02
#       7
#    16  16  16  16  16  16  16
#     4  10  20  35  57  86 112 134 171 227 284 330
#     4  10  19  31  46  71 108 146 175 208 265 332
#     4  12  22  35  60  83 106 140 184 228 282 332
#     4  10  21  35  50  77 116 145 171 215 277 335
#     4  10  18  31  51  76 105 141 185 234 279 317
#     4   9  17  29  49  77 107 141 184 231 276 323
#     4  10  22  39  56  77 110 148 186 229 276 328
#
# _framework density 18.365425999999999
#
# number of rings (size 3 to 8) (size 9 to 14) (size 15 to 20)
#    0.000    1.857    2.857    2.143    0.000    4.571 
#    0.000    0.000    0.000    0.429    0.000    1.000 
#    0.000    5.714    0.571    0.000    0.000    0.000 
#
# Total GULP energy -693738.431220 kJ/mol
# GULP energy per Si atom -12388.186272 kJ/mol
# Density = 1.832363 g / cm^3
# Si number density = 18.365426 Si / 1000 Ang^3
#
#
#
# Elastic Constant Matrix: (Units=GPa)
#
#
# Indices 1 2 3 4 5 6 
#
# 1 69.0887 48.2016 38.5635 0.0000 0.0000 0.0000
# 2 48.2016 128.3902 28.9184 0.0000 0.0000 0.0000
# 3 38.5635 28.9184 65.0196 0.0000 0.0000 0.0000
# 4 0.0000 0.0000 0.0000 25.3398 0.0000 0.0000
# 5 0.0000 0.0000 0.0000 0.0000 29.2365 0.0000
# 6 0.0000 0.0000 0.0000 0.0000 0.0000 22.3422
#
#
#
# Elastic Compliance Matrix: (Units=1/GPa)
#
#
# Indices 1 2 3 4 5 6 
#
# 1 0.026405 -0.007097 -0.012505 0.000000 0.000000 0.000000
# 2 -0.007097 0.010563 -0.000489 0.000000 0.000000 0.000000
# 3 -0.012505 -0.000489 0.023014 0.000000 0.000000 0.000000
# 4 0.000000 0.000000 0.000000 0.039464 0.000000 0.000000
# 5 0.000000 0.000000 0.000000 0.000000 0.034204 0.000000
# 6 0.000000 0.000000 0.000000 0.000000 0.000000 0.044758
#
#
# Mechanical properties :
#
#
# Convention : Reuss Voigt Hill
#
# Bulk Modulus (GPa) = 50.50104 54.87393 52.68748
# Shear Modulus (GPa) = 22.20351 25.17137 23.68744
#
# Velocity S-wave (km/s) = 3.48082 3.70616 3.59525
# Velocity P-wave (km/s) = 6.61153 6.94679 6.78123
#
# Compressibility (1/GPa) = 0.01980157
#
# Stress axis : x y z
#
# Youngs Moduli (GPa) = 37.87139 94.66793 43.45171
#
# Poissons Ratio (x) = 0.67184 0.54335
# Poissons Ratio (y) = 0.26876 0.02125
# Poissons Ratio (z) = 0.47357 0.04629
#
# Static dielectric constant tensor:
#      x y z
#    x 3.099670 0.000000 0.000000 
#    y 0.000000 3.767060 0.000000 
#    z 0.000000 0.000000 3.441680 
# 
# 
# High freq. dielectric constant tensor:
#      x y z
#    x 1.664820 0.000000 0.000000 
#    y 0.000000 1.744480 0.000000 
#    z 0.000000 0.000000 1.696110 
# 
# From -- ./inp_files/27565.got.cif
#   From: 2010.03.12/outbox.cif.g09.slc.cpg/sg67_14_cif.got.tgz:27565.got - 2010.04.10 22:41:39.
