data_PCOD8278488
_publ_section_title
;
Structure prediction by ZEFSAII (Michael W. Deem and Ramdas Pophale) SiO2 
 PCOD8278488
Probable space group: C M M A
;
_chemical_formula_sum "Si O2"
_cell_formula_units_Z 88
_cell_length_a 8.603346
_cell_length_b 20.657807
_cell_length_c 24.442682
_cell_angle_alpha 90.000000
_cell_angle_beta 90.000000
_cell_angle_gamma 90.000000
_cell_volume 4344.106486
_symmetry_space_group_name_H-M "C M M A"
_symmetry_group_IT_number 67
_symmetry_cell_setting 'orthorhombic'
loop_
_space_group_symop_operation_xyz
x,y,z
-x,1/2-y,z
x,-y,-z
-x,1/2+y,-z
-x,-y,-z
x,1/2+y,-z
-x,y,z
x,1/2-y,z
1/2+x,1/2+y,z
1/2-x,-y,z
1/2+x,1/2-y,-z
1/2-x,y,-z
1/2-x,1/2-y,-z
1/2+x,y,-z
1/2-x,1/2+y,z
1/2+x,-y,z
loop_
_atom_site_type_symbol
_atom_site_label
_atom_site_fract_x
_atom_site_fract_y
_atom_site_fract_z
Si Si1 0.318475 0.675686 0.734742
Si Si2 0.315773 0.821313 0.859013
Si Si3 0.317895 0.064588 0.662782
Si Si4 0.314684 0.068886 0.059468
Si Si5 0.182984 0.118396 0.559944
Si Si6 0.184524 0.250000 0.439326
O O1 0.500000 0.660533 0.726659
O O2 0.282334 0.750000 0.718302
O O3 0.265480 0.663038 0.797108
O O4 0.219237 0.628027 0.697633
O O5 0.500000 0.820054 0.862196
O O6 0.251957 0.750000 0.876148
O O7 0.250082 0.876183 0.899466
O O8 0.500000 0.058764 0.654908
O O9 0.235903 0.064693 0.603051
O O10 0.250000 0.000000 0.692209
O O11 0.500000 0.066080 0.057663
O O12 0.250000 0.000000 0.079926
O O13 0.250000 0.086225 0.000000
O O14 0.250000 0.103231 0.500000
O O15 0.249147 0.184774 0.587433
O O16 0.000000 0.122689 0.554455
O O17 0.250000 0.250000 0.500000
O O18 0.000000 0.250000 0.438008
#
# Coordination Sequence:
#
# PCOD8278488 Si02
#       6
#    16  16  16  16  16   8
#     4   9  19  39  65  89 115 150 192 236 290 351
#     4   8  16  33  57  83 111 146 188 234 284 341
#     4  12  26  43  61  86 119 153 194 240 291 349
#     4  10  19  32  51  77 112 152 194 236 283 335
#     4  11  22  39  61  87 118 153 192 235 288 345
#     4  10  18  32  54  84 116 148 186 230 275 326
#
# _framework density 20.257328999999999
#
# number of rings (size 3 to 8) (size 9 to 14) (size 15 to 20)
#    0.000    2.000    0.000    7.364    1.273    1.818 
#    0.000    5.455    0.000    3.818    0.000    0.000 
#    0.000    0.000    0.000    0.000    0.000    0.000 
#
# Total GULP energy -545513.431605 kJ/mol
# GULP energy per Si atom -12398.032536 kJ/mol
# Density = 2.021122 g / cm^3
# Si number density = 20.257329 Si / 1000 Ang^3
#
#
#
# Elastic Constant Matrix: (Units=GPa)
#
#
# Indices 1 2 3 4 5 6 
#
# 1 132.5210 46.3761 35.7853 0.0000 0.0000 0.0000
# 2 46.3761 132.0535 75.1507 0.0000 0.0000 0.0000
# 3 35.7853 75.1507 100.9677 0.0000 0.0000 0.0000
# 4 0.0000 0.0000 0.0000 13.7176 0.0000 0.0000
# 5 0.0000 0.0000 0.0000 0.0000 24.9345 0.0000
# 6 0.0000 0.0000 0.0000 0.0000 0.0000 28.8862
#
#
#
# Elastic Compliance Matrix: (Units=1/GPa)
#
#
# Indices 1 2 3 4 5 6 
#
# 1 0.008717 -0.002261 -0.001407 0.000000 0.000000 0.000000
# 2 -0.002261 0.013724 -0.009413 0.000000 0.000000 0.000000
# 3 -0.001407 -0.009413 0.017409 0.000000 0.000000 0.000000
# 4 0.000000 0.000000 0.000000 0.072899 0.000000 0.000000
# 5 0.000000 0.000000 0.000000 0.000000 0.040105 0.000000
# 6 0.000000 0.000000 0.000000 0.000000 0.000000 0.034619
#
#
# Mechanical properties :
#
#
# Convention : Reuss Voigt Hill
#
# Bulk Modulus (GPa) = 73.05645 75.57404 74.31524
# Shear Modulus (GPa) = 22.91506 27.38967 25.15237
#
# Velocity S-wave (km/s) = 3.36698 3.68106 3.52752
# Velocity P-wave (km/s) = 7.15946 7.44681 7.30455
#
# Compressibility (1/GPa) = 0.01368805
#
# Stress axis : x y z
#
# Youngs Moduli (GPa) = 114.71816 72.86660 57.44090
#
# Poissons Ratio (x) = 0.16473 0.08081
# Poissons Ratio (y) = 0.25934 0.54071
# Poissons Ratio (z) = 0.16139 0.68592
#
# Static dielectric constant tensor:
#      x y z
#    x 3.455880 0.000000 0.000000 
#    y 0.000000 4.184100 0.000000 
#    z 0.000000 0.000000 3.685500 
# 
# 
# High freq. dielectric constant tensor:
#      x y z
#    x 1.780540 0.000000 0.000000 
#    y 0.000000 1.804690 0.000000 
#    z 0.000000 0.000000 1.782750 
# 
# From -- ./inp_files/40640.got.cif
#   From: 2010.03.12/outbox.cif.g09.slc.cpg/sg67_21_cif.got.tgz:40640.got - 2010.04.10 22:41:39.
