data_PCOD8278748
_publ_section_title
;
Structure prediction by ZEFSAII (Michael W. Deem and Ramdas Pophale) SiO2 
 PCOD8278748
Probable space group: C M M A
;
_chemical_formula_sum "Si O2"
_cell_formula_units_Z 80
_cell_length_a 8.665903
_cell_length_b 19.180545
_cell_length_c 25.884274
_cell_angle_alpha 90.000000
_cell_angle_beta 90.000000
_cell_angle_gamma 90.000000
_cell_volume 4302.399705
_symmetry_space_group_name_H-M "C M M A"
_symmetry_group_IT_number 67
_symmetry_cell_setting 'orthorhombic'
loop_
_space_group_symop_operation_xyz
x,y,z
-x,1/2-y,z
x,-y,-z
-x,1/2+y,-z
-x,-y,-z
x,1/2+y,-z
-x,y,z
x,1/2-y,z
1/2+x,1/2+y,z
1/2-x,-y,z
1/2+x,1/2-y,-z
1/2-x,y,-z
1/2-x,1/2-y,-z
1/2+x,y,-z
1/2-x,1/2+y,z
1/2+x,-y,z
loop_
_atom_site_type_symbol
_atom_site_label
_atom_site_fract_x
_atom_site_fract_y
_atom_site_fract_z
Si Si1 0.182461 0.671009 0.553998
Si Si2 0.183430 0.328321 0.259372
Si Si3 0.683998 0.576206 0.053326
Si Si4 0.816759 0.327660 0.144844
Si Si5 0.316515 0.576927 0.351648
O O1 0.239368 0.750000 0.565490
O O2 0.250000 0.643631 0.500000
O O3 0.243148 0.620023 0.598802
O O4 0.000000 0.668821 0.550744
O O5 0.244426 0.250000 0.271469
O O6 0.238155 0.351898 0.202003
O O7 0.248589 0.383181 0.300983
O O8 0.000000 0.327006 0.262285
O O9 0.500000 0.574241 0.050821
O O10 0.750000 0.500000 0.062158
O O11 0.748907 0.621806 0.100790
O O12 0.750000 0.608091 0.000000
O O13 0.754366 0.250000 0.133813
O O14 0.000000 0.327819 0.142869
O O15 0.500000 0.573056 0.350710
O O16 0.250000 0.500000 0.353441
#
# Coordination Sequence:
#
# PCOD8278748 Si02
#       5
#    16  16  16  16  16
#     4   9  18  33  52  72  93 121 159 197 231 271
#     4   8  14  28  50  71  91 119 156 194 229 270
#     4  10  19  31  47  67  93 124 156 189 227 274
#     4   8  15  28  47  71  94 117 151 194 235 273
#     4  10  20  32  48  72  99 125 154 190 232 276
#
# _framework density 18.594273999999999
#
# number of rings (size 3 to 8) (size 9 to 14) (size 15 to 20)
#    0.000    3.000    0.000    3.000    0.000    4.800 
#    0.000    2.000    0.000    4.800    0.000    5.600 
#    0.000    0.000    0.000    0.000    0.000    0.000 
#
# Total GULP energy -495810.622717 kJ/mol
# GULP energy per Si atom -12395.265568 kJ/mol
# Density = 1.855195 g / cm^3
# Si number density = 18.594274 Si / 1000 Ang^3
#
#
#
# Elastic Constant Matrix: (Units=GPa)
#
#
# Indices 1 2 3 4 5 6 
#
# 1 23.6786 19.1281 25.3297 0.0000 0.0000 0.0000
# 2 19.1281 129.9867 117.2494 0.0000 0.0000 0.0000
# 3 25.3297 117.2494 206.4766 0.0000 0.0000 0.0000
# 4 0.0000 0.0000 0.0000 33.6763 0.0000 0.0000
# 5 0.0000 0.0000 0.0000 0.0000 18.9465 0.0000
# 6 0.0000 0.0000 0.0000 0.0000 0.0000 21.6644
#
#
#
# Elastic Compliance Matrix: (Units=1/GPa)
#
#
# Indices 1 2 3 4 5 6 
#
# 1 0.049465 -0.003701 -0.003966 0.000000 0.000000 0.000000
# 2 -0.003701 0.016048 -0.008659 0.000000 0.000000 0.000000
# 3 -0.003966 -0.008659 0.010247 0.000000 0.000000 0.000000
# 4 0.000000 0.000000 0.000000 0.029694 0.000000 0.000000
# 5 0.000000 0.000000 0.000000 0.000000 0.052780 0.000000
# 6 0.000000 0.000000 0.000000 0.000000 0.000000 0.046159
#
#
# Mechanical properties :
#
#
# Convention : Reuss Voigt Hill
#
# Bulk Modulus (GPa) = 23.19816 75.95069 49.57442
# Shear Modulus (GPa) = 19.88731 28.08641 23.98686
#
# Velocity S-wave (km/s) = 3.27393 3.89072 3.59557
# Velocity P-wave (km/s) = 5.17634 7.81783 6.62997
#
# Compressibility (1/GPa) = 0.04310688
#
# Stress axis : x y z
#
# Youngs Moduli (GPa) = 20.21623 62.31147 97.59030
#
# Poissons Ratio (x) = 0.23063 0.38708
# Poissons Ratio (y) = 0.07483 0.84505
# Poissons Ratio (z) = 0.08019 0.53957
#
# Static dielectric constant tensor:
#      x y z
#    x 2.962570 0.000000 0.000000 
#    y 0.000000 3.540580 0.000000 
#    z 0.000000 0.000000 3.923610 
# 
# 
# High freq. dielectric constant tensor:
#      x y z
#    x 1.677170 0.000000 0.000000 
#    y 0.000000 1.717670 0.000000 
#    z 0.000000 0.000000 1.739800 
# 
# From -- ./inp_files/43337.got.cif
#   From: 2010.03.12/outbox.cif.g09.slc.cpg/sg67_22_cif.got.tgz:43337.got - 2010.04.10 22:41:39.
