data_PCOD8278021
_publ_section_title
;
Structure prediction by ZEFSAII (Michael W. Deem and Ramdas Pophale) SiO2 
 PCOD8278021
Probable space group: C M M A
;
_chemical_formula_sum "Si O2"
_cell_formula_units_Z 96
_cell_length_a 8.513403
_cell_length_b 27.527337
_cell_length_c 24.235489
_cell_angle_alpha 90.000000
_cell_angle_beta 90.000000
_cell_angle_gamma 90.000000
_cell_volume 5679.618678
_symmetry_space_group_name_H-M "C M M A"
_symmetry_group_IT_number 67
_symmetry_cell_setting 'orthorhombic'
loop_
_space_group_symop_operation_xyz
x,y,z
-x,1/2-y,z
x,-y,-z
-x,1/2+y,-z
-x,-y,-z
x,1/2+y,-z
-x,y,z
x,1/2-y,z
1/2+x,1/2+y,z
1/2-x,-y,z
1/2+x,1/2-y,-z
1/2-x,y,-z
1/2-x,1/2-y,-z
1/2+x,y,-z
1/2-x,1/2+y,z
1/2+x,-y,z
loop_
_atom_site_type_symbol
_atom_site_label
_atom_site_fract_x
_atom_site_fract_y
_atom_site_fract_z
Si Si1 0.814540 0.896841 0.772820
Si Si2 0.316135 0.553538 0.668049
Si Si3 0.314905 0.554261 0.444640
Si Si4 0.814021 0.139099 0.058452
Si Si5 0.314562 0.448219 0.122191
Si Si6 0.185645 0.303374 0.164512
O O1 0.724442 0.910251 0.717348
O O2 0.770790 0.934228 0.820911
O O3 0.757272 0.842682 0.790271
O O4 0.000000 0.899365 0.762646
O O5 0.500000 0.548475 0.660601
O O6 0.250000 0.500000 0.680512
O O7 0.245074 0.578044 0.612362
O O8 0.500000 0.554630 0.446379
O O9 0.250000 0.500000 0.444209
O O10 0.250000 0.581113 0.500000
O O11 0.730125 0.088623 0.073465
O O12 0.764471 0.179423 0.103425
O O13 0.000000 0.131006 0.057430
O O14 0.750000 0.157681 0.000000
O O15 0.500000 0.449253 0.131697
O O16 0.250000 0.500000 0.103096
O O17 0.259560 0.250000 0.176321
O O18 0.000000 0.300264 0.167441
#
# Coordination Sequence:
#
# PCOD8278021 Si02
#       6
#    16  16  16  16  16  16
#     4  10  19  32  49  70  95 121 153 191 231 275
#     4  11  20  30  44  65  94 128 165 199 233 270
#     4  10  17  27  41  60  88 124 164 200 235 270
#     4  10  20  34  51  72  96 120 150 185 223 269
#     4  11  21  34  50  68  92 122 155 188 227 270
#     4   8  16  32  53  73  93 118 147 183 229 278
#
# _framework density 16.902543000000001
#
# number of rings (size 3 to 8) (size 9 to 14) (size 15 to 20)
#    0.000    2.000    0.000    8.500    0.000    0.667 
#    0.000    1.667    0.000   17.500    0.000    0.000 
#    0.000    0.667    0.000    1.833    0.000    3.000 
#
# Total GULP energy -595105.215956 kJ/mol
# GULP energy per Si atom -12398.025332 kJ/mol
# Density = 1.686407 g / cm^3
# Si number density = 16.902543 Si / 1000 Ang^3
#
#
#
# Elastic Constant Matrix: (Units=GPa)
#
#
# Indices 1 2 3 4 5 6 
#
# 1 99.5407 21.2480 28.4776 0.0000 0.0000 0.0000
# 2 21.2480 94.8330 39.6584 0.0000 0.0000 0.0000
# 3 28.4776 39.6584 128.6028 0.0000 0.0000 0.0000
# 4 0.0000 0.0000 0.0000 -3.8154 0.0000 0.0000
# 5 0.0000 0.0000 0.0000 0.0000 30.4496 0.0000
# 6 0.0000 0.0000 0.0000 0.0000 0.0000 12.9430
#
#
#
# Elastic Compliance Matrix: (Units=1/GPa)
#
#
# Indices 1 2 3 4 5 6 
#
# 1 0.010947 -0.001652 -0.001915 0.000000 0.000000 0.000000
# 2 -0.001652 0.012355 -0.003444 0.000000 0.000000 0.000000
# 3 -0.001915 -0.003444 0.009262 0.000000 0.000000 0.000000
# 4 0.000000 0.000000 0.000000 -0.262096 0.000000 0.000000
# 5 0.000000 0.000000 0.000000 0.000000 0.032841 0.000000
# 6 0.000000 0.000000 0.000000 0.000000 0.000000 0.077262
#
#
# Mechanical properties :
#
#
# Convention : Reuss Voigt Hill
#
# Bulk Modulus (GPa) = 53.93114 55.74939 54.84026
# Shear Modulus (GPa) = -50.38937 23.48829 -13.45054
#
# Velocity S-wave (km/s) = -5.46593 3.73182 -2.82400
# Velocity P-wave (km/s) = 2.80337 7.18492 4.67783
#
# Compressibility (1/GPa) = 0.01854216
#
# Stress axis : x y z
#
# Youngs Moduli (GPa) = 91.35334 80.93640 107.96813
#
# Poissons Ratio (x) = 0.13371 0.20671
# Poissons Ratio (y) = 0.15091 0.37188
# Poissons Ratio (z) = 0.17490 0.27877
#
# Static dielectric constant tensor:
#      x y z
#    x 3.175690 0.000000 0.000000 
#    y 0.000000 3.165100 0.000000 
#    z 0.000000 0.000000 3.705140 
# 
# 
# High freq. dielectric constant tensor:
#      x y z
#    x 1.660590 0.000000 0.000000 
#    y 0.000000 1.611520 0.000000 
#    z 0.000000 0.000000 1.656810 
# 
# From -- ./inp_files/40779.got.cif
#   From: 2010.03.12/outbox.cif.g09.slc.cpg/sg67_21_cif.got.tgz:40779.got - 2010.04.10 22:41:39.
