data_PCOD8278734
_publ_section_title
;
Structure prediction by ZEFSAII (Michael W. Deem and Ramdas Pophale) SiO2 
 PCOD8278734
Probable space group: C M M A
;
_chemical_formula_sum "Si O2"
_cell_formula_units_Z 88
_cell_length_a 30.423546
_cell_length_b 9.022073
_cell_length_c 17.020341
_cell_angle_alpha 90.000000
_cell_angle_beta 90.000000
_cell_angle_gamma 90.000000
_cell_volume 4671.801968
_symmetry_space_group_name_H-M "C M M A"
_symmetry_group_IT_number 67
_symmetry_cell_setting 'orthorhombic'
loop_
_space_group_symop_operation_xyz
x,y,z
-x,1/2-y,z
x,-y,-z
-x,1/2+y,-z
-x,-y,-z
x,1/2+y,-z
-x,y,z
x,1/2-y,z
1/2+x,1/2+y,z
1/2-x,-y,z
1/2+x,1/2-y,-z
1/2-x,y,-z
1/2-x,1/2-y,-z
1/2+x,y,-z
1/2-x,1/2+y,z
1/2+x,-y,z
loop_
_atom_site_type_symbol
_atom_site_label
_atom_site_fract_x
_atom_site_fract_y
_atom_site_fract_z
Si Si1 0.210709 0.588561 0.325932
Si Si2 0.704717 0.570692 0.085071
Si Si3 0.862018 0.584860 0.196655
Si Si4 0.653825 0.588139 0.429336
Si Si5 0.500000 0.927147 0.413240
Si Si6 0.420785 0.086211 0.695571
O O1 0.228243 0.750000 0.349526
O O2 0.250000 0.500000 0.283044
O O3 0.169550 0.603568 0.269896
O O4 0.197568 0.500336 0.404664
O O5 0.708367 0.750000 0.082310
O O6 0.750000 0.500000 0.120295
O O7 0.661790 0.523100 0.134484
O O8 0.697727 0.500000 0.000000
O O9 0.871363 0.750000 0.161214
O O10 0.908289 0.514661 0.228310
O O11 0.630067 0.500000 0.500000
O O12 0.667054 0.750000 0.460109
O O13 0.622487 0.602222 0.355563
O O14 0.500000 0.750000 0.425596
O O15 0.458507 0.981373 0.360931
O O16 0.500000 0.000000 0.500000
O O17 0.435249 0.250000 0.725616
#
# Coordination Sequence:
#
# PCOD8278734 Si02
#       6
#    16  16  16  16   8  16
#     4  10  20  32  46  64  87 118 158 200 242 288
#     4  11  21  34  53  79 112 146 181 219 259 304
#     4  10  20  34  52  74 101 134 171 211 255 306
#     4  10  19  31  46  63  87 118 155 198 245 294
#     4  10  20  34  54  80 109 138 173 218 272 328
#     4   9  19  34  51  73 100 132 167 207 257 314
#
# _framework density 18.836414000000001
#
# number of rings (size 3 to 8) (size 9 to 14) (size 15 to 20)
#    0.000    2.000    0.000    4.909    0.000    5.455 
#    0.000    1.818    0.000    0.000    0.000    0.636 
#    0.000    0.000    0.000    0.000    0.000    0.000 
#
# Total GULP energy -545180.462789 kJ/mol
# GULP energy per Si atom -12390.465063 kJ/mol
# Density = 1.879354 g / cm^3
# Si number density = 18.836414 Si / 1000 Ang^3
#
#
#
# Elastic Constant Matrix: (Units=GPa)
#
#
# Indices 1 2 3 4 5 6 
#
# 1 77.9478 39.6377 29.9151 0.0000 0.0000 0.0000
# 2 39.6377 161.6732 44.0247 0.0000 0.0000 0.0000
# 3 29.9151 44.0247 65.3737 0.0000 0.0000 0.0000
# 4 0.0000 0.0000 0.0000 28.4339 0.0000 0.0000
# 5 0.0000 0.0000 0.0000 0.0000 30.1345 0.0000
# 6 0.0000 0.0000 0.0000 0.0000 0.0000 21.5986
#
#
#
# Elastic Compliance Matrix: (Units=1/GPa)
#
#
# Indices 1 2 3 4 5 6 
#
# 1 0.016292 -0.002405 -0.005835 0.000000 0.000000 0.000000
# 2 -0.002405 0.007929 -0.004239 0.000000 0.000000 0.000000
# 3 -0.005835 -0.004239 0.020822 0.000000 0.000000 0.000000
# 4 0.000000 0.000000 0.000000 0.035169 0.000000 0.000000
# 5 0.000000 0.000000 0.000000 0.000000 0.033185 0.000000
# 6 0.000000 0.000000 0.000000 0.000000 0.000000 0.046299
#
#
# Mechanical properties :
#
#
# Convention : Reuss Voigt Hill
#
# Bulk Modulus (GPa) = 49.79289 59.12774 54.46032
# Shear Modulus (GPa) = 26.13011 28.79454 27.46232
#
# Velocity S-wave (km/s) = 3.72857 3.91405 3.82244
# Velocity P-wave (km/s) = 6.71030 7.20310 6.96106
#
# Compressibility (1/GPa) = 0.02008319
#
# Stress axis : x y z
#
# Youngs Moduli (GPa) = 61.38082 126.11294 48.02660
#
# Poissons Ratio (x) = 0.30334 0.28025
# Poissons Ratio (y) = 0.14764 0.20360
# Poissons Ratio (z) = 0.35818 0.53462
#
# Static dielectric constant tensor:
#      x y z
#    x 3.301300 0.000000 0.000000 
#    y 0.000000 4.044880 0.000000 
#    z 0.000000 0.000000 3.241170 
# 
# 
# High freq. dielectric constant tensor:
#      x y z
#    x 1.701210 0.000000 0.000000 
#    y 0.000000 1.750430 0.000000 
#    z 0.000000 0.000000 1.706050 
# 
# From -- ./inp_files/36147.got.cif
#   From: 2010.03.12/outbox.cif.g09.slc.cpg/sg67_19_cif.got.tgz:36147.got - 2010.04.10 22:41:39.
