data_PCOD8278377
_publ_section_title
;
Structure prediction by ZEFSAII (Michael W. Deem and Ramdas Pophale) SiO2 
 PCOD8278377
Probable space group: C M M A
;
_chemical_formula_sum "Si O2"
_cell_formula_units_Z 96
_cell_length_a 17.881193
_cell_length_b 26.913343
_cell_length_c 12.238842
_cell_angle_alpha 90.000000
_cell_angle_beta 90.000000
_cell_angle_gamma 90.000000
_cell_volume 5889.853130
_symmetry_space_group_name_H-M "C M M A"
_symmetry_group_IT_number 67
_symmetry_cell_setting 'orthorhombic'
loop_
_space_group_symop_operation_xyz
x,y,z
-x,1/2-y,z
x,-y,-z
-x,1/2+y,-z
-x,-y,-z
x,1/2+y,-z
-x,y,z
x,1/2-y,z
1/2+x,1/2+y,z
1/2-x,-y,z
1/2+x,1/2-y,-z
1/2-x,y,-z
1/2-x,1/2-y,-z
1/2+x,y,-z
1/2-x,1/2+y,z
1/2+x,-y,z
loop_
_atom_site_type_symbol
_atom_site_label
_atom_site_fract_x
_atom_site_fract_y
_atom_site_fract_z
Si Si1 0.823214 0.692328 0.234440
Si Si2 0.786728 0.948783 0.730813
Si Si3 0.702800 0.137753 0.891610
Si Si4 0.413649 0.307377 0.021122
Si Si5 0.414874 0.051555 0.562095
Si Si6 0.813011 0.381888 0.580557
O O1 0.823147 0.750000 0.264674
O O2 0.741281 0.676305 0.192199
O O3 0.883060 0.679021 0.140963
O O4 0.844861 0.661867 0.342980
O O5 0.804852 0.915772 0.836446
O O6 0.865656 0.955594 0.670408
O O7 0.725376 0.925095 0.650995
O O8 0.750000 0.000000 0.771604
O O9 0.750000 0.131300 0.000000
O O10 0.622645 0.159900 0.925002
O O11 0.500000 0.320044 0.020526
O O12 0.396087 0.250000 0.995741
O O13 0.500000 0.065695 0.594113
O O14 0.382183 0.095460 0.486428
O O15 0.412637 0.000000 0.500000
O O16 0.750000 0.359228 0.500000
#
# Coordination Sequence:
#
# PCOD8278377 Si02
#       6
#    16  16  16  16  16  16
#     4   9  17  30  48  72  97 125 162 199 236 283
#     4  10  18  31  50  69  94 125 160 201 241 287
#     4   9  18  31  48  71  95 126 161 201 241 279
#     4   9  17  30  49  71  97 130 163 196 238 288
#     4  10  19  31  49  71  93 122 158 196 239 285
#     4   9  18  30  48  71  94 126 158 197 243 281
#
# _framework density 16.299219000000001
#
# number of rings (size 3 to 8) (size 9 to 14) (size 15 to 20)
#    0.000    2.667    1.667    0.500    0.000    4.000 
#    0.000    0.000    0.000    0.000    0.000    4.667 
#    0.000    0.000    0.000    0.000    0.000    0.000 
#
# Total GULP energy -595166.859912 kJ/mol
# GULP energy per Si atom -12399.309581 kJ/mol
# Density = 1.626212 g / cm^3
# Si number density = 16.299219 Si / 1000 Ang^3
#
#
#
# Elastic Constant Matrix: (Units=GPa)
#
#
# Indices 1 2 3 4 5 6 
#
# 1 98.9180 49.9333 30.8704 0.0000 0.0000 0.0000
# 2 49.9333 93.0378 46.4495 0.0000 0.0000 0.0000
# 3 30.8704 46.4495 62.3178 0.0000 0.0000 0.0000
# 4 0.0000 0.0000 0.0000 34.5753 0.0000 0.0000
# 5 0.0000 0.0000 0.0000 0.0000 12.3563 0.0000
# 6 0.0000 0.0000 0.0000 0.0000 0.0000 18.9793
#
#
#
# Elastic Compliance Matrix: (Units=1/GPa)
#
#
# Indices 1 2 3 4 5 6 
#
# 1 0.014042 -0.006472 -0.002132 0.000000 0.000000 0.000000
# 2 -0.006472 0.020101 -0.011777 0.000000 0.000000 0.000000
# 3 -0.002132 -0.011777 0.025881 0.000000 0.000000 0.000000
# 4 0.000000 0.000000 0.000000 0.028922 0.000000 0.000000
# 5 0.000000 0.000000 0.000000 0.000000 0.080930 0.000000
# 6 0.000000 0.000000 0.000000 0.000000 0.000000 0.052689
#
#
# Mechanical properties :
#
#
# Convention : Reuss Voigt Hill
#
# Bulk Modulus (GPa) = 51.91388 56.53111 54.22250
# Shear Modulus (GPa) = 18.53580 21.65019 20.09299
#
# Velocity S-wave (km/s) = 3.37593 3.64853 3.51487
# Velocity P-wave (km/s) = 6.86408 7.24622 7.05773
#
# Compressibility (1/GPa) = 0.01926267
#
# Stress axis : x y z
#
# Youngs Moduli (GPa) = 71.21680 49.74777 38.63825
#
# Poissons Ratio (x) = 0.32195 0.08238
# Poissons Ratio (y) = 0.46089 0.45504
# Poissons Ratio (z) = 0.15184 0.58588
#
# Static dielectric constant tensor:
#      x y z
#    x 3.083780 0.000000 0.000000 
#    y 0.000000 2.993090 0.000000 
#    z 0.000000 0.000000 3.104940 
# 
# 
# High freq. dielectric constant tensor:
#      x y z
#    x 1.620270 0.000000 0.000000 
#    y 0.000000 1.621440 0.000000 
#    z 0.000000 0.000000 1.621650 
# 
# From -- ./inp_files/19780.got.cif
#   From: 2010.03.12/outbox.cif.g09.slc.cpg/sg67_10_cif.got.tgz:19780.got - 2010.04.10 22:41:39.
