data_PCOD8278680
_publ_section_title
;
Structure prediction by ZEFSAII (Michael W. Deem and Ramdas Pophale) SiO2 
 PCOD8278680
Probable space group: C M M A
;
_chemical_formula_sum "Si O2"
_cell_formula_units_Z 80
_cell_length_a 10.178555
_cell_length_b 26.386805
_cell_length_c 17.643636
_cell_angle_alpha 90.000000
_cell_angle_beta 90.000000
_cell_angle_gamma 90.000000
_cell_volume 4738.719746
_symmetry_space_group_name_H-M "C M M A"
_symmetry_group_IT_number 67
_symmetry_cell_setting 'orthorhombic'
loop_
_space_group_symop_operation_xyz
x,y,z
-x,1/2-y,z
x,-y,-z
-x,1/2+y,-z
-x,-y,-z
x,1/2+y,-z
-x,y,z
x,1/2-y,z
1/2+x,1/2+y,z
1/2-x,-y,z
1/2+x,1/2-y,-z
1/2-x,y,-z
1/2-x,1/2-y,-z
1/2+x,y,-z
1/2-x,1/2+y,z
1/2+x,-y,z
loop_
_atom_site_type_symbol
_atom_site_label
_atom_site_fract_x
_atom_site_fract_y
_atom_site_fract_z
Si Si1 0.000000 0.558941 0.919749
Si Si2 0.500000 0.570573 0.426918
Si Si3 0.000000 0.060615 0.911913
Si Si4 0.500000 0.048115 0.406311
Si Si5 0.741318 0.601497 0.658509
Si Si6 0.754174 0.939839 0.820966
Si Si7 0.348255 0.307762 0.432140
O O1 0.000000 0.498883 0.924524
O O2 0.128113 0.576461 0.875268
O O3 0.000000 0.584294 0.003444
O O4 0.500000 0.510949 0.418371
O O5 0.500000 0.581630 0.516867
O O6 0.628622 0.594372 0.390679
O O7 0.875388 0.078414 0.864061
O O8 0.368586 0.059876 0.360350
O O9 0.774016 0.593944 0.746321
O O10 0.683810 0.657244 0.640622
O O11 0.750000 0.000000 0.802066
O O12 0.500000 0.315236 0.457994
O O13 0.322838 0.250000 0.406951
O O14 0.250000 0.323029 0.500000
#
# Coordination Sequence:
#
# PCOD8278680 Si02
#       7
#     8   8   8   8  16  16  16
#     4   9  17  31  45  68  96 133 170 205 235 288
#     4  11  23  33  48  69 100 140 177 205 242 298
#     4   9  17  29  49  66  94 133 174 203 237 284
#     4  11  21  35  48  67  98 140 181 207 238 296
#     4  12  22  34  51  74 103 134 169 217 263 303
#     4  10  19  30  46  70 101 134 166 202 248 297
#     4  10  22  40  60  78  97 128 174 224 271 315
#
# _framework density 16.882197000000001
#
# number of rings (size 3 to 8) (size 9 to 14) (size 15 to 20)
#    0.000    1.600    1.000    5.400    1.400    5.600 
#    0.000    0.000    0.000    0.000    0.000    0.000 
#    0.000    4.800    0.000    0.000    0.000    0.000 
#
# Total GULP energy -496018.722393 kJ/mol
# GULP energy per Si atom -12400.468060 kJ/mol
# Density = 1.684377 g / cm^3
# Si number density = 16.882197 Si / 1000 Ang^3
#
#
#
# Elastic Constant Matrix: (Units=GPa)
#
#
# Indices 1 2 3 4 5 6 
#
# 1 128.6377 14.9346 37.1327 0.0000 0.0000 0.0000
# 2 14.9346 52.1180 25.4121 0.0000 0.0000 0.0000
# 3 37.1327 25.4121 109.0477 0.0000 0.0000 0.0000
# 4 0.0000 0.0000 0.0000 15.3040 0.0000 0.0000
# 5 0.0000 0.0000 0.0000 0.0000 -0.0286 0.0000
# 6 0.0000 0.0000 0.0000 0.0000 0.0000 19.3717
#
#
#
# Elastic Compliance Matrix: (Units=1/GPa)
#
#
# Indices 1 2 3 4 5 6 
#
# 1 0.008685 -0.001181 -0.002682 0.000000 0.000000 0.000000
# 2 -0.001181 0.021807 -0.004680 0.000000 0.000000 0.000000
# 3 -0.002682 -0.004680 0.011174 0.000000 0.000000 0.000000
# 4 0.000000 0.000000 0.000000 0.065342 0.000000 0.000000
# 5 0.000000 0.000000 0.000000 0.000000-35.014923 0.000000
# 6 0.000000 0.000000 0.000000 0.000000 0.000000 0.051622
#
#
# Mechanical properties :
#
#
# Convention : Reuss Voigt Hill
#
# Bulk Modulus (GPa) = 40.68208 49.41804 45.05006
# Shear Modulus (GPa) = -0.14355 21.08438 10.47041
#
# Velocity S-wave (km/s) = -0.29192 3.53783 2.49309
# Velocity P-wave (km/s) = 4.90268 6.78411 5.91863
#
# Compressibility (1/GPa) = 0.02458085
#
# Stress axis : x y z
#
# Youngs Moduli (GPa) = 115.13927 45.85588 89.49179
#
# Poissons Ratio (x) = 0.05415 0.24004
# Poissons Ratio (y) = 0.13597 0.41880
# Poissons Ratio (z) = 0.30883 0.21460
#
# Static dielectric constant tensor:
#      x y z
#    x 3.429350 0.000000 0.000000 
#    y 0.000000 2.885140 0.000000 
#    z 0.000000 0.000000 3.252020 
# 
# 
# High freq. dielectric constant tensor:
#      x y z
#    x 1.677440 0.000000 0.000000 
#    y 0.000000 1.604980 0.000000 
#    z 0.000000 0.000000 1.646240 
# 
# From -- ./inp_files/32226.got.cif
#   From: 2010.03.12/outbox.cif.g09.slc.cpg/sg67_17_cif.got.tgz:32226.got - 2010.04.10 22:41:39.
