data_PCOD8278555
_publ_section_title
;
Structure prediction by ZEFSAII (Michael W. Deem and Ramdas Pophale) SiO2 
 PCOD8278555
Probable space group: C M M A
;
_chemical_formula_sum "Si O2"
_cell_formula_units_Z 96
_cell_length_a 23.605910
_cell_length_b 8.989145
_cell_length_c 25.198049
_cell_angle_alpha 90.000000
_cell_angle_beta 90.000000
_cell_angle_gamma 90.000000
_cell_volume 5346.949089
_symmetry_space_group_name_H-M "C M M A"
_symmetry_group_IT_number 67
_symmetry_cell_setting 'orthorhombic'
loop_
_space_group_symop_operation_xyz
x,y,z
-x,1/2-y,z
x,-y,-z
-x,1/2+y,-z
-x,-y,-z
x,1/2+y,-z
-x,y,z
x,1/2-y,z
1/2+x,1/2+y,z
1/2-x,-y,z
1/2+x,1/2-y,-z
1/2-x,y,-z
1/2-x,1/2-y,-z
1/2+x,y,-z
1/2-x,1/2+y,z
1/2+x,-y,z
loop_
_atom_site_type_symbol
_atom_site_label
_atom_site_fract_x
_atom_site_fract_y
_atom_site_fract_z
Si Si1 0.064919 0.924499 0.554616
Si Si2 0.888076 0.920259 0.347888
Si Si3 0.689556 0.074255 0.252682
Si Si4 0.385721 0.576555 0.846208
Si Si5 0.500000 0.083148 0.281321
Si Si6 0.000000 0.924235 0.826156
Si Si7 0.690475 0.574945 0.946852
O O1 0.071288 0.750000 0.547856
O O2 0.000000 0.969243 0.568742
O O3 0.083698 0.000000 0.500000
O O4 0.108466 0.978980 0.599759
O O5 0.880136 0.750000 0.365642
O O6 0.836681 0.971536 0.309749
O O7 0.945549 0.942694 0.316388
O O8 0.697201 0.250000 0.248524
O O9 0.648238 0.018776 0.205612
O O10 0.750000 0.000000 0.245617
O O11 0.398848 0.750000 0.839701
O O12 0.444388 0.491051 0.853369
O O13 0.350728 0.540419 0.898598
O O14 0.500000 0.250000 0.256696
O O15 0.500000 0.961501 0.235820
O O16 0.000000 0.750000 0.834840
O O17 0.698999 0.750000 0.955909
O O18 0.750000 0.500000 0.932852
O O19 0.664951 0.500000 0.000000
#
# Coordination Sequence:
#
# PCOD8278555 Si02
#       7
#    16  16  16  16   8   8  16
#     4  10  20  32  49  76 109 140 175 218 264 316
#     4  10  19  33  55  77 104 143 178 215 264 318
#     4  10  21  36  55  79 107 141 180 220 266 318
#     4  10  21  39  58  78 109 150 184 216 269 331
#     4  10  18  34  55  74 107 148 181 213 261 333
#     4  12  24  34  53  84 113 142 179 227 271 319
#     4  10  20  35  59  84 111 145 185 230 275 322
#
# _framework density 17.954163000000001
#
# number of rings (size 3 to 8) (size 9 to 14) (size 15 to 20)
#    0.000    1.833    2.500    2.750    0.000    4.000 
#    0.000    0.417    0.000    0.500    0.000    3.500 
#    0.000    0.000    0.000    0.000    0.000    0.000 
#
# Total GULP energy -595265.811815 kJ/mol
# GULP energy per Si atom -12401.371079 kJ/mol
# Density = 1.791330 g / cm^3
# Si number density = 17.954163 Si / 1000 Ang^3
#
#
#
# Elastic Constant Matrix: (Units=GPa)
#
#
# Indices 1 2 3 4 5 6 
#
# 1 109.0008 51.6457 61.7755 0.0000 0.0000 0.0000
# 2 51.6457 85.1264 62.8190 0.0000 0.0000 0.0000
# 3 61.7755 62.8190 133.8592 0.0000 0.0000 0.0000
# 4 0.0000 0.0000 0.0000 28.7030 0.0000 0.0000
# 5 0.0000 0.0000 0.0000 0.0000 32.0305 0.0000
# 6 0.0000 0.0000 0.0000 0.0000 0.0000 34.8175
#
#
#
# Elastic Compliance Matrix: (Units=1/GPa)
#
#
# Indices 1 2 3 4 5 6 
#
# 1 0.014032 -0.005713 -0.003795 0.000000 0.000000 0.000000
# 2 -0.005713 0.020297 -0.006889 0.000000 0.000000 0.000000
# 3 -0.003795 -0.006889 0.012455 0.000000 0.000000 0.000000
# 4 0.000000 0.000000 0.000000 0.034840 0.000000 0.000000
# 5 0.000000 0.000000 0.000000 0.000000 0.031220 0.000000
# 6 0.000000 0.000000 0.000000 0.000000 0.000000 0.028721
#
#
# Mechanical properties :
#
#
# Convention : Reuss Voigt Hill
#
# Bulk Modulus (GPa) = 71.47540 75.60742 73.54141
# Shear Modulus (GPa) = 27.93003 29.22663 28.57833
#
# Velocity S-wave (km/s) = 3.94843 4.03904 3.99399
# Velocity P-wave (km/s) = 7.78994 7.99716 7.89423
#
# Compressibility (1/GPa) = 0.01399083
#
# Stress axis : x y z
#
# Youngs Moduli (GPa) = 71.26821 49.26951 80.29220
#
# Poissons Ratio (x) = 0.28146 0.30468
# Poissons Ratio (y) = 0.40713 0.55310
# Poissons Ratio (z) = 0.27043 0.33940
#
# Static dielectric constant tensor:
#      x y z
#    x 3.131510 0.000000 0.000000 
#    y 0.000000 3.278620 0.000000 
#    z 0.000000 0.000000 3.397980 
# 
# 
# High freq. dielectric constant tensor:
#      x y z
#    x 1.681270 0.000000 0.000000 
#    y 0.000000 1.693810 0.000000 
#    z 0.000000 0.000000 1.699450 
# 
# From -- ./inp_files/42612.got.cif
#   From: 2010.03.12/outbox.cif.g09.slc.cpg/sg67_22_cif.got.tgz:42612.got - 2010.04.10 22:41:39.
