data_PCOD8278689
_publ_section_title
;
Structure prediction by ZEFSAII (Michael W. Deem and Ramdas Pophale) SiO2 
 PCOD8278689
Probable space group: C M M A
;
_chemical_formula_sum "Si O2"
_cell_formula_units_Z 128
_cell_length_a 24.167366
_cell_length_b 16.941384
_cell_length_c 17.808909
_cell_angle_alpha 90.000000
_cell_angle_beta 90.000000
_cell_angle_gamma 90.000000
_cell_volume 7291.477172
_symmetry_space_group_name_H-M "C M M A"
_symmetry_group_IT_number 67
_symmetry_cell_setting 'orthorhombic'
loop_
_space_group_symop_operation_xyz
x,y,z
-x,1/2-y,z
x,-y,-z
-x,1/2+y,-z
-x,-y,-z
x,1/2+y,-z
-x,y,z
x,1/2-y,z
1/2+x,1/2+y,z
1/2-x,-y,z
1/2+x,1/2-y,-z
1/2-x,y,-z
1/2-x,1/2-y,-z
1/2+x,y,-z
1/2-x,1/2+y,z
1/2+x,-y,z
loop_
_atom_site_type_symbol
_atom_site_label
_atom_site_fract_x
_atom_site_fract_y
_atom_site_fract_z
Si Si1 0.230347 0.841412 0.260800
Si Si2 0.813051 0.661618 0.523758
Si Si3 0.631900 0.836855 0.844227
Si Si4 0.564153 0.528280 0.916943
Si Si5 0.155944 0.088534 0.619083
Si Si6 0.439908 0.121540 0.285939
Si Si7 0.334643 0.086374 0.680221
Si Si8 0.060586 0.055002 0.227916
O O1 0.247019 0.750000 0.254001
O O2 0.190694 0.866690 0.190910
O O3 0.199666 0.853629 0.340529
O O4 0.285750 0.895082 0.260187
O O5 0.834119 0.750000 0.506944
O O6 0.750000 0.652841 0.500000
O O7 0.842837 0.597198 0.470711
O O8 0.827491 0.644973 0.610216
O O9 0.638766 0.750000 0.882256
O O10 0.606646 0.899467 0.902328
O O11 0.590547 0.823955 0.774398
O O12 0.500000 0.556743 0.908867
O O13 0.575379 0.453703 0.860913
O O14 0.577376 0.500000 0.000000
O O15 0.094012 0.116335 0.637377
O O16 0.170160 0.001540 0.648496
O O17 0.500000 0.157097 0.303952
O O18 0.443818 0.034801 0.252435
O O19 0.392705 0.100836 0.724167
O O20 0.000000 0.096257 0.239343
#
# Coordination Sequence:
#
# PCOD8278689 Si02
#       8
#    16  16  16  16  16  16  16  16
#     4  10  19  31  47  71 102 131 158 200 256 306
#     4  11  22  34  47  65  96 132 165 213 268 302
#     4   9  17  28  46  73 105 135 164 198 240 300
#     4   9  17  31  53  80 108 136 165 203 252 296
#     4  10  19  30  47  71  95 121 163 211 247 297
#     4   8  15  28  45  68  98 127 153 192 249 299
#     4  11  20  31  53  75  94 129 171 209 252 304
#     4   8  16  32  52  75 100 124 160 208 251 299
#
# _framework density 17.554742999999998
#
# number of rings (size 3 to 8) (size 9 to 14) (size 15 to 20)
#    0.000    2.500    1.250    3.375    0.000    2.000 
#    0.000    0.625    0.000    8.250    0.000    5.250 
#    0.000    0.000    0.000    0.000    0.000    0.000 
#
# Total GULP energy -792959.971465 kJ/mol
# GULP energy per Si atom -12389.999554 kJ/mol
# Density = 1.751479 g / cm^3
# Si number density = 17.554743 Si / 1000 Ang^3
#
#
#
# Elastic Constant Matrix: (Units=GPa)
#
#
# Indices 1 2 3 4 5 6 
#
# 1 121.5193 42.7613 56.8411 0.0000 0.0000 0.0000
# 2 42.7613 61.1206 35.4311 0.0000 0.0000 0.0000
# 3 56.8411 35.4311 101.4430 0.0000 0.0000 0.0000
# 4 0.0000 0.0000 0.0000 20.5609 0.0000 0.0000
# 5 0.0000 0.0000 0.0000 0.0000 23.6327 0.0000
# 6 0.0000 0.0000 0.0000 0.0000 0.0000 -5.5798
#
#
#
# Elastic Compliance Matrix: (Units=1/GPa)
#
#
# Indices 1 2 3 4 5 6 
#
# 1 0.012674 -0.005956 -0.005021 0.000000 0.000000 0.000000
# 2 -0.005956 0.023314 -0.004805 0.000000 0.000000 0.000000
# 3 -0.005021 -0.004805 0.014350 0.000000 0.000000 0.000000
# 4 0.000000 0.000000 0.000000 0.048636 0.000000 0.000000
# 5 0.000000 0.000000 0.000000 0.000000 0.042314 0.000000
# 6 0.000000 0.000000 0.000000 0.000000 0.000000 -0.179217
#
#
# Mechanical properties :
#
#
# Convention : Reuss Voigt Hill
#
# Bulk Modulus (GPa) = 53.27154 61.57222 57.42188
# Shear Modulus (GPa) = -46648.02522 17.65937 -23315.18293
#
# Velocity S-wave (km/s) = -163.18878 3.17513 -115.37005
# Velocity P-wave (km/s) = 188.35346 6.97083 133.09476
#
# Compressibility (1/GPa) = 0.01877175
#
# Stress axis : x y z
#
# Youngs Moduli (GPa) = 78.90380 42.89305 69.68828
#
# Poissons Ratio (x) = 0.25547 0.34991
# Poissons Ratio (y) = 0.46996 0.33489
# Poissons Ratio (z) = 0.39618 0.20612
#
# Static dielectric constant tensor:
#      x y z
#    x 3.612470 0.000000 0.000000 
#    y 0.000000 3.059430 0.000000 
#    z 0.000000 0.000000 3.219240 
# 
# 
# High freq. dielectric constant tensor:
#      x y z
#    x 1.675130 0.000000 0.000000 
#    y 0.000000 1.660150 0.000000 
#    z 0.000000 0.000000 1.653720 
# 
# From -- ./inp_files/35607.got.cif
#   From: 2010.03.12/outbox.cif.g09.slc.cpg/sg67_18_cif.got.tgz:35607.got - 2010.04.10 22:41:39.
