data_PCOD8278208
_publ_section_title
;
Structure prediction by ZEFSAII (Michael W. Deem and Ramdas Pophale) SiO2 
 PCOD8278208
Probable space group: C M M A
;
_chemical_formula_sum "Si O2"
_cell_formula_units_Z 104
_cell_length_a 32.174705
_cell_length_b 9.715795
_cell_length_c 17.924755
_cell_angle_alpha 90.000000
_cell_angle_beta 90.000000
_cell_angle_gamma 90.000000
_cell_volume 5603.329283
_symmetry_space_group_name_H-M "C M M A"
_symmetry_group_IT_number 67
_symmetry_cell_setting 'orthorhombic'
loop_
_space_group_symop_operation_xyz
x,y,z
-x,1/2-y,z
x,-y,-z
-x,1/2+y,-z
-x,-y,-z
x,1/2+y,-z
-x,y,z
x,1/2-y,z
1/2+x,1/2+y,z
1/2-x,-y,z
1/2+x,1/2-y,-z
1/2-x,y,-z
1/2-x,1/2-y,-z
1/2+x,y,-z
1/2-x,1/2+y,z
1/2+x,-y,z
loop_
_atom_site_type_symbol
_atom_site_label
_atom_site_fract_x
_atom_site_fract_y
_atom_site_fract_z
Si Si1 0.630544 0.087762 0.427399
Si Si2 0.070263 0.410768 0.814856
Si Si3 0.133890 0.093497 0.929613
Si Si4 0.790365 0.589740 0.325196
Si Si5 0.785514 0.097334 0.843774
Si Si6 0.500000 0.091031 0.071888
Si Si7 0.546841 0.586466 0.655109
O O1 0.630535 0.250000 0.445550
O O2 0.667415 0.051504 0.369391
O O3 0.584465 0.040945 0.399162
O O4 0.640691 0.000000 0.500000
O O5 0.070778 0.250000 0.797711
O O6 0.113556 0.458845 0.851493
O O7 0.058271 0.480133 0.736038
O O8 0.038919 0.450744 0.879358
O O9 0.119244 0.250000 0.947813
O O10 0.181915 0.086834 0.910574
O O11 0.122066 0.000000 0.000000
O O12 0.779182 0.750000 0.337914
O O13 0.750000 0.500000 0.351039
O O14 0.801439 0.556082 0.238992
O O15 0.767237 0.250000 0.838445
O O16 0.750000 0.000000 0.872811
O O17 0.500000 0.250000 0.048498
O O18 0.500000 0.000000 0.000000
O O19 0.500000 0.534658 0.630937
O O20 0.545615 0.750000 0.659648
#
# Coordination Sequence:
#
# PCOD8278208 Si02
#       7
#    16  16  16  16  16   8  16
#     4  10  21  35  53  79 109 137 167 208 255 304
#     4   9  16  29  49  73  97 124 164 208 243 284
#     4  10  20  32  47  69  99 132 165 204 251 299
#     4   9  18  34  55  78 103 133 170 211 254 301
#     4   9  18  33  52  72  94 125 166 210 250 290
#     4  10  18  28  46  72  99 126 156 196 243 288
#     4   9  16  30  54  80 101 129 175 220 253 294
#
# _framework density 18.560393999999999
#
# number of rings (size 3 to 8) (size 9 to 14) (size 15 to 20)
#    0.000    2.615    0.769    1.385    0.000    5.846 
#    0.000    3.077    0.000    3.692    0.000    0.000 
#    0.000    0.000    0.000    0.000    0.000    0.000 
#
# Total GULP energy -644192.702944 kJ/mol
# GULP energy per Si atom -12388.321210 kJ/mol
# Density = 1.851815 g / cm^3
# Si number density = 18.560394 Si / 1000 Ang^3
#
#
#
# Elastic Constant Matrix: (Units=GPa)
#
#
# Indices 1 2 3 4 5 6 
#
# 1 95.8200 25.3764 13.3700 0.0000 0.0000 0.0000
# 2 25.3764 37.8360 19.9802 0.0000 0.0000 0.0000
# 3 13.3700 19.9802 51.0567 0.0000 0.0000 0.0000
# 4 0.0000 0.0000 0.0000 24.6102 0.0000 0.0000
# 5 0.0000 0.0000 0.0000 0.0000 34.6192 0.0000
# 6 0.0000 0.0000 0.0000 0.0000 0.0000 19.7872
#
#
#
# Elastic Compliance Matrix: (Units=1/GPa)
#
#
# Indices 1 2 3 4 5 6 
#
# 1 0.012690 -0.008516 0.000010 0.000000 0.000000 0.000000
# 2 -0.008516 0.039030 -0.013044 0.000000 0.000000 0.000000
# 3 0.000010 -0.013044 0.024688 0.000000 0.000000 0.000000
# 4 0.000000 0.000000 0.000000 0.040634 0.000000 0.000000
# 5 0.000000 0.000000 0.000000 0.000000 0.028886 0.000000
# 6 0.000000 0.000000 0.000000 0.000000 0.000000 0.050538
#
#
# Mechanical properties :
#
#
# Convention : Reuss Voigt Hill
#
# Bulk Modulus (GPa) = 30.02343 33.57401 31.79872
# Shear Modulus (GPa) = 19.94670 24.20240 22.07455
#
# Velocity S-wave (km/s) = 3.28181 3.61499 3.45242
# Velocity P-wave (km/s) = 5.52915 5.96259 5.74996
#
# Compressibility (1/GPa) = 0.03330732
#
# Stress axis : x y z
#
# Youngs Moduli (GPa) = 78.80013 25.62152 40.50559
#
# Poissons Ratio (x) = 0.21820 -0.00039
# Poissons Ratio (y) = 0.67109 0.52834
# Poissons Ratio (z) = -0.00076 0.33419
#
# Static dielectric constant tensor:
#      x y z
#    x 3.704630 0.000000 0.000000 
#    y 0.000000 3.079410 0.000000 
#    z 0.000000 0.000000 3.352880 
# 
# 
# High freq. dielectric constant tensor:
#      x y z
#    x 1.734950 0.000000 0.000000 
#    y 0.000000 1.674790 0.000000 
#    z 0.000000 0.000000 1.718140 
# 
# From -- ./inp_files/35905.got.cif
#   From: 2010.03.12/outbox.cif.g09.slc.cpg/sg67_18_cif.got.tgz:35905.got - 2010.04.10 22:41:39.
