data_PCOD8278525
_publ_section_title
;
Structure prediction by ZEFSAII (Michael W. Deem and Ramdas Pophale) SiO2 
 PCOD8278525
Probable space group: C M M A
;
_chemical_formula_sum "Si O2"
_cell_formula_units_Z 80
_cell_length_a 16.801679
_cell_length_b 21.669169
_cell_length_c 11.709202
_cell_angle_alpha 90.000000
_cell_angle_beta 90.000000
_cell_angle_gamma 90.000000
_cell_volume 4263.067784
_symmetry_space_group_name_H-M "C M M A"
_symmetry_group_IT_number 67
_symmetry_cell_setting 'orthorhombic'
loop_
_space_group_symop_operation_xyz
x,y,z
-x,1/2-y,z
x,-y,-z
-x,1/2+y,-z
-x,-y,-z
x,1/2+y,-z
-x,y,z
x,1/2-y,z
1/2+x,1/2+y,z
1/2-x,-y,z
1/2+x,1/2-y,-z
1/2-x,y,-z
1/2-x,1/2-y,-z
1/2+x,y,-z
1/2-x,1/2+y,z
1/2+x,-y,z
loop_
_atom_site_type_symbol
_atom_site_label
_atom_site_fract_x
_atom_site_fract_y
_atom_site_fract_z
Si Si1 0.772539 0.178496 0.872362
Si Si2 0.591917 0.485458 0.631282
Si Si3 0.310238 0.633247 0.336817
Si Si4 0.586765 0.387936 0.247166
Si Si5 0.349334 0.179379 0.437433
O O1 0.796407 0.250000 0.862577
O O2 0.697453 0.164516 0.788273
O O3 0.848502 0.136781 0.841666
O O4 0.750000 0.160182 0.000000
O O5 0.612109 0.500000 0.500000
O O6 0.500000 0.463617 0.642216
O O7 0.653223 0.434402 0.677603
O O8 0.608978 0.543757 0.711295
O O9 0.366769 0.670045 0.427526
O O10 0.222468 0.635180 0.393145
O O11 0.500000 0.387694 0.187590
O O12 0.578045 0.343155 0.359083
O O13 0.326612 0.250000 0.412514
#
# Coordination Sequence:
#
# PCOD8278525 Si02
#       5
#    16  16  16  16  16
#     4  10  22  40  59  80 110 148 191 237 277 323
#     4  10  20  35  53  80 117 150 178 220 280 342
#     4  10  18  33  53  76 109 145 182 223 279 327
#     4  10  20  36  57  84 113 144 185 228 278 338
#     4  10  19  30  50  82 113 139 176 232 285 335
#
# _framework density 18.765827999999999
#
# number of rings (size 3 to 8) (size 9 to 14) (size 15 to 20)
#    0.000    2.000    2.000    4.200    0.000    4.800 
#    0.000    3.000    0.000    8.400    0.000    0.000 
#    0.000    0.000    0.000    0.000    0.000    0.000 
#
# Total GULP energy -495589.561682 kJ/mol
# GULP energy per Si atom -12389.739042 kJ/mol
# Density = 1.872312 g / cm^3
# Si number density = 18.765828 Si / 1000 Ang^3
#
#
#
# Elastic Constant Matrix: (Units=GPa)
#
#
# Indices 1 2 3 4 5 6 
#
# 1 76.6739 67.5693 39.0948 0.0000 0.0000 0.0000
# 2 67.5693 127.9907 47.5867 0.0000 0.0000 0.0000
# 3 39.0948 47.5867 139.9714 0.0000 0.0000 0.0000
# 4 0.0000 0.0000 0.0000 27.6133 0.0000 0.0000
# 5 0.0000 0.0000 0.0000 0.0000 18.7926 0.0000
# 6 0.0000 0.0000 0.0000 0.0000 0.0000 9.8603
#
#
#
# Elastic Compliance Matrix: (Units=1/GPa)
#
#
# Indices 1 2 3 4 5 6 
#
# 1 0.025377 -0.012319 -0.002900 0.000000 0.000000 0.000000
# 2 -0.012319 0.014924 -0.001633 0.000000 0.000000 0.000000
# 3 -0.002900 -0.001633 0.008509 0.000000 0.000000 0.000000
# 4 0.000000 0.000000 0.000000 0.036214 0.000000 0.000000
# 5 0.000000 0.000000 0.000000 0.000000 0.053212 0.000000
# 6 0.000000 0.000000 0.000000 0.000000 0.000000 0.101417
#
#
# Mechanical properties :
#
#
# Convention : Reuss Voigt Hill
#
# Bulk Modulus (GPa) = 66.19588 72.57086 69.38337
# Shear Modulus (GPa) = 17.96026 23.94559 20.95292
#
# Velocity S-wave (km/s) = 3.09702 3.57602 3.34510
# Velocity P-wave (km/s) = 6.93830 7.47036 7.20924
#
# Compressibility (1/GPa) = 0.01510668
#
# Stress axis : x y z
#
# Youngs Moduli (GPa) = 39.40587 67.00777 117.51726
#
# Poissons Ratio (x) = 0.82547 0.34077
# Poissons Ratio (y) = 0.48544 0.19190
# Poissons Ratio (z) = 0.11427 0.10942
#
# Static dielectric constant tensor:
#      x y z
#    x 3.393470 0.000000 0.000000 
#    y 0.000000 3.427270 0.000000 
#    z 0.000000 0.000000 3.520160 
# 
# 
# High freq. dielectric constant tensor:
#      x y z
#    x 1.711960 0.000000 0.000000 
#    y 0.000000 1.732920 0.000000 
#    z 0.000000 0.000000 1.708950 
# 
# From -- ./inp_files/17942.got.cif
#   From: 2010.03.12/outbox.cif.g09.slc.cpg/sg67_9_cif.got.tgz:17942.got - 2010.04.10 22:41:39.
