data_PCOD8278571
_publ_section_title
;
Structure prediction by ZEFSAII (Michael W. Deem and Ramdas Pophale) SiO2 
 PCOD8278571
Probable space group: C M M A
;
_chemical_formula_sum "Si O2"
_cell_formula_units_Z 80
_cell_length_a 23.902663
_cell_length_b 8.640147
_cell_length_c 20.524865
_cell_angle_alpha 90.000000
_cell_angle_beta 90.000000
_cell_angle_gamma 90.000000
_cell_volume 4238.846884
_symmetry_space_group_name_H-M "C M M A"
_symmetry_group_IT_number 67
_symmetry_cell_setting 'orthorhombic'
loop_
_space_group_symop_operation_xyz
x,y,z
-x,1/2-y,z
x,-y,-z
-x,1/2+y,-z
-x,-y,-z
x,1/2+y,-z
-x,y,z
x,1/2-y,z
1/2+x,1/2+y,z
1/2-x,-y,z
1/2+x,1/2-y,-z
1/2-x,y,-z
1/2-x,1/2-y,-z
1/2+x,y,-z
1/2-x,1/2+y,z
1/2+x,-y,z
loop_
_atom_site_type_symbol
_atom_site_label
_atom_site_fract_x
_atom_site_fract_y
_atom_site_fract_z
Si Si1 0.189260 0.566006 0.068478
Si Si2 0.500000 0.570555 0.370102
Si Si3 0.811425 0.433453 0.685589
Si Si4 0.000000 0.067575 0.770354
Si Si5 0.382249 0.068206 0.569949
Si Si6 0.380943 0.434012 0.190839
O O1 0.192962 0.750000 0.064817
O O2 0.250000 0.500000 0.085464
O O3 0.146784 0.507132 0.123983
O O4 0.167097 0.500000 0.000000
O O5 0.500000 0.750000 0.350076
O O6 0.500000 0.469314 0.305602
O O7 0.553999 0.526064 0.412377
O O8 0.808785 0.250000 0.685106
O O9 0.750000 0.500000 0.691374
O O10 0.840073 0.491008 0.620131
O O11 0.846313 0.496854 0.747414
O O12 0.944279 0.999489 0.804769
O O13 0.000000 0.250000 0.777779
O O14 0.371882 0.250000 0.569875
O O15 0.367758 0.000000 0.500000
O O16 0.381276 0.250000 0.192637
#
# Coordination Sequence:
#
# PCOD8278571 Si02
#       6
#    16   8  16   8  16  16
#     4  10  19  34  54  82 113 147 186 226 271 322
#     4  10  21  37  57  85 115 141 179 231 281 324
#     4  11  22  38  58  83 110 145 186 230 281 335
#     4  10  18  35  60  83 108 145 184 225 272 332
#     4  11  23  39  58  83 113 146 183 229 278 333
#     4   9  19  34  57  84 111 143 185 227 273 327
#
# _framework density 18.873056999999999
#
# number of rings (size 3 to 8) (size 9 to 14) (size 15 to 20)
#    0.000    1.800    2.000    3.300    0.000    1.200 
#    0.000    7.500    0.000    0.000    0.000    0.000 
#    0.000    0.000    0.000    0.000    0.000    0.000 
#
# Total GULP energy -496083.142190 kJ/mol
# GULP energy per Si atom -12402.078555 kJ/mol
# Density = 1.883010 g / cm^3
# Si number density = 18.873057 Si / 1000 Ang^3
#
#
#
# Elastic Constant Matrix: (Units=GPa)
#
#
# Indices 1 2 3 4 5 6 
#
# 1 170.8878 39.1777 99.9189 0.0000 0.0000 0.0000
# 2 39.1777 60.4742 36.7010 0.0000 0.0000 0.0000
# 3 99.9189 36.7010 175.1219 0.0000 0.0000 0.0000
# 4 0.0000 0.0000 0.0000 24.3467 0.0000 0.0000
# 5 0.0000 0.0000 0.0000 0.0000 523.2573 0.0000
# 6 0.0000 0.0000 0.0000 0.0000 0.0000 -24.3587
#
#
#
# Elastic Compliance Matrix: (Units=1/GPa)
#
#
# Indices 1 2 3 4 5 6 
#
# 1 0.009296 -0.003212 -0.004631 0.000000 0.000000 0.000000
# 2 -0.003212 0.020055 -0.002371 0.000000 0.000000 0.000000
# 3 -0.004631 -0.002371 0.008849 0.000000 0.000000 0.000000
# 4 0.000000 0.000000 0.000000 0.041073 0.000000 0.000000
# 5 0.000000 0.000000 0.000000 0.000000 0.001911 0.000000
# 6 0.000000 0.000000 0.000000 0.000000 0.000000 -0.041053
#
#
# Mechanical properties :
#
#
# Convention : Reuss Voigt Hill
#
# Bulk Modulus (GPa) = 56.26131 84.23100 70.24615
# Shear Modulus (GPa) = 75.20755 120.02814 97.61785
#
# Velocity S-wave (km/s) = 6.31947 7.98346 7.19970
# Velocity P-wave (km/s) = 9.11716 11.38895 10.31578
#
# Compressibility (1/GPa) = 0.01777420
#
# Stress axis : x y z
#
# Youngs Moduli (GPa) = 107.57602 49.86193 113.00390
#
# Poissons Ratio (x) = 0.16015 0.52329
# Poissons Ratio (y) = 0.34552 0.26788
# Poissons Ratio (z) = 0.49816 0.11820
#
# Static dielectric constant tensor:
#      x y z
#    x 3.779510 0.000000 0.000000 
#    y 0.000000 3.335650 0.000000 
#    z 0.000000 0.000000 3.591900 
# 
# 
# High freq. dielectric constant tensor:
#      x y z
#    x 1.741800 0.000000 0.000000 
#    y 0.000000 1.723060 0.000000 
#    z 0.000000 0.000000 1.738900 
# 
# From -- ./inp_files/39528.got.cif
#   From: 2010.03.12/outbox.cif.g09.slc.cpg/sg67_20_cif.got.tgz:39528.got - 2010.04.10 22:41:39.
