data_PCOD8278600
_publ_section_title
;
Structure prediction by ZEFSAII (Michael W. Deem and Ramdas Pophale) SiO2 
 PCOD8278600
Probable space group: C M M A
;
_chemical_formula_sum "Si O2"
_cell_formula_units_Z 104
_cell_length_a 25.576978
_cell_length_b 9.022949
_cell_length_c 27.642934
_cell_angle_alpha 90.000000
_cell_angle_beta 90.000000
_cell_angle_gamma 90.000000
_cell_volume 6379.429897
_symmetry_space_group_name_H-M "C M M A"
_symmetry_group_IT_number 67
_symmetry_cell_setting 'orthorhombic'
loop_
_space_group_symop_operation_xyz
x,y,z
-x,1/2-y,z
x,-y,-z
-x,1/2+y,-z
-x,-y,-z
x,1/2+y,-z
-x,y,z
x,1/2-y,z
1/2+x,1/2+y,z
1/2-x,-y,z
1/2+x,1/2-y,-z
1/2-x,y,-z
1/2-x,1/2-y,-z
1/2+x,y,-z
1/2-x,1/2+y,z
1/2+x,-y,z
loop_
_atom_site_type_symbol
_atom_site_label
_atom_site_fract_x
_atom_site_fract_y
_atom_site_fract_z
Si Si1 0.693983 0.922516 0.044930
Si Si2 0.804823 0.921350 0.849410
Si Si3 0.150668 0.920216 0.240541
Si Si4 0.405253 0.918302 0.382013
Si Si5 0.195253 0.574270 0.343751
Si Si6 0.558723 0.413565 0.724061
Si Si7 0.000000 0.426866 0.448138
O O1 0.700367 0.750000 0.033391
O O2 0.667435 0.946512 0.097848
O O3 0.750000 0.000000 0.047423
O O4 0.662415 0.000000 0.000000
O O5 0.794586 0.750000 0.840087
O O6 0.750000 0.000000 0.847597
O O7 0.839208 0.983242 0.806475
O O8 0.159281 0.750000 0.227803
O O9 0.184967 0.967445 0.287337
O O10 0.090589 0.953134 0.252134
O O11 0.387956 0.750000 0.393733
O O12 0.438640 0.926153 0.333373
O O13 0.446062 0.979834 0.422049
O O14 0.351944 0.014794 0.377686
O O15 0.198836 0.750000 0.350696
O O16 0.250000 0.500000 0.359508
O O17 0.500000 0.434279 0.741814
O O18 0.579746 0.250000 0.739800
O O19 0.000000 0.500000 0.500000
O O20 0.000000 0.250000 0.450987
#
# Coordination Sequence:
#
# PCOD8278600 Si02
#       7
#    16  16  16  16  16  16   8
#     4   9  16  25  38  55  75 103 141 182 224 268
#     4  10  19  29  41  58  83 116 151 187 225 268
#     4  10  20  30  42  64  92 122 155 189 228 272
#     4   9  17  32  52  73  98 128 161 194 231 279
#     4  10  20  32  47  70  97 128 164 198 234 277
#     4   9  16  29  49  68  89 120 154 187 225 270
#     4  10  20  34  54  80 106 130 158 194 239 284
#
# _framework density 16.302396999999999
#
# number of rings (size 3 to 8) (size 9 to 14) (size 15 to 20)
#    0.000    2.462    0.769    2.769    0.000    5.846 
#    0.000    0.000    0.000    0.462    0.000    3.231 
#    0.000    0.615    0.000    2.000    0.000    2.769 
#
# Total GULP energy -644318.361235 kJ/mol
# GULP energy per Si atom -12390.737716 kJ/mol
# Density = 1.626529 g / cm^3
# Si number density = 16.302397 Si / 1000 Ang^3
#
#
#
# Elastic Constant Matrix: (Units=GPa)
#
#
# Indices 1 2 3 4 5 6 
#
# 1 88.9542 40.8212 44.5035 0.0000 0.0000 0.0000
# 2 40.8212 83.2795 47.8782 0.0000 0.0000 0.0000
# 3 44.5035 47.8782 102.6578 0.0000 0.0000 0.0000
# 4 0.0000 0.0000 0.0000 28.2297 0.0000 0.0000
# 5 0.0000 0.0000 0.0000 0.0000 25.3882 0.0000
# 6 0.0000 0.0000 0.0000 0.0000 0.0000 23.6176
#
#
#
# Elastic Compliance Matrix: (Units=1/GPa)
#
#
# Indices 1 2 3 4 5 6 
#
# 1 0.015859 -0.005221 -0.004440 0.000000 0.000000 0.000000
# 2 -0.005221 0.018126 -0.006190 0.000000 0.000000 0.000000
# 3 -0.004440 -0.006190 0.014553 0.000000 0.000000 0.000000
# 4 0.000000 0.000000 0.000000 0.035424 0.000000 0.000000
# 5 0.000000 0.000000 0.000000 0.000000 0.039388 0.000000
# 6 0.000000 0.000000 0.000000 0.000000 0.000000 0.042341
#
#
# Mechanical properties :
#
#
# Convention : Reuss Voigt Hill
#
# Bulk Modulus (GPa) = 59.39963 60.14416 59.77190
# Shear Modulus (GPa) = 24.62987 24.89301 24.76144
#
# Velocity S-wave (km/s) = 3.89113 3.91186 3.90151
# Velocity P-wave (km/s) = 7.53015 7.57473 7.55247
#
# Compressibility (1/GPa) = 0.01683512
#
# Stress axis : x y z
#
# Youngs Moduli (GPa) = 63.05566 55.17009 68.71443
#
# Poissons Ratio (x) = 0.28804 0.30510
# Poissons Ratio (y) = 0.32921 0.42536
# Poissons Ratio (z) = 0.27997 0.34152
#
# Static dielectric constant tensor:
#      x y z
#    x 2.800610 0.000000 0.000000 
#    y 0.000000 3.060480 0.000000 
#    z 0.000000 0.000000 3.447830 
# 
# 
# High freq. dielectric constant tensor:
#      x y z
#    x 1.593840 0.000000 0.000000 
#    y 0.000000 1.637780 0.000000 
#    z 0.000000 0.000000 1.617220 
# 
# From -- ./inp_files/40988.got.cif
#   From: 2010.03.12/outbox.cif.g09.slc.cpg/sg67_21_cif.got.tgz:40988.got - 2010.04.10 22:41:39.
