data_PCOD8278709
_publ_section_title
;
Structure prediction by ZEFSAII (Michael W. Deem and Ramdas Pophale) SiO2 
 PCOD8278709
Probable space group: C M M A
;
_chemical_formula_sum "Si O2"
_cell_formula_units_Z 80
_cell_length_a 33.327450
_cell_length_b 25.906242
_cell_length_c 4.987505
_cell_angle_alpha 90.000000
_cell_angle_beta 90.000000
_cell_angle_gamma 90.000000
_cell_volume 4306.156879
_symmetry_space_group_name_H-M "C M M A"
_symmetry_group_IT_number 67
_symmetry_cell_setting 'orthorhombic'
loop_
_space_group_symop_operation_xyz
x,y,z
-x,1/2-y,z
x,-y,-z
-x,1/2+y,-z
-x,-y,-z
x,1/2+y,-z
-x,y,z
x,1/2-y,z
1/2+x,1/2+y,z
1/2-x,-y,z
1/2+x,1/2-y,-z
1/2-x,y,-z
1/2-x,1/2-y,-z
1/2+x,y,-z
1/2-x,1/2+y,z
1/2+x,-y,z
loop_
_atom_site_type_symbol
_atom_site_label
_atom_site_fract_x
_atom_site_fract_y
_atom_site_fract_z
Si Si1 0.089235 0.056225 0.411355
Si Si2 0.276767 0.692424 0.242501
Si Si3 0.098653 0.808234 0.074500
Si Si4 0.358752 0.652863 0.426259
Si Si5 0.953672 0.904865 0.096483
O O1 0.127906 0.093197 0.434805
O O2 0.053215 0.072206 0.609316
O O3 0.104527 0.000000 0.500000
O O4 0.071592 0.060149 0.111821
O O5 0.292583 0.750000 0.161227
O O6 0.250000 0.697560 0.500000
O O7 0.313330 0.654956 0.319987
O O8 0.250000 0.668941 0.000000
O O9 0.084175 0.750000 0.125419
O O10 0.135021 0.823000 0.277936
O O11 0.060508 0.845473 0.107703
O O12 0.113886 0.813717 0.772262
O O13 0.000000 0.906982 0.018610
#
# Coordination Sequence:
#
# PCOD8278709 Si02
#       5
#    16  16  16  16  16
#     4  10  21  36  54  74  96 131 172 211 257 298
#     4  10  19  30  48  75 104 131 157 192 242 292
#     4  10  19  32  51  72 100 138 170 201 246 300
#     4  10  20  34  51  74 102 131 170 209 243 298
#     4  10  21  34  50  76 103 128 167 213 256 303
#
# _framework density 18.578050000000001
#
# number of rings (size 3 to 8) (size 9 to 14) (size 15 to 20)
#    0.000    2.000    0.000    4.200    0.000    4.400 
#    0.000    0.000    0.000    7.800    0.000    1.400 
#    0.000    0.000    0.000    0.000    0.000    0.000 
#
# Total GULP energy -495979.478364 kJ/mol
# GULP energy per Si atom -12399.486959 kJ/mol
# Density = 1.853577 g / cm^3
# Si number density = 18.578050 Si / 1000 Ang^3
#
#
#
# Elastic Constant Matrix: (Units=GPa)
#
#
# Indices 1 2 3 4 5 6 
#
# 1 85.4407 54.2111 15.7072 0.0000 0.0000 0.0000
# 2 54.2111 122.9297 26.8250 0.0000 0.0000 0.0000
# 3 15.7072 26.8250 86.1567 0.0000 0.0000 0.0000
# 4 0.0000 0.0000 0.0000 20.0609 0.0000 0.0000
# 5 0.0000 0.0000 0.0000 0.0000 24.3873 0.0000
# 6 0.0000 0.0000 0.0000 0.0000 0.0000 15.7016
#
#
#
# Elastic Compliance Matrix: (Units=1/GPa)
#
#
# Indices 1 2 3 4 5 6 
#
# 1 0.016301 -0.007017 -0.000787 0.000000 0.000000 0.000000
# 2 -0.007017 0.011748 -0.002379 0.000000 0.000000 0.000000
# 3 -0.000787 -0.002379 0.012491 0.000000 0.000000 0.000000
# 4 0.000000 0.000000 0.000000 0.049848 0.000000 0.000000
# 5 0.000000 0.000000 0.000000 0.000000 0.041005 0.000000
# 6 0.000000 0.000000 0.000000 0.000000 0.000000 0.063688
#
#
# Mechanical properties :
#
#
# Convention : Reuss Voigt Hill
#
# Bulk Modulus (GPa) = 49.56672 54.22376 51.89524
# Shear Modulus (GPa) = 22.50522 25.21553 23.86037
#
# Velocity S-wave (km/s) = 3.48428 3.68812 3.58764
# Velocity P-wave (km/s) = 6.55172 6.88380 6.71981
#
# Compressibility (1/GPa) = 0.02017483
#
# Stress axis : x y z
#
# Youngs Moduli (GPa) = 61.34674 85.12001 80.05876
#
# Poissons Ratio (x) = 0.59727 0.06301
# Poissons Ratio (y) = 0.43046 0.19043
# Poissons Ratio (z) = 0.04829 0.20246
#
# Static dielectric constant tensor:
#      x y z
#    x 3.068700 0.000000 0.000000 
#    y 0.000000 3.452280 0.000000 
#    z 0.000000 0.000000 3.662080 
# 
# 
# High freq. dielectric constant tensor:
#      x y z
#    x 1.695280 0.000000 0.000000 
#    y 0.000000 1.704640 0.000000 
#    z 0.000000 0.000000 1.746850 
# 
# From -- ./inp_files/3549.got.cif
#   From: 2010.03.12/outbox.cif.g09.slc.cpg/sg67_2_cif.got.tgz:3549.got - 2010.04.10 22:41:39.
