data_PCOD8278045
_publ_section_title
;
Structure prediction by ZEFSAII (Michael W. Deem and Ramdas Pophale) SiO2 
 PCOD8278045
Probable space group: C M M A
;
_chemical_formula_sum "Si O2"
_cell_formula_units_Z 104
_cell_length_a 26.663431
_cell_length_b 8.824102
_cell_length_c 24.574208
_cell_angle_alpha 90.000000
_cell_angle_beta 90.000000
_cell_angle_gamma 90.000000
_cell_volume 5781.840173
_symmetry_space_group_name_H-M "C M M A"
_symmetry_group_IT_number 67
_symmetry_cell_setting 'orthorhombic'
loop_
_space_group_symop_operation_xyz
x,y,z
-x,1/2-y,z
x,-y,-z
-x,1/2+y,-z
-x,-y,-z
x,1/2+y,-z
-x,y,z
x,1/2-y,z
1/2+x,1/2+y,z
1/2-x,-y,z
1/2+x,1/2-y,-z
1/2-x,y,-z
1/2-x,1/2-y,-z
1/2+x,y,-z
1/2-x,1/2+y,z
1/2+x,-y,z
loop_
_atom_site_type_symbol
_atom_site_label
_atom_site_fract_x
_atom_site_fract_y
_atom_site_fract_z
Si Si1 0.598135 0.571204 0.377144
Si Si2 0.500000 0.070147 0.558837
Si Si3 0.057979 0.073420 0.726730
Si Si4 0.442469 0.414688 0.832597
Si Si5 0.798281 0.430315 0.940009
Si Si6 0.897961 0.928186 0.942257
Si Si7 0.697849 0.931009 0.440853
O O1 0.596111 0.750000 0.373849
O O2 0.550240 0.510645 0.411180
O O3 0.594108 0.506906 0.316452
O O4 0.650926 0.518588 0.403356
O O5 0.500000 0.250000 0.554516
O O6 0.500000 0.000000 0.500000
O O7 0.064237 0.250000 0.719632
O O8 0.000000 0.023807 0.717695
O O9 0.078621 0.029277 0.787022
O O10 0.500000 0.396968 0.819312
O O11 0.415765 0.250000 0.826295
O O12 0.438239 0.467189 0.895605
O O13 0.796218 0.250000 0.940777
O O14 0.750000 0.500000 0.908506
O O15 0.849260 0.493320 0.914594
O O16 0.798535 0.500000 0.000000
O O17 0.889640 0.750000 0.952218
O O18 0.914313 0.000000 0.000000
O O19 0.702479 0.750000 0.444835
O O20 0.687606 0.000000 0.500000
O O21 0.750000 0.000000 0.417095
#
# Coordination Sequence:
#
# PCOD8278045 Si02
#       7
#    16   8  16  16  16  16  16
#     4  10  20  34  53  75 103 140 176 211 259 313
#     4  10  20  32  48  74 108 140 167 204 253 306
#     4  10  20  33  52  78 102 128 167 213 258 304
#     4   9  19  35  53  71  97 135 172 206 248 302
#     4  10  17  27  44  66  93 123 155 192 236 288
#     4  10  19  31  48  72 100 130 165 204 251 304
#     4  10  20  34  53  77 105 142 183 221 261 306
#
# _framework density 17.987352999999999
#
# number of rings (size 3 to 8) (size 9 to 14) (size 15 to 20)
#    0.000    2.154    0.769    5.077    0.000    4.000 
#    0.000    0.000    0.000    0.923    0.000    4.308 
#    0.000    0.000    0.000    0.000    0.000    0.000 
#
# Total GULP energy -644350.350549 kJ/mol
# GULP energy per Si atom -12391.352895 kJ/mol
# Density = 1.794641 g / cm^3
# Si number density = 17.987353 Si / 1000 Ang^3
#
#
#
# Elastic Constant Matrix: (Units=GPa)
#
#
# Indices 1 2 3 4 5 6 
#
# 1 91.3525 36.2327 49.9744 0.0000 0.0000 0.0000
# 2 36.2327 76.9228 34.7499 0.0000 0.0000 0.0000
# 3 49.9744 34.7499 115.0393 0.0000 0.0000 0.0000
# 4 0.0000 0.0000 0.0000 25.7604 0.0000 0.0000
# 5 0.0000 0.0000 0.0000 0.0000 21.6425 0.0000
# 6 0.0000 0.0000 0.0000 0.0000 0.0000 25.1664
#
#
#
# Elastic Compliance Matrix: (Units=1/GPa)
#
#
# Indices 1 2 3 4 5 6 
#
# 1 0.015894 -0.005057 -0.005377 0.000000 0.000000 0.000000
# 2 -0.005057 0.016664 -0.002837 0.000000 0.000000 0.000000
# 3 -0.005377 -0.002837 0.011885 0.000000 0.000000 0.000000
# 4 0.000000 0.000000 0.000000 0.038819 0.000000 0.000000
# 5 0.000000 0.000000 0.000000 0.000000 0.046205 0.000000
# 6 0.000000 0.000000 0.000000 0.000000 0.000000 0.039736
#
#
# Mechanical properties :
#
#
# Convention : Reuss Voigt Hill
#
# Bulk Modulus (GPa) = 55.86224 58.35872 57.11048
# Shear Modulus (GPa) = 24.78783 25.33769 25.06276
#
# Velocity S-wave (km/s) = 3.71626 3.75726 3.73682
# Velocity P-wave (km/s) = 7.03832 7.16501 7.10195
#
# Compressibility (1/GPa) = 0.01790118
#
# Stress axis : x y z
#
# Youngs Moduli (GPa) = 62.91721 60.01073 84.13781
#
# Poissons Ratio (x) = 0.30350 0.45239
# Poissons Ratio (y) = 0.31820 0.23866
# Poissons Ratio (z) = 0.33829 0.17022
#
# Static dielectric constant tensor:
#      x y z
#    x 4.437370 0.000000 0.000000 
#    y 0.000000 3.406250 0.000000 
#    z 0.000000 0.000000 3.209440 
# 
# 
# High freq. dielectric constant tensor:
#      x y z
#    x 1.686750 0.000000 0.000000 
#    y 0.000000 1.703790 0.000000 
#    z 0.000000 0.000000 1.677330 
# 
# From -- ./inp_files/44955.got.cif
#   From: 2010.03.12/outbox.cif.g09.slc.cpg/sg67_23_cif.got.tgz:44955.got - 2010.04.10 22:41:39.
