data_PCOD8278337
_publ_section_title
;
Structure prediction by ZEFSAII (Michael W. Deem and Ramdas Pophale) SiO2 
 PCOD8278337
Probable space group: C M M A
;
_chemical_formula_sum "Si O2"
_cell_formula_units_Z 96
_cell_length_a 18.868837
_cell_length_b 14.951586
_cell_length_c 16.386276
_cell_angle_alpha 90.000000
_cell_angle_beta 90.000000
_cell_angle_gamma 90.000000
_cell_volume 4622.880440
_symmetry_space_group_name_H-M "C M M A"
_symmetry_group_IT_number 67
_symmetry_cell_setting 'orthorhombic'
loop_
_space_group_symop_operation_xyz
x,y,z
-x,1/2-y,z
x,-y,-z
-x,1/2+y,-z
-x,-y,-z
x,1/2+y,-z
-x,y,z
x,1/2-y,z
1/2+x,1/2+y,z
1/2-x,-y,z
1/2+x,1/2-y,-z
1/2-x,y,-z
1/2-x,1/2-y,-z
1/2+x,y,-z
1/2-x,1/2+y,z
1/2+x,-y,z
loop_
_atom_site_type_symbol
_atom_site_label
_atom_site_fract_x
_atom_site_fract_y
_atom_site_fract_z
Si Si1 0.417184 0.506955 0.405304
Si Si2 0.341324 0.353701 0.323241
Si Si3 0.923691 0.855965 0.170582
Si Si4 0.345117 0.850522 0.977846
Si Si5 0.680716 0.852655 0.308566
Si Si6 0.781111 0.905277 0.869801
O O1 0.399013 0.500000 0.500000
O O2 0.500000 0.524918 0.388978
O O3 0.394359 0.408200 0.379399
O O4 0.373674 0.582681 0.355558
O O5 0.358424 0.250000 0.337689
O O6 0.360102 0.385507 0.230940
O O7 0.259486 0.375274 0.341575
O O8 0.927079 0.750000 0.170722
O O9 0.908194 0.889154 0.078751
O O10 0.000000 0.895579 0.198827
O O11 0.360463 0.750000 0.008674
O O12 0.277422 0.844748 0.915757
O O13 0.339464 0.914787 0.057259
O O14 0.660274 0.750000 0.328858
O O15 0.682418 0.862664 0.210226
O O16 0.750000 0.000000 0.844248
#
# Coordination Sequence:
#
# PCOD8278337 Si02
#       6
#    16  16  16  16  16  16
#     4  11  26  46  66  92 129 170 208 255 325 405
#     4  10  20  38  66  97 124 157 208 266 324 385
#     4   9  17  30  51  81 118 159 203 256 321 390
#     4  10  18  30  51  80 117 161 210 261 317 385
#     4  11  23  41  67  97 127 166 217 272 325 378
#     4  11  20  33  54  83 120 161 211 271 324 381
#
# _framework density 20.766275
#
# number of rings (size 3 to 8) (size 9 to 14) (size 15 to 20)
#    0.000    1.667    1.667    5.000    0.000    3.333 
#    0.000    4.167    0.000    4.000    0.000    0.000 
#    0.000    0.000    0.000    0.000    0.000    0.000 
#
# Total GULP energy -594668.733378 kJ/mol
# GULP energy per Si atom -12388.931945 kJ/mol
# Density = 2.071901 g / cm^3
# Si number density = 20.766275 Si / 1000 Ang^3
#
#
#
# Elastic Constant Matrix: (Units=GPa)
#
#
# Indices 1 2 3 4 5 6 
#
# 1 100.9177 41.2193 51.5933 0.0000 0.0000 0.0000
# 2 41.2193 86.7854 42.0011 0.0000 0.0000 0.0000
# 3 51.5933 42.0011 128.4609 0.0000 0.0000 0.0000
# 4 0.0000 0.0000 0.0000 -27.4767 0.0000 0.0000
# 5 0.0000 0.0000 0.0000 0.0000 28.5067 0.0000
# 6 0.0000 0.0000 0.0000 0.0000 0.0000 24.0718
#
#
#
# Elastic Compliance Matrix: (Units=1/GPa)
#
#
# Indices 1 2 3 4 5 6 
#
# 1 0.013874 -0.004624 -0.004060 0.000000 0.000000 0.000000
# 2 -0.004624 0.015230 -0.003122 0.000000 0.000000 0.000000
# 3 -0.004060 -0.003122 0.010436 0.000000 0.000000 0.000000
# 4 0.000000 0.000000 0.000000 -0.036394 0.000000 0.000000
# 5 0.000000 0.000000 0.000000 0.000000 0.035079 0.000000
# 6 0.000000 0.000000 0.000000 0.000000 0.000000 0.041542
#
#
# Mechanical properties :
#
#
# Convention : Reuss Voigt Hill
#
# Bulk Modulus (GPa) = 62.78974 65.08793 63.93883
# Shear Modulus (GPa) = 46.00274 17.11038 31.55656
#
# Velocity S-wave (km/s) = 4.71176 2.87357 3.90244
# Velocity P-wave (km/s) = 7.73970 6.51314 7.15276
#
# Compressibility (1/GPa) = 0.01592617
#
# Stress axis : x y z
#
# Youngs Moduli (GPa) = 72.07977 65.65921 95.82277
#
# Poissons Ratio (x) = 0.30364 0.38904
# Poissons Ratio (y) = 0.33333 0.29919
# Poissons Ratio (z) = 0.29264 0.20501
#
# Static dielectric constant tensor:
#      x y z
#    x 3.941560 0.000000 0.000000 
#    y 0.000000 3.653390 0.000000 
#    z 0.000000 0.000000 3.890230 
# 
# 
# High freq. dielectric constant tensor:
#      x y z
#    x 1.795870 0.000000 0.000000 
#    y 0.000000 1.805010 0.000000 
#    z 0.000000 0.000000 1.812390 
# 
# From -- ./inp_files/29284.got.cif
#   From: 2010.03.12/outbox.cif.g09.slc.cpg/sg67_15_cif.got.tgz:29284.got - 2010.04.10 22:41:39.
