data_PCOD8278900
_publ_section_title
;
Structure prediction by ZEFSAII (Michael W. Deem and Ramdas Pophale) SiO2 
 PCOD8278900
Probable space group: C M M A
;
_chemical_formula_sum "Si O2"
_cell_formula_units_Z 96
_cell_length_a 8.609334
_cell_length_b 27.407054
_cell_length_c 23.932683
_cell_angle_alpha 90.000000
_cell_angle_beta 90.000000
_cell_angle_gamma 90.000000
_cell_volume 5647.071682
_symmetry_space_group_name_H-M "C M M A"
_symmetry_group_IT_number 67
_symmetry_cell_setting 'orthorhombic'
loop_
_space_group_symop_operation_xyz
x,y,z
-x,1/2-y,z
x,-y,-z
-x,1/2+y,-z
-x,-y,-z
x,1/2+y,-z
-x,y,z
x,1/2-y,z
1/2+x,1/2+y,z
1/2-x,-y,z
1/2+x,1/2-y,-z
1/2-x,y,-z
1/2-x,1/2-y,-z
1/2+x,y,-z
1/2-x,1/2+y,z
1/2+x,-y,z
loop_
_atom_site_type_symbol
_atom_site_label
_atom_site_fract_x
_atom_site_fract_y
_atom_site_fract_z
Si Si1 0.183852 0.694238 0.942213
Si Si2 0.682652 0.854071 0.168400
Si Si3 0.316364 0.051723 0.768120
Si Si4 0.682549 0.604461 0.662391
Si Si5 0.182667 0.694315 0.719270
Si Si6 0.316365 0.552291 0.440306
O O1 0.238846 0.750000 0.934167
O O2 0.255314 0.662758 0.890755
O O3 0.000000 0.690634 0.944191
O O4 0.250000 0.672614 0.000000
O O5 0.500000 0.849192 0.162738
O O6 0.730329 0.909502 0.183661
O O7 0.738653 0.818050 0.217830
O O8 0.500000 0.049241 0.759858
O O9 0.242228 0.067471 0.709636
O O10 0.250000 0.000000 0.787607
O O11 0.500000 0.598176 0.655813
O O12 0.724952 0.660300 0.676313
O O13 0.765544 0.592428 0.604365
O O14 0.223466 0.750000 0.705352
O O15 0.000000 0.683312 0.713310
O O16 0.500000 0.548720 0.444049
O O17 0.250000 0.500000 0.421823
O O18 0.250000 0.568564 0.500000
#
# Coordination Sequence:
#
# PCOD8278900 Si02
#       6
#    16  16  16  16  16  16
#     4   9  16  27  44  66  91 119 151 188 231 279
#     4   8  15  28  47  68  91 122 157 191 231 283
#     4  10  19  32  49  70  94 122 157 196 239 284
#     4  11  21  33  49  72 101 131 161 194 235 281
#     4   9  17  31  51  73  96 125 161 199 239 283
#     4  11  21  35  53  75 101 129 162 198 239 283
#
# _framework density 16.999960999999999
#
# number of rings (size 3 to 8) (size 9 to 14) (size 15 to 20)
#    0.000    2.333    0.000    6.000    0.000    2.333 
#    0.000    4.167    0.000    5.000    0.000    3.500 
#    0.000    0.000    0.000    0.000    0.000    0.000 
#
# Total GULP energy -595174.505290 kJ/mol
# GULP energy per Si atom -12399.468860 kJ/mol
# Density = 1.696127 g / cm^3
# Si number density = 16.999961 Si / 1000 Ang^3
#
#
#
# Elastic Constant Matrix: (Units=GPa)
#
#
# Indices 1 2 3 4 5 6 
#
# 1 83.3142 33.7114 38.9846 0.0000 0.0000 0.0000
# 2 33.7114 105.1106 65.0162 0.0000 0.0000 0.0000
# 3 38.9846 65.0162 137.3732 0.0000 0.0000 0.0000
# 4 0.0000 0.0000 0.0000 26.2298 0.0000 0.0000
# 5 0.0000 0.0000 0.0000 0.0000 24.4351 0.0000
# 6 0.0000 0.0000 0.0000 0.0000 0.0000 25.4658
#
#
#
# Elastic Compliance Matrix: (Units=1/GPa)
#
#
# Indices 1 2 3 4 5 6 
#
# 1 0.014468 -0.002970 -0.002700 0.000000 0.000000 0.000000
# 2 -0.002970 0.014061 -0.005812 0.000000 0.000000 0.000000
# 3 -0.002700 -0.005812 0.010796 0.000000 0.000000 0.000000
# 4 0.000000 0.000000 0.000000 0.038125 0.000000 0.000000
# 5 0.000000 0.000000 0.000000 0.000000 0.040925 0.000000
# 6 0.000000 0.000000 0.000000 0.000000 0.000000 0.039268
#
#
# Mechanical properties :
#
#
# Convention : Reuss Voigt Hill
#
# Bulk Modulus (GPa) = 61.12010 66.80247 63.96129
# Shear Modulus (GPa) = 26.87276 27.76520 27.31898
#
# Velocity S-wave (km/s) = 3.98018 4.04573 4.01309
# Velocity P-wave (km/s) = 7.56000 7.82336 7.69281
#
# Compressibility (1/GPa) = 0.01636123
#
# Stress axis : x y z
#
# Youngs Moduli (GPa) = 69.11811 71.11627 92.62263
#
# Poissons Ratio (x) = 0.21122 0.25009
# Poissons Ratio (y) = 0.20528 0.53834
# Poissons Ratio (z) = 0.18663 0.41334
#
# Static dielectric constant tensor:
#      x y z
#    x 3.074230 0.000000 0.000000 
#    y 0.000000 3.192980 0.000000 
#    z 0.000000 0.000000 3.319040 
# 
# 
# High freq. dielectric constant tensor:
#      x y z
#    x 1.650040 0.000000 0.000000 
#    y 0.000000 1.645750 0.000000 
#    z 0.000000 0.000000 1.649930 
# 
# From -- ./inp_files/40929.got.cif
#   From: 2010.03.12/outbox.cif.g09.slc.cpg/sg67_21_cif.got.tgz:40929.got - 2010.04.10 22:41:39.
