data_PCOD8278085
_publ_section_title
;
Structure prediction by ZEFSAII (Michael W. Deem and Ramdas Pophale) SiO2 
 PCOD8278085
Probable space group: C M M A
;
_chemical_formula_sum "Si O2"
_cell_formula_units_Z 104
_cell_length_a 25.750073
_cell_length_b 8.870397
_cell_length_c 27.341908
_cell_angle_alpha 90.000000
_cell_angle_beta 90.000000
_cell_angle_gamma 90.000000
_cell_volume 6245.257356
_symmetry_space_group_name_H-M "C M M A"
_symmetry_group_IT_number 67
_symmetry_cell_setting 'orthorhombic'
loop_
_space_group_symop_operation_xyz
x,y,z
-x,1/2-y,z
x,-y,-z
-x,1/2+y,-z
-x,-y,-z
x,1/2+y,-z
-x,y,z
x,1/2-y,z
1/2+x,1/2+y,z
1/2-x,-y,z
1/2+x,1/2-y,-z
1/2-x,y,-z
1/2-x,1/2-y,-z
1/2+x,y,-z
1/2-x,1/2+y,z
1/2+x,-y,z
loop_
_atom_site_type_symbol
_atom_site_label
_atom_site_fract_x
_atom_site_fract_y
_atom_site_fract_z
Si Si1 0.899408 0.925565 0.778113
Si Si2 0.000000 0.075702 0.285378
Si Si3 0.092161 0.570574 0.552471
Si Si4 0.802945 0.928379 0.715149
Si Si5 0.557365 0.418424 0.132319
Si Si6 0.697264 0.427115 0.604054
Si Si7 0.000000 0.428273 0.612147
Si Si8 0.000000 0.071925 0.052867
O O1 0.894485 0.750000 0.789282
O O2 0.949620 0.960971 0.746179
O O3 0.849672 0.987636 0.748860
O O4 0.902041 0.008390 0.830244
O O5 0.000000 0.250000 0.303078
O O6 0.000000 0.963177 0.330675
O O7 0.081393 0.500000 0.500000
O O8 0.085725 0.750000 0.550509
O O9 0.149310 0.521933 0.570491
O O10 0.051027 0.502813 0.589704
O O11 0.798692 0.750000 0.717584
O O12 0.813283 0.982374 0.659516
O O13 0.750000 0.000000 0.735447
O O14 0.500000 0.414027 0.157357
O O15 0.576366 0.250000 0.119100
O O16 0.551750 0.515803 0.082179
O O17 0.704676 0.250000 0.602478
O O18 0.750000 0.500000 0.583068
O O19 0.000000 0.250000 0.602753
O O20 0.000000 0.250000 0.048690
O O21 0.000000 0.000000 0.000000
#
# Coordination Sequence:
#
# PCOD8278085 Si02
#       8
#    16   8  16  16  16  16   8   8
#     4  10  18  30  50  71  97 133 169 201 241 293
#     4  10  19  32  51  73  97 126 158 196 241 288
#     4  11  23  40  58  75  97 124 153 188 234 286
#     4   9  18  32  49  71  95 126 164 196 235 284
#     4   9  18  29  42  66  99 131 166 206 247 289
#     4   9  19  36  57  77  99 124 153 193 237 285
#     4  12  25  38  53  74  98 125 159 196 233 280
#     4  10  17  28  45  65  95 135 175 212 253 298
#
# _framework density 16.652636000000001
#
# number of rings (size 3 to 8) (size 9 to 14) (size 15 to 20)
#    0.462    1.692    0.769    3.231    0.000    5.231 
#    0.000    4.615    0.000    0.000    0.000    0.000 
#    0.000    0.615    0.000    6.462    0.000    3.538 
#
# Total GULP energy -644713.803304 kJ/mol
# GULP energy per Si atom -12398.342371 kJ/mol
# Density = 1.661473 g / cm^3
# Si number density = 16.652636 Si / 1000 Ang^3
#
#
#
# Elastic Constant Matrix: (Units=GPa)
#
#
# Indices 1 2 3 4 5 6 
#
# 1 85.5694 31.6145 26.5900 0.0000 0.0000 0.0000
# 2 31.6145 80.5038 40.1048 0.0000 0.0000 0.0000
# 3 26.5900 40.1048 83.0329 0.0000 0.0000 0.0000
# 4 0.0000 0.0000 0.0000 30.4253 0.0000 0.0000
# 5 0.0000 0.0000 0.0000 0.0000 92.3236 0.0000
# 6 0.0000 0.0000 0.0000 0.0000 0.0000 26.2097
#
#
#
# Elastic Compliance Matrix: (Units=1/GPa)
#
#
# Indices 1 2 3 4 5 6 
#
# 1 0.014027 -0.004307 -0.002412 0.000000 0.000000 0.000000
# 2 -0.004307 0.017680 -0.007160 0.000000 0.000000 0.000000
# 3 -0.002412 -0.007160 0.016274 0.000000 0.000000 0.000000
# 4 0.000000 0.000000 0.000000 0.032867 0.000000 0.000000
# 5 0.000000 0.000000 0.000000 0.000000 0.010831 0.000000
# 6 0.000000 0.000000 0.000000 0.000000 0.000000 0.038154
#
#
# Mechanical properties :
#
#
# Convention : Reuss Voigt Hill
#
# Bulk Modulus (GPa) = 49.44760 49.52499 49.48629
# Shear Modulus (GPa) = 30.42594 39.84483 35.13539
#
# Velocity S-wave (km/s) = 4.27909 4.89683 4.59835
# Velocity P-wave (km/s) = 7.36017 7.85981 7.61409
#
# Compressibility (1/GPa) = 0.02022343
#
# Stress axis : x y z
#
# Youngs Moduli (GPa) = 71.29034 56.56020 61.44740
#
# Poissons Ratio (x) = 0.24361 0.14819
# Poissons Ratio (y) = 0.30706 0.43998
# Poissons Ratio (z) = 0.17193 0.40498
#
# Static dielectric constant tensor:
#      x y z
#    x 3.133360 0.000000 0.000000 
#    y 0.000000 3.126110 0.000000 
#    z 0.000000 0.000000 2.988200 
# 
# 
# High freq. dielectric constant tensor:
#      x y z
#    x 1.626930 0.000000 0.000000 
#    y 0.000000 1.646450 0.000000 
#    z 0.000000 0.000000 1.626560 
# 
# From -- ./inp_files/44981.got.cif
#   From: 2010.03.12/outbox.cif.g09.slc.cpg/sg67_23_cif.got.tgz:44981.got - 2010.04.10 22:41:39.
