data_PCOD8278334
_publ_section_title
;
Structure prediction by ZEFSAII (Michael W. Deem and Ramdas Pophale) SiO2 
 PCOD8278334
Probable space group: C M M A
;
_chemical_formula_sum "Si O2"
_cell_formula_units_Z 96
_cell_length_a 18.504854
_cell_length_b 18.765919
_cell_length_c 15.178859
_cell_angle_alpha 90.000000
_cell_angle_beta 90.000000
_cell_angle_gamma 90.000000
_cell_volume 5271.019551
_symmetry_space_group_name_H-M "C M M A"
_symmetry_group_IT_number 67
_symmetry_cell_setting 'orthorhombic'
loop_
_space_group_symop_operation_xyz
x,y,z
-x,1/2-y,z
x,-y,-z
-x,1/2+y,-z
-x,-y,-z
x,1/2+y,-z
-x,y,z
x,1/2-y,z
1/2+x,1/2+y,z
1/2-x,-y,z
1/2+x,1/2-y,-z
1/2-x,y,-z
1/2-x,1/2-y,-z
1/2+x,y,-z
1/2-x,1/2+y,z
1/2+x,-y,z
loop_
_atom_site_type_symbol
_atom_site_label
_atom_site_fract_x
_atom_site_fract_y
_atom_site_fract_z
Si Si1 0.916473 0.949671 0.079261
Si Si2 0.716995 0.828675 0.595861
Si Si3 0.332165 0.022191 0.401897
Si Si4 0.308728 0.330292 0.764877
Si Si5 0.799253 0.667563 0.083058
Si Si6 0.916318 0.546428 0.754022
O O1 0.872590 0.876673 0.077942
O O2 0.000000 0.929329 0.066843
O O3 0.901879 0.988853 0.170868
O O4 0.890008 0.000000 0.000000
O O5 0.680356 0.750000 0.605188
O O6 0.750000 0.839596 0.500000
O O7 0.659380 0.891992 0.610307
O O8 0.782540 0.835919 0.664445
O O9 0.353937 0.000000 0.500000
O O10 0.250000 0.000000 0.379465
O O11 0.387294 0.984112 0.337385
O O12 0.333233 0.250000 0.788480
O O13 0.243342 0.353768 0.828411
O O14 0.377099 0.380484 0.780202
O O15 0.821850 0.750000 0.083690
O O16 0.750000 0.648633 0.000000
O O17 0.000000 0.564696 0.743416
#
# Coordination Sequence:
#
# PCOD8278334 Si02
#       6
#    16  16  16  16  16  16
#     4  10  22  38  55  79 111 145 182 223 273 326
#     4  10  18  30  51  79 106 134 175 221 264 315
#     4  11  19  34  56  81 107 142 183 223 270 326
#     4  10  20  34  53  78 107 140 177 222 271 321
#     4  10  21  36  56  83 108 137 182 227 268 320
#     4  11  23  36  54  80 109 143 182 225 273 326
#
# _framework density 18.212795
#
# number of rings (size 3 to 8) (size 9 to 14) (size 15 to 20)
#    0.000    1.667    3.333    2.000    0.000    2.667 
#    0.000    0.000    0.000    7.500    0.000    0.000 
#    0.000    0.000    0.000    0.000    0.000    0.000 
#
# Total GULP energy -595299.244138 kJ/mol
# GULP energy per Si atom -12402.067586 kJ/mol
# Density = 1.817134 g / cm^3
# Si number density = 18.212795 Si / 1000 Ang^3
#
#
#
# Elastic Constant Matrix: (Units=GPa)
#
#
# Indices 1 2 3 4 5 6 
#
# 1 95.8558 71.2355 49.4814 0.0000 0.0000 0.0000
# 2 71.2355 136.5938 29.9425 0.0000 0.0000 0.0000
# 3 49.4814 29.9425 101.8017 0.0000 0.0000 0.0000
# 4 0.0000 0.0000 0.0000 18.4977 0.0000 0.0000
# 5 0.0000 0.0000 0.0000 0.0000 23.7956 0.0000
# 6 0.0000 0.0000 0.0000 0.0000 0.0000 25.1903
#
#
#
# Elastic Compliance Matrix: (Units=1/GPa)
#
#
# Indices 1 2 3 4 5 6 
#
# 1 0.021430 -0.009506 -0.007620 0.000000 0.000000 0.000000
# 2 -0.009506 0.012042 0.001078 0.000000 0.000000 0.000000
# 3 -0.007620 0.001078 0.013210 0.000000 0.000000 0.000000
# 4 0.000000 0.000000 0.000000 0.054061 0.000000 0.000000
# 5 0.000000 0.000000 0.000000 0.000000 0.042025 0.000000
# 6 0.000000 0.000000 0.000000 0.000000 0.000000 0.039698
#
#
# Mechanical properties :
#
#
# Convention : Reuss Voigt Hill
#
# Bulk Modulus (GPa) = 68.55607 70.61891 69.58749
# Shear Modulus (GPa) = 22.78706 25.73618 24.26162
#
# Velocity S-wave (km/s) = 3.54101 3.76318 3.65378
# Velocity P-wave (km/s) = 7.37846 7.59872 7.48940
#
# Compressibility (1/GPa) = 0.01458660
#
# Stress axis : x y z
#
# Youngs Moduli (GPa) = 46.66302 83.04325 75.70150
#
# Poissons Ratio (x) = 0.78938 0.57688
# Poissons Ratio (y) = 0.44356 -0.08164
# Poissons Ratio (z) = 0.35559 -0.08956
#
# Static dielectric constant tensor:
#      x y z
#    x 3.020670 0.000000 0.000000 
#    y 0.000000 3.643990 0.000000 
#    z 0.000000 0.000000 3.550310 
# 
# 
# High freq. dielectric constant tensor:
#      x y z
#    x 1.668020 0.000000 0.000000 
#    y 0.000000 1.721770 0.000000 
#    z 0.000000 0.000000 1.728290 
# 
# From -- ./inp_files/27134.got.cif
#   From: 2010.03.12/outbox.cif.g09.slc.cpg/sg67_14_cif.got.tgz:27134.got - 2010.04.10 22:41:39.
