data_PCOD8278561
_publ_section_title
;
Structure prediction by ZEFSAII (Michael W. Deem and Ramdas Pophale) SiO2 
 PCOD8278561
Probable space group: C M M A
;
_chemical_formula_sum "Si O2"
_cell_formula_units_Z 60
_cell_length_a 22.010540
_cell_length_b 13.717510
_cell_length_c 9.966520
_cell_angle_alpha 90.000000
_cell_angle_beta 90.000000
_cell_angle_gamma 90.000000
_cell_volume 3009.189416
_symmetry_space_group_name_H-M "C M M A"
_symmetry_group_IT_number 67
_symmetry_cell_setting 'orthorhombic'
loop_
_space_group_symop_operation_xyz
x,y,z
-x,1/2-y,z
x,-y,-z
-x,1/2+y,-z
-x,-y,-z
x,1/2+y,-z
-x,y,z
x,1/2-y,z
1/2+x,1/2+y,z
1/2-x,-y,z
1/2+x,1/2-y,-z
1/2-x,y,-z
1/2-x,1/2-y,-z
1/2+x,y,-z
1/2-x,1/2+y,z
1/2+x,-y,z
loop_
_atom_site_type_symbol
_atom_site_label
_atom_site_fract_x
_atom_site_fract_y
_atom_site_fract_z
Si Si1 0.863106 0.750000 0.724813
Si Si2 0.877426 0.428025 0.875538
Si Si3 0.000000 0.889377 0.032690
Si Si4 0.000000 0.250000 0.211147
Si Si5 0.818826 0.750000 0.023639
Si Si6 0.182517 0.961920 0.648140
O O1 0.828676 0.655183 0.661144
O O2 0.937147 0.750000 0.699039
O O3 0.857550 0.750000 0.886310
O O4 0.940813 0.367226 0.877865
O O5 0.827228 0.345494 0.886866
O O6 0.868328 0.488049 0.740298
O O7 0.872229 0.500000 0.000000
O O8 0.000000 0.842037 0.886729
O O9 0.000000 0.000000 0.000000
O O10 0.750000 0.750000 0.000000
O O11 0.169053 0.000000 0.500000
O O12 0.250000 0.000000 0.691278
#
# Coordination Sequence:
#
# PCOD8278561 Si02
#       6
#     8  16   8   4   8  16
#     4  12  22  44  67  95 133 179 224 269 346 397
#     4  11  21  37  61  93 123 162 221 267 325 386
#     4  10  18  34  58  89 126 159 205 266 323 377
#     4  12  20  40  66 104 134 180 210 276 350 394
#     4  12  22  33  62  94 127 162 208 282 320 384
#     4  11  26  44  65  94 138 183 222 274 337 404
#
# _framework density 19.938924
#
# number of rings (size 3 to 8) (size 9 to 14) (size 15 to 20)
#    0.000    0.800    5.333    3.200    0.000    3.200 
#    0.000    2.667    0.000    0.000    0.000    0.000 
#    0.000    0.000    0.000    0.000    0.000    0.000 
#
# Total GULP energy -371697.005367 kJ/mol
# GULP energy per Si atom -12389.900179 kJ/mol
# Density = 1.989354 g / cm^3
# Si number density = 19.938924 Si / 1000 Ang^3
#
#
#
# Elastic Constant Matrix: (Units=GPa)
#
#
# Indices 1 2 3 4 5 6 
#
# 1 137.6326 49.1672 19.2609 0.0000 0.0000 0.0000
# 2 49.1672 159.2107 39.0363 0.0000 0.0000 0.0000
# 3 19.2609 39.0363 92.2544 0.0000 0.0000 0.0000
# 4 0.0000 0.0000 0.0000 26.8200 0.0000 0.0000
# 5 0.0000 0.0000 0.0000 0.0000 7.4467 0.0000
# 6 0.0000 0.0000 0.0000 0.0000 0.0000 30.1092
#
#
#
# Elastic Compliance Matrix: (Units=1/GPa)
#
#
# Indices 1 2 3 4 5 6 
#
# 1 0.008209 -0.002360 -0.000715 0.000000 0.000000 0.000000
# 2 -0.002360 0.007686 -0.002760 0.000000 0.000000 0.000000
# 3 -0.000715 -0.002760 0.012157 0.000000 0.000000 0.000000
# 4 0.000000 0.000000 0.000000 0.037286 0.000000 0.000000
# 5 0.000000 0.000000 0.000000 0.000000 0.134287 0.000000
# 6 0.000000 0.000000 0.000000 0.000000 0.000000 0.033212
#
#
# Mechanical properties :
#
#
# Convention : Reuss Voigt Hill
#
# Bulk Modulus (GPa) = 61.04140 67.11405 64.07773
# Shear Modulus (GPa) = 20.00264 31.65075 25.82669
#
# Velocity S-wave (km/s) = 3.17076 3.98852 3.60292
# Velocity P-wave (km/s) = 6.63970 7.41242 7.03668
#
# Compressibility (1/GPa) = 0.01638232
#
# Stress axis : x y z
#
# Youngs Moduli (GPa) = 121.82088 130.10114 82.25922
#
# Poissons Ratio (x) = 0.30699 0.05885
# Poissons Ratio (y) = 0.28745 0.22701
# Poissons Ratio (z) = 0.08715 0.35904
#
# Static dielectric constant tensor:
#      x y z
#    x -4.446800 0.000000 0.000000 
#    y 0.000000 4.021390 0.000000 
#    z 0.000000 0.000000 3.292640 
# 
# 
# High freq. dielectric constant tensor:
#      x y z
#    x 1.794380 0.000000 0.000000 
#    y 0.000000 1.802060 0.000000 
#    z 0.000000 0.000000 1.738120 
# 
# From -- ./inp_files/7934.got.cif
#   From: 2010.03.12/outbox.cif.g09.slc.cpg/sg67_4_cif.got.tgz:7934.got - 2010.04.10 22:41:39.
