data_PCOD8278443
_publ_section_title
;
Structure prediction by ZEFSAII (Michael W. Deem and Ramdas Pophale) SiO2 
 PCOD8278443
Probable space group: C M M A
;
_chemical_formula_sum "Si O2"
_cell_formula_units_Z 112
_cell_length_a 26.487611
_cell_length_b 17.808105
_cell_length_c 13.189645
_cell_angle_alpha 90.000000
_cell_angle_beta 90.000000
_cell_angle_gamma 90.000000
_cell_volume 6221.478491
_symmetry_space_group_name_H-M "C M M A"
_symmetry_group_IT_number 67
_symmetry_cell_setting 'orthorhombic'
loop_
_space_group_symop_operation_xyz
x,y,z
-x,1/2-y,z
x,-y,-z
-x,1/2+y,-z
-x,-y,-z
x,1/2+y,-z
-x,y,z
x,1/2-y,z
1/2+x,1/2+y,z
1/2-x,-y,z
1/2+x,1/2-y,-z
1/2-x,y,-z
1/2-x,1/2-y,-z
1/2+x,y,-z
1/2-x,1/2+y,z
1/2+x,-y,z
loop_
_atom_site_type_symbol
_atom_site_label
_atom_site_fract_x
_atom_site_fract_y
_atom_site_fract_z
Si Si1 0.052865 0.057473 0.908059
Si Si2 0.158691 0.583057 0.046563
Si Si3 0.290841 0.436757 0.254899
Si Si4 0.140185 0.833637 0.857581
Si Si5 0.859020 0.037192 0.393036
Si Si6 0.790083 0.663913 0.663949
Si Si7 0.557446 0.069669 0.756748
O O1 0.102339 0.107977 0.917971
O O2 0.000000 0.104648 0.909155
O O3 0.055407 0.013413 0.801783
O O4 0.051143 0.000000 0.000000
O O5 0.193768 0.593219 0.144007
O O6 0.161209 0.500000 0.000000
O O7 0.171955 0.639173 0.955612
O O8 0.250000 0.500000 0.235215
O O9 0.336881 0.474511 0.315947
O O10 0.266707 0.367454 0.318454
O O11 0.121304 0.750000 0.874174
O O12 0.180117 0.840586 0.768442
O O13 0.089224 0.880257 0.836591
O O14 0.820139 0.107191 0.411143
O O15 0.912330 0.067662 0.349762
O O16 0.870034 0.000000 0.500000
O O17 0.787820 0.750000 0.622180
O O18 0.500000 0.100969 0.740552
#
# Coordination Sequence:
#
# PCOD8278443 Si02
#       7
#    16  16  16  16  16  16  16
#     4   9  15  25  46  71  95 126 166 202 242 296
#     4  11  17  29  47  71 101 138 179 212 253 301
#     4  10  20  32  49  73 101 136 178 220 260 302
#     4  10  20  32  47  74 109 141 171 208 248 296
#     4  10  20  36  55  79 103 127 165 224 270 303
#     4   9  20  37  53  72 103 138 171 206 255 310
#     4  10  18  32  52  75 103 133 164 206 257 307
#
# _framework density 18.002151999999999
#
# number of rings (size 3 to 8) (size 9 to 14) (size 15 to 20)
#    0.000    2.143    4.286    1.714    0.000    5.714 
#    0.000    2.857    0.000    0.000    0.000    0.000 
#    0.000    1.714    0.000    0.000    0.000    0.000 
#
# Total GULP energy -693856.673958 kJ/mol
# GULP energy per Si atom -12390.297749 kJ/mol
# Density = 1.796118 g / cm^3
# Si number density = 18.002152 Si / 1000 Ang^3
#
#
#
# Elastic Constant Matrix: (Units=GPa)
#
#
# Indices 1 2 3 4 5 6 
#
# 1 69.7277 8.8513 13.8918 0.0000 0.0000 0.0000
# 2 8.8513 65.0876 16.9526 0.0000 0.0000 0.0000
# 3 13.8918 16.9526 76.7911 0.0000 0.0000 0.0000
# 4 0.0000 0.0000 0.0000 17.6506 0.0000 0.0000
# 5 0.0000 0.0000 0.0000 0.0000 23.0777 0.0000
# 6 0.0000 0.0000 0.0000 0.0000 0.0000 15.6585
#
#
#
# Elastic Compliance Matrix: (Units=1/GPa)
#
#
# Indices 1 2 3 4 5 6 
#
# 1 0.014999 -0.001414 -0.002401 0.000000 0.000000 0.000000
# 2 -0.001414 0.016435 -0.003372 0.000000 0.000000 0.000000
# 3 -0.002401 -0.003372 0.014201 0.000000 0.000000 0.000000
# 4 0.000000 0.000000 0.000000 0.056655 0.000000 0.000000
# 5 0.000000 0.000000 0.000000 0.000000 0.043332 0.000000
# 6 0.000000 0.000000 0.000000 0.000000 0.000000 0.063863
#
#
# Mechanical properties :
#
#
# Convention : Reuss Voigt Hill
#
# Bulk Modulus (GPa) = 31.99026 32.33308 32.16167
# Shear Modulus (GPa) = 21.34187 22.73806 22.03997
#
# Velocity S-wave (km/s) = 3.44687 3.55783 3.50279
# Velocity P-wave (km/s) = 5.80087 5.90569 5.85351
#
# Compressibility (1/GPa) = 0.03125952
#
# Stress axis : x y z
#
# Youngs Moduli (GPa) = 66.66916 60.84725 70.41653
#
# Poissons Ratio (x) = 0.08606 0.16909
# Poissons Ratio (y) = 0.09429 0.23746
# Poissons Ratio (z) = 0.16009 0.20519
#
# Static dielectric constant tensor:
#      x y z
#    x 3.722620 0.000000 0.000000 
#    y 0.000000 3.371620 0.000000 
#    z 0.000000 0.000000 3.139780 
# 
# 
# High freq. dielectric constant tensor:
#      x y z
#    x 1.703570 0.000000 0.000000 
#    y 0.000000 1.658550 0.000000 
#    z 0.000000 0.000000 1.681910 
# 
# From -- ./inp_files/23103.got.cif
#   From: 2010.03.12/outbox.cif.g09.slc.cpg/sg67_12_cif.got.tgz:23103.got - 2010.04.10 22:41:39.
