data_PCOD8278578
_publ_section_title
;
Structure prediction by ZEFSAII (Michael W. Deem and Ramdas Pophale) SiO2 
 PCOD8278578
Probable space group: C M M A
;
_chemical_formula_sum "Si O2"
_cell_formula_units_Z 76
_cell_length_a 23.315380
_cell_length_b 11.868959
_cell_length_c 14.358877
_cell_angle_alpha 90.000000
_cell_angle_beta 90.000000
_cell_angle_gamma 90.000000
_cell_volume 3973.521827
_symmetry_space_group_name_H-M "C M M A"
_symmetry_group_IT_number 67
_symmetry_cell_setting 'orthorhombic'
loop_
_space_group_symop_operation_xyz
x,y,z
-x,1/2-y,z
x,-y,-z
-x,1/2+y,-z
-x,-y,-z
x,1/2+y,-z
-x,y,z
x,1/2-y,z
1/2+x,1/2+y,z
1/2-x,-y,z
1/2+x,1/2-y,-z
1/2-x,y,-z
1/2-x,1/2-y,-z
1/2+x,y,-z
1/2-x,1/2+y,z
1/2+x,-y,z
loop_
_atom_site_type_symbol
_atom_site_label
_atom_site_fract_x
_atom_site_fract_y
_atom_site_fract_z
Si Si1 0.000000 0.750000 0.598128
Si Si2 0.380030 0.250000 0.620897
Si Si3 0.500000 0.499985 0.387859
Si Si4 0.931749 0.517098 0.894880
Si Si5 0.398774 0.116321 0.279918
Si Si6 0.317331 0.018786 0.603020
Si Si7 0.932922 0.250000 0.180491
O O1 0.935256 0.750000 0.546096
O O2 0.000000 0.628155 0.651712
O O3 0.337496 0.145186 0.624146
O O4 0.419796 0.250000 0.711499
O O5 0.500000 0.500000 0.500000
O O6 0.554664 0.436587 0.348468
O O7 0.905784 0.422055 0.827043
O O8 0.906634 0.638536 0.866211
O O9 0.000000 0.509185 0.886367
O O10 0.910621 0.500000 0.000000
O O11 0.401331 0.250000 0.283174
O O12 0.339165 0.071383 0.321478
O O13 0.342165 0.000000 0.500000
O O14 0.250000 0.000000 0.604712
O O15 0.000000 0.250000 0.162679
#
# Coordination Sequence:
#
# PCOD8278578 Si02
#       7
#     4   8   8  16  16  16   8
#     4  12  22  36  64  90 122 162 220 248 316 382
#     4  12  22  41  68  87 128 165 219 266 310 388
#     4  12  25  38  58  91 129 172 203 250 322 383
#     4  10  21  37  60  93 128 169 205 253 324 392
#     4  12  25  41  61  92 132 163 208 264 323 381
#     4  11  27  44  64  91 122 172 223 268 315 367
#     4  10  18  36  61  90 126 159 209 254 307 385
#
# _framework density 19.126608000000001
#
# number of rings (size 3 to 8) (size 9 to 14) (size 15 to 20)
#    0.000    0.842    5.789    0.947    5.895    0.842 
#    0.000    0.000    0.000    0.632    0.000    2.947 
#    0.000    0.000    0.000    0.000    0.000    0.000 
#
# Total GULP energy -470784.773494 kJ/mol
# GULP energy per Si atom -12389.072987 kJ/mol
# Density = 1.908308 g / cm^3
# Si number density = 19.126608 Si / 1000 Ang^3
#
#
#
# Elastic Constant Matrix: (Units=GPa)
#
#
# Indices 1 2 3 4 5 6 
#
# 1 80.2063 45.4535 24.7346 0.0000 0.0000 0.0000
# 2 45.4535 202.7403 56.4980 0.0000 0.0000 0.0000
# 3 24.7346 56.4980 140.8303 0.0000 0.0000 0.0000
# 4 0.0000 0.0000 0.0000 24.3514 0.0000 0.0000
# 5 0.0000 0.0000 0.0000 0.0000 10.8131 0.0000
# 6 0.0000 0.0000 0.0000 0.0000 0.0000 80.5651
#
#
#
# Elastic Compliance Matrix: (Units=1/GPa)
#
#
# Indices 1 2 3 4 5 6 
#
# 1 0.014524 -0.002866 -0.001401 0.000000 0.000000 0.000000
# 2 -0.002866 0.006119 -0.001951 0.000000 0.000000 0.000000
# 3 -0.001401 -0.001951 0.008130 0.000000 0.000000 0.000000
# 4 0.000000 0.000000 0.000000 0.041065 0.000000 0.000000
# 5 0.000000 0.000000 0.000000 0.000000 0.092481 0.000000
# 6 0.000000 0.000000 0.000000 0.000000 0.000000 0.012412
#
#
# Mechanical properties :
#
#
# Convention : Reuss Voigt Hill
#
# Bulk Modulus (GPa) = 61.21555 75.23878 68.22716
# Shear Modulus (GPa) = 25.95883 42.95197 34.45540
#
# Velocity S-wave (km/s) = 3.68803 4.74399 4.24894
# Velocity P-wave (km/s) = 7.08593 8.33246 7.73435
#
# Compressibility (1/GPa) = 0.01633572
#
# Stress axis : x y z
#
# Youngs Moduli (GPa) = 68.85155 163.43362 123.00583
#
# Poissons Ratio (x) = 0.46836 0.17236
# Poissons Ratio (y) = 0.19731 0.24003
# Poissons Ratio (z) = 0.09648 0.31892
#
# Static dielectric constant tensor:
#      x y z
#    x 3.428160 0.000000 0.000000 
#    y 0.000000 3.670260 0.000000 
#    z 0.000000 0.000000 3.588130 
# 
# 
# High freq. dielectric constant tensor:
#      x y z
#    x 1.718130 0.000000 0.000000 
#    y 0.000000 1.768430 0.000000 
#    z 0.000000 0.000000 1.734410 
# 
# From -- ./inp_files/29912.got.cif
#   From: 2010.03.12/outbox.cif.g09.slc.cpg/sg67_15_cif.got.tgz:29912.got - 2010.04.10 22:41:39.
