data_PCOD8278976
_publ_section_title
;
Structure prediction by ZEFSAII (Michael W. Deem and Ramdas Pophale) SiO2 
 PCOD8278976
Probable space group: C M M A
;
_chemical_formula_sum "Si O2"
_cell_formula_units_Z 120
_cell_length_a 26.412322
_cell_length_b 8.728869
_cell_length_c 28.117069
_cell_angle_alpha 90.000000
_cell_angle_beta 90.000000
_cell_angle_gamma 90.000000
_cell_volume 6482.381787
_symmetry_space_group_name_H-M "C M M A"
_symmetry_group_IT_number 67
_symmetry_cell_setting 'orthorhombic'
loop_
_space_group_symop_operation_xyz
x,y,z
-x,1/2-y,z
x,-y,-z
-x,1/2+y,-z
-x,-y,-z
x,1/2+y,-z
-x,y,z
x,1/2-y,z
1/2+x,1/2+y,z
1/2-x,-y,z
1/2+x,1/2-y,-z
1/2-x,y,-z
1/2-x,1/2-y,-z
1/2+x,y,-z
1/2-x,1/2+y,z
1/2+x,-y,z
loop_
_atom_site_type_symbol
_atom_site_label
_atom_site_fract_x
_atom_site_fract_y
_atom_site_fract_z
Si Si1 0.603119 0.070313 0.140818
Si Si2 0.060016 0.422858 0.047997
Si Si3 0.801496 0.569670 0.816422
Si Si4 0.804287 0.931614 0.380900
Si Si5 0.658246 0.068185 0.278227
Si Si6 0.554758 0.930686 0.761480
Si Si7 0.500000 0.927721 0.449185
Si Si8 0.110193 0.931512 0.552541
O O1 0.614336 0.250000 0.141806
O O2 0.566474 0.022210 0.184181
O O3 0.577716 0.024670 0.091796
O O4 0.655474 0.981059 0.146917
O O5 0.081153 0.250000 0.052121
O O6 0.000000 0.421975 0.047095
O O7 0.081410 0.500000 0.000000
O O8 0.798131 0.750000 0.814112
O O9 0.750000 0.500000 0.836994
O O10 0.809313 0.506976 0.763238
O O11 0.801514 0.750000 0.384225
O O12 0.819407 0.987647 0.328201
O O13 0.750000 0.000000 0.395209
O O14 0.846865 0.991238 0.416219
O O15 0.661494 0.250000 0.272205
O O16 0.599593 0.011555 0.273386
O O17 0.500000 0.003084 0.747124
O O18 0.551037 0.750000 0.757570
O O19 0.500000 0.750000 0.458571
O O20 0.445944 0.971728 0.424475
O O21 0.500000 0.000000 0.500000
O O22 0.119251 0.750000 0.550677
O O23 0.114280 0.000000 0.500000
#
# Coordination Sequence:
#
# PCOD8278976 Si02
#       8
#    16  16  16  16  16  16   8  16
#     4  10  19  32  51  76 105 139 178 220 267 317
#     4  10  20  33  50  75 107 142 180 220 263 314
#     4  11  21  34  54  78 103 134 174 221 269 317
#     4  11  23  38  55  79 109 145 185 227 273 324
#     4   9  19  35  53  77 107 140 179 219 263 316
#     4   8  14  27  49  75 104 137 172 211 256 309
#     4   8  16  32  56  82 108 138 170 208 256 308
#     4  10  20  37  60  85 112 142 177 219 266 320
#
# _framework density 18.511714000000001
#
# number of rings (size 3 to 8) (size 9 to 14) (size 15 to 20)
#    0.000    2.267    0.000    4.400    0.000    4.267 
#    1.200    1.333    0.000    4.000    0.000    2.800 
#    0.000    0.000    0.000    0.000    0.000    0.000 
#
# Total GULP energy -743702.427750 kJ/mol
# GULP energy per Si atom -12395.040462 kJ/mol
# Density = 1.846958 g / cm^3
# Si number density = 18.511714 Si / 1000 Ang^3
#
#
#
# Elastic Constant Matrix: (Units=GPa)
#
#
# Indices 1 2 3 4 5 6 
#
# 1 120.3974 28.7970 25.1153 0.0000 0.0000 0.0000
# 2 28.7970 62.0917 25.1936 0.0000 0.0000 0.0000
# 3 25.1153 25.1936 64.7311 0.0000 0.0000 0.0000
# 4 0.0000 0.0000 0.0000 27.3074 0.0000 0.0000
# 5 0.0000 0.0000 0.0000 0.0000 -127.9083 0.0000
# 6 0.0000 0.0000 0.0000 0.0000 0.0000 22.0027
#
#
#
# Elastic Compliance Matrix: (Units=1/GPa)
#
#
# Indices 1 2 3 4 5 6 
#
# 1 0.009640 -0.003507 -0.002375 0.000000 0.000000 0.000000
# 2 -0.003507 0.020401 -0.006580 0.000000 0.000000 0.000000
# 3 -0.002375 -0.006580 0.018931 0.000000 0.000000 0.000000
# 4 0.000000 0.000000 0.000000 0.036620 0.000000 0.000000
# 5 0.000000 0.000000 0.000000 0.000000 -0.007818 0.000000
# 6 0.000000 0.000000 0.000000 0.000000 0.000000 0.045449
#
#
# Mechanical properties :
#
#
# Convention : Reuss Voigt Hill
#
# Bulk Modulus (GPa) = 41.58277 45.04801 43.31539
# Shear Modulus (GPa) = 32.01767 -4.51202 13.75283
#
# Velocity S-wave (km/s) = 4.16335 -1.56291 2.72862
# Velocity P-wave (km/s) = 6.75448 4.59682 5.77727
#
# Compressibility (1/GPa) = 0.02404842
#
# Stress axis : x y z
#
# Youngs Moduli (GPa) = 103.73251 49.01627 52.82362
#
# Poissons Ratio (x) = 0.17191 0.12547
# Poissons Ratio (y) = 0.36380 0.34756
# Poissons Ratio (z) = 0.24640 0.32251
#
# Static dielectric constant tensor:
#      x y z
#    x 3.699070 0.000000 0.000000 
#    y 0.000000 3.318010 0.000000 
#    z 0.000000 0.000000 3.273460 
# 
# 
# High freq. dielectric constant tensor:
#      x y z
#    x 1.729940 0.000000 0.000000 
#    y 0.000000 1.716990 0.000000 
#    z 0.000000 0.000000 1.697380 
# 
# From -- ./inp_files/44988.got.cif
#   From: 2010.03.12/outbox.cif.g09.slc.cpg/sg67_23_cif.got.tgz:44988.got - 2010.04.10 22:41:39.
