data_PCOD8278589
_publ_section_title
;
Structure prediction by ZEFSAII (Michael W. Deem and Ramdas Pophale) SiO2 
 PCOD8278589
Probable space group: C M M A
;
_chemical_formula_sum "Si O2"
_cell_formula_units_Z 116
_cell_length_a 9.232053
_cell_length_b 24.584422
_cell_length_c 28.754256
_cell_angle_alpha 90.000000
_cell_angle_beta 90.000000
_cell_angle_gamma 90.000000
_cell_volume 6526.200709
_symmetry_space_group_name_H-M "C M M A"
_symmetry_group_IT_number 67
_symmetry_cell_setting 'orthorhombic'
loop_
_space_group_symop_operation_xyz
x,y,z
-x,1/2-y,z
x,-y,-z
-x,1/2+y,-z
-x,-y,-z
x,1/2+y,-z
-x,y,z
x,1/2-y,z
1/2+x,1/2+y,z
1/2-x,-y,z
1/2+x,1/2-y,-z
1/2-x,y,-z
1/2-x,1/2-y,-z
1/2+x,y,-z
1/2-x,1/2+y,z
1/2+x,-y,z
loop_
_atom_site_type_symbol
_atom_site_label
_atom_site_fract_x
_atom_site_fract_y
_atom_site_fract_z
Si Si1 0.335882 0.314782 0.955187
Si Si2 0.750000 0.500000 0.500000
Si Si3 0.163634 0.548748 0.339487
Si Si4 0.336998 0.085908 0.571543
Si Si5 0.837068 0.185076 0.865421
Si Si6 0.341213 0.688200 0.220354
Si Si7 0.337933 0.334609 0.308884
Si Si8 0.330830 0.688690 0.585651
O O1 0.500000 0.337418 0.955649
O O2 0.338050 0.250000 0.955778
O O3 0.254093 0.336325 0.909390
O O4 0.250000 0.337154 0.000000
O O5 0.653685 0.458590 0.530547
O O6 0.250000 0.500000 0.314179
O O7 0.240897 0.560824 0.387965
O O8 0.166289 0.600133 0.305642
O O9 0.000000 0.530615 0.350818
O O10 0.500000 0.098221 0.588292
O O11 0.263183 0.144074 0.557130
O O12 0.842860 0.250000 0.864905
O O13 0.761859 0.161106 0.818644
O O14 0.000000 0.161639 0.868063
O O15 0.500000 0.659670 0.221547
O O16 0.363414 0.750000 0.205002
O O17 0.271537 0.688133 0.271242
O O18 0.500000 0.313185 0.298083
O O19 0.289510 0.314617 0.359785
O O20 0.500000 0.674263 0.579220
O O21 0.296769 0.750000 0.567786
#
# Coordination Sequence:
#
# PCOD8278589 Si02
#       8
#    16   4  16  16  16  16  16  16
#     4   9  15  22  32  46  65  91 129 178 228 277
#     4  12  26  40  58  82 110 136 170 202 250 296
#     4  10  20  35  54  76 102 127 156 192 233 277
#     4  11  23  37  58  83 107 134 165 203 242 285
#     4   9  16  25  36  49  69 101 139 181 230 277
#     4  10  19  28  39  59  86 115 150 191 229 268
#     4   9  18  31  48  70  94 123 155 186 225 274
#     4   9  19  37  58  79 106 136 165 199 241 288
#
# _framework density 17.774507
#
# number of rings (size 3 to 8) (size 9 to 14) (size 15 to 20)
#    0.000    2.345    0.690    3.517    0.000    9.379 
#    0.000    0.345    0.000    0.000    0.000    0.000 
#    0.000    0.000    0.000    0.000    0.000    0.690 
#
# Total GULP energy -718909.279050 kJ/mol
# GULP energy per Si atom -12394.987570 kJ/mol
# Density = 1.773405 g / cm^3
# Si number density = 17.774507 Si / 1000 Ang^3
#
#
#
# Elastic Constant Matrix: (Units=GPa)
#
#
# Indices 1 2 3 4 5 6 
#
# 1 147.2923 30.5848 41.8509 0.0000 0.0000 0.0000
# 2 30.5848 71.6112 12.0531 0.0000 0.0000 0.0000
# 3 41.8509 12.0531 68.8743 0.0000 0.0000 0.0000
# 4 0.0000 0.0000 0.0000 5.6638 0.0000 0.0000
# 5 0.0000 0.0000 0.0000 0.0000 21.9919 0.0000
# 6 0.0000 0.0000 0.0000 0.0000 0.0000 16.8328
#
#
#
# Elastic Compliance Matrix: (Units=1/GPa)
#
#
# Indices 1 2 3 4 5 6 
#
# 1 0.008766 -0.002934 -0.004813 0.000000 0.000000 0.000000
# 2 -0.002934 0.015370 -0.000907 0.000000 0.000000 0.000000
# 3 -0.004813 -0.000907 0.017603 0.000000 0.000000 0.000000
# 4 0.000000 0.000000 0.000000 0.176561 0.000000 0.000000
# 5 0.000000 0.000000 0.000000 0.000000 0.045471 0.000000
# 6 0.000000 0.000000 0.000000 0.000000 0.000000 0.059408
#
#
# Mechanical properties :
#
#
# Convention : Reuss Voigt Hill
#
# Bulk Modulus (GPa) = 40.93241 50.75059 45.84150
# Shear Modulus (GPa) = 14.34186 22.45030 18.39608
#
# Velocity S-wave (km/s) = 2.84364 3.55781 3.22059
# Velocity P-wave (km/s) = 5.81897 6.74476 6.29890
#
# Compressibility (1/GPa) = 0.02443052
#
# Stress axis : x y z
#
# Youngs Moduli (GPa) = 114.07705 65.06193 56.80976
#
# Poissons Ratio (x) = 0.19088 0.27343
# Poissons Ratio (y) = 0.33468 0.05153
# Poissons Ratio (z) = 0.54907 0.05902
#
# Static dielectric constant tensor:
#      x y z
#    x 3.527480 0.000000 0.000000 
#    y 0.000000 3.242850 0.000000 
#    z 0.000000 0.000000 3.110160 
# 
# 
# High freq. dielectric constant tensor:
#      x y z
#    x 1.704250 0.000000 0.000000 
#    y 0.000000 1.636120 0.000000 
#    z 0.000000 0.000000 1.666750 
# 
# From -- ./inp_files/45425.got.cif
#   From: 2010.03.12/outbox.cif.g09.slc.cpg/sg67_23_cif.got.tgz:45425.got - 2010.04.10 22:41:39.
