data_PCOD8278248
_publ_section_title
;
Structure prediction by ZEFSAII (Michael W. Deem and Ramdas Pophale) SiO2 
 PCOD8278248
Probable space group: C M M A
;
_chemical_formula_sum "Si O2"
_cell_formula_units_Z 96
_cell_length_a 13.701181
_cell_length_b 22.444352
_cell_length_c 15.321519
_cell_angle_alpha 90.000000
_cell_angle_beta 90.000000
_cell_angle_gamma 90.000000
_cell_volume 4711.583573
_symmetry_space_group_name_H-M "C M M A"
_symmetry_group_IT_number 67
_symmetry_cell_setting 'orthorhombic'
loop_
_space_group_symop_operation_xyz
x,y,z
-x,1/2-y,z
x,-y,-z
-x,1/2+y,-z
-x,-y,-z
x,1/2+y,-z
-x,y,z
x,1/2-y,z
1/2+x,1/2+y,z
1/2-x,-y,z
1/2+x,1/2-y,-z
1/2-x,y,-z
1/2-x,1/2-y,-z
1/2+x,y,-z
1/2-x,1/2+y,z
1/2+x,-y,z
loop_
_atom_site_type_symbol
_atom_site_label
_atom_site_fract_x
_atom_site_fract_y
_atom_site_fract_z
Si Si1 0.278095 0.914474 0.900024
Si Si2 0.109109 0.973963 0.821829
Si Si3 0.607177 0.003937 0.376423
Si Si4 0.109126 0.121577 0.445299
Si Si5 0.692408 0.373258 0.374341
Si Si6 0.114326 0.181384 0.802623
O O1 0.176136 0.918002 0.848006
O O2 0.328590 0.851152 0.880886
O O3 0.350290 0.966066 0.866646
O O4 0.250000 0.922019 0.000000
O O5 0.110684 0.973744 0.718076
O O6 0.000000 0.964110 0.857502
O O7 0.500000 0.034530 0.388717
O O8 0.618353 0.951059 0.448395
O O9 0.690557 0.054359 0.376606
O O10 0.193630 0.146472 0.380660
O O11 0.131058 0.148062 0.541175
O O12 0.000000 0.141003 0.414782
O O13 0.643068 0.346931 0.289501
O O14 0.144855 0.250000 0.803800
O O15 0.000000 0.172543 0.817379
#
# Coordination Sequence:
#
# PCOD8278248 Si02
#       6
#    16  16  16  16  16  16
#     4  11  23  37  59  90 122 153 192 250 313 373
#     4  10  20  35  58  89 126 162 195 234 297 378
#     4  10  18  29  50  80 117 157 195 237 288 352
#     4  10  21  32  50  86 123 156 195 242 301 360
#     4  11  20  35  57  79 115 159 204 253 295 348
#     4  11  24  43  67  88 111 156 215 266 309 361
#
# _framework density 20.375313999999999
#
# number of rings (size 3 to 8) (size 9 to 14) (size 15 to 20)
#    0.000    1.500    1.667    5.000    2.333    5.000 
#    0.000    1.667    0.000    3.000    0.000    0.000 
#    0.000    0.000    0.000    0.000    0.000    0.000 
#
# Total GULP energy -595044.342019 kJ/mol
# GULP energy per Si atom -12396.757125 kJ/mol
# Density = 2.032894 g / cm^3
# Si number density = 20.375314 Si / 1000 Ang^3
#
#
#
# Elastic Constant Matrix: (Units=GPa)
#
#
# Indices 1 2 3 4 5 6 
#
# 1 145.6838 22.6764 23.7655 0.0000 0.0000 0.0000
# 2 22.6764 62.1197 9.1495 0.0000 0.0000 0.0000
# 3 23.7655 9.1495 40.0211 0.0000 0.0000 0.0000
# 4 0.0000 0.0000 0.0000 12.3263 0.0000 0.0000
# 5 0.0000 0.0000 0.0000 0.0000 20.4621 0.0000
# 6 0.0000 0.0000 0.0000 0.0000 0.0000 22.4915
#
#
#
# Elastic Compliance Matrix: (Units=1/GPa)
#
#
# Indices 1 2 3 4 5 6 
#
# 1 0.007898 -0.002269 -0.004171 0.000000 0.000000 0.000000
# 2 -0.002269 0.017311 -0.002610 0.000000 0.000000 0.000000
# 3 -0.004171 -0.002610 0.028061 0.000000 0.000000 0.000000
# 4 0.000000 0.000000 0.000000 0.081127 0.000000 0.000000
# 5 0.000000 0.000000 0.000000 0.000000 0.048871 0.000000
# 6 0.000000 0.000000 0.000000 0.000000 0.000000 0.044461
#
#
# Mechanical properties :
#
#
# Convention : Reuss Voigt Hill
#
# Bulk Modulus (GPa) = 28.43454 39.88971 34.16213
# Shear Modulus (GPa) = 19.41360 23.87154 21.64257
#
# Velocity S-wave (km/s) = 3.09009 3.42656 3.26267
# Velocity P-wave (km/s) = 5.16887 5.93928 5.56742
#
# Compressibility (1/GPa) = 0.03516849
#
# Stress axis : x y z
#
# Youngs Moduli (GPa) = 126.61808 57.76816 35.63720
#
# Poissons Ratio (x) = 0.13106 0.14865
# Poissons Ratio (y) = 0.28725 0.09302
# Poissons Ratio (z) = 0.52815 0.15079
#
# Static dielectric constant tensor:
#      x y z
#    x 4.253590 0.000000 0.000000 
#    y 0.000000 3.337660 0.000000 
#    z 0.000000 0.000000 3.667760 
# 
# 
# High freq. dielectric constant tensor:
#      x y z
#    x 1.821370 0.000000 0.000000 
#    y 0.000000 1.737610 0.000000 
#    z 0.000000 0.000000 1.796130 
# 
# From -- ./inp_files/27243.got.cif
#   From: 2010.03.12/outbox.cif.g09.slc.cpg/sg67_14_cif.got.tgz:27243.got - 2010.04.10 22:41:39.
