data_PCOD8278408
_publ_section_title
;
Structure prediction by ZEFSAII (Michael W. Deem and Ramdas Pophale) SiO2 
 PCOD8278408
Probable space group: C M M A
;
_chemical_formula_sum "Si O2"
_cell_formula_units_Z 96
_cell_length_a 8.798991
_cell_length_b 23.761457
_cell_length_c 25.336374
_cell_angle_alpha 90.000000
_cell_angle_beta 90.000000
_cell_angle_gamma 90.000000
_cell_volume 5297.249172
_symmetry_space_group_name_H-M "C M M A"
_symmetry_group_IT_number 67
_symmetry_cell_setting 'orthorhombic'
loop_
_space_group_symop_operation_xyz
x,y,z
-x,1/2-y,z
x,-y,-z
-x,1/2+y,-z
-x,-y,-z
x,1/2+y,-z
-x,y,z
x,1/2-y,z
1/2+x,1/2+y,z
1/2-x,-y,z
1/2+x,1/2-y,-z
1/2-x,y,-z
1/2-x,1/2-y,-z
1/2+x,y,-z
1/2-x,1/2+y,z
1/2+x,-y,z
loop_
_atom_site_type_symbol
_atom_site_label
_atom_site_fract_x
_atom_site_fract_y
_atom_site_fract_z
Si Si1 0.321576 0.250000 0.326631
Si Si2 0.178320 0.872620 0.353186
Si Si3 0.819151 0.250000 0.788795
Si Si4 0.821636 0.060559 0.752061
Si Si5 0.180183 0.361288 0.845480
Si Si6 0.320611 0.560417 0.446117
Si Si7 0.179051 0.314349 0.055611
O O1 0.500000 0.250000 0.317294
O O2 0.275442 0.193135 0.356870
O O3 0.245069 0.250000 0.269124
O O4 0.222356 0.897894 0.295999
O O5 0.281112 0.900157 0.397553
O O6 0.000000 0.882233 0.364789
O O7 0.759657 0.195053 0.817971
O O8 0.000000 0.250000 0.786222
O O9 0.766849 0.086930 0.808070
O O10 0.000000 0.052464 0.753452
O O11 0.750000 0.000000 0.742723
O O12 0.259357 0.360550 0.902608
O O13 0.000000 0.361838 0.853009
O O14 0.500000 0.554849 0.452589
O O15 0.250000 0.500000 0.434054
O O16 0.250000 0.585604 0.500000
O O17 0.227954 0.250000 0.070318
O O18 0.000000 0.319648 0.051568
O O19 0.250000 0.331662 0.000000
#
# Coordination Sequence:
#
# PCOD8278408 Si02
#       7
#     8  16   8  16  16  16  16
#     4   9  16  30  54  81 110 145 182 214 255 316
#     4  10  19  34  56  83 112 143 179 219 263 315
#     4   9  14  26  50  77 102 135 176 212 253 306
#     4  10  21  34  52  78 108 142 179 216 260 311
#     4  10  18  31  53  77 103 137 176 216 258 309
#     4  11  22  38  59  82 107 139 180 226 272 317
#     4  10  20  32  48  74 106 138 171 210 259 312
#
# _framework density 18.122613999999999
#
# number of rings (size 3 to 8) (size 9 to 14) (size 15 to 20)
#    0.000    2.000    2.500    3.000    0.000    3.333 
#    0.000    0.833    0.000    1.500    0.000    3.500 
#    0.000    0.000    0.000    0.000    0.000    0.000 
#
# Total GULP energy -595064.901669 kJ/mol
# GULP energy per Si atom -12397.185451 kJ/mol
# Density = 1.808137 g / cm^3
# Si number density = 18.122614 Si / 1000 Ang^3
#
#
#
# Elastic Constant Matrix: (Units=GPa)
#
#
# Indices 1 2 3 4 5 6 
#
# 1 70.7803 38.0510 50.4829 0.0000 0.0000 0.0000
# 2 38.0510 101.2053 51.4711 0.0000 0.0000 0.0000
# 3 50.4829 51.4711 129.1657 0.0000 0.0000 0.0000
# 4 0.0000 0.0000 0.0000 29.9907 0.0000 0.0000
# 5 0.0000 0.0000 0.0000 0.0000 27.3127 0.0000
# 6 0.0000 0.0000 0.0000 0.0000 0.0000 22.3147
#
#
#
# Elastic Compliance Matrix: (Units=1/GPa)
#
#
# Indices 1 2 3 4 5 6 
#
# 1 0.021248 -0.004722 -0.006423 0.000000 0.000000 0.000000
# 2 -0.004722 0.013442 -0.003511 0.000000 0.000000 0.000000
# 3 -0.006423 -0.003511 0.011651 0.000000 0.000000 0.000000
# 4 0.000000 0.000000 0.000000 0.033344 0.000000 0.000000
# 5 0.000000 0.000000 0.000000 0.000000 0.036613 0.000000
# 6 0.000000 0.000000 0.000000 0.000000 0.000000 0.044814
#
#
# Mechanical properties :
#
#
# Convention : Reuss Voigt Hill
#
# Bulk Modulus (GPa) = 58.72189 64.57348 61.64769
# Shear Modulus (GPa) = 25.49731 26.66669 26.08200
#
# Velocity S-wave (km/s) = 3.75498 3.84012 3.79779
# Velocity P-wave (km/s) = 7.16050 7.44116 7.30218
#
# Compressibility (1/GPa) = 0.01702942
#
# Stress axis : x y z
#
# Youngs Moduli (GPa) = 47.06386 74.39426 85.82779
#
# Poissons Ratio (x) = 0.35131 0.55124
# Poissons Ratio (y) = 0.22225 0.30133
# Poissons Ratio (z) = 0.30228 0.26118
#
# Static dielectric constant tensor:
#      x y z
#    x 3.095550 0.000000 0.000000 
#    y 0.000000 3.549120 0.000000 
#    z 0.000000 0.000000 3.466450 
# 
# 
# High freq. dielectric constant tensor:
#      x y z
#    x 1.683970 0.000000 0.000000 
#    y 0.000000 1.685810 0.000000 
#    z 0.000000 0.000000 1.709050 
# 
# From -- ./inp_files/40854.got.cif
#   From: 2010.03.12/outbox.cif.g09.slc.cpg/sg67_21_cif.got.tgz:40854.got - 2010.04.10 22:41:39.
