data_PCOD8278850
_publ_section_title
;
Structure prediction by ZEFSAII (Michael W. Deem and Ramdas Pophale) SiO2 
 PCOD8278850
Probable space group: C M M A
;
_chemical_formula_sum "Si O2"
_cell_formula_units_Z 96
_cell_length_a 19.362073
_cell_length_b 17.632205
_cell_length_c 14.948629
_cell_angle_alpha 90.000000
_cell_angle_beta 90.000000
_cell_angle_gamma 90.000000
_cell_volume 5103.402749
_symmetry_space_group_name_H-M "C M M A"
_symmetry_group_IT_number 67
_symmetry_cell_setting 'orthorhombic'
loop_
_space_group_symop_operation_xyz
x,y,z
-x,1/2-y,z
x,-y,-z
-x,1/2+y,-z
-x,-y,-z
x,1/2+y,-z
-x,y,z
x,1/2-y,z
1/2+x,1/2+y,z
1/2-x,-y,z
1/2+x,1/2-y,-z
1/2-x,y,-z
1/2-x,1/2-y,-z
1/2+x,y,-z
1/2-x,1/2+y,z
1/2+x,-y,z
loop_
_atom_site_type_symbol
_atom_site_label
_atom_site_fract_x
_atom_site_fract_y
_atom_site_fract_z
Si Si1 0.922707 0.159553 0.607022
Si Si2 0.680180 0.159816 0.745970
Si Si3 0.320328 0.160203 0.542664
Si Si4 0.079425 0.576056 0.880276
Si Si5 0.666493 0.837160 0.769441
Si Si6 0.579289 0.097357 0.083121
O O1 0.925845 0.250000 0.612777
O O2 0.885447 0.132808 0.515994
O O3 0.879962 0.125404 0.691066
O O4 0.000000 0.125487 0.608657
O O5 0.671305 0.250000 0.758444
O O6 0.667576 0.133325 0.644034
O O7 0.625544 0.117751 0.807840
O O8 0.756228 0.129522 0.773282
O O9 0.313697 0.250000 0.541057
O O10 0.250000 0.125815 0.500000
O O11 0.094817 0.486833 0.881472
O O12 0.000000 0.591748 0.855837
O O13 0.096125 0.607925 0.978832
O O14 0.675182 0.750000 0.744278
O O15 0.629257 0.846020 0.864445
O O16 0.500000 0.119046 0.101984
#
# Coordination Sequence:
#
# PCOD8278850 Si02
#       6
#    16  16  16  16  16  16
#     4   9  16  26  44  72 101 130 169 210 246 299
#     4  10  20  32  51  79 109 139 170 212 264 310
#     4   9  15  28  47  68 102 141 168 201 257 312
#     4   9  20  38  55  73  99 136 181 218 256 315
#     4  10  19  31  50  79 108 132 166 213 263 311
#     4   9  19  37  57  73  98 137 175 216 265 313
#
# _framework density 18.810977999999999
#
# number of rings (size 3 to 8) (size 9 to 14) (size 15 to 20)
#    0.000    2.667    1.667    1.500    0.000    4.000 
#    0.000    6.667    0.000    1.000    0.000    3.500 
#    0.000    0.000    0.000    0.000    0.000    0.000 
#
# Total GULP energy -595064.691714 kJ/mol
# GULP energy per Si atom -12397.181077 kJ/mol
# Density = 1.876816 g / cm^3
# Si number density = 18.810978 Si / 1000 Ang^3
#
#
#
# Elastic Constant Matrix: (Units=GPa)
#
#
# Indices 1 2 3 4 5 6 
#
# 1 148.7994 26.4466 88.4838 0.0000 0.0000 0.0000
# 2 26.4466 16.4186 24.9133 0.0000 0.0000 0.0000
# 3 88.4838 24.9133 145.0583 0.0000 0.0000 0.0000
# 4 0.0000 0.0000 0.0000 12.0622 0.0000 0.0000
# 5 0.0000 0.0000 0.0000 0.0000 42.1814 0.0000
# 6 0.0000 0.0000 0.0000 0.0000 0.0000 20.7534
#
#
#
# Elastic Compliance Matrix: (Units=1/GPa)
#
#
# Indices 1 2 3 4 5 6 
#
# 1 0.011848 -0.010980 -0.005342 0.000000 0.000000 0.000000
# 2 -0.010980 0.092548 -0.009197 0.000000 0.000000 0.000000
# 3 -0.005342 -0.009197 0.011732 0.000000 0.000000 0.000000
# 4 0.000000 0.000000 0.000000 0.082904 0.000000 0.000000
# 5 0.000000 0.000000 0.000000 0.000000 0.023707 0.000000
# 6 0.000000 0.000000 0.000000 0.000000 0.000000 0.048185
#
#
# Mechanical properties :
#
#
# Convention : Reuss Voigt Hill
#
# Bulk Modulus (GPa) = 15.36315 65.55154 40.45735
# Shear Modulus (GPa) = 14.54934 26.36156 20.45545
#
# Velocity S-wave (km/s) = 2.78411 3.74758 3.30118
# Velocity P-wave (km/s) = 4.30347 7.32454 6.00703
#
# Compressibility (1/GPa) = 0.06509081
#
# Stress axis : x y z
#
# Youngs Moduli (GPa) = 84.40024 10.80519 85.23896
#
# Poissons Ratio (x) = 0.11864 0.45531
# Poissons Ratio (y) = 0.92668 0.78398
# Poissons Ratio (z) = 0.45083 0.09938
#
# Static dielectric constant tensor:
#      x y z
#    x 3.587600 0.000000 0.000000 
#    y 0.000000 2.916320 0.000000 
#    z 0.000000 0.000000 3.523440 
# 
# 
# High freq. dielectric constant tensor:
#      x y z
#    x 1.740150 0.000000 0.000000 
#    y 0.000000 1.677130 0.000000 
#    z 0.000000 0.000000 1.741110 
# 
# From -- ./inp_files/27213.got.cif
#   From: 2010.03.12/outbox.cif.g09.slc.cpg/sg67_14_cif.got.tgz:27213.got - 2010.04.10 22:41:39.
