data_PCOD8278918
_publ_section_title
;
Structure prediction by ZEFSAII (Michael W. Deem and Ramdas Pophale) SiO2 
 PCOD8278918
Probable space group: C M M A
;
_chemical_formula_sum "Si O2"
_cell_formula_units_Z 80
_cell_length_a 8.748206
_cell_length_b 19.049471
_cell_length_c 25.693751
_cell_angle_alpha 90.000000
_cell_angle_beta 90.000000
_cell_angle_gamma 90.000000
_cell_volume 4281.830112
_symmetry_space_group_name_H-M "C M M A"
_symmetry_group_IT_number 67
_symmetry_cell_setting 'orthorhombic'
loop_
_space_group_symop_operation_xyz
x,y,z
-x,1/2-y,z
x,-y,-z
-x,1/2+y,-z
-x,-y,-z
x,1/2+y,-z
-x,y,z
x,1/2-y,z
1/2+x,1/2+y,z
1/2-x,-y,z
1/2+x,1/2-y,-z
1/2-x,y,-z
1/2-x,1/2-y,-z
1/2+x,y,-z
1/2-x,1/2+y,z
1/2+x,-y,z
loop_
_atom_site_type_symbol
_atom_site_label
_atom_site_fract_x
_atom_site_fract_y
_atom_site_fract_z
Si Si1 0.819982 0.423181 0.850699
Si Si2 0.682501 0.923528 0.446877
Si Si3 0.819156 0.670316 0.054061
Si Si4 0.818960 0.172777 0.354179
Si Si5 0.678161 0.331670 0.762525
O O1 0.750000 0.500000 0.850232
O O2 0.757026 0.379880 0.900312
O O3 0.777425 0.380928 0.799110
O O4 0.000000 0.430857 0.853467
O O5 0.500000 0.926102 0.449995
O O6 0.750000 0.890160 0.500000
O O7 0.744836 0.879051 0.398101
O O8 0.750000 0.000000 0.438935
O O9 0.763880 0.750000 0.065473
O O10 0.000000 0.667065 0.050160
O O11 0.750000 0.642673 0.000000
O O12 0.749888 0.250000 0.364676
O O13 0.773459 0.147603 0.296300
O O14 0.000000 0.176890 0.357688
O O15 0.500000 0.346586 0.772236
O O16 0.715543 0.250000 0.773228
#
# Coordination Sequence:
#
# PCOD8278918 Si02
#       5
#    16  16  16  16  16
#     4  11  23  37  53  77 110 142 175 216 261 306
#     4  10  19  32  50  71  99 133 168 206 249 299
#     4   9  19  36  57  79 103 134 172 213 257 306
#     4   8  16  32  53  76 101 130 165 207 254 301
#     4   9  18  35  58  80 103 135 174 212 256 313
#
# _framework density 18.683599000000001
#
# number of rings (size 3 to 8) (size 9 to 14) (size 15 to 20)
#    0.000    2.600    0.000    3.600    0.000    4.400 
#    0.000    8.000    0.000    4.200    0.000    0.000 
#    0.000    0.000    0.000    0.000    0.000    0.000 
#
# Total GULP energy -495937.246054 kJ/mol
# GULP energy per Si atom -12398.431151 kJ/mol
# Density = 1.864107 g / cm^3
# Si number density = 18.683599 Si / 1000 Ang^3
#
#
#
# Elastic Constant Matrix: (Units=GPa)
#
#
# Indices 1 2 3 4 5 6 
#
# 1 44.4828 31.1158 35.8964 0.0000 0.0000 0.0000
# 2 31.1158 106.7902 94.2124 0.0000 0.0000 0.0000
# 3 35.8964 94.2124 177.1397 0.0000 0.0000 0.0000
# 4 0.0000 0.0000 0.0000 26.5050 0.0000 0.0000
# 5 0.0000 0.0000 0.0000 0.0000 27.6497 0.0000
# 6 0.0000 0.0000 0.0000 0.0000 0.0000 15.3204
#
#
#
# Elastic Compliance Matrix: (Units=1/GPa)
#
#
# Indices 1 2 3 4 5 6 
#
# 1 0.028853 -0.006121 -0.002592 0.000000 0.000000 0.000000
# 2 -0.006121 0.018940 -0.008833 0.000000 0.000000 0.000000
# 3 -0.002592 -0.008833 0.010868 0.000000 0.000000 0.000000
# 4 0.000000 0.000000 0.000000 0.037729 0.000000 0.000000
# 5 0.000000 0.000000 0.000000 0.000000 0.036167 0.000000
# 6 0.000000 0.000000 0.000000 0.000000 0.000000 0.065272
#
#
# Mechanical properties :
#
#
# Convention : Reuss Voigt Hill
#
# Bulk Modulus (GPa) = 42.42475 72.31796 57.37136
# Shear Modulus (GPa) = 20.76601 25.04091 22.90346
#
# Velocity S-wave (km/s) = 3.33747 3.66493 3.50503
# Velocity P-wave (km/s) = 6.13252 7.52992 6.86686
#
# Compressibility (1/GPa) = 0.02357115
#
# Stress axis : x y z
#
# Youngs Moduli (GPa) = 34.65788 52.79737 92.00980
#
# Poissons Ratio (x) = 0.32316 0.23846
# Poissons Ratio (y) = 0.21213 0.81274
# Poissons Ratio (z) = 0.08982 0.46637
#
# Static dielectric constant tensor:
#      x y z
#    x 3.184840 0.000000 0.000000 
#    y 0.000000 3.572100 0.000000 
#    z 0.000000 0.000000 3.775360 
# 
# 
# High freq. dielectric constant tensor:
#      x y z
#    x 1.706240 0.000000 0.000000 
#    y 0.000000 1.721790 0.000000 
#    z 0.000000 0.000000 1.740880 
# 
# From -- ./inp_files/43267.got.cif
#   From: 2010.03.12/outbox.cif.g09.slc.cpg/sg67_22_cif.got.tgz:43267.got - 2010.04.10 22:41:39.
