data_PCOD8278768
_publ_section_title
;
Structure prediction by ZEFSAII (Michael W. Deem and Ramdas Pophale) SiO2 
 PCOD8278768
Probable space group: C M M A
;
_chemical_formula_sum "Si O2"
_cell_formula_units_Z 112
_cell_length_a 24.712748
_cell_length_b 21.288621
_cell_length_c 12.192112
_cell_angle_alpha 90.000000
_cell_angle_beta 90.000000
_cell_angle_gamma 90.000000
_cell_volume 6414.274098
_symmetry_space_group_name_H-M "C M M A"
_symmetry_group_IT_number 67
_symmetry_cell_setting 'orthorhombic'
loop_
_space_group_symop_operation_xyz
x,y,z
-x,1/2-y,z
x,-y,-z
-x,1/2+y,-z
-x,-y,-z
x,1/2+y,-z
-x,y,z
x,1/2-y,z
1/2+x,1/2+y,z
1/2-x,-y,z
1/2+x,1/2-y,-z
1/2-x,y,-z
1/2-x,1/2-y,-z
1/2+x,y,-z
1/2-x,1/2+y,z
1/2+x,-y,z
loop_
_atom_site_type_symbol
_atom_site_label
_atom_site_fract_x
_atom_site_fract_y
_atom_site_fract_z
Si Si1 0.247322 0.819588 0.129579
Si Si2 0.060574 0.902530 0.747802
Si Si3 0.935571 0.928234 0.510709
Si Si4 0.132430 0.358388 0.855112
Si Si5 0.437307 0.320051 0.341254
Si Si6 0.136256 0.677511 0.894152
Si Si7 0.060355 0.974105 0.118458
O O1 0.239737 0.750000 0.181095
O O2 0.197005 0.861629 0.172663
O O3 0.306518 0.848994 0.155239
O O4 0.250000 0.812309 0.000000
O O5 0.086268 0.901196 0.626417
O O6 0.089799 0.858512 0.832909
O O7 0.000000 0.876421 0.743072
O O8 0.061493 0.973669 0.788860
O O9 0.916518 0.877612 0.418741
O O10 0.000000 0.931510 0.511820
O O11 0.912885 0.000000 0.500000
O O12 0.099532 0.317132 0.767582
O O13 0.107345 0.427048 0.848555
O O14 0.127105 0.329444 0.975958
O O15 0.500000 0.332407 0.309497
O O16 0.431993 0.250000 0.396109
O O17 0.132618 0.750000 0.864013
O O18 0.000000 0.943198 0.115149
O O19 0.075603 0.000000 0.000000
#
# Coordination Sequence:
#
# PCOD8278768 Si02
#       7
#    16  16  16  16  16  16  16
#     4   8  16  31  49  69  96 133 171 206 246 296
#     4  10  20  34  52  74 101 133 168 203 251 309
#     4   9  18  34  53  71  95 134 177 208 245 308
#     4  11  18  31  53  73  99 136 171 203 252 310
#     4  10  20  31  47  76 107 131 165 218 264 297
#     4  10  20  33  50  74 104 133 165 206 253 306
#     4  10  19  31  47  72 106 136 162 201 251 303
#
# _framework density 17.461055999999999
#
# number of rings (size 3 to 8) (size 9 to 14) (size 15 to 20)
#    0.000    2.286    1.429    3.429    0.000    3.714 
#    0.000    2.143    0.000    0.857    0.000    4.000 
#    0.000    0.000    0.000    0.000    0.000    0.000 
#
# Total GULP energy -693785.328610 kJ/mol
# GULP energy per Si atom -12389.023725 kJ/mol
# Density = 1.742131 g / cm^3
# Si number density = 17.461056 Si / 1000 Ang^3
#
#
#
# Elastic Constant Matrix: (Units=GPa)
#
#
# Indices 1 2 3 4 5 6 
#
# 1 83.6200 41.8809 34.2460 0.0000 0.0000 0.0000
# 2 41.8809 90.3149 32.7258 0.0000 0.0000 0.0000
# 3 34.2460 32.7258 51.2317 0.0000 0.0000 0.0000
# 4 0.0000 0.0000 0.0000 13.1208 0.0000 0.0000
# 5 0.0000 0.0000 0.0000 0.0000 5.4501 0.0000
# 6 0.0000 0.0000 0.0000 0.0000 0.0000 47.6101
#
#
#
# Elastic Compliance Matrix: (Units=1/GPa)
#
#
# Indices 1 2 3 4 5 6 
#
# 1 0.018194 -0.005244 -0.008812 0.000000 0.000000 0.000000
# 2 -0.005244 0.015918 -0.006663 0.000000 0.000000 0.000000
# 3 -0.008812 -0.006663 0.029666 0.000000 0.000000 0.000000
# 4 0.000000 0.000000 0.000000 0.076215 0.000000 0.000000
# 5 0.000000 0.000000 0.000000 0.000000 0.183483 0.000000
# 6 0.000000 0.000000 0.000000 0.000000 0.000000 0.021004
#
#
# Mechanical properties :
#
#
# Convention : Reuss Voigt Hill
#
# Bulk Modulus (GPa) = 44.76250 49.20801 46.98525
# Shear Modulus (GPa) = 12.71082 20.99047 16.85065
#
# Velocity S-wave (km/s) = 2.70099 3.47094 3.10988
# Velocity P-wave (km/s) = 5.95133 6.65627 6.31365
#
# Compressibility (1/GPa) = 0.02234013
#
# Stress axis : x y z
#
# Youngs Moduli (GPa) = 54.96230 62.82009 33.70854
#
# Poissons Ratio (x) = 0.32942 0.29705
# Poissons Ratio (y) = 0.28822 0.22460
# Poissons Ratio (z) = 0.48435 0.41858
#
# Static dielectric constant tensor:
#      x y z
#    x 3.587520 0.000000 0.000000 
#    y 0.000000 3.423170 0.000000 
#    z 0.000000 0.000000 3.193520 
# 
# 
# High freq. dielectric constant tensor:
#      x y z
#    x 1.655520 0.000000 0.000000 
#    y 0.000000 1.670920 0.000000 
#    z 0.000000 0.000000 1.659380 
# 
# From -- ./inp_files/22166.got.cif
#   From: 2010.03.12/outbox.cif.g09.slc.cpg/sg67_12_cif.got.tgz:22166.got - 2010.04.10 22:41:39.
