data_PCOD8278719
_publ_section_title
;
Structure prediction by ZEFSAII (Michael W. Deem and Ramdas Pophale) SiO2 
 PCOD8278719
Probable space group: C M M A
;
_chemical_formula_sum "Si O2"
_cell_formula_units_Z 104
_cell_length_a 27.071144
_cell_length_b 8.862066
_cell_length_c 20.869498
_cell_angle_alpha 90.000000
_cell_angle_beta 90.000000
_cell_angle_gamma 90.000000
_cell_volume 5006.723314
_symmetry_space_group_name_H-M "C M M A"
_symmetry_group_IT_number 67
_symmetry_cell_setting 'orthorhombic'
loop_
_space_group_symop_operation_xyz
x,y,z
-x,1/2-y,z
x,-y,-z
-x,1/2+y,-z
-x,-y,-z
x,1/2+y,-z
-x,y,z
x,1/2-y,z
1/2+x,1/2+y,z
1/2-x,-y,z
1/2+x,1/2-y,-z
1/2-x,y,-z
1/2-x,1/2-y,-z
1/2+x,y,-z
1/2-x,1/2+y,z
1/2+x,-y,z
loop_
_atom_site_type_symbol
_atom_site_label
_atom_site_fract_x
_atom_site_fract_y
_atom_site_fract_z
Si Si1 0.299775 0.575891 0.823957
Si Si2 0.300504 0.928263 0.677622
Si Si3 0.500000 0.572308 0.931043
Si Si4 0.592787 0.926054 0.845684
Si Si5 0.444343 0.422962 0.406785
Si Si6 0.055567 0.080928 0.275244
Si Si7 0.147780 0.924990 0.562097
O O1 0.286729 0.750000 0.822771
O O2 0.250000 0.500000 0.852695
O O3 0.310379 0.521024 0.750926
O O4 0.349505 0.545905 0.867024
O O5 0.299385 0.750000 0.669807
O O6 0.250000 0.000000 0.652613
O O7 0.340977 0.996743 0.630049
O O8 0.500000 0.750000 0.938811
O O9 0.449039 0.520015 0.896110
O O10 0.500000 0.500000 0.000000
O O11 0.584601 0.750000 0.829781
O O12 0.589386 0.023011 0.781844
O O13 0.500000 0.445713 0.431399
O O14 0.426579 0.250000 0.416270
O O15 0.440456 0.462048 0.331980
O O16 0.410573 0.540230 0.446383
O O17 0.072325 0.250000 0.296686
O O18 0.000000 0.085651 0.248684
O O19 0.160593 0.750000 0.563655
O O20 0.175052 0.000000 0.500000
#
# Coordination Sequence:
#
# PCOD8278719 Si02
#       7
#    16  16   8  16  16  16  16
#     4   9  19  34  56  85 116 146 183 229 285 345
#     4  10  20  37  59  84 113 143 178 224 281 343
#     4  10  22  38  58  84 120 162 205 244 285 332
#     4  10  19  34  56  82 114 156 196 236 284 342
#     4  10  21  37  56  77 105 142 181 226 281 342
#     4  10  19  30  49  81 114 142 178 227 282 341
#     4  12  25  40  57  77 103 138 184 235 287 346
#
# _framework density 20.772068999999998
#
# number of rings (size 3 to 8) (size 9 to 14) (size 15 to 20)
#    0.000    1.846    0.769    3.692    0.000    5.231 
#    0.000    1.538    0.000    0.462    0.000    3.231 
#    0.000    0.000    0.000    0.000    0.000    0.000 
#
# Total GULP energy -644447.475798 kJ/mol
# GULP energy per Si atom -12393.220688 kJ/mol
# Density = 2.072479 g / cm^3
# Si number density = 20.772069 Si / 1000 Ang^3
#
#
#
# Elastic Constant Matrix: (Units=GPa)
#
#
# Indices 1 2 3 4 5 6 
#
# 1 128.8408 30.8250 33.2259 0.0000 0.0000 0.0000
# 2 30.8250 78.5803 13.8059 0.0000 0.0000 0.0000
# 3 33.2259 13.8059 51.3226 0.0000 0.0000 0.0000
# 4 0.0000 0.0000 0.0000 26.9782 0.0000 0.0000
# 5 0.0000 0.0000 0.0000 0.0000 17.1961 0.0000
# 6 0.0000 0.0000 0.0000 0.0000 0.0000 34.4687
#
#
#
# Elastic Compliance Matrix: (Units=1/GPa)
#
#
# Indices 1 2 3 4 5 6 
#
# 1 0.009908 -0.002896 -0.005635 0.000000 0.000000 0.000000
# 2 -0.002896 0.014204 -0.001946 0.000000 0.000000 0.000000
# 3 -0.005635 -0.001946 0.023656 0.000000 0.000000 0.000000
# 4 0.000000 0.000000 0.000000 0.037067 0.000000 0.000000
# 5 0.000000 0.000000 0.000000 0.000000 0.058153 0.000000
# 6 0.000000 0.000000 0.000000 0.000000 0.000000 0.029012
#
#
# Mechanical properties :
#
#
# Convention : Reuss Voigt Hill
#
# Bulk Modulus (GPa) = 37.29501 46.05079 41.67290
# Shear Modulus (GPa) = 24.76581 27.78773 26.27677
#
# Velocity S-wave (km/s) = 3.45667 3.66149 3.56055
# Velocity P-wave (km/s) = 5.82450 6.33191 6.08349
#
# Compressibility (1/GPa) = 0.02681324
#
# Stress axis : x y z
#
# Youngs Moduli (GPa) = 100.93185 70.40325 42.27244
#
# Poissons Ratio (x) = 0.20392 0.23821
# Poissons Ratio (y) = 0.29235 0.08225
# Poissons Ratio (z) = 0.56875 0.13698
#
# Static dielectric constant tensor:
#      x y z
#    x 4.228050 0.000000 0.000000 
#    y 0.000000 3.676620 0.000000 
#    z 0.000000 0.000000 3.448740 
# 
# 
# High freq. dielectric constant tensor:
#      x y z
#    x 1.825400 0.000000 0.000000 
#    y 0.000000 1.811450 0.000000 
#    z 0.000000 0.000000 1.770880 
# 
# From -- ./inp_files/37313.got.cif
#   From: 2010.03.12/outbox.cif.g09.slc.cpg/sg67_19_cif.got.tgz:37313.got - 2010.04.10 22:41:39.
