data_PCOD8278449
_publ_section_title
;
Structure prediction by ZEFSAII (Michael W. Deem and Ramdas Pophale) SiO2 
 PCOD8278449
Probable space group: C M M A
;
_chemical_formula_sum "Si O2"
_cell_formula_units_Z 120
_cell_length_a 26.104946
_cell_length_b 8.901669
_cell_length_c 27.605419
_cell_angle_alpha 90.000000
_cell_angle_beta 90.000000
_cell_angle_gamma 90.000000
_cell_volume 6414.880698
_symmetry_space_group_name_H-M "C M M A"
_symmetry_group_IT_number 67
_symmetry_cell_setting 'orthorhombic'
loop_
_space_group_symop_operation_xyz
x,y,z
-x,1/2-y,z
x,-y,-z
-x,1/2+y,-z
-x,-y,-z
x,1/2+y,-z
-x,y,z
x,1/2-y,z
1/2+x,1/2+y,z
1/2-x,-y,z
1/2+x,1/2-y,-z
1/2-x,y,-z
1/2-x,1/2-y,-z
1/2+x,y,-z
1/2-x,1/2+y,z
1/2+x,-y,z
loop_
_atom_site_type_symbol
_atom_site_label
_atom_site_fract_x
_atom_site_fract_y
_atom_site_fract_z
Si Si1 0.442079 0.078352 0.096424
Si Si2 0.407405 0.425489 0.809383
Si Si3 0.000000 0.570603 0.447802
Si Si4 0.149761 0.572518 0.950865
Si Si5 0.559706 0.922194 0.712571
Si Si6 0.196842 0.929889 0.447940
Si Si7 0.698849 0.076005 0.852022
Si Si8 0.402296 0.427399 0.389568
O O1 0.500000 0.066120 0.077769
O O2 0.422957 0.250000 0.096709
O O3 0.439728 0.015457 0.150979
O O4 0.407828 0.983203 0.059346
O O5 0.417530 0.250000 0.817946
O O6 0.425370 0.471007 0.756465
O O7 0.347262 0.463488 0.815593
O O8 0.000000 0.500000 0.500000
O O9 0.050488 0.507971 0.420677
O O10 0.000000 0.750000 0.451128
O O11 0.148732 0.750000 0.956347
O O12 0.185230 0.519280 0.906243
O O13 0.171562 0.500000 0.000000
O O14 0.500000 0.938038 0.699868
O O15 0.572963 0.750000 0.725874
O O16 0.592153 0.979178 0.666209
O O17 0.201454 0.750000 0.452244
O O18 0.152089 0.980862 0.411139
O O19 0.183658 0.000000 0.500000
O O20 0.250000 0.000000 0.428313
O O21 0.709881 0.250000 0.853599
O O22 0.750000 0.000000 0.832207
O O23 0.406288 0.250000 0.391516
#
# Coordination Sequence:
#
# PCOD8278449 Si02
#       8
#    16  16   8  16  16  16  16  16
#     4  10  20  34  53  77 103 136 179 219 257 309
#     4  10  21  36  53  78 108 136 169 214 267 315
#     4  10  18  32  52  76 106 140 174 216 265 318
#     4  10  21  36  53  77 108 140 174 213 261 315
#     4  10  19  34  56  79 104 139 180 216 255 313
#     4  10  19  33  53  76 102 137 179 222 267 313
#     4   9  20  37  56  77 102 133 170 214 262 311
#     4   9  18  33  53  76 105 139 176 218 265 316
#
# _framework density 18.706506000000001
#
# number of rings (size 3 to 8) (size 9 to 14) (size 15 to 20)
#    0.000    2.267    0.667    3.600    0.000    6.667 
#    0.000    4.667    0.000    3.200    0.000    0.000 
#    0.000    0.000    0.000    0.000    0.000    0.000 
#
# Total GULP energy -744016.592700 kJ/mol
# GULP energy per Si atom -12400.276545 kJ/mol
# Density = 1.866393 g / cm^3
# Si number density = 18.706506 Si / 1000 Ang^3
#
#
#
# Elastic Constant Matrix: (Units=GPa)
#
#
# Indices 1 2 3 4 5 6 
#
# 1 90.3795 21.5965 16.8871 0.0000 0.0000 0.0000
# 2 21.5965 56.1665 9.1313 0.0000 0.0000 0.0000
# 3 16.8871 9.1313 69.4959 0.0000 0.0000 0.0000
# 4 0.0000 0.0000 0.0000 27.1692 0.0000 0.0000
# 5 0.0000 0.0000 0.0000 0.0000 20.3799 0.0000
# 6 0.0000 0.0000 0.0000 0.0000 0.0000 25.8069
#
#
#
# Elastic Compliance Matrix: (Units=1/GPa)
#
#
# Indices 1 2 3 4 5 6 
#
# 1 0.012587 -0.004437 -0.002476 0.000000 0.000000 0.000000
# 2 -0.004437 0.019757 -0.001518 0.000000 0.000000 0.000000
# 3 -0.002476 -0.001518 0.015190 0.000000 0.000000 0.000000
# 4 0.000000 0.000000 0.000000 0.036806 0.000000 0.000000
# 5 0.000000 0.000000 0.000000 0.000000 0.049068 0.000000
# 6 0.000000 0.000000 0.000000 0.000000 0.000000 0.038749
#
#
# Mechanical properties :
#
#
# Convention : Reuss Voigt Hill
#
# Bulk Modulus (GPa) = 32.60161 34.58575 33.59368
# Shear Modulus (GPa) = 25.09478 25.89966 25.49722
#
# Velocity S-wave (km/s) = 3.66662 3.72496 3.69591
# Velocity P-wave (km/s) = 5.94906 6.08516 6.01749
#
# Compressibility (1/GPa) = 0.03067333
#
# Stress axis : x y z
#
# Youngs Moduli (GPa) = 79.44473 50.61446 65.83145
#
# Poissons Ratio (x) = 0.22460 0.16297
# Poissons Ratio (y) = 0.35253 0.09991
# Poissons Ratio (z) = 0.19667 0.07682
#
# Static dielectric constant tensor:
#      x y z
#    x 3.601510 0.000000 0.000000 
#    y 0.000000 3.340720 0.000000 
#    z 0.000000 0.000000 3.410100 
# 
# 
# High freq. dielectric constant tensor:
#      x y z
#    x 1.728210 0.000000 0.000000 
#    y 0.000000 1.719120 0.000000 
#    z 0.000000 0.000000 1.719000 
# 
# From -- ./inp_files/45047.got.cif
#   From: 2010.03.12/outbox.cif.g09.slc.cpg/sg67_23_cif.got.tgz:45047.got - 2010.04.10 22:41:39.
