data_PCOD8278209
_publ_section_title
;
Structure prediction by ZEFSAII (Michael W. Deem and Ramdas Pophale) SiO2 
 PCOD8278209
Probable space group: C M M A
;
_chemical_formula_sum "Si O2"
_cell_formula_units_Z 80
_cell_length_a 10.273420
_cell_length_b 18.088100
_cell_length_c 24.495565
_cell_angle_alpha 90.000000
_cell_angle_beta 90.000000
_cell_angle_gamma 90.000000
_cell_volume 4551.928742
_symmetry_space_group_name_H-M "C M M A"
_symmetry_group_IT_number 67
_symmetry_cell_setting 'orthorhombic'
loop_
_space_group_symop_operation_xyz
x,y,z
-x,1/2-y,z
x,-y,-z
-x,1/2+y,-z
-x,-y,-z
x,1/2+y,-z
-x,y,z
x,1/2-y,z
1/2+x,1/2+y,z
1/2-x,-y,z
1/2+x,1/2-y,-z
1/2-x,y,-z
1/2-x,1/2-y,-z
1/2+x,y,-z
1/2-x,1/2+y,z
1/2+x,-y,z
loop_
_atom_site_type_symbol
_atom_site_label
_atom_site_fract_x
_atom_site_fract_y
_atom_site_fract_z
Si Si1 0.848090 0.567656 0.348483
Si Si2 0.651162 0.668728 0.749697
Si Si3 0.353115 0.835378 0.544731
Si Si4 0.861007 0.421701 0.968428
Si Si5 0.350923 0.059661 0.157442
O O1 0.750000 0.500000 0.355463
O O2 0.795057 0.613729 0.296531
O O3 0.832272 0.618710 0.400882
O O4 0.000000 0.542428 0.341345
O O5 0.500000 0.678696 0.737761
O O6 0.718287 0.750000 0.747149
O O7 0.674786 0.635313 0.809941
O O8 0.500000 0.846427 0.521955
O O9 0.327038 0.750000 0.559235
O O10 0.250000 0.863869 0.500000
O O11 0.819699 0.429028 0.905919
O O12 0.000000 0.380726 0.972310
O O13 0.870569 0.500000 0.000000
O O14 0.750000 0.374300 0.000000
O O15 0.500000 0.032261 0.165900
O O16 0.250000 0.000000 0.181335
#
# Coordination Sequence:
#
# PCOD8278209 Si02
#       5
#    16  16  16  16  16
#     4  10  20  34  53  76 102 130 163 206 253 294
#     4   9  18  33  52  72  95 126 165 205 244 291
#     4   9  18  33  53  76 102 135 172 205 241 289
#     4   9  15  24  39  64  93 120 150 188 232 278
#     4  10  18  28  47  73  96 121 157 199 241 284
#
# _framework density 17.574967000000001
#
# number of rings (size 3 to 8) (size 9 to 14) (size 15 to 20)
#    0.000    2.600    2.000    1.200    0.000    3.600 
#    0.000    2.000    0.000    4.200    0.000    0.000 
#    0.000    0.000    0.000    0.000    0.000    0.000 
#
# Total GULP energy -495613.293972 kJ/mol
# GULP energy per Si atom -12390.332349 kJ/mol
# Density = 1.753497 g / cm^3
# Si number density = 17.574967 Si / 1000 Ang^3
#
#
#
# Elastic Constant Matrix: (Units=GPa)
#
#
# Indices 1 2 3 4 5 6 
#
# 1 97.8739 43.7542 43.9784 0.0000 0.0000 0.0000
# 2 43.7542 71.5120 43.2372 0.0000 0.0000 0.0000
# 3 43.9784 43.2372 116.9795 0.0000 0.0000 0.0000
# 4 0.0000 0.0000 0.0000 17.1466 0.0000 0.0000
# 5 0.0000 0.0000 0.0000 0.0000 9.0585 0.0000
# 6 0.0000 0.0000 0.0000 0.0000 0.0000 0.8313
#
#
#
# Elastic Compliance Matrix: (Units=1/GPa)
#
#
# Indices 1 2 3 4 5 6 
#
# 1 0.014766 -0.007312 -0.002849 0.000000 0.000000 0.000000
# 2 -0.007312 0.021629 -0.005245 0.000000 0.000000 0.000000
# 3 -0.002849 -0.005245 0.011558 0.000000 0.000000 0.000000
# 4 0.000000 0.000000 0.000000 0.058321 0.000000 0.000000
# 5 0.000000 0.000000 0.000000 0.000000 0.110393 0.000000
# 6 0.000000 0.000000 0.000000 0.000000 0.000000 1.202918
#
#
# Mechanical properties :
#
#
# Convention : Reuss Voigt Hill
#
# Bulk Modulus (GPa) = 58.33989 60.92277 59.63133
# Shear Modulus (GPa) = 3.43381 15.76700 9.60040
#
# Velocity S-wave (km/s) = 1.39930 2.99846 2.33974
# Velocity P-wave (km/s) = 5.98980 6.83575 6.42671
#
# Compressibility (1/GPa) = 0.01714093
#
# Stress axis : x y z
#
# Youngs Moduli (GPa) = 67.72250 46.23416 86.51871
#
# Poissons Ratio (x) = 0.33808 0.24646
# Poissons Ratio (y) = 0.49520 0.45382
# Poissons Ratio (z) = 0.19292 0.24251
#
# Static dielectric constant tensor:
#      x y z
#    x 4.185070 0.000000 0.000000 
#    y 0.000000 3.106800 0.000000 
#    z 0.000000 0.000000 3.339950 
# 
# 
# High freq. dielectric constant tensor:
#      x y z
#    x 1.673680 0.000000 0.000000 
#    y 0.000000 1.645210 0.000000 
#    z 0.000000 0.000000 1.692460 
# 
# From -- ./inp_files/41319.got.cif
#   From: 2010.03.12/outbox.cif.g09.slc.cpg/sg67_21_cif.got.tgz:41319.got - 2010.04.10 22:41:39.
