data_PCOD8278963
_publ_section_title
;
Structure prediction by ZEFSAII (Michael W. Deem and Ramdas Pophale) SiO2 
 PCOD8278963
Probable space group: C M M A
;
_chemical_formula_sum "Si O2"
_cell_formula_units_Z 120
_cell_length_a 8.999287
_cell_length_b 26.389958
_cell_length_c 28.144699
_cell_angle_alpha 90.000000
_cell_angle_beta 90.000000
_cell_angle_gamma 90.000000
_cell_volume 6684.107249
_symmetry_space_group_name_H-M "C M M A"
_symmetry_group_IT_number 67
_symmetry_cell_setting 'orthorhombic'
loop_
_space_group_symop_operation_xyz
x,y,z
-x,1/2-y,z
x,-y,-z
-x,1/2+y,-z
-x,-y,-z
x,1/2+y,-z
-x,y,z
x,1/2-y,z
1/2+x,1/2+y,z
1/2-x,-y,z
1/2+x,1/2-y,-z
1/2-x,y,-z
1/2-x,1/2-y,-z
1/2+x,y,-z
1/2-x,1/2+y,z
1/2+x,-y,z
loop_
_atom_site_type_symbol
_atom_site_label
_atom_site_fract_x
_atom_site_fract_y
_atom_site_fract_z
Si Si1 0.823571 0.360729 0.051638
Si Si2 0.677139 0.054245 0.116596
Si Si3 0.825928 0.692012 0.546327
Si Si4 0.174104 0.306693 0.257667
Si Si5 0.174484 0.551651 0.313916
Si Si6 0.325517 0.856969 0.355962
Si Si7 0.173678 0.899099 0.216439
Si Si8 0.829446 0.250000 0.049267
O O1 0.744174 0.403403 0.082422
O O2 0.792840 0.304151 0.075087
O O3 0.000000 0.371673 0.048523
O O4 0.750000 0.363089 0.000000
O O5 0.500000 0.050677 0.109772
O O6 0.722405 0.070665 0.169694
O O7 0.750000 0.000000 0.104967
O O8 0.776364 0.750000 0.549705
O O9 0.750000 0.666565 0.500000
O O10 0.770315 0.666960 0.594913
O O11 0.000000 0.685628 0.540530
O O12 0.232250 0.250000 0.247538
O O13 0.214746 0.320110 0.312102
O O14 0.248962 0.344309 0.219742
O O15 0.000000 0.310468 0.249322
O O16 0.250000 0.500000 0.328438
O O17 0.232549 0.591949 0.351701
O O18 0.225423 0.567079 0.260908
O O19 0.000000 0.546035 0.317813
O O20 0.500000 0.869026 0.356351
O O21 0.000000 0.888624 0.217239
O O22 0.000000 0.250000 0.035874
O O23 0.750000 0.250000 0.000000
#
# Coordination Sequence:
#
# PCOD8278963 Si02
#       8
#    16  16  16  16  16  16  16   8
#     4  10  20  37  60  86 113 142 176 217 261 309
#     4  11  23  39  57  79 107 141 179 219 264 313
#     4   9  17  29  46  69  98 131 165 201 242 292
#     4   9  17  30  50  75 102 134 172 211 251 300
#     4  10  19  32  51  74  97 125 163 208 253 300
#     4   9  17  30  48  70  98 131 166 205 250 297
#     4   9  20  36  52  73 103 136 171 209 255 306
#     4   8  16  32  56  82 108 136 168 208 252 298
#
# _framework density 17.953032
#
# number of rings (size 3 to 8) (size 9 to 14) (size 15 to 20)
#    0.000    2.533    0.000    2.000    0.000    4.800 
#    1.200    1.333    0.000    2.800    0.000    2.800 
#    0.000    0.000    0.000    0.000    0.000    0.000 
#
# Total GULP energy -743743.762533 kJ/mol
# GULP energy per Si atom -12395.729376 kJ/mol
# Density = 1.791217 g / cm^3
# Si number density = 17.953032 Si / 1000 Ang^3
#
#
#
# Elastic Constant Matrix: (Units=GPa)
#
#
# Indices 1 2 3 4 5 6 
#
# 1 55.6897 53.6543 35.6682 0.0000 0.0000 0.0000
# 2 53.6543 151.8077 53.4673 0.0000 0.0000 0.0000
# 3 35.6682 53.4673 85.5698 0.0000 0.0000 0.0000
# 4 0.0000 0.0000 0.0000 40.3254 0.0000 0.0000
# 5 0.0000 0.0000 0.0000 0.0000 28.3056 0.0000
# 6 0.0000 0.0000 0.0000 0.0000 0.0000 31.6366
#
#
#
# Elastic Compliance Matrix: (Units=1/GPa)
#
#
# Indices 1 2 3 4 5 6 
#
# 1 0.030758 -0.008149 -0.007729 0.000000 0.000000 0.000000
# 2 -0.008149 0.010605 -0.003230 0.000000 0.000000 0.000000
# 3 -0.007729 -0.003230 0.016926 0.000000 0.000000 0.000000
# 4 0.000000 0.000000 0.000000 0.024798 0.000000 0.000000
# 5 0.000000 0.000000 0.000000 0.000000 0.035329 0.000000
# 6 0.000000 0.000000 0.000000 0.000000 0.000000 0.031609
#
#
# Mechanical properties :
#
#
# Convention : Reuss Voigt Hill
#
# Bulk Modulus (GPa) = 49.81641 64.29408 57.05525
# Shear Modulus (GPa) = 25.65006 30.07202 27.86104
#
# Velocity S-wave (km/s) = 3.78396 4.09716 3.94367
# Velocity P-wave (km/s) = 6.84832 7.63364 7.25162
#
# Compressibility (1/GPa) = 0.02007371
#
# Stress axis : x y z
#
# Youngs Moduli (GPa) = 32.51193 94.29666 59.08011
#
# Poissons Ratio (x) = 0.76840 0.45664
# Poissons Ratio (y) = 0.26493 0.19081
# Poissons Ratio (z) = 0.25129 0.30455
#
# Static dielectric constant tensor:
#      x y z
#    x 3.264960 0.000000 0.000000 
#    y 0.000000 3.421150 0.000000 
#    z 0.000000 0.000000 3.294040 
# 
# 
# High freq. dielectric constant tensor:
#      x y z
#    x 1.696730 0.000000 0.000000 
#    y 0.000000 1.700920 0.000000 
#    z 0.000000 0.000000 1.678980 
# 
# From -- ./inp_files/43904.got.cif
#   From: 2010.03.12/outbox.cif.g09.slc.cpg/sg67_22_cif.got.tgz:43904.got - 2010.04.10 22:41:39.
