data_PCOD8278781
_publ_section_title
;
Structure prediction by ZEFSAII (Michael W. Deem and Ramdas Pophale) SiO2 
 PCOD8278781
Probable space group: C M M A
;
_chemical_formula_sum "Si O2"
_cell_formula_units_Z 96
_cell_length_a 8.746041
_cell_length_b 27.285705
_cell_length_c 24.120952
_cell_angle_alpha 90.000000
_cell_angle_beta 90.000000
_cell_angle_gamma 90.000000
_cell_volume 5756.269686
_symmetry_space_group_name_H-M "C M M A"
_symmetry_group_IT_number 67
_symmetry_cell_setting 'orthorhombic'
loop_
_space_group_symop_operation_xyz
x,y,z
-x,1/2-y,z
x,-y,-z
-x,1/2+y,-z
-x,-y,-z
x,1/2+y,-z
-x,y,z
x,1/2-y,z
1/2+x,1/2+y,z
1/2-x,-y,z
1/2+x,1/2-y,-z
1/2-x,y,-z
1/2-x,1/2-y,-z
1/2+x,y,-z
1/2-x,1/2+y,z
1/2+x,-y,z
loop_
_atom_site_type_symbol
_atom_site_label
_atom_site_fract_x
_atom_site_fract_y
_atom_site_fract_z
Si Si1 0.678037 0.307457 0.175756
Si Si2 0.320961 0.640312 0.276974
Si Si3 0.680278 0.696518 0.384723
Si Si4 0.181959 0.099723 0.441497
Si Si5 0.818785 0.051364 0.664794
Si Si6 0.678547 0.694726 0.946326
O O1 0.500000 0.315933 0.188944
O O2 0.717674 0.250000 0.180785
O O3 0.780930 0.338761 0.217058
O O4 0.719230 0.327805 0.113966
O O5 0.500000 0.628289 0.280927
O O6 0.272381 0.680513 0.322790
O O7 0.228051 0.590744 0.288654
O O8 0.500000 0.700842 0.388573
O O9 0.754504 0.750000 0.397657
O O10 0.736730 0.655569 0.428431
O O11 0.250000 0.083241 0.500000
O O12 0.247395 0.064017 0.394888
O O13 0.000000 0.095173 0.441808
O O14 0.000000 0.048528 0.659600
O O15 0.750000 0.000000 0.684767
O O16 0.500000 0.694326 0.954667
O O17 0.742765 0.750000 0.945638
O O18 0.750000 0.666566 0.000000
#
# Coordination Sequence:
#
# PCOD8278781 Si02
#       6
#    16  16  16  16  16  16
#     4   9  17  28  42  64  96 132 166 200 238 277
#     4  10  19  31  48  71  96 122 156 194 232 279
#     4   8  15  28  45  65  92 124 154 186 222 260
#     4  10  20  34  51  73  98 123 154 189 226 272
#     4  11  22  38  57  74  93 117 146 185 236 287
#     4   8  14  24  37  55  84 123 165 204 238 272
#
# _framework density 16.677468000000001
#
# number of rings (size 3 to 8) (size 9 to 14) (size 15 to 20)
#    0.000    2.667    0.000    5.000    0.000    2.333 
#    0.000    3.333    0.000    9.500    0.000    0.000 
#    0.000    0.667    0.000    7.000    0.000    4.167 
#
# Total GULP energy -594920.825644 kJ/mol
# GULP energy per Si atom -12394.183868 kJ/mol
# Density = 1.663951 g / cm^3
# Si number density = 16.677468 Si / 1000 Ang^3
#
#
#
# Elastic Constant Matrix: (Units=GPa)
#
#
# Indices 1 2 3 4 5 6 
#
# 1 72.4860 22.5002 31.0913 0.0000 0.0000 0.0000
# 2 22.5002 68.6267 16.2930 0.0000 0.0000 0.0000
# 3 31.0913 16.2930 101.3834 0.0000 0.0000 0.0000
# 4 0.0000 0.0000 0.0000 3.3477 0.0000 0.0000
# 5 0.0000 0.0000 0.0000 0.0000 29.7520 0.0000
# 6 0.0000 0.0000 0.0000 0.0000 0.0000 20.9818
#
#
#
# Elastic Compliance Matrix: (Units=1/GPa)
#
#
# Indices 1 2 3 4 5 6 
#
# 1 0.017150 -0.004548 -0.004529 0.000000 0.000000 0.000000
# 2 -0.004548 0.016356 -0.001234 0.000000 0.000000 0.000000
# 3 -0.004529 -0.001234 0.011451 0.000000 0.000000 0.000000
# 4 0.000000 0.000000 0.000000 0.298713 0.000000 0.000000
# 5 0.000000 0.000000 0.000000 0.000000 0.033611 0.000000
# 6 0.000000 0.000000 0.000000 0.000000 0.000000 0.047660
#
#
# Mechanical properties :
#
#
# Convention : Reuss Voigt Hill
#
# Bulk Modulus (GPa) = 41.09145 42.47391 41.78268
# Shear Modulus (GPa) = 11.02117 22.32373 16.67245
#
# Velocity S-wave (km/s) = 2.57347 3.66260 3.16523
# Velocity P-wave (km/s) = 5.78988 6.58857 6.20210
#
# Compressibility (1/GPa) = 0.02433597
#
# Stress axis : x y z
#
# Youngs Moduli (GPa) = 58.30971 61.14145 87.33179
#
# Poissons Ratio (x) = 0.27805 0.39548
# Poissons Ratio (y) = 0.26517 0.10775
# Poissons Ratio (z) = 0.26406 0.07544
#
# Static dielectric constant tensor:
#      x y z
#    x 3.011830 0.000000 0.000000 
#    y 0.000000 3.108870 0.000000 
#    z 0.000000 0.000000 3.241310 
# 
# 
# High freq. dielectric constant tensor:
#      x y z
#    x 1.638450 0.000000 0.000000 
#    y 0.000000 1.609700 0.000000 
#    z 0.000000 0.000000 1.641690 
# 
# From -- ./inp_files/40771.got.cif
#   From: 2010.03.12/outbox.cif.g09.slc.cpg/sg67_21_cif.got.tgz:40771.got - 2010.04.10 22:41:39.
