data_PCOD8278119
_publ_section_title
;
Structure prediction by ZEFSAII (Michael W. Deem and Ramdas Pophale) SiO2 
 PCOD8278119
Probable space group: C M M A
;
_chemical_formula_sum "Si O2"
_cell_formula_units_Z 88
_cell_length_a 13.365060
_cell_length_b 21.358639
_cell_length_c 15.113860
_cell_angle_alpha 90.000000
_cell_angle_beta 90.000000
_cell_angle_gamma 90.000000
_cell_volume 4314.394794
_symmetry_space_group_name_H-M "C M M A"
_symmetry_group_IT_number 67
_symmetry_cell_setting 'orthorhombic'
loop_
_space_group_symop_operation_xyz
x,y,z
-x,1/2-y,z
x,-y,-z
-x,1/2+y,-z
-x,-y,-z
x,1/2+y,-z
-x,y,z
x,1/2-y,z
1/2+x,1/2+y,z
1/2-x,-y,z
1/2+x,1/2-y,-z
1/2-x,y,-z
1/2-x,1/2-y,-z
1/2+x,y,-z
1/2-x,1/2+y,z
1/2+x,-y,z
loop_
_atom_site_type_symbol
_atom_site_label
_atom_site_fract_x
_atom_site_fract_y
_atom_site_fract_z
Si Si1 0.250000 0.908534 0.000000
Si Si2 0.708765 0.320536 0.240052
Si Si3 0.769694 0.600347 0.399984
Si Si4 0.885584 0.821277 0.885726
Si Si5 0.886882 0.993231 0.669827
Si Si6 0.614870 0.063738 0.151681
O O1 0.336832 0.865267 0.040616
O O2 0.191526 0.951649 0.071574
O O3 0.668756 0.250000 0.228770
O O4 0.705865 0.337658 0.344054
O O5 0.822544 0.327239 0.204870
O O6 0.634930 0.365698 0.185639
O O7 0.750000 0.620838 0.500000
O O8 0.860393 0.550401 0.396612
O O9 0.675512 0.567988 0.352632
O O10 0.882675 0.750000 0.921049
O O11 0.000000 0.842552 0.867108
O O12 0.863918 0.013871 0.770656
O O13 0.000000 0.974605 0.655086
O O14 0.500000 0.058991 0.119948
#
# Coordination Sequence:
#
# PCOD8278119 Si02
#       6
#     8  16  16  16  16  16
#     4  10  17  28  48  77 106 130 169 219 262 300
#     4   9  19  34  50  73 106 141 174 210 258 313
#     4  10  20  33  54  82 103 128 172 219 262 309
#     4   9  17  29  45  66  97 138 178 212 247 295
#     4   9  18  34  54  76 104 136 171 212 258 308
#     4   9  18  32  52  78 107 140 176 212 252 304
#
# _framework density 20.396836
#
# number of rings (size 3 to 8) (size 9 to 14) (size 15 to 20)
#    0.000    2.727    0.000    1.909    0.000    3.636 
#    0.000    0.000    0.000   20.727    0.000   58.545 
#    0.000    0.000    0.000    0.000    0.000    0.000 
#
# Total GULP energy -545508.491625 kJ/mol
# GULP energy per Si atom -12397.920264 kJ/mol
# Density = 2.035041 g / cm^3
# Si number density = 20.396836 Si / 1000 Ang^3
#
#
#
# Elastic Constant Matrix: (Units=GPa)
#
#
# Indices 1 2 3 4 5 6 
#
# 1 105.3262 14.5436 24.8535 0.0000 0.0000 0.0000
# 2 14.5436 37.5743 9.5332 0.0000 0.0000 0.0000
# 3 24.8535 9.5332 103.9125 0.0000 0.0000 0.0000
# 4 0.0000 0.0000 0.0000 -68.8743 0.0000 0.0000
# 5 0.0000 0.0000 0.0000 0.0000 22.4283 0.0000
# 6 0.0000 0.0000 0.0000 0.0000 0.0000 13.5048
#
#
#
# Elastic Compliance Matrix: (Units=1/GPa)
#
#
# Indices 1 2 3 4 5 6 
#
# 1 0.010495 -0.003507 -0.002188 0.000000 0.000000 0.000000
# 2 -0.003507 0.028420 -0.001769 0.000000 0.000000 0.000000
# 3 -0.002188 -0.001769 0.010309 0.000000 0.000000 0.000000
# 4 0.000000 0.000000 0.000000 -0.014519 0.000000 0.000000
# 5 0.000000 0.000000 0.000000 0.000000 0.044587 0.000000
# 6 0.000000 0.000000 0.000000 0.000000 0.000000 0.074048
#
#
# Mechanical properties :
#
#
# Convention : Reuss Voigt Hill
#
# Bulk Modulus (GPa) = 29.15763 38.29705 33.72734
# Shear Modulus (GPa) = 27.82432 6.60396 17.21414
#
# Velocity S-wave (km/s) = 3.69745 1.80132 2.90825
# Velocity P-wave (km/s) = 5.70564 4.81073 5.27719
#
# Compressibility (1/GPa) = 0.03429634
#
# Stress axis : x y z
#
# Youngs Moduli (GPa) = 95.28391 35.18640 97.00120
#
# Poissons Ratio (x) = 0.12340 0.21228
# Poissons Ratio (y) = 0.33416 0.17155
# Poissons Ratio (z) = 0.20852 0.06223
#
# Static dielectric constant tensor:
#      x y z
#    x 3.764590 0.000000 0.000000 
#    y 0.000000 3.486300 0.000000 
#    z 0.000000 0.000000 3.706930 
# 
# 
# High freq. dielectric constant tensor:
#      x y z
#    x 1.798380 0.000000 0.000000 
#    y 0.000000 1.782040 0.000000 
#    z 0.000000 0.000000 1.788570 
# 
# From -- ./inp_files/27348.got.cif
#   From: 2010.03.12/outbox.cif.g09.slc.cpg/sg67_14_cif.got.tgz:27348.got - 2010.04.10 22:41:39.
