data_PCOD8278527
_publ_section_title
;
Structure prediction by ZEFSAII (Michael W. Deem and Ramdas Pophale) SiO2 
 PCOD8278527
Probable space group: C M M A
;
_chemical_formula_sum "Si O2"
_cell_formula_units_Z 80
_cell_length_a 15.085768
_cell_length_b 23.056174
_cell_length_c 10.387271
_cell_angle_alpha 90.000000
_cell_angle_beta 90.000000
_cell_angle_gamma 90.000000
_cell_volume 3612.901554
_symmetry_space_group_name_H-M "C M M A"
_symmetry_group_IT_number 67
_symmetry_cell_setting 'orthorhombic'
loop_
_space_group_symop_operation_xyz
x,y,z
-x,1/2-y,z
x,-y,-z
-x,1/2+y,-z
-x,-y,-z
x,1/2+y,-z
-x,y,z
x,1/2-y,z
1/2+x,1/2+y,z
1/2-x,-y,z
1/2+x,1/2-y,-z
1/2-x,y,-z
1/2-x,1/2-y,-z
1/2+x,y,-z
1/2-x,1/2+y,z
1/2+x,-y,z
loop_
_atom_site_type_symbol
_atom_site_label
_atom_site_fract_x
_atom_site_fract_y
_atom_site_fract_z
Si Si1 0.101018 0.875003 0.992577
Si Si2 0.605905 0.421887 0.256414
Si Si3 0.157949 0.750000 0.924716
Si Si4 0.894871 0.750000 0.639638
Si Si5 0.895218 0.370720 0.479883
Si Si6 0.605845 0.446496 0.753661
O O1 0.145252 0.889666 0.130351
O O2 0.000000 0.894819 0.000993
O O3 0.105091 0.806852 0.966859
O O4 0.145313 0.913068 0.878690
O O5 0.500000 0.420112 0.260713
O O6 0.644964 0.389104 0.381849
O O7 0.640422 0.487848 0.251288
O O8 0.163826 0.750000 0.769592
O O9 0.250000 0.750000 0.000000
O O10 0.868250 0.694877 0.553646
O O11 0.000000 0.750000 0.675871
O O12 0.856773 0.413886 0.371880
O O13 0.000000 0.376939 0.484202
O O14 0.500000 0.443710 0.755873
#
# Coordination Sequence:
#
# PCOD8278527 Si02
#       6
#    16  16   8   8  16  16
#     4  10  19  33  54  78 106 139 172 216 267 314
#     4   9  17  27  45  80 115 136 165 214 265 309
#     4  12  24  37  54  74 100 134 184 226 263 313
#     4  10  18  33  54  77 104 144 189 219 262 322
#     4   9  16  26  46  76 112 144 170 208 256 308
#     4   9  15  26  47  76 110 142 170 205 257 313
#
# _framework density 22.142866999999999
#
# number of rings (size 3 to 8) (size 9 to 14) (size 15 to 20)
#    0.000    2.400    2.000    2.100    0.000    5.600 
#    0.000    3.000    0.000    4.800    0.000    0.000 
#    6.000    0.000    0.000    0.000    0.000    0.000 
#
# Total GULP energy -495868.027503 kJ/mol
# GULP energy per Si atom -12396.700688 kJ/mol
# Density = 2.209247 g / cm^3
# Si number density = 22.142867 Si / 1000 Ang^3
#
#
#
# Elastic Constant Matrix: (Units=GPa)
#
#
# Indices 1 2 3 4 5 6 
#
# 1 20.3828 -8.4485 4.7247 0.0000 0.0000 0.0000
# 2 -8.4485 208.4652 126.1958 0.0000 0.0000 0.0000
# 3 4.7247 126.1958 251.9608 0.0000 0.0000 0.0000
# 4 0.0000 0.0000 0.0000 40.3231 0.0000 0.0000
# 5 0.0000 0.0000 0.0000 0.0000 4.4949 0.0000
# 6 0.0000 0.0000 0.0000 0.0000 0.0000 -3.1607
#
#
#
# Elastic Compliance Matrix: (Units=1/GPa)
#
#
# Indices 1 2 3 4 5 6 
#
# 1 0.051311 0.003820 -0.002876 0.000000 0.000000 0.000000
# 2 0.003820 0.007169 -0.003662 0.000000 0.000000 0.000000
# 3 -0.002876 -0.003662 0.005857 0.000000 0.000000 0.000000
# 4 0.000000 0.000000 0.000000 0.024800 0.000000 0.000000
# 5 0.000000 0.000000 0.000000 0.000000 0.222475 0.000000
# 6 0.000000 0.000000 0.000000 0.000000 0.000000 -0.316384
#
#
# Mechanical properties :
#
#
# Convention : Reuss Voigt Hill
#
# Bulk Modulus (GPa) = 16.97739 80.63918 48.80829
# Shear Modulus (GPa) = 246.34365 32.22057 139.28211
#
# Velocity S-wave (km/s) = 10.55905 3.81874 7.93966
# Velocity P-wave (km/s) = 12.50367 7.47934 10.30248
#
# Compressibility (1/GPa) = 0.05890185
#
# Stress axis : x y z
#
# Youngs Moduli (GPa) = 19.48898 139.49606 170.73668
#
# Poissons Ratio (x) = -0.53291 0.49096
# Poissons Ratio (y) = -0.07445 0.62525
# Poissons Ratio (z) = 0.05604 0.51085
#
# Static dielectric constant tensor:
#      x y z
#    x 3.221300 0.000000 0.000000 
#    y 0.000000 4.073640 0.000000 
#    z 0.000000 0.000000 4.456030 
# 
# 
# High freq. dielectric constant tensor:
#      x y z
#    x 1.813080 0.000000 0.000000 
#    y 0.000000 1.881560 0.000000 
#    z 0.000000 0.000000 1.888440 
# 
# From -- ./inp_files/11127.got.cif
#   From: 2010.03.12/outbox.cif.g09.slc.cpg/sg67_6_cif.got.tgz:11127.got - 2010.04.10 22:41:39.
