data_PCOD8278971
_publ_section_title
;
Structure prediction by ZEFSAII (Michael W. Deem and Ramdas Pophale) SiO2 
 PCOD8278971
Probable space group: C M M A
;
_chemical_formula_sum "Si O2"
_cell_formula_units_Z 104
_cell_length_a 9.576520
_cell_length_b 21.111022
_cell_length_c 28.227464
_cell_angle_alpha 90.000000
_cell_angle_beta 90.000000
_cell_angle_gamma 90.000000
_cell_volume 5706.749908
_symmetry_space_group_name_H-M "C M M A"
_symmetry_group_IT_number 67
_symmetry_cell_setting 'orthorhombic'
loop_
_space_group_symop_operation_xyz
x,y,z
-x,1/2-y,z
x,-y,-z
-x,1/2+y,-z
-x,-y,-z
x,1/2+y,-z
-x,y,z
x,1/2-y,z
1/2+x,1/2+y,z
1/2-x,-y,z
1/2+x,1/2-y,-z
1/2-x,y,-z
1/2-x,1/2-y,-z
1/2+x,y,-z
1/2-x,1/2+y,z
1/2+x,-y,z
loop_
_atom_site_type_symbol
_atom_site_label
_atom_site_fract_x
_atom_site_fract_y
_atom_site_fract_z
Si Si1 0.000000 0.554764 0.566912
Si Si2 0.160054 0.823336 0.304842
Si Si3 0.828875 0.938502 0.950401
Si Si4 0.755093 0.869269 0.596493
Si Si5 0.165237 0.820698 0.884898
Si Si6 0.654553 0.175188 0.780502
Si Si7 0.500000 0.410974 0.460902
Si Si8 0.348672 0.750000 0.455288
O O1 0.139018 0.571547 0.596164
O O2 0.000000 0.592801 0.517399
O O3 0.000000 0.481132 0.558825
O O4 0.195968 0.750000 0.314876
O O5 0.192995 0.864089 0.351163
O O6 0.247319 0.851930 0.260907
O O7 0.000000 0.831795 0.290927
O O8 0.789522 0.875500 0.921103
O O9 0.000000 0.947578 0.954797
O O10 0.750000 0.000000 0.927132
O O11 0.750000 0.928497 0.000000
O O12 0.635543 0.875811 0.557497
O O13 0.837663 0.807814 0.580827
O O14 0.222748 0.750000 0.899538
O O15 0.218887 0.840489 0.832409
O O16 0.000000 0.815919 0.882137
O O17 0.500000 0.145158 0.774572
O O18 0.644603 0.250000 0.775378
O O19 0.500000 0.750000 0.479091
O O20 0.250000 0.750000 0.500000
#
# Coordination Sequence:
#
# PCOD8278971 Si02
#       8
#     8  16  16  16  16  16   8   8
#     4  11  24  41  61  81  99 138 187 223 248 311
#     4  10  20  34  50  78 114 144 168 205 269 329
#     4  10  19  32  51  75 109 150 190 228 271 327
#     4  12  23  38  58  83 111 137 172 216 265 322
#     4   8  15  30  52  80 107 137 181 232 281 320
#     4   8  15  29  53  78 102 133 176 223 263 315
#     4  11  24  43  61  77 103 140 181 219 264 303
#     4  12  26  38  56  84 116 142 166 208 271 326
#
# _framework density 18.224032000000001
#
# number of rings (size 3 to 8) (size 9 to 14) (size 15 to 20)
#    0.000    2.000    2.308    3.692    2.154    1.538 
#    0.000    1.538    0.000    5.077    0.000    0.000 
#    0.000    0.000    0.000    0.000    0.000    0.000 
#
# Total GULP energy -644460.169680 kJ/mol
# GULP energy per Si atom -12393.464802 kJ/mol
# Density = 1.818255 g / cm^3
# Si number density = 18.224032 Si / 1000 Ang^3
#
#
#
# Elastic Constant Matrix: (Units=GPa)
#
#
# Indices 1 2 3 4 5 6 
#
# 1 99.8624 28.2065 34.2471 0.0000 0.0000 0.0000
# 2 28.2065 74.2725 46.0043 0.0000 0.0000 0.0000
# 3 34.2471 46.0043 94.3199 0.0000 0.0000 0.0000
# 4 0.0000 0.0000 0.0000 11.6662 0.0000 0.0000
# 5 0.0000 0.0000 0.0000 0.0000 24.2273 0.0000
# 6 0.0000 0.0000 0.0000 0.0000 0.0000 47.6677
#
#
#
# Elastic Compliance Matrix: (Units=1/GPa)
#
#
# Indices 1 2 3 4 5 6 
#
# 1 0.011782 -0.002615 -0.003003 0.000000 0.000000 0.000000
# 2 -0.002615 0.019873 -0.008743 0.000000 0.000000 0.000000
# 3 -0.003003 -0.008743 0.015957 0.000000 0.000000 0.000000
# 4 0.000000 0.000000 0.000000 0.085718 0.000000 0.000000
# 5 0.000000 0.000000 0.000000 0.000000 0.041276 0.000000
# 6 0.000000 0.000000 0.000000 0.000000 0.000000 0.020979
#
#
# Mechanical properties :
#
#
# Convention : Reuss Voigt Hill
#
# Bulk Modulus (GPa) = 52.93766 53.93008 53.43387
# Shear Modulus (GPa) = 21.68234 27.37869 24.53051
#
# Velocity S-wave (km/s) = 3.45304 3.88021 3.67284
# Velocity P-wave (km/s) = 6.70890 7.05208 6.88263
#
# Compressibility (1/GPa) = 0.01889014
#
# Stress axis : x y z
#
# Youngs Moduli (GPa) = 84.87487 50.32060 62.66805
#
# Poissons Ratio (x) = 0.13157 0.18818
# Poissons Ratio (y) = 0.22191 0.54794
# Poissons Ratio (z) = 0.25486 0.43998
#
# Static dielectric constant tensor:
#      x y z
#    x 3.476280 0.000000 0.000000 
#    y 0.000000 3.473640 0.000000 
#    z 0.000000 0.000000 3.438210 
# 
# 
# High freq. dielectric constant tensor:
#      x y z
#    x 1.705700 0.000000 0.000000 
#    y 0.000000 1.687550 0.000000 
#    z 0.000000 0.000000 1.698840 
# 
# From -- ./inp_files/43768.got.cif
#   From: 2010.03.12/outbox.cif.g09.slc.cpg/sg67_22_cif.got.tgz:43768.got - 2010.04.10 22:41:39.
