data_PCOD8278222
_publ_section_title
;
Structure prediction by ZEFSAII (Michael W. Deem and Ramdas Pophale) SiO2 
 PCOD8278222
Probable space group: C M M A
;
_chemical_formula_sum "Si O2"
_cell_formula_units_Z 68
_cell_length_a 23.876849
_cell_length_b 10.638240
_cell_length_c 15.793039
_cell_angle_alpha 90.000000
_cell_angle_beta 90.000000
_cell_angle_gamma 90.000000
_cell_volume 4011.552724
_symmetry_space_group_name_H-M "C M M A"
_symmetry_group_IT_number 67
_symmetry_cell_setting 'orthorhombic'
loop_
_space_group_symop_operation_xyz
x,y,z
-x,1/2-y,z
x,-y,-z
-x,1/2+y,-z
-x,-y,-z
x,1/2+y,-z
-x,y,z
x,1/2-y,z
1/2+x,1/2+y,z
1/2-x,-y,z
1/2+x,1/2-y,-z
1/2-x,y,-z
1/2-x,1/2-y,-z
1/2+x,y,-z
1/2-x,1/2+y,z
1/2+x,-y,z
loop_
_atom_site_type_symbol
_atom_site_label
_atom_site_fract_x
_atom_site_fract_y
_atom_site_fract_z
Si Si1 0.812494 0.497127 0.822391
Si Si2 0.250000 0.000000 0.500000
Si Si3 0.815811 0.250000 0.100673
Si Si4 0.062169 0.889561 0.434714
Si Si5 0.323447 0.890637 0.646666
Si Si6 0.317471 0.750000 0.906545
O O1 0.750000 0.500000 0.860266
O O2 0.841498 0.627095 0.852084
O O3 0.809056 0.489391 0.720296
O O4 0.843386 0.374853 0.862044
O O5 0.290246 0.082673 0.440274
O O6 0.748983 0.250000 0.106941
O O7 0.835798 0.250000 0.003944
O O8 0.066673 0.750000 0.477687
O O9 0.109622 0.900680 0.363924
O O10 0.000000 0.906058 0.394347
O O11 0.073787 0.000000 0.500000
O O12 0.306737 0.750000 0.676080
#
# Coordination Sequence:
#
# PCOD8278222 Si02
#       6
#    16   4   8  16  16   8
#     4  10  18  29  45  65  95 126 155 197 233 281
#     4  12  22  32  46  70  94 142 164 202 230 290
#     4   9  18  28  44  68  89 122 163 189 232 287
#     4   9  18  34  53  70  89 121 166 212 249 280
#     4  11  21  34  47  69  99 131 170 198 239 287
#     4   9  16  30  46  62  91 126 157 193 236 283
#
# _framework density 16.951042999999999
#
# number of rings (size 3 to 8) (size 9 to 14) (size 15 to 20)
#    0.000    2.118    3.529    1.059    0.000    2.824 
#    4.235    0.000    0.000    0.000    0.000    0.000 
#    0.000    5.647    0.000    0.000    0.000    0.000 
#
# Total GULP energy -421316.193389 kJ/mol
# GULP energy per Si atom -12391.652747 kJ/mol
# Density = 1.691246 g / cm^3
# Si number density = 16.951043 Si / 1000 Ang^3
#
#
#
# Elastic Constant Matrix: (Units=GPa)
#
#
# Indices 1 2 3 4 5 6 
#
# 1 46.1618 19.9752 13.2533 0.0000 0.0000 0.0000
# 2 19.9752 147.5473 60.2636 0.0000 0.0000 0.0000
# 3 13.2533 60.2636 105.4250 0.0000 0.0000 0.0000
# 4 0.0000 0.0000 0.0000 34.1955 0.0000 0.0000
# 5 0.0000 0.0000 0.0000 0.0000 6.9567 0.0000
# 6 0.0000 0.0000 0.0000 0.0000 0.0000 13.4918
#
#
#
# Elastic Compliance Matrix: (Units=1/GPa)
#
#
# Indices 1 2 3 4 5 6 
#
# 1 0.023182 -0.002542 -0.001462 0.000000 0.000000 0.000000
# 2 -0.002542 0.009120 -0.004894 0.000000 0.000000 0.000000
# 3 -0.001462 -0.004894 0.012467 0.000000 0.000000 0.000000
# 4 0.000000 0.000000 0.000000 0.029244 0.000000 0.000000
# 5 0.000000 0.000000 0.000000 0.000000 0.143745 0.000000
# 6 0.000000 0.000000 0.000000 0.000000 0.000000 0.074119
#
#
# Mechanical properties :
#
#
# Convention : Reuss Voigt Hill
#
# Bulk Modulus (GPa) = 37.07081 54.01315 45.54198
# Shear Modulus (GPa) = 15.69054 24.63828 20.16441
#
# Velocity S-wave (km/s) = 3.04573 3.81661 3.45275
# Velocity P-wave (km/s) = 5.85538 7.16627 6.54373
#
# Compressibility (1/GPa) = 0.02697540
#
# Stress axis : x y z
#
# Youngs Moduli (GPa) = 43.13632 109.64382 80.21386
#
# Poissons Ratio (x) = 0.27866 0.11723
# Poissons Ratio (y) = 0.10963 0.39256
# Poissons Ratio (z) = 0.06304 0.53659
#
# Static dielectric constant tensor:
#      x y z
#    x 2.865230 0.000000 0.000000 
#    y 0.000000 3.597040 0.000000 
#    z 0.000000 0.000000 2.960770 
# 
# 
# High freq. dielectric constant tensor:
#      x y z
#    x 1.596200 0.000000 0.000000 
#    y 0.000000 1.677800 0.000000 
#    z 0.000000 0.000000 1.638530 
# 
# From -- ./inp_files/26061.got.cif
#   From: 2010.03.12/outbox.cif.g09.slc.cpg/sg67_14_cif.got.tgz:26061.got - 2010.04.10 22:41:39.
