data_PCOD8278430
_publ_section_title
;
Structure prediction by ZEFSAII (Michael W. Deem and Ramdas Pophale) SiO2 
 PCOD8278430
Probable space group: C M M A
;
_chemical_formula_sum "Si O2"
_cell_formula_units_Z 80
_cell_length_a 17.619574
_cell_length_b 15.260049
_cell_length_c 15.519281
_cell_angle_alpha 90.000000
_cell_angle_beta 90.000000
_cell_angle_gamma 90.000000
_cell_volume 4172.755410
_symmetry_space_group_name_H-M "C M M A"
_symmetry_group_IT_number 67
_symmetry_cell_setting 'orthorhombic'
loop_
_space_group_symop_operation_xyz
x,y,z
-x,1/2-y,z
x,-y,-z
-x,1/2+y,-z
-x,-y,-z
x,1/2+y,-z
-x,y,z
x,1/2-y,z
1/2+x,1/2+y,z
1/2-x,-y,z
1/2+x,1/2-y,-z
1/2-x,y,-z
1/2-x,1/2-y,-z
1/2+x,y,-z
1/2-x,1/2+y,z
1/2+x,-y,z
loop_
_atom_site_type_symbol
_atom_site_label
_atom_site_fract_x
_atom_site_fract_y
_atom_site_fract_z
Si Si1 0.800524 0.651384 0.581087
Si Si2 0.083275 0.649942 0.827899
Si Si3 0.704991 0.090331 0.268267
Si Si4 0.414406 0.970879 0.336340
Si Si5 0.734827 0.899262 0.091697
O O1 0.834072 0.750000 0.569304
O O2 0.750000 0.623521 0.500000
O O3 0.745667 0.653882 0.664376
O O4 0.866113 0.576916 0.587966
O O5 0.100478 0.750000 0.804405
O O6 0.086720 0.598640 0.739516
O O7 0.145755 0.613877 0.892437
O O8 0.000000 0.638841 0.871031
O O9 0.711821 0.134278 0.172184
O O10 0.750000 0.000000 0.262666
O O11 0.620793 0.063674 0.302018
O O12 0.500000 0.990118 0.368646
O O13 0.750000 0.000000 0.077591
O O14 0.750000 0.850259 0.000000
#
# Coordination Sequence:
#
# PCOD8278430 Si02
#       5
#    16  16  16  16  16
#     4  10  20  34  54  79 104 133 169 211 262 311
#     4  10  19  32  51  77 106 133 170 223 270 301
#     4   9  17  33  50  73 105 138 171 213 250 307
#     4  10  19  33  54  79 104 133 172 215 264 307
#     4  10  18  32  51  76 108 143 180 210 254 318
#
# _framework density 19.171983999999998
#
# number of rings (size 3 to 8) (size 9 to 14) (size 15 to 20)
#    0.000    2.200    6.000    0.600    0.000    5.200 
#    0.000    5.000    0.000    1.800    0.000    0.000 
#    0.000    0.000    0.000    0.000    0.000    0.000 
#
# Total GULP energy -495538.540102 kJ/mol
# GULP energy per Si atom -12388.463503 kJ/mol
# Density = 1.912835 g / cm^3
# Si number density = 19.171984 Si / 1000 Ang^3
#
#
#
# Elastic Constant Matrix: (Units=GPa)
#
#
# Indices 1 2 3 4 5 6 
#
# 1 140.5783 26.5105 36.1703 0.0000 0.0000 0.0000
# 2 26.5105 30.1565 -2.4948 0.0000 0.0000 0.0000
# 3 36.1703 -2.4948 110.3741 0.0000 0.0000 0.0000
# 4 0.0000 0.0000 0.0000 32.1592 0.0000 0.0000
# 5 0.0000 0.0000 0.0000 0.0000 30.7831 0.0000
# 6 0.0000 0.0000 0.0000 0.0000 0.0000 17.8102
#
#
#
# Elastic Compliance Matrix: (Units=1/GPa)
#
#
# Indices 1 2 3 4 5 6 
#
# 1 0.009623 -0.008737 -0.003351 0.000000 0.000000 0.000000
# 2 -0.008737 0.041155 0.003793 0.000000 0.000000 0.000000
# 3 -0.003351 0.003793 0.010244 0.000000 0.000000 0.000000
# 4 0.000000 0.000000 0.000000 0.031095 0.000000 0.000000
# 5 0.000000 0.000000 0.000000 0.000000 0.032485 0.000000
# 6 0.000000 0.000000 0.000000 0.000000 0.000000 0.056148
#
#
# Mechanical properties :
#
#
# Convention : Reuss Voigt Hill
#
# Bulk Modulus (GPa) = 22.50595 44.60899 33.55747
# Shear Modulus (GPa) = 23.56812 30.87869 27.22340
#
# Velocity S-wave (km/s) = 3.50994 4.01760 3.77232
# Velocity P-wave (km/s) = 5.30949 6.69625 6.04279
#
# Compressibility (1/GPa) = 0.04443270
#
# Stress axis : x y z
#
# Youngs Moduli (GPa) = 103.91391 24.29845 97.61796
#
# Poissons Ratio (x) = 0.21230 0.32713
# Poissons Ratio (y) = 0.90790 -0.37031
# Poissons Ratio (z) = 0.34823 -0.09217
#
# Static dielectric constant tensor:
#      x y z
#    x 4.036260 0.000000 0.000000 
#    y 0.000000 3.318540 0.000000 
#    z 0.000000 0.000000 4.157430 
# 
# 
# High freq. dielectric constant tensor:
#      x y z
#    x 1.732060 0.000000 0.000000 
#    y 0.000000 1.723150 0.000000 
#    z 0.000000 0.000000 1.742740 
# 
# From -- ./inp_files/28361.got.cif
#   From: 2010.03.12/outbox.cif.g09.slc.cpg/sg67_15_cif.got.tgz:28361.got - 2010.04.10 22:41:39.
