data_PCOD8278856
_publ_section_title
;
Structure prediction by ZEFSAII (Michael W. Deem and Ramdas Pophale) SiO2 
 PCOD8278856
Probable space group: C M M A
;
_chemical_formula_sum "Si O2"
_cell_formula_units_Z 88
_cell_length_a 9.215753
_cell_length_b 15.213584
_cell_length_c 30.131760
_cell_angle_alpha 90.000000
_cell_angle_beta 90.000000
_cell_angle_gamma 90.000000
_cell_volume 4224.612334
_symmetry_space_group_name_H-M "C M M A"
_symmetry_group_IT_number 67
_symmetry_cell_setting 'orthorhombic'
loop_
_space_group_symop_operation_xyz
x,y,z
-x,1/2-y,z
x,-y,-z
-x,1/2+y,-z
-x,-y,-z
x,1/2+y,-z
-x,y,z
x,1/2-y,z
1/2+x,1/2+y,z
1/2-x,-y,z
1/2+x,1/2-y,-z
1/2-x,y,-z
1/2-x,1/2-y,-z
1/2+x,y,-z
1/2-x,1/2+y,z
1/2+x,-y,z
loop_
_atom_site_type_symbol
_atom_site_label
_atom_site_fract_x
_atom_site_fract_y
_atom_site_fract_z
Si Si1 0.672152 0.913928 0.106225
Si Si2 0.337121 0.854993 0.542383
Si Si3 0.662842 0.645506 0.276501
Si Si4 0.330776 0.750000 0.046128
Si Si5 0.665834 0.145597 0.192242
Si Si6 0.336910 0.645450 0.374358
O O1 0.500000 0.926884 0.109148
O O2 0.715874 0.834882 0.073976
O O3 0.733876 0.896956 0.155009
O O4 0.750000 0.000000 0.086250
O O5 0.500000 0.890676 0.539256
O O6 0.333414 0.750000 0.542810
O O7 0.250000 0.891388 0.500000
O O8 0.267159 0.893515 0.587601
O O9 0.500000 0.611224 0.266275
O O10 0.661543 0.750000 0.275718
O O11 0.774738 0.610309 0.239520
O O12 0.714145 0.613065 0.325399
O O13 0.500000 0.750000 0.036084
O O14 0.250000 0.750000 0.000000
O O15 0.500000 0.114318 0.186444
O O16 0.678287 0.250000 0.188981
O O17 0.500000 0.612772 0.383789
O O18 0.332429 0.750000 0.375965
#
# Coordination Sequence:
#
# PCOD8278856 Si02
#       6
#    16  16  16   8  16  16
#     4  11  23  41  63  91 123 160 202 245 295 349
#     4   9  15  20  26  36  53  83 126 180 242 306
#     4   8  14  24  39  59  85 120 159 205 262 324
#     4  10  24  44  68  94 126 164 202 246 297 348
#     4  10  19  31  51  79 109 144 185 231 281 336
#     4   8  13  21  31  44  65  95 136 187 245 308
#
# _framework density 20.830314999999999
#
# number of rings (size 3 to 8) (size 9 to 14) (size 15 to 20)
#    0.000    2.727    0.909    2.727    0.000    5.455 
#    0.000    5.455    0.000    0.000    0.000    0.000 
#    0.000    0.000    0.000    0.000    0.000    0.909 
#
# Total GULP energy -545490.822423 kJ/mol
# GULP energy per Si atom -12397.518691 kJ/mol
# Density = 2.078290 g / cm^3
# Si number density = 20.830315 Si / 1000 Ang^3
#
#
#
# Elastic Constant Matrix: (Units=GPa)
#
#
# Indices 1 2 3 4 5 6 
#
# 1 141.1074 40.6335 90.8619 0.0000 0.0000 0.0000
# 2 40.6335 56.4568 43.1732 0.0000 0.0000 0.0000
# 3 90.8619 43.1732 178.4365 0.0000 0.0000 0.0000
# 4 0.0000 0.0000 0.0000 -6.2098 0.0000 0.0000
# 5 0.0000 0.0000 0.0000 0.0000 45.9051 0.0000
# 6 0.0000 0.0000 0.0000 0.0000 0.0000 18.7948
#
#
#
# Elastic Compliance Matrix: (Units=1/GPa)
#
#
# Indices 1 2 3 4 5 6 
#
# 1 0.011457 -0.004644 -0.004711 0.000000 0.000000 0.000000
# 2 -0.004644 0.023616 -0.003349 0.000000 0.000000 0.000000
# 3 -0.004711 -0.003349 0.008813 0.000000 0.000000 0.000000
# 4 0.000000 0.000000 0.000000 -0.161035 0.000000 0.000000
# 5 0.000000 0.000000 0.000000 0.000000 0.021784 0.000000
# 6 0.000000 0.000000 0.000000 0.000000 0.000000 0.053206
#
#
# Mechanical properties :
#
#
# Convention : Reuss Voigt Hill
#
# Bulk Modulus (GPa) = 54.11462 80.59310 67.35386
# Shear Modulus (GPa) = -472.12879 25.12015 -223.50432
#
# Velocity S-wave (km/s) = -15.07139 3.47644 -10.36969
# Velocity P-wave (km/s) = 16.63812 7.40867 10.53420
#
# Compressibility (1/GPa) = 0.01847929
#
# Stress axis : x y z
#
# Youngs Moduli (GPa) = 87.28058 42.34372 113.46503
#
# Poissons Ratio (x) = 0.19664 0.53449
# Poissons Ratio (y) = 0.40532 0.38003
# Poissons Ratio (z) = 0.41114 0.14182
#
# Static dielectric constant tensor:
#      x y z
#    x 3.855750 0.000000 0.000000 
#    y 0.000000 3.670010 0.000000 
#    z 0.000000 0.000000 3.990270 
# 
# 
# High freq. dielectric constant tensor:
#      x y z
#    x 1.816230 0.000000 0.000000 
#    y 0.000000 1.776830 0.000000 
#    z 0.000000 0.000000 1.822630 
# 
# From -- ./inp_files/45205.got.cif
#   From: 2010.03.12/outbox.cif.g09.slc.cpg/sg67_23_cif.got.tgz:45205.got - 2010.04.10 22:41:39.
