data_PCOD8278424
_publ_section_title
;
Structure prediction by ZEFSAII (Michael W. Deem and Ramdas Pophale) SiO2 
 PCOD8278424
Probable space group: C M M A
;
_chemical_formula_sum "Si O2"
_cell_formula_units_Z 112
_cell_length_a 25.064293
_cell_length_b 16.645829
_cell_length_c 15.967106
_cell_angle_alpha 90.000000
_cell_angle_beta 90.000000
_cell_angle_gamma 90.000000
_cell_volume 6661.731064
_symmetry_space_group_name_H-M "C M M A"
_symmetry_group_IT_number 67
_symmetry_cell_setting 'orthorhombic'
loop_
_space_group_symop_operation_xyz
x,y,z
-x,1/2-y,z
x,-y,-z
-x,1/2+y,-z
-x,-y,-z
x,1/2+y,-z
-x,y,z
x,1/2-y,z
1/2+x,1/2+y,z
1/2-x,-y,z
1/2+x,1/2-y,-z
1/2-x,y,-z
1/2-x,1/2-y,-z
1/2+x,y,-z
1/2-x,1/2+y,z
1/2+x,-y,z
loop_
_atom_site_type_symbol
_atom_site_label
_atom_site_fract_x
_atom_site_fract_y
_atom_site_fract_z
Si Si1 0.741649 0.093713 0.630455
Si Si2 0.346972 0.843231 0.873058
Si Si3 0.670520 0.844774 0.514103
Si Si4 0.693062 0.591514 0.027756
Si Si5 0.232659 0.655226 0.811898
Si Si6 0.441698 0.345578 0.234801
Si Si7 0.058467 0.654652 0.422483
O O1 0.695008 0.106252 0.562804
O O2 0.796409 0.135287 0.598763
O O3 0.721282 0.133898 0.715968
O O4 0.750000 0.000000 0.644589
O O5 0.349605 0.750000 0.855789
O O6 0.291865 0.877346 0.834436
O O7 0.396808 0.884371 0.825356
O O8 0.351183 0.861406 0.972725
O O9 0.674792 0.750000 0.496810
O O10 0.608920 0.874178 0.522333
O O11 0.689424 0.609140 0.127609
O O12 0.688045 0.500000 0.000000
O O13 0.750000 0.627942 0.000000
O O14 0.226556 0.750000 0.826719
O O15 0.500000 0.372115 0.201324
O O16 0.437582 0.250000 0.235562
O O17 0.433559 0.378878 0.328676
O O18 0.059199 0.750000 0.419109
O O19 0.000000 0.625961 0.457717
#
# Coordination Sequence:
#
# PCOD8278424 Si02
#       7
#    16  16  16  16  16  16  16
#     4  11  22  31  46  66  98 128 161 198 240 284
#     4   9  16  26  43  65  89 117 147 184 227 274
#     4  10  18  32  49  68  96 127 159 196 236 292
#     4   9  18  29  44  62  93 117 150 183 227 272
#     4  10  19  31  47  67  90 124 160 192 226 273
#     4   8  13  22  38  64  93 115 143 186 233 276
#     4   8  14  25  44  70  95 119 151 195 238 276
#
# _framework density 16.812446999999999
#
# number of rings (size 3 to 8) (size 9 to 14) (size 15 to 20)
#    0.000    2.714    0.000    4.714    4.000    4.000 
#    0.000    0.000    0.000    2.143    0.000    1.000 
#    0.000    5.714    0.000    0.000    0.000    0.000 
#
# Total GULP energy -693884.639589 kJ/mol
# GULP energy per Si atom -12390.797136 kJ/mol
# Density = 1.677418 g / cm^3
# Si number density = 16.812447 Si / 1000 Ang^3
#
#
#
# Elastic Constant Matrix: (Units=GPa)
#
#
# Indices 1 2 3 4 5 6 
#
# 1 106.4558 12.5980 41.5959 0.0000 0.0000 0.0000
# 2 12.5980 42.8594 17.5135 0.0000 0.0000 0.0000
# 3 41.5959 17.5135 100.1169 0.0000 0.0000 0.0000
# 4 0.0000 0.0000 0.0000 21.6712 0.0000 0.0000
# 5 0.0000 0.0000 0.0000 0.0000 25.9841 0.0000
# 6 0.0000 0.0000 0.0000 0.0000 0.0000 6.0418
#
#
#
# Elastic Compliance Matrix: (Units=1/GPa)
#
#
# Indices 1 2 3 4 5 6 
#
# 1 0.011304 -0.001512 -0.004432 0.000000 0.000000 0.000000
# 2 -0.001512 0.025330 -0.003803 0.000000 0.000000 0.000000
# 3 -0.004432 -0.003803 0.012495 0.000000 0.000000 0.000000
# 4 0.000000 0.000000 0.000000 0.046144 0.000000 0.000000
# 5 0.000000 0.000000 0.000000 0.000000 0.038485 0.000000
# 6 0.000000 0.000000 0.000000 0.000000 0.000000 0.165514
#
#
# Mechanical properties :
#
#
# Convention : Reuss Voigt Hill
#
# Bulk Modulus (GPa) = 33.74266 43.64964 38.69615
# Shear Modulus (GPa) = 15.21396 22.58774 18.90085
#
# Velocity S-wave (km/s) = 3.01146 3.66937 3.35657
# Velocity P-wave (km/s) = 5.67498 6.63110 6.17158
#
# Compressibility (1/GPa) = 0.02963608
#
# Stress axis : x y z
#
# Youngs Moduli (GPa) = 88.46225 39.47816 80.03177
#
# Poissons Ratio (x) = 0.05968 0.35472
# Poissons Ratio (y) = 0.13372 0.30436
# Poissons Ratio (z) = 0.39208 0.15014
#
# Static dielectric constant tensor:
#      x y z
#    x 3.383580 0.000000 0.000000 
#    y 0.000000 2.813070 0.000000 
#    z 0.000000 0.000000 3.245160 
# 
# 
# High freq. dielectric constant tensor:
#      x y z
#    x 1.625360 0.000000 0.000000 
#    y 0.000000 1.618530 0.000000 
#    z 0.000000 0.000000 1.644300 
# 
# From -- ./inp_files/30831.got.cif
#   From: 2010.03.12/outbox.cif.g09.slc.cpg/sg67_16_cif.got.tgz:30831.got - 2010.04.10 22:41:39.
