data_PCOD8278394
_publ_section_title
;
Structure prediction by ZEFSAII (Michael W. Deem and Ramdas Pophale) SiO2 
 PCOD8278394
Probable space group: C M M A
;
_chemical_formula_sum "Si O2"
_cell_formula_units_Z 56
_cell_length_a 26.088789
_cell_length_b 8.754177
_cell_length_c 13.795865
_cell_angle_alpha 90.000000
_cell_angle_beta 90.000000
_cell_angle_gamma 90.000000
_cell_volume 3150.780722
_symmetry_space_group_name_H-M "C M M A"
_symmetry_group_IT_number 67
_symmetry_cell_setting 'orthorhombic'
loop_
_space_group_symop_operation_xyz
x,y,z
-x,1/2-y,z
x,-y,-z
-x,1/2+y,-z
-x,-y,-z
x,1/2+y,-z
-x,y,z
x,1/2-y,z
1/2+x,1/2+y,z
1/2-x,-y,z
1/2+x,1/2-y,-z
1/2-x,y,-z
1/2-x,1/2-y,-z
1/2+x,y,-z
1/2-x,1/2+y,z
1/2+x,-y,z
loop_
_atom_site_type_symbol
_atom_site_label
_atom_site_fract_x
_atom_site_fract_y
_atom_site_fract_z
Si Si1 0.140496 0.577089 0.099155
Si Si2 0.904023 0.576703 0.294732
Si Si3 0.500000 0.070552 0.605477
Si Si4 0.803123 0.569231 0.739919
O O1 0.158576 0.750000 0.079193
O O2 0.093283 0.574891 0.176508
O O3 0.187869 0.484108 0.147974
O O4 0.122131 0.500000 0.000000
O O5 0.906625 0.750000 0.334524
O O6 0.950128 0.479725 0.336380
O O7 0.849614 0.499604 0.325817
O O8 0.500000 0.250000 0.595208
O O9 0.500000 0.000000 0.500000
O O10 0.802095 0.750000 0.731648
O O11 0.750000 0.500000 0.701065
#
# Coordination Sequence:
#
# PCOD8278394 Si02
#       4
#    16  16   8  16
#     4   9  18  31  50  76 110 148 187 226 268 314
#     4   9  20  37  55  80 112 142 181 228 272 319
#     4  12  24  40  65  88 107 136 175 223 277 329
#     4  10  18  31  51  77 111 149 188 225 270 318
#
# _framework density 17.773372999999999
#
# number of rings (size 3 to 8) (size 9 to 14) (size 15 to 20)
#    1.714    0.571    0.000    4.714    0.000    0.571 
#    0.000    3.571    0.000    0.857    0.000    6.000 
#    0.000    0.000    0.000    0.000    0.000    0.000 
#
# Total GULP energy -346877.628669 kJ/mol
# GULP energy per Si atom -12388.486738 kJ/mol
# Density = 1.773292 g / cm^3
# Si number density = 17.773373 Si / 1000 Ang^3
#
#
#
# Elastic Constant Matrix: (Units=GPa)
#
#
# Indices 1 2 3 4 5 6 
#
# 1 141.7920 69.9596 48.4056 0.0000 0.0000 0.0000
# 2 69.9596 182.3762 29.5187 0.0000 0.0000 0.0000
# 3 48.4056 29.5187 32.1797 0.0000 0.0000 0.0000
# 4 0.0000 0.0000 0.0000 27.2021 0.0000 0.0000
# 5 0.0000 0.0000 0.0000 0.0000 1936.0414 0.0000
# 6 0.0000 0.0000 0.0000 0.0000 0.0000 35.8118
#
#
#
# Elastic Compliance Matrix: (Units=1/GPa)
#
#
# Indices 1 2 3 4 5 6 
#
# 1 0.015438 -0.002541 -0.020892 0.000000 0.000000 0.000000
# 2 -0.002541 0.006857 -0.002469 0.000000 0.000000 0.000000
# 3 -0.020892 -0.002469 0.064767 0.000000 0.000000 0.000000
# 4 0.000000 0.000000 0.000000 0.036762 0.000000 0.000000
# 5 0.000000 0.000000 0.000000 0.000000 0.000517 0.000000
# 6 0.000000 0.000000 0.000000 0.000000 0.000000 0.027924
#
#
# Mechanical properties :
#
#
# Convention : Reuss Voigt Hill
#
# Bulk Modulus (GPa) = 28.36126 72.45729 50.40928
# Shear Modulus (GPa) = 23.16732 413.70865 218.43799
#
# Velocity S-wave (km/s) = 3.61430 15.27331 11.09814
# Velocity P-wave (km/s) = 5.78008 18.75868 13.87979
#
# Compressibility (1/GPa) = 0.03525936
#
# Stress axis : x y z
#
# Youngs Moduli (GPa) = 64.77319 145.82966 15.44000
#
# Poissons Ratio (x) = 0.37050 0.32258
# Poissons Ratio (y) = 0.16457 0.03811
# Poissons Ratio (z) = 1.35327 0.35999
#
# Static dielectric constant tensor:
#      x y z
#    x 3.131040 0.000000 0.000000 
#    y 0.000000 3.392980 0.000000 
#    z 0.000000 0.000000 3.010770 
# 
# 
# High freq. dielectric constant tensor:
#      x y z
#    x 1.671190 0.000000 0.000000 
#    y 0.000000 1.711970 0.000000 
#    z 0.000000 0.000000 1.651670 
# 
# From -- ./inp_files/29727.got.cif
#   From: 2010.03.12/outbox.cif.g09.slc.cpg/sg67_15_cif.got.tgz:29727.got - 2010.04.10 22:41:39.
