data_PCOD8278731
_publ_section_title
;
Structure prediction by ZEFSAII (Michael W. Deem and Ramdas Pophale) SiO2 
 PCOD8278731
Probable space group: C M M A
;
_chemical_formula_sum "Si O2"
_cell_formula_units_Z 88
_cell_length_a 30.217298
_cell_length_b 9.222258
_cell_length_c 17.421945
_cell_angle_alpha 90.000000
_cell_angle_beta 90.000000
_cell_angle_gamma 90.000000
_cell_volume 4855.003348
_symmetry_space_group_name_H-M "C M M A"
_symmetry_group_IT_number 67
_symmetry_cell_setting 'orthorhombic'
loop_
_space_group_symop_operation_xyz
x,y,z
-x,1/2-y,z
x,-y,-z
-x,1/2+y,-z
-x,-y,-z
x,1/2+y,-z
-x,y,z
x,1/2-y,z
1/2+x,1/2+y,z
1/2-x,-y,z
1/2+x,1/2-y,-z
1/2-x,y,-z
1/2-x,1/2-y,-z
1/2+x,y,-z
1/2-x,1/2+y,z
1/2+x,-y,z
loop_
_atom_site_type_symbol
_atom_site_label
_atom_site_fract_x
_atom_site_fract_y
_atom_site_fract_z
Si Si1 0.079691 0.591013 0.689144
Si Si2 0.135591 0.590863 0.207089
Si Si3 0.210977 0.589817 0.331034
Si Si4 0.000000 0.924071 0.583567
Si Si5 0.704571 0.926390 0.918973
Si Si6 0.344729 0.090262 0.567824
O O1 0.063946 0.750000 0.716890
O O2 0.092483 0.501392 0.766255
O O3 0.041823 0.522525 0.634556
O O4 0.123369 0.605330 0.639387
O O5 0.117396 0.750000 0.185851
O O6 0.169149 0.603095 0.276930
O O7 0.163220 0.527890 0.134986
O O8 0.228061 0.750000 0.352859
O O9 0.250000 0.500000 0.289071
O O10 0.198608 0.500440 0.407735
O O11 0.000000 0.750000 0.570455
O O12 0.000000 0.000000 0.500000
O O13 0.709913 0.750000 0.923464
O O14 0.750000 0.000000 0.887652
O O15 0.693615 0.000000 0.000000
O O16 0.331419 0.250000 0.538191
O O17 0.368576 0.000000 0.500000
#
# Coordination Sequence:
#
# PCOD8278731 Si02
#       6
#    16  16  16   8  16  16
#     4   9  19  33  50  71  96 124 157 194 239 293
#     4   9  19  33  49  69  96 127 161 197 237 285
#     4  10  19  31  45  62  84 114 151 192 231 272
#     4  10  20  34  52  78 105 130 161 202 251 304
#     4  10  19  31  48  74 105 137 170 206 244 288
#     4  10  19  31  45  62  84 114 149 188 231 277
#
# _framework density 18.125632
#
# number of rings (size 3 to 8) (size 9 to 14) (size 15 to 20)
#    0.000    2.364    0.000    3.273    0.000    4.000 
#    0.000    1.818    0.000    0.000    0.000    0.636 
#    0.000    0.000    0.000    0.000    0.000    0.000 
#
# Total GULP energy -545090.090758 kJ/mol
# GULP energy per Si atom -12388.411154 kJ/mol
# Density = 1.808438 g / cm^3
# Si number density = 18.125632 Si / 1000 Ang^3
#
#
#
# Elastic Constant Matrix: (Units=GPa)
#
#
# Indices 1 2 3 4 5 6 
#
# 1 72.7673 39.1038 36.7815 0.0000 0.0000 0.0000
# 2 39.1038 120.2812 44.1148 0.0000 0.0000 0.0000
# 3 36.7815 44.1148 84.1898 0.0000 0.0000 0.0000
# 4 0.0000 0.0000 0.0000 24.1828 0.0000 0.0000
# 5 0.0000 0.0000 0.0000 0.0000 33.5101 0.0000
# 6 0.0000 0.0000 0.0000 0.0000 0.0000 22.1645
#
#
#
# Elastic Compliance Matrix: (Units=1/GPa)
#
#
# Indices 1 2 3 4 5 6 
#
# 1 0.018993 -0.003876 -0.006267 0.000000 0.000000 0.000000
# 2 -0.003876 0.011083 -0.004114 0.000000 0.000000 0.000000
# 3 -0.006267 -0.004114 0.016771 0.000000 0.000000 0.000000
# 4 0.000000 0.000000 0.000000 0.041352 0.000000 0.000000
# 5 0.000000 0.000000 0.000000 0.000000 0.029842 0.000000
# 6 0.000000 0.000000 0.000000 0.000000 0.000000 0.045117
#
#
# Mechanical properties :
#
#
# Convention : Reuss Voigt Hill
#
# Bulk Modulus (GPa) = 54.54444 57.47094 56.00769
# Shear Modulus (GPa) = 25.28026 26.45404 25.86715
#
# Velocity S-wave (km/s) = 3.73865 3.82446 3.78180
# Velocity P-wave (km/s) = 6.98530 7.16085 7.07362
#
# Compressibility (1/GPa) = 0.01833368
#
# Stress axis : x y z
#
# Youngs Moduli (GPa) = 52.65069 90.22957 59.62544
#
# Poissons Ratio (x) = 0.34976 0.37365
# Poissons Ratio (y) = 0.20409 0.24529
# Poissons Ratio (z) = 0.32995 0.37119
#
# Static dielectric constant tensor:
#      x y z
#    x 3.175320 0.000000 0.000000 
#    y 0.000000 4.006470 0.000000 
#    z 0.000000 0.000000 3.203830 
# 
# 
# High freq. dielectric constant tensor:
#      x y z
#    x 1.673210 0.000000 0.000000 
#    y 0.000000 1.715020 0.000000 
#    z 0.000000 0.000000 1.678770 
# 
# From -- ./inp_files/32426.got.cif
#   From: 2010.03.12/outbox.cif.g09.slc.cpg/sg67_17_cif.got.tgz:32426.got - 2010.04.10 22:41:39.
