data_PCOD8278897
_publ_section_title
;
Structure prediction by ZEFSAII (Michael W. Deem and Ramdas Pophale) SiO2 
 PCOD8278897
Probable space group: C M M A
;
_chemical_formula_sum "Si O2"
_cell_formula_units_Z 104
_cell_length_a 8.968158
_cell_length_b 27.134941
_cell_length_c 23.642080
_cell_angle_alpha 90.000000
_cell_angle_beta 90.000000
_cell_angle_gamma 90.000000
_cell_volume 5753.310528
_symmetry_space_group_name_H-M "C M M A"
_symmetry_group_IT_number 67
_symmetry_cell_setting 'orthorhombic'
loop_
_space_group_symop_operation_xyz
x,y,z
-x,1/2-y,z
x,-y,-z
-x,1/2+y,-z
-x,-y,-z
x,1/2+y,-z
-x,y,z
x,1/2-y,z
1/2+x,1/2+y,z
1/2-x,-y,z
1/2+x,1/2-y,-z
1/2-x,y,-z
1/2-x,1/2-y,-z
1/2+x,y,-z
1/2-x,1/2+y,z
1/2+x,-y,z
loop_
_atom_site_type_symbol
_atom_site_label
_atom_site_fract_x
_atom_site_fract_y
_atom_site_fract_z
Si Si1 0.327892 0.390112 0.164751
Si Si2 0.173612 0.857597 0.939296
Si Si3 0.324899 0.693387 0.559124
Si Si4 0.328725 0.860592 0.339422
Si Si5 0.823613 0.052037 0.726028
Si Si6 0.668383 0.193475 0.773332
Si Si7 0.830015 0.750000 0.941809
O O1 0.500000 0.390266 0.148940
O O2 0.237739 0.396696 0.105982
O O3 0.286972 0.433350 0.208857
O O4 0.288182 0.338333 0.193383
O O5 0.206428 0.802500 0.911792
O O6 0.000000 0.867601 0.947717
O O7 0.250000 0.864449 0.000000
O O8 0.500000 0.683630 0.554757
O O9 0.290378 0.750000 0.575246
O O10 0.250000 0.679609 0.500000
O O11 0.255275 0.657420 0.605185
O O12 0.500000 0.873185 0.353808
O O13 0.248345 0.909464 0.317015
O O14 0.318982 0.817186 0.293292
O O15 0.000000 0.050261 0.715772
O O16 0.750000 0.000000 0.713236
O O17 0.500000 0.180964 0.794518
O O18 0.706590 0.250000 0.785074
O O19 0.000000 0.750000 0.958732
O O20 0.750000 0.750000 0.000000
#
# Coordination Sequence:
#
# PCOD8278897 Si02
#       7
#    16  16  16  16  16  16   8
#     4  10  21  34  49  74 102 130 166 209 257 310
#     4  10  19  32  49  69  97 133 171 209 250 301
#     4  10  20  33  51  78 114 155 194 229 263 303
#     4  10  19  33  54  79 107 140 179 221 267 316
#     4  10  21  38  59  81 105 132 170 218 270 324
#     4   9  18  31  47  69 100 137 173 209 251 302
#     4   8  16  28  42  62  88 124 166 202 233 276
#
# _framework density 18.076550000000001
#
# number of rings (size 3 to 8) (size 9 to 14) (size 15 to 20)
#    0.000    2.308    0.000    2.769    1.077    4.923 
#    0.000    0.000    0.000    0.923    0.000    6.462 
#    0.000    0.000    0.000    0.000    0.000    0.000 
#
# Total GULP energy -644602.358544 kJ/mol
# GULP energy per Si atom -12396.199203 kJ/mol
# Density = 1.803541 g / cm^3
# Si number density = 18.076550 Si / 1000 Ang^3
#
#
#
# Elastic Constant Matrix: (Units=GPa)
#
#
# Indices 1 2 3 4 5 6 
#
# 1 105.5403 40.5386 60.7965 0.0000 0.0000 0.0000
# 2 40.5386 69.2145 34.3956 0.0000 0.0000 0.0000
# 3 60.7965 34.3956 101.3505 0.0000 0.0000 0.0000
# 4 0.0000 0.0000 0.0000 20.2169 0.0000 0.0000
# 5 0.0000 0.0000 0.0000 0.0000 35.8572 0.0000
# 6 0.0000 0.0000 0.0000 0.0000 0.0000 25.8514
#
#
#
# Elastic Compliance Matrix: (Units=1/GPa)
#
#
# Indices 1 2 3 4 5 6 
#
# 1 0.016081 -0.005563 -0.007759 0.000000 0.000000 0.000000
# 2 -0.005563 0.019303 -0.003214 0.000000 0.000000 0.000000
# 3 -0.007759 -0.003214 0.015612 0.000000 0.000000 0.000000
# 4 0.000000 0.000000 0.000000 0.049463 0.000000 0.000000
# 5 0.000000 0.000000 0.000000 0.000000 0.027888 0.000000
# 6 0.000000 0.000000 0.000000 0.000000 0.000000 0.038683
#
#
# Mechanical properties :
#
#
# Convention : Reuss Voigt Hill
#
# Bulk Modulus (GPa) = 55.78844 60.84073 58.31459
# Shear Modulus (GPa) = 24.26282 25.74342 25.00312
#
# Velocity S-wave (km/s) = 3.66762 3.77786 3.72315
# Velocity P-wave (km/s) = 6.99032 7.26361 7.12827
#
# Compressibility (1/GPa) = 0.01792486
#
# Stress axis : x y z
#
# Youngs Moduli (GPa) = 62.18437 51.80475 64.05518
#
# Poissons Ratio (x) = 0.28820 0.49698
# Poissons Ratio (y) = 0.34594 0.20587
# Poissons Ratio (z) = 0.48246 0.16649
#
# Static dielectric constant tensor:
#      x y z
#    x 3.420860 0.000000 0.000000 
#    y 0.000000 3.127080 0.000000 
#    z 0.000000 0.000000 3.291990 
# 
# 
# High freq. dielectric constant tensor:
#      x y z
#    x 1.714440 0.000000 0.000000 
#    y 0.000000 1.671250 0.000000 
#    z 0.000000 0.000000 1.698710 
# 
# From -- ./inp_files/37326.got.cif
#   From: 2010.03.12/outbox.cif.g09.slc.cpg/sg67_19_cif.got.tgz:37326.got - 2010.04.10 22:41:39.
