data_PCOD8278138
_publ_section_title
;
Structure prediction by ZEFSAII (Michael W. Deem and Ramdas Pophale) SiO2 
 PCOD8278138
Probable space group: C M M A
;
_chemical_formula_sum "Si O2"
_cell_formula_units_Z 112
_cell_length_a 14.450428
_cell_length_b 27.705064
_cell_length_c 16.209313
_cell_angle_alpha 90.000000
_cell_angle_beta 90.000000
_cell_angle_gamma 90.000000
_cell_volume 6489.398987
_symmetry_space_group_name_H-M "C M M A"
_symmetry_group_IT_number 67
_symmetry_cell_setting 'orthorhombic'
loop_
_space_group_symop_operation_xyz
x,y,z
-x,1/2-y,z
x,-y,-z
-x,1/2+y,-z
-x,-y,-z
x,1/2+y,-z
-x,y,z
x,1/2-y,z
1/2+x,1/2+y,z
1/2-x,-y,z
1/2+x,1/2-y,-z
1/2-x,y,-z
1/2-x,1/2-y,-z
1/2+x,y,-z
1/2-x,1/2+y,z
1/2+x,-y,z
loop_
_atom_site_type_symbol
_atom_site_label
_atom_site_fract_x
_atom_site_fract_y
_atom_site_fract_z
Si Si1 0.897245 0.804413 0.166435
Si Si2 0.606653 0.952362 0.953095
Si Si3 0.212797 0.401139 0.807486
Si Si4 0.259153 0.056911 0.369552
Si Si5 0.103729 0.942880 0.510325
Si Si6 0.851175 0.303788 0.015585
Si Si7 0.399511 0.388660 0.892019
O O1 0.862587 0.750000 0.192422
O O2 0.827278 0.846581 0.194239
O O3 0.000000 0.814021 0.203440
O O4 0.909410 0.805957 0.068014
O O5 0.500000 0.961055 0.927987
O O6 0.659908 0.937722 0.869354
O O7 0.620069 0.909436 0.017061
O O8 0.646000 0.000000 0.000000
O O9 0.209314 0.420282 0.715679
O O10 0.321354 0.402953 0.828110
O O11 0.159404 0.073438 0.406897
O O12 0.339604 0.075162 0.430978
O O13 0.250000 0.000000 0.359078
O O14 0.000000 0.920687 0.513478
O O15 0.098753 0.000000 0.500000
O O16 0.838830 0.250000 0.049498
O O17 0.900902 0.331549 0.090388
O O18 0.750000 0.327187 0.000000
O O19 0.500000 0.405761 0.857811
#
# Coordination Sequence:
#
# PCOD8278138 Si02
#       7
#    16  16  16  16  16  16  16
#     4  10  20  34  51  71  97 129 172 231 283 312
#     4  10  22  37  49  64  94 139 185 220 254 299
#     4  12  22  33  52  75 103 138 175 222 259 312
#     4   9  20  33  50  82 107 129 167 203 247 313
#     4   8  15  34  58  76 103 133 158 201 257 306
#     4  10  17  30  51  69  86 120 172 224 271 306
#     4  11  22  34  45  64  95 136 181 216 252 294
#
# _framework density 17.258918000000001
#
# number of rings (size 3 to 8) (size 9 to 14) (size 15 to 20)
#    0.000    2.000    2.857    2.143    2.000    3.143 
#    0.000    0.000    0.000    0.000    0.000    2.000 
#    0.000    1.143    0.000    0.000    0.000    0.000 
#
# Total GULP energy -693846.964442 kJ/mol
# GULP energy per Si atom -12390.124365 kJ/mol
# Density = 1.721964 g / cm^3
# Si number density = 17.258918 Si / 1000 Ang^3
#
#
#
# Elastic Constant Matrix: (Units=GPa)
#
#
# Indices 1 2 3 4 5 6 
#
# 1 130.9017 34.8888 50.6674 0.0000 0.0000 0.0000
# 2 34.8888 71.5347 34.0533 0.0000 0.0000 0.0000
# 3 50.6674 34.0533 91.0312 0.0000 0.0000 0.0000
# 4 0.0000 0.0000 0.0000 15.7607 0.0000 0.0000
# 5 0.0000 0.0000 0.0000 0.0000 14.1948 0.0000
# 6 0.0000 0.0000 0.0000 0.0000 0.0000 13.9397
#
#
#
# Elastic Compliance Matrix: (Units=1/GPa)
#
#
# Indices 1 2 3 4 5 6 
#
# 1 0.010164 -0.002755 -0.004627 0.000000 0.000000 0.000000
# 2 -0.002755 0.017755 -0.005108 0.000000 0.000000 0.000000
# 3 -0.004627 -0.005108 0.015472 0.000000 0.000000 0.000000
# 4 0.000000 0.000000 0.000000 0.063449 0.000000 0.000000
# 5 0.000000 0.000000 0.000000 0.000000 0.070449 0.000000
# 6 0.000000 0.000000 0.000000 0.000000 0.000000 0.071738
#
#
# Mechanical properties :
#
#
# Convention : Reuss Voigt Hill
#
# Bulk Modulus (GPa) = 54.31738 59.18739 56.75239
# Shear Modulus (GPa) = 17.84803 20.36957 19.10880
#
# Velocity S-wave (km/s) = 3.21928 3.43918 3.33105
# Velocity P-wave (km/s) = 6.73489 7.08088 6.91005
#
# Compressibility (1/GPa) = 0.01841031
#
# Stress axis : x y z
#
# Youngs Moduli (GPa) = 98.38183 56.32346 64.63482
#
# Poissons Ratio (x) = 0.15516 0.29906
# Poissons Ratio (y) = 0.27102 0.33018
# Poissons Ratio (z) = 0.45521 0.28772
#
# Static dielectric constant tensor:
#      x y z
#    x 3.572140 0.000000 0.000000 
#    y 0.000000 3.189480 0.000000 
#    z 0.000000 0.000000 2.907050 
# 
# 
# High freq. dielectric constant tensor:
#      x y z
#    x 1.685150 0.000000 0.000000 
#    y 0.000000 1.650180 0.000000 
#    z 0.000000 0.000000 1.620790 
# 
# From -- ./inp_files/27888.got.cif
#   From: 2010.03.12/outbox.cif.g09.slc.cpg/sg67_14_cif.got.tgz:27888.got - 2010.04.10 22:41:39.
