data_PCOD8278472
_publ_section_title
;
Structure prediction by ZEFSAII (Michael W. Deem and Ramdas Pophale) SiO2 
 PCOD8278472
Probable space group: C M M A
;
_chemical_formula_sum "Si O2"
_cell_formula_units_Z 104
_cell_length_a 24.521460
_cell_length_b 8.767041
_cell_length_c 26.419273
_cell_angle_alpha 90.000000
_cell_angle_beta 90.000000
_cell_angle_gamma 90.000000
_cell_volume 5679.632355
_symmetry_space_group_name_H-M "C M M A"
_symmetry_group_IT_number 67
_symmetry_cell_setting 'orthorhombic'
loop_
_space_group_symop_operation_xyz
x,y,z
-x,1/2-y,z
x,-y,-z
-x,1/2+y,-z
-x,-y,-z
x,1/2+y,-z
-x,y,z
x,1/2-y,z
1/2+x,1/2+y,z
1/2-x,-y,z
1/2+x,1/2-y,-z
1/2-x,y,-z
1/2-x,1/2-y,-z
1/2+x,y,-z
1/2-x,1/2+y,z
1/2+x,-y,z
loop_
_atom_site_type_symbol
_atom_site_label
_atom_site_fract_x
_atom_site_fract_y
_atom_site_fract_z
Si Si1 0.615506 0.929033 0.134750
Si Si2 0.915881 0.930489 0.362223
Si Si3 0.500000 0.069562 0.827431
Si Si4 0.500000 0.068046 0.712603
Si Si5 0.306727 0.930847 0.945342
Si Si6 0.500000 0.072890 0.445585
Si Si7 0.693615 0.069021 0.663103
Si Si8 0.195639 0.426874 0.222330
O O1 0.620174 0.750000 0.121842
O O2 0.553086 0.983744 0.141092
O O3 0.644261 0.968182 0.187878
O O4 0.643038 0.025502 0.090418
O O5 0.915715 0.750000 0.353762
O O6 0.946835 0.976305 0.413747
O O7 0.855368 0.996361 0.368827
O O8 0.945585 0.006802 0.314270
O O9 0.500000 0.250000 0.822577
O O10 0.500000 0.005297 0.770224
O O11 0.500000 0.250000 0.710586
O O12 0.301007 0.750000 0.949168
O O13 0.250000 0.000000 0.923913
O O14 0.319428 0.000000 0.000000
O O15 0.500000 0.250000 0.454959
O O16 0.500000 0.000000 0.500000
O O17 0.693714 0.250000 0.657041
O O18 0.684868 0.013548 0.720982
O O19 0.750000 0.000000 0.641919
O O20 0.207136 0.250000 0.223937
O O21 0.250000 0.500000 0.198686
#
# Coordination Sequence:
#
# PCOD8278472 Si02
#       8
#    16  16   8   8  16   8  16  16
#     4  10  19  34  53  75 103 136 170 208 251 297
#     4  10  20  34  51  77 109 140 173 217 265 310
#     4   9  19  34  53  75 106 144 179 211 246 291
#     4  10  18  32  54  79 104 139 183 220 254 301
#     4  11  22  38  59  82 102 124 157 203 255 308
#     4   9  20  36  55  78 104 131 168 217 269 314
#     4  10  19  32  50  75 106 144 182 215 252 305
#     4   9  18  30  47  72 103 135 172 211 251 296
#
# _framework density 18.311045
#
# number of rings (size 3 to 8) (size 9 to 14) (size 15 to 20)
#    0.000    2.154    0.000    4.846    0.000    6.769 
#    0.000    3.846    0.000    0.462    0.000    3.231 
#    0.000    0.000    0.000    0.000    0.000    0.000 
#
# Total GULP energy -644855.858652 kJ/mol
# GULP energy per Si atom -12401.074205 kJ/mol
# Density = 1.826937 g / cm^3
# Si number density = 18.311045 Si / 1000 Ang^3
#
#
#
# Elastic Constant Matrix: (Units=GPa)
#
#
# Indices 1 2 3 4 5 6 
#
# 1 170.9531 54.6319 66.4303 0.0000 0.0000 0.0000
# 2 54.6319 83.8338 44.2958 0.0000 0.0000 0.0000
# 3 66.4303 44.2958 97.9536 0.0000 0.0000 0.0000
# 4 0.0000 0.0000 0.0000 24.5074 0.0000 0.0000
# 5 0.0000 0.0000 0.0000 0.0000 20.9128 0.0000
# 6 0.0000 0.0000 0.0000 0.0000 0.0000 31.3503
#
#
#
# Elastic Compliance Matrix: (Units=1/GPa)
#
#
# Indices 1 2 3 4 5 6 
#
# 1 0.008589 -0.003311 -0.004328 0.000000 0.000000 0.000000
# 2 -0.003311 0.016949 -0.005420 0.000000 0.000000 0.000000
# 3 -0.004328 -0.005420 0.015595 0.000000 0.000000 0.000000
# 4 0.000000 0.000000 0.000000 0.040804 0.000000 0.000000
# 5 0.000000 0.000000 0.000000 0.000000 0.047818 0.000000
# 6 0.000000 0.000000 0.000000 0.000000 0.000000 0.031898
#
#
# Mechanical properties :
#
#
# Convention : Reuss Voigt Hill
#
# Bulk Modulus (GPa) = 66.59002 75.93961 71.26482
# Shear Modulus (GPa) = 25.93697 27.84625 26.89161
#
# Velocity S-wave (km/s) = 3.76768 3.90389 3.83639
# Velocity P-wave (km/s) = 7.44125 7.86655 7.65685
#
# Compressibility (1/GPa) = 0.01501727
#
# Stress axis : x y z
#
# Youngs Moduli (GPa) = 116.42318 58.99940 64.12355
#
# Poissons Ratio (x) = 0.19532 0.27753
# Poissons Ratio (y) = 0.38543 0.34752
# Poissons Ratio (z) = 0.50389 0.31975
#
# Static dielectric constant tensor:
#      x y z
#    x 3.705280 0.000000 0.000000 
#    y 0.000000 3.291980 0.000000 
#    z 0.000000 0.000000 3.512520 
# 
# 
# High freq. dielectric constant tensor:
#      x y z
#    x 1.717190 0.000000 0.000000 
#    y 0.000000 1.707900 0.000000 
#    z 0.000000 0.000000 1.687150 
# 
# From -- ./inp_files/44886.got.cif
#   From: 2010.03.12/outbox.cif.g09.slc.cpg/sg67_23_cif.got.tgz:44886.got - 2010.04.10 22:41:39.
