data_PCOD8278038
_publ_section_title
;
Structure prediction by ZEFSAII (Michael W. Deem and Ramdas Pophale) SiO2 
 PCOD8278038
Probable space group: C M M A
;
_chemical_formula_sum "Si O2"
_cell_formula_units_Z 96
_cell_length_a 8.962611
_cell_length_b 19.002721
_cell_length_c 31.746184
_cell_angle_alpha 90.000000
_cell_angle_beta 90.000000
_cell_angle_gamma 90.000000
_cell_volume 5406.819463
_symmetry_space_group_name_H-M "C M M A"
_symmetry_group_IT_number 67
_symmetry_cell_setting 'orthorhombic'
loop_
_space_group_symop_operation_xyz
x,y,z
-x,1/2-y,z
x,-y,-z
-x,1/2+y,-z
-x,-y,-z
x,1/2+y,-z
-x,y,z
x,1/2-y,z
1/2+x,1/2+y,z
1/2-x,-y,z
1/2+x,1/2-y,-z
1/2-x,y,-z
1/2-x,1/2-y,-z
1/2+x,y,-z
1/2-x,1/2+y,z
1/2+x,-y,z
loop_
_atom_site_type_symbol
_atom_site_label
_atom_site_fract_x
_atom_site_fract_y
_atom_site_fract_z
Si Si1 0.331543 0.333736 0.122557
Si Si2 0.332950 0.833962 0.041141
Si Si3 0.675088 0.170674 0.703396
Si Si4 0.831550 0.833578 0.214361
Si Si5 0.680143 0.577637 0.541398
Si Si6 0.178582 0.424058 0.374975
O O1 0.500000 0.360349 0.116811
O O2 0.326824 0.250000 0.120720
O O3 0.236161 0.365540 0.084170
O O4 0.269894 0.359081 0.168494
O O5 0.500000 0.861693 0.038498
O O6 0.324296 0.750000 0.041758
O O7 0.250000 0.863747 0.000000
O O8 0.500000 0.171536 0.707807
O O9 0.736452 0.250000 0.696568
O O10 0.737223 0.136102 0.746576
O O11 0.725567 0.124073 0.664100
O O12 0.823744 0.750000 0.215440
O O13 0.000000 0.860179 0.219869
O O14 0.500000 0.576995 0.540086
O O15 0.750000 0.500000 0.542098
O O16 0.750000 0.616302 0.500000
O O17 0.744110 0.612884 0.584084
O O18 0.250000 0.500000 0.366761
O O19 0.000000 0.429927 0.381091
#
# Coordination Sequence:
#
# PCOD8278038 Si02
#       6
#    16  16  16  16  16  16
#     4   8  13  21  31  43  61  85 115 154 197 238
#     4   9  15  20  26  37  54  79 112 151 195 241
#     4   9  18  31  46  64  87 115 145 179 218 257
#     4   8  14  24  38  55  74  98 130 168 207 247
#     4  10  17  27  44  66  91 116 144 177 213 252
#     4  10  19  31  47  68  93 118 146 179 215 255
#
# _framework density 17.755355000000002
#
# number of rings (size 3 to 8) (size 9 to 14) (size 15 to 20)
#    0.000    3.000    0.000    5.000    0.000    4.000 
#    0.000    3.333    0.000    0.500    0.000    0.000 
#    0.000    0.000    0.000    0.000    0.000    0.833 
#
# Total GULP energy -594669.927948 kJ/mol
# GULP energy per Si atom -12388.956832 kJ/mol
# Density = 1.771494 g / cm^3
# Si number density = 17.755355 Si / 1000 Ang^3
#
#
#
# Elastic Constant Matrix: (Units=GPa)
#
#
# Indices 1 2 3 4 5 6 
#
# 1 105.6765 16.4858 85.9924 0.0000 0.0000 0.0000
# 2 16.4858 19.5069 32.3983 0.0000 0.0000 0.0000
# 3 85.9924 32.3983 224.0727 0.0000 0.0000 0.0000
# 4 0.0000 0.0000 0.0000 -0.4646 0.0000 0.0000
# 5 0.0000 0.0000 0.0000 0.0000 40.4311 0.0000
# 6 0.0000 0.0000 0.0000 0.0000 0.0000 8.8998
#
#
#
# Elastic Compliance Matrix: (Units=1/GPa)
#
#
# Indices 1 2 3 4 5 6 
#
# 1 0.013973 -0.003820 -0.004810 0.000000 0.000000 0.000000
# 2 -0.003820 0.068510 -0.008440 0.000000 0.000000 0.000000
# 3 -0.004810 -0.008440 0.007529 0.000000 0.000000 0.000000
# 4 0.000000 0.000000 0.000000 -2.152359 0.000000 0.000000
# 5 0.000000 0.000000 0.000000 0.000000 0.024733 0.000000
# 6 0.000000 0.000000 0.000000 0.000000 0.000000 0.112362
#
#
# Mechanical properties :
#
#
# Convention : Reuss Voigt Hill
#
# Bulk Modulus (GPa) = 17.89801 68.77879 43.33840
# Shear Modulus (GPa) = -2.67024 24.06523 10.69750
#
# Velocity S-wave (km/s) = -1.22767 3.68554 2.45724
# Velocity P-wave (km/s) = 2.84476 7.54533 5.70196
#
# Compressibility (1/GPa) = 0.05587212
#
# Stress axis : x y z
#
# Youngs Moduli (GPa) = 71.56732 14.59648 132.81849
#
# Poissons Ratio (x) = 0.05576 0.63886
# Poissons Ratio (y) = 0.27339 1.12095
# Poissons Ratio (z) = 0.34424 0.12319
#
# Static dielectric constant tensor:
#      x y z
#    x 3.355200 0.000000 0.000000 
#    y 0.000000 2.585810 0.000000 
#    z 0.000000 0.000000 4.259800 
# 
# 
# High freq. dielectric constant tensor:
#      x y z
#    x 1.690490 0.000000 0.000000 
#    y 0.000000 1.591680 0.000000 
#    z 0.000000 0.000000 1.720070 
# 
# From -- ./inp_files/43648.got.cif
#   From: 2010.03.12/outbox.cif.g09.slc.cpg/sg67_22_cif.got.tgz:43648.got - 2010.04.10 22:41:39.
