data_PCOD8278220
_publ_section_title
;
Structure prediction by ZEFSAII (Michael W. Deem and Ramdas Pophale) SiO2 
 PCOD8278220
Probable space group: C M M A
;
_chemical_formula_sum "Si O2"
_cell_formula_units_Z 96
_cell_length_a 9.559494
_cell_length_b 26.786299
_cell_length_c 22.484924
_cell_angle_alpha 90.000000
_cell_angle_beta 90.000000
_cell_angle_gamma 90.000000
_cell_volume 5757.567540
_symmetry_space_group_name_H-M "C M M A"
_symmetry_group_IT_number 67
_symmetry_cell_setting 'orthorhombic'
loop_
_space_group_symop_operation_xyz
x,y,z
-x,1/2-y,z
x,-y,-z
-x,1/2+y,-z
-x,-y,-z
x,1/2+y,-z
-x,y,z
x,1/2-y,z
1/2+x,1/2+y,z
1/2-x,-y,z
1/2+x,1/2-y,-z
1/2-x,y,-z
1/2-x,1/2-y,-z
1/2+x,y,-z
1/2-x,1/2+y,z
1/2+x,-y,z
loop_
_atom_site_type_symbol
_atom_site_label
_atom_site_fract_x
_atom_site_fract_y
_atom_site_fract_z
Si Si1 0.745907 0.940918 0.146093
Si Si2 0.840232 0.692471 0.323650
Si Si3 0.334768 0.136151 0.444282
Si Si4 0.835676 0.949210 0.615952
Si Si5 0.500000 0.058144 0.936694
Si Si6 0.839288 0.888864 0.735514
Si Si7 0.000000 0.060085 0.931060
O O1 0.628102 0.923096 0.101394
O O2 0.736634 0.913517 0.208652
O O3 0.875328 0.921067 0.109230
O O4 0.750000 0.000000 0.158525
O O5 0.798043 0.750000 0.318800
O O6 0.819983 0.675790 0.391570
O O7 0.739206 0.662306 0.279873
O O8 0.000000 0.683109 0.303806
O O9 0.500000 0.125360 0.457752
O O10 0.250000 0.159571 0.500000
O O11 0.248924 0.085967 0.429146
O O12 0.827571 0.927779 0.682073
O O13 0.000000 0.955572 0.597018
O O14 0.750000 0.000000 0.615144
O O15 0.500000 0.998781 0.941072
O O16 0.500000 0.083194 0.002376
O O17 0.000000 0.876607 0.750235
#
# Coordination Sequence:
#
# PCOD8278220 Si02
#       7
#    16  16  16  16   8  16   8
#     4  10  18  29  44  69 101 138 174 207 241 283
#     4   9  20  38  57  76  99 125 155 200 253 301
#     4  10  20  35  54  77 102 130 162 198 240 291
#     4  10  20  34  50  71 100 135 171 207 245 284
#     4   9  16  30  42  62 101 137 174 211 239 281
#     4  10  20  33  49  72 101 130 165 207 249 296
#     4   9  18  26  44  66  93 141 180 203 241 281
#
# _framework density 16.673708000000001
#
# number of rings (size 3 to 8) (size 9 to 14) (size 15 to 20)
#    0.000    2.333    0.833    2.000    1.167    4.333 
#    0.000    1.667    0.000    0.000    0.000    0.000 
#    0.000    4.000    0.000    0.000    0.000    0.000 
#
# Total GULP energy -594881.708369 kJ/mol
# GULP energy per Si atom -12393.368924 kJ/mol
# Density = 1.663576 g / cm^3
# Si number density = 16.673708 Si / 1000 Ang^3
#
#
#
# Elastic Constant Matrix: (Units=GPa)
#
#
# Indices 1 2 3 4 5 6 
#
# 1 133.7079 38.4048 54.7766 0.0000 0.0000 0.0000
# 2 38.4048 74.1975 28.6899 0.0000 0.0000 0.0000
# 3 54.7766 28.6899 105.6296 0.0000 0.0000 0.0000
# 4 0.0000 0.0000 0.0000 15.0890 0.0000 0.0000
# 5 0.0000 0.0000 0.0000 0.0000 37.8697 0.0000
# 6 0.0000 0.0000 0.0000 0.0000 0.0000 23.7270
#
#
#
# Elastic Compliance Matrix: (Units=1/GPa)
#
#
# Indices 1 2 3 4 5 6 
#
# 1 0.010313 -0.003654 -0.004356 0.000000 0.000000 0.000000
# 2 -0.003654 0.016354 -0.002547 0.000000 0.000000 0.000000
# 3 -0.004356 -0.002547 0.012417 0.000000 0.000000 0.000000
# 4 0.000000 0.000000 0.000000 0.066273 0.000000 0.000000
# 5 0.000000 0.000000 0.000000 0.000000 0.026406 0.000000
# 6 0.000000 0.000000 0.000000 0.000000 0.000000 0.042146
#
#
# Mechanical properties :
#
#
# Convention : Reuss Voigt Hill
#
# Bulk Modulus (GPa) = 55.64452 61.91974 58.78213
# Shear Modulus (GPa) = 24.87404 28.11473 26.49438
#
# Velocity S-wave (km/s) = 3.86659 4.11076 3.99054
# Velocity P-wave (km/s) = 7.30610 7.72967 7.52087
#
# Compressibility (1/GPa) = 0.01797122
#
# Stress axis : x y z
#
# Youngs Moduli (GPa) = 96.96679 61.14857 80.53153
#
# Poissons Ratio (x) = 0.22342 0.35076
# Poissons Ratio (y) = 0.35430 0.20512
# Poissons Ratio (z) = 0.42234 0.15575
#
# Static dielectric constant tensor:
#      x y z
#    x 1.916980 0.000000 0.000000 
#    y 0.000000 2.784220 0.000000 
#    z 0.000000 0.000000 3.207890 
# 
# 
# High freq. dielectric constant tensor:
#      x y z
#    x 1.664020 0.000000 0.000000 
#    y 0.000000 1.599170 0.000000 
#    z 0.000000 0.000000 1.647760 
# 
# From -- ./inp_files/40970.got.cif
#   From: 2010.03.12/outbox.cif.g09.slc.cpg/sg67_21_cif.got.tgz:40970.got - 2010.04.10 22:41:39.
