data_PCOD8278168
_publ_section_title
;
Structure prediction by ZEFSAII (Michael W. Deem and Ramdas Pophale) SiO2 
 PCOD8278168
Probable space group: C M M A
;
_chemical_formula_sum "Si O2"
_cell_formula_units_Z 96
_cell_length_a 10.238574
_cell_length_b 23.419339
_cell_length_c 24.471370
_cell_angle_alpha 90.000000
_cell_angle_beta 90.000000
_cell_angle_gamma 90.000000
_cell_volume 5867.760647
_symmetry_space_group_name_H-M "C M M A"
_symmetry_group_IT_number 67
_symmetry_cell_setting 'orthorhombic'
loop_
_space_group_symop_operation_xyz
x,y,z
-x,1/2-y,z
x,-y,-z
-x,1/2+y,-z
-x,-y,-z
x,1/2+y,-z
-x,y,z
x,1/2-y,z
1/2+x,1/2+y,z
1/2-x,-y,z
1/2+x,1/2-y,-z
1/2-x,y,-z
1/2-x,1/2-y,-z
1/2+x,y,-z
1/2-x,1/2+y,z
1/2+x,-y,z
loop_
_atom_site_type_symbol
_atom_site_label
_atom_site_fract_x
_atom_site_fract_y
_atom_site_fract_z
Si Si1 0.153961 0.250000 0.091760
Si Si2 0.849112 0.948415 0.849329
Si Si3 0.649992 0.546562 0.342198
Si Si4 0.156252 0.750000 0.785608
Si Si5 0.149714 0.130187 0.045185
Si Si6 0.139397 0.939615 0.531877
Si Si7 0.651535 0.129623 0.751103
O O1 0.212181 0.250000 0.152872
O O2 0.199511 0.193811 0.059654
O O3 0.000000 0.250000 0.098086
O O4 0.840885 0.908235 0.901570
O O5 0.794440 0.913684 0.796935
O O6 0.000000 0.969288 0.840882
O O7 0.750000 0.000000 0.858629
O O8 0.500000 0.526121 0.333720
O O9 0.750000 0.500000 0.318177
O O10 0.681820 0.554752 0.405656
O O11 0.676990 0.605161 0.309629
O O12 0.212855 0.693200 0.755536
O O13 0.000000 0.750000 0.783997
O O14 0.000000 0.130297 0.023063
O O15 0.250000 0.105718 0.000000
O O16 0.250000 0.902824 0.500000
O O17 0.000000 0.907977 0.528372
O O18 0.129658 0.000000 0.500000
O O19 0.500000 0.135636 0.764297
#
# Coordination Sequence:
#
# PCOD8278168 Si02
#       7
#     8  16  16   8  16  16  16
#     4   9  15  29  52  74  94 117 149 192 241 286
#     4  10  20  34  50  69  95 126 156 187 229 281
#     4  10  18  27  42  68  98 124 154 189 227 272
#     4   9  14  27  51  72  91 117 151 192 241 282
#     4  10  20  33  51  74  96 120 154 193 234 281
#     4   9  15  24  38  58  90 125 154 184 220 264
#     4   9  17  29  47  71  94 119 153 195 236 276
#
# _framework density 16.360586000000001
#
# number of rings (size 3 to 8) (size 9 to 14) (size 15 to 20)
#    0.000    2.500    3.333    0.750    0.000    1.000 
#    0.000    1.667    0.000    0.000    0.000    2.917 
#    0.000    0.000    0.000    0.000    0.000    0.000 
#
# Total GULP energy -594716.003027 kJ/mol
# GULP energy per Si atom -12389.916730 kJ/mol
# Density = 1.632335 g / cm^3
# Si number density = 16.360586 Si / 1000 Ang^3
#
#
#
# Elastic Constant Matrix: (Units=GPa)
#
#
# Indices 1 2 3 4 5 6 
#
# 1 71.9074 34.8565 32.2540 0.0000 0.0000 0.0000
# 2 34.8565 74.2648 30.6952 0.0000 0.0000 0.0000
# 3 32.2540 30.6952 100.9086 0.0000 0.0000 0.0000
# 4 0.0000 0.0000 0.0000 13.6528 0.0000 0.0000
# 5 0.0000 0.0000 0.0000 0.0000 17.0994 0.0000
# 6 0.0000 0.0000 0.0000 0.0000 0.0000 13.4299
#
#
#
# Elastic Compliance Matrix: (Units=1/GPa)
#
#
# Indices 1 2 3 4 5 6 
#
# 1 0.019254 -0.007427 -0.003895 0.000000 0.000000 0.000000
# 2 -0.007427 0.018267 -0.003183 0.000000 0.000000 0.000000
# 3 -0.003895 -0.003183 0.012123 0.000000 0.000000 0.000000
# 4 0.000000 0.000000 0.000000 0.073245 0.000000 0.000000
# 5 0.000000 0.000000 0.000000 0.000000 0.058481 0.000000
# 6 0.000000 0.000000 0.000000 0.000000 0.000000 0.074461
#
#
# Mechanical properties :
#
#
# Convention : Reuss Voigt Hill
#
# Bulk Modulus (GPa) = 48.46268 49.18804 48.82536
# Shear Modulus (GPa) = 17.13982 18.78812 17.96397
#
# Velocity S-wave (km/s) = 3.24022 3.39245 3.31721
# Velocity P-wave (km/s) = 6.60943 6.74353 6.67682
#
# Compressibility (1/GPa) = 0.02063444
#
# Stress axis : x y z
#
# Youngs Moduli (GPa) = 51.93694 54.74449 82.48752
#
# Poissons Ratio (x) = 0.40659 0.32129
# Poissons Ratio (y) = 0.38574 0.26252
# Poissons Ratio (z) = 0.20230 0.17423
#
# Static dielectric constant tensor:
#      x y z
#    x 3.649370 0.000000 0.000000 
#    y 0.000000 3.050890 0.000000 
#    z 0.000000 0.000000 3.107370 
# 
# 
# High freq. dielectric constant tensor:
#      x y z
#    x 1.608260 0.000000 0.000000 
#    y 0.000000 1.600330 0.000000 
#    z 0.000000 0.000000 1.637330 
# 
# From -- ./inp_files/37941.got.cif
#   From: 2010.03.12/outbox.cif.g09.slc.cpg/sg67_19_cif.got.tgz:37941.got - 2010.04.10 22:41:39.
