data_PCOD8278325
_publ_section_title
;
Structure prediction by ZEFSAII (Michael W. Deem and Ramdas Pophale) SiO2 
 PCOD8278325
Probable space group: C M M A
;
_chemical_formula_sum "Si O2"
_cell_formula_units_Z 80
_cell_length_a 25.901596
_cell_length_b 17.356940
_cell_length_c 9.694481
_cell_angle_alpha 90.000000
_cell_angle_beta 90.000000
_cell_angle_gamma 90.000000
_cell_volume 4358.371552
_symmetry_space_group_name_H-M "C M M A"
_symmetry_group_IT_number 67
_symmetry_cell_setting 'orthorhombic'
loop_
_space_group_symop_operation_xyz
x,y,z
-x,1/2-y,z
x,-y,-z
-x,1/2+y,-z
-x,-y,-z
x,1/2+y,-z
-x,y,z
x,1/2-y,z
1/2+x,1/2+y,z
1/2-x,-y,z
1/2+x,1/2-y,-z
1/2-x,y,-z
1/2-x,1/2-y,-z
1/2+x,y,-z
1/2-x,1/2+y,z
1/2+x,-y,z
loop_
_atom_site_type_symbol
_atom_site_label
_atom_site_fract_x
_atom_site_fract_y
_atom_site_fract_z
Si Si1 0.140009 0.660446 0.045698
Si Si2 0.284123 0.660000 0.714471
Si Si3 0.367105 0.090234 0.479654
Si Si4 0.559229 0.841307 0.737321
Si Si5 0.832192 0.158550 0.250125
O O1 0.131681 0.750000 0.021703
O O2 0.147433 0.622291 0.894857
O O3 0.190926 0.644787 0.136188
O O4 0.089653 0.628514 0.126654
O O5 0.287354 0.750000 0.674710
O O6 0.314366 0.613524 0.597128
O O7 0.225876 0.629142 0.720887
O O8 0.417373 0.118457 0.397434
O O9 0.369566 0.129560 0.629648
O O10 0.369325 0.000000 0.500000
O O11 0.500000 0.865399 0.753185
O O12 0.566691 0.750000 0.719598
O O13 0.831991 0.250000 0.242595
#
# Coordination Sequence:
#
# PCOD8278325 Si02
#       5
#    16  16  16  16  16
#     4   8  15  29  51  77  98 120 161 214 260 301
#     4   9  17  31  50  71  99 136 170 201 248 307
#     4  11  22  33  47  71 106 139 170 205 243 293
#     4   9  18  36  59  76  95 129 169 209 259 315
#     4  10  18  30  51  76 100 127 165 212 252 292
#
# _framework density 18.355478999999999
#
# number of rings (size 3 to 8) (size 9 to 14) (size 15 to 20)
#    0.000    2.600    0.000    4.200    0.000    6.000 
#    0.000    5.000    0.000    9.600    0.000    0.000 
#    0.000    0.000    0.000    0.000    0.000    0.000 
#
# Total GULP energy -495925.129610 kJ/mol
# GULP energy per Si atom -12398.128240 kJ/mol
# Density = 1.831370 g / cm^3
# Si number density = 18.355479 Si / 1000 Ang^3
#
#
#
# Elastic Constant Matrix: (Units=GPa)
#
#
# Indices 1 2 3 4 5 6 
#
# 1 118.4462 29.4816 52.7936 0.0000 0.0000 0.0000
# 2 29.4816 35.3531 19.4380 0.0000 0.0000 0.0000
# 3 52.7936 19.4380 125.5541 0.0000 0.0000 0.0000
# 4 0.0000 0.0000 0.0000 0.9214 0.0000 0.0000
# 5 0.0000 0.0000 0.0000 0.0000 21.9077 0.0000
# 6 0.0000 0.0000 0.0000 0.0000 0.0000 16.0916
#
#
#
# Elastic Compliance Matrix: (Units=1/GPa)
#
#
# Indices 1 2 3 4 5 6 
#
# 1 0.012164 -0.008014 -0.003874 0.000000 0.000000 0.000000
# 2 -0.008014 0.036197 -0.002234 0.000000 0.000000 0.000000
# 3 -0.003874 -0.002234 0.009940 0.000000 0.000000 0.000000
# 4 0.000000 0.000000 0.000000 1.085306 0.000000 0.000000
# 5 0.000000 0.000000 0.000000 0.000000 0.045646 0.000000
# 6 0.000000 0.000000 0.000000 0.000000 0.000000 0.062144
#
#
# Mechanical properties :
#
#
# Convention : Reuss Voigt Hill
#
# Bulk Modulus (GPa) = 33.27057 53.64219 43.45638
# Shear Modulus (GPa) = 3.87699 19.62683 11.75191
#
# Velocity S-wave (km/s) = 1.45491 3.27351 2.53304
# Velocity P-wave (km/s) = 4.58120 6.60116 5.68167
#
# Compressibility (1/GPa) = 0.03005660
#
# Stress axis : x y z
#
# Youngs Moduli (GPa) = 82.20945 27.62638 100.60745
#
# Poissons Ratio (x) = 0.22139 0.38977
# Poissons Ratio (y) = 0.65880 0.22479
# Poissons Ratio (z) = 0.31849 0.06173
#
# Static dielectric constant tensor:
#      x y z
#    x 3.367410 0.000000 0.000000 
#    y 0.000000 2.978040 0.000000 
#    z 0.000000 0.000000 3.926930 
# 
# 
# High freq. dielectric constant tensor:
#      x y z
#    x 1.697740 0.000000 0.000000 
#    y 0.000000 1.672800 0.000000 
#    z 0.000000 0.000000 1.726770 
# 
# From -- ./inp_files/9882.got.cif
#   From: 2010.03.12/outbox.cif.g09.slc.cpg/sg67_5_cif.got.tgz:9882.got - 2010.04.10 22:41:39.
