data_PCOD8278354
_publ_section_title
;
Structure prediction by ZEFSAII (Michael W. Deem and Ramdas Pophale) SiO2 
 PCOD8278354
Probable space group: C M M A
;
_chemical_formula_sum "Si O2"
_cell_formula_units_Z 96
_cell_length_a 23.938648
_cell_length_b 16.343344
_cell_length_c 12.530421
_cell_angle_alpha 90.000000
_cell_angle_beta 90.000000
_cell_angle_gamma 90.000000
_cell_volume 4902.371327
_symmetry_space_group_name_H-M "C M M A"
_symmetry_group_IT_number 67
_symmetry_cell_setting 'orthorhombic'
loop_
_space_group_symop_operation_xyz
x,y,z
-x,1/2-y,z
x,-y,-z
-x,1/2+y,-z
-x,-y,-z
x,1/2+y,-z
-x,y,z
x,1/2-y,z
1/2+x,1/2+y,z
1/2-x,-y,z
1/2+x,1/2-y,-z
1/2-x,y,-z
1/2-x,1/2-y,-z
1/2+x,y,-z
1/2-x,1/2+y,z
1/2+x,-y,z
loop_
_atom_site_type_symbol
_atom_site_label
_atom_site_fract_x
_atom_site_fract_y
_atom_site_fract_z
Si Si1 0.691391 0.654562 0.662241
Si Si2 0.119087 0.594968 0.526628
Si Si3 0.382220 0.153063 0.146218
Si Si4 0.308719 0.652713 0.043970
Si Si5 0.313579 0.847371 0.284899
Si Si6 0.500000 0.653384 0.771447
Si Si7 0.500000 0.093044 0.463760
O O1 0.695544 0.750000 0.683351
O O2 0.664792 0.638700 0.547339
O O3 0.653088 0.615099 0.755266
O O4 0.754257 0.619878 0.669641
O O5 0.117813 0.500000 0.500000
O O6 0.137039 0.610042 0.648328
O O7 0.057148 0.633998 0.508792
O O8 0.376326 0.250000 0.149408
O O9 0.446665 0.127579 0.158232
O O10 0.357950 0.120216 0.033847
O O11 0.305975 0.750000 0.044967
O O12 0.320312 0.621475 0.163440
O O13 0.250000 0.617989 0.000000
O O14 0.319278 0.750000 0.294353
O O15 0.500000 0.750000 0.742633
O O16 0.500000 0.601173 0.663608
O O17 0.500000 0.000000 0.500000
#
# Coordination Sequence:
#
# PCOD8278354 Si02
#       7
#    16  16  16  16  16   8   8
#     4  10  18  31  53  80 107 134 172 217 257 312
#     4  11  23  37  52  74 103 143 179 221 270 316
#     4   9  16  27  48  79 105 130 168 214 259 297
#     4   9  15  28  50  77 108 138 169 206 254 315
#     4  10  20  33  53  82 112 141 172 210 260 320
#     4  10  18  30  53  82 107 132 176 230 263 297
#     4  10  22  38  53  72  96 142 185 220 260 316
#
# _framework density 19.582359
#
# number of rings (size 3 to 8) (size 9 to 14) (size 15 to 20)
#    0.000    2.167    3.333    1.000    0.000    3.333 
#    0.000    0.833    0.000    3.000    0.000    2.333 
#    0.000    0.000    0.000    0.000    0.000    0.000 
#
# Total GULP energy -595060.008186 kJ/mol
# GULP energy per Si atom -12397.083504 kJ/mol
# Density = 1.953779 g / cm^3
# Si number density = 19.582359 Si / 1000 Ang^3
#
#
#
# Elastic Constant Matrix: (Units=GPa)
#
#
# Indices 1 2 3 4 5 6 
#
# 1 165.8945 15.5151 93.3013 0.0000 0.0000 0.0000
# 2 15.5151 20.1150 14.5294 0.0000 0.0000 0.0000
# 3 93.3013 14.5294 171.4651 0.0000 0.0000 0.0000
# 4 0.0000 0.0000 0.0000 11.1802 0.0000 0.0000
# 5 0.0000 0.0000 0.0000 0.0000 41.3660 0.0000
# 6 0.0000 0.0000 0.0000 0.0000 0.0000 9.5007
#
#
#
# Elastic Compliance Matrix: (Units=1/GPa)
#
#
# Indices 1 2 3 4 5 6 
#
# 1 0.008924 -0.003596 -0.004551 0.000000 0.000000 0.000000
# 2 -0.003596 0.054404 -0.002653 0.000000 0.000000 0.000000
# 3 -0.004551 -0.002653 0.008533 0.000000 0.000000 0.000000
# 4 0.000000 0.000000 0.000000 0.089444 0.000000 0.000000
# 5 0.000000 0.000000 0.000000 0.000000 0.024174 0.000000
# 6 0.000000 0.000000 0.000000 0.000000 0.000000 0.105256
#
#
# Mechanical properties :
#
#
# Convention : Reuss Voigt Hill
#
# Bulk Modulus (GPa) = 19.89621 67.12957 43.51289
# Shear Modulus (GPa) = 15.19340 28.01794 21.60567
#
# Velocity S-wave (km/s) = 2.78847 3.78666 3.32523
# Velocity P-wave (km/s) = 4.53318 7.31256 6.08372
#
# Compressibility (1/GPa) = 0.05026082
#
# Stress axis : x y z
#
# Youngs Moduli (GPa) = 112.05930 18.38090 117.18658
#
# Poissons Ratio (x) = 0.06609 0.53333
# Poissons Ratio (y) = 0.40294 0.31095
# Poissons Ratio (z) = 0.51000 0.04877
#
# Static dielectric constant tensor:
#      x y z
#    x 4.023340 0.000000 0.000000 
#    y 0.000000 3.014530 0.000000 
#    z 0.000000 0.000000 4.272880 
# 
# 
# High freq. dielectric constant tensor:
#      x y z
#    x 1.771070 0.000000 0.000000 
#    y 0.000000 1.711040 0.000000 
#    z 0.000000 0.000000 1.766400 
# 
# From -- ./inp_files/19704.got.cif
#   From: 2010.03.12/outbox.cif.g09.slc.cpg/sg67_10_cif.got.tgz:19704.got - 2010.04.10 22:41:39.
