data_PCOD8278844
_publ_section_title
;
Structure prediction by ZEFSAII (Michael W. Deem and Ramdas Pophale) SiO2 
 PCOD8278844
Probable space group: C M M A
;
_chemical_formula_sum "Si O2"
_cell_formula_units_Z 88
_cell_length_a 26.783143
_cell_length_b 24.288550
_cell_length_c 6.998048
_cell_angle_alpha 90.000000
_cell_angle_beta 90.000000
_cell_angle_gamma 90.000000
_cell_volume 4552.396133
_symmetry_space_group_name_H-M "C M M A"
_symmetry_group_IT_number 67
_symmetry_cell_setting 'orthorhombic'
loop_
_space_group_symop_operation_xyz
x,y,z
-x,1/2-y,z
x,-y,-z
-x,1/2+y,-z
-x,-y,-z
x,1/2+y,-z
-x,y,z
x,1/2-y,z
1/2+x,1/2+y,z
1/2-x,-y,z
1/2+x,1/2-y,-z
1/2-x,y,-z
1/2-x,1/2-y,-z
1/2+x,y,-z
1/2-x,1/2+y,z
1/2+x,-y,z
loop_
_atom_site_type_symbol
_atom_site_label
_atom_site_fract_x
_atom_site_fract_y
_atom_site_fract_z
Si Si1 0.807068 0.340682 0.061483
Si Si2 0.638640 0.048929 0.880545
Si Si3 0.383275 0.812808 0.742958
Si Si4 0.302987 0.310678 0.532806
Si Si5 0.902806 0.000000 0.500000
Si Si6 0.057398 0.581846 0.186763
O O1 0.844422 0.313069 0.915176
O O2 0.750000 0.339004 0.000000
O O3 0.821775 0.402561 0.115257
O O4 0.814078 0.303661 0.246386
O O5 0.629497 0.033367 0.658045
O O6 0.587834 0.062523 0.999405
O O7 0.664691 0.000000 0.000000
O O8 0.403196 0.750000 0.711352
O O9 0.351010 0.838250 0.566800
O O10 0.429253 0.854352 0.768856
O O11 0.298145 0.250000 0.437273
O O12 0.250000 0.342778 0.500000
O O13 0.934652 0.043874 0.624681
O O14 0.000000 0.579247 0.127602
#
# Coordination Sequence:
#
# PCOD8278844 Si02
#       6
#    16  16  16  16   8  16
#     4  11  20  33  55  76 107 145 183 220 272 322
#     4   9  21  37  54  78 108 137 178 226 275 331
#     4  10  21  36  53  79 114 148 182 223 272 327
#     4  10  19  31  50  78 106 135 179 223 259 310
#     4  10  19  38  62  81 106 142 181 234 285 324
#     4  10  21  36  57  84 109 140 184 229 276 331
#
# _framework density 19.330480999999999
#
# number of rings (size 3 to 8) (size 9 to 14) (size 15 to 20)
#    0.000    2.000    1.818    1.909    0.000    5.455 
#    0.000    0.000    0.000    1.091    0.000    5.091 
#    0.000    0.000    0.000    0.000    0.000    0.000 
#
# Total GULP energy -545139.599609 kJ/mol
# GULP energy per Si atom -12389.536355 kJ/mol
# Density = 1.928648 g / cm^3
# Si number density = 19.330481 Si / 1000 Ang^3
#
#
#
# Elastic Constant Matrix: (Units=GPa)
#
#
# Indices 1 2 3 4 5 6 
#
# 1 16.1224 -0.6916 8.0368 0.0000 0.0000 0.0000
# 2 -0.6916 85.5012 9.0022 0.0000 0.0000 0.0000
# 3 8.0368 9.0022 123.5341 0.0000 0.0000 0.0000
# 4 0.0000 0.0000 0.0000 28.8687 0.0000 0.0000
# 5 0.0000 0.0000 0.0000 0.0000 18.5207 0.0000
# 6 0.0000 0.0000 0.0000 0.0000 0.0000 34.0442
#
#
#
# Elastic Compliance Matrix: (Units=1/GPa)
#
#
# Indices 1 2 3 4 5 6 
#
# 1 0.064183 0.000966 -0.004246 0.000000 0.000000 0.000000
# 2 0.000966 0.011801 -0.000923 0.000000 0.000000 0.000000
# 3 -0.004246 -0.000923 0.008438 0.000000 0.000000 0.000000
# 4 0.000000 0.000000 0.000000 0.034640 0.000000 0.000000
# 5 0.000000 0.000000 0.000000 0.000000 0.053994 0.000000
# 6 0.000000 0.000000 0.000000 0.000000 0.000000 0.029374
#
#
# Mechanical properties :
#
#
# Convention : Reuss Voigt Hill
#
# Bulk Modulus (GPa) = 13.15489 28.65028 20.90259
# Shear Modulus (GPa) = 21.17087 30.20740 25.68913
#
# Velocity S-wave (km/s) = 3.31298 3.95737 3.64942
# Velocity P-wave (km/s) = 4.63190 5.97783 5.34738
#
# Compressibility (1/GPa) = 0.07601733
#
# Stress axis : x y z
#
# Youngs Moduli (GPa) = 15.58035 84.74063 118.50563
#
# Poissons Ratio (x) = -0.08188 0.50318
# Poissons Ratio (y) = -0.01505 0.10936
# Poissons Ratio (z) = 0.06615 0.07820
#
# Static dielectric constant tensor:
#      x y z
#    x 3.211300 0.000000 0.000000 
#    y 0.000000 3.556800 0.000000 
#    z 0.000000 0.000000 3.657310 
# 
# 
# High freq. dielectric constant tensor:
#      x y z
#    x 1.725820 0.000000 0.000000 
#    y 0.000000 1.756820 0.000000 
#    z 0.000000 0.000000 1.766430 
# 
# From -- ./inp_files/4292.got.cif
#   From: 2010.03.12/outbox.cif.g09.slc.cpg/sg67_3_cif.got.tgz:4292.got - 2010.04.10 22:41:39.
