data_PCOD8278832
_publ_section_title
;
Structure prediction by ZEFSAII (Michael W. Deem and Ramdas Pophale) SiO2 
 PCOD8278832
Probable space group: C M M A
;
_chemical_formula_sum "Si O2"
_cell_formula_units_Z 96
_cell_length_a 8.915661
_cell_length_b 19.072540
_cell_length_c 31.186106
_cell_angle_alpha 90.000000
_cell_angle_beta 90.000000
_cell_angle_gamma 90.000000
_cell_volume 5303.019597
_symmetry_space_group_name_H-M "C M M A"
_symmetry_group_IT_number 67
_symmetry_cell_setting 'orthorhombic'
loop_
_space_group_symop_operation_xyz
x,y,z
-x,1/2-y,z
x,-y,-z
-x,1/2+y,-z
-x,-y,-z
x,1/2+y,-z
-x,y,z
x,1/2-y,z
1/2+x,1/2+y,z
1/2-x,-y,z
1/2+x,1/2-y,-z
1/2-x,y,-z
1/2-x,1/2-y,-z
1/2+x,y,-z
1/2-x,1/2+y,z
1/2+x,-y,z
loop_
_atom_site_type_symbol
_atom_site_label
_atom_site_fract_x
_atom_site_fract_y
_atom_site_fract_z
Si Si1 0.826182 0.667639 0.871510
Si Si2 0.674399 0.924537 0.800421
Si Si3 0.825824 0.574765 0.294463
Si Si4 0.830884 0.166504 0.957710
Si Si5 0.178244 0.923521 0.622589
Si Si6 0.676462 0.670250 0.456567
O O1 0.798676 0.750000 0.866503
O O2 0.746304 0.630837 0.832116
O O3 0.756426 0.639409 0.915863
O O4 0.000000 0.648187 0.871562
O O5 0.500000 0.934071 0.810993
O O6 0.696241 0.891240 0.752594
O O7 0.750000 0.000000 0.805621
O O8 0.750000 0.500000 0.291330
O O9 0.741180 0.613994 0.333759
O O10 0.000000 0.567384 0.306216
O O11 0.829511 0.250000 0.959129
O O12 0.000000 0.137569 0.956345
O O13 0.750000 0.136159 0.000000
O O14 0.232409 0.876448 0.582978
O O15 0.000000 0.929128 0.625095
O O16 0.250000 0.000000 0.617054
O O17 0.500000 0.665128 0.462095
O O18 0.728543 0.750000 0.448086
O O19 0.750000 0.640730 0.500000
#
# Coordination Sequence:
#
# PCOD8278832 Si02
#       6
#    16  16  16  16  16  16
#     4  10  20  33  50  74 103 133 167 208 252 296
#     4  10  20  34  53  75 100 132 169 207 247 297
#     4   9  17  30  49  72  97 126 161 199 240 287
#     4   9  16  27  45  69  97 129 165 205 249 296
#     4  10  19  31  50  74  99 124 155 198 241 283
#     4   9  19  35  52  70  94 127 163 196 234 282
#
# _framework density 18.102893999999999
#
# number of rings (size 3 to 8) (size 9 to 14) (size 15 to 20)
#    0.000    2.500    0.000    3.500    0.000    6.667 
#    0.000    2.500    0.000    3.500    0.000    3.500 
#    0.000    0.000    0.000    0.000    0.000    0.000 
#
# Total GULP energy -594996.098815 kJ/mol
# GULP energy per Si atom -12395.752059 kJ/mol
# Density = 1.806169 g / cm^3
# Si number density = 18.102894 Si / 1000 Ang^3
#
#
#
# Elastic Constant Matrix: (Units=GPa)
#
#
# Indices 1 2 3 4 5 6 
#
# 1 128.0580 35.9637 86.3919 0.0000 0.0000 0.0000
# 2 35.9637 36.5375 51.7095 0.0000 0.0000 0.0000
# 3 86.3919 51.7095 192.4953 0.0000 0.0000 0.0000
# 4 0.0000 0.0000 0.0000 14.7570 0.0000 0.0000
# 5 0.0000 0.0000 0.0000 0.0000 39.0560 0.0000
# 6 0.0000 0.0000 0.0000 0.0000 0.0000 22.7268
#
#
#
# Elastic Compliance Matrix: (Units=1/GPa)
#
#
# Indices 1 2 3 4 5 6 
#
# 1 0.012180 -0.006861 -0.003624 0.000000 0.000000 0.000000
# 2 -0.006861 0.048021 -0.009821 0.000000 0.000000 0.000000
# 3 -0.003624 -0.009821 0.009459 0.000000 0.000000 0.000000
# 4 0.000000 0.000000 0.000000 0.067765 0.000000 0.000000
# 5 0.000000 0.000000 0.000000 0.000000 0.025604 0.000000
# 6 0.000000 0.000000 0.000000 0.000000 0.000000 0.044001
#
#
# Mechanical properties :
#
#
# Convention : Reuss Voigt Hill
#
# Bulk Modulus (GPa) = 34.42288 78.35790 56.39039
# Shear Modulus (GPa) = 19.43083 27.50969 23.47026
#
# Velocity S-wave (km/s) = 3.27976 3.90247 3.60459
# Velocity P-wave (km/s) = 5.77918 7.98025 6.96718
#
# Compressibility (1/GPa) = 0.02905044
#
# Stress axis : x y z
#
# Youngs Moduli (GPa) = 82.09990 20.82436 105.71697
#
# Poissons Ratio (x) = 0.14287 0.38307
# Poissons Ratio (y) = 0.56328 1.03820
# Poissons Ratio (z) = 0.29749 0.20451
#
# Static dielectric constant tensor:
#      x y z
#    x 3.493420 0.000000 0.000000 
#    y 0.000000 2.938730 0.000000 
#    z 0.000000 0.000000 3.991800 
# 
# 
# High freq. dielectric constant tensor:
#      x y z
#    x 1.717850 0.000000 0.000000 
#    y 0.000000 1.649070 0.000000 
#    z 0.000000 0.000000 1.724640 
# 
# From -- ./inp_files/43470.got.cif
#   From: 2010.03.12/outbox.cif.g09.slc.cpg/sg67_22_cif.got.tgz:43470.got - 2010.04.10 22:41:39.
