data_PCOD8278676
_publ_section_title
;
Structure prediction by ZEFSAII (Michael W. Deem and Ramdas Pophale) SiO2 
 PCOD8278676
Probable space group: C M M A
;
_chemical_formula_sum "Si O2"
_cell_formula_units_Z 80
_cell_length_a 8.981166
_cell_length_b 27.240791
_cell_length_c 18.749337
_cell_angle_alpha 90.000000
_cell_angle_beta 90.000000
_cell_angle_gamma 90.000000
_cell_volume 4587.101531
_symmetry_space_group_name_H-M "C M M A"
_symmetry_group_IT_number 67
_symmetry_cell_setting 'orthorhombic'
loop_
_space_group_symop_operation_xyz
x,y,z
-x,1/2-y,z
x,-y,-z
-x,1/2+y,-z
-x,-y,-z
x,1/2+y,-z
-x,y,z
x,1/2-y,z
1/2+x,1/2+y,z
1/2-x,-y,z
1/2+x,1/2-y,-z
1/2-x,y,-z
1/2-x,1/2-y,-z
1/2+x,y,-z
1/2-x,1/2+y,z
1/2+x,-y,z
loop_
_atom_site_type_symbol
_atom_site_label
_atom_site_fract_x
_atom_site_fract_y
_atom_site_fract_z
Si Si1 0.325515 0.353182 0.425378
Si Si2 0.328400 0.304775 0.702252
Si Si3 0.174478 0.049578 0.655881
Si Si4 0.672024 0.900221 0.217396
Si Si5 0.824520 0.051833 0.071687
O O1 0.500000 0.346826 0.434143
O O2 0.250000 0.341657 0.500000
O O3 0.269244 0.314011 0.367783
O O4 0.282107 0.407819 0.399665
O O5 0.500000 0.310562 0.679852
O O6 0.294617 0.250000 0.731150
O O7 0.287636 0.343614 0.764539
O O8 0.232258 0.062973 0.734509
O O9 0.000000 0.041326 0.660684
O O10 0.250000 0.000000 0.627644
O O11 0.500000 0.911648 0.233673
O O12 0.709493 0.909738 0.134797
O O13 0.000000 0.044230 0.059946
O O14 0.750000 0.000000 0.091098
O O15 0.750000 0.073493 0.000000
#
# Coordination Sequence:
#
# PCOD8278676 Si02
#       5
#    16  16  16  16  16
#     4  10  21  35  50  70  96 125 158 196 239 286
#     4   9  18  34  55  75  94 120 156 198 243 287
#     4  10  20  32  48  70  95 126 161 196 235 281
#     4   9  18  32  50  72  97 125 159 198 237 280
#     4  10  19  30  46  70 100 131 161 192 228 273
#
# _framework density 17.440206
#
# number of rings (size 3 to 8) (size 9 to 14) (size 15 to 20)
#    0.000    2.400    0.000    3.000    0.000    6.800 
#    0.000    2.000    0.000    0.600    0.000    0.000 
#    0.000    0.000    0.000    0.000    0.000    0.800 
#
# Total GULP energy -496043.773971 kJ/mol
# GULP energy per Si atom -12401.094349 kJ/mol
# Density = 1.740051 g / cm^3
# Si number density = 17.440206 Si / 1000 Ang^3
#
#
#
# Elastic Constant Matrix: (Units=GPa)
#
#
# Indices 1 2 3 4 5 6 
#
# 1 67.1021 30.5293 38.1659 0.0000 0.0000 0.0000
# 2 30.5293 95.5442 43.4044 0.0000 0.0000 0.0000
# 3 38.1659 43.4044 117.9810 0.0000 0.0000 0.0000
# 4 0.0000 0.0000 0.0000 16.1376 0.0000 0.0000
# 5 0.0000 0.0000 0.0000 0.0000 25.2119 0.0000
# 6 0.0000 0.0000 0.0000 0.0000 0.0000 22.0537
#
#
#
# Elastic Compliance Matrix: (Units=1/GPa)
#
#
# Indices 1 2 3 4 5 6 
#
# 1 0.019478 -0.004036 -0.004816 0.000000 0.000000 0.000000
# 2 -0.004036 0.013403 -0.003625 0.000000 0.000000 0.000000
# 3 -0.004816 -0.003625 0.011368 0.000000 0.000000 0.000000
# 4 0.000000 0.000000 0.000000 0.061967 0.000000 0.000000
# 5 0.000000 0.000000 0.000000 0.000000 0.039664 0.000000
# 6 0.000000 0.000000 0.000000 0.000000 0.000000 0.045344
#
#
# Mechanical properties :
#
#
# Convention : Reuss Voigt Hill
#
# Bulk Modulus (GPa) = 51.82982 56.09184 53.96083
# Shear Modulus (GPa) = 22.46081 23.91580 23.18831
#
# Velocity S-wave (km/s) = 3.59259 3.70713 3.65031
# Velocity P-wave (km/s) = 6.85507 7.11027 6.98384
#
# Compressibility (1/GPa) = 0.01929391
#
# Stress axis : x y z
#
# Youngs Moduli (GPa) = 51.33929 74.61096 87.96887
#
# Poissons Ratio (x) = 0.30113 0.42368
# Poissons Ratio (y) = 0.20720 0.31891
# Poissons Ratio (z) = 0.24726 0.27048
#
# Static dielectric constant tensor:
#      x y z
#    x 3.342100 0.000000 0.000000 
#    y 0.000000 3.275890 0.000000 
#    z 0.000000 0.000000 3.197480 
# 
# 
# High freq. dielectric constant tensor:
#      x y z
#    x 1.684010 0.000000 0.000000 
#    y 0.000000 1.664820 0.000000 
#    z 0.000000 0.000000 1.662240 
# 
# From -- ./inp_files/32125.got.cif
#   From: 2010.03.12/outbox.cif.g09.slc.cpg/sg67_17_cif.got.tgz:32125.got - 2010.04.10 22:41:39.
