data_PCOD8278418
_publ_section_title
;
Structure prediction by ZEFSAII (Michael W. Deem and Ramdas Pophale) SiO2 
 PCOD8278418
Probable space group: C M M A
;
_chemical_formula_sum "Si O2"
_cell_formula_units_Z 88
_cell_length_a 20.068204
_cell_length_b 22.857966
_cell_length_c 9.849073
_cell_angle_alpha 90.000000
_cell_angle_beta 90.000000
_cell_angle_gamma 90.000000
_cell_volume 4517.950267
_symmetry_space_group_name_H-M "C M M A"
_symmetry_group_IT_number 67
_symmetry_cell_setting 'orthorhombic'
loop_
_space_group_symop_operation_xyz
x,y,z
-x,1/2-y,z
x,-y,-z
-x,1/2+y,-z
-x,-y,-z
x,1/2+y,-z
-x,y,z
x,1/2-y,z
1/2+x,1/2+y,z
1/2-x,-y,z
1/2+x,1/2-y,-z
1/2-x,y,-z
1/2-x,1/2-y,-z
1/2+x,y,-z
1/2-x,1/2+y,z
1/2+x,-y,z
loop_
_atom_site_type_symbol
_atom_site_label
_atom_site_fract_x
_atom_site_fract_y
_atom_site_fract_z
Si Si1 0.197761 0.127176 0.812087
Si Si2 0.320489 0.067001 0.456667
Si Si3 0.575033 0.750000 0.450259
Si Si4 0.152017 0.366059 0.098502
Si Si5 0.363293 0.750000 0.742685
Si Si6 0.576681 0.123868 0.649682
Si Si7 0.422686 0.250000 0.980872
O O1 0.175685 0.077416 0.705035
O O2 0.276379 0.133643 0.830920
O O3 0.179028 0.191841 0.765191
O O4 0.160127 0.105548 0.949397
O O5 0.250000 0.096060 0.500000
O O6 0.384015 0.096647 0.524247
O O7 0.321110 0.000000 0.500000
O O8 0.500000 0.750000 0.503036
O O9 0.616910 0.750000 0.586775
O O10 0.588792 0.806311 0.356569
O O11 0.103887 0.400125 0.204891
O O12 0.118513 0.303550 0.078247
O O13 0.422914 0.750000 0.853841
O O14 0.500000 0.105841 0.633976
O O15 0.500000 0.250000 0.931517
#
# Coordination Sequence:
#
# PCOD8278418 Si02
#       7
#    16  16   8  16   8  16   8
#     4  10  20  37  60  89 119 157 204 258 305 358
#     4  11  23  42  65  87 115 155 212 265 311 363
#     4  10  20  32  53  86 122 157 195 236 294 369
#     4  10  20  35  56  85 124 158 205 243 304 369
#     4  10  18  31  55  86 120 154 201 252 298 361
#     4  11  22  38  60  90 126 159 198 250 309 371
#     4  10  19  31  50  82 129 173 197 233 301 375
#
# _framework density 19.477858000000001
#
# number of rings (size 3 to 8) (size 9 to 14) (size 15 to 20)
#    0.000    1.636    3.636    1.909    0.000    3.273 
#    0.000    3.636    0.000    1.091    0.000    0.000 
#    0.000    0.000    0.000    0.000    0.000    0.000 
#
# Total GULP energy -545209.583696 kJ/mol
# GULP energy per Si atom -12391.126902 kJ/mol
# Density = 1.943353 g / cm^3
# Si number density = 19.477858 Si / 1000 Ang^3
#
#
#
# Elastic Constant Matrix: (Units=GPa)
#
#
# Indices 1 2 3 4 5 6 
#
# 1 139.7545 37.0310 76.6948 0.0000 0.0000 0.0000
# 2 37.0310 65.0443 36.4877 0.0000 0.0000 0.0000
# 3 76.6948 36.4877 164.0490 0.0000 0.0000 0.0000
# 4 0.0000 0.0000 0.0000 12.8424 0.0000 0.0000
# 5 0.0000 0.0000 0.0000 0.0000 33.1822 0.0000
# 6 0.0000 0.0000 0.0000 0.0000 0.0000 9.2436
#
#
#
# Elastic Compliance Matrix: (Units=1/GPa)
#
#
# Indices 1 2 3 4 5 6 
#
# 1 0.010321 -0.003621 -0.004020 0.000000 0.000000 0.000000
# 2 -0.003621 0.018836 -0.002497 0.000000 0.000000 0.000000
# 3 -0.004020 -0.002497 0.008530 0.000000 0.000000 0.000000
# 4 0.000000 0.000000 0.000000 0.077867 0.000000 0.000000
# 5 0.000000 0.000000 0.000000 0.000000 0.030137 0.000000
# 6 0.000000 0.000000 0.000000 0.000000 0.000000 0.108183
#
#
# Mechanical properties :
#
#
# Convention : Reuss Voigt Hill
#
# Bulk Modulus (GPa) = 57.42969 74.36387 65.89678
# Shear Modulus (GPa) = 17.86012 25.62925 21.74469
#
# Velocity S-wave (km/s) = 3.03139 3.63135 3.34485
# Velocity P-wave (km/s) = 6.46538 7.47287 6.98731
#
# Compressibility (1/GPa) = 0.01741260
#
# Stress axis : x y z
#
# Youngs Moduli (GPa) = 96.89175 53.08933 117.22878
#
# Poissons Ratio (x) = 0.19223 0.47123
# Poissons Ratio (y) = 0.35083 0.29269
# Poissons Ratio (z) = 0.38948 0.13255
#
# Static dielectric constant tensor:
#      x y z
#    x 3.686140 0.000000 0.000000 
#    y 0.000000 2.973330 0.000000 
#    z 0.000000 0.000000 3.909650 
# 
# 
# High freq. dielectric constant tensor:
#      x y z
#    x 1.762890 0.000000 0.000000 
#    y 0.000000 1.718870 0.000000 
#    z 0.000000 0.000000 1.783320 
# 
# From -- ./inp_files/11295.got.cif
#   From: 2010.03.12/outbox.cif.g09.slc.cpg/sg67_6_cif.got.tgz:11295.got - 2010.04.10 22:41:39.
