data_PCOD8278070
_publ_section_title
;
Structure prediction by ZEFSAII (Michael W. Deem and Ramdas Pophale) SiO2 
 PCOD8278070
Probable space group: C M M A
;
_chemical_formula_sum "Si O2"
_cell_formula_units_Z 80
_cell_length_a 26.379899
_cell_length_b 8.579524
_cell_length_c 18.726859
_cell_angle_alpha 90.000000
_cell_angle_beta 90.000000
_cell_angle_gamma 90.000000
_cell_volume 4238.393378
_symmetry_space_group_name_H-M "C M M A"
_symmetry_group_IT_number 67
_symmetry_cell_setting 'orthorhombic'
loop_
_space_group_symop_operation_xyz
x,y,z
-x,1/2-y,z
x,-y,-z
-x,1/2+y,-z
-x,-y,-z
x,1/2+y,-z
-x,y,z
x,1/2-y,z
1/2+x,1/2+y,z
1/2-x,-y,z
1/2+x,1/2-y,-z
1/2-x,y,-z
1/2-x,1/2-y,-z
1/2+x,y,-z
1/2-x,1/2+y,z
1/2+x,-y,z
loop_
_atom_site_type_symbol
_atom_site_label
_atom_site_fract_x
_atom_site_fract_y
_atom_site_fract_z
Si Si1 0.093362 0.434808 0.334779
Si Si2 0.301483 0.067575 0.334601
Si Si3 0.500000 0.935848 0.078865
Si Si4 0.298672 0.067664 0.821218
Si Si5 0.000000 0.566274 0.421312
Si Si6 0.409084 0.068520 0.827139
O O1 0.089428 0.250000 0.338124
O O2 0.147948 0.486965 0.366359
O O3 0.049870 0.509398 0.381532
O O4 0.086962 0.498006 0.253368
O O5 0.304442 0.250000 0.348976
O O6 0.250000 0.000000 0.371154
O O7 0.299399 0.031053 0.250922
O O8 0.500000 0.750000 0.075760
O O9 0.450847 0.004885 0.120246
O O10 0.500000 0.000000 0.000000
O O11 0.292201 0.250000 0.803759
O O12 0.352656 0.037878 0.860135
O O13 0.250000 0.000000 0.865968
O O14 0.000000 0.500000 0.500000
O O15 0.000000 0.750000 0.424577
O O16 0.420447 0.250000 0.821811
#
# Coordination Sequence:
#
# PCOD8278070 Si02
#       6
#    16  16   8  16   8  16
#     4  10  19  35  57  80 103 135 174 216 260 307
#     4  10  17  27  45  74 108 139 168 207 253 303
#     4  10  19  34  50  68  94 128 165 206 252 304
#     4   9  15  25  42  68  97 128 161 200 248 300
#     4  12  25  40  56  78 106 140 175 214 258 308
#     4   8  16  30  51  73  98 130 165 201 250 306
#
# _framework density 18.875076
#
# number of rings (size 3 to 8) (size 9 to 14) (size 15 to 20)
#    0.000    2.400    0.000    6.900    0.000    1.600 
#    0.000    7.000    0.000    1.200    0.000    8.400 
#    0.000    0.000    0.000    0.000    0.000    0.000 
#
# Total GULP energy -495637.310420 kJ/mol
# GULP energy per Si atom -12390.932761 kJ/mol
# Density = 1.883211 g / cm^3
# Si number density = 18.875076 Si / 1000 Ang^3
#
#
#
# Elastic Constant Matrix: (Units=GPa)
#
#
# Indices 1 2 3 4 5 6 
#
# 1 222.3936 55.1557 72.9613 0.0000 0.0000 0.0000
# 2 55.1557 95.9131 29.8051 0.0000 0.0000 0.0000
# 3 72.9613 29.8051 74.0824 0.0000 0.0000 0.0000
# 4 0.0000 0.0000 0.0000 19.1791 0.0000 0.0000
# 5 0.0000 0.0000 0.0000 0.0000 -0.8795 0.0000
# 6 0.0000 0.0000 0.0000 0.0000 0.0000 34.1485
#
#
#
# Elastic Compliance Matrix: (Units=1/GPa)
#
#
# Indices 1 2 3 4 5 6 
#
# 1 0.007012 -0.002156 -0.006039 0.000000 0.000000 0.000000
# 2 -0.002156 0.012579 -0.002937 0.000000 0.000000 0.000000
# 3 -0.006039 -0.002937 0.020628 0.000000 0.000000 0.000000
# 4 0.000000 0.000000 0.000000 0.052140 0.000000 0.000000
# 5 0.000000 0.000000 0.000000 0.000000 -1.137042 0.000000
# 6 0.000000 0.000000 0.000000 0.000000 0.000000 0.029284
#
#
# Mechanical properties :
#
#
# Convention : Reuss Voigt Hill
#
# Bulk Modulus (GPa) = 55.69662 78.69260 67.19461
# Shear Modulus (GPa) = -5.06509 26.12076 10.52784
#
# Velocity S-wave (km/s) = -1.63991 3.72408 2.36426
# Velocity P-wave (km/s) = 5.09768 7.76360 6.56734
#
# Compressibility (1/GPa) = 0.01795441
#
# Stress axis : x y z
#
# Youngs Moduli (GPa) = 142.60377 79.49941 48.47826
#
# Poissons Ratio (x) = 0.17140 0.29276
# Poissons Ratio (y) = 0.30745 0.14240
# Poissons Ratio (z) = 0.86117 0.23352
#
# Static dielectric constant tensor:
#      x y z
#    x 4.414180 0.000000 0.000000 
#    y 0.000000 3.369820 0.000000 
#    z 0.000000 0.000000 3.035360 
# 
# 
# High freq. dielectric constant tensor:
#      x y z
#    x 1.770770 0.000000 0.000000 
#    y 0.000000 1.726390 0.000000 
#    z 0.000000 0.000000 1.665190 
# 
# From -- ./inp_files/35819.got.cif
#   From: 2010.03.12/outbox.cif.g09.slc.cpg/sg67_18_cif.got.tgz:35819.got - 2010.04.10 22:41:39.
