data_PCOD8278422
_publ_section_title
;
Structure prediction by ZEFSAII (Michael W. Deem and Ramdas Pophale) SiO2 
 PCOD8278422
Probable space group: C M M A
;
_chemical_formula_sum "Si O2"
_cell_formula_units_Z 64
_cell_length_a 24.614981
_cell_length_b 8.778875
_cell_length_c 14.824187
_cell_angle_alpha 90.000000
_cell_angle_beta 90.000000
_cell_angle_gamma 90.000000
_cell_volume 3203.385865
_symmetry_space_group_name_H-M "C M M A"
_symmetry_group_IT_number 67
_symmetry_cell_setting 'orthorhombic'
loop_
_space_group_symop_operation_xyz
x,y,z
-x,1/2-y,z
x,-y,-z
-x,1/2+y,-z
-x,-y,-z
x,1/2+y,-z
-x,y,z
x,1/2-y,z
1/2+x,1/2+y,z
1/2-x,-y,z
1/2+x,1/2-y,-z
1/2-x,y,-z
1/2-x,1/2-y,-z
1/2+x,y,-z
1/2-x,1/2+y,z
1/2+x,-y,z
loop_
_atom_site_type_symbol
_atom_site_label
_atom_site_fract_x
_atom_site_fract_y
_atom_site_fract_z
Si Si1 0.608037 0.427943 0.096991
Si Si2 0.500000 0.426941 0.595803
Si Si3 0.500000 0.568875 0.099406
Si Si4 0.808181 0.427505 0.748038
Si Si5 0.117626 0.429939 0.400899
O O1 0.596331 0.250000 0.084042
O O2 0.555203 0.505891 0.144564
O O3 0.658589 0.460767 0.161180
O O4 0.621337 0.500000 0.000000
O O5 0.500000 0.250000 0.578446
O O6 0.500000 0.500000 0.500000
O O7 0.442394 0.471257 0.642699
O O8 0.500000 0.750000 0.101643
O O9 0.500000 0.500000 0.000000
O O10 0.802249 0.250000 0.729001
O O11 0.750000 0.500000 0.763205
O O12 0.836510 0.501146 0.661959
O O13 0.123807 0.500000 0.500000
O O14 0.126169 0.250000 0.407634
#
# Coordination Sequence:
#
# PCOD8278422 Si02
#       5
#    16   8   8  16  16
#     4  10  21  38  60  86 117 151 188 233 286 341
#     4   8  16  31  54  85 116 146 180 221 273 333
#     4  10  18  31  56  87 118 150 186 229 280 339
#     4  11  25  42  59  82 112 149 195 242 285 335
#     4  10  20  37  61  88 119 152 188 231 282 338
#
# _framework density 19.978861999999999
#
# number of rings (size 3 to 8) (size 9 to 14) (size 15 to 20)
#    0.000    2.000    0.000    4.875    0.000    7.000 
#    0.000    7.500    0.000    0.000    0.000    0.000 
#    0.000    0.000    0.000    0.000    0.000    0.000 
#
# Total GULP energy -396579.083648 kJ/mol
# GULP energy per Si atom -12393.096364 kJ/mol
# Density = 1.993339 g / cm^3
# Si number density = 19.978862 Si / 1000 Ang^3
#
#
#
# Elastic Constant Matrix: (Units=GPa)
#
#
# Indices 1 2 3 4 5 6 
#
# 1 189.5964 93.0290 66.8810 0.0000 0.0000 0.0000
# 2 93.0290 138.5218 60.9919 0.0000 0.0000 0.0000
# 3 66.8810 60.9919 91.8203 0.0000 0.0000 0.0000
# 4 0.0000 0.0000 0.0000 28.9626 0.0000 0.0000
# 5 0.0000 0.0000 0.0000 0.0000 42.4513 0.0000
# 6 0.0000 0.0000 0.0000 0.0000 0.0000 35.6075
#
#
#
# Elastic Compliance Matrix: (Units=1/GPa)
#
#
# Indices 1 2 3 4 5 6 
#
# 1 0.008563 -0.004247 -0.003417 0.000000 0.000000 0.000000
# 2 -0.004247 0.012309 -0.005083 0.000000 0.000000 0.000000
# 3 -0.003417 -0.005083 0.016756 0.000000 0.000000 0.000000
# 4 0.000000 0.000000 0.000000 0.034527 0.000000 0.000000
# 5 0.000000 0.000000 0.000000 0.000000 0.023556 0.000000
# 6 0.000000 0.000000 0.000000 0.000000 0.000000 0.028084
#
#
# Mechanical properties :
#
#
# Convention : Reuss Voigt Hill
#
# Bulk Modulus (GPa) = 82.40205 95.74913 89.07559
# Shear Modulus (GPa) = 32.60856 34.67343 33.64099
#
# Velocity S-wave (km/s) = 4.04437 4.17046 4.10790
# Velocity P-wave (km/s) = 7.94628 8.43917 8.19643
#
# Compressibility (1/GPa) = 0.01213562
#
# Stress axis : x y z
#
# Youngs Moduli (GPa) = 116.77823 81.24003 59.68024
#
# Poissons Ratio (x) = 0.34499 0.20390
# Poissons Ratio (y) = 0.49591 0.30337
# Poissons Ratio (z) = 0.39898 0.41296
#
# Static dielectric constant tensor:
#      x y z
#    x 2.980900 0.000000 0.000000 
#    y 0.000000 3.707290 0.000000 
#    z 0.000000 0.000000 3.402080 
# 
# 
# High freq. dielectric constant tensor:
#      x y z
#    x 1.795270 0.000000 0.000000 
#    y 0.000000 1.795470 0.000000 
#    z 0.000000 0.000000 1.763310 
# 
# From -- ./inp_files/29779.got.cif
#   From: 2010.03.12/outbox.cif.g09.slc.cpg/sg67_15_cif.got.tgz:29779.got - 2010.04.10 22:41:39.
