data_PCOD8278136
_publ_section_title
;
Structure prediction by ZEFSAII (Michael W. Deem and Ramdas Pophale) SiO2 
 PCOD8278136
Probable space group: C M M A
;
_chemical_formula_sum "Si O2"
_cell_formula_units_Z 120
_cell_length_a 19.634961
_cell_length_b 25.600469
_cell_length_c 14.201853
_cell_angle_alpha 90.000000
_cell_angle_beta 90.000000
_cell_angle_gamma 90.000000
_cell_volume 7138.763224
_symmetry_space_group_name_H-M "C M M A"
_symmetry_group_IT_number 67
_symmetry_cell_setting 'orthorhombic'
loop_
_space_group_symop_operation_xyz
x,y,z
-x,1/2-y,z
x,-y,-z
-x,1/2+y,-z
-x,-y,-z
x,1/2+y,-z
-x,y,z
x,1/2-y,z
1/2+x,1/2+y,z
1/2-x,-y,z
1/2+x,1/2-y,-z
1/2-x,y,-z
1/2-x,1/2-y,-z
1/2+x,y,-z
1/2-x,1/2+y,z
1/2+x,-y,z
loop_
_atom_site_type_symbol
_atom_site_label
_atom_site_fract_x
_atom_site_fract_y
_atom_site_fract_z
Si Si1 0.723032 0.945415 0.851777
Si Si2 0.800155 0.307701 0.689383
Si Si3 0.258885 0.914084 0.353552
Si Si4 0.074665 0.863541 0.374449
Si Si5 0.924413 0.906998 0.172175
Si Si6 0.140323 0.808687 0.107385
Si Si7 0.250000 0.637894 0.000000
Si Si8 0.358233 0.941354 0.502486
O O1 0.749877 0.941809 0.745822
O O2 0.639971 0.942098 0.861486
O O3 0.759228 0.899030 0.909173
O O4 0.750000 0.000000 0.893736
O O5 0.773017 0.250000 0.662906
O O6 0.746953 0.351239 0.655446
O O7 0.871284 0.316753 0.633715
O O8 0.810690 0.312437 0.801362
O O9 0.332592 0.926169 0.397707
O O10 0.202631 0.938075 0.422430
O O11 0.083236 0.901258 0.284135
O O12 0.084413 0.899962 0.466330
O O13 0.000000 0.838036 0.378500
O O14 0.920909 0.849727 0.122540
O O15 0.000000 0.930466 0.147439
O O16 0.111303 0.750000 0.094500
O O17 0.184437 0.824894 0.015719
O O18 0.388080 0.000000 0.500000
#
# Coordination Sequence:
#
# PCOD8278136 Si02
#       8
#    16  16  16  16  16  16   8  16
#     4  11  19  31  50  70  98 135 167 201 247 296
#     4   9  16  29  46  66  91 122 154 188 242 293
#     4  10  17  30  44  67  95 122 160 202 240 285
#     4   9  17  30  43  65  98 123 153 198 241 285
#     4   9  17  31  48  70 100 127 159 200 245 296
#     4   9  16  28  47  71  98 126 153 194 247 293
#     4  10  18  30  44  74 100 122 160 202 238 286
#     4  10  18  28  46  67  89 127 164 197 239 285
#
# _framework density 16.809633999999999
#
# number of rings (size 3 to 8) (size 9 to 14) (size 15 to 20)
#    0.000    2.400    5.333    2.000    0.000    0.800 
#    0.000    8.000    0.000    6.400    0.000    0.000 
#    0.000    0.000    0.000    0.000    0.000    0.000 
#
# Total GULP energy -743498.385861 kJ/mol
# GULP energy per Si atom -12391.639764 kJ/mol
# Density = 1.677137 g / cm^3
# Si number density = 16.809634 Si / 1000 Ang^3
#
#
#
# Elastic Constant Matrix: (Units=GPa)
#
#
# Indices 1 2 3 4 5 6 
#
# 1 66.3606 27.3935 20.2888 0.0000 0.0000 0.0000
# 2 27.3935 92.9779 11.4526 0.0000 0.0000 0.0000
# 3 20.2888 11.4526 52.0704 0.0000 0.0000 0.0000
# 4 0.0000 0.0000 0.0000 19.5886 0.0000 0.0000
# 5 0.0000 0.0000 0.0000 0.0000 13.3105 0.0000
# 6 0.0000 0.0000 0.0000 0.0000 0.0000 14.1042
#
#
#
# Elastic Compliance Matrix: (Units=1/GPa)
#
#
# Indices 1 2 3 4 5 6 
#
# 1 0.018996 -0.004815 -0.006343 0.000000 0.000000 0.000000
# 2 -0.004815 0.012275 -0.000824 0.000000 0.000000 0.000000
# 3 -0.006343 -0.000824 0.021857 0.000000 0.000000 0.000000
# 4 0.000000 0.000000 0.000000 0.051050 0.000000 0.000000
# 5 0.000000 0.000000 0.000000 0.000000 0.075128 0.000000
# 6 0.000000 0.000000 0.000000 0.000000 0.000000 0.070901
#
#
# Mechanical properties :
#
#
# Convention : Reuss Voigt Hill
#
# Bulk Modulus (GPa) = 34.28701 36.63097 35.45899
# Shear Modulus (GPa) = 17.61223 19.55225 18.58224
#
# Velocity S-wave (km/s) = 3.24040 3.41421 3.32844
# Velocity P-wave (km/s) = 5.86871 6.11403 5.99263
#
# Compressibility (1/GPa) = 0.02916557
#
# Stress axis : x y z
#
# Youngs Moduli (GPa) = 52.64222 81.46345 45.75140
#
# Poissons Ratio (x) = 0.39229 0.29018
# Poissons Ratio (y) = 0.25350 0.03768
# Poissons Ratio (z) = 0.33389 0.06709
#
# Static dielectric constant tensor:
#      x y z
#    x 3.018310 0.000000 0.000000 
#    y 0.000000 3.215420 0.000000 
#    z 0.000000 0.000000 3.159470 
# 
# 
# High freq. dielectric constant tensor:
#      x y z
#    x 1.611110 0.000000 0.000000 
#    y 0.000000 1.646280 0.000000 
#    z 0.000000 0.000000 1.631740 
# 
# From -- ./inp_files/29673.got.cif
#   From: 2010.03.12/outbox.cif.g09.slc.cpg/sg67_15_cif.got.tgz:29673.got - 2010.04.10 22:41:39.
