data_PCOD8278425
_publ_section_title
;
Structure prediction by ZEFSAII (Michael W. Deem and Ramdas Pophale) SiO2 
 PCOD8278425
Probable space group: C M M A
;
_chemical_formula_sum "Si O2"
_cell_formula_units_Z 68
_cell_length_a 19.486439
_cell_length_b 21.599344
_cell_length_c 10.232687
_cell_angle_alpha 90.000000
_cell_angle_beta 90.000000
_cell_angle_gamma 90.000000
_cell_volume 4306.879625
_symmetry_space_group_name_H-M "C M M A"
_symmetry_group_IT_number 67
_symmetry_cell_setting 'orthorhombic'
loop_
_space_group_symop_operation_xyz
x,y,z
-x,1/2-y,z
x,-y,-z
-x,1/2+y,-z
-x,-y,-z
x,1/2+y,-z
-x,y,z
x,1/2-y,z
1/2+x,1/2+y,z
1/2-x,-y,z
1/2+x,1/2-y,-z
1/2-x,y,-z
1/2-x,1/2-y,-z
1/2+x,y,-z
1/2-x,1/2+y,z
1/2+x,-y,z
loop_
_atom_site_type_symbol
_atom_site_label
_atom_site_fract_x
_atom_site_fract_y
_atom_site_fract_z
Si Si1 0.750000 0.500000 0.500000
Si Si2 0.922701 0.321845 0.524095
Si Si3 0.219596 0.677413 0.859701
Si Si4 0.793603 0.881510 0.380880
Si Si5 0.925720 0.323115 0.229991
O O1 0.795208 0.456002 0.595771
O O2 0.903891 0.250000 0.530837
O O3 0.871581 0.357915 0.619816
O O4 0.913338 0.347847 0.376977
O O5 0.000000 0.333644 0.573683
O O6 0.228367 0.750000 0.825366
O O7 0.259737 0.635969 0.756014
O O8 0.138856 0.657771 0.859954
O O9 0.250000 0.661359 0.000000
O O10 0.750000 0.850033 0.500000
O O11 0.931480 0.250000 0.238511
O O12 0.000000 0.348573 0.176896
#
# Coordination Sequence:
#
# PCOD8278425 Si02
#       5
#     4  16  16  16  16
#     4   8  20  32  50  72  88 120 184 218 224 280
#     4   9  16  26  46  76  98 119 157 199 251 308
#     4  10  19  29  45  73  99 124 159 192 242 312
#     4  10  18  32  50  65  97 125 162 207 246 265
#     4   8  13  23  39  61  91 122 150 182 223 282
#
# _framework density 15.788691999999999
#
# number of rings (size 3 to 8) (size 9 to 14) (size 15 to 20)
#    0.706    2.118    2.353    2.118    0.000    0.941 
#    0.000    2.353    0.000    4.235    0.000    0.000 
#    0.000    7.529    0.000    0.000    0.000    0.000 
#
# Total GULP energy -421235.136802 kJ/mol
# GULP energy per Si atom -12389.268729 kJ/mol
# Density = 1.575276 g / cm^3
# Si number density = 15.788692 Si / 1000 Ang^3
#
#
#
# Elastic Constant Matrix: (Units=GPa)
#
#
# Indices 1 2 3 4 5 6 
#
# 1 147.0740 44.6330 59.7460 0.0000 0.0000 0.0000
# 2 44.6330 63.6543 34.2559 0.0000 0.0000 0.0000
# 3 59.7460 34.2559 84.9999 0.0000 0.0000 0.0000
# 4 0.0000 0.0000 0.0000 14.5414 0.0000 0.0000
# 5 0.0000 0.0000 0.0000 0.0000 24.7731 0.0000
# 6 0.0000 0.0000 0.0000 0.0000 0.0000 10.5878
#
#
#
# Elastic Compliance Matrix: (Units=1/GPa)
#
#
# Indices 1 2 3 4 5 6 
#
# 1 0.010352 -0.004268 -0.005556 0.000000 0.000000 0.000000
# 2 -0.004268 0.021821 -0.005794 0.000000 0.000000 0.000000
# 3 -0.005556 -0.005794 0.018005 0.000000 0.000000 0.000000
# 4 0.000000 0.000000 0.000000 0.068769 0.000000 0.000000
# 5 0.000000 0.000000 0.000000 0.000000 0.040366 0.000000
# 6 0.000000 0.000000 0.000000 0.000000 0.000000 0.094448
#
#
# Mechanical properties :
#
#
# Convention : Reuss Voigt Hill
#
# Bulk Modulus (GPa) = 52.79518 63.66643 58.23081
# Shear Modulus (GPa) = 17.16380 20.45335 18.80858
#
# Velocity S-wave (km/s) = 3.30069 3.60313 3.45522
# Velocity P-wave (km/s) = 6.93089 7.59748 7.27183
#
# Compressibility (1/GPa) = 0.01894112
#
# Stress axis : x y z
#
# Youngs Moduli (GPa) = 96.60325 45.82810 55.54052
#
# Poissons Ratio (x) = 0.19561 0.30858
# Poissons Ratio (y) = 0.41234 0.32179
# Poissons Ratio (z) = 0.53672 0.26552
#
# Static dielectric constant tensor:
#      x y z
#    x 3.320600 0.000000 0.000000 
#    y 0.000000 2.589040 0.000000 
#    z 0.000000 0.000000 2.712780 
# 
# 
# High freq. dielectric constant tensor:
#      x y z
#    x 1.620990 0.000000 0.000000 
#    y 0.000000 1.558450 0.000000 
#    z 0.000000 0.000000 1.575110 
# 
# From -- ./inp_files/9837.got.cif
#   From: 2010.03.12/outbox.cif.g09.slc.cpg/sg67_5_cif.got.tgz:9837.got - 2010.04.10 22:41:39.
