data_PCOD8278533
_publ_section_title
;
Structure prediction by ZEFSAII (Michael W. Deem and Ramdas Pophale) SiO2 
 PCOD8278533
Probable space group: C M M A
;
_chemical_formula_sum "Si O2"
_cell_formula_units_Z 104
_cell_length_a 8.748502
_cell_length_b 26.930133
_cell_length_c 24.384220
_cell_angle_alpha 90.000000
_cell_angle_beta 90.000000
_cell_angle_gamma 90.000000
_cell_volume 5744.881325
_symmetry_space_group_name_H-M "C M M A"
_symmetry_group_IT_number 67
_symmetry_cell_setting 'orthorhombic'
loop_
_space_group_symop_operation_xyz
x,y,z
-x,1/2-y,z
x,-y,-z
-x,1/2+y,-z
-x,-y,-z
x,1/2+y,-z
-x,y,z
x,1/2-y,z
1/2+x,1/2+y,z
1/2-x,-y,z
1/2+x,1/2-y,-z
1/2-x,y,-z
1/2-x,1/2-y,-z
1/2+x,y,-z
1/2-x,1/2+y,z
1/2+x,-y,z
loop_
_atom_site_type_symbol
_atom_site_label
_atom_site_fract_x
_atom_site_fract_y
_atom_site_fract_z
Si Si1 0.179863 0.447215 0.849762
Si Si2 0.680484 0.051879 0.276437
Si Si3 0.180665 0.651457 0.875211
Si Si4 0.818771 0.303859 0.235941
Si Si5 0.318730 0.139577 0.659157
Si Si6 0.819821 0.306536 0.557963
Si Si7 0.681779 0.250000 0.940087
O O1 0.250000 0.500000 0.868908
O O2 0.226566 0.436150 0.786544
O O3 0.242334 0.402070 0.888670
O O4 0.000000 0.451013 0.857361
O O5 0.500000 0.052773 0.283883
O O6 0.758252 0.087015 0.321003
O O7 0.750000 0.000000 0.293525
O O8 0.235390 0.660885 0.812960
O O9 0.238554 0.698846 0.910887
O O10 0.000000 0.645694 0.881808
O O11 0.746463 0.250000 0.225725
O O12 0.760944 0.322162 0.294579
O O13 0.000000 0.300850 0.234745
O O14 0.500000 0.138577 0.653120
O O15 0.245618 0.155394 0.602103
O O16 0.771654 0.250000 0.572793
O O17 0.750000 0.322237 0.500000
O O18 0.000000 0.312132 0.554773
O O19 0.500000 0.250000 0.941202
O O20 0.750000 0.250000 0.000000
#
# Coordination Sequence:
#
# PCOD8278533 Si02
#       7
#    16  16  16  16  16  16   8
#     4  10  20  33  52  79 112 148 185 228 278 333
#     4  10  20  33  49  73 107 142 179 218 267 322
#     4  10  18  33  55  79 109 147 187 227 271 323
#     4   9  16  27  46  74 106 138 174 213 260 319
#     4  11  20  31  52  78 106 140 177 218 269 326
#     4  10  21  37  55  75 103 138 179 225 268 317
#     4  10  22  38  60  84 114 154 195 232 273 326
#
# _framework density 18.103072000000001
#
# number of rings (size 3 to 8) (size 9 to 14) (size 15 to 20)
#    0.000    2.000    2.308    2.308    0.000    3.385 
#    0.000    0.000    0.000    1.846    0.000    6.462 
#    0.000    0.000    0.000    0.000    0.000    0.000 
#
# Total GULP energy -644537.408067 kJ/mol
# GULP energy per Si atom -12394.950155 kJ/mol
# Density = 1.806187 g / cm^3
# Si number density = 18.103072 Si / 1000 Ang^3
#
#
#
# Elastic Constant Matrix: (Units=GPa)
#
#
# Indices 1 2 3 4 5 6 
#
# 1 55.7640 40.6101 31.0054 0.0000 0.0000 0.0000
# 2 40.6101 156.5764 54.6320 0.0000 0.0000 0.0000
# 3 31.0054 54.6320 80.6069 0.0000 0.0000 0.0000
# 4 0.0000 0.0000 0.0000 20.3163 0.0000 0.0000
# 5 0.0000 0.0000 0.0000 0.0000 24.9733 0.0000
# 6 0.0000 0.0000 0.0000 0.0000 0.0000 29.8116
#
#
#
# Elastic Compliance Matrix: (Units=1/GPa)
#
#
# Indices 1 2 3 4 5 6 
#
# 1 0.024615 -0.004035 -0.006734 0.000000 0.000000 0.000000
# 2 -0.004035 0.009026 -0.004566 0.000000 0.000000 0.000000
# 3 -0.006734 -0.004566 0.018090 0.000000 0.000000 0.000000
# 4 0.000000 0.000000 0.000000 0.049222 0.000000 0.000000
# 5 0.000000 0.000000 0.000000 0.000000 0.040043 0.000000
# 6 0.000000 0.000000 0.000000 0.000000 0.000000 0.033544
#
#
# Mechanical properties :
#
#
# Convention : Reuss Voigt Hill
#
# Bulk Modulus (GPa) = 47.47514 60.60470 54.03992
# Shear Modulus (GPa) = 23.55952 26.13358 24.84655
#
# Velocity S-wave (km/s) = 3.61142 3.80359 3.70875
# Velocity P-wave (km/s) = 6.60845 7.26911 6.94664
#
# Compressibility (1/GPa) = 0.02106366
#
# Stress axis : x y z
#
# Youngs Moduli (GPa) = 40.62570 110.78953 55.27834
#
# Poissons Ratio (x) = 0.44701 0.37222
# Poissons Ratio (y) = 0.16392 0.25238
# Poissons Ratio (z) = 0.27355 0.50582
#
# Static dielectric constant tensor:
#      x y z
#    x 3.219180 0.000000 0.000000 
#    y 0.000000 3.567670 0.000000 
#    z 0.000000 0.000000 2.954210 
# 
# 
# High freq. dielectric constant tensor:
#      x y z
#    x 1.694250 0.000000 0.000000 
#    y 0.000000 1.712070 0.000000 
#    z 0.000000 0.000000 1.673640 
# 
# From -- ./inp_files/39948.got.cif
#   From: 2010.03.12/outbox.cif.g09.slc.cpg/sg67_20_cif.got.tgz:39948.got - 2010.04.10 22:41:39.
