data_PCOD8278105
_publ_section_title
;
Structure prediction by ZEFSAII (Michael W. Deem and Ramdas Pophale) SiO2 
 PCOD8278105
Probable space group: C M M A
;
_chemical_formula_sum "Si O2"
_cell_formula_units_Z 96
_cell_length_a 19.209619
_cell_length_b 20.810137
_cell_length_c 13.664173
_cell_angle_alpha 90.000000
_cell_angle_beta 90.000000
_cell_angle_gamma 90.000000
_cell_volume 5462.318787
_symmetry_space_group_name_H-M "C M M A"
_symmetry_group_IT_number 67
_symmetry_cell_setting 'orthorhombic'
loop_
_space_group_symop_operation_xyz
x,y,z
-x,1/2-y,z
x,-y,-z
-x,1/2+y,-z
-x,-y,-z
x,1/2+y,-z
-x,y,z
x,1/2-y,z
1/2+x,1/2+y,z
1/2-x,-y,z
1/2+x,1/2-y,-z
1/2-x,y,-z
1/2-x,1/2-y,-z
1/2+x,y,-z
1/2-x,1/2+y,z
1/2+x,-y,z
loop_
_atom_site_type_symbol
_atom_site_label
_atom_site_fract_x
_atom_site_fract_y
_atom_site_fract_z
Si Si1 0.332879 0.001947 0.888172
Si Si2 0.317572 0.176046 0.561945
Si Si3 0.579899 0.323353 0.391194
Si Si4 0.325408 0.250000 0.879010
Si Si5 0.660057 0.750000 0.902077
Si Si6 0.318265 0.625551 0.229392
Si Si7 0.846232 0.126022 0.789814
O O1 0.354134 0.064322 0.823589
O O2 0.250000 0.000000 0.888665
O O3 0.369408 0.940825 0.837983
O O4 0.360272 0.000000 0.000000
O O5 0.305927 0.250000 0.597426
O O6 0.250000 0.153958 0.500000
O O7 0.386535 0.169095 0.497575
O O8 0.330700 0.129064 0.653955
O O9 0.500000 0.344335 0.398627
O O10 0.588130 0.250000 0.354705
O O11 0.620001 0.369857 0.316994
O O12 0.242549 0.250000 0.888498
O O13 0.352036 0.312434 0.821611
O O14 0.361026 0.250000 0.984845
O O15 0.627182 0.813801 0.853980
O O16 0.236238 0.626189 0.214870
#
# Coordination Sequence:
#
# PCOD8278105 Si02
#       7
#    16  16  16   8   8  16  16
#     4   9  18  30  46  71 108 140 166 206 259 311
#     4  10  18  29  51  76 102 134 168 217 264 308
#     4  10  20  33  51  77 104 134 172 212 258 311
#     4   9  16  24  40  72 102 123 164 212 252 305
#     4   9  16  24  42  69  99 130 164 204 256 304
#     4  10  17  28  47  74 103 136 170 205 262 308
#     4  10  17  29  48  70 101 139 166 209 257 301
#
# _framework density 17.574954000000002
#
# number of rings (size 3 to 8) (size 9 to 14) (size 15 to 20)
#    0.000    2.333    3.333    1.000    0.000    4.000 
#    0.000    0.833    0.000    2.500    0.000    4.667 
#    0.000    0.000    0.000    0.000    0.000    0.000 
#
# Total GULP energy -595030.002760 kJ/mol
# GULP energy per Si atom -12396.458391 kJ/mol
# Density = 1.753495 g / cm^3
# Si number density = 17.574954 Si / 1000 Ang^3
#
#
#
# Elastic Constant Matrix: (Units=GPa)
#
#
# Indices 1 2 3 4 5 6 
#
# 1 23.0635 19.8543 9.3870 0.0000 0.0000 0.0000
# 2 19.8543 140.1575 76.2246 0.0000 0.0000 0.0000
# 3 9.3870 76.2246 138.3104 0.0000 0.0000 0.0000
# 4 0.0000 0.0000 0.0000 34.2231 0.0000 0.0000
# 5 0.0000 0.0000 0.0000 0.0000 7.9741 0.0000
# 6 0.0000 0.0000 0.0000 0.0000 0.0000 8.8052
#
#
#
# Elastic Compliance Matrix: (Units=1/GPa)
#
#
# Indices 1 2 3 4 5 6 
#
# 1 0.049430 -0.007394 0.000720 0.000000 0.000000 0.000000
# 2 -0.007394 0.011295 -0.005723 0.000000 0.000000 0.000000
# 3 0.000720 -0.005723 0.010335 0.000000 0.000000 0.000000
# 4 0.000000 0.000000 0.000000 0.029220 0.000000 0.000000
# 5 0.000000 0.000000 0.000000 0.000000 0.125407 0.000000
# 6 0.000000 0.000000 0.000000 0.000000 0.000000 0.113570
#
#
# Mechanical properties :
#
#
# Convention : Reuss Voigt Hill
#
# Bulk Modulus (GPa) = 21.61368 56.94039 39.27703
# Shear Modulus (GPa) = 13.17621 23.27149 18.22385
#
# Velocity S-wave (km/s) = 2.74106 3.64280 3.22362
# Velocity P-wave (km/s) = 4.72680 7.08253 6.02100
#
# Compressibility (1/GPa) = 0.04626699
#
# Stress axis : x y z
#
# Youngs Moduli (GPa) = 20.23049 88.53856 96.75738
#
# Poissons Ratio (x) = 0.65463 -0.06966
# Poissons Ratio (y) = 0.14958 0.55372
# Poissons Ratio (z) = -0.01457 0.50668
#
# Static dielectric constant tensor:
#      x y z
#    x 2.684680 0.000000 0.000000 
#    y 0.000000 3.410540 0.000000 
#    z 0.000000 0.000000 3.385180 
# 
# 
# High freq. dielectric constant tensor:
#      x y z
#    x 1.614950 0.000000 0.000000 
#    y 0.000000 1.670920 0.000000 
#    z 0.000000 0.000000 1.693950 
# 
# From -- ./inp_files/20910.got.cif
#   From: 2010.03.12/outbox.cif.g09.slc.cpg/sg67_11_cif.got.tgz:20910.got - 2010.04.10 22:41:39.
