data_PCOD8278562
_publ_section_title
;
Structure prediction by ZEFSAII (Michael W. Deem and Ramdas Pophale) SiO2 
 PCOD8278562
Probable space group: C M M A
;
_chemical_formula_sum "Si O2"
_cell_formula_units_Z 96
_cell_length_a 9.723598
_cell_length_b 22.416535
_cell_length_c 23.570561
_cell_angle_alpha 90.000000
_cell_angle_beta 90.000000
_cell_angle_gamma 90.000000
_cell_volume 5137.660447
_symmetry_space_group_name_H-M "C M M A"
_symmetry_group_IT_number 67
_symmetry_cell_setting 'orthorhombic'
loop_
_space_group_symop_operation_xyz
x,y,z
-x,1/2-y,z
x,-y,-z
-x,1/2+y,-z
-x,-y,-z
x,1/2+y,-z
-x,y,z
x,1/2-y,z
1/2+x,1/2+y,z
1/2-x,-y,z
1/2+x,1/2-y,-z
1/2-x,y,-z
1/2-x,1/2-y,-z
1/2+x,y,-z
1/2-x,1/2+y,z
1/2+x,-y,z
loop_
_atom_site_type_symbol
_atom_site_label
_atom_site_fract_x
_atom_site_fract_y
_atom_site_fract_z
Si Si1 0.340993 0.680269 0.446824
Si Si2 0.659949 0.443019 0.771202
Si Si3 0.749513 0.123843 0.878705
Si Si4 0.841799 0.750000 0.150385
Si Si5 0.000000 0.945845 0.077371
Si Si6 0.664366 0.750000 0.260390
Si Si7 0.000000 0.582696 0.946911
Si Si8 0.838388 0.361807 0.328202
O O1 0.500000 0.667298 0.461264
O O2 0.320054 0.750000 0.431982
O O3 0.250000 0.660428 0.500000
O O4 0.287365 0.640101 0.393568
O O5 0.500000 0.460561 0.774359
O O6 0.750000 0.500000 0.786427
O O7 0.688754 0.389700 0.815959
O O8 0.699574 0.421346 0.707173
O O9 0.812327 0.190029 0.885278
O O10 0.865851 0.075056 0.889722
O O11 0.633464 0.118235 0.926498
O O12 0.733389 0.750000 0.200052
O O13 0.000000 0.750000 0.171002
O O14 0.000000 0.017038 0.079922
O O15 0.000000 0.919726 0.014309
O O16 0.500000 0.750000 0.252091
O O17 0.723245 0.693660 0.294272
O O18 0.000000 0.352187 0.330125
#
# Coordination Sequence:
#
# PCOD8278562 Si02
#       8
#    16  16  16   8   8   8   8  16
#     4   9  16  28  49  76 111 148 186 234 283 336
#     4  11  23  38  60  89 117 149 194 246 298 350
#     4  12  24  41  64  91 122 157 196 241 298 356
#     4  12  26  42  57  87 130 165 189 239 306 353
#     4  11  24  45  67  89 127 150 194 247 298 346
#     4  10  18  34  59  82 110 151 199 234 274 351
#     4  11  24  43  69  97 111 156 202 247 286 346
#     4   9  17  32  55  83 111 148 194 235 282 342
#
# _framework density 18.685547
#
# number of rings (size 3 to 8) (size 9 to 14) (size 15 to 20)
#    0.000    1.500    4.167    2.000    2.333    1.333 
#    0.000    4.167    0.000    0.500    0.000    3.500 
#    0.000    0.000    0.000    0.000    0.000    0.000 
#
# Total GULP energy -595134.990125 kJ/mol
# GULP energy per Si atom -12398.645628 kJ/mol
# Density = 1.864302 g / cm^3
# Si number density = 18.685547 Si / 1000 Ang^3
#
#
#
# Elastic Constant Matrix: (Units=GPa)
#
#
# Indices 1 2 3 4 5 6 
#
# 1 88.4728 26.3172 29.8055 0.0000 0.0000 0.0000
# 2 26.3172 82.4947 25.4592 0.0000 0.0000 0.0000
# 3 29.8055 25.4592 94.0745 0.0000 0.0000 0.0000
# 4 0.0000 0.0000 0.0000 27.5665 0.0000 0.0000
# 5 0.0000 0.0000 0.0000 0.0000 27.9964 0.0000
# 6 0.0000 0.0000 0.0000 0.0000 0.0000 24.3975
#
#
#
# Elastic Compliance Matrix: (Units=1/GPa)
#
#
# Indices 1 2 3 4 5 6 
#
# 1 0.013401 -0.003235 -0.003370 0.000000 0.000000 0.000000
# 2 -0.003235 0.014008 -0.002766 0.000000 0.000000 0.000000
# 3 -0.003370 -0.002766 0.012446 0.000000 0.000000 0.000000
# 4 0.000000 0.000000 0.000000 0.036276 0.000000 0.000000
# 5 0.000000 0.000000 0.000000 0.000000 0.035719 0.000000
# 6 0.000000 0.000000 0.000000 0.000000 0.000000 0.040988
#
#
# Mechanical properties :
#
#
# Convention : Reuss Voigt Hill
#
# Bulk Modulus (GPa) = 47.36592 47.57841 47.47217
# Shear Modulus (GPa) = 27.99293 28.22275 28.10784
#
# Velocity S-wave (km/s) = 3.87474 3.89061 3.88268
# Velocity P-wave (km/s) = 6.73959 6.76021 6.74991
#
# Compressibility (1/GPa) = 0.02111223
#
# Stress axis : x y z
#
# Youngs Moduli (GPa) = 74.62381 71.38989 80.34582
#
# Poissons Ratio (x) = 0.23094 0.27078
# Poissons Ratio (y) = 0.24140 0.22223
# Poissons Ratio (z) = 0.25150 0.19746
#
# Static dielectric constant tensor:
#      x y z
#    x 3.265820 0.000000 0.000000 
#    y 0.000000 3.424270 0.000000 
#    z 0.000000 0.000000 3.555770 
# 
# 
# High freq. dielectric constant tensor:
#      x y z
#    x 1.716590 0.000000 0.000000 
#    y 0.000000 1.710240 0.000000 
#    z 0.000000 0.000000 1.727610 
# 
# From -- ./inp_files/40866.got.cif
#   From: 2010.03.12/outbox.cif.g09.slc.cpg/sg67_21_cif.got.tgz:40866.got - 2010.04.10 22:41:39.
