data_PCOD8278169
_publ_section_title
;
Structure prediction by ZEFSAII (Michael W. Deem and Ramdas Pophale) SiO2 
 PCOD8278169
Probable space group: C M M A
;
_chemical_formula_sum "Si O2"
_cell_formula_units_Z 96
_cell_length_a 20.008408
_cell_length_b 21.174288
_cell_length_c 11.823069
_cell_angle_alpha 90.000000
_cell_angle_beta 90.000000
_cell_angle_gamma 90.000000
_cell_volume 5009.006262
_symmetry_space_group_name_H-M "C M M A"
_symmetry_group_IT_number 67
_symmetry_cell_setting 'orthorhombic'
loop_
_space_group_symop_operation_xyz
x,y,z
-x,1/2-y,z
x,-y,-z
-x,1/2+y,-z
-x,-y,-z
x,1/2+y,-z
-x,y,z
x,1/2-y,z
1/2+x,1/2+y,z
1/2-x,-y,z
1/2+x,1/2-y,-z
1/2-x,y,-z
1/2-x,1/2-y,-z
1/2+x,y,-z
1/2-x,1/2+y,z
1/2+x,-y,z
loop_
_atom_site_type_symbol
_atom_site_label
_atom_site_fract_x
_atom_site_fract_y
_atom_site_fract_z
Si Si1 0.760360 0.823562 0.684709
Si Si2 0.927799 0.321544 0.927745
Si Si3 0.000000 0.412442 0.396559
Si Si4 0.189487 0.675514 0.927911
Si Si5 0.115578 0.359892 0.690066
Si Si6 0.610908 0.679290 0.442925
Si Si7 0.000000 0.451190 0.654292
O O1 0.736285 0.750000 0.685727
O O2 0.802996 0.840605 0.796379
O O3 0.696015 0.869958 0.678739
O O4 0.810605 0.835950 0.579592
O O5 0.938637 0.250000 0.964953
O O6 0.896676 0.319421 0.802018
O O7 0.000000 0.356601 0.929309
O O8 0.878404 0.354425 0.018992
O O9 0.065404 0.369822 0.373667
O O10 0.000000 0.438957 0.522063
O O11 0.000000 0.474062 0.315889
O O12 0.187752 0.750000 0.948936
O O13 0.250000 0.645806 0.000000
O O14 0.093543 0.323607 0.576096
O O15 0.069629 0.422562 0.703639
O O16 0.594887 0.750000 0.399400
#
# Coordination Sequence:
#
# PCOD8278169 Si02
#       7
#    16  16   8  16  16  16   8
#     4  10  19  31  47  73 110 142 169 205 256 317
#     4  10  18  27  43  70 103 136 173 214 254 299
#     4   9  19  38  52  67 103 140 175 214 251 302
#     4   9  16  28  44  64 100 143 170 199 250 307
#     4  11  18  30  49  77 107 134 169 214 260 303
#     4  10  20  32  51  78 106 137 169 206 261 321
#     4   9  20  34  52  73  98 137 179 218 252 291
#
# _framework density 19.165476999999999
#
# number of rings (size 3 to 8) (size 9 to 14) (size 15 to 20)
#    0.000    2.167    2.500    2.250    0.000    1.333 
#    1.500    0.833    0.000    4.000    0.000    2.333 
#    0.000    0.000    0.000    0.000    0.000    0.000 
#
# Total GULP energy -594713.041995 kJ/mol
# GULP energy per Si atom -12389.855042 kJ/mol
# Density = 1.912186 g / cm^3
# Si number density = 19.165477 Si / 1000 Ang^3
#
#
#
# Elastic Constant Matrix: (Units=GPa)
#
#
# Indices 1 2 3 4 5 6 
#
# 1 160.7054 56.3600 27.7465 0.0000 0.0000 0.0000
# 2 56.3600 77.6064 13.0089 0.0000 0.0000 0.0000
# 3 27.7465 13.0089 49.3400 0.0000 0.0000 0.0000
# 4 0.0000 0.0000 0.0000 7.5055 0.0000 0.0000
# 5 0.0000 0.0000 0.0000 0.0000 33.0846 0.0000
# 6 0.0000 0.0000 0.0000 0.0000 0.0000 13.5736
#
#
#
# Elastic Compliance Matrix: (Units=1/GPa)
#
#
# Indices 1 2 3 4 5 6 
#
# 1 0.008875 -0.005868 -0.003444 0.000000 0.000000 0.000000
# 2 -0.005868 0.017361 -0.001277 0.000000 0.000000 0.000000
# 3 -0.003444 -0.001277 0.022541 0.000000 0.000000 0.000000
# 4 0.000000 0.000000 0.000000 0.133236 0.000000 0.000000
# 5 0.000000 0.000000 0.000000 0.000000 0.030226 0.000000
# 6 0.000000 0.000000 0.000000 0.000000 0.000000 0.073673
#
#
# Mechanical properties :
#
#
# Convention : Reuss Voigt Hill
#
# Bulk Modulus (GPa) = 36.23370 53.54251 44.88811
# Shear Modulus (GPa) = 15.80831 23.53516 19.67173
#
# Velocity S-wave (km/s) = 2.87511 3.50808 3.20725
# Velocity P-wave (km/s) = 5.47434 6.66382 6.09815
#
# Compressibility (1/GPa) = 0.02759861
#
# Stress axis : x y z
#
# Youngs Moduli (GPa) = 112.67463 57.59950 44.36364
#
# Poissons Ratio (x) = 0.33800 0.15278
# Poissons Ratio (y) = 0.66119 0.05667
# Poissons Ratio (z) = 0.38803 0.07358
#
# Static dielectric constant tensor:
#      x y z
#    x 3.929140 0.000000 0.000000 
#    y 0.000000 3.082050 0.000000 
#    z 0.000000 0.000000 3.392530 
# 
# 
# High freq. dielectric constant tensor:
#      x y z
#    x 1.766040 0.000000 0.000000 
#    y 0.000000 1.666750 0.000000 
#    z 0.000000 0.000000 1.736390 
# 
# From -- ./inp_files/20895.got.cif
#   From: 2010.03.12/outbox.cif.g09.slc.cpg/sg67_11_cif.got.tgz:20895.got - 2010.04.10 22:41:39.
