data_PCOD8278657
_publ_section_title
;
Structure prediction by ZEFSAII (Michael W. Deem and Ramdas Pophale) SiO2 
 PCOD8278657
Probable space group: C M M A
;
_chemical_formula_sum "Si O2"
_cell_formula_units_Z 96
_cell_length_a 8.752785
_cell_length_b 27.557259
_cell_length_c 23.991092
_cell_angle_alpha 90.000000
_cell_angle_beta 90.000000
_cell_angle_gamma 90.000000
_cell_volume 5786.717683
_symmetry_space_group_name_H-M "C M M A"
_symmetry_group_IT_number 67
_symmetry_cell_setting 'orthorhombic'
loop_
_space_group_symop_operation_xyz
x,y,z
-x,1/2-y,z
x,-y,-z
-x,1/2+y,-z
-x,-y,-z
x,1/2+y,-z
-x,y,z
x,1/2-y,z
1/2+x,1/2+y,z
1/2-x,-y,z
1/2+x,1/2-y,-z
1/2-x,y,-z
1/2-x,1/2-y,-z
1/2+x,y,-z
1/2-x,1/2+y,z
1/2+x,-y,z
loop_
_atom_site_type_symbol
_atom_site_label
_atom_site_fract_x
_atom_site_fract_y
_atom_site_fract_z
Si Si1 0.180443 0.860231 0.166337
Si Si2 0.320074 0.447812 0.443062
Si Si3 0.180006 0.898445 0.329980
Si Si4 0.319304 0.194968 0.057375
Si Si5 0.819466 0.551412 0.774253
Si Si6 0.179875 0.302928 0.725717
O O1 0.237650 0.839519 0.107274
O O2 0.265623 0.910379 0.179076
O O3 0.226442 0.820610 0.212757
O O4 0.000000 0.870005 0.167250
O O5 0.500000 0.453545 0.450122
O O6 0.250000 0.500000 0.429615
O O7 0.250000 0.426130 0.500000
O O8 0.276302 0.411699 0.393058
O O9 0.263726 0.934259 0.287478
O O10 0.234807 0.842944 0.319433
O O11 0.000000 0.904031 0.318566
O O12 0.500000 0.193796 0.053355
O O13 0.261896 0.250000 0.068171
O O14 0.250000 0.174518 0.000000
O O15 0.750000 0.500000 0.791312
O O16 0.000000 0.547960 0.774013
O O17 0.255610 0.250000 0.713998
O O18 0.000000 0.297376 0.721876
#
# Coordination Sequence:
#
# PCOD8278657 Si02
#       6
#    16  16  16  16  16  16
#     4   9  17  30  47  68  94 123 156 190 225 268
#     4  10  19  30  45  65  89 117 149 186 227 271
#     4   9  18  31  47  69  94 120 152 187 224 269
#     4   9  17  29  47  71  98 128 159 191 228 270
#     4  11  21  32  48  69  93 121 151 186 230 275
#     4   8  13  24  45  69  90 115 150 188 220 257
#
# _framework density 16.589715000000002
#
# number of rings (size 3 to 8) (size 9 to 14) (size 15 to 20)
#    0.000    2.667    0.000    4.500    0.000    5.333 
#    0.000    0.000    0.000   13.000    0.000    3.500 
#    0.000    0.000    0.000    0.000    0.000    0.667 
#
# Total GULP energy -595069.381183 kJ/mol
# GULP energy per Si atom -12397.278775 kJ/mol
# Density = 1.655196 g / cm^3
# Si number density = 16.589715 Si / 1000 Ang^3
#
#
#
# Elastic Constant Matrix: (Units=GPa)
#
#
# Indices 1 2 3 4 5 6 
#
# 1 59.5229 37.6733 41.8720 0.0000 0.0000 0.0000
# 2 37.6733 127.5684 78.0781 0.0000 0.0000 0.0000
# 3 41.8720 78.0781 150.5087 0.0000 0.0000 0.0000
# 4 0.0000 0.0000 0.0000 26.9298 0.0000 0.0000
# 5 0.0000 0.0000 0.0000 0.0000 23.7163 0.0000
# 6 0.0000 0.0000 0.0000 0.0000 0.0000 18.4412
#
#
#
# Elastic Compliance Matrix: (Units=1/GPa)
#
#
# Indices 1 2 3 4 5 6 
#
# 1 0.022246 -0.004076 -0.004075 0.000000 0.000000 0.000000
# 2 -0.004076 0.012233 -0.005212 0.000000 0.000000 0.000000
# 3 -0.004075 -0.005212 0.010481 0.000000 0.000000 0.000000
# 4 0.000000 0.000000 0.000000 0.037134 0.000000 0.000000
# 5 0.000000 0.000000 0.000000 0.000000 0.042165 0.000000
# 6 0.000000 0.000000 0.000000 0.000000 0.000000 0.054227
#
#
# Mechanical properties :
#
#
# Convention : Reuss Voigt Hill
#
# Bulk Modulus (GPa) = 54.83784 72.53851 63.68817
# Shear Modulus (GPa) = 23.66432 25.81588 24.74010
#
# Velocity S-wave (km/s) = 3.78093 3.94907 3.86591
# Velocity P-wave (km/s) = 7.22410 8.03825 7.64203
#
# Compressibility (1/GPa) = 0.01823558
#
# Stress axis : x y z
#
# Youngs Moduli (GPa) = 44.95139 81.74936 95.40725
#
# Poissons Ratio (x) = 0.33320 0.38874
# Poissons Ratio (y) = 0.18322 0.49725
# Poissons Ratio (z) = 0.18316 0.42606
#
# Static dielectric constant tensor:
#      x y z
#    x 2.959770 0.000000 0.000000 
#    y 0.000000 3.328360 0.000000 
#    z 0.000000 0.000000 3.189680 
# 
# 
# High freq. dielectric constant tensor:
#      x y z
#    x 1.625250 0.000000 0.000000 
#    y 0.000000 1.632760 0.000000 
#    z 0.000000 0.000000 1.631640 
# 
# From -- ./inp_files/40914.got.cif
#   From: 2010.03.12/outbox.cif.g09.slc.cpg/sg67_21_cif.got.tgz:40914.got - 2010.04.10 22:41:39.
