data_PCOD8278904
_publ_section_title
;
Structure prediction by ZEFSAII (Michael W. Deem and Ramdas Pophale) SiO2 
 PCOD8278904
Probable space group: C M M A
;
_chemical_formula_sum "Si O2"
_cell_formula_units_Z 104
_cell_length_a 9.595324
_cell_length_b 31.306521
_cell_length_c 18.490340
_cell_angle_alpha 90.000000
_cell_angle_beta 90.000000
_cell_angle_gamma 90.000000
_cell_volume 5554.428100
_symmetry_space_group_name_H-M "C M M A"
_symmetry_group_IT_number 67
_symmetry_cell_setting 'orthorhombic'
loop_
_space_group_symop_operation_xyz
x,y,z
-x,1/2-y,z
x,-y,-z
-x,1/2+y,-z
-x,-y,-z
x,1/2+y,-z
-x,y,z
x,1/2-y,z
1/2+x,1/2+y,z
1/2-x,-y,z
1/2+x,1/2-y,-z
1/2-x,y,-z
1/2-x,1/2-y,-z
1/2+x,y,-z
1/2-x,1/2+y,z
1/2+x,-y,z
loop_
_atom_site_type_symbol
_atom_site_label
_atom_site_fract_x
_atom_site_fract_y
_atom_site_fract_z
Si Si1 0.664680 0.911338 0.069416
Si Si2 0.157216 0.250000 0.929645
Si Si3 0.261939 0.896453 0.416900
Si Si4 0.656923 0.959840 0.212769
Si Si5 0.000000 0.551607 0.407411
Si Si6 0.161330 0.867944 0.725579
Si Si7 0.000000 0.038869 0.425454
Si Si8 0.335201 0.661670 0.852364
O O1 0.500000 0.901147 0.053536
O O2 0.677175 0.948688 0.128233
O O3 0.744833 0.869017 0.096295
O O4 0.750000 0.927858 0.000000
O O5 0.186972 0.290818 0.880466
O O6 0.000000 0.250000 0.958194
O O7 0.250000 0.250000 0.000000
O O8 0.250000 0.879240 0.500000
O O9 0.307238 0.859295 0.360294
O O10 0.365606 0.935029 0.405408
O O11 0.123260 0.917331 0.387438
O O12 0.500000 0.973893 0.228322
O O13 0.694630 0.917679 0.258591
O O14 0.750000 0.000000 0.235540
O O15 0.000000 0.503786 0.373687
O O16 0.000000 0.534436 0.488817
O O17 0.267136 0.839317 0.772262
O O18 0.000000 0.857095 0.744500
O O19 0.500000 0.648936 0.850429
#
# Coordination Sequence:
#
# PCOD8278904 Si02
#       8
#    16   8  16  16   8  16   8  16
#     4  10  20  35  54  77 105 138 174 218 263 306
#     4  10  22  38  60  94 125 144 169 204 247 308
#     4  10  19  32  49  70  99 135 181 232 278 329
#     4   9  20  35  49  67  95 132 178 225 268 311
#     4   9  18  26  44  66  94 127 179 222 288 335
#     4  10  21  38  52  72 106 144 179 224 274 319
#     4   9  16  30  42  64  96 133 165 232 286 333
#     4  10  21  37  58  83 113 143 173 207 253 317
#
# _framework density 18.723800000000001
#
# number of rings (size 3 to 8) (size 9 to 14) (size 15 to 20)
#    0.000    2.308    0.769    2.769    1.077    8.923 
#    0.000    1.538    0.000    0.000    0.000    0.538 
#    0.000    0.000    0.000    0.000    0.000    0.000 
#
# Total GULP energy -644226.822930 kJ/mol
# GULP energy per Si atom -12388.977364 kJ/mol
# Density = 1.868118 g / cm^3
# Si number density = 18.723800 Si / 1000 Ang^3
#
#
#
# Elastic Constant Matrix: (Units=GPa)
#
#
# Indices 1 2 3 4 5 6 
#
# 1 140.0118 38.6158 41.2853 0.0000 0.0000 0.0000
# 2 38.6158 60.0542 20.0683 0.0000 0.0000 0.0000
# 3 41.2853 20.0683 107.5236 0.0000 0.0000 0.0000
# 4 0.0000 0.0000 0.0000 10.8107 0.0000 0.0000
# 5 0.0000 0.0000 0.0000 0.0000 33.2019 0.0000
# 6 0.0000 0.0000 0.0000 0.0000 0.0000 24.9690
#
#
#
# Elastic Compliance Matrix: (Units=1/GPa)
#
#
# Indices 1 2 3 4 5 6 
#
# 1 0.009329 -0.005121 -0.002626 0.000000 0.000000 0.000000
# 2 -0.005121 0.020570 -0.001873 0.000000 0.000000 0.000000
# 3 -0.002626 -0.001873 0.010658 0.000000 0.000000 0.000000
# 4 0.000000 0.000000 0.000000 0.092501 0.000000 0.000000
# 5 0.000000 0.000000 0.000000 0.000000 0.030119 0.000000
# 6 0.000000 0.000000 0.000000 0.000000 0.000000 0.040050
#
#
# Mechanical properties :
#
#
# Convention : Reuss Voigt Hill
#
# Bulk Modulus (GPa) = 46.91061 56.39204 51.65132
# Shear Modulus (GPa) = 21.77954 27.63767 24.70860
#
# Velocity S-wave (km/s) = 3.41427 3.84614 3.63662
# Velocity P-wave (km/s) = 6.37585 7.06448 6.72898
#
# Compressibility (1/GPa) = 0.02131714
#
# Stress axis : x y z
#
# Youngs Moduli (GPa) = 107.19176 48.61340 93.82417
#
# Poissons Ratio (x) = 0.24896 0.24640
# Poissons Ratio (y) = 0.54894 0.17573
# Poissons Ratio (z) = 0.28151 0.09105
#
# Static dielectric constant tensor:
#      x y z
#    x 3.565450 0.000000 0.000000 
#    y 0.000000 3.054880 0.000000 
#    z 0.000000 0.000000 3.856600 
# 
# 
# High freq. dielectric constant tensor:
#      x y z
#    x 1.747080 0.000000 0.000000 
#    y 0.000000 1.672200 0.000000 
#    z 0.000000 0.000000 1.737470 
# 
# From -- ./inp_files/37591.got.cif
#   From: 2010.03.12/outbox.cif.g09.slc.cpg/sg67_19_cif.got.tgz:37591.got - 2010.04.10 22:41:39.
