data_PCOD8278937
_publ_section_title
;
Structure prediction by ZEFSAII (Michael W. Deem and Ramdas Pophale) SiO2 
 PCOD8278937
Probable space group: C M M A
;
_chemical_formula_sum "Si O2"
_cell_formula_units_Z 112
_cell_length_a 29.484760
_cell_length_b 13.375588
_cell_length_c 14.335249
_cell_angle_alpha 90.000000
_cell_angle_beta 90.000000
_cell_angle_gamma 90.000000
_cell_volume 5653.478189
_symmetry_space_group_name_H-M "C M M A"
_symmetry_group_IT_number 67
_symmetry_cell_setting 'orthorhombic'
loop_
_space_group_symop_operation_xyz
x,y,z
-x,1/2-y,z
x,-y,-z
-x,1/2+y,-z
-x,-y,-z
x,1/2+y,-z
-x,y,z
x,1/2-y,z
1/2+x,1/2+y,z
1/2-x,-y,z
1/2+x,1/2-y,-z
1/2-x,y,-z
1/2-x,1/2-y,-z
1/2+x,y,-z
1/2-x,1/2+y,z
1/2+x,-y,z
loop_
_atom_site_type_symbol
_atom_site_label
_atom_site_fract_x
_atom_site_fract_y
_atom_site_fract_z
Si Si1 0.790826 0.367582 0.940904
Si Si2 0.549880 0.864906 0.174770
Si Si3 0.085507 0.443278 0.361688
Si Si4 0.776630 0.863156 0.269118
Si Si5 0.947246 0.637165 0.449505
Si Si6 0.819915 0.441370 0.282777
Si Si7 0.142023 0.133139 0.094169
O O1 0.785953 0.250000 0.938460
O O2 0.785551 0.403148 0.835647
O O3 0.750000 0.415322 0.000000
O O4 0.838029 0.398507 0.992728
O O5 0.500000 0.889645 0.133359
O O6 0.553281 0.750000 0.206428
O O7 0.557804 0.930789 0.266454
O O8 0.587784 0.887040 0.095551
O O9 0.064209 0.374380 0.441408
O O10 0.082477 0.560549 0.388623
O O11 0.137757 0.408944 0.346895
O O12 0.793623 0.750000 0.287997
O O13 0.723794 0.870321 0.297996
O O14 0.807200 0.946465 0.320036
O O15 0.935908 0.750000 0.417744
O O16 0.000000 0.612275 0.434670
O O17 0.834266 0.432901 0.174189
O O18 0.153000 0.250000 0.114369
#
# Coordination Sequence:
#
# PCOD8278937 Si02
#       7
#    16  16  16  16  16  16  16
#     4   9  15  26  45  66  94 129 162 210 262 294
#     4   9  16  26  44  71 102 135 167 202 247 297
#     4  10  19  32  50  74 106 131 160 202 241 294
#     4  10  20  33  47  67  98 129 166 211 252 296
#     4  10  20  34  55  82 105 128 158 194 242 291
#     4  10  20  31  47  72  95 132 168 196 250 301
#     4   9  16  27  43  68  99 129 168 210 251 303
#
# _framework density 19.810813
#
# number of rings (size 3 to 8) (size 9 to 14) (size 15 to 20)
#    0.000    2.429    1.429    2.571    0.000    4.000 
#    0.000    0.000    0.000    6.857    0.000   18.000 
#    0.000    9.143    0.000    0.000    0.000    0.000 
#
# Total GULP energy -693907.346276 kJ/mol
# GULP energy per Si atom -12391.202612 kJ/mol
# Density = 1.976572 g / cm^3
# Si number density = 19.810813 Si / 1000 Ang^3
#
#
#
# Elastic Constant Matrix: (Units=GPa)
#
#
# Indices 1 2 3 4 5 6 
#
# 1 121.8478 16.5127 23.7352 0.0000 0.0000 0.0000
# 2 16.5127 78.5287 1.9987 0.0000 0.0000 0.0000
# 3 23.7352 1.9987 39.1751 0.0000 0.0000 0.0000
# 4 0.0000 0.0000 0.0000 14.5150 0.0000 0.0000
# 5 0.0000 0.0000 0.0000 0.0000 28.2306 0.0000
# 6 0.0000 0.0000 0.0000 0.0000 0.0000 19.5008
#
#
#
# Elastic Compliance Matrix: (Units=1/GPa)
#
#
# Indices 1 2 3 4 5 6 
#
# 1 0.009571 -0.001867 -0.005704 0.000000 0.000000 0.000000
# 2 -0.001867 0.013115 0.000462 0.000000 0.000000 0.000000
# 3 -0.005704 0.000462 0.028958 0.000000 0.000000 0.000000
# 4 0.000000 0.000000 0.000000 0.068894 0.000000 0.000000
# 5 0.000000 0.000000 0.000000 0.000000 0.035423 0.000000
# 6 0.000000 0.000000 0.000000 0.000000 0.000000 0.051280
#
#
# Mechanical properties :
#
#
# Convention : Reuss Voigt Hill
#
# Bulk Modulus (GPa) = 26.71853 36.00500 31.36177
# Shear Modulus (GPa) = 21.37352 25.60295 23.48823
#
# Velocity S-wave (km/s) = 3.28820 3.59886 3.44703
# Velocity P-wave (km/s) = 5.28511 5.95675 5.63096
#
# Compressibility (1/GPa) = 0.03742720
#
# Stress axis : x y z
#
# Youngs Moduli (GPa) = 104.48170 76.24797 34.53222
#
# Poissons Ratio (x) = 0.14239 0.19696
# Poissons Ratio (y) = 0.19511 -0.01596
# Poissons Ratio (z) = 0.59592 -0.03525
#
# Static dielectric constant tensor:
#      x y z
#    x 3.783540 0.000000 0.000000 
#    y 0.000000 3.567130 0.000000 
#    z 0.000000 0.000000 3.279180 
# 
# 
# High freq. dielectric constant tensor:
#      x y z
#    x 1.775110 0.000000 0.000000 
#    y 0.000000 1.779400 0.000000 
#    z 0.000000 0.000000 1.723110 
# 
# From -- ./inp_files/31234.got.cif
#   From: 2010.03.12/outbox.cif.g09.slc.cpg/sg67_16_cif.got.tgz:31234.got - 2010.04.10 22:41:39.
