data_PCOD8278994
_publ_section_title
;
Structure prediction by ZEFSAII (Michael W. Deem and Ramdas Pophale) SiO2 
 PCOD8278994
Probable space group: C M M A
;
_chemical_formula_sum "Si O2"
_cell_formula_units_Z 96
_cell_length_a 19.191870
_cell_length_b 8.875642
_cell_length_c 30.526703
_cell_angle_alpha 90.000000
_cell_angle_beta 90.000000
_cell_angle_gamma 90.000000
_cell_volume 5199.923700
_symmetry_space_group_name_H-M "C M M A"
_symmetry_group_IT_number 67
_symmetry_cell_setting 'orthorhombic'
loop_
_space_group_symop_operation_xyz
x,y,z
-x,1/2-y,z
x,-y,-z
-x,1/2+y,-z
-x,-y,-z
x,1/2+y,-z
-x,y,z
x,1/2-y,z
1/2+x,1/2+y,z
1/2-x,-y,z
1/2+x,1/2-y,-z
1/2-x,y,-z
1/2-x,1/2-y,-z
1/2+x,y,-z
1/2-x,1/2+y,z
1/2+x,-y,z
loop_
_atom_site_type_symbol
_atom_site_label
_atom_site_fract_x
_atom_site_fract_y
_atom_site_fract_z
Si Si1 0.082264 0.076947 0.368470
Si Si2 0.917011 0.419867 0.543408
Si Si3 0.176205 0.929773 0.045833
Si Si4 0.922309 0.428632 0.875527
Si Si5 0.321833 0.427328 0.199440
Si Si6 0.322306 0.427412 0.299148
O O1 0.105071 0.250000 0.366613
O O2 0.000000 0.057046 0.364617
O O3 0.110158 0.008683 0.414082
O O4 0.114941 0.987970 0.328191
O O5 0.887015 0.500000 0.500000
O O6 0.888266 0.250000 0.545168
O O7 0.000000 0.420997 0.542098
O O8 0.183377 0.750000 0.041920
O O9 0.119588 0.980171 0.081567
O O10 0.250000 0.000000 0.059849
O O11 0.151112 0.000000 0.000000
O O12 0.926842 0.250000 0.874150
O O13 0.883460 0.487579 0.831814
O O14 0.000000 0.498687 0.876815
O O15 0.312740 0.250000 0.194809
O O16 0.250000 0.500000 0.183456
O O17 0.339229 0.474415 0.249200
O O18 0.316239 0.250000 0.304669
O O19 0.250000 0.500000 0.314896
#
# Coordination Sequence:
#
# PCOD8278994 Si02
#       6
#    16  16  16  16  16  16
#     4  10  20  33  50  74 104 136 170 211 257 302
#     4   9  16  27  45  70 100 133 170 211 254 301
#     4  10  19  32  52  74  98 130 167 207 246 290
#     4   9  18  32  50  74 102 131 163 201 248 297
#     4   9  18  33  54  75  96 126 164 205 245 293
#     4  10  20  34  53  76 101 132 169 209 254 304
#
# _framework density 18.46181
#
# number of rings (size 3 to 8) (size 9 to 14) (size 15 to 20)
#    0.000    2.500    0.000    3.000    0.000    4.667 
#    0.000    2.500    0.000    4.500    0.000    3.500 
#    0.000    0.000    0.000    0.000    0.000    0.000 
#
# Total GULP energy -595232.726219 kJ/mol
# GULP energy per Si atom -12400.681796 kJ/mol
# Density = 1.841979 g / cm^3
# Si number density = 18.461810 Si / 1000 Ang^3
#
#
#
# Elastic Constant Matrix: (Units=GPa)
#
#
# Indices 1 2 3 4 5 6 
#
# 1 93.3211 32.9040 73.8382 0.0000 0.0000 0.0000
# 2 32.9040 80.7228 44.4942 0.0000 0.0000 0.0000
# 3 73.8382 44.4942 138.9092 0.0000 0.0000 0.0000
# 4 0.0000 0.0000 0.0000 22.9605 0.0000 0.0000
# 5 0.0000 0.0000 0.0000 0.0000 18.9456 0.0000
# 6 0.0000 0.0000 0.0000 0.0000 0.0000 24.4738
#
#
#
# Elastic Compliance Matrix: (Units=1/GPa)
#
#
# Indices 1 2 3 4 5 6 
#
# 1 0.018945 -0.002637 -0.009226 0.000000 0.000000 0.000000
# 2 -0.002637 0.015411 -0.003535 0.000000 0.000000 0.000000
# 3 -0.009226 -0.003535 0.013235 0.000000 0.000000 0.000000
# 4 0.000000 0.000000 0.000000 0.043553 0.000000 0.000000
# 5 0.000000 0.000000 0.000000 0.000000 0.052783 0.000000
# 6 0.000000 0.000000 0.000000 0.000000 0.000000 0.040860
#
#
# Mechanical properties :
#
#
# Convention : Reuss Voigt Hill
#
# Bulk Modulus (GPa) = 59.53593 68.38064 63.95828
# Shear Modulus (GPa) = 22.60590 24.05710 23.33150
#
# Velocity S-wave (km/s) = 3.50304 3.61373 3.55881
# Velocity P-wave (km/s) = 6.97709 7.38454 7.18371
#
# Compressibility (1/GPa) = 0.01679658
#
# Stress axis : x y z
#
# Youngs Moduli (GPa) = 52.78386 64.88748 75.55651
#
# Poissons Ratio (x) = 0.17112 0.69706
# Poissons Ratio (y) = 0.13920 0.26706
# Poissons Ratio (z) = 0.48697 0.22935
#
# Static dielectric constant tensor:
#      x y z
#    x 3.317500 0.000000 0.000000 
#    y 0.000000 3.364630 0.000000 
#    z 0.000000 0.000000 3.600230 
# 
# 
# High freq. dielectric constant tensor:
#      x y z
#    x 1.691660 0.000000 0.000000 
#    y 0.000000 1.711780 0.000000 
#    z 0.000000 0.000000 1.730020 
# 
# From -- ./inp_files/44616.got.cif
#   From: 2010.03.12/outbox.cif.g09.slc.cpg/sg67_23_cif.got.tgz:44616.got - 2010.04.10 22:41:39.
