data_PCOD8278262
_publ_section_title
;
Structure prediction by ZEFSAII (Michael W. Deem and Ramdas Pophale) SiO2 
 PCOD8278262
Probable space group: C M M A
;
_chemical_formula_sum "Si O2"
_cell_formula_units_Z 128
_cell_length_a 24.480371
_cell_length_b 18.720619
_cell_length_c 17.238899
_cell_angle_alpha 90.000000
_cell_angle_beta 90.000000
_cell_angle_gamma 90.000000
_cell_volume 7900.375347
_symmetry_space_group_name_H-M "C M M A"
_symmetry_group_IT_number 67
_symmetry_cell_setting 'orthorhombic'
loop_
_space_group_symop_operation_xyz
x,y,z
-x,1/2-y,z
x,-y,-z
-x,1/2+y,-z
-x,-y,-z
x,1/2+y,-z
-x,y,z
x,1/2-y,z
1/2+x,1/2+y,z
1/2-x,-y,z
1/2+x,1/2-y,-z
1/2-x,y,-z
1/2-x,1/2-y,-z
1/2+x,y,-z
1/2-x,1/2+y,z
1/2+x,-y,z
loop_
_atom_site_type_symbol
_atom_site_label
_atom_site_fract_x
_atom_site_fract_y
_atom_site_fract_z
Si Si1 0.148362 0.425060 0.899620
Si Si2 0.646055 0.089077 0.922922
Si Si3 0.748828 0.668539 0.907809
Si Si4 0.064737 0.829807 0.376200
Si Si5 0.563329 0.170603 0.829212
Si Si6 0.436695 0.921870 0.311297
Si Si7 0.564866 0.431580 0.235848
Si Si8 0.564883 0.579415 0.481533
O O1 0.162989 0.508402 0.903805
O O2 0.200835 0.379792 0.870362
O O3 0.096809 0.412219 0.843312
O O4 0.135311 0.397522 0.986083
O O5 0.692383 0.138142 0.882744
O O6 0.589351 0.111614 0.884635
O O7 0.741360 0.750000 0.879631
O O8 0.750000 0.661850 0.000000
O O9 0.089024 0.750000 0.370785
O O10 0.081098 0.872227 0.298915
O O11 0.089502 0.867483 0.453369
O O12 0.000000 0.827849 0.383227
O O13 0.500000 0.169455 0.849463
O O14 0.587601 0.250000 0.841573
O O15 0.573470 0.148013 0.740261
O O16 0.500000 0.939416 0.324273
O O17 0.411141 0.904079 0.395632
O O18 0.413126 0.992698 0.269200
O O19 0.500000 0.432526 0.217569
O O20 0.584181 0.500000 0.500000
O O21 0.500000 0.586278 0.483435
#
# Coordination Sequence:
#
# PCOD8278262 Si02
#       8
#    16  16  16  16  16  16  16  16
#     4  10  20  31  50  72  91 121 164 201 232 286
#     4  10  19  33  50  70  93 121 157 202 246 280
#     4   9  18  33  51  69  90 116 150 197 249 290
#     4   9  17  27  40  61  90 124 161 199 237 278
#     4  10  20  32  46  67  96 127 157 192 237 286
#     4   9  16  27  43  62  88 123 160 192 229 277
#     4  10  18  30  45  65  97 133 163 195 237 282
#     4   9  14  23  41  61  82 116 159 194 226 272
#
# _framework density 16.201761999999999
#
# number of rings (size 3 to 8) (size 9 to 14) (size 15 to 20)
#    0.000    2.500    2.500    0.750    0.000    3.500 
#    0.000    3.750    0.000    1.500    0.000    0.000 
#    0.000    1.000    1.500    3.500    1.250    1.125 
#
# Total GULP energy -793224.809092 kJ/mol
# GULP energy per Si atom -12394.137642 kJ/mol
# Density = 1.616489 g / cm^3
# Si number density = 16.201762 Si / 1000 Ang^3
#
#
#
# Elastic Constant Matrix: (Units=GPa)
#
#
# Indices 1 2 3 4 5 6 
#
# 1 47.5614 33.0229 40.2557 0.0000 0.0000 0.0000
# 2 33.0229 107.5555 37.1389 0.0000 0.0000 0.0000
# 3 40.2557 37.1389 91.1961 0.0000 0.0000 0.0000
# 4 0.0000 0.0000 0.0000 22.1192 0.0000 0.0000
# 5 0.0000 0.0000 0.0000 0.0000 3.5330 0.0000
# 6 0.0000 0.0000 0.0000 0.0000 0.0000 21.4268
#
#
#
# Elastic Compliance Matrix: (Units=1/GPa)
#
#
# Indices 1 2 3 4 5 6 
#
# 1 0.037313 -0.006713 -0.013737 0.000000 0.000000 0.000000
# 2 -0.006713 0.012027 -0.001935 0.000000 0.000000 0.000000
# 3 -0.013737 -0.001935 0.017817 0.000000 0.000000 0.000000
# 4 0.000000 0.000000 0.000000 0.045210 0.000000 0.000000
# 5 0.000000 0.000000 0.000000 0.000000 0.283046 0.000000
# 6 0.000000 0.000000 0.000000 0.000000 0.000000 0.046670
#
#
# Mechanical properties :
#
#
# Convention : Reuss Voigt Hill
#
# Bulk Modulus (GPa) = 44.66694 51.90534 48.28614
# Shear Modulus (GPa) = 10.11501 18.47552 14.29526
#
# Velocity S-wave (km/s) = 2.50134 3.38056 2.97362
# Velocity P-wave (km/s) = 5.99761 6.88069 6.45427
#
# Compressibility (1/GPa) = 0.02238792
#
# Stress axis : x y z
#
# Youngs Moduli (GPa) = 26.80010 83.14908 56.12624
#
# Poissons Ratio (x) = 0.55818 0.77101
# Poissons Ratio (y) = 0.17991 0.10858
# Poissons Ratio (z) = 0.36815 0.16085
#
# Static dielectric constant tensor:
#      x y z
#    x 2.679040 0.000000 0.000000 
#    y 0.000000 3.256050 0.000000 
#    z 0.000000 0.000000 3.109180 
# 
# 
# High freq. dielectric constant tensor:
#      x y z
#    x 1.568620 0.000000 0.000000 
#    y 0.000000 1.635380 0.000000 
#    z 0.000000 0.000000 1.616690 
# 
# From -- ./inp_files/35619.got.cif
#   From: 2010.03.12/outbox.cif.g09.slc.cpg/sg67_18_cif.got.tgz:35619.got - 2010.04.10 22:41:39.
