data_PCOD8278416
_publ_section_title
;
Structure prediction by ZEFSAII (Michael W. Deem and Ramdas Pophale) SiO2 
 PCOD8278416
Probable space group: C M M A
;
_chemical_formula_sum "Si O2"
_cell_formula_units_Z 96
_cell_length_a 16.597558
_cell_length_b 24.058432
_cell_length_c 12.438569
_cell_angle_alpha 90.000000
_cell_angle_beta 90.000000
_cell_angle_gamma 90.000000
_cell_volume 4966.860169
_symmetry_space_group_name_H-M "C M M A"
_symmetry_group_IT_number 67
_symmetry_cell_setting 'orthorhombic'
loop_
_space_group_symop_operation_xyz
x,y,z
-x,1/2-y,z
x,-y,-z
-x,1/2+y,-z
-x,-y,-z
x,1/2+y,-z
-x,y,z
x,1/2-y,z
1/2+x,1/2+y,z
1/2-x,-y,z
1/2+x,1/2-y,-z
1/2-x,y,-z
1/2-x,1/2-y,-z
1/2+x,y,-z
1/2-x,1/2+y,z
1/2+x,-y,z
loop_
_atom_site_type_symbol
_atom_site_label
_atom_site_fract_x
_atom_site_fract_y
_atom_site_fract_z
Si Si1 0.158089 0.059423 0.964550
Si Si2 0.095048 0.940392 0.269119
Si Si3 0.595889 0.250000 0.540776
Si Si4 0.595452 0.368078 0.466387
Si Si5 0.594214 0.133634 0.860173
Si Si6 0.595539 0.938320 0.335106
Si Si7 0.596025 0.750000 0.214343
O O1 0.147346 0.067772 0.837810
O O2 0.250000 0.062031 0.000000
O O3 0.112138 0.109800 0.022252
O O4 0.120367 0.000000 0.000000
O O5 0.119135 0.890289 0.348665
O O6 0.000000 0.940650 0.240678
O O7 0.120943 0.997330 0.328420
O O8 0.500000 0.250000 0.538070
O O9 0.629254 0.305399 0.481418
O O10 0.626914 0.250000 0.663076
O O11 0.500000 0.367943 0.479284
O O12 0.631440 0.409185 0.558016
O O13 0.500000 0.137421 0.841787
O O14 0.631318 0.093101 0.769292
O O15 0.630643 0.195578 0.846479
O O16 0.500000 0.933742 0.337188
O O17 0.500000 0.750000 0.212859
#
# Coordination Sequence:
#
# PCOD8278416 Si02
#       7
#    16  16   8  16  16  16   8
#     4  11  23  37  52  72 100 139 179 221 263 307
#     4  10  19  31  50  77 106 136 169 209 259 311
#     4   9  14  24  43  73 110 136 157 196 255 308
#     4   9  16  26  44  76 111 135 160 200 254 313
#     4  10  18  31  54  81 104 131 172 217 255 297
#     4   9  15  25  46  77 108 131 158 203 253 302
#     4   9  16  28  50  81 109 132 167 215 254 293
#
# _framework density 19.328105999999998
#
# number of rings (size 3 to 8) (size 9 to 14) (size 15 to 20)
#    0.000    2.333    3.333    1.000    0.000    2.667 
#    0.000    1.250    0.000    4.000    0.000    1.167 
#    0.000    0.000    0.000    0.000    0.000    0.000 
#
# Total GULP energy -595039.585959 kJ/mol
# GULP energy per Si atom -12396.658041 kJ/mol
# Density = 1.928411 g / cm^3
# Si number density = 19.328106 Si / 1000 Ang^3
#
#
#
# Elastic Constant Matrix: (Units=GPa)
#
#
# Indices 1 2 3 4 5 6 
#
# 1 16.7574 16.7110 18.5797 0.0000 0.0000 0.0000
# 2 16.7110 180.5779 90.2025 0.0000 0.0000 0.0000
# 3 18.5797 90.2025 154.6339 0.0000 0.0000 0.0000
# 4 0.0000 0.0000 0.0000 39.6617 0.0000 0.0000
# 5 0.0000 0.0000 0.0000 0.0000 13.0088 0.0000
# 6 0.0000 0.0000 0.0000 0.0000 0.0000 6.5584
#
#
#
# Elastic Compliance Matrix: (Units=1/GPa)
#
#
# Indices 1 2 3 4 5 6 
#
# 1 0.070149 -0.003220 -0.006550 0.000000 0.000000 0.000000
# 2 -0.003220 0.007963 -0.004258 0.000000 0.000000 0.000000
# 3 -0.006550 -0.004258 0.009738 0.000000 0.000000 0.000000
# 4 0.000000 0.000000 0.000000 0.025213 0.000000 0.000000
# 5 0.000000 0.000000 0.000000 0.000000 0.076871 0.000000
# 6 0.000000 0.000000 0.000000 0.000000 0.000000 0.152477
#
#
# Mechanical properties :
#
#
# Convention : Reuss Voigt Hill
#
# Bulk Modulus (GPa) = 16.72435 66.99507 41.85971
# Shear Modulus (GPa) = 12.80746 26.94418 19.87582
#
# Velocity S-wave (km/s) = 2.57696 3.73774 3.21025
# Velocity P-wave (km/s) = 4.18640 7.30512 5.95360
#
# Compressibility (1/GPa) = 0.05979304
#
# Stress axis : x y z
#
# Youngs Moduli (GPa) = 14.25541 125.58552 102.69279
#
# Poissons Ratio (x) = 0.40433 0.67269
# Poissons Ratio (y) = 0.04590 0.43727
# Poissons Ratio (z) = 0.09338 0.53475
#
# Static dielectric constant tensor:
#      x y z
#    x 2.857480 0.000000 0.000000 
#    y 0.000000 3.948900 0.000000 
#    z 0.000000 0.000000 3.517910 
# 
# 
# High freq. dielectric constant tensor:
#      x y z
#    x 1.686990 0.000000 0.000000 
#    y 0.000000 1.762070 0.000000 
#    z 0.000000 0.000000 1.751810 
# 
# From -- ./inp_files/20905.got.cif
#   From: 2010.03.12/outbox.cif.g09.slc.cpg/sg67_11_cif.got.tgz:20905.got - 2010.04.10 22:41:39.
