data_PCOD8278243
_publ_section_title
;
Structure prediction by ZEFSAII (Michael W. Deem and Ramdas Pophale) SiO2 
 PCOD8278243
Probable space group: C M M A
;
_chemical_formula_sum "Si O2"
_cell_formula_units_Z 116
_cell_length_a 26.395184
_cell_length_b 13.568843
_cell_length_c 19.081807
_cell_angle_alpha 90.000000
_cell_angle_beta 90.000000
_cell_angle_gamma 90.000000
_cell_volume 6834.189395
_symmetry_space_group_name_H-M "C M M A"
_symmetry_group_IT_number 67
_symmetry_cell_setting 'orthorhombic'
loop_
_space_group_symop_operation_xyz
x,y,z
-x,1/2-y,z
x,-y,-z
-x,1/2+y,-z
-x,-y,-z
x,1/2+y,-z
-x,y,z
x,1/2-y,z
1/2+x,1/2+y,z
1/2-x,-y,z
1/2+x,1/2-y,-z
1/2-x,y,-z
1/2-x,1/2-y,-z
1/2+x,y,-z
1/2-x,1/2+y,z
1/2+x,-y,z
loop_
_atom_site_type_symbol
_atom_site_label
_atom_site_fract_x
_atom_site_fract_y
_atom_site_fract_z
Si Si1 0.881332 0.525552 0.922608
Si Si2 0.813624 0.357665 0.864998
Si Si3 0.719206 0.138908 0.614896
Si Si4 0.818678 0.357961 0.703594
Si Si5 0.147889 0.563755 0.727313
Si Si6 0.797003 0.365109 0.136590
Si Si7 0.750000 0.500000 0.500000
Si Si8 0.057833 0.635705 0.811839
O O1 0.859902 0.427940 0.884574
O O2 0.836272 0.606889 0.925562
O O3 0.928503 0.568743 0.879117
O O4 0.900622 0.500000 0.000000
O O5 0.827141 0.250000 0.896065
O O6 0.801817 0.347305 0.783128
O O7 0.758565 0.394769 0.892336
O O8 0.720990 0.250000 0.587135
O O9 0.770281 0.112069 0.657154
O O10 0.670565 0.127742 0.664495
O O11 0.713957 0.068199 0.547778
O O12 0.840980 0.250000 0.679241
O O13 0.857685 0.449819 0.700824
O O14 0.184679 0.571478 0.795576
O O15 0.092437 0.605038 0.745795
O O16 0.800545 0.250000 0.155452
O O17 0.067189 0.750000 0.830726
O O18 0.000000 0.615761 0.790790
#
# Coordination Sequence:
#
# PCOD8278243 Si02
#       8
#    16  16  16  16  16  16   4  16
#     4  11  22  33  49  68  96 133 163 198 252 322
#     4  10  19  30  47  71  99 128 168 209 244 291
#     4  11  21  32  49  77 112 151 182 203 234 288
#     4  10  18  29  49  75 101 133 171 208 243 285
#     4  11  17  32  55  74  96 129 172 212 259 296
#     4  10  19  30  47  71  98 130 167 210 248 288
#     4  12  22  32  44  74 126 164 172 196 220 286
#     4  10  22  39  58  77  93 114 159 226 280 313
#
# _framework density 16.973483999999999
#
# number of rings (size 3 to 8) (size 9 to 14) (size 15 to 20)
#    0.000    1.517    5.517    3.103    0.000    2.483 
#    0.000    1.379    0.000    1.655    0.000    0.483 
#    0.000    0.000    0.000    0.000    0.000    0.000 
#
# Total GULP energy -718778.082528 kJ/mol
# GULP energy per Si atom -12392.725561 kJ/mol
# Density = 1.693485 g / cm^3
# Si number density = 16.973484 Si / 1000 Ang^3
#
#
#
# Elastic Constant Matrix: (Units=GPa)
#
#
# Indices 1 2 3 4 5 6 
#
# 1 94.4812 46.3733 31.8256 0.0000 0.0000 0.0000
# 2 46.3733 122.5333 32.4447 0.0000 0.0000 0.0000
# 3 31.8256 32.4447 80.0862 0.0000 0.0000 0.0000
# 4 0.0000 0.0000 0.0000 20.3145 0.0000 0.0000
# 5 0.0000 0.0000 0.0000 0.0000 12.9048 0.0000
# 6 0.0000 0.0000 0.0000 0.0000 0.0000 22.1351
#
#
#
# Elastic Compliance Matrix: (Units=1/GPa)
#
#
# Indices 1 2 3 4 5 6 
#
# 1 0.013969 -0.004275 -0.003819 0.000000 0.000000 0.000000
# 2 -0.004275 0.010450 -0.002535 0.000000 0.000000 0.000000
# 3 -0.003819 -0.002535 0.015031 0.000000 0.000000 0.000000
# 4 0.000000 0.000000 0.000000 0.049226 0.000000 0.000000
# 5 0.000000 0.000000 0.000000 0.000000 0.077490 0.000000
# 6 0.000000 0.000000 0.000000 0.000000 0.000000 0.045177
#
#
# Mechanical properties :
#
#
# Convention : Reuss Voigt Hill
#
# Bulk Modulus (GPa) = 54.96907 57.59865 56.28386
# Shear Modulus (GPa) = 20.94979 23.50137 22.22558
#
# Velocity S-wave (km/s) = 3.51702 3.72505 3.62253
# Velocity P-wave (km/s) = 6.99630 7.24634 7.12242
#
# Compressibility (1/GPa) = 0.01819205
#
# Stress axis : x y z
#
# Youngs Moduli (GPa) = 71.58703 95.69183 66.52894
#
# Poissons Ratio (x) = 0.40912 0.25408
# Poissons Ratio (y) = 0.30606 0.16862
# Poissons Ratio (z) = 0.27340 0.24254
#
# Static dielectric constant tensor:
#      x y z
#    x 2.799610 0.000000 0.000000 
#    y 0.000000 3.576850 0.000000 
#    z 0.000000 0.000000 3.026790 
# 
# 
# High freq. dielectric constant tensor:
#      x y z
#    x 1.601030 0.000000 0.000000 
#    y 0.000000 1.686090 0.000000 
#    z 0.000000 0.000000 1.627000 
# 
# From -- ./inp_files/35987.got.cif
#   From: 2010.03.12/outbox.cif.g09.slc.cpg/sg67_18_cif.got.tgz:35987.got - 2010.04.10 22:41:39.
