data_PCOD8278915
_publ_section_title
;
Structure prediction by ZEFSAII (Michael W. Deem and Ramdas Pophale) SiO2 
 PCOD8278915
Probable space group: C M M A
;
_chemical_formula_sum "Si O2"
_cell_formula_units_Z 112
_cell_length_a 17.527101
_cell_length_b 16.972233
_cell_length_c 21.388133
_cell_angle_alpha 90.000000
_cell_angle_beta 90.000000
_cell_angle_gamma 90.000000
_cell_volume 6362.414374
_symmetry_space_group_name_H-M "C M M A"
_symmetry_group_IT_number 67
_symmetry_cell_setting 'orthorhombic'
loop_
_space_group_symop_operation_xyz
x,y,z
-x,1/2-y,z
x,-y,-z
-x,1/2+y,-z
-x,-y,-z
x,1/2+y,-z
-x,y,z
x,1/2-y,z
1/2+x,1/2+y,z
1/2-x,-y,z
1/2+x,1/2-y,-z
1/2-x,y,-z
1/2-x,1/2-y,-z
1/2+x,y,-z
1/2-x,1/2+y,z
1/2+x,-y,z
loop_
_atom_site_type_symbol
_atom_site_label
_atom_site_fract_x
_atom_site_fract_y
_atom_site_fract_z
Si Si1 0.212381 0.842004 0.934790
Si Si2 0.086053 0.342141 0.475519
Si Si3 0.128614 0.840581 0.389121
Si Si4 0.413914 0.342426 0.254723
Si Si5 0.688683 0.065382 0.159240
Si Si6 0.586761 0.034270 0.931055
Si Si7 0.271170 0.411085 0.570380
O O1 0.197357 0.750000 0.931493
O O2 0.268318 0.867044 0.879248
O O3 0.130551 0.883020 0.928156
O O4 0.250000 0.868168 0.000000
O O5 0.108777 0.250000 0.474283
O O6 0.095254 0.377596 0.546295
O O7 0.138907 0.389789 0.425485
O O8 0.000000 0.355401 0.452824
O O9 0.108751 0.750000 0.391836
O O10 0.089390 0.873612 0.326416
O O11 0.219847 0.856236 0.384825
O O12 0.500000 0.355603 0.229501
O O13 0.391599 0.250000 0.250125
O O14 0.353072 0.393954 0.217115
O O15 0.750000 0.000000 0.182532
O O16 0.624519 0.027310 0.115881
O O17 0.500000 0.049342 0.910201
O O18 0.591291 0.000000 0.000000
O O19 0.250000 0.500000 0.587954
O O20 0.250000 0.389112 0.500000
#
# Coordination Sequence:
#
# PCOD8278915 Si02
#       7
#    16  16  16  16  16  16  16
#     4  10  19  32  50  71  98 128 159 194 232 281
#     4   9  16  28  48  72  96 125 163 204 248 294
#     4   9  17  30  48  68  94 131 167 199 242 296
#     4  10  20  34  51  73 100 126 161 208 249 288
#     4  10  20  33  53  72  96 129 163 196 240 291
#     4  10  19  32  50  71  98 128 158 193 234 283
#     4   9  17  29  44  67  97 128 162 201 244 292
#
# _framework density 17.603380999999999
#
# number of rings (size 3 to 8) (size 9 to 14) (size 15 to 20)
#    0.000    2.429    1.429    1.714    0.000    4.286 
#    0.000    6.429    0.000    0.000    0.000    1.000 
#    0.000    4.571    0.000    0.000    0.000    0.000 
#
# Total GULP energy -694106.759649 kJ/mol
# GULP energy per Si atom -12394.763565 kJ/mol
# Density = 1.756331 g / cm^3
# Si number density = 17.603381 Si / 1000 Ang^3
#
#
#
# Elastic Constant Matrix: (Units=GPa)
#
#
# Indices 1 2 3 4 5 6 
#
# 1 123.9223 36.3729 20.5471 0.0000 0.0000 0.0000
# 2 36.3729 51.3718 14.9350 0.0000 0.0000 0.0000
# 3 20.5471 14.9350 29.9370 0.0000 0.0000 0.0000
# 4 0.0000 0.0000 0.0000 13.9342 0.0000 0.0000
# 5 0.0000 0.0000 0.0000 0.0000 26.9895 0.0000
# 6 0.0000 0.0000 0.0000 0.0000 0.0000 20.7521
#
#
#
# Elastic Compliance Matrix: (Units=1/GPa)
#
#
# Indices 1 2 3 4 5 6 
#
# 1 0.010606 -0.006308 -0.004133 0.000000 0.000000 0.000000
# 2 -0.006308 0.026520 -0.008901 0.000000 0.000000 0.000000
# 3 -0.004133 -0.008901 0.040680 0.000000 0.000000 0.000000
# 4 0.000000 0.000000 0.000000 0.071766 0.000000 0.000000
# 5 0.000000 0.000000 0.000000 0.000000 0.037051 0.000000
# 6 0.000000 0.000000 0.000000 0.000000 0.000000 0.048188
#
#
# Mechanical properties :
#
#
# Convention : Reuss Voigt Hill
#
# Bulk Modulus (GPa) = 25.56001 38.77124 32.16562
# Shear Modulus (GPa) = 17.44982 21.22689 19.33836
#
# Velocity S-wave (km/s) = 3.15187 3.47629 3.31805
# Velocity P-wave (km/s) = 5.27230 6.17944 5.74381
#
# Compressibility (1/GPa) = 0.03912361
#
# Stress axis : x y z
#
# Youngs Moduli (GPa) = 94.28340 37.70742 24.58200
#
# Poissons Ratio (x) = 0.23787 0.10159
# Poissons Ratio (y) = 0.59476 0.21880
# Poissons Ratio (z) = 0.38963 0.33562
#
# Static dielectric constant tensor:
#      x y z
#    x 3.483410 0.000000 0.000000 
#    y 0.000000 3.102550 0.000000 
#    z 0.000000 0.000000 3.110800 
# 
# 
# High freq. dielectric constant tensor:
#      x y z
#    x 1.690720 0.000000 0.000000 
#    y 0.000000 1.670220 0.000000 
#    z 0.000000 0.000000 1.651820 
# 
# From -- ./inp_files/34403.got.cif
#   From: 2010.03.12/outbox.cif.g09.slc.cpg/sg67_18_cif.got.tgz:34403.got - 2010.04.10 22:41:39.
