data_PCOD8278843
_publ_section_title
;
Structure prediction by ZEFSAII (Michael W. Deem and Ramdas Pophale) SiO2 
 PCOD8278843
Probable space group: C M M A
;
_chemical_formula_sum "Si O2"
_cell_formula_units_Z 80
_cell_length_a 17.728124
_cell_length_b 25.136531
_cell_length_c 9.680196
_cell_angle_alpha 90.000000
_cell_angle_beta 90.000000
_cell_angle_gamma 90.000000
_cell_volume 4313.723195
_symmetry_space_group_name_H-M "C M M A"
_symmetry_group_IT_number 67
_symmetry_cell_setting 'orthorhombic'
loop_
_space_group_symop_operation_xyz
x,y,z
-x,1/2-y,z
x,-y,-z
-x,1/2+y,-z
-x,-y,-z
x,1/2+y,-z
-x,y,z
x,1/2-y,z
1/2+x,1/2+y,z
1/2-x,-y,z
1/2+x,1/2-y,-z
1/2-x,y,-z
1/2-x,1/2-y,-z
1/2+x,y,-z
1/2-x,1/2+y,z
1/2+x,-y,z
loop_
_atom_site_type_symbol
_atom_site_label
_atom_site_fract_x
_atom_site_fract_y
_atom_site_fract_z
Si Si1 0.266481 0.560332 0.160161
Si Si2 0.415068 0.690484 0.923307
Si Si3 0.351795 0.689092 0.401253
Si Si4 0.695169 0.655896 0.691391
Si Si5 0.084718 0.618748 0.819583
O O1 0.250000 0.500000 0.200898
O O2 0.212520 0.596305 0.255886
O O3 0.354539 0.571522 0.195117
O O4 0.250000 0.571669 0.000000
O O5 0.500000 0.678366 0.871955
O O6 0.409291 0.750000 0.983668
O O7 0.359328 0.685625 0.795816
O O8 0.391711 0.650546 0.043646
O O9 0.375779 0.750000 0.431016
O O10 0.344869 0.655315 0.542363
O O11 0.272634 0.689027 0.318703
O O12 0.414058 0.659370 0.309354
O O13 0.000000 0.595046 0.830109
#
# Coordination Sequence:
#
# PCOD8278843 Si02
#       5
#    16  16  16  16  16
#     4  10  20  38  61  84 107 142 192 241 290 332
#     4  10  19  31  50  77 110 143 179 225 276 332
#     4  10  20  33  54  80 114 152 184 220 270 337
#     4  10  19  35  53  79 110 144 191 234 274 326
#     4  10  21  37  55  83 115 145 184 228 278 334
#
# _framework density 18.545465
#
# number of rings (size 3 to 8) (size 9 to 14) (size 15 to 20)
#    0.000    2.000    2.000    3.000    0.000    2.000 
#    0.000   14.000    0.000    1.200    0.000    0.000 
#    0.000    0.000    0.000    0.000    0.000    0.000 
#
# Total GULP energy -495989.732945 kJ/mol
# GULP energy per Si atom -12399.743324 kJ/mol
# Density = 1.850325 g / cm^3
# Si number density = 18.545465 Si / 1000 Ang^3
#
#
#
# Elastic Constant Matrix: (Units=GPa)
#
#
# Indices 1 2 3 4 5 6 
#
# 1 80.5838 42.6825 33.7075 0.0000 0.0000 0.0000
# 2 42.6825 123.4512 43.2617 0.0000 0.0000 0.0000
# 3 33.7075 43.2617 93.0525 0.0000 0.0000 0.0000
# 4 0.0000 0.0000 0.0000 27.7425 0.0000 0.0000
# 5 0.0000 0.0000 0.0000 0.0000 25.2677 0.0000
# 6 0.0000 0.0000 0.0000 0.0000 0.0000 19.4717
#
#
#
# Elastic Compliance Matrix: (Units=1/GPa)
#
#
# Indices 1 2 3 4 5 6 
#
# 1 0.016310 -0.004263 -0.003926 0.000000 0.000000 0.000000
# 2 -0.004263 0.010791 -0.003473 0.000000 0.000000 0.000000
# 3 -0.003926 -0.003473 0.013783 0.000000 0.000000 0.000000
# 4 0.000000 0.000000 0.000000 0.036046 0.000000 0.000000
# 5 0.000000 0.000000 0.000000 0.000000 0.039576 0.000000
# 6 0.000000 0.000000 0.000000 0.000000 0.000000 0.051357
#
#
# Mechanical properties :
#
#
# Convention : Reuss Voigt Hill
#
# Bulk Modulus (GPa) = 56.94621 59.59898 58.27259
# Shear Modulus (GPa) = 25.37550 26.32543 25.85047
#
# Velocity S-wave (km/s) = 3.70305 3.77172 3.73754
# Velocity P-wave (km/s) = 7.00402 7.15362 7.07922
#
# Compressibility (1/GPa) = 0.01756043
#
# Stress axis : x y z
#
# Youngs Moduli (GPa) = 61.31315 92.66715 72.55131
#
# Poissons Ratio (x) = 0.39505 0.28484
# Poissons Ratio (y) = 0.26139 0.25195
# Poissons Ratio (z) = 0.24072 0.32181
#
# Static dielectric constant tensor:
#      x y z
#    x 3.385660 0.000000 0.000000 
#    y 0.000000 3.231060 0.000000 
#    z 0.000000 0.000000 3.467920 
# 
# 
# High freq. dielectric constant tensor:
#      x y z
#    x 1.718360 0.000000 0.000000 
#    y 0.000000 1.699120 0.000000 
#    z 0.000000 0.000000 1.723210 
# 
# From -- ./inp_files/9895.got.cif
#   From: 2010.03.12/outbox.cif.g09.slc.cpg/sg67_5_cif.got.tgz:9895.got - 2010.04.10 22:41:39.
