data_PCOD8278855
_publ_section_title
;
Structure prediction by ZEFSAII (Michael W. Deem and Ramdas Pophale) SiO2 
 PCOD8278855
Probable space group: C M M A
;
_chemical_formula_sum "Si O2"
_cell_formula_units_Z 80
_cell_length_a 25.600636
_cell_length_b 16.294441
_cell_length_c 9.084099
_cell_angle_alpha 90.000000
_cell_angle_beta 90.000000
_cell_angle_gamma 90.000000
_cell_volume 3789.414210
_symmetry_space_group_name_H-M "C M M A"
_symmetry_group_IT_number 67
_symmetry_cell_setting 'orthorhombic'
loop_
_space_group_symop_operation_xyz
x,y,z
-x,1/2-y,z
x,-y,-z
-x,1/2+y,-z
-x,-y,-z
x,1/2+y,-z
-x,y,z
x,1/2-y,z
1/2+x,1/2+y,z
1/2-x,-y,z
1/2+x,1/2-y,-z
1/2-x,y,-z
1/2-x,1/2-y,-z
1/2+x,y,-z
1/2-x,1/2+y,z
1/2+x,-y,z
loop_
_atom_site_type_symbol
_atom_site_label
_atom_site_fract_x
_atom_site_fract_y
_atom_site_fract_z
Si Si1 0.344617 0.651867 0.357827
Si Si2 0.750008 0.345461 0.837294
Si Si3 0.440642 0.920431 0.903385
Si Si4 0.640222 0.845732 0.690064
Si Si5 0.443581 0.656966 0.193377
O O1 0.342939 0.750000 0.350552
O O2 0.293741 0.615777 0.272476
O O3 0.347607 0.622600 0.525816
O O4 0.396165 0.614053 0.279537
O O5 0.736482 0.250000 0.851387
O O6 0.807046 0.360877 0.776852
O O7 0.750000 0.386064 0.000000
O O8 0.500000 0.929009 0.845336
O O9 0.404425 0.902462 0.762563
O O10 0.434215 0.845172 0.017618
O O11 0.424151 0.000000 0.000000
O O12 0.623203 0.750000 0.691509
O O13 0.500000 0.614106 0.229756
O O14 0.446237 0.750000 0.245675
#
# Coordination Sequence:
#
# PCOD8278855 Si02
#       5
#    16  16  16  16  16
#     4   9  17  29  48  78 111 135 164 213 266 315
#     4   9  16  27  47  76 107 136 167 204 250 308
#     4  10  21  36  52  72 100 135 177 222 267 318
#     4  10  19  31  51  78 105 134 171 217 267 317
#     4   9  17  31  52  75  98 128 167 209 255 310
#
# _framework density 21.111442
#
# number of rings (size 3 to 8) (size 9 to 14) (size 15 to 20)
#    0.000    2.600    0.000    2.400    0.000    7.600 
#    0.000    3.000    0.000    9.000    0.000    5.600 
#    0.000    0.000    0.000    0.000    0.000    0.000 
#
# Total GULP energy -495652.053637 kJ/mol
# GULP energy per Si atom -12391.301341 kJ/mol
# Density = 2.106339 g / cm^3
# Si number density = 21.111442 Si / 1000 Ang^3
#
#
#
# Elastic Constant Matrix: (Units=GPa)
#
#
# Indices 1 2 3 4 5 6 
#
# 1 127.9772 31.3680 89.7750 0.0000 0.0000 0.0000
# 2 31.3680 30.9632 21.8798 0.0000 0.0000 0.0000
# 3 89.7750 21.8798 176.9068 0.0000 0.0000 0.0000
# 4 0.0000 0.0000 0.0000 17.2668 0.0000 0.0000
# 5 0.0000 0.0000 0.0000 0.0000 26.9258 0.0000
# 6 0.0000 0.0000 0.0000 0.0000 0.0000 11.4530
#
#
#
# Elastic Compliance Matrix: (Units=1/GPa)
#
#
# Indices 1 2 3 4 5 6 
#
# 1 0.014731 -0.010564 -0.006169 0.000000 0.000000 0.000000
# 2 -0.010564 0.042965 0.000047 0.000000 0.000000 0.000000
# 3 -0.006169 0.000047 0.008777 0.000000 0.000000 0.000000
# 4 0.000000 0.000000 0.000000 0.057915 0.000000 0.000000
# 5 0.000000 0.000000 0.000000 0.000000 0.037139 0.000000
# 6 0.000000 0.000000 0.000000 0.000000 0.000000 0.087313
#
#
# Mechanical properties :
#
#
# Convention : Reuss Voigt Hill
#
# Bulk Modulus (GPa) = 30.20995 69.09919 49.65457
# Shear Modulus (GPa) = 17.05054 23.98409 20.51731
#
# Velocity S-wave (km/s) = 2.84499 3.37422 3.12085
# Velocity P-wave (km/s) = 5.01326 6.92692 6.04628
#
# Compressibility (1/GPa) = 0.03310168
#
# Stress axis : x y z
#
# Youngs Moduli (GPa) = 67.88615 23.27452 113.92969
#
# Poissons Ratio (x) = 0.24587 0.70280
# Poissons Ratio (y) = 0.71715 -0.00535
# Poissons Ratio (z) = 0.41877 -0.00109
#
# Static dielectric constant tensor:
#      x y z
#    x 4.070570 0.000000 0.000000 
#    y 0.000000 3.309660 0.000000 
#    z 0.000000 0.000000 3.925910 
# 
# 
# High freq. dielectric constant tensor:
#      x y z
#    x 1.841300 0.000000 0.000000 
#    y 0.000000 1.775710 0.000000 
#    z 0.000000 0.000000 1.826010 
# 
# From -- ./inp_files/13529.got.cif
#   From: 2010.03.12/outbox.cif.g09.slc.cpg/sg67_7_cif.got.tgz:13529.got - 2010.04.10 22:41:39.
