data_PCOD8278197
_publ_section_title
;
Structure prediction by ZEFSAII (Michael W. Deem and Ramdas Pophale) SiO2 
 PCOD8278197
Probable space group: C M M A
;
_chemical_formula_sum "Si O2"
_cell_formula_units_Z 96
_cell_length_a 26.750090
_cell_length_b 9.527961
_cell_length_c 22.228661
_cell_angle_alpha 90.000000
_cell_angle_beta 90.000000
_cell_angle_gamma 90.000000
_cell_volume 5665.503615
_symmetry_space_group_name_H-M "C M M A"
_symmetry_group_IT_number 67
_symmetry_cell_setting 'orthorhombic'
loop_
_space_group_symop_operation_xyz
x,y,z
-x,1/2-y,z
x,-y,-z
-x,1/2+y,-z
-x,-y,-z
x,1/2+y,-z
-x,y,z
x,1/2-y,z
1/2+x,1/2+y,z
1/2-x,-y,z
1/2+x,1/2-y,-z
1/2-x,y,-z
1/2-x,1/2-y,-z
1/2+x,y,-z
1/2-x,1/2+y,z
1/2+x,-y,z
loop_
_atom_site_type_symbol
_atom_site_label
_atom_site_fract_x
_atom_site_fract_y
_atom_site_fract_z
Si Si1 0.347053 0.581387 0.061547
Si Si2 0.555374 0.589345 0.131984
Si Si3 0.058728 0.250000 0.544793
Si Si4 0.297612 0.917189 0.831568
Si Si5 0.058878 0.465766 0.643191
Si Si6 0.058891 0.250000 0.411967
Si Si7 0.100755 0.905631 0.229949
O O1 0.335860 0.750000 0.057126
O O2 0.404429 0.552583 0.080780
O O3 0.310717 0.502981 0.107873
O O4 0.337806 0.500000 0.000000
O O5 0.500000 0.553764 0.106897
O O6 0.559970 0.750000 0.150934
O O7 0.564287 0.507277 0.193758
O O8 0.074968 0.384648 0.583000
O O9 0.084211 0.250000 0.478560
O O10 0.000000 0.250000 0.535150
O O11 0.287937 0.750000 0.843795
O O12 0.341287 0.939657 0.782843
O O13 0.250000 0.000000 0.804524
O O14 0.075596 0.622146 0.629188
O O15 0.090822 0.413866 0.699347
O O16 0.000000 0.446012 0.657100
O O17 0.000000 0.250000 0.422017
O O18 0.088751 0.750000 0.206424
#
# Coordination Sequence:
#
# PCOD8278197 Si02
#       7
#    16  16   8  16  16   8  16
#     4  10  20  35  54  77 103 131 164 199 238 287
#     4   9  19  33  49  70 100 136 169 204 240 276
#     4   9  16  28  44  62  95 137 172 203 237 275
#     4  10  21  38  57  76  98 123 154 200 255 303
#     4  10  18  28  44  68  99 135 170 202 236 278
#     4   9  18  28  40  64  97 137 174 203 235 273
#     4  10  20  33  49  71  98 127 164 205 246 295
#
# _framework density 16.944654
#
# number of rings (size 3 to 8) (size 9 to 14) (size 15 to 20)
#    0.000    2.333    0.833    2.000    1.167    5.000 
#    0.000    1.667    0.000    0.000    0.000    0.000 
#    0.000    4.000    0.000    0.000    0.000    0.000 
#
# Total GULP energy -594919.428398 kJ/mol
# GULP energy per Si atom -12394.154758 kJ/mol
# Density = 1.690609 g / cm^3
# Si number density = 16.944654 Si / 1000 Ang^3
#
#
#
# Elastic Constant Matrix: (Units=GPa)
#
#
# Indices 1 2 3 4 5 6 
#
# 1 66.2814 34.6651 26.0566 0.0000 0.0000 0.0000
# 2 34.6651 103.2105 21.5037 0.0000 0.0000 0.0000
# 3 26.0566 21.5037 72.2596 0.0000 0.0000 0.0000
# 4 0.0000 0.0000 0.0000 36.8732 0.0000 0.0000
# 5 0.0000 0.0000 0.0000 0.0000 14.2244 0.0000
# 6 0.0000 0.0000 0.0000 0.0000 0.0000 22.4389
#
#
#
# Elastic Compliance Matrix: (Units=1/GPa)
#
#
# Indices 1 2 3 4 5 6 
#
# 1 0.020241 -0.005626 -0.005624 0.000000 0.000000 0.000000
# 2 -0.005626 0.011893 -0.001510 0.000000 0.000000 0.000000
# 3 -0.005624 -0.001510 0.016317 0.000000 0.000000 0.000000
# 4 0.000000 0.000000 0.000000 0.027120 0.000000 0.000000
# 5 0.000000 0.000000 0.000000 0.000000 0.070302 0.000000
# 6 0.000000 0.000000 0.000000 0.000000 0.000000 0.044565
#
#
# Mechanical properties :
#
#
# Convention : Reuss Voigt Hill
#
# Bulk Modulus (GPa) = 43.61432 45.13357 44.37395
# Shear Modulus (GPa) = 22.36104 25.34239 23.85172
#
# Velocity S-wave (km/s) = 3.63664 3.87149 3.75590
# Velocity P-wave (km/s) = 6.59005 6.83215 6.71219
#
# Compressibility (1/GPa) = 0.02292825
#
# Stress axis : x y z
#
# Youngs Moduli (GPa) = 49.40498 84.08040 61.28710
#
# Poissons Ratio (x) = 0.47307 0.34471
# Poissons Ratio (y) = 0.27797 0.09257
# Poissons Ratio (z) = 0.27788 0.12700
#
# Static dielectric constant tensor:
#      x y z
#    x 3.044070 0.000000 0.000000 
#    y 0.000000 3.601250 0.000000 
#    z 0.000000 0.000000 3.068710 
# 
# 
# High freq. dielectric constant tensor:
#      x y z
#    x 1.618810 0.000000 0.000000 
#    y 0.000000 1.675810 0.000000 
#    z 0.000000 0.000000 1.645290 
# 
# From -- ./inp_files/42715.got.cif
#   From: 2010.03.12/outbox.cif.g09.slc.cpg/sg67_22_cif.got.tgz:42715.got - 2010.04.10 22:41:39.
