data_PCOD8278498
_publ_section_title
;
Structure prediction by ZEFSAII (Michael W. Deem and Ramdas Pophale) SiO2 
 PCOD8278498
Probable space group: C M M A
;
_chemical_formula_sum "Si O2"
_cell_formula_units_Z 72
_cell_length_a 15.511754
_cell_length_b 8.653596
_cell_length_c 25.311681
_cell_angle_alpha 90.000000
_cell_angle_beta 90.000000
_cell_angle_gamma 90.000000
_cell_volume 3397.649014
_symmetry_space_group_name_H-M "C M M A"
_symmetry_group_IT_number 67
_symmetry_cell_setting 'orthorhombic'
loop_
_space_group_symop_operation_xyz
x,y,z
-x,1/2-y,z
x,-y,-z
-x,1/2+y,-z
-x,-y,-z
x,1/2+y,-z
-x,y,z
x,1/2-y,z
1/2+x,1/2+y,z
1/2-x,-y,z
1/2+x,1/2-y,-z
1/2-x,y,-z
1/2-x,1/2-y,-z
1/2+x,y,-z
1/2-x,1/2+y,z
1/2+x,-y,z
loop_
_atom_site_type_symbol
_atom_site_label
_atom_site_fract_x
_atom_site_fract_y
_atom_site_fract_z
Si Si1 0.844288 0.931631 0.654471
Si Si2 0.845418 0.066577 0.759736
Si Si3 0.401157 0.580800 0.550891
Si Si4 0.845101 0.933258 0.868182
Si Si5 0.000000 0.932121 0.942194
O O1 0.840370 0.750000 0.663133
O O2 0.750000 0.000000 0.646619
O O3 0.891687 0.007489 0.706021
O O4 0.896549 0.972664 0.602140
O O5 0.846992 0.250000 0.762492
O O6 0.750000 0.000000 0.756209
O O7 0.885589 0.997927 0.813393
O O8 0.355978 0.500000 0.500000
O O9 0.500000 0.606847 0.536827
O O10 0.358015 0.750000 0.560884
O O11 0.837206 0.750000 0.864331
O O12 0.912707 0.987229 0.912817
O O13 0.750000 0.000000 0.880760
O O14 0.000000 0.750000 0.945688
O O15 0.000000 0.000000 0.000000
#
# Coordination Sequence:
#
# PCOD8278498 Si02
#       5
#    16  16  16  16   8
#     4  11  21  35  56  82 112 145 183 231 284 339
#     4  10  18  32  55  83 113 148 185 230 283 341
#     4  10  21  38  57  77 105 141 183 230 281 341
#     4  10  20  38  61  88 119 159 200 245 297 355
#     4  10  24  42  62  88 124 160 201 248 295 346
#
# _framework density 21.191125
#
# number of rings (size 3 to 8) (size 9 to 14) (size 15 to 20)
#    0.000    1.778    0.000    8.000    0.000    4.000 
#    2.000    4.444    0.000    0.000    0.000    0.000 
#    0.000    0.000    0.000    0.000    0.000    0.000 
#
# Total GULP energy -446223.615300 kJ/mol
# GULP energy per Si atom -12395.100425 kJ/mol
# Density = 2.114289 g / cm^3
# Si number density = 21.191125 Si / 1000 Ang^3
#
#
#
# Elastic Constant Matrix: (Units=GPa)
#
#
# Indices 1 2 3 4 5 6 
#
# 1 62.3262 32.7820 50.9783 0.0000 0.0000 0.0000
# 2 32.7820 152.0046 62.8505 0.0000 0.0000 0.0000
# 3 50.9783 62.8505 209.3438 0.0000 0.0000 0.0000
# 4 0.0000 0.0000 0.0000 42.0666 0.0000 0.0000
# 5 0.0000 0.0000 0.0000 0.0000 28.5671 0.0000
# 6 0.0000 0.0000 0.0000 0.0000 0.0000 21.1894
#
#
#
# Elastic Compliance Matrix: (Units=1/GPa)
#
#
# Indices 1 2 3 4 5 6 
#
# 1 0.021000 -0.002757 -0.004286 0.000000 0.000000 0.000000
# 2 -0.002757 0.007873 -0.001692 0.000000 0.000000 0.000000
# 3 -0.004286 -0.001692 0.006329 0.000000 0.000000 0.000000
# 4 0.000000 0.000000 0.000000 0.023772 0.000000 0.000000
# 5 0.000000 0.000000 0.000000 0.000000 0.035005 0.000000
# 6 0.000000 0.000000 0.000000 0.000000 0.000000 0.047193
#
#
# Mechanical properties :
#
#
# Convention : Reuss Voigt Hill
#
# Bulk Modulus (GPa) = 56.39721 79.65512 68.02616
# Shear Modulus (GPa) = 30.38514 36.83553 33.61034
#
# Velocity S-wave (km/s) = 3.79074 4.17376 3.98685
# Velocity P-wave (km/s) = 6.76986 7.80369 7.30509
#
# Compressibility (1/GPa) = 0.01773137
#
# Stress axis : x y z
#
# Youngs Moduli (GPa) = 47.61797 127.01562 158.01043
#
# Poissons Ratio (x) = 0.35015 0.67727
# Poissons Ratio (y) = 0.13127 0.26741
# Poissons Ratio (z) = 0.20410 0.21496
#
# Static dielectric constant tensor:
#      x y z
#    x 3.598620 0.000000 0.000000 
#    y 0.000000 4.032390 0.000000 
#    z 0.000000 0.000000 4.196470 
# 
# 
# High freq. dielectric constant tensor:
#      x y z
#    x 1.796960 0.000000 0.000000 
#    y 0.000000 1.846650 0.000000 
#    z 0.000000 0.000000 1.846760 
# 
# From -- ./inp_files/40531.got.cif
#   From: 2010.03.12/outbox.cif.g09.slc.cpg/sg67_21_cif.got.tgz:40531.got - 2010.04.10 22:41:39.
