data_PCOD8278601
_publ_section_title
;
Structure prediction by ZEFSAII (Michael W. Deem and Ramdas Pophale) SiO2 
 PCOD8278601
Probable space group: C M M A
;
_chemical_formula_sum "Si O2"
_cell_formula_units_Z 104
_cell_length_a 8.835899
_cell_length_b 25.545462
_cell_length_c 27.653371
_cell_angle_alpha 90.000000
_cell_angle_beta 90.000000
_cell_angle_gamma 90.000000
_cell_volume 6241.839320
_symmetry_space_group_name_H-M "C M M A"
_symmetry_group_IT_number 67
_symmetry_cell_setting 'orthorhombic'
loop_
_space_group_symop_operation_xyz
x,y,z
-x,1/2-y,z
x,-y,-z
-x,1/2+y,-z
-x,-y,-z
x,1/2+y,-z
-x,y,z
x,1/2-y,z
1/2+x,1/2+y,z
1/2-x,-y,z
1/2+x,1/2-y,-z
1/2-x,y,-z
1/2-x,1/2-y,-z
1/2+x,y,-z
1/2-x,1/2+y,z
1/2+x,-y,z
loop_
_atom_site_type_symbol
_atom_site_label
_atom_site_fract_x
_atom_site_fract_y
_atom_site_fract_z
Si Si1 0.667030 0.308381 0.221382
Si Si2 0.323219 0.056935 0.453959
Si Si3 0.673766 0.659319 0.885612
Si Si4 0.675450 0.055667 0.348778
Si Si5 0.819042 0.250000 0.052750
Si Si6 0.180393 0.444341 0.153777
Si Si7 0.327529 0.598180 0.257015
O O1 0.500000 0.330043 0.236200
O O2 0.687858 0.250000 0.240625
O O3 0.680917 0.308961 0.163937
O O4 0.802062 0.341279 0.244640
O O5 0.500000 0.052161 0.463367
O O6 0.250000 0.088140 0.500000
O O7 0.288905 0.082856 0.401248
O O8 0.250000 0.000000 0.452423
O O9 0.500000 0.651360 0.902730
O O10 0.763062 0.695907 0.922954
O O11 0.750681 0.601887 0.879500
O O12 0.500000 0.045974 0.343440
O O13 0.729756 0.090225 0.304620
O O14 0.750000 0.000000 0.344127
O O15 0.000000 0.250000 0.051973
O O16 0.750000 0.250000 0.000000
O O17 0.250000 0.500000 0.137390
O O18 0.225038 0.435558 0.210336
O O19 0.000000 0.444602 0.147273
O O20 0.500000 0.586669 0.269571
#
# Coordination Sequence:
#
# PCOD8278601 Si02
#       7
#    16  16  16  16   8  16  16
#     4   9  17  31  50  70  95 127 158 192 236 285
#     4   9  16  25  38  55  75 104 143 185 230 277
#     4  10  19  35  56  79 105 135 169 207 251 297
#     4  10  19  29  41  58  84 118 153 191 233 279
#     4  12  24  38  58  84 112 138 168 210 253 298
#     4  10  20  33  49  74 103 137 175 210 246 290
#     4  10  20  30  43  66  94 126 162 198 237 281
#
# _framework density 16.661756
#
# number of rings (size 3 to 8) (size 9 to 14) (size 15 to 20)
#    0.000    2.154    0.769    3.923    0.000    5.846 
#    0.000    0.000    0.000    0.462    0.000    3.231 
#    0.000    0.615    0.000    2.000    0.000    2.769 
#
# Total GULP energy -644345.204708 kJ/mol
# GULP energy per Si atom -12391.253937 kJ/mol
# Density = 1.662383 g / cm^3
# Si number density = 16.661756 Si / 1000 Ang^3
#
#
#
# Elastic Constant Matrix: (Units=GPa)
#
#
# Indices 1 2 3 4 5 6 
#
# 1 100.5365 41.5588 52.8420 0.0000 0.0000 0.0000
# 2 41.5588 89.9315 43.3453 0.0000 0.0000 0.0000
# 3 52.8420 43.3453 101.9538 0.0000 0.0000 0.0000
# 4 0.0000 0.0000 0.0000 29.3314 0.0000 0.0000
# 5 0.0000 0.0000 0.0000 0.0000 28.3245 0.0000
# 6 0.0000 0.0000 0.0000 0.0000 0.0000 27.4064
#
#
#
# Elastic Compliance Matrix: (Units=1/GPa)
#
#
# Indices 1 2 3 4 5 6 
#
# 1 0.014695 -0.003924 -0.005948 0.000000 0.000000 0.000000
# 2 -0.003924 0.015033 -0.004358 0.000000 0.000000 0.000000
# 3 -0.005948 -0.004358 0.014744 0.000000 0.000000 0.000000
# 4 0.000000 0.000000 0.000000 0.034093 0.000000 0.000000
# 5 0.000000 0.000000 0.000000 0.000000 0.035305 0.000000
# 6 0.000000 0.000000 0.000000 0.000000 0.000000 0.036488
#
#
# Mechanical properties :
#
#
# Convention : Reuss Voigt Hill
#
# Bulk Modulus (GPa) = 62.44984 63.10153 62.77568
# Shear Modulus (GPa) = 27.15108 27.32417 27.23762
#
# Velocity S-wave (km/s) = 4.04114 4.05400 4.04758
# Velocity P-wave (km/s) = 7.70303 7.73741 7.72024
#
# Compressibility (1/GPa) = 0.01601285
#
# Stress axis : x y z
#
# Youngs Moduli (GPa) = 68.05047 66.51974 67.82513
#
# Poissons Ratio (x) = 0.26102 0.40343
# Poissons Ratio (y) = 0.26703 0.29555
# Poissons Ratio (z) = 0.40477 0.28986
#
# Static dielectric constant tensor:
#      x y z
#    x 3.127420 0.000000 0.000000 
#    y 0.000000 2.875120 0.000000 
#    z 0.000000 0.000000 3.487360 
# 
# 
# High freq. dielectric constant tensor:
#      x y z
#    x 1.660050 0.000000 0.000000 
#    y 0.000000 1.608390 0.000000 
#    z 0.000000 0.000000 1.632710 
# 
# From -- ./inp_files/42752.got.cif
#   From: 2010.03.12/outbox.cif.g09.slc.cpg/sg67_22_cif.got.tgz:42752.got - 2010.04.10 22:41:39.
