data_PCOD8278356
_publ_section_title
;
Structure prediction by ZEFSAII (Michael W. Deem and Ramdas Pophale) SiO2 
 PCOD8278356
Probable space group: C M M A
;
_chemical_formula_sum "Si O2"
_cell_formula_units_Z 56
_cell_length_a 10.514189
_cell_length_b 30.242919
_cell_length_c 8.874505
_cell_angle_alpha 90.000000
_cell_angle_beta 90.000000
_cell_angle_gamma 90.000000
_cell_volume 2821.913026
_symmetry_space_group_name_H-M "C M M A"
_symmetry_group_IT_number 67
_symmetry_cell_setting 'orthorhombic'
loop_
_space_group_symop_operation_xyz
x,y,z
-x,1/2-y,z
x,-y,-z
-x,1/2+y,-z
-x,-y,-z
x,1/2+y,-z
-x,y,z
x,1/2-y,z
1/2+x,1/2+y,z
1/2-x,-y,z
1/2+x,1/2-y,-z
1/2-x,y,-z
1/2-x,1/2-y,-z
1/2+x,y,-z
1/2-x,1/2+y,z
1/2+x,-y,z
loop_
_atom_site_type_symbol
_atom_site_label
_atom_site_fract_x
_atom_site_fract_y
_atom_site_fract_z
Si Si1 0.250000 0.500000 0.500000
Si Si2 0.500000 0.799451 0.824303
Si Si3 0.750000 0.500000 0.000000
Si Si4 0.251198 0.350129 0.179545
Si Si5 0.000000 0.699796 0.817041
Si Si6 0.142749 0.059847 0.750211
O O1 0.160699 0.530683 0.398413
O O2 0.500000 0.750000 0.759887
O O3 0.626632 0.822972 0.763452
O O4 0.500000 0.798976 0.003947
O O5 0.840384 0.469965 0.897764
O O6 0.124690 0.326150 0.241427
O O7 0.258168 0.399389 0.248460
O O8 0.250000 0.353508 0.000000
O O9 0.000000 0.750000 0.753630
O O10 0.000000 0.078972 0.753457
#
# Coordination Sequence:
#
# PCOD8278356 Si02
#       6
#     4   8   4  16   8  16
#     4  10  26  42  56  80 114 156 200 242 298 340
#     4   9  16  28  48  78 115 151 183 229 289 345
#     4  10  22  34  60  88 114 148 184 250 306 344
#     4  10  18  30  53  82 115 150 189 236 283 344
#     4   9  18  30  46  80 123 153 177 221 291 353
#     4  11  21  40  58  85 115 152 197 244 291 350
#
# _framework density 19.844695000000002
#
# number of rings (size 3 to 8) (size 9 to 14) (size 15 to 20)
#    0.000    2.000    2.857    1.714    0.000    3.429 
#   12.857    0.000    0.000    0.000    0.000    6.000 
#    0.000    0.000    0.000    0.000    0.000    0.000 
#
# Total GULP energy -347232.244650 kJ/mol
# GULP energy per Si atom -12401.151595 kJ/mol
# Density = 1.979953 g / cm^3
# Si number density = 19.844695 Si / 1000 Ang^3
#
#
#
# Elastic Constant Matrix: (Units=GPa)
#
#
# Indices 1 2 3 4 5 6 
#
# 1 166.2551 80.1572 25.2296 0.0000 0.0000 0.0000
# 2 80.1572 173.8231 36.1647 0.0000 0.0000 0.0000
# 3 25.2296 36.1647 59.7436 0.0000 0.0000 0.0000
# 4 0.0000 0.0000 0.0000 -32.9299 0.0000 0.0000
# 5 0.0000 0.0000 0.0000 0.0000 6.1539 0.0000
# 6 0.0000 0.0000 0.0000 0.0000 0.0000 41.1625
#
#
#
# Elastic Compliance Matrix: (Units=1/GPa)
#
#
# Indices 1 2 3 4 5 6 
#
# 1 0.007819 -0.003339 -0.001281 0.000000 0.000000 0.000000
# 2 -0.003339 0.008008 -0.003437 0.000000 0.000000 0.000000
# 3 -0.001281 -0.003437 0.019360 0.000000 0.000000 0.000000
# 4 0.000000 0.000000 0.000000 -0.030368 0.000000 0.000000
# 5 0.000000 0.000000 0.000000 0.000000 0.162499 0.000000
# 6 0.000000 0.000000 0.000000 0.000000 0.000000 0.024294
#
#
# Mechanical properties :
#
#
# Convention : Reuss Voigt Hill
#
# Bulk Modulus (GPa) = 52.43184 75.88054 64.15619
# Shear Modulus (GPa) = 23.35532 20.09532 21.72532
#
# Velocity S-wave (km/s) = 3.43433 3.18564 3.31232
# Velocity P-wave (km/s) = 6.49650 7.20078 6.85769
#
# Compressibility (1/GPa) = 0.01907238
#
# Stress axis : x y z
#
# Youngs Moduli (GPa) = 127.89040 124.87464 51.65366
#
# Poissons Ratio (x) = 0.41700 0.06615
# Poissons Ratio (y) = 0.42707 0.17755
# Poissons Ratio (z) = 0.16378 0.42923
#
# Static dielectric constant tensor:
#      x y z
#    x 3.594060 0.000000 0.000000 
#    y 0.000000 3.776900 0.000000 
#    z 0.000000 0.000000 3.143080 
# 
# 
# High freq. dielectric constant tensor:
#      x y z
#    x 1.778380 0.000000 0.000000 
#    y 0.000000 1.792190 0.000000 
#    z 0.000000 0.000000 1.720360 
# 
# From -- ./inp_files/6691.got.cif
#   From: 2010.03.12/outbox.cif.g09.slc.cpg/sg67_4_cif.got.tgz:6691.got - 2010.04.10 22:41:39.
