data_PCOD8278238
_publ_section_title
;
Structure prediction by ZEFSAII (Michael W. Deem and Ramdas Pophale) SiO2 
 PCOD8278238
Probable space group: C M M A
;
_chemical_formula_sum "Si O2"
_cell_formula_units_Z 72
_cell_length_a 25.450932
_cell_length_b 15.345042
_cell_length_c 10.900621
_cell_angle_alpha 90.000000
_cell_angle_beta 90.000000
_cell_angle_gamma 90.000000
_cell_volume 4257.189792
_symmetry_space_group_name_H-M "C M M A"
_symmetry_group_IT_number 67
_symmetry_cell_setting 'orthorhombic'
loop_
_space_group_symop_operation_xyz
x,y,z
-x,1/2-y,z
x,-y,-z
-x,1/2+y,-z
-x,-y,-z
x,1/2+y,-z
-x,y,z
x,1/2-y,z
1/2+x,1/2+y,z
1/2-x,-y,z
1/2+x,1/2-y,-z
1/2-x,y,-z
1/2-x,1/2-y,-z
1/2+x,y,-z
1/2-x,1/2+y,z
1/2+x,-y,z
loop_
_atom_site_type_symbol
_atom_site_label
_atom_site_fract_x
_atom_site_fract_y
_atom_site_fract_z
Si Si1 0.938965 0.750000 0.620615
Si Si2 0.354906 0.250000 0.824425
Si Si3 0.193057 0.750000 0.067775
Si Si4 0.697387 0.907822 0.298501
Si Si5 0.117265 0.096534 0.509541
Si Si6 0.814093 0.600081 0.263825
O O1 0.910672 0.750000 0.753826
O O2 0.924716 0.665566 0.540112
O O3 0.000000 0.750000 0.649864
O O4 0.321846 0.334289 0.791957
O O5 0.356122 0.250000 0.972228
O O6 0.184739 0.837175 0.146977
O O7 0.250000 0.750000 0.000000
O O8 0.669485 0.903417 0.428792
O O9 0.758038 0.890350 0.330925
O O10 0.683630 0.997914 0.227260
O O11 0.137052 0.122388 0.645848
O O12 0.091319 0.000000 0.500000
#
# Coordination Sequence:
#
# PCOD8278238 Si02
#       6
#     8   8   8  16  16  16
#     4  10  21  36  56  73  92 129 175 220 270 308
#     4  10  20  35  45  68 101 132 176 210 237 294
#     4  12  21  31  44  70 106 143 177 199 233 288
#     4   9  17  30  48  73 104 139 165 192 242 307
#     4   9  18  32  52  78 104 127 161 210 262 308
#     4  10  18  29  48  74 106 137 165 195 244 300
#
# _framework density 16.912565000000001
#
# number of rings (size 3 to 8) (size 9 to 14) (size 15 to 20)
#    0.000    2.222    2.222    1.333    0.000    4.000 
#    0.000    4.444    0.000    2.667    0.000   14.000 
#    0.000    0.000    0.000    0.000    0.000    0.000 
#
# Total GULP energy -446105.175022 kJ/mol
# GULP energy per Si atom -12391.810417 kJ/mol
# Density = 1.687407 g / cm^3
# Si number density = 16.912565 Si / 1000 Ang^3
#
#
#
# Elastic Constant Matrix: (Units=GPa)
#
#
# Indices 1 2 3 4 5 6 
#
# 1 81.5966 43.0553 33.4406 0.0000 0.0000 0.0000
# 2 43.0553 124.4629 54.0075 0.0000 0.0000 0.0000
# 3 33.4406 54.0075 96.3148 0.0000 0.0000 0.0000
# 4 0.0000 0.0000 0.0000 34.7668 0.0000 0.0000
# 5 0.0000 0.0000 0.0000 0.0000 10.9224 0.0000
# 6 0.0000 0.0000 0.0000 0.0000 0.0000 10.1389
#
#
#
# Elastic Compliance Matrix: (Units=1/GPa)
#
#
# Indices 1 2 3 4 5 6 
#
# 1 0.015695 -0.004050 -0.003178 0.000000 0.000000 0.000000
# 2 -0.004050 0.011663 -0.005134 0.000000 0.000000 0.000000
# 3 -0.003178 -0.005134 0.014365 0.000000 0.000000 0.000000
# 4 0.000000 0.000000 0.000000 0.028763 0.000000 0.000000
# 5 0.000000 0.000000 0.000000 0.000000 0.091555 0.000000
# 6 0.000000 0.000000 0.000000 0.000000 0.000000 0.098630
#
#
# Mechanical properties :
#
#
# Convention : Reuss Voigt Hill
#
# Bulk Modulus (GPa) = 58.82824 62.59790 60.71307
# Shear Modulus (GPa) = 17.17845 22.62367 19.90106
#
# Velocity S-wave (km/s) = 3.19050 3.66140 3.43403
# Velocity P-wave (km/s) = 6.95928 7.41401 7.19024
#
# Compressibility (1/GPa) = 0.01699864
#
# Stress axis : x y z
#
# Youngs Moduli (GPa) = 63.71411 85.73884 69.61443
#
# Poissons Ratio (x) = 0.34727 0.22125
# Poissons Ratio (y) = 0.25806 0.35739
# Poissons Ratio (z) = 0.20250 0.44017
#
# Static dielectric constant tensor:
#      x y z
#    x 2.766590 0.000000 0.000000 
#    y 0.000000 3.762180 0.000000 
#    z 0.000000 0.000000 3.127430 
# 
# 
# High freq. dielectric constant tensor:
#      x y z
#    x 1.607460 0.000000 0.000000 
#    y 0.000000 1.677560 0.000000 
#    z 0.000000 0.000000 1.638190 
# 
# From -- ./inp_files/12248.got.cif
#   From: 2010.03.12/outbox.cif.g09.slc.cpg/sg67_7_cif.got.tgz:12248.got - 2010.04.10 22:41:39.
