data_PCOD8278333
_publ_section_title
;
Structure prediction by ZEFSAII (Michael W. Deem and Ramdas Pophale) SiO2 
 PCOD8278333
Probable space group: C M M A
;
_chemical_formula_sum "Si O2"
_cell_formula_units_Z 80
_cell_length_a 18.383029
_cell_length_b 25.008689
_cell_length_c 9.820211
_cell_angle_alpha 90.000000
_cell_angle_beta 90.000000
_cell_angle_gamma 90.000000
_cell_volume 4514.699174
_symmetry_space_group_name_H-M "C M M A"
_symmetry_group_IT_number 67
_symmetry_cell_setting 'orthorhombic'
loop_
_space_group_symop_operation_xyz
x,y,z
-x,1/2-y,z
x,-y,-z
-x,1/2+y,-z
-x,-y,-z
x,1/2+y,-z
-x,y,z
x,1/2-y,z
1/2+x,1/2+y,z
1/2-x,-y,z
1/2+x,1/2-y,-z
1/2-x,y,-z
1/2-x,1/2-y,-z
1/2+x,y,-z
1/2-x,1/2+y,z
1/2+x,-y,z
loop_
_atom_site_type_symbol
_atom_site_label
_atom_site_fract_x
_atom_site_fract_y
_atom_site_fract_z
Si Si1 0.221538 0.250000 0.706635
Si Si2 0.420464 0.937590 0.528661
Si Si3 0.631115 0.750000 0.456745
Si Si4 0.774040 0.351781 0.152829
Si Si5 0.082352 0.351364 0.306543
Si Si6 0.724760 0.439638 0.351908
O O1 0.290445 0.250000 0.610222
O O2 0.146512 0.250000 0.619653
O O3 0.224299 0.197487 0.799788
O O4 0.500000 0.918343 0.579319
O O5 0.399459 0.905648 0.390044
O O6 0.362322 0.929988 0.649269
O O7 0.420509 0.000000 0.500000
O O8 0.587020 0.802608 0.413797
O O9 0.860717 0.342044 0.181225
O O10 0.757308 0.405339 0.232760
O O11 0.750000 0.362857 0.000000
O O12 0.000000 0.353501 0.246979
O O13 0.750000 0.500000 0.327919
O O14 0.750000 0.419185 0.500000
#
# Coordination Sequence:
#
# PCOD8278333 Si02
#       6
#     8  16   8  16  16  16
#     4   9  19  32  53  76 106 132 172 220 259 301
#     4  10  18  30  51  79 105 132 168 218 274 316
#     4   9  17  30  53  80  98 131 168 218 262 304
#     4  11  22  35  53  78 108 145 183 215 261 323
#     4  10  19  32  51  76 106 136 174 217 266 318
#     4  11  19  34  55  79 107 136 178 228 269 311
#
# _framework density 17.719895999999999
#
# number of rings (size 3 to 8) (size 9 to 14) (size 15 to 20)
#    0.000    1.800    4.000    1.800    2.800    0.400 
#    0.000    1.000    0.000    2.400    0.000    7.000 
#    0.000    0.000    0.000    0.000    0.000    0.000 
#
# Total GULP energy -495704.542764 kJ/mol
# GULP energy per Si atom -12392.613569 kJ/mol
# Density = 1.767956 g / cm^3
# Si number density = 17.719896 Si / 1000 Ang^3
#
#
#
# Elastic Constant Matrix: (Units=GPa)
#
#
# Indices 1 2 3 4 5 6 
#
# 1 111.8161 32.1847 46.9296 0.0000 0.0000 0.0000
# 2 32.1847 84.4296 56.2120 0.0000 0.0000 0.0000
# 3 46.9296 56.2120 106.8700 0.0000 0.0000 0.0000
# 4 0.0000 0.0000 0.0000 137.8348 0.0000 0.0000
# 5 0.0000 0.0000 0.0000 0.0000 19.4375 0.0000
# 6 0.0000 0.0000 0.0000 0.0000 0.0000 8.2357
#
#
#
# Elastic Compliance Matrix: (Units=1/GPa)
#
#
# Indices 1 2 3 4 5 6 
#
# 1 0.011089 -0.001516 -0.004072 0.000000 0.000000 0.000000
# 2 -0.001516 0.018435 -0.009031 0.000000 0.000000 0.000000
# 3 -0.004072 -0.009031 0.015895 0.000000 0.000000 0.000000
# 4 0.000000 0.000000 0.000000 0.007255 0.000000 0.000000
# 5 0.000000 0.000000 0.000000 0.000000 0.051447 0.000000
# 6 0.000000 0.000000 0.000000 0.000000 0.000000 0.121422
#
#
# Mechanical properties :
#
#
# Convention : Reuss Voigt Hill
#
# Bulk Modulus (GPa) = 61.79945 63.75204 62.77574
# Shear Modulus (GPa) = 19.21797 44.28756 31.75276
#
# Velocity S-wave (km/s) = 3.29681 5.00474 4.23771
# Velocity P-wave (km/s) = 7.03160 8.33380 7.71024
#
# Compressibility (1/GPa) = 0.01618137
#
# Stress axis : x y z
#
# Youngs Moduli (GPa) = 90.18256 54.24610 62.91197
#
# Poissons Ratio (x) = 0.08223 0.25617
# Poissons Ratio (y) = 0.13671 0.56813
# Poissons Ratio (z) = 0.36722 0.48987
#
# Static dielectric constant tensor:
#      x y z
#    x 3.845790 0.000000 0.000000 
#    y 0.000000 3.424000 0.000000 
#    z 0.000000 0.000000 2.983010 
# 
# 
# High freq. dielectric constant tensor:
#      x y z
#    x 1.695650 0.000000 0.000000 
#    y 0.000000 1.702800 0.000000 
#    z 0.000000 0.000000 1.631920 
# 
# From -- ./inp_files/11143.got.cif
#   From: 2010.03.12/outbox.cif.g09.slc.cpg/sg67_6_cif.got.tgz:11143.got - 2010.04.10 22:41:39.
