data_PCOD8278281
_publ_section_title
;
Structure prediction by ZEFSAII (Michael W. Deem and Ramdas Pophale) SiO2 
 PCOD8278281
Probable space group: C M M A
;
_chemical_formula_sum "Si O2"
_cell_formula_units_Z 64
_cell_length_a 8.816306
_cell_length_b 28.326793
_cell_length_c 15.593399
_cell_angle_alpha 90.000000
_cell_angle_beta 90.000000
_cell_angle_gamma 90.000000
_cell_volume 3894.259213
_symmetry_space_group_name_H-M "C M M A"
_symmetry_group_IT_number 67
_symmetry_cell_setting 'orthorhombic'
loop_
_space_group_symop_operation_xyz
x,y,z
-x,1/2-y,z
x,-y,-z
-x,1/2+y,-z
-x,-y,-z
x,1/2+y,-z
-x,y,z
x,1/2-y,z
1/2+x,1/2+y,z
1/2-x,-y,z
1/2+x,1/2-y,-z
1/2-x,y,-z
1/2-x,1/2-y,-z
1/2+x,y,-z
1/2-x,1/2+y,z
1/2+x,-y,z
loop_
_atom_site_type_symbol
_atom_site_label
_atom_site_fract_x
_atom_site_fract_y
_atom_site_fract_z
Si Si1 0.321832 0.803974 0.911242
Si Si2 0.179836 0.374017 0.588328
Si Si3 0.171719 0.952020 0.682584
Si Si4 0.171904 0.643473 0.755972
O O1 0.500000 0.809907 0.918451
O O2 0.274488 0.750000 0.892562
O O3 0.261844 0.836495 0.835769
O O4 0.250000 0.821621 0.000000
O O5 0.250000 0.354676 0.500000
O O6 0.236046 0.428302 0.603224
O O7 0.244559 0.341678 0.666690
O O8 0.000000 0.371054 0.585235
O O9 0.173125 0.914075 0.761099
O O10 0.000000 0.962245 0.652616
O O11 0.250000 0.000000 0.713673
O O12 0.000000 0.662984 0.755520
#
# Coordination Sequence:
#
# PCOD8278281 Si02
#       4
#    16  16  16  16
#     4  10  20  34  55  81 104 127 158 198 247 298
#     4  10  18  30  47  69  99 133 170 209 247 290
#     4   9  18  30  46  70  98 132 170 207 246 289
#     4   9  19  33  49  72 101 132 165 203 248 294
#
# _framework density 16.434448
#
# number of rings (size 3 to 8) (size 9 to 14) (size 15 to 20)
#    1.500    1.000    0.000    3.750    0.000    2.000 
#    0.000    2.500    0.000    1.500    0.000    5.250 
#    0.000    0.000    0.000    0.000    0.000    0.000 
#
# Total GULP energy -396477.423959 kJ/mol
# GULP energy per Si atom -12389.919499 kJ/mol
# Density = 1.639704 g / cm^3
# Si number density = 16.434448 Si / 1000 Ang^3
#
#
#
# Elastic Constant Matrix: (Units=GPa)
#
#
# Indices 1 2 3 4 5 6 
#
# 1 121.3718 21.6503 54.9068 0.0000 0.0000 0.0000
# 2 21.6503 27.4189 43.8502 0.0000 0.0000 0.0000
# 3 54.9068 43.8502 133.2929 0.0000 0.0000 0.0000
# 4 0.0000 0.0000 0.0000 18.4622 0.0000 0.0000
# 5 0.0000 0.0000 0.0000 0.0000 34.7627 0.0000
# 6 0.0000 0.0000 0.0000 0.0000 0.0000 21.7882
#
#
#
# Elastic Compliance Matrix: (Units=1/GPa)
#
#
# Indices 1 2 3 4 5 6 
#
# 1 0.010229 -0.002824 -0.003284 0.000000 0.000000 0.000000
# 2 -0.002824 0.077743 -0.024412 0.000000 0.000000 0.000000
# 3 -0.003284 -0.024412 0.016886 0.000000 0.000000 0.000000
# 4 0.000000 0.000000 0.000000 0.054165 0.000000 0.000000
# 5 0.000000 0.000000 0.000000 0.000000 0.028766 0.000000
# 6 0.000000 0.000000 0.000000 0.000000 0.000000 0.045896
#
#
# Mechanical properties :
#
#
# Convention : Reuss Voigt Hill
#
# Bulk Modulus (GPa) = 22.82253 58.09979 40.46116
# Shear Modulus (GPa) = 16.16386 25.78104 20.97245
#
# Velocity S-wave (km/s) = 3.13954 3.96500 3.57617
# Velocity P-wave (km/s) = 5.20187 7.50938 6.45950
#
# Compressibility (1/GPa) = 0.04381635
#
# Stress axis : x y z
#
# Youngs Moduli (GPa) = 97.76392 12.86295 59.21981
#
# Poissons Ratio (x) = 0.03633 0.19450
# Poissons Ratio (y) = 0.27609 1.44568
# Poissons Ratio (z) = 0.32110 0.31401
#
# Static dielectric constant tensor:
#      x y z
#    x 3.211540 0.000000 0.000000 
#    y 0.000000 2.824620 0.000000 
#    z 0.000000 0.000000 2.932090 
# 
# 
# High freq. dielectric constant tensor:
#      x y z
#    x 1.657420 0.000000 0.000000 
#    y 0.000000 1.597410 0.000000 
#    z 0.000000 0.000000 1.615980 
# 
# From -- ./inp_files/15797.got.cif
#   From: 2010.03.12/outbox.cif.g09.slc.cpg/sg67_8_cif.got.tgz:15797.got - 2010.04.10 22:41:39.
