data_PCOD8278769
_publ_section_title
;
Structure prediction by ZEFSAII (Michael W. Deem and Ramdas Pophale) SiO2 
 PCOD8278769
Probable space group: C M M A
;
_chemical_formula_sum "Si O2"
_cell_formula_units_Z 80
_cell_length_a 25.985382
_cell_length_b 9.629220
_cell_length_c 18.078734
_cell_angle_alpha 90.000000
_cell_angle_beta 90.000000
_cell_angle_gamma 90.000000
_cell_volume 4523.642021
_symmetry_space_group_name_H-M "C M M A"
_symmetry_group_IT_number 67
_symmetry_cell_setting 'orthorhombic'
loop_
_space_group_symop_operation_xyz
x,y,z
-x,1/2-y,z
x,-y,-z
-x,1/2+y,-z
-x,-y,-z
x,1/2+y,-z
-x,y,z
x,1/2-y,z
1/2+x,1/2+y,z
1/2-x,-y,z
1/2+x,1/2-y,-z
1/2-x,y,-z
1/2-x,1/2-y,-z
1/2+x,y,-z
1/2-x,1/2+y,z
1/2+x,-y,z
loop_
_atom_site_type_symbol
_atom_site_label
_atom_site_fract_x
_atom_site_fract_y
_atom_site_fract_z
Si Si1 0.199282 0.916447 0.073308
Si Si2 0.060487 0.750000 0.609635
Si Si3 0.102239 0.903937 0.171319
Si Si4 0.439755 0.250000 0.446631
Si Si5 0.439203 0.535614 0.674635
Si Si6 0.059097 0.401930 0.061874
O O1 0.208865 0.750000 0.058009
O O2 0.159275 0.935337 0.140775
O O3 0.250000 0.000000 0.099519
O O4 0.179747 0.000000 0.000000
O O5 0.086856 0.750000 0.527858
O O6 0.077043 0.621058 0.659299
O O7 0.000000 0.750000 0.596929
O O8 0.085410 0.750000 0.144203
O O9 0.097157 0.909628 0.259660
O O10 0.063866 0.021179 0.140226
O O11 0.500000 0.250000 0.459553
O O12 0.423826 0.384817 0.400112
O O13 0.500000 0.556364 0.693652
O O14 0.086193 0.250000 0.062719
O O15 0.000000 0.379887 0.042400
O O16 0.085757 0.500000 0.000000
#
# Coordination Sequence:
#
# PCOD8278769 Si02
#       6
#    16   8  16   8  16  16
#     4  10  21  38  58  78  98 124 162 207 256 309
#     4   9  18  30  46  70 100 137 180 214 242 285
#     4  11  22  34  50  73 102 132 165 205 254 303
#     4   9  16  30  50  68  96 141 178 208 246 287
#     4  10  19  31  47  72 106 140 173 208 247 290
#     4  10  21  34  48  67  94 132 173 206 237 282
#
# _framework density 17.684866
#
# number of rings (size 3 to 8) (size 9 to 14) (size 15 to 20)
#    0.000    2.000    1.000    3.600    1.400    7.600 
#    0.000    0.000    0.000    0.000    0.000    0.000 
#    0.000    4.800    0.000    0.000    0.000    0.000 
#
# Total GULP energy -495612.487274 kJ/mol
# GULP energy per Si atom -12390.312182 kJ/mol
# Density = 1.764461 g / cm^3
# Si number density = 17.684866 Si / 1000 Ang^3
#
#
#
# Elastic Constant Matrix: (Units=GPa)
#
#
# Indices 1 2 3 4 5 6 
#
# 1 51.6675 28.8150 34.1468 0.0000 0.0000 0.0000
# 2 28.8150 164.1269 39.2267 0.0000 0.0000 0.0000
# 3 34.1468 39.2267 91.2262 0.0000 0.0000 0.0000
# 4 0.0000 0.0000 0.0000 42.6099 0.0000 0.0000
# 5 0.0000 0.0000 0.0000 0.0000 19.6407 0.0000
# 6 0.0000 0.0000 0.0000 0.0000 0.0000 16.9986
#
#
#
# Elastic Compliance Matrix: (Units=1/GPa)
#
#
# Indices 1 2 3 4 5 6 
#
# 1 0.026645 -0.002557 -0.008874 0.000000 0.000000 0.000000
# 2 -0.002557 0.007036 -0.002068 0.000000 0.000000 0.000000
# 3 -0.008874 -0.002068 0.015173 0.000000 0.000000 0.000000
# 4 0.000000 0.000000 0.000000 0.023469 0.000000 0.000000
# 5 0.000000 0.000000 0.000000 0.000000 0.050915 0.000000
# 6 0.000000 0.000000 0.000000 0.000000 0.000000 0.058828
#
#
# Mechanical properties :
#
#
# Convention : Reuss Voigt Hill
#
# Bulk Modulus (GPa) = 45.75548 56.82196 51.28872
# Shear Modulus (GPa) = 23.11065 29.50530 26.30798
#
# Velocity S-wave (km/s) = 3.61890 4.08903 3.86112
# Velocity P-wave (km/s) = 6.58716 7.38198 6.99587
#
# Compressibility (1/GPa) = 0.02185531
#
# Stress axis : x y z
#
# Youngs Moduli (GPa) = 37.52984 142.12378 65.90741
#
# Poissons Ratio (x) = 0.36342 0.58487
# Poissons Ratio (y) = 0.09597 0.13632
# Poissons Ratio (z) = 0.33304 0.29396
#
# Static dielectric constant tensor:
#      x y z
#    x 2.833200 0.000000 0.000000 
#    y 0.000000 3.819860 0.000000 
#    z 0.000000 0.000000 3.269570 
# 
# 
# High freq. dielectric constant tensor:
#      x y z
#    x 1.625150 0.000000 0.000000 
#    y 0.000000 1.713880 0.000000 
#    z 0.000000 0.000000 1.678250 
# 
# From -- ./inp_files/32154.got.cif
#   From: 2010.03.12/outbox.cif.g09.slc.cpg/sg67_17_cif.got.tgz:32154.got - 2010.04.10 22:41:39.
