data_PCOD8278480
_publ_section_title
;
Structure prediction by ZEFSAII (Michael W. Deem and Ramdas Pophale) SiO2 
 PCOD8278480
Probable space group: C M M A
;
_chemical_formula_sum "Si O2"
_cell_formula_units_Z 112
_cell_length_a 19.286420
_cell_length_b 19.077203
_cell_length_c 17.078689
_cell_angle_alpha 90.000000
_cell_angle_beta 90.000000
_cell_angle_gamma 90.000000
_cell_volume 6283.778260
_symmetry_space_group_name_H-M "C M M A"
_symmetry_group_IT_number 67
_symmetry_cell_setting 'orthorhombic'
loop_
_space_group_symop_operation_xyz
x,y,z
-x,1/2-y,z
x,-y,-z
-x,1/2+y,-z
-x,-y,-z
x,1/2+y,-z
-x,y,z
x,1/2-y,z
1/2+x,1/2+y,z
1/2-x,-y,z
1/2+x,1/2-y,-z
1/2-x,y,-z
1/2-x,1/2-y,-z
1/2+x,y,-z
1/2-x,1/2+y,z
1/2+x,-y,z
loop_
_atom_site_type_symbol
_atom_site_label
_atom_site_fract_x
_atom_site_fract_y
_atom_site_fract_z
Si Si1 0.917509 0.909849 0.105944
Si Si2 0.676957 0.920683 0.471703
Si Si3 0.419703 0.173761 0.431840
Si Si4 0.822990 0.539100 0.870526
Si Si5 0.921341 0.405087 0.718235
Si Si6 0.669978 0.670261 0.021020
Si Si7 0.675960 0.469436 0.691838
O O1 0.900951 0.882462 0.193715
O O2 0.879457 0.854821 0.049634
O O3 0.000000 0.913419 0.087606
O O4 0.884445 0.987815 0.100021
O O5 0.750000 0.887395 0.500000
O O6 0.614672 0.880933 0.511337
O O7 0.664341 0.913047 0.377568
O O8 0.673366 0.000000 0.500000
O O9 0.500000 0.170753 0.451852
O O10 0.388262 0.250000 0.448646
O O11 0.407496 0.159412 0.339524
O O12 0.750000 0.500000 0.890940
O O13 0.826389 0.561007 0.779473
O O14 0.836207 0.613749 0.910137
O O15 0.879543 0.469774 0.684268
O O16 0.000000 0.430845 0.717669
O O17 0.647241 0.750000 0.045196
O O18 0.750000 0.671637 0.000000
O O19 0.750000 0.500000 0.671646
#
# Coordination Sequence:
#
# PCOD8278480 Si02
#       7
#    16  16  16  16  16  16  16
#     4  10  21  36  60  88 111 141 186 235 279 328
#     4  11  19  33  54  80 111 140 180 228 271 316
#     4  10  21  35  52  77 112 150 184 221 272 332
#     4  10  20  36  60  81 110 147 186 232 280 323
#     4   9  18  33  53  81 110 137 178 227 279 325
#     4  11  23  38  55  81 114 148 185 222 272 338
#     4  10  18  32  54  81 106 140 181 227 273 322
#
# _framework density 17.823671000000001
#
# number of rings (size 3 to 8) (size 9 to 14) (size 15 to 20)
#    0.000    1.857    4.286    0.429    0.000    3.143 
#    0.000    2.143    0.000    0.000    0.000    0.000 
#    0.000    0.000    0.000    0.000    0.000    0.000 
#
# Total GULP energy -694016.306504 kJ/mol
# GULP energy per Si atom -12393.148330 kJ/mol
# Density = 1.778310 g / cm^3
# Si number density = 17.823671 Si / 1000 Ang^3
#
#
#
# Elastic Constant Matrix: (Units=GPa)
#
#
# Indices 1 2 3 4 5 6 
#
# 1 85.6218 45.7699 48.5886 0.0000 0.0000 0.0000
# 2 45.7699 103.9154 61.0232 0.0000 0.0000 0.0000
# 3 48.5886 61.0232 109.2080 0.0000 0.0000 0.0000
# 4 0.0000 0.0000 0.0000 16.2756 0.0000 0.0000
# 5 0.0000 0.0000 0.0000 0.0000 31.1669 0.0000
# 6 0.0000 0.0000 0.0000 0.0000 0.0000 -69.5891
#
#
#
# Elastic Compliance Matrix: (Units=1/GPa)
#
#
# Indices 1 2 3 4 5 6 
#
# 1 0.016938 -0.004517 -0.005012 0.000000 0.000000 0.000000
# 2 -0.004517 0.015528 -0.006667 0.000000 0.000000 0.000000
# 3 -0.005012 -0.006667 0.015112 0.000000 0.000000 0.000000
# 4 0.000000 0.000000 0.000000 0.061442 0.000000 0.000000
# 5 0.000000 0.000000 0.000000 0.000000 0.032085 0.000000
# 6 0.000000 0.000000 0.000000 0.000000 0.000000 -0.014370
#
#
# Mechanical properties :
#
#
# Convention : Reuss Voigt Hill
#
# Bulk Modulus (GPa) = 65.85019 67.72318 66.78668
# Shear Modulus (GPa) = 30.45264 5.12824 17.79044
#
# Velocity S-wave (km/s) = 4.13795 1.69807 3.16276
# Velocity P-wave (km/s) = 7.73665 6.47482 7.13369
#
# Compressibility (1/GPa) = 0.01518599
#
# Stress axis : x y z
#
# Youngs Moduli (GPa) = 59.03813 64.40015 66.17230
#
# Poissons Ratio (x) = 0.29091 0.33165
# Poissons Ratio (y) = 0.26669 0.44116
# Poissons Ratio (z) = 0.29590 0.42935
#
# Static dielectric constant tensor:
#      x y z
#    x 3.453230 0.000000 0.000000 
#    y 0.000000 3.207770 0.000000 
#    z 0.000000 0.000000 3.615410 
# 
# 
# High freq. dielectric constant tensor:
#      x y z
#    x 1.696600 0.000000 0.000000 
#    y 0.000000 1.661900 0.000000 
#    z 0.000000 0.000000 1.701550 
# 
# From -- ./inp_files/35095.got.cif
#   From: 2010.03.12/outbox.cif.g09.slc.cpg/sg67_18_cif.got.tgz:35095.got - 2010.04.10 22:41:39.
