data_PCOD8278508
_publ_section_title
;
Structure prediction by ZEFSAII (Michael W. Deem and Ramdas Pophale) SiO2 
 PCOD8278508
Probable space group: C M M A
;
_chemical_formula_sum "Si O2"
_cell_formula_units_Z 88
_cell_length_a 8.619007
_cell_length_b 16.244190
_cell_length_c 30.523463
_cell_angle_alpha 90.000000
_cell_angle_beta 90.000000
_cell_angle_gamma 90.000000
_cell_volume 4273.553039
_symmetry_space_group_name_H-M "C M M A"
_symmetry_group_IT_number 67
_symmetry_cell_setting 'orthorhombic'
loop_
_space_group_symop_operation_xyz
x,y,z
-x,1/2-y,z
x,-y,-z
-x,1/2+y,-z
-x,-y,-z
x,1/2+y,-z
-x,y,z
x,1/2-y,z
1/2+x,1/2+y,z
1/2-x,-y,z
1/2+x,1/2-y,-z
1/2-x,y,-z
1/2-x,1/2-y,-z
1/2+x,y,-z
1/2-x,1/2+y,z
1/2+x,-y,z
loop_
_atom_site_type_symbol
_atom_site_label
_atom_site_fract_x
_atom_site_fract_y
_atom_site_fract_z
Si Si1 0.683955 0.590441 0.043439
Si Si2 0.683754 0.591934 0.603745
Si Si3 0.669890 0.655302 0.134997
Si Si4 0.316447 0.250000 0.451846
Si Si5 0.683582 0.409382 0.694879
Si Si6 0.819296 0.089361 0.781599
O O1 0.500000 0.592574 0.041704
O O2 0.750000 0.500000 0.042237
O O3 0.745128 0.628708 0.088845
O O4 0.750000 0.637389 0.000000
O O5 0.500000 0.582739 0.603805
O O6 0.750000 0.500000 0.592340
O O7 0.740170 0.664299 0.570804
O O8 0.741126 0.626332 0.650717
O O9 0.500000 0.612285 0.142952
O O10 0.639095 0.750000 0.131910
O O11 0.788749 0.638955 0.174212
O O12 0.500000 0.250000 0.452789
O O13 0.250000 0.250000 0.500000
O O14 0.500000 0.407605 0.689713
O O15 0.750000 0.500000 0.700960
O O16 0.737580 0.364240 0.739748
O O17 0.000000 0.084027 0.771497
O O18 0.750000 0.000000 0.789558
#
# Coordination Sequence:
#
# PCOD8278508 Si02
#       6
#    16  16  16   8  16  16
#     4  10  20  35  57  81 104 134 174 223 273 326
#     4  10  20  38  61  89 121 159 201 252 304 359
#     4  10  22  39  55  76 110 146 181 225 277 333
#     4  10  24  42  62  88 124 162 204 252 303 358
#     4  10  18  32  56  85 114 149 189 236 286 341
#     4  11  21  35  57  83 111 147 188 232 280 335
#
# _framework density 20.591764999999999
#
# number of rings (size 3 to 8) (size 9 to 14) (size 15 to 20)
#    0.000    1.818    0.000    7.636    0.000    5.455 
#    1.636    1.818    0.000    0.000    0.000    0.000 
#    0.000    0.000    0.000    0.000    0.000    0.000 
#
# Total GULP energy -545203.322905 kJ/mol
# GULP energy per Si atom -12390.984611 kJ/mol
# Density = 2.054490 g / cm^3
# Si number density = 20.591765 Si / 1000 Ang^3
#
#
#
# Elastic Constant Matrix: (Units=GPa)
#
#
# Indices 1 2 3 4 5 6 
#
# 1 91.3889 27.3994 45.6495 0.0000 0.0000 0.0000
# 2 27.3994 76.9595 62.8838 0.0000 0.0000 0.0000
# 3 45.6495 62.8838 200.6996 0.0000 0.0000 0.0000
# 4 0.0000 0.0000 0.0000 -13.0924 0.0000 0.0000
# 5 0.0000 0.0000 0.0000 0.0000 35.3925 0.0000
# 6 0.0000 0.0000 0.0000 0.0000 0.0000 17.8361
#
#
#
# Elastic Compliance Matrix: (Units=1/GPa)
#
#
# Indices 1 2 3 4 5 6 
#
# 1 0.012819 -0.002932 -0.001997 0.000000 0.000000 0.000000
# 2 -0.002932 0.018136 -0.005015 0.000000 0.000000 0.000000
# 3 -0.001997 -0.005015 0.007008 0.000000 0.000000 0.000000
# 4 0.000000 0.000000 0.000000 -0.076380 0.000000 0.000000
# 5 0.000000 0.000000 0.000000 0.000000 0.028255 0.000000
# 6 0.000000 0.000000 0.000000 0.000000 0.000000 0.056066
#
#
# Mechanical properties :
#
#
# Convention : Reuss Voigt Hill
#
# Bulk Modulus (GPa) = 55.32841 71.21259 63.27050
# Shear Modulus (GPa) = 69.62117 23.56826 46.59471
#
# Velocity S-wave (km/s) = 5.82096 3.38679 4.76203
# Velocity P-wave (km/s) = 8.49150 7.06766 7.81209
#
# Compressibility (1/GPa) = 0.01807390
#
# Stress axis : x y z
#
# Youngs Moduli (GPa) = 78.01026 55.13927 142.68887
#
# Poissons Ratio (x) = 0.16167 0.28495
# Poissons Ratio (y) = 0.22873 0.71565
# Poissons Ratio (z) = 0.15578 0.27655
#
# Static dielectric constant tensor:
#      x y z
#    x 3.742400 0.000000 0.000000 
#    y 0.000000 3.499330 0.000000 
#    z 0.000000 0.000000 5.515290 
# 
# 
# High freq. dielectric constant tensor:
#      x y z
#    x 1.810110 0.000000 0.000000 
#    y 0.000000 1.775150 0.000000 
#    z 0.000000 0.000000 1.827660 
# 
# From -- ./inp_files/45196.got.cif
#   From: 2010.03.12/outbox.cif.g09.slc.cpg/sg67_23_cif.got.tgz:45196.got - 2010.04.10 22:41:39.
