data_PCOD8278009
_publ_section_title
;
Structure prediction by ZEFSAII (Michael W. Deem and Ramdas Pophale) SiO2 
 PCOD8278009
Probable space group: C M M A
;
_chemical_formula_sum "Si O2"
_cell_formula_units_Z 96
_cell_length_a 10.227252
_cell_length_b 22.733260
_cell_length_c 24.024229
_cell_angle_alpha 90.000000
_cell_angle_beta 90.000000
_cell_angle_gamma 90.000000
_cell_volume 5585.603904
_symmetry_space_group_name_H-M "C M M A"
_symmetry_group_IT_number 67
_symmetry_cell_setting 'orthorhombic'
loop_
_space_group_symop_operation_xyz
x,y,z
-x,1/2-y,z
x,-y,-z
-x,1/2+y,-z
-x,-y,-z
x,1/2+y,-z
-x,y,z
x,1/2-y,z
1/2+x,1/2+y,z
1/2-x,-y,z
1/2+x,1/2-y,-z
1/2-x,y,-z
1/2-x,1/2-y,-z
1/2+x,y,-z
1/2-x,1/2+y,z
1/2+x,-y,z
loop_
_atom_site_type_symbol
_atom_site_label
_atom_site_fract_x
_atom_site_fract_y
_atom_site_fract_z
Si Si1 0.350341 0.621407 0.956026
Si Si2 0.500000 0.180746 0.445301
Si Si3 0.151001 0.750000 0.073001
Si Si4 0.346711 0.363000 0.255894
Si Si5 0.239467 0.820112 0.369152
Si Si6 0.500000 0.680693 0.431191
Si Si7 0.849372 0.052572 0.843199
Si Si8 0.843704 0.750000 0.193098
O O1 0.500000 0.608837 0.974705
O O2 0.315632 0.690684 0.960016
O O3 0.328247 0.599225 0.893054
O O4 0.250000 0.590566 0.000000
O O5 0.500000 0.250000 0.452121
O O6 0.372072 0.160807 0.412232
O O7 0.500000 0.151978 0.507060
O O8 0.222973 0.750000 0.132441
O O9 0.000000 0.750000 0.088077
O O10 0.500000 0.357091 0.267544
O O11 0.273823 0.361962 0.315073
O O12 0.316550 0.419329 0.217100
O O13 0.290502 0.307108 0.223716
O O14 0.230892 0.750000 0.354654
O O15 0.374322 0.839331 0.396872
O O16 0.500000 0.750000 0.438173
O O17 0.000000 0.030445 0.843894
O O18 0.750000 0.000000 0.853805
O O19 0.000000 0.750000 0.191783
#
# Coordination Sequence:
#
# PCOD8278009 Si02
#       8
#    16   8   8  16  16   8  16   8
#     4  10  20  34  55  80 105 133 165 203 248 300
#     4   9  16  26  42  64  95 139 180 203 227 280
#     4   9  15  29  50  80 106 133 162 197 249 297
#     4  10  17  29  51  76  98 123 170 213 246 296
#     4  10  17  26  44  69  98 135 172 203 240 292
#     4   9  18  28  36  60 107 147 166 193 241 292
#     4  10  22  39  56  74  98 130 168 214 259 296
#     4   9  14  23  49  77  98 123 161 209 248 290
#
# _framework density 17.18704
#
# number of rings (size 3 to 8) (size 9 to 14) (size 15 to 20)
#    0.000    2.333    3.333    0.750    0.000    3.000 
#    1.500    1.667    0.000    0.000    2.167    0.000 
#    0.000    4.000    0.000    0.000    0.000    0.000 
#
# Total GULP energy -594812.689276 kJ/mol
# GULP energy per Si atom -12391.931027 kJ/mol
# Density = 1.714792 g / cm^3
# Si number density = 17.187040 Si / 1000 Ang^3
#
#
#
# Elastic Constant Matrix: (Units=GPa)
#
#
# Indices 1 2 3 4 5 6 
#
# 1 108.2798 31.6221 68.0219 0.0000 0.0000 0.0000
# 2 31.6221 49.1275 16.7472 0.0000 0.0000 0.0000
# 3 68.0219 16.7472 135.1268 0.0000 0.0000 0.0000
# 4 0.0000 0.0000 0.0000 9.5031 0.0000 0.0000
# 5 0.0000 0.0000 0.0000 0.0000 23.4758 0.0000
# 6 0.0000 0.0000 0.0000 0.0000 0.0000 15.4484
#
#
#
# Elastic Compliance Matrix: (Units=1/GPa)
#
#
# Indices 1 2 3 4 5 6 
#
# 1 0.015973 -0.007873 -0.007065 0.000000 0.000000 0.000000
# 2 -0.007873 0.025134 0.000848 0.000000 0.000000 0.000000
# 3 -0.007065 0.000848 0.010852 0.000000 0.000000 0.000000
# 4 0.000000 0.000000 0.000000 0.105229 0.000000 0.000000
# 5 0.000000 0.000000 0.000000 0.000000 0.042597 0.000000
# 6 0.000000 0.000000 0.000000 0.000000 0.000000 0.064732
#
#
# Mechanical properties :
#
#
# Convention : Reuss Voigt Hill
#
# Bulk Modulus (GPa) = 42.05388 58.36849 50.21118
# Shear Modulus (GPa) = 16.63227 21.42833 19.03030
#
# Velocity S-wave (km/s) = 3.11420 3.53480 3.33114
# Velocity P-wave (km/s) = 6.11984 7.11999 6.63877
#
# Compressibility (1/GPa) = 0.02377902
#
# Stress axis : x y z
#
# Youngs Moduli (GPa) = 62.60699 39.78734 92.15144
#
# Poissons Ratio (x) = 0.31324 0.65103
# Poissons Ratio (y) = 0.49290 -0.07816
# Poissons Ratio (z) = 0.44231 -0.03375
#
# Static dielectric constant tensor:
#      x y z
#    x 3.161310 0.000000 0.000000 
#    y 0.000000 2.783350 0.000000 
#    z 0.000000 0.000000 3.370020 
# 
# 
# High freq. dielectric constant tensor:
#      x y z
#    x 1.646710 0.000000 0.000000 
#    y 0.000000 1.612480 0.000000 
#    z 0.000000 0.000000 1.680390 
# 
# From -- ./inp_files/41561.got.cif
#   From: 2010.03.12/outbox.cif.g09.slc.cpg/sg67_21_cif.got.tgz:41561.got - 2010.04.10 22:41:39.
