data_PCOD8278012
_publ_section_title
;
Structure prediction by ZEFSAII (Michael W. Deem and Ramdas Pophale) SiO2 
 PCOD8278012
Probable space group: C M M A
;
_chemical_formula_sum "Si O2"
_cell_formula_units_Z 112
_cell_length_a 18.614972
_cell_length_b 22.758228
_cell_length_c 17.509240
_cell_angle_alpha 90.000000
_cell_angle_beta 90.000000
_cell_angle_gamma 90.000000
_cell_volume 7417.680566
_symmetry_space_group_name_H-M "C M M A"
_symmetry_group_IT_number 67
_symmetry_cell_setting 'orthorhombic'
loop_
_space_group_symop_operation_xyz
x,y,z
-x,1/2-y,z
x,-y,-z
-x,1/2+y,-z
-x,-y,-z
x,1/2+y,-z
-x,y,z
x,1/2-y,z
1/2+x,1/2+y,z
1/2-x,-y,z
1/2+x,1/2-y,-z
1/2-x,y,-z
1/2-x,1/2-y,-z
1/2+x,y,-z
1/2-x,1/2+y,z
1/2+x,-y,z
loop_
_atom_site_type_symbol
_atom_site_label
_atom_site_fract_x
_atom_site_fract_y
_atom_site_fract_z
Si Si1 0.084991 0.592006 0.122136
Si Si2 0.328330 0.931142 0.017696
Si Si3 0.329839 0.979346 0.168645
Si Si4 0.084444 0.902374 0.373574
Si Si5 0.329952 0.017315 0.660119
Si Si6 0.414923 0.315201 0.246255
Si Si7 0.420397 0.064838 0.534508
O O1 0.115416 0.533209 0.160524
O O2 0.110602 0.647037 0.173453
O O3 0.000000 0.586426 0.119058
O O4 0.114317 0.602057 0.036053
O O5 0.348478 0.926668 0.108341
O O6 0.250000 0.904173 0.000000
O O7 0.330918 0.000000 0.000000
O O8 0.330956 0.954852 0.254983
O O9 0.250000 0.000000 0.146223
O O10 0.110300 0.845926 0.325375
O O11 0.102566 0.892711 0.463813
O O12 0.000000 0.913868 0.363179
O O13 0.122570 0.959149 0.339057
O O14 0.362499 0.066798 0.603013
O O15 0.250000 0.000000 0.633583
O O16 0.500000 0.310545 0.245804
O O17 0.380566 0.250000 0.242141
O O18 0.500000 0.081829 0.565226
O O19 0.422179 0.000000 0.500000
#
# Coordination Sequence:
#
# PCOD8278012 Si02
#       7
#    16  16  16  16  16  16  16
#     4  10  18  27  43  64  85 112 145 179 212 250
#     4   9  15  27  41  55  83 120 142 165 206 255
#     4  10  17  27  39  60  87 119 148 163 207 255
#     4   9  16  28  42  57  83 117 144 169 212 258
#     4  10  18  24  38  62  89 111 148 169 203 254
#     4   9  17  29  45  65  86 107 138 185 229 255
#     4   8  15  26  38  53  79 114 141 167 207 252
#
# _framework density 15.099059
#
# number of rings (size 3 to 8) (size 9 to 14) (size 15 to 20)
#    0.000    2.714    4.286    1.286    0.000    5.714 
#    0.000    0.000    0.000    0.429    0.000    2.000 
#    0.000    0.000    0.000    7.857    0.000    1.000 
#
# Total GULP energy -693877.357877 kJ/mol
# GULP energy per Si atom -12390.667105 kJ/mol
# Density = 1.506469 g / cm^3
# Si number density = 15.099059 Si / 1000 Ang^3
#
#
#
# Elastic Constant Matrix: (Units=GPa)
#
#
# Indices 1 2 3 4 5 6 
#
# 1 67.5053 20.6822 48.6940 0.0000 0.0000 0.0000
# 2 20.6822 52.3326 39.7064 0.0000 0.0000 0.0000
# 3 48.6940 39.7064 147.1475 0.0000 0.0000 0.0000
# 4 0.0000 0.0000 0.0000 13.5592 0.0000 0.0000
# 5 0.0000 0.0000 0.0000 0.0000 24.0495 0.0000
# 6 0.0000 0.0000 0.0000 0.0000 0.0000 4.9620
#
#
#
# Elastic Compliance Matrix: (Units=1/GPa)
#
#
# Indices 1 2 3 4 5 6 
#
# 1 0.019990 -0.003623 -0.005638 0.000000 0.000000 0.000000
# 2 -0.003623 0.024685 -0.005462 0.000000 0.000000 0.000000
# 3 -0.005638 -0.005462 0.010135 0.000000 0.000000 0.000000
# 4 0.000000 0.000000 0.000000 0.073751 0.000000 0.000000
# 5 0.000000 0.000000 0.000000 0.000000 0.041581 0.000000
# 6 0.000000 0.000000 0.000000 0.000000 0.000000 0.201531
#
#
# Mechanical properties :
#
#
# Convention : Reuss Voigt Hill
#
# Bulk Modulus (GPa) = 39.42408 53.90560 46.66484
# Shear Modulus (GPa) = 12.20785 19.04101 15.62443
#
# Velocity S-wave (km/s) = 2.84653 3.55501 3.22031
# Velocity P-wave (km/s) = 6.08035 7.25463 6.69329
#
# Compressibility (1/GPa) = 0.02536521
#
# Stress axis : x y z
#
# Youngs Moduli (GPa) = 50.02462 40.51124 98.66467
#
# Poissons Ratio (x) = 0.14677 0.55623
# Poissons Ratio (y) = 0.18123 0.53891
# Poissons Ratio (z) = 0.28202 0.22127
#
# Static dielectric constant tensor:
#      x y z
#    x 2.890180 0.000000 0.000000 
#    y 0.000000 2.625270 0.000000 
#    z 0.000000 0.000000 3.523750 
# 
# 
# High freq. dielectric constant tensor:
#      x y z
#    x 1.570150 0.000000 0.000000 
#    y 0.000000 1.505790 0.000000 
#    z 0.000000 0.000000 1.598440 
# 
# From -- ./inp_files/34522.got.cif
#   From: 2010.03.12/outbox.cif.g09.slc.cpg/sg67_18_cif.got.tgz:34522.got - 2010.04.10 22:41:39.
