data_PCOD8278699
_publ_section_title
;
Structure prediction by ZEFSAII (Michael W. Deem and Ramdas Pophale) SiO2 
 PCOD8278699
Probable space group: C M M A
;
_chemical_formula_sum "Si O2"
_cell_formula_units_Z 104
_cell_length_a 26.576059
_cell_length_b 8.986075
_cell_length_c 24.177934
_cell_angle_alpha 90.000000
_cell_angle_beta 90.000000
_cell_angle_gamma 90.000000
_cell_volume 5774.040237
_symmetry_space_group_name_H-M "C M M A"
_symmetry_group_IT_number 67
_symmetry_cell_setting 'orthorhombic'
loop_
_space_group_symop_operation_xyz
x,y,z
-x,1/2-y,z
x,-y,-z
-x,1/2+y,-z
-x,-y,-z
x,1/2+y,-z
-x,y,z
x,1/2-y,z
1/2+x,1/2+y,z
1/2-x,-y,z
1/2+x,1/2-y,-z
1/2-x,y,-z
1/2-x,1/2-y,-z
1/2+x,y,-z
1/2-x,1/2+y,z
1/2+x,-y,z
loop_
_atom_site_type_symbol
_atom_site_label
_atom_site_fract_x
_atom_site_fract_y
_atom_site_fract_z
Si Si1 0.300344 0.576141 0.648357
Si Si2 0.058073 0.085139 0.275360
Si Si3 0.610908 0.421589 0.834250
Si Si4 0.500000 0.927343 0.440418
Si Si5 0.442683 0.074307 0.944594
Si Si6 0.409401 0.077394 0.376389
Si Si7 0.800307 0.425181 0.774238
O O1 0.289643 0.750000 0.648692
O O2 0.250000 0.500000 0.623255
O O3 0.350226 0.541592 0.610841
O O4 0.310186 0.519765 0.711186
O O5 0.078277 0.250000 0.292068
O O6 0.066532 0.057851 0.210558
O O7 0.000000 0.074729 0.289288
O O8 0.085109 0.958283 0.311341
O O9 0.627990 0.250000 0.838103
O O10 0.590367 0.480205 0.892774
O O11 0.656731 0.522886 0.815703
O O12 0.500000 0.750000 0.444556
O O13 0.500000 0.000000 0.500000
O O14 0.448408 0.977213 0.410599
O O15 0.500000 0.021557 0.935056
O O16 0.439788 0.250000 0.950947
O O17 0.420460 0.000000 0.000000
O O18 0.421689 0.250000 0.387491
O O19 0.795134 0.250000 0.777262
O O20 0.750000 0.500000 0.796996
#
# Coordination Sequence:
#
# PCOD8278699 Si02
#       7
#    16  16  16   8  16  16  16
#     4   9  19  33  52  79 113 149 186 224 272 325
#     4  10  19  30  47  75 108 143 179 215 264 325
#     4  10  19  31  49  73 103 138 175 218 267 322
#     4  12  26  44  64  88 114 154 197 232 275 326
#     4   9  18  33  51  71  98 133 175 219 263 315
#     4  11  21  36  56  83 117 150 183 230 276 321
#     4  10  19  32  48  72 104 139 176 216 264 322
#
# _framework density 18.011651000000001
#
# number of rings (size 3 to 8) (size 9 to 14) (size 15 to 20)
#    0.000    2.000    2.308    2.077    0.000    4.308 
#    0.000    0.000    0.000    3.692    0.000    6.462 
#    0.000    0.000    0.000    0.000    0.000    0.000 
#
# Total GULP energy -644609.656852 kJ/mol
# GULP energy per Si atom -12396.339555 kJ/mol
# Density = 1.797066 g / cm^3
# Si number density = 18.011651 Si / 1000 Ang^3
#
#
#
# Elastic Constant Matrix: (Units=GPa)
#
#
# Indices 1 2 3 4 5 6 
#
# 1 120.9692 51.0993 42.9291 0.0000 0.0000 0.0000
# 2 51.0993 73.4643 33.2812 0.0000 0.0000 0.0000
# 3 42.9291 33.2812 74.9981 0.0000 0.0000 0.0000
# 4 0.0000 0.0000 0.0000 27.5568 0.0000 0.0000
# 5 0.0000 0.0000 0.0000 0.0000 14.5145 0.0000
# 6 0.0000 0.0000 0.0000 0.0000 0.0000 30.8919
#
#
#
# Elastic Compliance Matrix: (Units=1/GPa)
#
#
# Indices 1 2 3 4 5 6 
#
# 1 0.012675 -0.006921 -0.004184 0.000000 0.000000 0.000000
# 2 -0.006921 0.020816 -0.005276 0.000000 0.000000 0.000000
# 3 -0.004184 -0.005276 0.018070 0.000000 0.000000 0.000000
# 4 0.000000 0.000000 0.000000 0.036289 0.000000 0.000000
# 5 0.000000 0.000000 0.000000 0.000000 0.068897 0.000000
# 6 0.000000 0.000000 0.000000 0.000000 0.000000 0.032371
#
#
# Mechanical properties :
#
#
# Convention : Reuss Voigt Hill
#
# Bulk Modulus (GPa) = 53.19290 58.22785 55.71038
# Shear Modulus (GPa) = 21.91596 24.06744 22.99170
#
# Velocity S-wave (km/s) = 3.49200 3.65939 3.57668
# Velocity P-wave (km/s) = 6.77166 7.08893 6.93211
#
# Compressibility (1/GPa) = 0.01879950
#
# Stress axis : x y z
#
# Youngs Moduli (GPa) = 78.89693 48.04009 55.34098
#
# Poissons Ratio (x) = 0.33247 0.23154
# Poissons Ratio (y) = 0.54602 0.29197
# Poissons Ratio (z) = 0.33010 0.25345
#
# Static dielectric constant tensor:
#      x y z
#    x 3.467470 0.000000 0.000000 
#    y 0.000000 3.298720 0.000000 
#    z 0.000000 0.000000 3.209800 
# 
# 
# High freq. dielectric constant tensor:
#      x y z
#    x 1.700650 0.000000 0.000000 
#    y 0.000000 1.697520 0.000000 
#    z 0.000000 0.000000 1.668330 
# 
# From -- ./inp_files/42758.got.cif
#   From: 2010.03.12/outbox.cif.g09.slc.cpg/sg67_22_cif.got.tgz:42758.got - 2010.04.10 22:41:39.
