data_PCOD8278062
_publ_section_title
;
Structure prediction by ZEFSAII (Michael W. Deem and Ramdas Pophale) SiO2 
 PCOD8278062
Probable space group: C M M A
;
_chemical_formula_sum "Si O2"
_cell_formula_units_Z 96
_cell_length_a 30.429529
_cell_length_b 8.837490
_cell_length_c 19.727660
_cell_angle_alpha 90.000000
_cell_angle_beta 90.000000
_cell_angle_gamma 90.000000
_cell_volume 5305.175313
_symmetry_space_group_name_H-M "C M M A"
_symmetry_group_IT_number 67
_symmetry_cell_setting 'orthorhombic'
loop_
_space_group_symop_operation_xyz
x,y,z
-x,1/2-y,z
x,-y,-z
-x,1/2+y,-z
-x,-y,-z
x,1/2+y,-z
-x,y,z
x,1/2-y,z
1/2+x,1/2+y,z
1/2-x,-y,z
1/2+x,1/2-y,-z
1/2-x,y,-z
1/2-x,1/2-y,-z
1/2+x,y,-z
1/2-x,1/2+y,z
1/2+x,-y,z
loop_
_atom_site_type_symbol
_atom_site_label
_atom_site_fract_x
_atom_site_fract_y
_atom_site_fract_z
Si Si1 0.948653 0.074191 0.429921
Si Si2 0.049678 0.926994 0.931144
Si Si3 0.208812 0.573945 0.180897
Si Si4 0.117342 0.427594 0.670028
Si Si5 0.706329 0.071081 0.672924
Si Si6 0.112176 0.922020 0.172005
O O1 0.936595 0.250000 0.431716
O O2 0.000000 0.046450 0.418148
O O3 0.932904 0.000000 0.500000
O O4 0.924511 0.993736 0.368087
O O5 0.051126 0.750000 0.941287
O O6 0.000000 0.984075 0.917231
O O7 0.079577 0.969487 0.867659
O O8 0.068383 0.000000 0.000000
O O9 0.217390 0.750000 0.198097
O O10 0.250000 0.500000 0.138671
O O11 0.206493 0.476408 0.248914
O O12 0.162027 0.556445 0.143072
O O13 0.121254 0.250000 0.657894
O O14 0.161652 0.504461 0.640383
O O15 0.110836 0.465624 0.749112
O O16 0.706937 0.250000 0.664098
O O17 0.750000 0.000000 0.637425
O O18 0.096673 0.750000 0.161127
#
# Coordination Sequence:
#
# PCOD8278062 Si02
#       6
#    16  16  16  16  16  16
#     4  10  21  37  56  77 102 135 174 213 255 306
#     4  10  21  36  54  74  97 129 168 207 250 303
#     4   9  16  27  44  69 100 133 167 203 246 296
#     4  10  20  34  52  77 107 137 171 212 257 301
#     4  10  17  27  45  70 101 135 170 208 251 299
#     4   9  19  33  50  75 105 134 166 206 251 297
#
# _framework density 18.095537
#
# number of rings (size 3 to 8) (size 9 to 14) (size 15 to 20)
#    0.000    2.333    0.000    5.500    0.000    6.667 
#    0.000    3.333    0.000    1.000    0.000    7.000 
#    0.000    0.000    0.000    0.000    0.000    0.000 
#
# Total GULP energy -595025.459800 kJ/mol
# GULP energy per Si atom -12396.363746 kJ/mol
# Density = 1.805435 g / cm^3
# Si number density = 18.095537 Si / 1000 Ang^3
#
#
#
# Elastic Constant Matrix: (Units=GPa)
#
#
# Indices 1 2 3 4 5 6 
#
# 1 106.8425 59.9337 50.9460 0.0000 0.0000 0.0000
# 2 59.9337 125.3245 42.4131 0.0000 0.0000 0.0000
# 3 50.9460 42.4131 57.1836 0.0000 0.0000 0.0000
# 4 0.0000 0.0000 0.0000 27.8098 0.0000 0.0000
# 5 0.0000 0.0000 0.0000 0.0000 3.8400 0.0000
# 6 0.0000 0.0000 0.0000 0.0000 0.0000 37.7056
#
#
#
# Elastic Compliance Matrix: (Units=1/GPa)
#
#
# Indices 1 2 3 4 5 6 
#
# 1 0.017785 -0.004196 -0.012732 0.000000 0.000000 0.000000
# 2 -0.004196 0.011643 -0.004898 0.000000 0.000000 0.000000
# 3 -0.012732 -0.004898 0.032464 0.000000 0.000000 0.000000
# 4 0.000000 0.000000 0.000000 0.035959 0.000000 0.000000
# 5 0.000000 0.000000 0.000000 0.000000 0.260415 0.000000
# 6 0.000000 0.000000 0.000000 0.000000 0.000000 0.026521
#
#
# Mechanical properties :
#
#
# Convention : Reuss Voigt Hill
#
# Bulk Modulus (GPa) = 54.82601 66.21514 60.52057
# Shear Modulus (GPa) = 11.50699 22.94160 17.22430
#
# Velocity S-wave (km/s) = 2.52445 3.56449 3.08856
# Velocity P-wave (km/s) = 6.23386 7.32203 6.79975
#
# Compressibility (1/GPa) = 0.01823952
#
# Stress axis : x y z
#
# Youngs Moduli (GPa) = 56.22828 85.88512 30.80375
#
# Poissons Ratio (x) = 0.36039 0.39221
# Poissons Ratio (y) = 0.23594 0.15086
# Poissons Ratio (z) = 0.71592 0.42063
#
# Static dielectric constant tensor:
#      x y z
#    x 3.954770 0.000000 0.000000 
#    y 0.000000 3.441250 0.000000 
#    z 0.000000 0.000000 2.910200 
# 
# 
# High freq. dielectric constant tensor:
#      x y z
#    x 1.719520 0.000000 0.000000 
#    y 0.000000 1.717230 0.000000 
#    z 0.000000 0.000000 1.647950 
# 
# From -- ./inp_files/37181.got.cif
#   From: 2010.03.12/outbox.cif.g09.slc.cpg/sg67_19_cif.got.tgz:37181.got - 2010.04.10 22:41:39.
