data_PCOD8278978
_publ_section_title
;
Structure prediction by ZEFSAII (Michael W. Deem and Ramdas Pophale) SiO2 
 PCOD8278978
Probable space group: C M M A
;
_chemical_formula_sum "Si O2"
_cell_formula_units_Z 88
_cell_length_a 8.947629
_cell_length_b 20.690092
_cell_length_c 24.505423
_cell_angle_alpha 90.000000
_cell_angle_beta 90.000000
_cell_angle_gamma 90.000000
_cell_volume 4536.621991
_symmetry_space_group_name_H-M "C M M A"
_symmetry_group_IT_number 67
_symmetry_cell_setting 'orthorhombic'
loop_
_space_group_symop_operation_xyz
x,y,z
-x,1/2-y,z
x,-y,-z
-x,1/2+y,-z
-x,-y,-z
x,1/2+y,-z
-x,y,z
x,1/2-y,z
1/2+x,1/2+y,z
1/2-x,-y,z
1/2+x,1/2-y,-z
1/2-x,y,-z
1/2-x,1/2-y,-z
1/2+x,y,-z
1/2-x,1/2+y,z
1/2+x,-y,z
loop_
_atom_site_type_symbol
_atom_site_label
_atom_site_fract_x
_atom_site_fract_y
_atom_site_fract_z
Si Si1 0.822935 0.178853 0.860967
Si Si2 0.179746 0.932998 0.058365
Si Si3 0.825900 0.110703 0.442524
Si Si4 0.826089 0.250000 0.443063
Si Si5 0.824759 0.063887 0.328609
Si Si6 0.325475 0.675864 0.737487
O O1 0.762344 0.250000 0.878959
O O2 0.764079 0.123490 0.901368
O O3 0.770750 0.163727 0.799465
O O4 0.000000 0.180537 0.862291
O O5 0.000000 0.938359 0.054645
O O6 0.250000 0.000000 0.080256
O O7 0.250000 0.916396 0.000000
O O8 0.750000 0.091935 0.500000
O O9 0.778308 0.181398 0.416823
O O10 0.783877 0.062945 0.393311
O O11 0.000000 0.108839 0.455656
O O12 0.750000 0.250000 0.500000
O O13 0.000000 0.250000 0.452356
O O14 0.766347 0.128600 0.300816
O O15 0.000000 0.060553 0.318805
O O16 0.750000 0.000000 0.302606
O O17 0.500000 0.660446 0.731363
O O18 0.291990 0.750000 0.720430
#
# Coordination Sequence:
#
# PCOD8278978 Si02
#       6
#    16  16  16   8  16  16
#     4   8  16  33  56  80 107 140 178 221 271 321
#     4  10  19  32  51  76 109 147 184 223 265 314
#     4   9  19  34  54  77 104 138 173 216 265 321
#     4   8  14  28  48  72  98 124 160 202 247 300
#     4  11  24  39  56  80 112 146 181 225 274 326
#     4   9  19  38  62  85 109 141 182 226 274 331
#
# _framework density 19.397693
#
# number of rings (size 3 to 8) (size 9 to 14) (size 15 to 20)
#    0.000    2.727    0.000    2.727    1.273    3.273 
#    0.000    5.455    0.000    3.818    0.000    0.000 
#    0.000    0.000    0.000    0.000    0.000    0.000 
#
# Total GULP energy -545111.563609 kJ/mol
# GULP energy per Si atom -12388.899173 kJ/mol
# Density = 1.935354 g / cm^3
# Si number density = 19.397693 Si / 1000 Ang^3
#
#
#
# Elastic Constant Matrix: (Units=GPa)
#
#
# Indices 1 2 3 4 5 6 
#
# 1 65.6433 55.3761 40.6201 0.0000 0.0000 0.0000
# 2 55.3761 137.6053 74.8508 0.0000 0.0000 0.0000
# 3 40.6201 74.8508 95.2286 0.0000 0.0000 0.0000
# 4 0.0000 0.0000 0.0000 27.4464 0.0000 0.0000
# 5 0.0000 0.0000 0.0000 0.0000 23.3176 0.0000
# 6 0.0000 0.0000 0.0000 0.0000 0.0000 25.1671
#
#
#
# Elastic Compliance Matrix: (Units=1/GPa)
#
#
# Indices 1 2 3 4 5 6 
#
# 1 0.024192 -0.007201 -0.004659 0.000000 0.000000 0.000000
# 2 -0.007201 0.014839 -0.008592 0.000000 0.000000 0.000000
# 3 -0.004659 -0.008592 0.019241 0.000000 0.000000 0.000000
# 4 0.000000 0.000000 0.000000 0.036435 0.000000 0.000000
# 5 0.000000 0.000000 0.000000 0.000000 0.042886 0.000000
# 6 0.000000 0.000000 0.000000 0.000000 0.000000 0.039734
#
#
# Mechanical properties :
#
#
# Convention : Reuss Voigt Hill
#
# Bulk Modulus (GPa) = 57.57594 71.13012 64.35303
# Shear Modulus (GPa) = 22.31953 23.69489 23.00721
#
# Velocity S-wave (km/s) = 3.39577 3.49883 3.44769
# Velocity P-wave (km/s) = 6.71724 7.28501 7.00688
#
# Compressibility (1/GPa) = 0.01736837
#
# Stress axis : x y z
#
# Youngs Moduli (GPa) = 41.33674 67.39216 51.97145
#
# Poissons Ratio (x) = 0.48530 0.24212
# Poissons Ratio (y) = 0.29767 0.44652
# Poissons Ratio (z) = 0.19258 0.57900
#
# Static dielectric constant tensor:
#      x y z
#    x 3.286140 0.000000 0.000000 
#    y 0.000000 3.928000 0.000000 
#    z 0.000000 0.000000 3.483070 
# 
# 
# High freq. dielectric constant tensor:
#      x y z
#    x 1.736430 0.000000 0.000000 
#    y 0.000000 1.770880 0.000000 
#    z 0.000000 0.000000 1.743580 
# 
# From -- ./inp_files/40679.got.cif
#   From: 2010.03.12/outbox.cif.g09.slc.cpg/sg67_21_cif.got.tgz:40679.got - 2010.04.10 22:41:39.
