data_PCOD8278548
_publ_section_title
;
Structure prediction by ZEFSAII (Michael W. Deem and Ramdas Pophale) SiO2 
 PCOD8278548
Probable space group: C M M A
;
_chemical_formula_sum "Si O2"
_cell_formula_units_Z 96
_cell_length_a 26.042796
_cell_length_b 18.007728
_cell_length_c 11.746819
_cell_angle_alpha 90.000000
_cell_angle_beta 90.000000
_cell_angle_gamma 90.000000
_cell_volume 5508.924345
_symmetry_space_group_name_H-M "C M M A"
_symmetry_group_IT_number 67
_symmetry_cell_setting 'orthorhombic'
loop_
_space_group_symop_operation_xyz
x,y,z
-x,1/2-y,z
x,-y,-z
-x,1/2+y,-z
-x,-y,-z
x,1/2+y,-z
-x,y,z
x,1/2-y,z
1/2+x,1/2+y,z
1/2-x,-y,z
1/2+x,1/2-y,-z
1/2-x,y,-z
1/2-x,1/2-y,-z
1/2+x,y,-z
1/2-x,1/2+y,z
1/2+x,-y,z
loop_
_atom_site_type_symbol
_atom_site_label
_atom_site_fract_x
_atom_site_fract_y
_atom_site_fract_z
Si Si1 0.797106 0.098585 0.337723
Si Si2 0.359884 0.163970 0.847917
Si Si3 0.366292 0.837094 0.522421
Si Si4 0.805623 0.415518 0.964896
Si Si5 0.182424 0.568367 0.299104
Si Si6 0.057164 0.161953 0.329277
O O1 0.809126 0.148486 0.227117
O O2 0.816917 0.141390 0.448030
O O3 0.736762 0.090311 0.353332
O O4 0.825534 0.019185 0.319340
O O5 0.366778 0.250000 0.871924
O O6 0.409114 0.132118 0.777435
O O7 0.352378 0.124739 0.969514
O O8 0.365497 0.750000 0.552577
O O9 0.362884 0.885405 0.638222
O O10 0.417015 0.859357 0.450290
O O11 0.817661 0.408756 0.832261
O O12 0.805125 0.500000 0.000000
O O13 0.750000 0.380840 0.000000
O O14 0.055269 0.250000 0.320422
O O15 0.000000 0.127422 0.323667
#
# Coordination Sequence:
#
# PCOD8278548 Si02
#       6
#    16  16  16  16  16  16
#     4  10  18  34  48  70  99 145 178 197 233 304
#     4  10  19  31  52  79  98 126 178 219 248 282
#     4  10  21  32  48  78 104 125 166 216 262 300
#     4  11  19  35  50  72 106 146 180 200 235 301
#     4  11  20  31  51  70 105 145 173 196 244 311
#     4   8  16  34  57  75  96 128 169 217 259 305
#
# _framework density 17.426269999999999
#
# number of rings (size 3 to 8) (size 9 to 14) (size 15 to 20)
#    0.000    2.000    3.333    3.500    0.000    4.333 
#    0.000    0.000    0.000    9.500    0.000    4.667 
#    0.000    0.000    0.000    0.000    0.000    0.000 
#
# Total GULP energy -594964.581719 kJ/mol
# GULP energy per Si atom -12395.095452 kJ/mol
# Density = 1.738661 g / cm^3
# Si number density = 17.426270 Si / 1000 Ang^3
#
#
#
# Elastic Constant Matrix: (Units=GPa)
#
#
# Indices 1 2 3 4 5 6 
#
# 1 88.3823 30.3307 34.2217 0.0000 0.0000 0.0000
# 2 30.3307 49.7776 36.9341 0.0000 0.0000 0.0000
# 3 34.2217 36.9341 96.4929 0.0000 0.0000 0.0000
# 4 0.0000 0.0000 0.0000 28.7474 0.0000 0.0000
# 5 0.0000 0.0000 0.0000 0.0000 217.8405 0.0000
# 6 0.0000 0.0000 0.0000 0.0000 0.0000 1.1253
#
#
#
# Elastic Compliance Matrix: (Units=1/GPa)
#
#
# Indices 1 2 3 4 5 6 
#
# 1 0.014724 -0.007119 -0.002497 0.000000 0.000000 0.000000
# 2 -0.007119 0.031500 -0.009532 0.000000 0.000000 0.000000
# 3 -0.002497 -0.009532 0.014898 0.000000 0.000000 0.000000
# 4 0.000000 0.000000 0.000000 0.034786 0.000000 0.000000
# 5 0.000000 0.000000 0.000000 0.000000 0.004591 0.000000
# 6 0.000000 0.000000 0.000000 0.000000 0.000000 0.888621
#
#
# Mechanical properties :
#
#
# Convention : Reuss Voigt Hill
#
# Bulk Modulus (GPa) = 43.81148 48.62509 46.21829
# Shear Modulus (GPa) = 4.83080 58.42040 31.62560
#
# Velocity S-wave (km/s) = 1.66678 5.79630 4.26470
# Velocity P-wave (km/s) = 5.37586 8.52995 7.12951
#
# Compressibility (1/GPa) = 0.02282507
#
# Stress axis : x y z
#
# Youngs Moduli (GPa) = 67.91403 31.74608 67.12441
#
# Poissons Ratio (x) = 0.22600 0.16762
# Poissons Ratio (y) = 0.48349 0.63985
# Poissons Ratio (z) = 0.16959 0.30261
#
# Static dielectric constant tensor:
#      x y z
#    x 3.288850 0.000000 0.000000 
#    y 0.000000 3.170850 0.000000 
#    z 0.000000 0.000000 3.562480 
# 
# 
# High freq. dielectric constant tensor:
#      x y z
#    x 1.637710 0.000000 0.000000 
#    y 0.000000 1.662630 0.000000 
#    z 0.000000 0.000000 1.676860 
# 
# From -- ./inp_files/19826.got.cif
#   From: 2010.03.12/outbox.cif.g09.slc.cpg/sg67_10_cif.got.tgz:19826.got - 2010.04.10 22:41:39.
