data_PCOD8278806
_publ_section_title
;
Structure prediction by ZEFSAII (Michael W. Deem and Ramdas Pophale) SiO2 
 PCOD8278806
Probable space group: C M M A
;
_chemical_formula_sum "Si O2"
_cell_formula_units_Z 80
_cell_length_a 16.799666
_cell_length_b 17.836121
_cell_length_c 13.896790
_cell_angle_alpha 90.000000
_cell_angle_beta 90.000000
_cell_angle_gamma 90.000000
_cell_volume 4164.046323
_symmetry_space_group_name_H-M "C M M A"
_symmetry_group_IT_number 67
_symmetry_cell_setting 'orthorhombic'
loop_
_space_group_symop_operation_xyz
x,y,z
-x,1/2-y,z
x,-y,-z
-x,1/2+y,-z
-x,-y,-z
x,1/2+y,-z
-x,y,z
x,1/2-y,z
1/2+x,1/2+y,z
1/2-x,-y,z
1/2+x,1/2-y,-z
1/2-x,y,-z
1/2-x,1/2-y,-z
1/2+x,y,-z
1/2-x,1/2+y,z
1/2+x,-y,z
loop_
_atom_site_type_symbol
_atom_site_label
_atom_site_fract_x
_atom_site_fract_y
_atom_site_fract_z
Si Si1 0.188904 0.161080 0.191098
Si Si2 0.908178 0.076596 0.554560
Si Si3 0.407277 0.537109 0.100829
Si Si4 0.181484 0.059407 0.748852
Si Si5 0.087797 0.162584 0.373641
O O1 0.185740 0.250000 0.169830
O O2 0.141828 0.115300 0.108484
O O3 0.279992 0.132458 0.198563
O O4 0.147352 0.135798 0.291125
O O5 0.856857 0.086340 0.649803
O O6 0.880875 0.140563 0.479257
O O7 0.000000 0.084730 0.584063
O O8 0.890311 0.000000 0.500000
O O9 0.500000 0.556614 0.107944
O O10 0.384875 0.477546 0.183293
O O11 0.384298 0.500000 0.000000
O O12 0.250000 0.000000 0.726908
O O13 0.078984 0.250000 0.367922
O O14 0.000000 0.125269 0.356722
#
# Coordination Sequence:
#
# PCOD8278806 Si02
#       5
#    16  16  16  16  16
#     4  10  21  36  57  84 112 142 177 222 272 324
#     4  10  19  31  49  73 104 145 190 230 266 310
#     4  10  21  39  62  83 104 136 180 227 273 322
#     4  10  21  34  51  78 111 143 178 222 276 328
#     4   9  18  32  50  74 104 140 182 223 262 306
#
# _framework density 19.212083
#
# number of rings (size 3 to 8) (size 9 to 14) (size 15 to 20)
#    0.000    2.200    0.000    3.600    0.000   10.000 
#    0.000    4.000    0.000    3.000    0.000    0.000 
#    0.000    0.000    0.000    0.000    0.000    0.000 
#
# Total GULP energy -495935.421209 kJ/mol
# GULP energy per Si atom -12398.385530 kJ/mol
# Density = 1.916836 g / cm^3
# Si number density = 19.212083 Si / 1000 Ang^3
#
#
#
# Elastic Constant Matrix: (Units=GPa)
#
#
# Indices 1 2 3 4 5 6 
#
# 1 67.2241 41.8204 30.8679 0.0000 0.0000 0.0000
# 2 41.8204 89.4134 40.1529 0.0000 0.0000 0.0000
# 3 30.8679 40.1529 85.5938 0.0000 0.0000 0.0000
# 4 0.0000 0.0000 0.0000 32.6872 0.0000 0.0000
# 5 0.0000 0.0000 0.0000 0.0000 29.2710 0.0000
# 6 0.0000 0.0000 0.0000 0.0000 0.0000 20.8210
#
#
#
# Elastic Compliance Matrix: (Units=1/GPa)
#
#
# Indices 1 2 3 4 5 6 
#
# 1 0.021977 -0.008514 -0.003932 0.000000 0.000000 0.000000
# 2 -0.008514 0.017467 -0.005124 0.000000 0.000000 0.000000
# 3 -0.003932 -0.005124 0.015505 0.000000 0.000000 0.000000
# 4 0.000000 0.000000 0.000000 0.030593 0.000000 0.000000
# 5 0.000000 0.000000 0.000000 0.000000 0.034164 0.000000
# 6 0.000000 0.000000 0.000000 0.000000 0.000000 0.048029
#
#
# Mechanical properties :
#
#
# Convention : Reuss Voigt Hill
#
# Bulk Modulus (GPa) = 50.47800 51.99041 51.23420
# Shear Modulus (GPa) = 23.86912 25.18183 24.52547
#
# Velocity S-wave (km/s) = 3.52860 3.62433 3.57678
# Velocity P-wave (km/s) = 6.55229 6.68090 6.61690
#
# Compressibility (1/GPa) = 0.01981061
#
# Stress axis : x y z
#
# Youngs Moduli (GPa) = 45.50129 57.25145 64.49687
#
# Poissons Ratio (x) = 0.48741 0.25360
# Poissons Ratio (y) = 0.38738 0.33046
# Poissons Ratio (z) = 0.17891 0.29333
#
# Static dielectric constant tensor:
#      x y z
#    x 3.823000 0.000000 0.000000 
#    y 0.000000 3.799590 0.000000 
#    z 0.000000 0.000000 2.625620 
# 
# 
# High freq. dielectric constant tensor:
#      x y z
#    x 1.748150 0.000000 0.000000 
#    y 0.000000 1.741180 0.000000 
#    z 0.000000 0.000000 1.740740 
# 
# From -- ./inp_files/28373.got.cif
#   From: 2010.03.12/outbox.cif.g09.slc.cpg/sg67_15_cif.got.tgz:28373.got - 2010.04.10 22:41:39.
