data_PCOD8278500
_publ_section_title
;
Structure prediction by ZEFSAII (Michael W. Deem and Ramdas Pophale) SiO2 
 PCOD8278500
Probable space group: C M M A
;
_chemical_formula_sum "Si O2"
_cell_formula_units_Z 80
_cell_length_a 23.667208
_cell_length_b 9.020456
_cell_length_c 20.400662
_cell_angle_alpha 90.000000
_cell_angle_beta 90.000000
_cell_angle_gamma 90.000000
_cell_volume 4355.317101
_symmetry_space_group_name_H-M "C M M A"
_symmetry_group_IT_number 67
_symmetry_cell_setting 'orthorhombic'
loop_
_space_group_symop_operation_xyz
x,y,z
-x,1/2-y,z
x,-y,-z
-x,1/2+y,-z
-x,-y,-z
x,1/2+y,-z
-x,y,z
x,1/2-y,z
1/2+x,1/2+y,z
1/2-x,-y,z
1/2+x,1/2-y,-z
1/2-x,y,-z
1/2-x,1/2-y,-z
1/2+x,y,-z
1/2-x,1/2+y,z
1/2+x,-y,z
loop_
_atom_site_type_symbol
_atom_site_label
_atom_site_fract_x
_atom_site_fract_y
_atom_site_fract_z
Si Si1 0.000000 0.925715 0.597691
Si Si2 0.877189 0.075062 0.436072
Si Si3 0.810049 0.925135 0.693043
Si Si4 0.888182 0.074837 0.188433
Si Si5 0.064945 0.575649 0.068472
Si Si6 0.500000 0.925814 0.258667
O O1 0.942655 0.978433 0.562625
O O2 0.000000 0.750000 0.603753
O O3 0.000000 0.996986 0.669659
O O4 0.871276 0.250000 0.442909
O O5 0.848137 0.021461 0.368466
O O6 0.848146 0.000000 0.500000
O O7 0.803023 0.750000 0.690310
O O8 0.837390 0.971707 0.762885
O O9 0.750000 0.000000 0.686785
O O10 0.887851 0.250000 0.175057
O O11 0.944906 0.017760 0.222335
O O12 0.888544 0.988460 0.119484
O O13 0.073697 0.750000 0.061674
O O14 0.000000 0.537081 0.088827
O O15 0.079511 0.500000 0.000000
O O16 0.500000 0.750000 0.263509
#
# Coordination Sequence:
#
# PCOD8278500 Si02
#       6
#     8  16  16  16  16   8
#     4   9  15  29  52  77 105 133 168 212 260 322
#     4  10  20  34  53  77 104 136 173 215 266 321
#     4  10  22  38  56  77 101 136 182 225 268 316
#     4  10  18  32  56  80 103 137 178 218 263 314
#     4  10  20  32  49  79 117 150 176 206 251 308
#     4   9  14  25  51  79 100 129 169 214 259 312
#
# _framework density 18.368352000000002
#
# number of rings (size 3 to 8) (size 9 to 14) (size 15 to 20)
#    0.000    2.200    3.000    0.900    0.000    2.800 
#    0.000    2.000    0.000    1.800    0.000    4.200 
#    0.000    0.000    0.000    0.000    0.000    0.000 
#
# Total GULP energy -495765.617493 kJ/mol
# GULP energy per Si atom -12394.140437 kJ/mol
# Density = 1.832654 g / cm^3
# Si number density = 18.368352 Si / 1000 Ang^3
#
#
#
# Elastic Constant Matrix: (Units=GPa)
#
#
# Indices 1 2 3 4 5 6 
#
# 1 102.9539 33.8542 53.8021 0.0000 0.0000 0.0000
# 2 33.8542 46.0647 54.4393 0.0000 0.0000 0.0000
# 3 53.8021 54.4393 159.3641 0.0000 0.0000 0.0000
# 4 0.0000 0.0000 0.0000 32.0311 0.0000 0.0000
# 5 0.0000 0.0000 0.0000 0.0000 13.3375 0.0000
# 6 0.0000 0.0000 0.0000 0.0000 0.0000 25.3116
#
#
#
# Elastic Compliance Matrix: (Units=1/GPa)
#
#
# Indices 1 2 3 4 5 6 
#
# 1 0.013146 -0.007406 -0.001908 0.000000 0.000000 0.000000
# 2 -0.007406 0.040578 -0.011361 0.000000 0.000000 0.000000
# 3 -0.001908 -0.011361 0.010800 0.000000 0.000000 0.000000
# 4 0.000000 0.000000 0.000000 0.031220 0.000000 0.000000
# 5 0.000000 0.000000 0.000000 0.000000 0.074977 0.000000
# 6 0.000000 0.000000 0.000000 0.000000 0.000000 0.039508
#
#
# Mechanical properties :
#
#
# Convention : Reuss Voigt Hill
#
# Bulk Modulus (GPa) = 43.15348 65.84156 54.49752
# Shear Modulus (GPa) = 19.28244 25.22186 22.25215
#
# Velocity S-wave (km/s) = 3.24352 3.70958 3.48435
# Velocity P-wave (km/s) = 6.12957 7.36688 6.77652
#
# Compressibility (1/GPa) = 0.02317310
#
# Stress axis : x y z
#
# Youngs Moduli (GPa) = 76.07152 24.64369 92.59085
#
# Poissons Ratio (x) = 0.18251 0.17667
# Poissons Ratio (y) = 0.56339 1.05196
# Poissons Ratio (z) = 0.14515 0.27999
#
# Static dielectric constant tensor:
#      x y z
#    x 3.378080 0.000000 0.000000 
#    y 0.000000 3.028180 0.000000 
#    z 0.000000 0.000000 3.569360 
# 
# 
# High freq. dielectric constant tensor:
#      x y z
#    x 1.686090 0.000000 0.000000 
#    y 0.000000 1.686280 0.000000 
#    z 0.000000 0.000000 1.728640 
# 
# From -- ./inp_files/36885.got.cif
#   From: 2010.03.12/outbox.cif.g09.slc.cpg/sg67_19_cif.got.tgz:36885.got - 2010.04.10 22:41:39.
