data_PCOD8278457
_publ_section_title
;
Structure prediction by ZEFSAII (Michael W. Deem and Ramdas Pophale) SiO2 
 PCOD8278457
Probable space group: C M M A
;
_chemical_formula_sum "Si O2"
_cell_formula_units_Z 96
_cell_length_a 18.724973
_cell_length_b 8.678942
_cell_length_c 31.359244
_cell_angle_alpha 90.000000
_cell_angle_beta 90.000000
_cell_angle_gamma 90.000000
_cell_volume 5096.283397
_symmetry_space_group_name_H-M "C M M A"
_symmetry_group_IT_number 67
_symmetry_cell_setting 'orthorhombic'
loop_
_space_group_symop_operation_xyz
x,y,z
-x,1/2-y,z
x,-y,-z
-x,1/2+y,-z
-x,-y,-z
x,1/2+y,-z
-x,y,z
x,1/2-y,z
1/2+x,1/2+y,z
1/2-x,-y,z
1/2+x,1/2-y,-z
1/2-x,y,-z
1/2-x,1/2-y,-z
1/2+x,y,-z
1/2-x,1/2+y,z
1/2+x,-y,z
loop_
_atom_site_type_symbol
_atom_site_label
_atom_site_fract_x
_atom_site_fract_y
_atom_site_fract_z
Si Si1 0.172407 0.430074 0.708177
Si Si2 0.915227 0.573332 0.635072
Si Si3 0.670891 0.567161 0.206272
Si Si4 0.080226 0.430517 0.458420
Si Si5 0.328376 0.431800 0.120126
Si Si6 0.584103 0.427428 0.955343
O O1 0.180904 0.250000 0.716274
O O2 0.250000 0.500000 0.698804
O O3 0.121548 0.459762 0.668243
O O4 0.134744 0.506784 0.750026
O O5 0.894900 0.750000 0.645646
O O6 0.885828 0.527644 0.587696
O O7 0.000000 0.551682 0.637050
O O8 0.669879 0.750000 0.204860
O O9 0.750000 0.500000 0.207319
O O10 0.635017 0.501118 0.163159
O O11 0.121515 0.500000 0.500000
O O12 0.079199 0.250000 0.463713
O O13 0.000000 0.497930 0.458213
O O14 0.322040 0.250000 0.124678
O O15 0.250000 0.500000 0.112381
O O16 0.378594 0.474951 0.081189
O O17 0.500000 0.443816 0.948993
O O18 0.608618 0.250000 0.953525
O O19 0.608522 0.500000 0.000000
#
# Coordination Sequence:
#
# PCOD8278457 Si02
#       6
#    16  16  16  16  16  16
#     4  11  21  34  53  76 102 134 173 211 251 303
#     4   9  18  33  51  73 103 135 166 206 256 303
#     4  10  18  32  53  76 103 134 170 210 255 304
#     4   8  14  25  43  67  95 127 162 200 244 296
#     4  11  21  35  56  82 110 137 172 216 260 303
#     4  10  21  38  58  80 108 142 178 214 257 309
#
# _framework density 18.837257000000001
#
# number of rings (size 3 to 8) (size 9 to 14) (size 15 to 20)
#    0.000    2.167    0.000    8.000    0.000    2.333 
#    0.000    4.167    0.000    5.500    0.000    3.500 
#    0.000    0.000    0.000    0.000    0.000    0.000 
#
# Total GULP energy -594955.415866 kJ/mol
# GULP energy per Si atom -12394.904497 kJ/mol
# Density = 1.879438 g / cm^3
# Si number density = 18.837257 Si / 1000 Ang^3
#
#
#
# Elastic Constant Matrix: (Units=GPa)
#
#
# Indices 1 2 3 4 5 6 
#
# 1 25.2777 22.6929 35.7252 0.0000 0.0000 0.0000
# 2 22.6929 147.3101 67.9673 0.0000 0.0000 0.0000
# 3 35.7252 67.9673 180.5907 0.0000 0.0000 0.0000
# 4 0.0000 0.0000 0.0000 40.2667 0.0000 0.0000
# 5 0.0000 0.0000 0.0000 0.0000 20.0054 0.0000
# 6 0.0000 0.0000 0.0000 0.0000 0.0000 22.5745
#
#
#
# Elastic Compliance Matrix: (Units=1/GPa)
#
#
# Indices 1 2 3 4 5 6 
#
# 1 0.057117 -0.004339 -0.009666 0.000000 0.000000 0.000000
# 2 -0.004339 0.008545 -0.002357 0.000000 0.000000 0.000000
# 3 -0.009666 -0.002357 0.008337 0.000000 0.000000 0.000000
# 4 0.000000 0.000000 0.000000 0.024834 0.000000 0.000000
# 5 0.000000 0.000000 0.000000 0.000000 0.049987 0.000000
# 6 0.000000 0.000000 0.000000 0.000000 0.000000 0.044298
#
#
# Mechanical properties :
#
#
# Convention : Reuss Voigt Hill
#
# Bulk Modulus (GPa) = 24.22870 67.32769 45.77820
# Shear Modulus (GPa) = 20.86810 31.68884 26.27847
#
# Velocity S-wave (km/s) = 3.33199 4.10596 3.73906
# Velocity P-wave (km/s) = 5.26240 7.63531 6.55709
#
# Compressibility (1/GPa) = 0.04127336
#
# Stress axis : x y z
#
# Youngs Moduli (GPa) = 17.50789 117.03402 119.94943
#
# Poissons Ratio (x) = 0.50780 1.15945
# Poissons Ratio (y) = 0.07597 0.28278
# Poissons Ratio (z) = 0.16923 0.27591
#
# Static dielectric constant tensor:
#      x y z
#    x 2.958270 0.000000 0.000000 
#    y 0.000000 3.501440 0.000000 
#    z 0.000000 0.000000 4.245010 
# 
# 
# High freq. dielectric constant tensor:
#      x y z
#    x 1.674410 0.000000 0.000000 
#    y 0.000000 1.742730 0.000000 
#    z 0.000000 0.000000 1.761670 
# 
# From -- ./inp_files/44628.got.cif
#   From: 2010.03.12/outbox.cif.g09.slc.cpg/sg67_23_cif.got.tgz:44628.got - 2010.04.10 22:41:39.
