data_PCOD8278808
_publ_section_title
;
Structure prediction by ZEFSAII (Michael W. Deem and Ramdas Pophale) SiO2 
 PCOD8278808
Probable space group: C M M A
;
_chemical_formula_sum "Si O2"
_cell_formula_units_Z 104
_cell_length_a 9.003916
_cell_length_b 24.555092
_cell_length_c 26.249902
_cell_angle_alpha 90.000000
_cell_angle_beta 90.000000
_cell_angle_gamma 90.000000
_cell_volume 5803.642959
_symmetry_space_group_name_H-M "C M M A"
_symmetry_group_IT_number 67
_symmetry_cell_setting 'orthorhombic'
loop_
_space_group_symop_operation_xyz
x,y,z
-x,1/2-y,z
x,-y,-z
-x,1/2+y,-z
-x,-y,-z
x,1/2+y,-z
-x,y,z
x,1/2-y,z
1/2+x,1/2+y,z
1/2-x,-y,z
1/2+x,1/2-y,-z
1/2-x,y,-z
1/2-x,1/2-y,-z
1/2+x,y,-z
1/2-x,1/2+y,z
1/2+x,-y,z
loop_
_atom_site_type_symbol
_atom_site_label
_atom_site_fract_x
_atom_site_fract_y
_atom_site_fract_z
Si Si1 0.826756 0.169584 0.128094
Si Si2 0.827027 0.867337 0.354416
Si Si3 0.324107 0.250000 0.054584
Si Si4 0.172877 0.750000 0.323862
Si Si5 0.826859 0.553226 0.836857
Si Si6 0.675789 0.056026 0.446854
Si Si7 0.669855 0.750000 0.216442
Si Si8 0.674972 0.054366 0.720549
O O1 0.727508 0.196061 0.084296
O O2 0.782930 0.106179 0.130551
O O3 0.792709 0.196706 0.182811
O O4 0.000000 0.178378 0.114657
O O5 0.780957 0.803579 0.356142
O O6 0.787480 0.895335 0.407988
O O7 0.731777 0.893431 0.309466
O O8 0.000000 0.875245 0.341661
O O9 0.500000 0.250000 0.049081
O O10 0.250000 0.250000 0.000000
O O11 0.237743 0.750000 0.267519
O O12 0.000000 0.750000 0.314567
O O13 0.750000 0.500000 0.861035
O O14 0.774641 0.562047 0.778853
O O15 0.000000 0.542773 0.838714
O O16 0.500000 0.047107 0.453721
O O17 0.750000 0.073144 0.500000
O O18 0.750000 0.000000 0.426828
O O19 0.500000 0.750000 0.233468
O O20 0.500000 0.049147 0.714174
O O21 0.750000 0.000000 0.697628
#
# Coordination Sequence:
#
# PCOD8278808 Si02
#       8
#    16  16   8   8  16  16   8  16
#     4   9  18  34  53  74 104 139 171 208 254 297
#     4  10  21  35  50  70  98 132 165 201 246 295
#     4  11  22  36  56  81 104 129 166 213 261 303
#     4  10  21  35  49  69 102 139 171 202 240 287
#     4   9  18  31  48  72 104 140 173 205 244 291
#     4  10  20  35  55  76  95 116 149 195 249 301
#     4   9  17  31  51  74 101 134 175 215 249 288
#     4  10  19  31  49  74 103 135 170 207 246 291
#
# _framework density 17.919778999999998
#
# number of rings (size 3 to 8) (size 9 to 14) (size 15 to 20)
#    0.000    2.308    0.000    3.923    0.000    6.769 
#    0.000    0.385    0.000    0.462    0.000    3.231 
#    0.000    0.000    0.000    0.000    0.000    0.000 
#
# Total GULP energy -644813.787629 kJ/mol
# GULP energy per Si atom -12400.265147 kJ/mol
# Density = 1.787899 g / cm^3
# Si number density = 17.919779 Si / 1000 Ang^3
#
#
#
# Elastic Constant Matrix: (Units=GPa)
#
#
# Indices 1 2 3 4 5 6 
#
# 1 76.0132 60.4644 46.8838 0.0000 0.0000 0.0000
# 2 60.4644 165.9528 70.4563 0.0000 0.0000 0.0000
# 3 46.8838 70.4563 95.0521 0.0000 0.0000 0.0000
# 4 0.0000 0.0000 0.0000 7.6735 0.0000 0.0000
# 5 0.0000 0.0000 0.0000 0.0000 28.4307 0.0000
# 6 0.0000 0.0000 0.0000 0.0000 0.0000 27.7010
#
#
#
# Elastic Compliance Matrix: (Units=1/GPa)
#
#
# Indices 1 2 3 4 5 6 
#
# 1 0.021243 -0.004803 -0.006918 0.000000 0.000000 0.000000
# 2 -0.004803 0.009879 -0.004954 0.000000 0.000000 0.000000
# 3 -0.006918 -0.004954 0.017605 0.000000 0.000000 0.000000
# 4 0.000000 0.000000 0.000000 0.130318 0.000000 0.000000
# 5 0.000000 0.000000 0.000000 0.000000 0.035173 0.000000
# 6 0.000000 0.000000 0.000000 0.000000 0.000000 0.036100
#
#
# Mechanical properties :
#
#
# Convention : Reuss Voigt Hill
#
# Bulk Modulus (GPa) = 65.02946 76.95856 70.99401
# Shear Modulus (GPa) = 17.31352 23.37528 20.34440
#
# Velocity S-wave (km/s) = 3.11170 3.61562 3.37308
# Velocity P-wave (km/s) = 7.01984 7.77623 7.40769
#
# Compressibility (1/GPa) = 0.01537765
#
# Stress axis : x y z
#
# Youngs Moduli (GPa) = 47.07490 101.22741 56.80346
#
# Poissons Ratio (x) = 0.48616 0.39296
# Poissons Ratio (y) = 0.22609 0.28138
# Poissons Ratio (z) = 0.32566 0.50144
#
# Static dielectric constant tensor:
#      x y z
#    x 3.298250 0.000000 0.000000 
#    y 0.000000 3.363760 0.000000 
#    z 0.000000 0.000000 3.116940 
# 
# 
# High freq. dielectric constant tensor:
#      x y z
#    x 1.694900 0.000000 0.000000 
#    y 0.000000 1.700670 0.000000 
#    z 0.000000 0.000000 1.670300 
# 
# From -- ./inp_files/41059.got.cif
#   From: 2010.03.12/outbox.cif.g09.slc.cpg/sg67_21_cif.got.tgz:41059.got - 2010.04.10 22:41:39.
