data_PCOD8278564
_publ_section_title
;
Structure prediction by ZEFSAII (Michael W. Deem and Ramdas Pophale) SiO2 
 PCOD8278564
Probable space group: C M M A
;
_chemical_formula_sum "Si O2"
_cell_formula_units_Z 112
_cell_length_a 14.879301
_cell_length_b 27.262238
_cell_length_c 15.158191
_cell_angle_alpha 90.000000
_cell_angle_beta 90.000000
_cell_angle_gamma 90.000000
_cell_volume 6148.814756
_symmetry_space_group_name_H-M "C M M A"
_symmetry_group_IT_number 67
_symmetry_cell_setting 'orthorhombic'
loop_
_space_group_symop_operation_xyz
x,y,z
-x,1/2-y,z
x,-y,-z
-x,1/2+y,-z
-x,-y,-z
x,1/2+y,-z
-x,y,z
x,1/2-y,z
1/2+x,1/2+y,z
1/2-x,-y,z
1/2+x,1/2-y,-z
1/2-x,y,-z
1/2-x,1/2-y,-z
1/2+x,y,-z
1/2-x,1/2+y,z
1/2+x,-y,z
loop_
_atom_site_type_symbol
_atom_site_label
_atom_site_fract_x
_atom_site_fract_y
_atom_site_fract_z
Si Si1 0.399256 0.951698 0.446946
Si Si2 0.000000 0.306938 0.166985
Si Si3 0.000000 0.306335 0.958441
Si Si4 0.724243 0.693512 0.601458
Si Si5 0.757890 0.054700 0.292229
Si Si6 0.692966 0.807789 0.918437
Si Si7 0.313618 0.153722 0.766624
Si Si8 0.399070 0.392410 0.384147
O O1 0.500000 0.956370 0.406849
O O2 0.327211 0.944573 0.372022
O O3 0.393815 0.905912 0.512877
O O4 0.372980 0.000000 0.500000
O O5 0.913984 0.334221 0.205563
O O6 0.000000 0.250000 0.195639
O O7 0.000000 0.312370 0.063008
O O8 0.091606 0.330680 0.919673
O O9 0.000000 0.250000 0.930568
O O10 0.705746 0.750000 0.622931
O O11 0.750000 0.685642 0.500000
O O12 0.801963 0.672096 0.665573
O O13 0.634063 0.663522 0.623983
O O14 0.795194 0.095143 0.223328
O O15 0.659730 0.070380 0.325864
O O16 0.750000 0.000000 0.250200
O O17 0.685267 0.750000 0.933045
O O18 0.741076 0.818569 0.826653
O O19 0.750000 0.830339 0.000000
O O20 0.500000 0.396144 0.347559
#
# Coordination Sequence:
#
# PCOD8278564 Si02
#       8
#    16   8   8  16  16  16  16  16
#     4  10  19  32  57  82 100 133 188 257 316 346
#     4  11  20  36  62  96 127 151 187 248 314 371
#     4   9  18  32  60  94 120 149 188 240 306 367
#     4  10  21  39  56  74 113 166 206 234 271 340
#     4  11  22  36  55  77 112 150 192 244 298 345
#     4  10  18  34  60  90 121 150 188 240 301 365
#     4  11  23  37  59  89 120 158 198 245 301 359
#     4  10  20  34  52  77 103 137 189 246 299 341
#
# _framework density 18.214893
#
# number of rings (size 3 to 8) (size 9 to 14) (size 15 to 20)
#    0.000    1.714    2.857    3.429    1.000    0.286 
#    6.429    0.000    0.000    0.429    0.000    1.000 
#    0.000    0.000    0.000    0.000    0.000    0.000 
#
# Total GULP energy -694252.342341 kJ/mol
# GULP energy per Si atom -12397.363256 kJ/mol
# Density = 1.817343 g / cm^3
# Si number density = 18.214893 Si / 1000 Ang^3
#
#
#
# Elastic Constant Matrix: (Units=GPa)
#
#
# Indices 1 2 3 4 5 6 
#
# 1 155.7402 32.9723 31.6008 0.0000 0.0000 0.0000
# 2 32.9723 90.2510 6.5489 0.0000 0.0000 0.0000
# 3 31.6008 6.5489 49.0051 0.0000 0.0000 0.0000
# 4 0.0000 0.0000 0.0000 13.5226 0.0000 0.0000
# 5 0.0000 0.0000 0.0000 0.0000 25.2991 0.0000
# 6 0.0000 0.0000 0.0000 0.0000 0.0000 21.3855
#
#
#
# Elastic Compliance Matrix: (Units=1/GPa)
#
#
# Indices 1 2 3 4 5 6 
#
# 1 0.007929 -0.002551 -0.004772 0.000000 0.000000 0.000000
# 2 -0.002551 0.012009 0.000040 0.000000 0.000000 0.000000
# 3 -0.004772 0.000040 0.023478 0.000000 0.000000 0.000000
# 4 0.000000 0.000000 0.000000 0.073950 0.000000 0.000000
# 5 0.000000 0.000000 0.000000 0.000000 0.039527 0.000000
# 6 0.000000 0.000000 0.000000 0.000000 0.000000 0.046761
#
#
# Mechanical properties :
#
#
# Convention : Reuss Voigt Hill
#
# Bulk Modulus (GPa) = 34.66149 48.58228 41.62189
# Shear Modulus (GPa) = 21.94549 26.96641 24.45595
#
# Velocity S-wave (km/s) = 3.47480 3.85185 3.66817
# Velocity P-wave (km/s) = 5.93039 6.81997 6.39068
#
# Compressibility (1/GPa) = 0.02885046
#
# Stress axis : x y z
#
# Youngs Moduli (GPa) = 126.11483 83.26984 42.59283
#
# Poissons Ratio (x) = 0.21239 0.20327
# Poissons Ratio (y) = 0.32167 -0.00170
# Poissons Ratio (z) = 0.60186 -0.00332
#
# Static dielectric constant tensor:
#      x y z
#    x 3.602770 0.000000 0.000000 
#    y 0.000000 3.732740 0.000000 
#    z 0.000000 0.000000 3.228740 
# 
# 
# High freq. dielectric constant tensor:
#      x y z
#    x 1.721180 0.000000 0.000000 
#    y 0.000000 1.694120 0.000000 
#    z 0.000000 0.000000 1.676230 
# 
# From -- ./inp_files/27781.got.cif
#   From: 2010.03.12/outbox.cif.g09.slc.cpg/sg67_14_cif.got.tgz:27781.got - 2010.04.10 22:41:39.
