data_PCOD8278520
_publ_section_title
;
Structure prediction by ZEFSAII (Michael W. Deem and Ramdas Pophale) SiO2 
 PCOD8278520
Probable space group: C M M A
;
_chemical_formula_sum "Si O2"
_cell_formula_units_Z 80
_cell_length_a 19.952157
_cell_length_b 22.773074
_cell_length_c 9.302277
_cell_angle_alpha 90.000000
_cell_angle_beta 90.000000
_cell_angle_gamma 90.000000
_cell_volume 4226.693720
_symmetry_space_group_name_H-M "C M M A"
_symmetry_group_IT_number 67
_symmetry_cell_setting 'orthorhombic'
loop_
_space_group_symop_operation_xyz
x,y,z
-x,1/2-y,z
x,-y,-z
-x,1/2+y,-z
-x,-y,-z
x,1/2+y,-z
-x,y,z
x,1/2-y,z
1/2+x,1/2+y,z
1/2-x,-y,z
1/2+x,1/2-y,-z
1/2-x,y,-z
1/2-x,1/2-y,-z
1/2+x,y,-z
1/2-x,1/2+y,z
1/2+x,-y,z
loop_
_atom_site_type_symbol
_atom_site_label
_atom_site_fract_x
_atom_site_fract_y
_atom_site_fract_z
Si Si1 0.180590 0.250000 0.091062
Si Si2 0.360049 0.628739 0.152771
Si Si3 0.000000 0.080219 0.155759
Si Si4 0.580270 0.250000 0.158571
Si Si5 0.626650 0.123811 0.186304
Si Si6 0.000000 0.948234 0.179708
Si Si7 0.247558 0.068869 0.334480
O O1 0.173280 0.307892 0.188840
O O2 0.250000 0.250000 0.000000
O O3 0.112599 0.250000 0.998355
O O4 0.437098 0.620421 0.200138
O O5 0.320245 0.583354 0.250225
O O6 0.355537 0.617040 0.982159
O O7 0.000000 0.016102 0.230954
O O8 0.000000 0.064128 0.989105
O O9 0.500000 0.250000 0.145022
O O10 0.606506 0.190319 0.233591
O O11 0.566949 0.081832 0.240507
O O12 0.692381 0.104831 0.266784
O O13 0.250000 0.087402 0.500000
O O14 0.250000 0.000000 0.314448
#
# Coordination Sequence:
#
# PCOD8278520 Si02
#       7
#     8  16   8   8  16   8  16
#     4  10  20  32  54  87 119 148 185 226 282 342
#     4  10  20  35  57  83 114 146 186 235 283 346
#     4   9  18  29  50  82 113 141 182 229 288 326
#     4  10  18  32  58  93 122 150 186 236 287 338
#     4  10  19  34  59  86 116 147 190 235 285 345
#     4   9  16  29  50  84 111 139 184 237 274 334
#     4  11  24  40  56  79 113 154 197 241 289 340
#
# _framework density 18.927323999999999
#
# number of rings (size 3 to 8) (size 9 to 14) (size 15 to 20)
#    0.000    2.000    1.000    4.200    4.200    3.200 
#    0.000    3.000    0.000    3.600    0.000    0.000 
#    0.000    0.000    0.000    0.000    0.000    0.000 
#
# Total GULP energy -495673.771005 kJ/mol
# GULP energy per Si atom -12391.844275 kJ/mol
# Density = 1.888424 g / cm^3
# Si number density = 18.927324 Si / 1000 Ang^3
#
#
#
# Elastic Constant Matrix: (Units=GPa)
#
#
# Indices 1 2 3 4 5 6 
#
# 1 163.5778 63.2450 50.0500 0.0000 0.0000 0.0000
# 2 63.2450 115.8089 40.8433 0.0000 0.0000 0.0000
# 3 50.0500 40.8433 57.4767 0.0000 0.0000 0.0000
# 4 0.0000 0.0000 0.0000 13.9995 0.0000 0.0000
# 5 0.0000 0.0000 0.0000 0.0000 -0.7814 0.0000
# 6 0.0000 0.0000 0.0000 0.0000 0.0000 41.3684
#
#
#
# Elastic Compliance Matrix: (Units=1/GPa)
#
#
# Indices 1 2 3 4 5 6 
#
# 1 0.008995 -0.002869 -0.005794 0.000000 0.000000 0.000000
# 2 -0.002869 0.012438 -0.006340 0.000000 0.000000 0.000000
# 3 -0.005794 -0.006340 0.026949 0.000000 0.000000 0.000000
# 4 0.000000 0.000000 0.000000 0.071431 0.000000 0.000000
# 5 0.000000 0.000000 0.000000 0.000000 -1.279795 0.000000
# 6 0.000000 0.000000 0.000000 0.000000 0.000000 0.024173
#
#
# Mechanical properties :
#
#
# Convention : Reuss Voigt Hill
#
# Bulk Modulus (GPa) = 54.41992 71.68221 63.05106
# Shear Modulus (GPa) = -4.54679 23.09899 9.27610
#
# Velocity S-wave (km/s) = -1.55160 3.49722 2.21620
# Velocity P-wave (km/s) = 5.06009 7.36627 6.31927
#
# Compressibility (1/GPa) = 0.01837563
#
# Stress axis : x y z
#
# Youngs Moduli (GPa) = 111.16704 80.40065 37.10667
#
# Poissons Ratio (x) = 0.23067 0.21501
# Poissons Ratio (y) = 0.31894 0.23526
# Poissons Ratio (z) = 0.64415 0.50974
#
# Static dielectric constant tensor:
#      x y z
#    x 3.691630 0.000000 0.000000 
#    y 0.000000 4.051260 0.000000 
#    z 0.000000 0.000000 3.054330 
# 
# 
# High freq. dielectric constant tensor:
#      x y z
#    x 1.758690 0.000000 0.000000 
#    y 0.000000 1.755820 0.000000 
#    z 0.000000 0.000000 1.671100 
# 
# From -- ./inp_files/11207.got.cif
#   From: 2010.03.12/outbox.cif.g09.slc.cpg/sg67_6_cif.got.tgz:11207.got - 2010.04.10 22:41:39.
