data_PCOD8278708
_publ_section_title
;
Structure prediction by ZEFSAII (Michael W. Deem and Ramdas Pophale) SiO2 
 PCOD8278708
Probable space group: C M M A
;
_chemical_formula_sum "Si O2"
_cell_formula_units_Z 72
_cell_length_a 25.124483
_cell_length_b 8.888848
_cell_length_c 19.843805
_cell_angle_alpha 90.000000
_cell_angle_beta 90.000000
_cell_angle_gamma 90.000000
_cell_volume 4431.671538
_symmetry_space_group_name_H-M "C M M A"
_symmetry_group_IT_number 67
_symmetry_cell_setting 'orthorhombic'
loop_
_space_group_symop_operation_xyz
x,y,z
-x,1/2-y,z
x,-y,-z
-x,1/2+y,-z
-x,-y,-z
x,1/2+y,-z
-x,y,z
x,1/2-y,z
1/2+x,1/2+y,z
1/2-x,-y,z
1/2+x,1/2-y,-z
1/2-x,y,-z
1/2-x,1/2-y,-z
1/2+x,y,-z
1/2-x,1/2+y,z
1/2+x,-y,z
loop_
_atom_site_type_symbol
_atom_site_label
_atom_site_fract_x
_atom_site_fract_y
_atom_site_fract_z
Si Si1 0.500000 0.926930 0.427739
Si Si2 0.384836 0.427955 0.196588
Si Si3 0.696878 0.921317 0.281102
Si Si4 0.413833 0.921273 0.323610
Si Si5 0.938496 0.573732 0.929676
O O1 0.500000 0.750000 0.438454
O O2 0.447576 0.981649 0.386904
O O3 0.500000 0.000000 0.500000
O O4 0.383558 0.250000 0.191152
O O5 0.325786 0.492247 0.214774
O O6 0.425572 0.480020 0.256394
O O7 0.402448 0.497599 0.126545
O O8 0.709904 0.750000 0.261771
O O9 0.650149 0.929114 0.338550
O O10 0.750000 0.000000 0.308876
O O11 0.431253 0.750000 0.307524
O O12 0.926681 0.750000 0.932625
O O13 0.000000 0.539946 0.913497
O O14 0.921792 0.500000 0.000000
#
# Coordination Sequence:
#
# PCOD8278708 Si02
#       5
#     8  16  16  16  16
#     4  10  20  36  54  76 107 140 169 206 254 306
#     4  10  19  30  48  74 100 128 168 213 254 303
#     4   9  17  31  51  76 102 131 169 213 259 301
#     4   8  18  33  50  73 102 135 169 205 251 301
#     4  10  20  33  48  68  99 137 174 214 262 309
#
# _framework density 16.246691999999999
#
# number of rings (size 3 to 8) (size 9 to 14) (size 15 to 20)
#    1.333    1.333    0.000    2.667    1.556    2.222 
#    0.000    0.000    0.000    1.333    0.000    9.333 
#    0.000    0.000    0.000    0.000    0.000    0.000 
#
# Total GULP energy -445989.031441 kJ/mol
# GULP energy per Si atom -12388.584207 kJ/mol
# Density = 1.620971 g / cm^3
# Si number density = 16.246692 Si / 1000 Ang^3
#
#
#
# Elastic Constant Matrix: (Units=GPa)
#
#
# Indices 1 2 3 4 5 6 
#
# 1 102.2830 45.2013 54.6286 0.0000 0.0000 0.0000
# 2 45.2013 104.6706 46.0717 0.0000 0.0000 0.0000
# 3 54.6286 46.0717 99.1836 0.0000 0.0000 0.0000
# 4 0.0000 0.0000 0.0000 28.9884 0.0000 0.0000
# 5 0.0000 0.0000 0.0000 0.0000 7.8973 0.0000
# 6 0.0000 0.0000 0.0000 0.0000 0.0000 23.6589
#
#
#
# Elastic Compliance Matrix: (Units=1/GPa)
#
#
# Indices 1 2 3 4 5 6 
#
# 1 0.014820 -0.003529 -0.006524 0.000000 0.000000 0.000000
# 2 -0.003529 0.012849 -0.004025 0.000000 0.000000 0.000000
# 3 -0.006524 -0.004025 0.015545 0.000000 0.000000 0.000000
# 4 0.000000 0.000000 0.000000 0.034497 0.000000 0.000000
# 5 0.000000 0.000000 0.000000 0.000000 0.126625 0.000000
# 6 0.000000 0.000000 0.000000 0.000000 0.000000 0.042267
#
#
# Mechanical properties :
#
#
# Convention : Reuss Voigt Hill
#
# Bulk Modulus (GPa) = 66.40135 66.43781 66.41958
# Shear Modulus (GPa) = 17.87127 22.79131 20.33129
#
# Velocity S-wave (km/s) = 3.32021 3.74950 3.54137
# Velocity P-wave (km/s) = 7.46042 7.72832 7.59555
#
# Compressibility (1/GPa) = 0.01505994
#
# Stress axis : x y z
#
# Youngs Moduli (GPa) = 67.47418 77.82542 64.32851
#
# Poissons Ratio (x) = 0.27462 0.41967
# Poissons Ratio (y) = 0.23809 0.25893
# Poissons Ratio (z) = 0.44019 0.31326
#
# Static dielectric constant tensor:
#      x y z
#    x 3.027760 0.000000 0.000000 
#    y 0.000000 3.122580 0.000000 
#    z 0.000000 0.000000 2.841400 
# 
# 
# High freq. dielectric constant tensor:
#      x y z
#    x 1.611300 0.000000 0.000000 
#    y 0.000000 1.637370 0.000000 
#    z 0.000000 0.000000 1.595420 
# 
# From -- ./inp_files/39487.got.cif
#   From: 2010.03.12/outbox.cif.g09.slc.cpg/sg67_20_cif.got.tgz:39487.got - 2010.04.10 22:41:39.
