data_PCOD8278625
_publ_section_title
;
Structure prediction by ZEFSAII (Michael W. Deem and Ramdas Pophale) SiO2 
 PCOD8278625
Probable space group: C M M A
;
_chemical_formula_sum "Si O2"
_cell_formula_units_Z 128
_cell_length_a 26.090714
_cell_length_b 17.279499
_cell_length_c 17.678565
_cell_angle_alpha 90.000000
_cell_angle_beta 90.000000
_cell_angle_gamma 90.000000
_cell_volume 7970.106420
_symmetry_space_group_name_H-M "C M M A"
_symmetry_group_IT_number 67
_symmetry_cell_setting 'orthorhombic'
loop_
_space_group_symop_operation_xyz
x,y,z
-x,1/2-y,z
x,-y,-z
-x,1/2+y,-z
-x,-y,-z
x,1/2+y,-z
-x,y,z
x,1/2-y,z
1/2+x,1/2+y,z
1/2-x,-y,z
1/2+x,1/2-y,-z
1/2-x,y,-z
1/2-x,1/2-y,-z
1/2+x,y,-z
1/2-x,1/2+y,z
1/2+x,-y,z
loop_
_atom_site_type_symbol
_atom_site_label
_atom_site_fract_x
_atom_site_fract_y
_atom_site_fract_z
Si Si1 0.151091 0.159256 0.900489
Si Si2 0.632681 0.574266 0.044556
Si Si3 0.598780 0.461471 0.738872
Si Si4 0.558454 0.610129 0.811940
Si Si5 0.439402 0.660208 0.155694
Si Si6 0.439294 0.168099 0.345974
Si Si7 0.560989 0.514601 0.584024
Si Si8 0.191485 0.488233 0.827029
O O1 0.164624 0.250000 0.888245
O O2 0.091493 0.139430 0.882836
O O3 0.184334 0.103228 0.845943
O O4 0.160075 0.135270 0.987878
O O5 0.585570 0.616690 0.084628
O O6 0.675646 0.543026 0.102685
O O7 0.610104 0.500000 0.000000
O O8 0.564141 0.519647 0.790085
O O9 0.584257 0.375747 0.767279
O O10 0.586887 0.462307 0.649093
O O11 0.657795 0.485569 0.754398
O O12 0.500000 0.628511 0.832260
O O13 0.579878 0.657115 0.739551
O O14 0.500000 0.648723 0.152481
O O15 0.424065 0.750000 0.154132
O O16 0.500000 0.164857 0.342949
O O17 0.418943 0.250000 0.377392
O O18 0.420035 0.101835 0.401459
O O19 0.581900 0.500000 0.500000
O O20 0.500000 0.502641 0.589020
O O21 0.250000 0.500000 0.804971
#
# Coordination Sequence:
#
# PCOD8278625 Si02
#       8
#    16  16  16  16  16  16  16  16
#     4  10  19  29  43  68  94 111 140 187 233 272
#     4   9  19  32  46  63  86 117 148 187 234 282
#     4   9  17  31  49  65  86 117 153 187 218 263
#     4   9  16  26  43  65  91 122 148 173 215 276
#     4  10  19  30  44  63  90 125 162 193 217 251
#     4   8  13  22  36  56  83 115 148 176 203 240
#     4   9  16  26  43  68  96 122 145 169 204 259
#     4   9  19  36  52  63  79 111 152 190 231 274
#
# _framework density 16.060010999999999
#
# number of rings (size 3 to 8) (size 9 to 14) (size 15 to 20)
#    0.000    2.875    0.000    3.375    0.000    3.750 
#    0.000    4.375    0.000    2.625    0.000    0.000 
#    0.000    0.000    0.000   13.625    0.000    0.875 
#
# Total GULP energy -793086.759320 kJ/mol
# GULP energy per Si atom -12391.980614 kJ/mol
# Density = 1.602346 g / cm^3
# Si number density = 16.060011 Si / 1000 Ang^3
#
#
#
# Elastic Constant Matrix: (Units=GPa)
#
#
# Indices 1 2 3 4 5 6 
#
# 1 77.2549 29.6465 27.6116 0.0000 0.0000 0.0000
# 2 29.6465 98.3753 27.4599 0.0000 0.0000 0.0000
# 3 27.6116 27.4599 82.1131 0.0000 0.0000 0.0000
# 4 0.0000 0.0000 0.0000 -3.2258 0.0000 0.0000
# 5 0.0000 0.0000 0.0000 0.0000 13.2819 0.0000
# 6 0.0000 0.0000 0.0000 0.0000 0.0000 11.0799
#
#
#
# Elastic Compliance Matrix: (Units=1/GPa)
#
#
# Indices 1 2 3 4 5 6 
#
# 1 0.015798 -0.003616 -0.004103 0.000000 0.000000 0.000000
# 2 -0.003616 0.012039 -0.002810 0.000000 0.000000 0.000000
# 3 -0.004103 -0.002810 0.014498 0.000000 0.000000 0.000000
# 4 0.000000 0.000000 0.000000 -0.310004 0.000000 0.000000
# 5 0.000000 0.000000 0.000000 0.000000 0.075290 0.000000
# 6 0.000000 0.000000 0.000000 0.000000 0.000000 0.090254
#
#
# Mechanical properties :
#
#
# Convention : Reuss Voigt Hill
#
# Bulk Modulus (GPa) = 46.99908 47.46436 47.23172
# Shear Modulus (GPa) = -67.59178 15.76222 -25.91478
#
# Velocity S-wave (km/s) = -6.49449 3.13622 -4.02135
# Velocity P-wave (km/s) = 5.18745 6.53705 2.81278
#
# Compressibility (1/GPa) = 0.02127701
#
# Stress axis : x y z
#
# Youngs Moduli (GPa) = 63.29841 83.06196 68.97552
#
# Poissons Ratio (x) = 0.30032 0.28302
# Poissons Ratio (y) = 0.22886 0.19384
# Poissons Ratio (z) = 0.25973 0.23343
#
# Static dielectric constant tensor:
#      x y z
#    x 2.699320 0.000000 0.000000 
#    y 0.000000 3.232930 0.000000 
#    z 0.000000 0.000000 2.969480 
# 
# 
# High freq. dielectric constant tensor:
#      x y z
#    x 1.577670 0.000000 0.000000 
#    y 0.000000 1.624120 0.000000 
#    z 0.000000 0.000000 1.597560 
# 
# From -- ./inp_files/35613.got.cif
#   From: 2010.03.12/outbox.cif.g09.slc.cpg/sg67_18_cif.got.tgz:35613.got - 2010.04.10 22:41:39.
