data_PCOD8278960
_publ_section_title
;
Structure prediction by ZEFSAII (Michael W. Deem and Ramdas Pophale) SiO2 
 PCOD8278960
Probable space group: C M M A
;
_chemical_formula_sum "Si O2"
_cell_formula_units_Z 56
_cell_length_a 16.052873
_cell_length_b 8.525707
_cell_length_c 19.731981
_cell_angle_alpha 90.000000
_cell_angle_beta 90.000000
_cell_angle_gamma 90.000000
_cell_volume 2700.560193
_symmetry_space_group_name_H-M "C M M A"
_symmetry_group_IT_number 67
_symmetry_cell_setting 'orthorhombic'
loop_
_space_group_symop_operation_xyz
x,y,z
-x,1/2-y,z
x,-y,-z
-x,1/2+y,-z
-x,-y,-z
x,1/2+y,-z
-x,y,z
x,1/2-y,z
1/2+x,1/2+y,z
1/2-x,-y,z
1/2+x,1/2-y,-z
1/2-x,y,-z
1/2-x,1/2-y,-z
1/2+x,y,-z
1/2-x,1/2+y,z
1/2+x,-y,z
loop_
_atom_site_type_symbol
_atom_site_label
_atom_site_fract_x
_atom_site_fract_y
_atom_site_fract_z
Si Si1 0.000000 0.064295 0.924862
Si Si2 0.157833 0.063904 0.431904
Si Si3 0.338518 0.064278 0.848854
Si Si4 0.091681 0.064251 0.290595
O O1 0.000000 0.250000 0.925004
O O2 0.084163 0.005484 0.889522
O O3 0.000000 0.000000 0.000000
O O4 0.156046 0.250000 0.432694
O O5 0.116795 0.994243 0.363612
O O6 0.111567 0.000000 0.500000
O O7 0.250000 0.000000 0.432706
O O8 0.340879 0.250000 0.857553
O O9 0.346973 0.011848 0.769924
O O10 0.250000 0.000000 0.876301
O O11 0.091356 0.250000 0.296228
O O12 0.000000 0.001223 0.272129
#
# Coordination Sequence:
#
# PCOD8278960 Si02
#       4
#     8  16  16  16
#     4  12  26  46  70 100 133 168 209 254 309 372
#     4  10  19  32  51  74 107 149 197 250 306 365
#     4  11  22  41  68  97 131 170 212 260 314 373
#     4   9  18  34  57  83 115 157 201 251 311 369
#
# _framework density 20.736438
#
# number of rings (size 3 to 8) (size 9 to 14) (size 15 to 20)
#    0.000    1.714    1.429    4.714    0.000    1.143 
#    0.000    7.143    0.000    0.000    0.000    0.000 
#    0.000    0.000    0.000    0.000    0.000    0.000 
#
# Total GULP energy -347050.208140 kJ/mol
# GULP energy per Si atom -12394.650291 kJ/mol
# Density = 2.068924 g / cm^3
# Si number density = 20.736438 Si / 1000 Ang^3
#
#
#
# Elastic Constant Matrix: (Units=GPa)
#
#
# Indices 1 2 3 4 5 6 
#
# 1 150.1661 44.4114 71.2989 0.0000 0.0000 0.0000
# 2 44.4114 100.7100 53.1798 0.0000 0.0000 0.0000
# 3 71.2989 53.1798 161.4240 0.0000 0.0000 0.0000
# 4 0.0000 0.0000 0.0000 8.7018 0.0000 0.0000
# 5 0.0000 0.0000 0.0000 0.0000 27.2807 0.0000
# 6 0.0000 0.0000 0.0000 0.0000 0.0000 28.0315
#
#
#
# Elastic Compliance Matrix: (Units=1/GPa)
#
#
# Indices 1 2 3 4 5 6 
#
# 1 0.008817 -0.002218 -0.003164 0.000000 0.000000 0.000000
# 2 -0.002218 0.012578 -0.003164 0.000000 0.000000 0.000000
# 3 -0.003164 -0.003164 0.008635 0.000000 0.000000 0.000000
# 4 0.000000 0.000000 0.000000 0.114919 0.000000 0.000000
# 5 0.000000 0.000000 0.000000 0.000000 0.036656 0.000000
# 6 0.000000 0.000000 0.000000 0.000000 0.000000 0.035674
#
#
# Mechanical properties :
#
#
# Convention : Reuss Voigt Hill
#
# Bulk Modulus (GPa) = 77.28724 83.34226 80.31475
# Shear Modulus (GPa) = 20.94819 29.03015 24.98917
#
# Velocity S-wave (km/s) = 3.18183 3.74566 3.47520
# Velocity P-wave (km/s) = 7.13098 7.68018 7.41067
#
# Compressibility (1/GPa) = 0.01293875
#
# Stress axis : x y z
#
# Youngs Moduli (GPa) = 113.41222 79.50169 115.81023
#
# Poissons Ratio (x) = 0.17630 0.36642
# Poissons Ratio (y) = 0.25150 0.36646
# Poissons Ratio (z) = 0.35883 0.25157
#
# Static dielectric constant tensor:
#      x y z
#    x 3.778400 0.000000 0.000000 
#    y 0.000000 3.576280 0.000000 
#    z 0.000000 0.000000 4.417670 
# 
# 
# High freq. dielectric constant tensor:
#      x y z
#    x 1.812360 0.000000 0.000000 
#    y 0.000000 1.793250 0.000000 
#    z 0.000000 0.000000 1.828380 
# 
# From -- ./inp_files/33930.got.cif
#   From: 2010.03.12/outbox.cif.g09.slc.cpg/sg67_17_cif.got.tgz:33930.got - 2010.04.10 22:41:39.
