data_PCOD8278683
_publ_section_title
;
Structure prediction by ZEFSAII (Michael W. Deem and Ramdas Pophale) SiO2 
 PCOD8278683
Probable space group: C M M A
;
_chemical_formula_sum "Si O2"
_cell_formula_units_Z 104
_cell_length_a 26.206351
_cell_length_b 9.440860
_cell_length_c 24.017973
_cell_angle_alpha 90.000000
_cell_angle_beta 90.000000
_cell_angle_gamma 90.000000
_cell_volume 5942.298490
_symmetry_space_group_name_H-M "C M M A"
_symmetry_group_IT_number 67
_symmetry_cell_setting 'orthorhombic'
loop_
_space_group_symop_operation_xyz
x,y,z
-x,1/2-y,z
x,-y,-z
-x,1/2+y,-z
-x,-y,-z
x,1/2+y,-z
-x,y,z
x,1/2-y,z
1/2+x,1/2+y,z
1/2-x,-y,z
1/2+x,1/2-y,-z
1/2-x,y,-z
1/2-x,1/2-y,-z
1/2+x,y,-z
1/2-x,1/2+y,z
1/2+x,-y,z
loop_
_atom_site_type_symbol
_atom_site_label
_atom_site_fract_x
_atom_site_fract_y
_atom_site_fract_z
Si Si1 0.000000 0.583108 0.942961
Si Si2 0.559054 0.085658 0.446830
Si Si3 0.398003 0.083971 0.876824
Si Si4 0.801095 0.583082 0.139009
Si Si5 0.399502 0.584245 0.670061
Si Si6 0.056939 0.593658 0.761435
Si Si7 0.297998 0.087632 0.269118
O O1 0.051517 0.538245 0.910526
O O2 0.000000 0.750000 0.954134
O O3 0.000000 0.500000 0.000000
O O4 0.500000 0.050846 0.434550
O O5 0.567084 0.250000 0.459800
O O6 0.592116 0.036597 0.393600
O O7 0.579355 0.000000 0.500000
O O8 0.385716 0.250000 0.886274
O O9 0.406604 0.049732 0.811903
O O10 0.349041 0.987913 0.893808
O O11 0.796823 0.750000 0.123947
O O12 0.750000 0.500000 0.120140
O O13 0.810097 0.559865 0.204586
O O14 0.408621 0.750000 0.676182
O O15 0.440857 0.511756 0.709636
O O16 0.344249 0.536857 0.691880
O O17 0.071924 0.750000 0.739950
O O18 0.000000 0.593299 0.785969
O O19 0.285133 0.250000 0.279752
O O20 0.250000 0.000000 0.290012
#
# Coordination Sequence:
#
# PCOD8278683 Si02
#       7
#     8  16  16  16  16  16  16
#     4  10  22  40  60  82 112 150 189 224 263 310
#     4   9  18  32  49  67  91 124 161 203 250 298
#     4  10  19  34  54  77 109 145 177 217 263 310
#     4  10  19  32  51  78 109 143 180 218 263 318
#     4  10  19  32  48  70  98 129 164 206 255 304
#     4  10  19  30  46  72 104 136 166 200 250 308
#     4   9  18  30  45  68  99 130 163 202 246 301
#
# _framework density 17.501645
#
# number of rings (size 3 to 8) (size 9 to 14) (size 15 to 20)
#    0.000    2.308    2.308    0.923    0.000    3.385 
#    0.000    1.538    0.000    0.923    0.000    6.462 
#    0.000    0.000    0.000    0.000    0.000    0.000 
#
# Total GULP energy -644682.560565 kJ/mol
# GULP energy per Si atom -12397.741549 kJ/mol
# Density = 1.746181 g / cm^3
# Si number density = 17.501645 Si / 1000 Ang^3
#
#
#
# Elastic Constant Matrix: (Units=GPa)
#
#
# Indices 1 2 3 4 5 6 
#
# 1 120.0116 56.6412 38.9094 0.0000 0.0000 0.0000
# 2 56.6412 65.3296 38.8780 0.0000 0.0000 0.0000
# 3 38.9094 38.8780 66.2836 0.0000 0.0000 0.0000
# 4 0.0000 0.0000 0.0000 27.3089 0.0000 0.0000
# 5 0.0000 0.0000 0.0000 0.0000 15.9976 0.0000
# 6 0.0000 0.0000 0.0000 0.0000 0.0000 31.7030
#
#
#
# Elastic Compliance Matrix: (Units=1/GPa)
#
#
# Indices 1 2 3 4 5 6 
#
# 1 0.014230 -0.011316 -0.001716 0.000000 0.000000 0.000000
# 2 -0.011316 0.032514 -0.012428 0.000000 0.000000 0.000000
# 3 -0.001716 -0.012428 0.023383 0.000000 0.000000 0.000000
# 4 0.000000 0.000000 0.000000 0.036618 0.000000 0.000000
# 5 0.000000 0.000000 0.000000 0.000000 0.062510 0.000000
# 6 0.000000 0.000000 0.000000 0.000000 0.000000 0.031543
#
#
# Mechanical properties :
#
#
# Convention : Reuss Voigt Hill
#
# Bulk Modulus (GPa) = 52.06333 57.83134 54.94733
# Shear Modulus (GPa) = 19.37084 22.81497 21.09291
#
# Velocity S-wave (km/s) = 3.33047 3.61444 3.47536
# Velocity P-wave (km/s) = 6.67845 7.10873 6.89694
#
# Compressibility (1/GPa) = 0.01920738
#
# Stress axis : x y z
#
# Youngs Moduli (GPa) = 70.27611 30.75570 42.76546
#
# Poissons Ratio (x) = 0.34804 0.07337
# Poissons Ratio (y) = 0.79526 0.53150
# Poissons Ratio (z) = 0.12056 0.38224
#
# Static dielectric constant tensor:
#      x y z
#    x 3.281800 0.000000 0.000000 
#    y 0.000000 3.249340 0.000000 
#    z 0.000000 0.000000 3.036360 
# 
# 
# High freq. dielectric constant tensor:
#      x y z
#    x 1.676780 0.000000 0.000000 
#    y 0.000000 1.677270 0.000000 
#    z 0.000000 0.000000 1.647440 
# 
# From -- ./inp_files/40985.got.cif
#   From: 2010.03.12/outbox.cif.g09.slc.cpg/sg67_21_cif.got.tgz:40985.got - 2010.04.10 22:41:39.
