data_PCOD8278392
_publ_section_title
;
Structure prediction by ZEFSAII (Michael W. Deem and Ramdas Pophale) SiO2 
 PCOD8278392
Probable space group: C M M A
;
_chemical_formula_sum "Si O2"
_cell_formula_units_Z 128
_cell_length_a 19.576581
_cell_length_b 19.742433
_cell_length_c 19.534779
_cell_angle_alpha 90.000000
_cell_angle_beta 90.000000
_cell_angle_gamma 90.000000
_cell_volume 7549.983819
_symmetry_space_group_name_H-M "C M M A"
_symmetry_group_IT_number 67
_symmetry_cell_setting 'orthorhombic'
loop_
_space_group_symop_operation_xyz
x,y,z
-x,1/2-y,z
x,-y,-z
-x,1/2+y,-z
-x,-y,-z
x,1/2+y,-z
-x,y,z
x,1/2-y,z
1/2+x,1/2+y,z
1/2-x,-y,z
1/2+x,1/2-y,-z
1/2-x,y,-z
1/2-x,1/2-y,-z
1/2+x,y,-z
1/2-x,1/2+y,z
1/2+x,-y,z
loop_
_atom_site_type_symbol
_atom_site_label
_atom_site_fract_x
_atom_site_fract_y
_atom_site_fract_z
Si Si1 0.839320 0.326730 0.809842
Si Si2 0.828101 0.074471 0.021373
Si Si3 0.823084 0.171068 0.657308
Si Si4 0.292482 0.068188 0.681801
Si Si5 0.923279 0.171890 0.937528
Si Si6 0.077157 0.443178 0.406825
Si Si7 0.923388 0.098712 0.556634
Si Si8 0.720544 0.072367 0.837228
O O1 0.812111 0.250000 0.813661
O O2 0.858357 0.344588 0.731050
O O3 0.905421 0.337743 0.857117
O O4 0.780086 0.372841 0.840009
O O5 0.835005 0.087340 0.103545
O O6 0.750000 0.085716 0.000000
O O7 0.874526 0.129856 0.986014
O O8 0.854132 0.000000 0.000000
O O9 0.807479 0.250000 0.646979
O O10 0.751459 0.131615 0.655685
O O11 0.871806 0.147265 0.596333
O O12 0.366080 0.076060 0.647877
O O13 0.311585 0.070567 0.761857
O O14 0.250000 0.000000 0.663528
O O15 0.915521 0.250000 0.958646
O O16 0.000000 0.145844 0.947607
O O17 0.093523 0.401562 0.475956
O O18 0.083163 0.522866 0.417126
O O19 0.000000 0.425380 0.381666
O O20 0.000000 0.126106 0.568992
O O21 0.750000 0.000000 0.858278
#
# Coordination Sequence:
#
# PCOD8278392 Si02
#       8
#    16  16  16  16  16  16  16  16
#     4   9  18  32  50  72 103 138 170 206 259 317
#     4  11  19  33  53  75 102 137 172 215 260 309
#     4  10  20  33  51  81 113 136 168 216 270 318
#     4  10  19  33  55  79 104 138 177 222 262 306
#     4  10  21  35  51  75 105 137 177 218 256 309
#     4   9  18  35  55  75 101 136 178 216 250 300
#     4   9  18  33  52  75 104 137 175 211 251 312
#     4  10  18  31  51  76 102 130 174 217 256 304
#
# _framework density 16.953678
#
# number of rings (size 3 to 8) (size 9 to 14) (size 15 to 20)
#    0.000    2.250    3.750    0.750    0.000    2.250 
#    0.000    3.125    0.000    1.125    0.000    0.000 
#    0.000    0.000    0.000    0.000    0.000    0.000 
#
# Total GULP energy -793357.877764 kJ/mol
# GULP energy per Si atom -12396.216840 kJ/mol
# Density = 1.691509 g / cm^3
# Si number density = 16.953678 Si / 1000 Ang^3
#
#
#
# Elastic Constant Matrix: (Units=GPa)
#
#
# Indices 1 2 3 4 5 6 
#
# 1 106.0291 50.0328 70.4909 0.0000 0.0000 0.0000
# 2 50.0328 83.1320 43.4201 0.0000 0.0000 0.0000
# 3 70.4909 43.4201 109.5724 0.0000 0.0000 0.0000
# 4 0.0000 0.0000 0.0000 35.4903 0.0000 0.0000
# 5 0.0000 0.0000 0.0000 0.0000 26.0547 0.0000
# 6 0.0000 0.0000 0.0000 0.0000 0.0000 22.8052
#
#
#
# Elastic Compliance Matrix: (Units=1/GPa)
#
#
# Indices 1 2 3 4 5 6 
#
# 1 0.018771 -0.006292 -0.009583 0.000000 0.000000 0.000000
# 2 -0.006292 0.017278 -0.002799 0.000000 0.000000 0.000000
# 3 -0.009583 -0.002799 0.016400 0.000000 0.000000 0.000000
# 4 0.000000 0.000000 0.000000 0.028177 0.000000 0.000000
# 5 0.000000 0.000000 0.000000 0.000000 0.038381 0.000000
# 6 0.000000 0.000000 0.000000 0.000000 0.000000 0.043850
#
#
# Mechanical properties :
#
#
# Convention : Reuss Voigt Hill
#
# Bulk Modulus (GPa) = 66.21613 69.62456 67.92034
# Shear Modulus (GPa) = 24.36195 25.85602 25.10899
#
# Velocity S-wave (km/s) = 3.79485 3.90949 3.85260
# Velocity P-wave (km/s) = 7.63826 7.84445 7.74205
#
# Compressibility (1/GPa) = 0.01510206
#
# Stress axis : x y z
#
# Youngs Moduli (GPa) = 53.27230 57.87750 60.97501
#
# Poissons Ratio (x) = 0.36419 0.58430
# Poissons Ratio (y) = 0.33522 0.17064
# Poissons Ratio (z) = 0.51049 0.16197
#
# Static dielectric constant tensor:
#      x y z
#    x 3.198910 0.000000 0.000000 
#    y 0.000000 3.165610 0.000000 
#    z 0.000000 0.000000 3.384680 
# 
# 
# High freq. dielectric constant tensor:
#      x y z
#    x 1.631720 0.000000 0.000000 
#    y 0.000000 1.650620 0.000000 
#    z 0.000000 0.000000 1.662560 
# 
# From -- ./inp_files/39159.got.cif
#   From: 2010.03.12/outbox.cif.g09.slc.cpg/sg67_20_cif.got.tgz:39159.got - 2010.04.10 22:41:39.
