data_PCOD8278433
_publ_section_title
;
Structure prediction by ZEFSAII (Michael W. Deem and Ramdas Pophale) SiO2 
 PCOD8278433
Probable space group: C M M A
;
_chemical_formula_sum "Si O2"
_cell_formula_units_Z 104
_cell_length_a 8.756727
_cell_length_b 32.805972
_cell_length_c 19.620578
_cell_angle_alpha 90.000000
_cell_angle_beta 90.000000
_cell_angle_gamma 90.000000
_cell_volume 5636.461142
_symmetry_space_group_name_H-M "C M M A"
_symmetry_group_IT_number 67
_symmetry_cell_setting 'orthorhombic'
loop_
_space_group_symop_operation_xyz
x,y,z
-x,1/2-y,z
x,-y,-z
-x,1/2+y,-z
-x,-y,-z
x,1/2+y,-z
-x,y,z
x,1/2-y,z
1/2+x,1/2+y,z
1/2-x,-y,z
1/2+x,1/2-y,-z
1/2-x,y,-z
1/2-x,1/2-y,-z
1/2+x,y,-z
1/2-x,1/2+y,z
1/2+x,-y,z
loop_
_atom_site_type_symbol
_atom_site_label
_atom_site_fract_x
_atom_site_fract_y
_atom_site_fract_z
Si Si1 0.175597 0.879983 0.185442
Si Si2 0.329567 0.539046 0.195521
Si Si3 0.179988 0.873428 0.340241
Si Si4 0.822341 0.829921 0.926808
Si Si5 0.180325 0.250000 0.925099
Si Si6 0.168651 0.540774 0.644391
Si Si7 0.680492 0.704208 0.573528
O O1 0.202688 0.927610 0.179303
O O2 0.224331 0.865865 0.261234
O O3 0.291439 0.863923 0.128675
O O4 0.000000 0.868792 0.169231
O O5 0.500000 0.547111 0.164923
O O6 0.250000 0.500000 0.161735
O O7 0.346200 0.533719 0.275793
O O8 0.249347 0.915581 0.370517
O O9 0.240761 0.832563 0.378264
O O10 0.000000 0.878458 0.347770
O O11 0.744485 0.790615 0.890500
O O12 0.000000 0.822614 0.938803
O O13 0.750000 0.840938 0.000000
O O14 0.000000 0.250000 0.925027
O O15 0.250000 0.250000 0.000000
O O16 0.250000 0.500000 0.613140
O O17 0.000000 0.543446 0.611474
O O18 0.500000 0.701619 0.567708
O O19 0.727512 0.750000 0.600157
O O20 0.750000 0.696331 0.500000
#
# Coordination Sequence:
#
# PCOD8278433 Si02
#       7
#    16  16  16  16   8  16  16
#     4  10  19  32  49  74 103 133 168 209 255 302
#     4   9  16  27  44  68  96 130 166 206 250 298
#     4   9  18  32  50  74 105 136 170 213 258 307
#     4  11  21  35  53  73  99 131 169 210 252 303
#     4  10  18  32  52  72  92 120 159 200 241 292
#     4   9  16  26  44  70 100 133 168 206 252 305
#     4   9  18  34  55  77 102 135 176 214 252 300
#
# _framework density 18.451293
#
# number of rings (size 3 to 8) (size 9 to 14) (size 15 to 20)
#    0.000    2.462    0.000    4.385    0.000    4.923 
#    1.385    0.000    0.000    0.923    0.000    6.462 
#    0.000    0.000    0.000    0.000    0.000    0.000 
#
# Total GULP energy -644232.643769 kJ/mol
# GULP energy per Si atom -12389.089303 kJ/mol
# Density = 1.840930 g / cm^3
# Si number density = 18.451293 Si / 1000 Ang^3
#
#
#
# Elastic Constant Matrix: (Units=GPa)
#
#
# Indices 1 2 3 4 5 6 
#
# 1 100.5890 43.4089 27.9189 0.0000 0.0000 0.0000
# 2 43.4089 143.9212 57.4078 0.0000 0.0000 0.0000
# 3 27.9189 57.4078 58.0878 0.0000 0.0000 0.0000
# 4 0.0000 0.0000 0.0000 8.0583 0.0000 0.0000
# 5 0.0000 0.0000 0.0000 0.0000 20.3695 0.0000
# 6 0.0000 0.0000 0.0000 0.0000 0.0000 32.7965
#
#
#
# Elastic Compliance Matrix: (Units=1/GPa)
#
#
# Indices 1 2 3 4 5 6 
#
# 1 0.011862 -0.002152 -0.003575 0.000000 0.000000 0.000000
# 2 -0.002152 0.011860 -0.010687 0.000000 0.000000 0.000000
# 3 -0.003575 -0.010687 0.029495 0.000000 0.000000 0.000000
# 4 0.000000 0.000000 0.000000 0.124096 0.000000 0.000000
# 5 0.000000 0.000000 0.000000 0.000000 0.049093 0.000000
# 6 0.000000 0.000000 0.000000 0.000000 0.000000 0.030491
#
#
# Mechanical properties :
#
#
# Convention : Reuss Voigt Hill
#
# Bulk Modulus (GPa) = 49.04236 62.22992 55.63614
# Shear Modulus (GPa) = 16.86215 23.83567 20.34891
#
# Velocity S-wave (km/s) = 3.02631 3.59808 3.32451
# Velocity P-wave (km/s) = 6.23286 7.14573 6.70485
#
# Compressibility (1/GPa) = 0.02039054
#
# Stress axis : x y z
#
# Youngs Moduli (GPa) = 84.30086 84.31543 33.90359
#
# Poissons Ratio (x) = 0.18145 0.12119
# Poissons Ratio (y) = 0.18141 0.36233
# Poissons Ratio (z) = 0.30134 0.90109
#
# Static dielectric constant tensor:
#      x y z
#    x 3.506900 0.000000 0.000000 
#    y 0.000000 4.115710 0.000000 
#    z 0.000000 0.000000 3.009010 
# 
# 
# High freq. dielectric constant tensor:
#      x y z
#    x 1.725270 0.000000 0.000000 
#    y 0.000000 1.731360 0.000000 
#    z 0.000000 0.000000 1.663590 
# 
# From -- ./inp_files/41001.got.cif
#   From: 2010.03.12/outbox.cif.g09.slc.cpg/sg67_21_cif.got.tgz:41001.got - 2010.04.10 22:41:39.
