data_PCOD8278047
_publ_section_title
;
Structure prediction by ZEFSAII (Michael W. Deem and Ramdas Pophale) SiO2 
 PCOD8278047
Probable space group: C M M A
;
_chemical_formula_sum "Si O2"
_cell_formula_units_Z 104
_cell_length_a 8.895734
_cell_length_b 26.747968
_cell_length_c 24.558707
_cell_angle_alpha 90.000000
_cell_angle_beta 90.000000
_cell_angle_gamma 90.000000
_cell_volume 5843.567713
_symmetry_space_group_name_H-M "C M M A"
_symmetry_group_IT_number 67
_symmetry_cell_setting 'orthorhombic'
loop_
_space_group_symop_operation_xyz
x,y,z
-x,1/2-y,z
x,-y,-z
-x,1/2+y,-z
-x,-y,-z
x,1/2+y,-z
-x,y,z
x,1/2-y,z
1/2+x,1/2+y,z
1/2-x,-y,z
1/2+x,1/2-y,-z
1/2-x,y,-z
1/2-x,1/2-y,-z
1/2+x,y,-z
1/2-x,1/2+y,z
1/2+x,-y,z
loop_
_atom_site_type_symbol
_atom_site_label
_atom_site_fract_x
_atom_site_fract_y
_atom_site_fract_z
Si Si1 0.168795 0.309693 0.054138
Si Si2 0.334626 0.807460 0.840662
Si Si3 0.323862 0.852557 0.254758
Si Si4 0.677839 0.048282 0.261700
Si Si5 0.822725 0.750000 0.441300
Si Si6 0.326233 0.340659 0.619658
Si Si7 0.176691 0.547924 0.620211
O O1 0.168045 0.250000 0.055183
O O2 0.252604 0.332191 0.107270
O O3 0.000000 0.330680 0.054446
O O4 0.250000 0.329750 0.000000
O O5 0.500000 0.831940 0.832141
O O6 0.355875 0.750000 0.854436
O O7 0.233305 0.810159 0.786130
O O8 0.500000 0.861454 0.249778
O O9 0.237264 0.901760 0.233178
O O10 0.281632 0.838750 0.316716
O O11 0.500000 0.045207 0.260434
O O12 0.738799 0.049422 0.322904
O O13 0.750000 0.000000 0.231750
O O14 0.750000 0.750000 0.500000
O O15 0.775504 0.800363 0.410392
O O16 0.000000 0.750000 0.447503
O O17 0.500000 0.325678 0.611998
O O18 0.297944 0.396667 0.594213
O O19 0.250000 0.500000 0.587246
O O20 0.000000 0.538463 0.628745
#
# Coordination Sequence:
#
# PCOD8278047 Si02
#       7
#    16  16  16  16   8  16  16
#     4   9  16  27  43  61  83 117 161 205 248 292
#     4  10  20  31  43  64  95 129 165 205 245 291
#     4  10  20  33  49  71 100 133 164 199 246 296
#     4  10  17  27  44  66  95 128 162 199 238 288
#     4  12  26  42  62  80 100 132 173 216 255 294
#     4   9  20  37  55  77 105 136 170 207 252 302
#     4   9  16  28  49  77 106 135 163 200 245 297
#
# _framework density 17.797346999999998
#
# number of rings (size 3 to 8) (size 9 to 14) (size 15 to 20)
#    0.000    2.308    0.000    5.769    1.077    6.462 
#    0.000    0.000    0.000    0.462    0.000    3.231 
#    0.000    0.615    0.000    6.154    0.000    4.154 
#
# Total GULP energy -644376.064905 kJ/mol
# GULP energy per Si atom -12391.847402 kJ/mol
# Density = 1.775684 g / cm^3
# Si number density = 17.797347 Si / 1000 Ang^3
#
#
#
# Elastic Constant Matrix: (Units=GPa)
#
#
# Indices 1 2 3 4 5 6 
#
# 1 151.8792 49.5597 54.5243 0.0000 0.0000 0.0000
# 2 49.5597 80.9906 36.1098 0.0000 0.0000 0.0000
# 3 54.5243 36.1098 84.1056 0.0000 0.0000 0.0000
# 4 0.0000 0.0000 0.0000 0.7492 0.0000 0.0000
# 5 0.0000 0.0000 0.0000 0.0000 26.9396 0.0000
# 6 0.0000 0.0000 0.0000 0.0000 0.0000 31.1669
#
#
#
# Elastic Compliance Matrix: (Units=1/GPa)
#
#
# Indices 1 2 3 4 5 6 
#
# 1 0.009426 -0.003764 -0.004495 0.000000 0.000000 0.000000
# 2 -0.003764 0.016773 -0.004761 0.000000 0.000000 0.000000
# 3 -0.004495 -0.004761 0.016848 0.000000 0.000000 0.000000
# 4 0.000000 0.000000 0.000000 1.334806 0.000000 0.000000
# 5 0.000000 0.000000 0.000000 0.000000 0.037120 0.000000
# 6 0.000000 0.000000 0.000000 0.000000 0.000000 0.032085
#
#
# Mechanical properties :
#
#
# Convention : Reuss Voigt Hill
#
# Bulk Modulus (GPa) = 58.79875 66.37366 62.58620
# Shear Modulus (GPa) = 3.38120 23.55656 13.46888
#
# Velocity S-wave (km/s) = 1.37984 3.64208 2.75397
# Velocity P-wave (km/s) = 5.97062 7.42034 6.73460
#
# Compressibility (1/GPa) = 0.01700717
#
# Stress axis : x y z
#
# Youngs Moduli (GPa) = 106.08963 59.61900 59.35479
#
# Poissons Ratio (x) = 0.22440 0.26678
# Poissons Ratio (y) = 0.39932 0.28260
# Poissons Ratio (z) = 0.47684 0.28386
#
# Static dielectric constant tensor:
#      x y z
#    x 3.526560 0.000000 0.000000 
#    y 0.000000 3.357750 0.000000 
#    z 0.000000 0.000000 3.031710 
# 
# 
# High freq. dielectric constant tensor:
#      x y z
#    x 1.708470 0.000000 0.000000 
#    y 0.000000 1.671100 0.000000 
#    z 0.000000 0.000000 1.649080 
# 
# From -- ./inp_files/41178.got.cif
#   From: 2010.03.12/outbox.cif.g09.slc.cpg/sg67_21_cif.got.tgz:41178.got - 2010.04.10 22:41:39.
