data_PCOD8278910
_publ_section_title
;
Structure prediction by ZEFSAII (Michael W. Deem and Ramdas Pophale) SiO2 
 PCOD8278910
Probable space group: C M M A
;
_chemical_formula_sum "Si O2"
_cell_formula_units_Z 80
_cell_length_a 19.891238
_cell_length_b 8.861080
_cell_length_c 25.743168
_cell_angle_alpha 90.000000
_cell_angle_beta 90.000000
_cell_angle_gamma 90.000000
_cell_volume 4537.435475
_symmetry_space_group_name_H-M "C M M A"
_symmetry_group_IT_number 67
_symmetry_cell_setting 'orthorhombic'
loop_
_space_group_symop_operation_xyz
x,y,z
-x,1/2-y,z
x,-y,-z
-x,1/2+y,-z
-x,-y,-z
x,1/2+y,-z
-x,y,z
x,1/2-y,z
1/2+x,1/2+y,z
1/2-x,-y,z
1/2+x,1/2-y,-z
1/2-x,y,-z
1/2-x,1/2-y,-z
1/2+x,y,-z
1/2-x,1/2+y,z
1/2+x,-y,z
loop_
_atom_site_type_symbol
_atom_site_label
_atom_site_fract_x
_atom_site_fract_y
_atom_site_fract_z
Si Si1 0.321072 0.430463 0.749071
Si Si2 0.925155 0.429946 0.337404
Si Si3 0.423919 0.927359 0.946768
Si Si4 0.579914 0.584059 0.450346
Si Si5 0.821019 0.429985 0.858277
O O1 0.316237 0.250000 0.752901
O O2 0.250000 0.500000 0.732530
O O3 0.374349 0.486836 0.706476
O O4 0.344448 0.498663 0.803913
O O5 0.926263 0.250000 0.340511
O O6 0.902346 0.492201 0.394407
O O7 0.000000 0.489307 0.323501
O O8 0.500000 0.981214 0.934472
O O9 0.420568 0.750000 0.953983
O O10 0.376282 0.980257 0.900119
O O11 0.397402 0.000000 0.000000
O O12 0.611690 0.500000 0.500000
O O13 0.500000 0.591279 0.455343
O O14 0.611454 0.750000 0.452160
O O15 0.814483 0.250000 0.852998
O O16 0.750000 0.500000 0.875675
#
# Coordination Sequence:
#
# PCOD8278910 Si02
#       5
#    16  16  16  16  16
#     4  10  19  32  50  69  92 123 157 191 230 276
#     4   8  15  28  46  68  92 119 153 191 229 272
#     4   9  19  35  53  73  98 127 156 188 229 274
#     4   8  13  23  40  62  88 115 144 182 227 271
#     4  10  20  34  51  71  96 124 156 193 231 272
#
# _framework density 17.631105000000002
#
# number of rings (size 3 to 8) (size 9 to 14) (size 15 to 20)
#    0.000    3.000    0.000    3.600    0.000    2.800 
#    0.000    4.000    0.000    4.800    0.000    4.200 
#    0.000    0.000    0.000    0.000    0.000    0.000 
#
# Total GULP energy -495757.032237 kJ/mol
# GULP energy per Si atom -12393.925806 kJ/mol
# Density = 1.759098 g / cm^3
# Si number density = 17.631105 Si / 1000 Ang^3
#
#
#
# Elastic Constant Matrix: (Units=GPa)
#
#
# Indices 1 2 3 4 5 6 
#
# 1 93.0287 31.0064 102.8948 0.0000 0.0000 0.0000
# 2 31.0064 55.2004 46.7140 0.0000 0.0000 0.0000
# 3 102.8948 46.7140 181.1588 0.0000 0.0000 0.0000
# 4 0.0000 0.0000 0.0000 28.5445 0.0000 0.0000
# 5 0.0000 0.0000 0.0000 0.0000 12.2548 0.0000
# 6 0.0000 0.0000 0.0000 0.0000 0.0000 17.9480
#
#
#
# Elastic Compliance Matrix: (Units=1/GPa)
#
#
# Indices 1 2 3 4 5 6 
#
# 1 0.029306 -0.003038 -0.015862 0.000000 0.000000 0.000000
# 2 -0.003038 0.023487 -0.004331 0.000000 0.000000 0.000000
# 3 -0.015862 -0.004331 0.015646 0.000000 0.000000 0.000000
# 4 0.000000 0.000000 0.000000 0.035033 0.000000 0.000000
# 5 0.000000 0.000000 0.000000 0.000000 0.081601 0.000000
# 6 0.000000 0.000000 0.000000 0.000000 0.000000 0.055716
#
#
# Mechanical properties :
#
#
# Convention : Reuss Voigt Hill
#
# Bulk Modulus (GPa) = 45.50063 76.73538 61.11800
# Shear Modulus (GPa) = 16.97346 21.66765 19.32056
#
# Velocity S-wave (km/s) = 3.10611 3.50943 3.31391
# Velocity P-wave (km/s) = 6.22309 7.74847 7.02729
#
# Compressibility (1/GPa) = 0.02197772
#
# Stress axis : x y z
#
# Youngs Moduli (GPa) = 34.12253 42.57600 63.91376
#
# Poissons Ratio (x) = 0.12935 1.01380
# Poissons Ratio (y) = 0.10367 0.27681
# Poissons Ratio (z) = 0.54125 0.18439
#
# Static dielectric constant tensor:
#      x y z
#    x 3.194850 0.000000 0.000000 
#    y 0.000000 3.182510 0.000000 
#    z 0.000000 0.000000 3.565340 
# 
# 
# High freq. dielectric constant tensor:
#      x y z
#    x 1.656210 0.000000 0.000000 
#    y 0.000000 1.666400 0.000000 
#    z 0.000000 0.000000 1.696090 
# 
# From -- ./inp_files/44420.got.cif
#   From: 2010.03.12/outbox.cif.g09.slc.cpg/sg67_23_cif.got.tgz:44420.got - 2010.04.10 22:41:39.
