data_PCOD8278873
_publ_section_title
;
Structure prediction by ZEFSAII (Michael W. Deem and Ramdas Pophale) SiO2 
 PCOD8278873
Probable space group: C M M A
;
_chemical_formula_sum "Si O2"
_cell_formula_units_Z 96
_cell_length_a 28.988499
_cell_length_b 17.890864
_cell_length_c 10.244655
_cell_angle_alpha 90.000000
_cell_angle_beta 90.000000
_cell_angle_gamma 90.000000
_cell_volume 5313.178181
_symmetry_space_group_name_H-M "C M M A"
_symmetry_group_IT_number 67
_symmetry_cell_setting 'orthorhombic'
loop_
_space_group_symop_operation_xyz
x,y,z
-x,1/2-y,z
x,-y,-z
-x,1/2+y,-z
-x,-y,-z
x,1/2+y,-z
-x,y,z
x,1/2-y,z
1/2+x,1/2+y,z
1/2-x,-y,z
1/2+x,1/2-y,-z
1/2-x,y,-z
1/2-x,1/2-y,-z
1/2+x,y,-z
1/2-x,1/2+y,z
1/2+x,-y,z
loop_
_atom_site_type_symbol
_atom_site_label
_atom_site_fract_x
_atom_site_fract_y
_atom_site_fract_z
Si Si1 0.446218 0.456501 0.866696
Si Si2 0.622967 0.837539 0.517722
Si Si3 0.552075 0.053320 0.377606
Si Si4 0.625635 0.661742 0.213252
Si Si5 0.719759 0.339104 0.382621
Si Si6 0.272429 0.338900 0.867602
O O1 0.500000 0.433423 0.851442
O O2 0.430123 0.511058 0.750765
O O3 0.415426 0.381536 0.861079
O O4 0.437097 0.500000 0.000000
O O5 0.617561 0.750000 0.531430
O O6 0.580376 0.872351 0.594269
O O7 0.625446 0.859915 0.365846
O O8 0.667958 0.867196 0.593875
O O9 0.500000 0.079909 0.356383
O O10 0.557486 0.000000 0.500000
O O11 0.617393 0.750000 0.193447
O O12 0.674494 0.636046 0.151137
O O13 0.721833 0.250000 0.383485
O O14 0.750000 0.371678 0.500000
O O15 0.740459 0.371078 0.248287
O O16 0.270660 0.250000 0.866475
O O17 0.250000 0.371233 0.000000
#
# Coordination Sequence:
#
# PCOD8278873 Si02
#       6
#    16  16  16  16  16  16
#     4  10  22  40  59  79 108 149 184 214 271 342
#     4  10  19  31  55  87 111 139 184 235 273 305
#     4  10  20  36  56  78 107 143 180 219 271 332
#     4  10  19  33  57  86 110 137 182 234 273 310
#     4   9  15  27  47  72 105 140 174 215 264 316
#     4   9  17  29  48  77 110 143 177 216 266 323
#
# _framework density 18.068280999999999
#
# number of rings (size 3 to 8) (size 9 to 14) (size 15 to 20)
#    0.000    2.333    3.333    0.000    0.000    2.000 
#    0.000    4.167    0.000    9.000    0.000    0.000 
#    0.000    0.000    0.000    0.000    0.000    0.000 
#
# Total GULP energy -595110.554593 kJ/mol
# GULP energy per Si atom -12398.136554 kJ/mol
# Density = 1.802716 g / cm^3
# Si number density = 18.068281 Si / 1000 Ang^3
#
#
#
# Elastic Constant Matrix: (Units=GPa)
#
#
# Indices 1 2 3 4 5 6 
#
# 1 123.9470 52.4151 55.7022 0.0000 0.0000 0.0000
# 2 52.4151 42.4440 34.9837 0.0000 0.0000 0.0000
# 3 55.7022 34.9837 130.9922 0.0000 0.0000 0.0000
# 4 0.0000 0.0000 0.0000 19.7344 0.0000 0.0000
# 5 0.0000 0.0000 0.0000 0.0000 76.3755 0.0000
# 6 0.0000 0.0000 0.0000 0.0000 0.0000 13.6641
#
#
#
# Elastic Compliance Matrix: (Units=1/GPa)
#
#
# Indices 1 2 3 4 5 6 
#
# 1 0.017334 -0.019658 -0.002121 0.000000 0.000000 0.000000
# 2 -0.019658 0.052504 -0.005663 0.000000 0.000000 0.000000
# 3 -0.002121 -0.005663 0.010048 0.000000 0.000000 0.000000
# 4 0.000000 0.000000 0.000000 0.050673 0.000000 0.000000
# 5 0.000000 0.000000 0.000000 0.000000 0.013093 0.000000
# 6 0.000000 0.000000 0.000000 0.000000 0.000000 0.073184
#
#
# Mechanical properties :
#
#
# Convention : Reuss Voigt Hill
#
# Bulk Modulus (GPa) = 39.99568 64.84279 52.41923
# Shear Modulus (GPa) = 17.85357 32.24029 25.04693
#
# Velocity S-wave (km/s) = 3.14684 4.22875 3.72726
# Velocity P-wave (km/s) = 5.94873 7.73360 6.89913
#
# Compressibility (1/GPa) = 0.02500270
#
# Stress axis : x y z
#
# Youngs Moduli (GPa) = 57.68899 19.04603 99.51898
#
# Poissons Ratio (x) = 0.37441 0.21108
# Poissons Ratio (y) = 1.13407 0.56356
# Poissons Ratio (z) = 0.12236 0.10785
#
# Static dielectric constant tensor:
#      x y z
#    x 3.491130 0.000000 0.000000 
#    y 0.000000 2.933210 0.000000 
#    z 0.000000 0.000000 3.654950 
# 
# 
# High freq. dielectric constant tensor:
#      x y z
#    x 1.709770 0.000000 0.000000 
#    y 0.000000 1.658560 0.000000 
#    z 0.000000 0.000000 1.706720 
# 
# From -- ./inp_files/11460.got.cif
#   From: 2010.03.12/outbox.cif.g09.slc.cpg/sg67_6_cif.got.tgz:11460.got - 2010.04.10 22:41:39.
