data_PCOD8278157
_publ_section_title
;
Structure prediction by ZEFSAII (Michael W. Deem and Ramdas Pophale) SiO2 
 PCOD8278157
Probable space group: C M M A
;
_chemical_formula_sum "Si O2"
_cell_formula_units_Z 72
_cell_length_a 14.080461
_cell_length_b 14.692546
_cell_length_c 16.282727
_cell_angle_alpha 90.000000
_cell_angle_beta 90.000000
_cell_angle_gamma 90.000000
_cell_volume 3368.535081
_symmetry_space_group_name_H-M "C M M A"
_symmetry_group_IT_number 67
_symmetry_cell_setting 'orthorhombic'
loop_
_space_group_symop_operation_xyz
x,y,z
-x,1/2-y,z
x,-y,-z
-x,1/2+y,-z
-x,-y,-z
x,1/2+y,-z
-x,y,z
x,1/2-y,z
1/2+x,1/2+y,z
1/2-x,-y,z
1/2+x,1/2-y,-z
1/2-x,y,-z
1/2-x,1/2-y,-z
1/2+x,y,-z
1/2-x,1/2+y,z
1/2+x,-y,z
loop_
_atom_site_type_symbol
_atom_site_label
_atom_site_fract_x
_atom_site_fract_y
_atom_site_fract_z
Si Si1 0.638308 0.997388 0.405712
Si Si2 0.000000 0.895122 0.019803
Si Si3 0.500000 0.352471 0.664227
Si Si4 0.344697 0.047654 0.131864
Si Si5 0.500000 0.098723 0.843789
Si Si6 0.606198 0.351549 0.281777
O O1 0.593801 0.907057 0.364580
O O2 0.606699 0.000000 0.500000
O O3 0.750000 0.000000 0.394521
O O4 0.600197 0.088868 0.363846
O O5 0.900644 0.882421 0.069659
O O6 0.000000 0.843598 0.931091
O O7 0.000000 0.000000 0.000000
O O8 0.500000 0.250000 0.627040
O O9 0.500000 0.339175 0.763181
O O10 0.322202 0.106310 0.213747
O O11 0.250000 0.000000 0.094399
O O12 0.408144 0.964112 0.160613
O O13 0.500000 0.349317 0.243029
O O14 0.640848 0.250000 0.304766
#
# Coordination Sequence:
#
# PCOD8278157 Si02
#       6
#    16   8   8  16   8  16
#     4  11  24  45  68  92 127 166 209 263 317 381
#     4   8  18  32  54  88 114 153 217 247 302 363
#     4  12  25  43  66  97 132 171 209 260 325 385
#     4  10  17  34  59  84 121 159 203 258 309 361
#     4  10  20  37  54  85 124 156 212 250 306 368
#     4  11  21  36  62  93 124 162 210 258 310 374
#
# _framework density 21.374275999999998
#
# number of rings (size 3 to 8) (size 9 to 14) (size 15 to 20)
#    0.000    1.778    5.556    1.000    0.000    5.778 
#    0.000    3.333    0.000    0.000    0.000   18.667 
#    0.000    0.000    0.000    0.000    0.000    0.000 
#
# Total GULP energy -445973.483098 kJ/mol
# GULP energy per Si atom -12388.152308 kJ/mol
# Density = 2.132563 g / cm^3
# Si number density = 21.374276 Si / 1000 Ang^3
#
#
#
# Elastic Constant Matrix: (Units=GPa)
#
#
# Indices 1 2 3 4 5 6 
#
# 1 120.7731 33.0666 33.3474 0.0000 0.0000 0.0000
# 2 33.0666 132.5682 53.7430 0.0000 0.0000 0.0000
# 3 33.3474 53.7430 163.0220 0.0000 0.0000 0.0000
# 4 0.0000 0.0000 0.0000 3.8836 0.0000 0.0000
# 5 0.0000 0.0000 0.0000 0.0000 -33.8162 0.0000
# 6 0.0000 0.0000 0.0000 0.0000 0.0000 11.7692
#
#
#
# Elastic Compliance Matrix: (Units=1/GPa)
#
#
# Indices 1 2 3 4 5 6 
#
# 1 0.009115 -0.001752 -0.001287 0.000000 0.000000 0.000000
# 2 -0.001752 0.009044 -0.002623 0.000000 0.000000 0.000000
# 3 -0.001287 -0.002623 0.007262 0.000000 0.000000 0.000000
# 4 0.000000 0.000000 0.000000 0.257490 0.000000 0.000000
# 5 0.000000 0.000000 0.000000 0.000000 -0.029572 0.000000
# 6 0.000000 0.000000 0.000000 0.000000 0.000000 0.084968
#
#
# Mechanical properties :
#
#
# Convention : Reuss Voigt Hill
#
# Bulk Modulus (GPa) = 70.93702 72.96414 71.95058
# Shear Modulus (GPa) = 14.11114 16.11441 15.11278
#
# Velocity S-wave (km/s) = 2.57221 2.74873 2.66193
# Velocity P-wave (km/s) = 6.48705 6.65467 6.57139
#
# Compressibility (1/GPa) = 0.01409701
#
# Stress axis : x y z
#
# Youngs Moduli (GPa) = 109.70948 110.57524 137.70036
#
# Poissons Ratio (x) = 0.19370 0.17722
# Poissons Ratio (y) = 0.19219 0.36119
# Poissons Ratio (z) = 0.14120 0.29004
#
# Static dielectric constant tensor:
#      x y z
#    x 3.970500 0.000000 0.000000 
#    y 0.000000 3.529310 0.000000 
#    z 0.000000 0.000000 4.705580 
# 
# 
# High freq. dielectric constant tensor:
#      x y z
#    x 1.830450 0.000000 0.000000 
#    y 0.000000 1.805210 0.000000 
#    z 0.000000 0.000000 1.849940 
# 
# From -- ./inp_files/33508.got.cif
#   From: 2010.03.12/outbox.cif.g09.slc.cpg/sg67_17_cif.got.tgz:33508.got - 2010.04.10 22:41:39.
