data_PCOD8278838
_publ_section_title
;
Structure prediction by ZEFSAII (Michael W. Deem and Ramdas Pophale) SiO2 
 PCOD8278838
Probable space group: C M M A
;
_chemical_formula_sum "Si O2"
_cell_formula_units_Z 80
_cell_length_a 28.852668
_cell_length_b 17.012736
_cell_length_c 8.490872
_cell_angle_alpha 90.000000
_cell_angle_beta 90.000000
_cell_angle_gamma 90.000000
_cell_volume 4167.853405
_symmetry_space_group_name_H-M "C M M A"
_symmetry_group_IT_number 67
_symmetry_cell_setting 'orthorhombic'
loop_
_space_group_symop_operation_xyz
x,y,z
-x,1/2-y,z
x,-y,-z
-x,1/2+y,-z
-x,-y,-z
x,1/2+y,-z
-x,y,z
x,1/2-y,z
1/2+x,1/2+y,z
1/2-x,-y,z
1/2+x,1/2-y,-z
1/2-x,y,-z
1/2-x,1/2-y,-z
1/2+x,y,-z
1/2-x,1/2+y,z
1/2+x,-y,z
loop_
_atom_site_type_symbol
_atom_site_label
_atom_site_fract_x
_atom_site_fract_y
_atom_site_fract_z
Si Si1 0.196525 0.982537 0.679536
Si Si2 0.855854 0.342276 0.174700
Si Si3 0.050052 0.340238 0.320572
Si Si4 0.625383 0.931247 0.883286
Si Si5 0.447768 0.571033 0.614838
O O1 0.183372 0.893350 0.734212
O O2 0.182603 0.000000 0.500000
O O3 0.250000 0.000000 0.708789
O O4 0.170088 0.045052 0.784954
O O5 0.847551 0.250000 0.212033
O O6 0.905653 0.376864 0.233395
O O7 0.857706 0.356133 0.986377
O O8 0.049183 0.250000 0.277092
O O9 0.055302 0.350808 0.508450
O O10 0.000000 0.377990 0.267265
O O11 0.583051 0.913016 0.767531
O O12 0.609509 0.000000 0.000000
O O13 0.430609 0.500000 0.500000
O O14 0.500000 0.554227 0.673199
#
# Coordination Sequence:
#
# PCOD8278838 Si02
#       5
#    16  16  16  16  16
#     4  10  21  40  62  80 102 140 183 224 277 333
#     4  10  21  36  56  84 115 144 180 226 274 329
#     4   9  18  33  52  74 105 145 181 216 262 311
#     4  10  20  33  51  76 107 142 177 217 276 333
#     4  10  19  31  50  76 105 142 190 233 264 307
#
# _framework density 19.194531999999999
#
# number of rings (size 3 to 8) (size 9 to 14) (size 15 to 20)
#    0.000    2.200    0.000    4.200    0.000    5.600 
#    0.000    5.000    0.000    0.000    0.000    0.000 
#    0.000    0.000    0.000    0.000    0.000    0.000 
#
# Total GULP energy -495634.901970 kJ/mol
# GULP energy per Si atom -12390.872549 kJ/mol
# Density = 1.915084 g / cm^3
# Si number density = 19.194532 Si / 1000 Ang^3
#
#
#
# Elastic Constant Matrix: (Units=GPa)
#
#
# Indices 1 2 3 4 5 6 
#
# 1 115.4956 49.5817 62.7453 0.0000 0.0000 0.0000
# 2 49.5817 72.9773 37.4025 0.0000 0.0000 0.0000
# 3 62.7453 37.4025 121.4714 0.0000 0.0000 0.0000
# 4 0.0000 0.0000 0.0000 24.1437 0.0000 0.0000
# 5 0.0000 0.0000 0.0000 0.0000 15.3194 0.0000
# 6 0.0000 0.0000 0.0000 0.0000 0.0000 22.3582
#
#
#
# Elastic Compliance Matrix: (Units=1/GPa)
#
#
# Indices 1 2 3 4 5 6 
#
# 1 0.014666 -0.007221 -0.005352 0.000000 0.000000 0.000000
# 2 -0.007221 0.019826 -0.002375 0.000000 0.000000 0.000000
# 3 -0.005352 -0.002375 0.011728 0.000000 0.000000 0.000000
# 4 0.000000 0.000000 0.000000 0.041419 0.000000 0.000000
# 5 0.000000 0.000000 0.000000 0.000000 0.065277 0.000000
# 6 0.000000 0.000000 0.000000 0.000000 0.000000 0.044726
#
#
# Mechanical properties :
#
#
# Convention : Reuss Voigt Hill
#
# Bulk Modulus (GPa) = 61.25813 67.71149 64.48481
# Shear Modulus (GPa) = 21.46112 23.04526 22.25319
#
# Velocity S-wave (km/s) = 3.34741 3.46875 3.40862
# Velocity P-wave (km/s) = 6.85010 7.16910 7.01141
#
# Compressibility (1/GPa) = 0.01632436
#
# Stress axis : x y z
#
# Youngs Moduli (GPa) = 68.18484 50.43856 85.26461
#
# Poissons Ratio (x) = 0.36423 0.45635
# Poissons Ratio (y) = 0.49238 0.20247
# Poissons Ratio (z) = 0.36494 0.11977
#
# Static dielectric constant tensor:
#      x y z
#    x 3.663510 0.000000 0.000000 
#    y 0.000000 3.380260 0.000000 
#    z 0.000000 0.000000 3.798360 
# 
# 
# High freq. dielectric constant tensor:
#      x y z
#    x 1.749810 0.000000 0.000000 
#    y 0.000000 1.731740 0.000000 
#    z 0.000000 0.000000 1.746540 
# 
# From -- ./inp_files/10124.got.cif
#   From: 2010.03.12/outbox.cif.g09.slc.cpg/sg67_6_cif.got.tgz:10124.got - 2010.04.10 22:41:39.
