data_PCOD8278098
_publ_section_title
;
Structure prediction by ZEFSAII (Michael W. Deem and Ramdas Pophale) SiO2 
 PCOD8278098
Probable space group: C M M A
;
_chemical_formula_sum "Si O2"
_cell_formula_units_Z 96
_cell_length_a 18.809092
_cell_length_b 8.642983
_cell_length_c 31.052361
_cell_angle_alpha 90.000000
_cell_angle_beta 90.000000
_cell_angle_gamma 90.000000
_cell_volume 5048.078687
_symmetry_space_group_name_H-M "C M M A"
_symmetry_group_IT_number 67
_symmetry_cell_setting 'orthorhombic'
loop_
_space_group_symop_operation_xyz
x,y,z
-x,1/2-y,z
x,-y,-z
-x,1/2+y,-z
-x,-y,-z
x,1/2+y,-z
-x,y,z
x,1/2-y,z
1/2+x,1/2+y,z
1/2-x,-y,z
1/2+x,1/2-y,-z
1/2-x,y,-z
1/2-x,1/2-y,-z
1/2+x,y,-z
1/2-x,1/2+y,z
1/2+x,-y,z
loop_
_atom_site_type_symbol
_atom_site_label
_atom_site_fract_x
_atom_site_fract_y
_atom_site_fract_z
Si Si1 0.084475 0.075760 0.293084
Si Si2 0.415754 0.073393 0.381027
Si Si3 0.670894 0.066686 0.042916
Si Si4 0.825512 0.931691 0.545615
Si Si5 0.827627 0.068503 0.129937
Si Si6 0.416141 0.572186 0.795312
O O1 0.114798 0.250000 0.291348
O O2 0.000000 0.077882 0.294073
O O3 0.113573 0.991046 0.335658
O O4 0.111112 0.981365 0.251537
O O5 0.500000 0.058087 0.383363
O O6 0.390820 0.250000 0.385865
O O7 0.384320 0.971684 0.419244
O O8 0.670712 0.250000 0.041158
O O9 0.750000 0.000000 0.043561
O O10 0.635653 0.007290 0.087310
O O11 0.631653 0.000000 0.000000
O O12 0.818012 0.750000 0.540709
O O13 0.850370 0.000000 0.500000
O O14 0.750000 0.000000 0.560188
O O15 0.820180 0.250000 0.122588
O O16 0.750000 0.000000 0.139384
O O17 0.878689 0.034441 0.169644
O O18 0.500000 0.547542 0.799725
O O19 0.394455 0.750000 0.802220
#
# Coordination Sequence:
#
# PCOD8278098 Si02
#       6
#    16  16  16  16  16  16
#     4   9  17  31  52  78 106 137 174 214 257 306
#     4  10  20  35  56  82 110 139 174 217 262 306
#     4  10  17  28  46  70  99 131 169 210 256 307
#     4  11  22  38  58  79 107 142 179 216 259 312
#     4  11  21  34  52  76 106 137 172 215 263 309
#     4  10  20  35  55  78 105 139 177 214 256 310
#
# _framework density 19.017137000000002
#
# number of rings (size 3 to 8) (size 9 to 14) (size 15 to 20)
#    0.000    1.833    0.000    8.000    0.000    4.333 
#    0.000    0.833    0.000    0.500    0.000    0.000 
#    0.000    0.000    0.000    0.000    0.000    0.000 
#
# Total GULP energy -595238.505337 kJ/mol
# GULP energy per Si atom -12400.802195 kJ/mol
# Density = 1.897385 g / cm^3
# Si number density = 19.017137 Si / 1000 Ang^3
#
#
#
# Elastic Constant Matrix: (Units=GPa)
#
#
# Indices 1 2 3 4 5 6 
#
# 1 26.4786 26.9818 34.9923 0.0000 0.0000 0.0000
# 2 26.9818 170.5868 58.5261 0.0000 0.0000 0.0000
# 3 34.9923 58.5261 155.1127 0.0000 0.0000 0.0000
# 4 0.0000 0.0000 0.0000 41.5691 0.0000 0.0000
# 5 0.0000 0.0000 0.0000 0.0000 22.5255 0.0000
# 6 0.0000 0.0000 0.0000 0.0000 0.0000 23.4519
#
#
#
# Elastic Compliance Matrix: (Units=1/GPa)
#
#
# Indices 1 2 3 4 5 6 
#
# 1 0.057783 -0.005361 -0.011013 0.000000 0.000000 0.000000
# 2 -0.005361 0.007231 -0.001519 0.000000 0.000000 0.000000
# 3 -0.011013 -0.001519 0.009504 0.000000 0.000000 0.000000
# 4 0.000000 0.000000 0.000000 0.024056 0.000000 0.000000
# 5 0.000000 0.000000 0.000000 0.000000 0.044394 0.000000
# 6 0.000000 0.000000 0.000000 0.000000 0.000000 0.042640
#
#
# Mechanical properties :
#
#
# Convention : Reuss Voigt Hill
#
# Bulk Modulus (GPa) = 25.81777 65.90871 45.86324
# Shear Modulus (GPa) = 21.33960 32.95449 27.14704
#
# Velocity S-wave (km/s) = 3.35345 4.16731 3.78233
# Velocity P-wave (km/s) = 5.34787 7.60842 6.57601
#
# Compressibility (1/GPa) = 0.03873301
#
# Stress axis : x y z
#
# Youngs Moduli (GPa) = 17.30615 138.28852 105.21443
#
# Poissons Ratio (x) = 0.74141 1.15868
# Poissons Ratio (y) = 0.09278 0.15982
# Poissons Ratio (z) = 0.19058 0.21006
#
# Static dielectric constant tensor:
#      x y z
#    x 2.979520 0.000000 0.000000 
#    y 0.000000 3.672550 0.000000 
#    z 0.000000 0.000000 4.047770 
# 
# 
# High freq. dielectric constant tensor:
#      x y z
#    x 1.685190 0.000000 0.000000 
#    y 0.000000 1.762550 0.000000 
#    z 0.000000 0.000000 1.762530 
# 
# From -- ./inp_files/44603.got.cif
#   From: 2010.03.12/outbox.cif.g09.slc.cpg/sg67_23_cif.got.tgz:44603.got - 2010.04.10 22:41:39.
