data_PCOD8278007
_publ_section_title
;
Structure prediction by ZEFSAII (Michael W. Deem and Ramdas Pophale) SiO2 
 PCOD8278007
Probable space group: C M M A
;
_chemical_formula_sum "Si O2"
_cell_formula_units_Z 96
_cell_length_a 30.591751
_cell_length_b 8.926275
_cell_length_c 19.886670
_cell_angle_alpha 90.000000
_cell_angle_beta 90.000000
_cell_angle_gamma 90.000000
_cell_volume 5430.460577
_symmetry_space_group_name_H-M "C M M A"
_symmetry_group_IT_number 67
_symmetry_cell_setting 'orthorhombic'
loop_
_space_group_symop_operation_xyz
x,y,z
-x,1/2-y,z
x,-y,-z
-x,1/2+y,-z
-x,-y,-z
x,1/2+y,-z
-x,y,z
x,1/2-y,z
1/2+x,1/2+y,z
1/2-x,-y,z
1/2+x,1/2-y,-z
1/2-x,y,-z
1/2-x,1/2-y,-z
1/2+x,y,-z
1/2-x,1/2+y,z
1/2+x,-y,z
loop_
_atom_site_type_symbol
_atom_site_label
_atom_site_fract_x
_atom_site_fract_y
_atom_site_fract_z
Si Si1 0.879786 0.574341 0.174988
Si Si2 0.887496 0.921402 0.329981
Si Si3 0.292770 0.927491 0.178606
Si Si4 0.549745 0.574531 0.431527
Si Si5 0.209186 0.075541 0.676535
Si Si6 0.450658 0.426030 0.068159
O O1 0.869760 0.750000 0.169692
O O2 0.889730 0.530641 0.252027
O O3 0.837669 0.486849 0.145541
O O4 0.921095 0.523809 0.130820
O O5 0.902561 0.750000 0.338727
O O6 0.837980 0.942176 0.359275
O O7 0.920275 0.026644 0.369752
O O8 0.290292 0.750000 0.173457
O O9 0.250000 0.000000 0.142406
O O10 0.293305 0.982891 0.255034
O O11 0.566997 0.500000 0.500000
O O12 0.500000 0.524004 0.416482
O O13 0.553317 0.750000 0.441263
O O14 0.218663 0.250000 0.691314
O O15 0.250000 0.000000 0.634932
O O16 0.500000 0.480696 0.083368
O O17 0.448740 0.250000 0.057807
O O18 0.432690 0.500000 0.000000
#
# Coordination Sequence:
#
# PCOD8278007 Si02
#       6
#    16  16  16  16  16  16
#     4   9  18  32  49  72 101 130 162 200 242 287
#     4   9  18  31  49  74 101 128 160 199 241 285
#     4  10  17  26  43  67  96 128 161 197 239 285
#     4  10  21  36  53  72  95 126 163 200 241 291
#     4   9  16  27  44  68  98 130 162 195 235 283
#     4   9  18  33  52  72  96 129 166 201 240 289
#
# _framework density 17.678059000000001
#
# number of rings (size 3 to 8) (size 9 to 14) (size 15 to 20)
#    0.000    2.667    0.000    4.500    0.000    5.667 
#    0.000    1.667    0.000    3.000    0.000    7.000 
#    0.000    0.000    0.000    0.000    0.000    0.000 
#
# Total GULP energy -594935.584380 kJ/mol
# GULP energy per Si atom -12394.491341 kJ/mol
# Density = 1.763782 g / cm^3
# Si number density = 17.678059 Si / 1000 Ang^3
#
#
#
# Elastic Constant Matrix: (Units=GPa)
#
#
# Indices 1 2 3 4 5 6 
#
# 1 129.4653 56.1848 60.6844 0.0000 0.0000 0.0000
# 2 56.1848 86.0802 34.1415 0.0000 0.0000 0.0000
# 3 60.6844 34.1415 68.9304 0.0000 0.0000 0.0000
# 4 0.0000 0.0000 0.0000 23.9660 0.0000 0.0000
# 5 0.0000 0.0000 0.0000 0.0000 2.9879 0.0000
# 6 0.0000 0.0000 0.0000 0.0000 0.0000 33.9949
#
#
#
# Elastic Compliance Matrix: (Units=1/GPa)
#
#
# Indices 1 2 3 4 5 6 
#
# 1 0.015112 -0.005708 -0.010477 0.000000 0.000000 0.000000
# 2 -0.005708 0.016613 -0.003203 0.000000 0.000000 0.000000
# 3 -0.010477 -0.003203 0.025318 0.000000 0.000000 0.000000
# 4 0.000000 0.000000 0.000000 0.041726 0.000000 0.000000
# 5 0.000000 0.000000 0.000000 0.000000 0.334678 0.000000
# 6 0.000000 0.000000 0.000000 0.000000 0.000000 0.029416
#
#
# Mechanical properties :
#
#
# Convention : Reuss Voigt Hill
#
# Bulk Modulus (GPa) = 54.74623 65.16638 59.95630
# Shear Modulus (GPa) = 9.84777 21.08744 15.46760
#
# Velocity S-wave (km/s) = 2.36278 3.45753 2.96118
# Velocity P-wave (km/s) = 6.20317 7.27202 6.75875
#
# Compressibility (1/GPa) = 0.01826610
#
# Stress axis : x y z
#
# Youngs Moduli (GPa) = 66.17124 60.19233 39.49810
#
# Poissons Ratio (x) = 0.34360 0.41382
# Poissons Ratio (y) = 0.37773 0.12652
# Poissons Ratio (z) = 0.69328 0.19281
#
# Static dielectric constant tensor:
#      x y z
#    x 4.052760 0.000000 0.000000 
#    y 0.000000 3.294670 0.000000 
#    z 0.000000 0.000000 2.909920 
# 
# 
# High freq. dielectric constant tensor:
#      x y z
#    x 1.702700 0.000000 0.000000 
#    y 0.000000 1.688330 0.000000 
#    z 0.000000 0.000000 1.631820 
# 
# From -- ./inp_files/42704.got.cif
#   From: 2010.03.12/outbox.cif.g09.slc.cpg/sg67_22_cif.got.tgz:42704.got - 2010.04.10 22:41:39.
