data_PCOD8278151
_publ_section_title
;
Structure prediction by ZEFSAII (Michael W. Deem and Ramdas Pophale) SiO2 
 PCOD8278151
Probable space group: C M M A
;
_chemical_formula_sum "Si O2"
_cell_formula_units_Z 64
_cell_length_a 24.294878
_cell_length_b 15.703052
_cell_length_c 7.693186
_cell_angle_alpha 90.000000
_cell_angle_beta 90.000000
_cell_angle_gamma 90.000000
_cell_volume 2934.979174
_symmetry_space_group_name_H-M "C M M A"
_symmetry_group_IT_number 67
_symmetry_cell_setting 'orthorhombic'
loop_
_space_group_symop_operation_xyz
x,y,z
-x,1/2-y,z
x,-y,-z
-x,1/2+y,-z
-x,-y,-z
x,1/2+y,-z
-x,y,z
x,1/2-y,z
1/2+x,1/2+y,z
1/2-x,-y,z
1/2+x,1/2-y,-z
1/2-x,y,-z
1/2-x,1/2-y,-z
1/2+x,y,-z
1/2-x,1/2+y,z
1/2+x,-y,z
loop_
_atom_site_type_symbol
_atom_site_label
_atom_site_fract_x
_atom_site_fract_y
_atom_site_fract_z
Si Si1 0.000000 0.344442 0.257693
Si Si2 0.116409 0.649483 0.846250
Si Si3 0.000000 0.086459 0.610786
Si Si4 0.689834 0.149241 0.536029
Si Si5 0.607432 0.349679 0.234614
O O1 0.055945 0.391216 0.193399
O O2 0.000000 0.250000 0.177822
O O3 0.000000 0.338706 0.467280
O O4 0.112567 0.750000 0.810836
O O5 0.162359 0.611949 0.713597
O O6 0.132325 0.628377 0.044589
O O7 0.052918 0.094954 0.734004
O O8 0.000000 0.000000 0.500000
O O9 0.695378 0.250000 0.552401
O O10 0.750000 0.108992 0.500000
O O11 0.652553 0.122598 0.373829
O O12 0.592680 0.250000 0.247536
#
# Coordination Sequence:
#
# PCOD8278151 Si02
#       5
#     8  16   8  16  16
#     4  10  17  32  55  75 102 138 172 210 265 325
#     4   9  17  29  51  80 106 138 178 216 261 322
#     4  12  23  34  52  79 109 136 180 226 275 319
#     4   9  17  29  49  79 110 137 171 219 265 305
#     4  10  19  34  55  76 106 144 178 215 268 329
#
# _framework density 21.805947
#
# number of rings (size 3 to 8) (size 9 to 14) (size 15 to 20)
#    0.000    2.250    2.500    1.875    0.000    3.000 
#    0.000    7.500    0.000    0.750    0.000    0.000 
#    7.500    0.000    0.000    0.000    0.000    0.000 
#
# Total GULP energy -396639.486666 kJ/mol
# GULP energy per Si atom -12394.983958 kJ/mol
# Density = 2.175632 g / cm^3
# Si number density = 21.805947 Si / 1000 Ang^3
#
#
#
# Elastic Constant Matrix: (Units=GPa)
#
#
# Indices 1 2 3 4 5 6 
#
# 1 199.8290 20.8148 101.9315 0.0000 0.0000 0.0000
# 2 20.8148 26.5457 15.4745 0.0000 0.0000 0.0000
# 3 101.9315 15.4745 203.8563 0.0000 0.0000 0.0000
# 4 0.0000 0.0000 0.0000 11.0111 0.0000 0.0000
# 5 0.0000 0.0000 0.0000 0.0000 21.3021 0.0000
# 6 0.0000 0.0000 0.0000 0.0000 0.0000 -2.0077
#
#
#
# Elastic Compliance Matrix: (Units=1/GPa)
#
#
# Indices 1 2 3 4 5 6 
#
# 1 0.007036 -0.003627 -0.003243 0.000000 0.000000 0.000000
# 2 -0.003627 0.041284 -0.001320 0.000000 0.000000 0.000000
# 3 -0.003243 -0.001320 0.006627 0.000000 0.000000 0.000000
# 4 0.000000 0.000000 0.000000 0.090817 0.000000 0.000000
# 5 0.000000 0.000000 0.000000 0.000000 0.046944 0.000000
# 6 0.000000 0.000000 0.000000 0.000000 0.000000 -0.498082
#
#
# Mechanical properties :
#
#
# Convention : Reuss Voigt Hill
#
# Bulk Modulus (GPa) = 25.92855 78.51917 52.22386
# Shear Modulus (GPa) = -18.10693 25.52847 3.71077
#
# Velocity S-wave (km/s) = -2.88473 3.42528 1.30592
# Velocity P-wave (km/s) = 0.90598 7.19234 5.12594
#
# Compressibility (1/GPa) = 0.03856752
#
# Stress axis : x y z
#
# Youngs Moduli (GPa) = 142.12097 24.22227 150.89398
#
# Poissons Ratio (x) = 0.08785 0.48934
# Poissons Ratio (y) = 0.51544 0.19924
# Poissons Ratio (z) = 0.46089 0.03198
#
# Static dielectric constant tensor:
#      x y z
#    x 4.166900 0.000000 0.000000 
#    y 0.000000 3.272810 0.000000 
#    z 0.000000 0.000000 4.085190 
# 
# 
# High freq. dielectric constant tensor:
#      x y z
#    x 1.852530 0.000000 0.000000 
#    y 0.000000 1.799020 0.000000 
#    z 0.000000 0.000000 1.867730 
# 
# From -- ./inp_files/8221.got.cif
#   From: 2010.03.12/outbox.cif.g09.slc.cpg/sg67_5_cif.got.tgz:8221.got - 2010.04.10 22:41:39.
