data_PCOD8278293
_publ_section_title
;
Structure prediction by ZEFSAII (Michael W. Deem and Ramdas Pophale) SiO2 
 PCOD8278293
Probable space group: C M M A
;
_chemical_formula_sum "Si O2"
_cell_formula_units_Z 96
_cell_length_a 14.689529
_cell_length_b 30.130625
_cell_length_c 11.996872
_cell_angle_alpha 90.000000
_cell_angle_beta 90.000000
_cell_angle_gamma 90.000000
_cell_volume 5309.871809
_symmetry_space_group_name_H-M "C M M A"
_symmetry_group_IT_number 67
_symmetry_cell_setting 'orthorhombic'
loop_
_space_group_symop_operation_xyz
x,y,z
-x,1/2-y,z
x,-y,-z
-x,1/2+y,-z
-x,-y,-z
x,1/2+y,-z
-x,y,z
x,1/2-y,z
1/2+x,1/2+y,z
1/2-x,-y,z
1/2+x,1/2-y,-z
1/2-x,y,-z
1/2-x,1/2-y,-z
1/2+x,y,-z
1/2-x,1/2+y,z
1/2+x,-y,z
loop_
_atom_site_type_symbol
_atom_site_label
_atom_site_fract_x
_atom_site_fract_y
_atom_site_fract_z
Si Si1 0.821100 0.337333 0.203079
Si Si2 0.897502 0.004588 0.868745
Si Si3 0.500000 0.303995 0.680737
Si Si4 0.396868 0.801165 0.987237
Si Si5 0.743191 0.429862 0.867941
Si Si6 0.000000 0.197393 0.573007
Si Si7 0.858036 0.800875 0.254445
O O1 0.829630 0.324865 0.073061
O O2 0.779762 0.386678 0.205424
O O3 0.749707 0.306389 0.269449
O O4 0.914774 0.328502 0.264858
O O5 0.840925 0.048788 0.833330
O O6 0.000000 0.005646 0.816108
O O7 0.839292 0.962084 0.831591
O O8 0.906372 0.000000 0.000000
O O9 0.500000 0.250000 0.699417
O O10 0.500000 0.319644 0.552800
O O11 0.500000 0.807085 0.029849
O O12 0.368150 0.750000 0.983369
O O13 0.386321 0.823072 0.864416
O O14 0.750000 0.420551 0.000000
O O15 0.088000 0.178667 0.640362
O O16 0.000000 0.250000 0.565559
O O17 0.887566 0.750000 0.248131
#
# Coordination Sequence:
#
# PCOD8278293 Si02
#       7
#    16  16   8  16  16   8  16
#     4  12  22  32  49  79 112 143 172 219 267 330
#     4   8  15  30  51  70 103 147 176 209 251 310
#     4  11  24  39  53  73 103 142 189 238 280 315
#     4  10  18  30  48  71 104 142 176 212 262 317
#     4   9  18  31  46  76 109 142 182 207 250 320
#     4   9  20  39  57  71  92 134 192 238 271 318
#     4  10  19  34  54  73  98 138 181 222 267 311
#
# _framework density 18.079532
#
# number of rings (size 3 to 8) (size 9 to 14) (size 15 to 20)
#    0.000    2.167    1.667    4.000    1.167    2.000 
#    1.500    2.500    0.000    0.000    0.000    0.000 
#    0.000   16.000    0.000    0.333    0.000    0.000 
#
# Total GULP energy -594747.125138 kJ/mol
# GULP energy per Si atom -12390.565107 kJ/mol
# Density = 1.803838 g / cm^3
# Si number density = 18.079532 Si / 1000 Ang^3
#
#
#
# Elastic Constant Matrix: (Units=GPa)
#
#
# Indices 1 2 3 4 5 6 
#
# 1 146.5575 36.6239 42.8205 0.0000 0.0000 0.0000
# 2 36.6239 62.3034 28.4781 0.0000 0.0000 0.0000
# 3 42.8205 28.4781 90.4650 0.0000 0.0000 0.0000
# 4 0.0000 0.0000 0.0000 9.8733 0.0000 0.0000
# 5 0.0000 0.0000 0.0000 0.0000 5.4632 0.0000
# 6 0.0000 0.0000 0.0000 0.0000 0.0000 23.2008
#
#
#
# Elastic Compliance Matrix: (Units=1/GPa)
#
#
# Indices 1 2 3 4 5 6 
#
# 1 0.008602 -0.003733 -0.002897 0.000000 0.000000 0.000000
# 2 -0.003733 0.020368 -0.004645 0.000000 0.000000 0.000000
# 3 -0.002897 -0.004645 0.013887 0.000000 0.000000 0.000000
# 4 0.000000 0.000000 0.000000 0.101283 0.000000 0.000000
# 5 0.000000 0.000000 0.000000 0.000000 0.183045 0.000000
# 6 0.000000 0.000000 0.000000 0.000000 0.000000 0.043102
#
#
# Mechanical properties :
#
#
# Convention : Reuss Voigt Hill
#
# Bulk Modulus (GPa) = 49.23975 57.24122 53.24049
# Shear Modulus (GPa) = 12.51233 20.46767 16.49000
#
# Velocity S-wave (km/s) = 2.63358 3.36831 3.02334
# Velocity P-wave (km/s) = 6.04499 6.84521 6.45750
#
# Compressibility (1/GPa) = 0.02030879
#
# Stress axis : x y z
#
# Youngs Moduli (GPa) = 116.24644 49.09716 72.00790
#
# Poissons Ratio (x) = 0.18326 0.20859
# Poissons Ratio (y) = 0.43391 0.33447
# Poissons Ratio (z) = 0.33674 0.22805
#
# Static dielectric constant tensor:
#      x y z
#    x 3.704350 0.000000 0.000000 
#    y 0.000000 3.097910 0.000000 
#    z 0.000000 0.000000 3.156170 
# 
# 
# High freq. dielectric constant tensor:
#      x y z
#    x 1.723280 0.000000 0.000000 
#    y 0.000000 1.668400 0.000000 
#    z 0.000000 0.000000 1.652960 
# 
# From -- ./inp_files/18513.got.cif
#   From: 2010.03.12/outbox.cif.g09.slc.cpg/sg67_10_cif.got.tgz:18513.got - 2010.04.10 22:41:39.
