data_PCOD8278202
_publ_section_title
;
Structure prediction by ZEFSAII (Michael W. Deem and Ramdas Pophale) SiO2 
 PCOD8278202
Probable space group: C M M A
;
_chemical_formula_sum "Si O2"
_cell_formula_units_Z 128
_cell_length_a 25.143671
_cell_length_b 17.676570
_cell_length_c 16.864628
_cell_angle_alpha 90.000000
_cell_angle_beta 90.000000
_cell_angle_gamma 90.000000
_cell_volume 7495.549020
_symmetry_space_group_name_H-M "C M M A"
_symmetry_group_IT_number 67
_symmetry_cell_setting 'orthorhombic'
loop_
_space_group_symop_operation_xyz
x,y,z
-x,1/2-y,z
x,-y,-z
-x,1/2+y,-z
-x,-y,-z
x,1/2+y,-z
-x,y,z
x,1/2-y,z
1/2+x,1/2+y,z
1/2-x,-y,z
1/2+x,1/2-y,-z
1/2-x,y,-z
1/2-x,1/2-y,-z
1/2+x,y,-z
1/2-x,1/2+y,z
1/2+x,-y,z
loop_
_atom_site_type_symbol
_atom_site_label
_atom_site_fract_x
_atom_site_fract_y
_atom_site_fract_z
Si Si1 0.562246 0.915443 0.903714
Si Si2 0.699769 0.836200 0.678978
Si Si3 0.397176 0.443506 0.815362
Si Si4 0.437314 0.165838 0.939174
Si Si5 0.558590 0.021581 0.335625
Si Si6 0.911007 0.334275 0.752720
Si Si7 0.334041 0.523147 0.587489
Si Si8 0.211764 0.936495 0.734308
O O1 0.500000 0.938837 0.904971
O O2 0.572531 0.846299 0.843711
O O3 0.597216 0.987142 0.876888
O O4 0.582722 0.887936 0.989416
O O5 0.703982 0.750000 0.647990
O O6 0.652522 0.846032 0.743131
O O7 0.686384 0.891621 0.605165
O O8 0.755196 0.859104 0.721251
O O9 0.420703 0.368354 0.854647
O O10 0.428594 0.462907 0.734993
O O11 0.335950 0.425193 0.795701
O O12 0.500000 0.171369 0.944442
O O13 0.412645 0.250000 0.946609
O O14 0.500000 0.002949 0.369757
O O15 0.557709 0.106619 0.301657
O O16 0.601905 0.016388 0.405329
O O17 0.927874 0.250000 0.726773
O O18 0.316059 0.500000 0.500000
O O19 0.308058 0.465079 0.648747
O O20 0.250000 0.000000 0.771939
#
# Coordination Sequence:
#
# PCOD8278202 Si02
#       8
#    16  16  16  16  16  16  16  16
#     4  10  18  28  45  69  94 120 152 187 227 275
#     4   9  18  32  50  71  93 119 151 187 230 274
#     4  10  18  30  48  66  89 121 155 191 226 267
#     4  10  20  31  44  66  94 122 153 191 235 274
#     4   9  17  28  45  69  93 122 158 184 213 269
#     4   9  16  27  45  69  97 122 145 184 232 273
#     4   9  18  32  48  69  96 121 146 184 230 272
#     4   9  18  32  50  70  90 116 152 188 227 274
#
# _framework density 17.076801
#
# number of rings (size 3 to 8) (size 9 to 14) (size 15 to 20)
#    0.000    2.625    0.000    5.250    0.000    5.500 
#    0.000    1.250    0.000    6.000    0.000    5.250 
#    0.000    0.000    0.000    0.000    0.000    0.000 
#
# Total GULP energy -793358.492013 kJ/mol
# GULP energy per Si atom -12396.226438 kJ/mol
# Density = 1.703793 g / cm^3
# Si number density = 17.076801 Si / 1000 Ang^3
#
#
#
# Elastic Constant Matrix: (Units=GPa)
#
#
# Indices 1 2 3 4 5 6 
#
# 1 83.0388 31.1811 10.9770 0.0000 0.0000 0.0000
# 2 31.1811 79.0195 33.1236 0.0000 0.0000 0.0000
# 3 10.9770 33.1236 58.6625 0.0000 0.0000 0.0000
# 4 0.0000 0.0000 0.0000 15.6670 0.0000 0.0000
# 5 0.0000 0.0000 0.0000 0.0000 17.1518 0.0000
# 6 0.0000 0.0000 0.0000 0.0000 0.0000 23.2968
#
#
#
# Elastic Compliance Matrix: (Units=1/GPa)
#
#
# Indices 1 2 3 4 5 6 
#
# 1 0.014157 -0.005864 0.000662 0.000000 0.000000 0.000000
# 2 -0.005864 0.019008 -0.009636 0.000000 0.000000 0.000000
# 3 0.000662 -0.009636 0.022364 0.000000 0.000000 0.000000
# 4 0.000000 0.000000 0.000000 0.063829 0.000000 0.000000
# 5 0.000000 0.000000 0.000000 0.000000 0.058303 0.000000
# 6 0.000000 0.000000 0.000000 0.000000 0.000000 0.042924
#
#
# Mechanical properties :
#
#
# Convention : Reuss Voigt Hill
#
# Bulk Modulus (GPa) = 38.67942 41.25379 39.96661
# Shear Modulus (GPa) = 19.31419 20.91905 20.11662
#
# Velocity S-wave (km/s) = 3.36671 3.50379 3.43594
# Velocity P-wave (km/s) = 6.14918 6.37017 6.26065
#
# Compressibility (1/GPa) = 0.02585354
#
# Stress axis : x y z
#
# Youngs Moduli (GPa) = 70.63681 52.60934 44.71565
#
# Poissons Ratio (x) = 0.30849 -0.02960
# Poissons Ratio (y) = 0.41420 0.43086
# Poissons Ratio (z) = -0.04675 0.50692
#
# Static dielectric constant tensor:
#      x y z
#    x 3.305250 0.000000 0.000000 
#    y 0.000000 3.226490 0.000000 
#    z 0.000000 0.000000 2.953070 
# 
# 
# High freq. dielectric constant tensor:
#      x y z
#    x 1.657850 0.000000 0.000000 
#    y 0.000000 1.654030 0.000000 
#    z 0.000000 0.000000 1.631610 
# 
# From -- ./inp_files/35598.got.cif
#   From: 2010.03.12/outbox.cif.g09.slc.cpg/sg67_18_cif.got.tgz:35598.got - 2010.04.10 22:41:39.
