data_PCOD8278405
_publ_section_title
;
Structure prediction by ZEFSAII (Michael W. Deem and Ramdas Pophale) SiO2 
 PCOD8278405
Probable space group: C M M A
;
_chemical_formula_sum "Si O2"
_cell_formula_units_Z 88
_cell_length_a 27.503901
_cell_length_b 8.553514
_cell_length_c 19.461299
_cell_angle_alpha 90.000000
_cell_angle_beta 90.000000
_cell_angle_gamma 90.000000
_cell_volume 4578.367940
_symmetry_space_group_name_H-M "C M M A"
_symmetry_group_IT_number 67
_symmetry_cell_setting 'orthorhombic'
loop_
_space_group_symop_operation_xyz
x,y,z
-x,1/2-y,z
x,-y,-z
-x,1/2+y,-z
-x,-y,-z
x,1/2+y,-z
-x,y,z
x,1/2-y,z
1/2+x,1/2+y,z
1/2-x,-y,z
1/2+x,1/2-y,-z
1/2-x,y,-z
1/2-x,1/2-y,-z
1/2+x,y,-z
1/2-x,1/2+y,z
1/2+x,-y,z
loop_
_atom_site_type_symbol
_atom_site_label
_atom_site_fract_x
_atom_site_fract_y
_atom_site_fract_z
Si Si1 0.406513 0.435529 0.160761
Si Si2 0.446954 0.065429 0.301614
Si Si3 0.500000 0.436259 0.076051
Si Si4 0.698269 0.934019 0.813264
Si Si5 0.882162 0.065479 0.573852
Si Si6 0.799980 0.433379 0.336600
O O1 0.409272 0.250000 0.158700
O O2 0.415664 0.499957 0.237871
O O3 0.449964 0.500302 0.111804
O O4 0.350226 0.486720 0.142517
O O5 0.500000 0.988860 0.297137
O O6 0.450345 0.250000 0.294057
O O7 0.425437 0.019482 0.374954
O O8 0.500000 0.250000 0.076908
O O9 0.500000 0.500000 0.000000
O O10 0.703577 0.750000 0.815779
O O11 0.750000 0.000000 0.841746
O O12 0.687713 0.983089 0.735176
O O13 0.872275 0.250000 0.571425
O O14 0.896732 0.000000 0.500000
O O15 0.835882 0.974999 0.602172
O O16 0.797709 0.250000 0.322963
O O17 0.750000 0.500000 0.365252
#
# Coordination Sequence:
#
# PCOD8278405 Si02
#       6
#    16  16   8  16  16  16
#     4   9  16  30  56  83 109 145 186 220 263 322
#     4   9  16  30  54  79 100 133 182 225 263 321
#     4  10  20  36  60  90 121 150 182 221 268 325
#     4  10  18  31  52  82 111 143 183 229 274 323
#     4  11  22  36  52  73 102 137 181 228 278 332
#     4  11  21  34  52  75 103 137 176 224 280 331
#
# _framework density 19.220822999999999
#
# number of rings (size 3 to 8) (size 9 to 14) (size 15 to 20)
#    0.000    2.000    2.727    3.818    0.000    0.727 
#    0.000    3.636    0.000    2.182    0.000    3.818 
#    0.000    0.000    0.000    0.000    0.000    0.000 
#
# Total GULP energy -545116.220388 kJ/mol
# GULP energy per Si atom -12389.005009 kJ/mol
# Density = 1.917708 g / cm^3
# Si number density = 19.220823 Si / 1000 Ang^3
#
#
#
# Elastic Constant Matrix: (Units=GPa)
#
#
# Indices 1 2 3 4 5 6 
#
# 1 191.3285 34.5385 66.5950 0.0000 0.0000 0.0000
# 2 34.5385 52.7700 9.0054 0.0000 0.0000 0.0000
# 3 66.5950 9.0054 73.0363 0.0000 0.0000 0.0000
# 4 0.0000 0.0000 0.0000 22.5111 0.0000 0.0000
# 5 0.0000 0.0000 0.0000 0.0000 27.0444 0.0000
# 6 0.0000 0.0000 0.0000 0.0000 0.0000 19.6926
#
#
#
# Elastic Compliance Matrix: (Units=1/GPa)
#
#
# Indices 1 2 3 4 5 6 
#
# 1 0.008533 -0.004349 -0.007244 0.000000 0.000000 0.000000
# 2 -0.004349 0.021574 0.001305 0.000000 0.000000 0.000000
# 3 -0.007244 0.001305 0.020136 0.000000 0.000000 0.000000
# 4 0.000000 0.000000 0.000000 0.044423 0.000000 0.000000
# 5 0.000000 0.000000 0.000000 0.000000 0.036976 0.000000
# 6 0.000000 0.000000 0.000000 0.000000 0.000000 0.050781
#
#
# Mechanical properties :
#
#
# Convention : Reuss Voigt Hill
#
# Bulk Modulus (GPa) = 33.70709 59.71251 46.70980
# Shear Modulus (GPa) = 23.48653 27.64932 25.56792
#
# Velocity S-wave (km/s) = 3.49941 3.79688 3.65117
# Velocity P-wave (km/s) = 5.82260 7.09618 6.49070
#
# Compressibility (1/GPa) = 0.02966735
#
# Stress axis : x y z
#
# Youngs Moduli (GPa) = 117.18942 46.35261 49.66126
#
# Poissons Ratio (x) = 0.20158 0.35977
# Poissons Ratio (y) = 0.50963 -0.06482
# Poissons Ratio (z) = 0.84897 -0.06050
#
# Static dielectric constant tensor:
#      x y z
#    x 4.175390 0.000000 0.000000 
#    y 0.000000 3.223350 0.000000 
#    z 0.000000 0.000000 3.385640 
# 
# 
# High freq. dielectric constant tensor:
#      x y z
#    x 1.773120 0.000000 0.000000 
#    y 0.000000 1.719660 0.000000 
#    z 0.000000 0.000000 1.713230 
# 
# From -- ./inp_files/36192.got.cif
#   From: 2010.03.12/outbox.cif.g09.slc.cpg/sg67_19_cif.got.tgz:36192.got - 2010.04.10 22:41:39.
