data_PCOD8278429
_publ_section_title
;
Structure prediction by ZEFSAII (Michael W. Deem and Ramdas Pophale) SiO2 
 PCOD8278429
Probable space group: C M M A
;
_chemical_formula_sum "Si O2"
_cell_formula_units_Z 96
_cell_length_a 23.876425
_cell_length_b 8.870696
_cell_length_c 25.259300
_cell_angle_alpha 90.000000
_cell_angle_beta 90.000000
_cell_angle_gamma 90.000000
_cell_volume 5349.932565
_symmetry_space_group_name_H-M "C M M A"
_symmetry_group_IT_number 67
_symmetry_cell_setting 'orthorhombic'
loop_
_space_group_symop_operation_xyz
x,y,z
-x,1/2-y,z
x,-y,-z
-x,1/2+y,-z
-x,-y,-z
x,1/2+y,-z
-x,y,z
x,1/2-y,z
1/2+x,1/2+y,z
1/2-x,-y,z
1/2+x,1/2-y,-z
1/2-x,y,-z
1/2-x,1/2-y,-z
1/2+x,y,-z
1/2-x,1/2+y,z
1/2+x,-y,z
loop_
_atom_site_type_symbol
_atom_site_label
_atom_site_fract_x
_atom_site_fract_y
_atom_site_fract_z
Si Si1 0.063878 0.926967 0.554859
Si Si2 0.888176 0.922084 0.347662
Si Si3 0.689134 0.070986 0.252597
Si Si4 0.378462 0.428176 0.843290
Si Si5 0.500000 0.081939 0.283112
Si Si6 0.000000 0.924924 0.823388
Si Si7 0.690460 0.427899 0.946204
O O1 0.067659 0.750000 0.548597
O O2 0.000000 0.977663 0.568714
O O3 0.083228 0.000000 0.500000
O O4 0.108209 0.978461 0.599458
O O5 0.878344 0.750000 0.364632
O O6 0.838583 0.976995 0.308628
O O7 0.946165 0.943528 0.318137
O O8 0.693145 0.250000 0.247830
O O9 0.750000 0.000000 0.248877
O O10 0.651742 0.012611 0.204446
O O11 0.375681 0.250000 0.831645
O O12 0.442421 0.489704 0.848158
O O13 0.350550 0.470273 0.898716
O O14 0.500000 0.250000 0.257876
O O15 0.500000 0.955629 0.238746
O O16 0.000000 0.750000 0.834100
O O17 0.697405 0.250000 0.953618
O O18 0.750000 0.500000 0.932560
O O19 0.665825 0.500000 0.000000
#
# Coordination Sequence:
#
# PCOD8278429 Si02
#       7
#    16  16  16  16   8   8  16
#     4  10  20  32  50  77 108 141 176 215 260 311
#     4  10  20  34  53  76 107 141 173 215 264 314
#     4  11  23  37  55  79 108 142 179 221 267 315
#     4  10  21  36  55  80 110 142 176 217 265 318
#     4  10  18  32  51  76 107 140 176 215 262 315
#     4  10  20  34  53  78 110 144 176 213 259 317
#     4  10  20  35  55  78 103 135 177 223 269 314
#
# _framework density 17.944151000000002
#
# number of rings (size 3 to 8) (size 9 to 14) (size 15 to 20)
#    0.000    1.833    2.500    2.500    0.000    5.333 
#    0.000    0.417    0.000    0.500    0.000    3.500 
#    0.000    0.000    0.000    0.000    0.000    0.000 
#
# Total GULP energy -595138.532899 kJ/mol
# GULP energy per Si atom -12398.719435 kJ/mol
# Density = 1.790331 g / cm^3
# Si number density = 17.944151 Si / 1000 Ang^3
#
#
#
# Elastic Constant Matrix: (Units=GPa)
#
#
# Indices 1 2 3 4 5 6 
#
# 1 125.1758 41.8199 74.4130 0.0000 0.0000 0.0000
# 2 41.8199 66.1936 57.7082 0.0000 0.0000 0.0000
# 3 74.4130 57.7082 144.7136 0.0000 0.0000 0.0000
# 4 0.0000 0.0000 0.0000 32.7922 0.0000 0.0000
# 5 0.0000 0.0000 0.0000 0.0000 32.4506 0.0000
# 6 0.0000 0.0000 0.0000 0.0000 0.0000 31.3324
#
#
#
# Elastic Compliance Matrix: (Units=1/GPa)
#
#
# Indices 1 2 3 4 5 6 
#
# 1 0.011977 -0.003369 -0.004815 0.000000 0.000000 0.000000
# 2 -0.003369 0.024106 -0.007881 0.000000 0.000000 0.000000
# 3 -0.004815 -0.007881 0.012529 0.000000 0.000000 0.000000
# 4 0.000000 0.000000 0.000000 0.030495 0.000000 0.000000
# 5 0.000000 0.000000 0.000000 0.000000 0.030816 0.000000
# 6 0.000000 0.000000 0.000000 0.000000 0.000000 0.031916
#
#
# Mechanical properties :
#
#
# Convention : Reuss Voigt Hill
#
# Bulk Modulus (GPa) = 60.67086 75.99612 68.33349
# Shear Modulus (GPa) = 27.86115 30.12450 28.99282
#
# Velocity S-wave (km/s) = 3.94465 4.10175 4.02397
# Velocity P-wave (km/s) = 7.39131 8.05456 7.73005
#
# Compressibility (1/GPa) = 0.01648238
#
# Stress axis : x y z
#
# Youngs Moduli (GPa) = 83.49561 41.48365 79.81632
#
# Poissons Ratio (x) = 0.13975 0.38433
# Poissons Ratio (y) = 0.28128 0.62900
# Poissons Ratio (z) = 0.40204 0.32692
#
# Static dielectric constant tensor:
#      x y z
#    x 3.650710 0.000000 0.000000 
#    y 0.000000 3.349260 0.000000 
#    z 0.000000 0.000000 3.359590 
# 
# 
# High freq. dielectric constant tensor:
#      x y z
#    x 1.684630 0.000000 0.000000 
#    y 0.000000 1.697860 0.000000 
#    z 0.000000 0.000000 1.695390 
# 
# From -- ./inp_files/42576.got.cif
#   From: 2010.03.12/outbox.cif.g09.slc.cpg/sg67_22_cif.got.tgz:42576.got - 2010.04.10 22:41:39.
