data_PCOD8278100
_publ_section_title
;
Structure prediction by ZEFSAII (Michael W. Deem and Ramdas Pophale) SiO2 
 PCOD8278100
Probable space group: C M M A
;
_chemical_formula_sum "Si O2"
_cell_formula_units_Z 80
_cell_length_a 19.425249
_cell_length_b 8.617802
_cell_length_c 25.672711
_cell_angle_alpha 90.000000
_cell_angle_beta 90.000000
_cell_angle_gamma 90.000000
_cell_volume 4297.687548
_symmetry_space_group_name_H-M "C M M A"
_symmetry_group_IT_number 67
_symmetry_cell_setting 'orthorhombic'
loop_
_space_group_symop_operation_xyz
x,y,z
-x,1/2-y,z
x,-y,-z
-x,1/2+y,-z
-x,-y,-z
x,1/2+y,-z
-x,y,z
x,1/2-y,z
1/2+x,1/2+y,z
1/2-x,-y,z
1/2+x,1/2-y,-z
1/2-x,y,-z
1/2-x,1/2-y,-z
1/2+x,y,-z
1/2-x,1/2+y,z
1/2+x,-y,z
loop_
_atom_site_type_symbol
_atom_site_label
_atom_site_fract_x
_atom_site_fract_y
_atom_site_fract_z
Si Si1 0.579030 0.570594 0.351861
Si Si2 0.325252 0.068276 0.842561
Si Si3 0.326631 0.066413 0.051956
Si Si4 0.920143 0.070585 0.756987
Si Si5 0.675735 0.433444 0.554733
O O1 0.500000 0.542471 0.366905
O O2 0.593356 0.750000 0.338710
O O3 0.600526 0.469439 0.302047
O O4 0.623522 0.512572 0.400553
O O5 0.317433 0.250000 0.851552
O O6 0.250000 0.000000 0.830691
O O7 0.360594 0.992747 0.894266
O O8 0.375144 0.035144 0.794683
O O9 0.326911 0.250000 0.049781
O O10 0.250000 0.000000 0.052672
O O11 0.364687 0.000000 0.000000
O O12 0.904052 0.250000 0.767813
O O13 0.000000 0.030681 0.766598
O O14 0.648634 0.500000 0.500000
O O15 0.680393 0.250000 0.550206
O O16 0.750000 0.500000 0.569113
#
# Coordination Sequence:
#
# PCOD8278100 Si02
#       5
#    16  16  16  16  16
#     4   9  19  36  55  75 100 133 173 213 254 302
#     4  11  21  34  53  78 107 138 175 218 263 310
#     4  10  17  28  46  71 103 136 172 213 260 310
#     4  10  21  37  56  78 105 138 175 215 261 313
#     4  10  20  34  53  76 104 136 168 206 252 304
#
# _framework density 18.614661999999999
#
# number of rings (size 3 to 8) (size 9 to 14) (size 15 to 20)
#    0.000    2.000    0.000    7.200    0.000    4.000 
#    0.000    2.000    0.000    0.600    0.000    0.000 
#    0.000    0.000    0.000    0.000    0.000    0.000 
#
# Total GULP energy -496018.421789 kJ/mol
# GULP energy per Si atom -12400.460545 kJ/mol
# Density = 1.857229 g / cm^3
# Si number density = 18.614662 Si / 1000 Ang^3
#
#
#
# Elastic Constant Matrix: (Units=GPa)
#
#
# Indices 1 2 3 4 5 6 
#
# 1 59.9444 33.4921 67.6121 0.0000 0.0000 0.0000
# 2 33.4921 127.8621 54.4467 0.0000 0.0000 0.0000
# 3 67.6121 54.4467 148.5201 0.0000 0.0000 0.0000
# 4 0.0000 0.0000 0.0000 37.3677 0.0000 0.0000
# 5 0.0000 0.0000 0.0000 0.0000 0.0525 0.0000
# 6 0.0000 0.0000 0.0000 0.0000 0.0000 23.8813
#
#
#
# Elastic Compliance Matrix: (Units=1/GPa)
#
#
# Indices 1 2 3 4 5 6 
#
# 1 0.035134 -0.002835 -0.014955 0.000000 0.000000 0.000000
# 2 -0.002835 0.009496 -0.002191 0.000000 0.000000 0.000000
# 3 -0.014955 -0.002191 0.014344 0.000000 0.000000 0.000000
# 4 0.000000 0.000000 0.000000 0.026761 0.000000 0.000000
# 5 0.000000 0.000000 0.000000 0.000000 19.043370 0.000000
# 6 0.000000 0.000000 0.000000 0.000000 0.000000 0.041874
#
#
# Mechanical properties :
#
#
# Convention : Reuss Voigt Hill
#
# Bulk Modulus (GPa) = 52.59453 71.93648 62.26551
# Shear Modulus (GPa) = 0.26018 24.31203 12.28611
#
# Velocity S-wave (km/s) = 0.37427 3.61788 2.57188
# Velocity P-wave (km/s) = 5.33877 7.49540 6.50705
#
# Compressibility (1/GPa) = 0.01901338
#
# Stress axis : x y z
#
# Youngs Moduli (GPa) = 28.46230 105.30350 69.71335
#
# Poissons Ratio (x) = 0.29851 1.04258
# Poissons Ratio (y) = 0.08068 0.15273
# Poissons Ratio (z) = 0.42566 0.23070
#
# Static dielectric constant tensor:
#      x y z
#    x 3.151020 0.000000 0.000000 
#    y 0.000000 3.486870 0.000000 
#    z 0.000000 0.000000 4.008140 
# 
# 
# High freq. dielectric constant tensor:
#      x y z
#    x 1.686980 0.000000 0.000000 
#    y 0.000000 1.737450 0.000000 
#    z 0.000000 0.000000 1.741210 
# 
# From -- ./inp_files/43294.got.cif
#   From: 2010.03.12/outbox.cif.g09.slc.cpg/sg67_22_cif.got.tgz:43294.got - 2010.04.10 22:41:39.
