data_PCOD8278402
_publ_section_title
;
Structure prediction by ZEFSAII (Michael W. Deem and Ramdas Pophale) SiO2 
 PCOD8278402
Probable space group: C M M A
;
_chemical_formula_sum "Si O2"
_cell_formula_units_Z 80
_cell_length_a 17.703060
_cell_length_b 10.206064
_cell_length_c 24.231513
_cell_angle_alpha 90.000000
_cell_angle_beta 90.000000
_cell_angle_gamma 90.000000
_cell_volume 4378.114957
_symmetry_space_group_name_H-M "C M M A"
_symmetry_group_IT_number 67
_symmetry_cell_setting 'orthorhombic'
loop_
_space_group_symop_operation_xyz
x,y,z
-x,1/2-y,z
x,-y,-z
-x,1/2+y,-z
-x,-y,-z
x,1/2+y,-z
-x,y,z
x,1/2-y,z
1/2+x,1/2+y,z
1/2-x,-y,z
1/2+x,1/2-y,-z
1/2-x,y,-z
1/2-x,1/2-y,-z
1/2+x,y,-z
1/2-x,1/2+y,z
1/2+x,-y,z
loop_
_atom_site_type_symbol
_atom_site_label
_atom_site_fract_x
_atom_site_fract_y
_atom_site_fract_z
Si Si1 0.681102 0.099119 0.656040
Si Si2 0.159736 0.250000 0.936356
Si Si3 0.339667 0.002494 0.871218
Si Si4 0.339254 0.250000 0.940001
Si Si5 0.912479 0.900766 0.764400
Si Si6 0.412559 0.100960 0.546575
O O1 0.709507 0.250000 0.658286
O O2 0.626721 0.066831 0.706798
O O3 0.634795 0.071575 0.600864
O O4 0.750000 0.000000 0.658500
O O5 0.130657 0.375058 0.902876
O O6 0.249372 0.250000 0.941616
O O7 0.126273 0.250000 0.998307
O O8 0.368501 0.123146 0.907895
O O9 0.376897 0.007055 0.811128
O O10 0.250000 0.000000 0.863477
O O11 0.899164 0.750000 0.781280
O O12 0.000000 0.933952 0.757637
O O13 0.500000 0.076956 0.560916
O O14 0.399537 0.250000 0.525744
O O15 0.384445 0.000000 0.500000
#
# Coordination Sequence:
#
# PCOD8278402 Si02
#       6
#    16   8  16   8  16  16
#     4  10  21  37  57  82 109 140 180 226 271 313
#     4   9  18  28  49  77 109 135 164 217 262 309
#     4  10  18  31  52  78 104 134 173 216 262 310
#     4   9  16  30  49  77 105 137 174 207 256 313
#     4  10  20  36  57  76 100 138 182 219 259 320
#     4   9  18  34  57  83 113 149 186 221 260 310
#
# _framework density 18.272704000000001
#
# number of rings (size 3 to 8) (size 9 to 14) (size 15 to 20)
#    0.000    2.400    1.000    1.800    0.000    6.000 
#    1.800    2.500    0.000    4.800    0.000    0.000 
#    0.000    0.000    0.000    0.000    0.000    0.000 
#
# Total GULP energy -496048.303155 kJ/mol
# GULP energy per Si atom -12401.207579 kJ/mol
# Density = 1.823111 g / cm^3
# Si number density = 18.272704 Si / 1000 Ang^3
#
#
#
# Elastic Constant Matrix: (Units=GPa)
#
#
# Indices 1 2 3 4 5 6 
#
# 1 73.0740 52.2937 60.9215 0.0000 0.0000 0.0000
# 2 52.2937 134.4449 88.3532 0.0000 0.0000 0.0000
# 3 60.9215 88.3532 167.9436 0.0000 0.0000 0.0000
# 4 0.0000 0.0000 0.0000 33.1006 0.0000 0.0000
# 5 0.0000 0.0000 0.0000 0.0000 -11.6001 0.0000
# 6 0.0000 0.0000 0.0000 0.0000 0.0000 21.9475
#
#
#
# Elastic Compliance Matrix: (Units=1/GPa)
#
#
# Indices 1 2 3 4 5 6 
#
# 1 0.021591 -0.004969 -0.005218 0.000000 0.000000 0.000000
# 2 -0.004969 0.012512 -0.004780 0.000000 0.000000 0.000000
# 3 -0.005218 -0.004780 0.010362 0.000000 0.000000 0.000000
# 4 0.000000 0.000000 0.000000 0.030211 0.000000 0.000000
# 5 0.000000 0.000000 0.000000 0.000000 -0.086206 0.000000
# 6 0.000000 0.000000 0.000000 0.000000 0.000000 0.045563
#
#
# Mechanical properties :
#
#
# Convention : Reuss Voigt Hill
#
# Bulk Modulus (GPa) = 68.81817 86.51102 77.66459
# Shear Modulus (GPa) = 72.66425 20.28256 46.47340
#
# Velocity S-wave (km/s) = 6.31291 3.33527 5.04861
# Velocity P-wave (km/s) = 9.53314 7.89172 8.75100
#
# Compressibility (1/GPa) = 0.01453105
#
# Stress axis : x y z
#
# Youngs Moduli (GPa) = 46.31598 79.92393 96.50769
#
# Poissons Ratio (x) = 0.39713 0.50358
# Poissons Ratio (y) = 0.23014 0.46130
# Poissons Ratio (z) = 0.24168 0.38203
#
# Static dielectric constant tensor:
#      x y z
#    x 3.071040 0.000000 0.000000 
#    y 0.000000 3.457100 0.000000 
#    z 0.000000 0.000000 3.462720 
# 
# 
# High freq. dielectric constant tensor:
#      x y z
#    x 1.682330 0.000000 0.000000 
#    y 0.000000 1.707600 0.000000 
#    z 0.000000 0.000000 1.723220 
# 
# From -- ./inp_files/38873.got.cif
#   From: 2010.03.12/outbox.cif.g09.slc.cpg/sg67_20_cif.got.tgz:38873.got - 2010.04.10 22:41:39.
