data_PCOD8278891
_publ_section_title
;
Structure prediction by ZEFSAII (Michael W. Deem and Ramdas Pophale) SiO2 
 PCOD8278891
Probable space group: C M M A
;
_chemical_formula_sum "Si O2"
_cell_formula_units_Z 80
_cell_length_a 8.692406
_cell_length_b 19.622027
_cell_length_c 25.620993
_cell_angle_alpha 90.000000
_cell_angle_beta 90.000000
_cell_angle_gamma 90.000000
_cell_volume 4369.983827
_symmetry_space_group_name_H-M "C M M A"
_symmetry_group_IT_number 67
_symmetry_cell_setting 'orthorhombic'
loop_
_space_group_symop_operation_xyz
x,y,z
-x,1/2-y,z
x,-y,-z
-x,1/2+y,-z
-x,-y,-z
x,1/2+y,-z
-x,y,z
x,1/2-y,z
1/2+x,1/2+y,z
1/2-x,-y,z
1/2+x,1/2-y,-z
1/2-x,y,-z
1/2-x,1/2-y,-z
1/2+x,y,-z
1/2-x,1/2+y,z
1/2+x,-y,z
loop_
_atom_site_type_symbol
_atom_site_label
_atom_site_fract_x
_atom_site_fract_y
_atom_site_fract_z
Si Si1 0.323359 0.170095 0.862991
Si Si2 0.683171 0.674099 0.644351
Si Si3 0.316539 0.426409 0.445127
Si Si4 0.329349 0.830855 0.758141
Si Si5 0.180728 0.928472 0.055652
O O1 0.500000 0.152796 0.874161
O O2 0.288556 0.250000 0.869394
O O3 0.282851 0.144997 0.804438
O O4 0.217531 0.130852 0.903730
O O5 0.500000 0.676921 0.643959
O O6 0.749718 0.750000 0.634092
O O7 0.744774 0.624518 0.599379
O O8 0.735695 0.645659 0.701435
O O9 0.500000 0.429757 0.448110
O O10 0.250000 0.500000 0.431370
O O11 0.250000 0.399849 0.500000
O O12 0.500000 0.861201 0.768483
O O13 0.340310 0.750000 0.756386
O O14 0.000000 0.936820 0.049661
O O15 0.250000 0.000000 0.075528
O O16 0.250000 0.907513 0.000000
#
# Coordination Sequence:
#
# PCOD8278891 Si02
#       5
#    16  16  16  16  16
#     4  10  20  34  53  79 109 138 171 211 252 296
#     4   8  15  29  50  73  95 123 162 205 246 290
#     4  10  19  32  49  68  94 127 161 198 243 294
#     4   8  14  28  50  73  97 128 165 203 247 297
#     4  11  22  38  58  78 104 137 173 211 256 306
#
# _framework density 18.306704
#
# number of rings (size 3 to 8) (size 9 to 14) (size 15 to 20)
#    0.000    2.600    0.000    5.400    0.000    2.000 
#    0.000    3.000    0.000    6.600    0.000    0.000 
#    0.000    0.000    0.000    0.000    0.000    0.000 
#
# Total GULP energy -495886.547651 kJ/mol
# GULP energy per Si atom -12397.163691 kJ/mol
# Density = 1.826504 g / cm^3
# Si number density = 18.306704 Si / 1000 Ang^3
#
#
#
# Elastic Constant Matrix: (Units=GPa)
#
#
# Indices 1 2 3 4 5 6 
#
# 1 92.0130 32.5050 45.7003 0.0000 0.0000 0.0000
# 2 32.5050 67.4979 70.4786 0.0000 0.0000 0.0000
# 3 45.7003 70.4786 149.1122 0.0000 0.0000 0.0000
# 4 0.0000 0.0000 0.0000 10.5686 0.0000 0.0000
# 5 0.0000 0.0000 0.0000 0.0000 27.5741 0.0000
# 6 0.0000 0.0000 0.0000 0.0000 0.0000 21.4251
#
#
#
# Elastic Compliance Matrix: (Units=1/GPa)
#
#
# Indices 1 2 3 4 5 6 
#
# 1 0.013418 -0.004280 -0.002089 0.000000 0.000000 0.000000
# 2 -0.004280 0.030617 -0.013160 0.000000 0.000000 0.000000
# 3 -0.002089 -0.013160 0.013567 0.000000 0.000000 0.000000
# 4 0.000000 0.000000 0.000000 0.094620 0.000000 0.000000
# 5 0.000000 0.000000 0.000000 0.000000 0.036266 0.000000
# 6 0.000000 0.000000 0.000000 0.000000 0.000000 0.046674
#
#
# Mechanical properties :
#
#
# Convention : Reuss Voigt Hill
#
# Bulk Modulus (GPa) = 53.92678 67.33232 60.62955
# Shear Modulus (GPa) = 17.83166 22.57619 20.20392
#
# Velocity S-wave (km/s) = 3.12436 3.51553 3.32570
# Velocity P-wave (km/s) = 6.52203 7.30333 6.92371
#
# Compressibility (1/GPa) = 0.01854366
#
# Stress axis : x y z
#
# Youngs Moduli (GPa) = 74.52837 32.66156 73.71031
#
# Poissons Ratio (x) = 0.13979 0.15401
# Poissons Ratio (y) = 0.31898 0.96999
# Poissons Ratio (z) = 0.15572 0.42981
#
# Static dielectric constant tensor:
#      x y z
#    x 3.262970 0.000000 0.000000 
#    y 0.000000 3.220050 0.000000 
#    z 0.000000 0.000000 3.739960 
# 
# 
# High freq. dielectric constant tensor:
#      x y z
#    x 1.700160 0.000000 0.000000 
#    y 0.000000 1.683180 0.000000 
#    z 0.000000 0.000000 1.723930 
# 
# From -- ./inp_files/43339.got.cif
#   From: 2010.03.12/outbox.cif.g09.slc.cpg/sg67_22_cif.got.tgz:43339.got - 2010.04.10 22:41:39.
