data_PCOD8278636
_publ_section_title
;
Structure prediction by ZEFSAII (Michael W. Deem and Ramdas Pophale) SiO2 
 PCOD8278636
Probable space group: C M M A
;
_chemical_formula_sum "Si O2"
_cell_formula_units_Z 104
_cell_length_a 26.597682
_cell_length_b 9.509215
_cell_length_c 23.877233
_cell_angle_alpha 90.000000
_cell_angle_beta 90.000000
_cell_angle_gamma 90.000000
_cell_volume 6039.103232
_symmetry_space_group_name_H-M "C M M A"
_symmetry_group_IT_number 67
_symmetry_cell_setting 'orthorhombic'
loop_
_space_group_symop_operation_xyz
x,y,z
-x,1/2-y,z
x,-y,-z
-x,1/2+y,-z
-x,-y,-z
x,1/2+y,-z
-x,y,z
x,1/2-y,z
1/2+x,1/2+y,z
1/2-x,-y,z
1/2+x,1/2-y,-z
1/2-x,y,-z
1/2-x,1/2-y,-z
1/2+x,y,-z
1/2-x,1/2+y,z
1/2+x,-y,z
loop_
_atom_site_type_symbol
_atom_site_label
_atom_site_fract_x
_atom_site_fract_y
_atom_site_fract_z
Si Si1 0.798785 0.584400 0.721079
Si Si2 0.943974 0.591498 0.228067
Si Si3 0.296732 0.410054 0.851287
Si Si4 0.442567 0.913682 0.553686
Si Si5 0.616446 0.090333 0.336029
Si Si6 0.500000 0.583938 0.057021
Si Si7 0.093858 0.412349 0.132814
O O1 0.792746 0.750000 0.709345
O O2 0.750000 0.500000 0.701388
O O3 0.808659 0.553613 0.786610
O O4 0.842787 0.523056 0.682706
O O5 0.939613 0.750000 0.205154
O O6 0.929357 0.584472 0.292666
O O7 0.908813 0.494717 0.190734
O O8 0.000000 0.533042 0.222212
O O9 0.279307 0.250000 0.857210
O O10 0.250000 0.500000 0.874977
O O11 0.348135 0.437222 0.887441
O O12 0.500000 0.953456 0.569227
O O13 0.438158 0.750000 0.539440
O O14 0.405908 0.955135 0.604398
O O15 0.423929 0.000000 0.500000
O O16 0.638597 0.250000 0.337603
O O17 0.500000 0.750000 0.045069
O O18 0.448974 0.537202 0.089325
O O19 0.500000 0.500000 0.000000
O O20 0.085025 0.250000 0.146842
#
# Coordination Sequence:
#
# PCOD8278636 Si02
#       7
#    16  16  16  16  16   8  16
#     4  10  19  31  48  71 101 134 167 205 249 306
#     4  10  19  29  45  73 105 135 165 202 249 305
#     4   9  18  31  49  74 104 136 172 208 253 307
#     4   9  18  33  51  70  96 131 170 211 252 299
#     4  10  19  31  48  71 101 134 167 205 254 305
#     4  10  22  38  58  78 106 142 179 218 257 302
#     4  10  19  34  53  75 104 139 171 210 258 303
#
# _framework density 17.221098999999999
#
# number of rings (size 3 to 8) (size 9 to 14) (size 15 to 20)
#    0.000    2.308    2.308    0.923    0.000    4.308 
#    0.000    0.000    0.000    3.692    0.000    6.462 
#    0.000    0.000    0.000    0.000    0.000    0.000 
#
# Total GULP energy -644591.659207 kJ/mol
# GULP energy per Si atom -12395.993446 kJ/mol
# Density = 1.718190 g / cm^3
# Si number density = 17.221099 Si / 1000 Ang^3
#
#
#
# Elastic Constant Matrix: (Units=GPa)
#
#
# Indices 1 2 3 4 5 6 
#
# 1 124.2141 53.0213 39.1893 0.0000 0.0000 0.0000
# 2 53.0213 66.6168 34.4589 0.0000 0.0000 0.0000
# 3 39.1893 34.4589 68.6503 0.0000 0.0000 0.0000
# 4 0.0000 0.0000 0.0000 23.3561 0.0000 0.0000
# 5 0.0000 0.0000 0.0000 0.0000 17.2206 0.0000
# 6 0.0000 0.0000 0.0000 0.0000 0.0000 31.1311
#
#
#
# Elastic Compliance Matrix: (Units=1/GPa)
#
#
# Indices 1 2 3 4 5 6 
#
# 1 0.012612 -0.008528 -0.002919 0.000000 0.000000 0.000000
# 2 -0.008528 0.026042 -0.008204 0.000000 0.000000 0.000000
# 3 -0.002919 -0.008204 0.020351 0.000000 0.000000 0.000000
# 4 0.000000 0.000000 0.000000 0.042815 0.000000 0.000000
# 5 0.000000 0.000000 0.000000 0.000000 0.058070 0.000000
# 6 0.000000 0.000000 0.000000 0.000000 0.000000 0.032122
#
#
# Mechanical properties :
#
#
# Convention : Reuss Voigt Hill
#
# Bulk Modulus (GPa) = 50.75201 56.98004 53.86603
# Shear Modulus (GPa) = 21.01890 23.19567 22.10729
#
# Velocity S-wave (km/s) = 3.49740 3.67404 3.58681
# Velocity P-wave (km/s) = 6.77081 7.15243 6.96424
#
# Compressibility (1/GPa) = 0.01970365
#
# Stress axis : x y z
#
# Youngs Moduli (GPa) = 79.29129 38.39902 49.13862
#
# Poissons Ratio (x) = 0.32747 0.14343
# Poissons Ratio (y) = 0.67620 0.40312
# Poissons Ratio (z) = 0.23144 0.31501
#
# Static dielectric constant tensor:
#      x y z
#    x 3.360890 0.000000 0.000000 
#    y 0.000000 3.214600 0.000000 
#    z 0.000000 0.000000 2.921420 
# 
# 
# High freq. dielectric constant tensor:
#      x y z
#    x 1.671300 0.000000 0.000000 
#    y 0.000000 1.667410 0.000000 
#    z 0.000000 0.000000 1.629130 
# 
# From -- ./inp_files/37519.got.cif
#   From: 2010.03.12/outbox.cif.g09.slc.cpg/sg67_19_cif.got.tgz:37519.got - 2010.04.10 22:41:39.
