data_PCOD8278559
_publ_section_title
;
Structure prediction by ZEFSAII (Michael W. Deem and Ramdas Pophale) SiO2 
 PCOD8278559
Probable space group: C M M A
;
_chemical_formula_sum "Si O2"
_cell_formula_units_Z 96
_cell_length_a 15.833473
_cell_length_b 16.804524
_cell_length_c 18.126592
_cell_angle_alpha 90.000000
_cell_angle_beta 90.000000
_cell_angle_gamma 90.000000
_cell_volume 4823.014423
_symmetry_space_group_name_H-M "C M M A"
_symmetry_group_IT_number 67
_symmetry_cell_setting 'orthorhombic'
loop_
_space_group_symop_operation_xyz
x,y,z
-x,1/2-y,z
x,-y,-z
-x,1/2+y,-z
-x,-y,-z
x,1/2+y,-z
-x,y,z
x,1/2-y,z
1/2+x,1/2+y,z
1/2-x,-y,z
1/2+x,1/2-y,-z
1/2-x,y,-z
1/2-x,1/2-y,-z
1/2+x,y,-z
1/2-x,1/2+y,z
1/2+x,-y,z
loop_
_atom_site_type_symbol
_atom_site_label
_atom_site_fract_x
_atom_site_fract_y
_atom_site_fract_z
Si Si1 0.904518 0.104405 0.666032
Si Si2 0.225757 0.658028 0.082772
Si Si3 0.184953 0.425841 0.204059
Si Si4 0.222979 0.341769 0.356222
Si Si5 0.091798 0.433006 0.830079
Si Si6 0.595124 0.952336 0.425649
O O1 0.824504 0.149951 0.629449
O O2 0.891247 0.114011 0.753492
O O3 0.000000 0.136037 0.643416
O O4 0.897490 0.012087 0.643627
O O5 0.200009 0.750000 0.089982
O O6 0.301824 0.637729 0.138527
O O7 0.149422 0.600990 0.105367
O O8 0.250000 0.635715 0.000000
O O9 0.250000 0.500000 0.203657
O O10 0.190509 0.379127 0.280092
O O11 0.097878 0.471809 0.186704
O O12 0.198928 0.250000 0.357976
O O13 0.167036 0.384672 0.419387
O O14 0.000000 0.415096 0.860117
O O15 0.500000 0.915464 0.428210
O O16 0.613987 0.000000 0.500000
#
# Coordination Sequence:
#
# PCOD8278559 Si02
#       6
#    16  16  16  16  16  16
#     4  10  20  37  60  89 124 165 209 248 290 357
#     4  10  21  37  57  84 117 155 198 248 309 361
#     4  10  18  34  57  83 116 156 201 242 287 357
#     4  12  22  35  61  95 128 161 200 249 312 372
#     4  10  20  35  60  88 116 155 205 249 293 355
#     4  10  22  42  66  88 116 162 211 255 305 364
#
# _framework density 19.904565000000002
#
# number of rings (size 3 to 8) (size 9 to 14) (size 15 to 20)
#    0.000    1.667    5.000    1.000    0.000    5.333 
#    0.000    5.000    0.000    5.500    0.000    0.000 
#    0.000    0.000    0.000    0.000    0.000    0.000 
#
# Total GULP energy -594712.304749 kJ/mol
# GULP energy per Si atom -12389.839682 kJ/mol
# Density = 1.985926 g / cm^3
# Si number density = 19.904565 Si / 1000 Ang^3
#
#
#
# Elastic Constant Matrix: (Units=GPa)
#
#
# Indices 1 2 3 4 5 6 
#
# 1 132.0859 57.5926 53.9679 0.0000 0.0000 0.0000
# 2 57.5926 106.0830 44.4269 0.0000 0.0000 0.0000
# 3 53.9679 44.4269 87.6341 0.0000 0.0000 0.0000
# 4 0.0000 0.0000 0.0000 27.9435 0.0000 0.0000
# 5 0.0000 0.0000 0.0000 0.0000 27.2909 0.0000
# 6 0.0000 0.0000 0.0000 0.0000 0.0000 15.4715
#
#
#
# Elastic Compliance Matrix: (Units=1/GPa)
#
#
# Indices 1 2 3 4 5 6 
#
# 1 0.011375 -0.004116 -0.004919 0.000000 0.000000 0.000000
# 2 -0.004116 0.013456 -0.004287 0.000000 0.000000 0.000000
# 3 -0.004919 -0.004287 0.016614 0.000000 0.000000 0.000000
# 4 0.000000 0.000000 0.000000 0.035786 0.000000 0.000000
# 5 0.000000 0.000000 0.000000 0.000000 0.036642 0.000000
# 6 0.000000 0.000000 0.000000 0.000000 0.000000 0.064635
#
#
# Mechanical properties :
#
#
# Convention : Reuss Voigt Hill
#
# Bulk Modulus (GPa) = 67.55885 70.86420 69.21153
# Shear Modulus (GPa) = 23.79978 25.46223 24.63101
#
# Velocity S-wave (km/s) = 3.46163 3.58049 3.52156
# Velocity P-wave (km/s) = 7.07052 7.26447 7.16815
#
# Compressibility (1/GPa) = 0.01480191
#
# Stress axis : x y z
#
# Youngs Moduli (GPa) = 87.91210 74.31374 60.19148
#
# Poissons Ratio (x) = 0.30585 0.29606
# Poissons Ratio (y) = 0.36181 0.25806
# Poissons Ratio (z) = 0.43241 0.31861
#
# Static dielectric constant tensor:
#      x y z
#    x 4.139130 0.000000 0.000000 
#    y 0.000000 3.574110 0.000000 
#    z 0.000000 0.000000 3.541620 
# 
# 
# High freq. dielectric constant tensor:
#      x y z
#    x 1.777000 0.000000 0.000000 
#    y 0.000000 1.754850 0.000000 
#    z 0.000000 0.000000 1.771120 
# 
# From -- ./inp_files/34206.got.cif
#   From: 2010.03.12/outbox.cif.g09.slc.cpg/sg67_18_cif.got.tgz:34206.got - 2010.04.10 22:41:39.
