data_PCOD8278022
_publ_section_title
;
Structure prediction by ZEFSAII (Michael W. Deem and Ramdas Pophale) SiO2 
 PCOD8278022
Probable space group: C M M A
;
_chemical_formula_sum "Si O2"
_cell_formula_units_Z 96
_cell_length_a 8.673402
_cell_length_b 27.315317
_cell_length_c 23.942235
_cell_angle_alpha 90.000000
_cell_angle_beta 90.000000
_cell_angle_gamma 90.000000
_cell_volume 5672.315908
_symmetry_space_group_name_H-M "C M M A"
_symmetry_group_IT_number 67
_symmetry_cell_setting 'orthorhombic'
loop_
_space_group_symop_operation_xyz
x,y,z
-x,1/2-y,z
x,-y,-z
-x,1/2+y,-z
-x,-y,-z
x,1/2+y,-z
-x,y,z
x,1/2-y,z
1/2+x,1/2+y,z
1/2-x,-y,z
1/2+x,1/2-y,-z
1/2-x,y,-z
1/2-x,1/2-y,-z
1/2+x,y,-z
1/2-x,1/2+y,z
1/2+x,-y,z
loop_
_atom_site_type_symbol
_atom_site_label
_atom_site_fract_x
_atom_site_fract_y
_atom_site_fract_z
Si Si1 0.683142 0.054419 0.555616
Si Si2 0.181573 0.053548 0.668607
Si Si3 0.179618 0.894160 0.771560
Si Si4 0.319539 0.142601 0.057322
Si Si5 0.680184 0.806031 0.829878
Si Si6 0.680847 0.947164 0.114968
O O1 0.500000 0.054452 0.553796
O O2 0.750000 0.081447 0.500000
O O3 0.744330 0.078500 0.612996
O O4 0.750000 0.000000 0.556242
O O5 0.219275 0.089382 0.719279
O O6 0.000000 0.048411 0.660495
O O7 0.250000 0.000000 0.681057
O O8 0.222660 0.838369 0.786403
O O9 0.224876 0.929069 0.823071
O O10 0.000000 0.897834 0.756639
O O11 0.500000 0.137423 0.050501
O O12 0.274678 0.179956 0.106760
O O13 0.250854 0.089134 0.069266
O O14 0.250000 0.163739 0.000000
O O15 0.500000 0.815709 0.819643
O O16 0.725494 0.750000 0.819401
O O17 0.500000 0.948860 0.106365
O O18 0.750000 0.000000 0.104480
#
# Coordination Sequence:
#
# PCOD8278022 Si02
#       6
#    16  16  16  16  16  16
#     4  10  17  27  41  60  89 126 167 205 239 275
#     4  11  20  30  45  67  96 131 167 201 237 277
#     4  10  20  33  49  71  96 122 155 195 236 280
#     4  10  20  34  51  71  95 120 150 187 226 273
#     4   9  19  36  55  73  94 121 150 185 234 286
#     4  10  20  33  49  68  92 122 155 189 228 273
#
# _framework density 16.924305
#
# number of rings (size 3 to 8) (size 9 to 14) (size 15 to 20)
#    0.000    2.000    0.000    6.500    0.000    5.000 
#    0.000    1.667    0.000    0.000    0.000    0.000 
#    0.000    0.667    0.000    2.500    0.000    4.167 
#
# Total GULP energy -595250.787660 kJ/mol
# GULP energy per Si atom -12401.058076 kJ/mol
# Density = 1.688578 g / cm^3
# Si number density = 16.924305 Si / 1000 Ang^3
#
#
#
# Elastic Constant Matrix: (Units=GPa)
#
#
# Indices 1 2 3 4 5 6 
#
# 1 105.9652 21.9877 45.8119 0.0000 0.0000 0.0000
# 2 21.9877 65.3825 22.4736 0.0000 0.0000 0.0000
# 3 45.8119 22.4736 108.7223 0.0000 0.0000 0.0000
# 4 0.0000 0.0000 0.0000 12.6088 0.0000 0.0000
# 5 0.0000 0.0000 0.0000 0.0000 32.4915 0.0000
# 6 0.0000 0.0000 0.0000 0.0000 0.0000 22.1785
#
#
#
# Elastic Compliance Matrix: (Units=1/GPa)
#
#
# Indices 1 2 3 4 5 6 
#
# 1 0.011893 -0.002451 -0.004505 0.000000 0.000000 0.000000
# 2 -0.002451 0.016970 -0.002475 0.000000 0.000000 0.000000
# 3 -0.004505 -0.002475 0.011607 0.000000 0.000000 0.000000
# 4 0.000000 0.000000 0.000000 0.079310 0.000000 0.000000
# 5 0.000000 0.000000 0.000000 0.000000 0.030777 0.000000
# 6 0.000000 0.000000 0.000000 0.000000 0.000000 0.045089
#
#
# Mechanical properties :
#
#
# Convention : Reuss Voigt Hill
#
# Bulk Modulus (GPa) = 46.27772 51.17960 48.72866
# Shear Modulus (GPa) = 22.55193 26.10887 24.33040
#
# Velocity S-wave (km/s) = 3.65433 3.93196 3.79568
# Velocity P-wave (km/s) = 6.72375 7.13581 6.93284
#
# Compressibility (1/GPa) = 0.02160867
#
# Stress axis : x y z
#
# Youngs Moduli (GPa) = 84.08153 58.92883 86.15155
#
# Poissons Ratio (x) = 0.14445 0.38809
# Poissons Ratio (y) = 0.20610 0.21321
# Poissons Ratio (z) = 0.37876 0.14584
#
# Static dielectric constant tensor:
#      x y z
#    x 3.261600 0.000000 0.000000 
#    y 0.000000 2.873400 0.000000 
#    z 0.000000 0.000000 3.703170 
# 
# 
# High freq. dielectric constant tensor:
#      x y z
#    x 1.670980 0.000000 0.000000 
#    y 0.000000 1.609750 0.000000 
#    z 0.000000 0.000000 1.657870 
# 
# From -- ./inp_files/40793.got.cif
#   From: 2010.03.12/outbox.cif.g09.slc.cpg/sg67_21_cif.got.tgz:40793.got - 2010.04.10 22:41:39.
