data_PCOD8278216
_publ_section_title
;
Structure prediction by ZEFSAII (Michael W. Deem and Ramdas Pophale) SiO2 
 PCOD8278216
Probable space group: C M M A
;
_chemical_formula_sum "Si O2"
_cell_formula_units_Z 96
_cell_length_a 17.472838
_cell_length_b 25.306090
_cell_length_c 13.178691
_cell_angle_alpha 90.000000
_cell_angle_beta 90.000000
_cell_angle_gamma 90.000000
_cell_volume 5827.211401
_symmetry_space_group_name_H-M "C M M A"
_symmetry_group_IT_number 67
_symmetry_cell_setting 'orthorhombic'
loop_
_space_group_symop_operation_xyz
x,y,z
-x,1/2-y,z
x,-y,-z
-x,1/2+y,-z
-x,-y,-z
x,1/2+y,-z
-x,y,z
x,1/2-y,z
1/2+x,1/2+y,z
1/2-x,-y,z
1/2+x,1/2-y,-z
1/2-x,y,-z
1/2-x,1/2-y,-z
1/2+x,y,-z
1/2-x,1/2+y,z
1/2+x,-y,z
loop_
_atom_site_type_symbol
_atom_site_label
_atom_site_fract_x
_atom_site_fract_y
_atom_site_fract_z
Si Si1 0.835746 0.555478 0.971849
Si Si2 0.911620 0.688399 0.309343
Si Si3 0.911483 0.529011 0.331164
Si Si4 0.695526 0.549834 0.250796
Si Si5 0.085090 0.107414 0.855174
Si Si6 0.199317 0.608558 0.401301
O O1 0.865191 0.602538 0.043485
O O2 0.879537 0.500000 0.000000
O O3 0.750000 0.546125 0.000000
O O4 0.841433 0.571718 0.853539
O O5 0.894230 0.750000 0.304794
O O6 0.898411 0.663661 0.197874
O O7 0.850267 0.661758 0.384974
O O8 0.000000 0.676892 0.343875
O O9 0.875816 0.470507 0.319351
O O10 0.899802 0.560951 0.226154
O O11 0.861509 0.560416 0.415685
O O12 0.000000 0.525573 0.364633
O O13 0.750000 0.500000 0.226289
O O14 0.743056 0.595778 0.307392
O O15 0.000000 0.104249 0.896002
O O16 0.250000 0.616177 0.500000
#
# Coordination Sequence:
#
# PCOD8278216 Si02
#       6
#    16  16  16  16  16  16
#     4  11  16  24  42  67  96 136 161 187 227 280
#     4   9  18  35  57  76  92 115 156 209 255 294
#     4   9  17  30  46  66  95 129 167 200 229 279
#     4  10  18  29  43  67 100 134 172 197 229 282
#     4   9  17  28  45  70  97 123 155 198 239 279
#     4  10  20  33  49  69  95 127 159 207 258 293
#
# _framework density 16.474433000000001
#
# number of rings (size 3 to 8) (size 9 to 14) (size 15 to 20)
#    0.000    2.333    3.333    3.500    0.000    4.333 
#    0.000    2.500    0.000    4.500    0.000    0.000 
#    0.000    2.667    0.000    0.000    0.000    0.000 
#
# Total GULP energy -594755.608755 kJ/mol
# GULP energy per Si atom -12390.741849 kJ/mol
# Density = 1.643694 g / cm^3
# Si number density = 16.474433 Si / 1000 Ang^3
#
#
#
# Elastic Constant Matrix: (Units=GPa)
#
#
# Indices 1 2 3 4 5 6 
#
# 1 105.1980 51.8770 49.6809 0.0000 0.0000 0.0000
# 2 51.8770 75.5215 37.0291 0.0000 0.0000 0.0000
# 3 49.6809 37.0291 90.5812 0.0000 0.0000 0.0000
# 4 0.0000 0.0000 0.0000 13.9054 0.0000 0.0000
# 5 0.0000 0.0000 0.0000 0.0000 10.1031 0.0000
# 6 0.0000 0.0000 0.0000 0.0000 0.0000 18.2067
#
#
#
# Elastic Compliance Matrix: (Units=1/GPa)
#
#
# Indices 1 2 3 4 5 6 
#
# 1 0.016274 -0.008508 -0.005448 0.000000 0.000000 0.000000
# 2 -0.008508 0.021008 -0.003922 0.000000 0.000000 0.000000
# 3 -0.005448 -0.003922 0.015631 0.000000 0.000000 0.000000
# 4 0.000000 0.000000 0.000000 0.071914 0.000000 0.000000
# 5 0.000000 0.000000 0.000000 0.000000 0.098980 0.000000
# 6 0.000000 0.000000 0.000000 0.000000 0.000000 0.054925
#
#
# Mechanical properties :
#
#
# Convention : Reuss Voigt Hill
#
# Bulk Modulus (GPa) = 58.28035 60.94164 59.61099
# Shear Modulus (GPa) = 15.61487 17.29062 16.45275
#
# Velocity S-wave (km/s) = 3.08202 3.24318 3.16362
# Velocity P-wave (km/s) = 6.93672 7.14816 7.04324
#
# Compressibility (1/GPa) = 0.01715844
#
# Stress axis : x y z
#
# Youngs Moduli (GPa) = 61.44663 47.60004 63.97522
#
# Poissons Ratio (x) = 0.40498 0.34853
# Poissons Ratio (y) = 0.52278 0.25090
# Poissons Ratio (z) = 0.33476 0.18668
#
# Static dielectric constant tensor:
#      x y z
#    x 3.253830 0.000000 0.000000 
#    y 0.000000 2.841900 0.000000 
#    z 0.000000 0.000000 3.004430 
# 
# 
# High freq. dielectric constant tensor:
#      x y z
#    x 1.642940 0.000000 0.000000 
#    y 0.000000 1.589490 0.000000 
#    z 0.000000 0.000000 1.616290 
# 
# From -- ./inp_files/21003.got.cif
#   From: 2010.03.12/outbox.cif.g09.slc.cpg/sg67_11_cif.got.tgz:21003.got - 2010.04.10 22:41:39.
