data_PCOD8278890
_publ_section_title
;
Structure prediction by ZEFSAII (Michael W. Deem and Ramdas Pophale) SiO2 
 PCOD8278890
Probable space group: C M M A
;
_chemical_formula_sum "Si O2"
_cell_formula_units_Z 104
_cell_length_a 30.508733
_cell_length_b 8.944381
_cell_length_c 23.178239
_cell_angle_alpha 90.000000
_cell_angle_beta 90.000000
_cell_angle_gamma 90.000000
_cell_volume 6324.917998
_symmetry_space_group_name_H-M "C M M A"
_symmetry_group_IT_number 67
_symmetry_cell_setting 'orthorhombic'
loop_
_space_group_symop_operation_xyz
x,y,z
-x,1/2-y,z
x,-y,-z
-x,1/2+y,-z
-x,-y,-z
x,1/2+y,-z
-x,y,z
x,1/2-y,z
1/2+x,1/2+y,z
1/2-x,-y,z
1/2+x,1/2-y,-z
1/2-x,y,-z
1/2-x,1/2-y,-z
1/2+x,y,-z
1/2-x,1/2+y,z
1/2+x,-y,z
loop_
_atom_site_type_symbol
_atom_site_label
_atom_site_fract_x
_atom_site_fract_y
_atom_site_fract_z
Si Si1 0.322979 0.077016 0.939695
Si Si2 0.587938 0.579632 0.117716
Si Si3 0.551892 0.417102 0.555957
Si Si4 0.384100 0.575277 0.770878
Si Si5 0.550231 0.427637 0.326069
Si Si6 0.705853 0.571657 0.821559
Si Si7 0.000000 0.076141 0.059698
O O1 0.307867 0.250000 0.940787
O O2 0.375267 0.063574 0.931632
O O3 0.300422 0.994663 0.885764
O O4 0.309222 0.000000 0.000000
O O5 0.586629 0.750000 0.140815
O O6 0.594218 0.466415 0.169331
O O7 0.542423 0.523349 0.093331
O O8 0.571936 0.500000 0.500000
O O9 0.500000 0.410038 0.550140
O O10 0.571495 0.250000 0.559187
O O11 0.565359 0.507152 0.612854
O O12 0.385649 0.750000 0.762386
O O13 0.413919 0.506216 0.719426
O O14 0.333070 0.523191 0.776800
O O15 0.500000 0.477683 0.310265
O O16 0.552116 0.250000 0.329859
O O17 0.709161 0.750000 0.826414
O O18 0.750000 0.500000 0.795382
O O19 0.000000 0.250000 0.048963
O O20 0.000000 0.000000 0.000000
#
# Coordination Sequence:
#
# PCOD8278890 Si02
#       7
#    16  16  16  16  16  16   8
#     4  10  19  32  49  68  89 113 141 178 226 279
#     4   9  19  32  45  62  87 116 147 185 228 269
#     4   9  16  26  41  63  92 128 166 199 230 261
#     4   9  19  33  49  69  92 119 152 189 227 269
#     4   9  17  29  45  67  96 128 160 192 224 262
#     4  10  20  35  52  70  91 115 146 184 230 280
#     4  10  20  32  44  62  84 112 149 188 225 266
#
# _framework density 16.442902
#
# number of rings (size 3 to 8) (size 9 to 14) (size 15 to 20)
#    0.000    2.615    0.000    1.846    1.077    4.615 
#    0.000    1.538    0.000    0.000    0.000    0.000 
#    0.000    0.615    0.000    7.077    0.000    2.462 
#
# Total GULP energy -644444.602701 kJ/mol
# GULP energy per Si atom -12393.165437 kJ/mol
# Density = 1.640548 g / cm^3
# Si number density = 16.442902 Si / 1000 Ang^3
#
#
#
# Elastic Constant Matrix: (Units=GPa)
#
#
# Indices 1 2 3 4 5 6 
#
# 1 107.3915 32.4074 49.0837 0.0000 0.0000 0.0000
# 2 32.4074 36.9705 28.5489 0.0000 0.0000 0.0000
# 3 49.0837 28.5489 97.5907 0.0000 0.0000 0.0000
# 4 0.0000 0.0000 0.0000 25.8857 0.0000 0.0000
# 5 0.0000 0.0000 0.0000 0.0000 14.4856 0.0000
# 6 0.0000 0.0000 0.0000 0.0000 0.0000 19.0434
#
#
#
# Elastic Compliance Matrix: (Units=1/GPa)
#
#
# Indices 1 2 3 4 5 6 
#
# 1 0.014021 -0.008842 -0.004465 0.000000 0.000000 0.000000
# 2 -0.008842 0.040518 -0.007406 0.000000 0.000000 0.000000
# 3 -0.004465 -0.007406 0.014659 0.000000 0.000000 0.000000
# 4 0.000000 0.000000 0.000000 0.038631 0.000000 0.000000
# 5 0.000000 0.000000 0.000000 0.000000 0.069034 0.000000
# 6 0.000000 0.000000 0.000000 0.000000 0.000000 0.052512
#
#
# Mechanical properties :
#
#
# Convention : Reuss Voigt Hill
#
# Bulk Modulus (GPa) = 36.00782 51.33700 43.67241
# Shear Modulus (GPa) = 17.85334 20.67711 19.26522
#
# Velocity S-wave (km/s) = 3.29869 3.54999 3.42664
# Velocity P-wave (km/s) = 6.03777 6.93486 6.50181
#
# Compressibility (1/GPa) = 0.02777174
#
# Stress axis : x y z
#
# Youngs Moduli (GPa) = 71.32213 24.68012 68.21679
#
# Poissons Ratio (x) = 0.21823 0.30460
# Poissons Ratio (y) = 0.63065 0.50520
# Poissons Ratio (z) = 0.31847 0.18278
#
# Static dielectric constant tensor:
#      x y z
#    x 3.290220 0.000000 0.000000 
#    y 0.000000 3.122620 0.000000 
#    z 0.000000 0.000000 3.039590 
# 
# 
# High freq. dielectric constant tensor:
#      x y z
#    x 1.617330 0.000000 0.000000 
#    y 0.000000 1.638580 0.000000 
#    z 0.000000 0.000000 1.612810 
# 
# From -- ./inp_files/37515.got.cif
#   From: 2010.03.12/outbox.cif.g09.slc.cpg/sg67_19_cif.got.tgz:37515.got - 2010.04.10 22:41:39.
