data_PCOD8278016
_publ_section_title
;
Structure prediction by ZEFSAII (Michael W. Deem and Ramdas Pophale) SiO2 
 PCOD8278016
Probable space group: C M M A
;
_chemical_formula_sum "Si O2"
_cell_formula_units_Z 104
_cell_length_a 8.594616
_cell_length_b 25.584822
_cell_length_c 27.881152
_cell_angle_alpha 90.000000
_cell_angle_beta 90.000000
_cell_angle_gamma 90.000000
_cell_volume 6130.834483
_symmetry_space_group_name_H-M "C M M A"
_symmetry_group_IT_number 67
_symmetry_cell_setting 'orthorhombic'
loop_
_space_group_symop_operation_xyz
x,y,z
-x,1/2-y,z
x,-y,-z
-x,1/2+y,-z
-x,-y,-z
x,1/2+y,-z
-x,y,z
x,1/2-y,z
1/2+x,1/2+y,z
1/2-x,-y,z
1/2+x,1/2-y,-z
1/2-x,y,-z
1/2-x,1/2-y,-z
1/2+x,y,-z
1/2-x,1/2+y,z
1/2+x,-y,z
loop_
_atom_site_type_symbol
_atom_site_label
_atom_site_fract_x
_atom_site_fract_y
_atom_site_fract_z
Si Si1 0.824386 0.307745 0.220741
Si Si2 0.685781 0.750000 0.053095
Si Si3 0.818840 0.056801 0.356365
Si Si4 0.314684 0.333796 0.122735
Si Si5 0.183453 0.941633 0.452033
Si Si6 0.179444 0.597185 0.261900
Si Si7 0.817426 0.944994 0.159810
O O1 0.822349 0.250000 0.243005
O O2 0.765819 0.304300 0.166463
O O3 0.703765 0.341884 0.251195
O O4 0.000000 0.330829 0.222417
O O5 0.500000 0.750000 0.054594
O O6 0.749855 0.804066 0.076181
O O7 0.750000 0.750000 0.000000
O O8 0.740250 0.085735 0.402567
O O9 0.786420 0.086680 0.307423
O O10 0.000000 0.053338 0.366463
O O11 0.750000 0.000000 0.349031
O O12 0.500000 0.327620 0.125630
O O13 0.268504 0.395993 0.125554
O O14 0.250000 0.913206 0.500000
O O15 0.000000 0.942125 0.454735
O O16 0.250000 0.000000 0.450388
O O17 0.237504 0.565302 0.214826
O O18 0.000000 0.585281 0.273790
O O19 0.000000 0.950305 0.159473
O O20 0.750000 0.000000 0.140636
#
# Coordination Sequence:
#
# PCOD8278016 Si02
#       7
#    16   8  16  16  16  16  16
#     4  10  19  31  49  73  99 128 163 200 241 290
#     4  12  24  38  58  84 108 134 166 208 259 304
#     4  11  20  30  43  61  88 122 158 198 242 288
#     4  10  20  35  54  77 106 137 169 207 250 296
#     4  10  17  27  41  58  80 110 150 193 238 287
#     4  10  20  32  45  66  95 130 167 202 245 290
#     4   9  19  32  49  73 101 135 171 205 242 288
#
# _framework density 16.963432999999998
#
# number of rings (size 3 to 8) (size 9 to 14) (size 15 to 20)
#    0.000    1.846    0.769    7.615    0.000    5.846 
#    0.000    0.000    0.000    0.462    0.000    3.231 
#    0.000    0.615    0.000    2.308    0.000    3.846 
#
# Total GULP energy -644463.541413 kJ/mol
# GULP energy per Si atom -12393.529643 kJ/mol
# Density = 1.692482 g / cm^3
# Si number density = 16.963433 Si / 1000 Ang^3
#
#
#
# Elastic Constant Matrix: (Units=GPa)
#
#
# Indices 1 2 3 4 5 6 
#
# 1 96.4952 24.4542 27.2053 0.0000 0.0000 0.0000
# 2 24.4542 92.1494 40.3123 0.0000 0.0000 0.0000
# 3 27.2053 40.3123 107.3948 0.0000 0.0000 0.0000
# 4 0.0000 0.0000 0.0000 13.6113 0.0000 0.0000
# 5 0.0000 0.0000 0.0000 0.0000 29.5921 0.0000
# 6 0.0000 0.0000 0.0000 0.0000 0.0000 25.4997
#
#
#
# Elastic Compliance Matrix: (Units=1/GPa)
#
#
# Indices 1 2 3 4 5 6 
#
# 1 0.011498 -0.002126 -0.002115 0.000000 0.000000 0.000000
# 2 -0.002126 0.013377 -0.004483 0.000000 0.000000 0.000000
# 3 -0.002115 -0.004483 0.011530 0.000000 0.000000 0.000000
# 4 0.000000 0.000000 0.000000 0.073468 0.000000 0.000000
# 5 0.000000 0.000000 0.000000 0.000000 0.033793 0.000000
# 6 0.000000 0.000000 0.000000 0.000000 0.000000 0.039216
#
#
# Mechanical properties :
#
#
# Convention : Reuss Voigt Hill
#
# Bulk Modulus (GPa) = 52.74809 53.33144 53.03977
# Shear Modulus (GPa) = 24.19561 27.34513 25.77037
#
# Velocity S-wave (km/s) = 3.78079 4.01933 3.90188
# Velocity P-wave (km/s) = 7.08674 7.28336 7.18572
#
# Compressibility (1/GPa) = 0.01895803
#
# Stress axis : x y z
#
# Youngs Moduli (GPa) = 86.96978 74.75377 86.73205
#
# Poissons Ratio (x) = 0.15895 0.18340
# Poissons Ratio (y) = 0.18492 0.38880
# Poissons Ratio (z) = 0.18391 0.33510
#
# Static dielectric constant tensor:
#      x y z
#    x 3.308220 0.000000 0.000000 
#    y 0.000000 3.299510 0.000000 
#    z 0.000000 0.000000 3.559390 
# 
# 
# High freq. dielectric constant tensor:
#      x y z
#    x 1.672760 0.000000 0.000000 
#    y 0.000000 1.621430 0.000000 
#    z 0.000000 0.000000 1.642230 
# 
# From -- ./inp_files/43841.got.cif
#   From: 2010.03.12/outbox.cif.g09.slc.cpg/sg67_22_cif.got.tgz:43841.got - 2010.04.10 22:41:39.
