data_PCOD8278295
_publ_section_title
;
Structure prediction by ZEFSAII (Michael W. Deem and Ramdas Pophale) SiO2 
 PCOD8278295
Probable space group: C M M A
;
_chemical_formula_sum "Si O2"
_cell_formula_units_Z 104
_cell_length_a 9.146972
_cell_length_b 29.635790
_cell_length_c 19.821036
_cell_angle_alpha 90.000000
_cell_angle_beta 90.000000
_cell_angle_gamma 90.000000
_cell_volume 5373.041670
_symmetry_space_group_name_H-M "C M M A"
_symmetry_group_IT_number 67
_symmetry_cell_setting 'orthorhombic'
loop_
_space_group_symop_operation_xyz
x,y,z
-x,1/2-y,z
x,-y,-z
-x,1/2+y,-z
-x,-y,-z
x,1/2+y,-z
-x,y,z
x,1/2-y,z
1/2+x,1/2+y,z
1/2-x,-y,z
1/2+x,1/2-y,-z
1/2-x,y,-z
1/2-x,1/2-y,-z
1/2+x,y,-z
1/2-x,1/2+y,z
1/2+x,-y,z
loop_
_atom_site_type_symbol
_atom_site_label
_atom_site_fract_x
_atom_site_fract_y
_atom_site_fract_z
Si Si1 0.160274 0.541706 0.406214
Si Si2 0.168734 0.164120 0.068515
Si Si3 0.675447 0.750000 0.926754
Si Si4 0.675387 0.642460 0.568204
Si Si5 0.337458 0.374661 0.792070
Si Si6 0.840579 0.459085 0.752109
Si Si7 0.168924 0.197836 0.316083
O O1 0.250000 0.500000 0.438571
O O2 0.230883 0.590753 0.421043
O O3 0.148814 0.533880 0.327070
O O4 0.000000 0.540249 0.439171
O O5 0.257848 0.204808 0.105210
O O6 0.173884 0.126606 0.126525
O O7 0.000000 0.177221 0.051151
O O8 0.250000 0.147717 0.000000
O O9 0.500000 0.750000 0.926299
O O10 0.750000 0.750000 0.000000
O O11 0.500000 0.645381 0.564671
O O12 0.750000 0.660828 0.500000
O O13 0.730169 0.673914 0.628560
O O14 0.500000 0.390829 0.771955
O O15 0.224501 0.410517 0.765544
O O16 0.305913 0.326662 0.755995
O O17 0.750000 0.500000 0.785428
O O18 0.000000 0.460536 0.785548
O O19 0.216645 0.250000 0.307914
O O20 0.000000 0.194323 0.338782
#
# Coordination Sequence:
#
# PCOD8278295 Si02
#       7
#    16  16   8  16  16  16  16
#     4   9  19  34  54  81 113 145 179 222 275 332
#     4  10  20  34  53  78 113 152 191 233 281 339
#     4  10  18  30  48  72 104 144 187 228 273 328
#     4  11  23  40  59  83 113 148 189 232 281 334
#     4  10  21  36  59  86 114 149 188 233 283 337
#     4  10  19  34  57  85 116 147 184 229 279 337
#     4  10  22  40  61  84 110 145 190 236 283 332
#
# _framework density 19.355889000000001
#
# number of rings (size 3 to 8) (size 9 to 14) (size 15 to 20)
#    0.000    2.000    1.538    3.000    1.077    4.000 
#    0.000    1.538    0.000    0.462    0.000    3.231 
#    0.000    0.000    0.000    0.000    0.000    0.000 
#
# Total GULP energy -644460.705803 kJ/mol
# GULP energy per Si atom -12393.475112 kJ/mol
# Density = 1.931183 g / cm^3
# Si number density = 19.355889 Si / 1000 Ang^3
#
#
#
# Elastic Constant Matrix: (Units=GPa)
#
#
# Indices 1 2 3 4 5 6 
#
# 1 136.0977 58.7656 39.5003 0.0000 0.0000 0.0000
# 2 58.7656 117.4790 26.7719 0.0000 0.0000 0.0000
# 3 39.5003 26.7719 73.9526 0.0000 0.0000 0.0000
# 4 0.0000 0.0000 0.0000 -1.8123 0.0000 0.0000
# 5 0.0000 0.0000 0.0000 0.0000 16.3950 0.0000
# 6 0.0000 0.0000 0.0000 0.0000 0.0000 31.7888
#
#
#
# Elastic Compliance Matrix: (Units=1/GPa)
#
#
# Indices 1 2 3 4 5 6 
#
# 1 0.010346 -0.004268 -0.003981 0.000000 0.000000 0.000000
# 2 -0.004268 0.011038 -0.001716 0.000000 0.000000 0.000000
# 3 -0.003981 -0.001716 0.016270 0.000000 0.000000 0.000000
# 4 0.000000 0.000000 0.000000 -0.551782 0.000000 0.000000
# 5 0.000000 0.000000 0.000000 0.000000 0.060994 0.000000
# 6 0.000000 0.000000 0.000000 0.000000 0.000000 0.031458
#
#
# Mechanical properties :
#
#
# Convention : Reuss Voigt Hill
#
# Bulk Modulus (GPa) = 56.42264 64.17831 60.30048
# Shear Modulus (GPa) = -12.63145 22.77373 5.07114
#
# Velocity S-wave (km/s) = -2.55735 3.43385 1.62038
# Velocity P-wave (km/s) = 4.52695 6.99648 5.89254
#
# Compressibility (1/GPa) = 0.01772338
#
# Stress axis : x y z
#
# Youngs Moduli (GPa) = 96.65559 90.59383 61.46329
#
# Poissons Ratio (x) = 0.38666 0.24469
# Poissons Ratio (y) = 0.41254 0.10549
# Poissons Ratio (z) = 0.38479 0.15549
#
# Static dielectric constant tensor:
#      x y z
#    x 3.793220 0.000000 0.000000 
#    y 0.000000 3.778700 0.000000 
#    z 0.000000 0.000000 3.318190 
# 
# 
# High freq. dielectric constant tensor:
#      x y z
#    x 1.762930 0.000000 0.000000 
#    y 0.000000 1.744000 0.000000 
#    z 0.000000 0.000000 1.735350 
# 
# From -- ./inp_files/37306.got.cif
#   From: 2010.03.12/outbox.cif.g09.slc.cpg/sg67_19_cif.got.tgz:37306.got - 2010.04.10 22:41:39.
