data_PCOD8278029
_publ_section_title
;
Structure prediction by ZEFSAII (Michael W. Deem and Ramdas Pophale) SiO2 
 PCOD8278029
Probable space group: C M M A
;
_chemical_formula_sum "Si O2"
_cell_formula_units_Z 96
_cell_length_a 30.491710
_cell_length_b 8.916698
_cell_length_c 25.789189
_cell_angle_alpha 90.000000
_cell_angle_beta 90.000000
_cell_angle_gamma 90.000000
_cell_volume 7011.703182
_symmetry_space_group_name_H-M "C M M A"
_symmetry_group_IT_number 67
_symmetry_cell_setting 'orthorhombic'
loop_
_space_group_symop_operation_xyz
x,y,z
-x,1/2-y,z
x,-y,-z
-x,1/2+y,-z
-x,-y,-z
x,1/2+y,-z
-x,y,z
x,1/2-y,z
1/2+x,1/2+y,z
1/2-x,-y,z
1/2+x,1/2-y,-z
1/2-x,y,-z
1/2-x,1/2-y,-z
1/2+x,y,-z
1/2-x,1/2+y,z
1/2+x,-y,z
loop_
_atom_site_type_symbol
_atom_site_label
_atom_site_fract_x
_atom_site_fract_y
_atom_site_fract_z
Si Si1 0.052220 0.418668 0.255554
Si Si2 0.450331 0.075690 0.358718
Si Si3 0.793129 0.430237 0.442760
Si Si4 0.119843 0.427545 0.555541
Si Si5 0.052292 0.081274 0.051194
Si Si6 0.947690 0.918739 0.153612
O O1 0.069763 0.250000 0.253426
O O2 0.069472 0.493119 0.308452
O O3 0.071245 0.503446 0.205286
O O4 0.000000 0.426104 0.254599
O O5 0.500000 0.022733 0.370664
O O6 0.448934 0.250000 0.345521
O O7 0.421638 0.036220 0.408674
O O8 0.794110 0.500000 0.500000
O O9 0.791384 0.250000 0.443258
O O10 0.750000 0.500000 0.414270
O O11 0.837972 0.492321 0.417185
O O12 0.109454 0.500000 0.500000
O O13 0.128354 0.250000 0.549440
O O14 0.070008 0.250000 0.050931
O O15 0.000000 0.077158 0.051148
O O16 0.070705 0.001371 0.102648
O O17 0.070743 0.000000 0.000000
O O18 0.930115 0.750000 0.152439
O O19 0.000000 0.923927 0.153806
#
# Coordination Sequence:
#
# PCOD8278029 Si02
#       6
#    16  16  16  16  16  16
#     4   9  16  25  37  51  64  80 107 143 178 210
#     4   9  18  31  43  54  71  96 123 151 183 218
#     4  10  17  27  43  61  80  98 117 140 170 208
#     4  10  19  30  43  59  78  98 121 147 178 217
#     4   9  15  21  28  39  56  76  98 125 160 203
#     4   9  15  22  32  44  58  77 101 130 166 207
#
# _framework density 13.691394000000001
#
# number of rings (size 3 to 8) (size 9 to 14) (size 15 to 20)
#    0.000    2.667    0.000    5.000    0.000    7.667 
#    0.000    0.000    0.000    0.000    0.000    0.000 
#    0.000    0.000    0.000    0.000    0.000    0.000 
#
# Total GULP energy -594953.683375 kJ/mol
# GULP energy per Si atom -12394.868404 kJ/mol
# Density = 1.366023 g / cm^3
# Si number density = 13.691394 Si / 1000 Ang^3
#
#
#
# Elastic Constant Matrix: (Units=GPa)
#
#
# Indices 1 2 3 4 5 6 
#
# 1 44.7186 30.8301 32.1335 0.0000 0.0000 0.0000
# 2 30.8301 121.9334 60.8660 0.0000 0.0000 0.0000
# 3 32.1335 60.8660 103.7551 0.0000 0.0000 0.0000
# 4 0.0000 0.0000 0.0000 25.7403 0.0000 0.0000
# 5 0.0000 0.0000 0.0000 0.0000 0.3823 0.0000
# 6 0.0000 0.0000 0.0000 0.0000 0.0000 12.4600
#
#
#
# Elastic Compliance Matrix: (Units=1/GPa)
#
#
# Indices 1 2 3 4 5 6 
#
# 1 0.030209 -0.004197 -0.006894 0.000000 0.000000 0.000000
# 2 -0.004197 0.012180 -0.005846 0.000000 0.000000 0.000000
# 3 -0.006894 -0.005846 0.015202 0.000000 0.000000 0.000000
# 4 0.000000 0.000000 0.000000 0.038850 0.000000 0.000000
# 5 0.000000 0.000000 0.000000 0.000000 2.615471 0.000000
# 6 0.000000 0.000000 0.000000 0.000000 0.000000 0.080257
#
#
# Mechanical properties :
#
#
# Convention : Reuss Voigt Hill
#
# Bulk Modulus (GPa) = 42.16002 57.56292 49.86147
# Shear Modulus (GPa) = 1.76432 17.48836 9.62634
#
# Velocity S-wave (km/s) = 1.13641 3.57785 2.65447
# Velocity P-wave (km/s) = 5.70805 7.69431 6.77437
#
# Compressibility (1/GPa) = 0.02371915
#
# Stress axis : x y z
#
# Youngs Moduli (GPa) = 33.10234 82.09963 65.77932
#
# Poissons Ratio (x) = 0.34457 0.45348
# Poissons Ratio (y) = 0.13893 0.38452
# Poissons Ratio (z) = 0.22820 0.47992
#
# Static dielectric constant tensor:
#      x y z
#    x 2.674540 0.000000 0.000000 
#    y 0.000000 2.902550 0.000000 
#    z 0.000000 0.000000 2.705740 
# 
# 
# High freq. dielectric constant tensor:
#      x y z
#    x 1.454590 0.000000 0.000000 
#    y 0.000000 1.543550 0.000000 
#    z 0.000000 0.000000 1.511310 
# 
# From -- ./inp_files/44924.got.cif
#   From: 2010.03.12/outbox.cif.g09.slc.cpg/sg67_23_cif.got.tgz:44924.got - 2010.04.10 22:41:39.
