data_PCOD8278130
_publ_section_title
;
Structure prediction by ZEFSAII (Michael W. Deem and Ramdas Pophale) SiO2 
 PCOD8278130
Probable space group: C M M A
;
_chemical_formula_sum "Si O2"
_cell_formula_units_Z 96
_cell_length_a 8.651849
_cell_length_b 28.793781
_cell_length_c 20.294258
_cell_angle_alpha 90.000000
_cell_angle_beta 90.000000
_cell_angle_gamma 90.000000
_cell_volume 5055.694297
_symmetry_space_group_name_H-M "C M M A"
_symmetry_group_IT_number 67
_symmetry_cell_setting 'orthorhombic'
loop_
_space_group_symop_operation_xyz
x,y,z
-x,1/2-y,z
x,-y,-z
-x,1/2+y,-z
-x,-y,-z
x,1/2+y,-z
-x,y,z
x,1/2-y,z
1/2+x,1/2+y,z
1/2-x,-y,z
1/2+x,1/2-y,-z
1/2-x,y,-z
1/2-x,1/2-y,-z
1/2+x,y,-z
1/2-x,1/2+y,z
1/2+x,-y,z
loop_
_atom_site_type_symbol
_atom_site_label
_atom_site_fract_x
_atom_site_fract_y
_atom_site_fract_z
Si Si1 0.821452 0.696790 0.182716
Si Si2 0.181504 0.640227 0.928340
Si Si3 0.675788 0.643043 0.300794
Si Si4 0.824656 0.547684 0.648016
Si Si5 0.816697 0.953770 0.073349
Si Si6 0.182262 0.877602 0.430492
O O1 0.784694 0.750000 0.199626
O O2 0.719639 0.682802 0.119624
O O3 0.780194 0.666026 0.245594
O O4 0.000000 0.689125 0.164990
O O5 0.256085 0.594041 0.894426
O O6 0.000000 0.633059 0.935270
O O7 0.250000 0.651168 0.000000
O O8 0.500000 0.661235 0.295022
O O9 0.681932 0.586460 0.293435
O O10 0.744873 0.655491 0.373260
O O11 0.750000 0.500000 0.673440
O O12 0.732309 0.568827 0.584941
O O13 0.000000 0.538398 0.625991
O O14 0.000000 0.955372 0.073404
O O15 0.750000 0.000000 0.109689
O O16 0.750000 0.953031 0.000000
O O17 0.250000 0.861258 0.500000
O O18 0.000000 0.872460 0.430902
#
# Coordination Sequence:
#
# PCOD8278130 Si02
#       6
#    16  16  16  16  16  16
#     4  11  24  42  64  87 110 142 186 233 287 349
#     4  11  22  38  60  87 119 151 187 233 285 338
#     4   9  20  37  56  81 112 147 190 232 276 333
#     4   9  18  31  50  79 114 153 194 235 278 332
#     4  10  17  29  50  78 112 148 185 221 262 317
#     4  10  18  31  52  80 116 155 194 237 281 329
#
# _framework density 18.988489000000001
#
# number of rings (size 3 to 8) (size 9 to 14) (size 15 to 20)
#    1.000    1.000    0.000    7.000    0.000    2.000 
#    0.000    2.500    0.000    2.500    0.000    0.000 
#    0.000    0.000    0.000    0.000    0.000    0.000 
#
# Total GULP energy -594857.565633 kJ/mol
# GULP energy per Si atom -12392.865951 kJ/mol
# Density = 1.894527 g / cm^3
# Si number density = 18.988489 Si / 1000 Ang^3
#
#
#
# Elastic Constant Matrix: (Units=GPa)
#
#
# Indices 1 2 3 4 5 6 
#
# 1 146.2050 33.4530 30.4065 0.0000 0.0000 0.0000
# 2 33.4530 58.2710 45.6580 0.0000 0.0000 0.0000
# 3 30.4065 45.6580 90.4222 0.0000 0.0000 0.0000
# 4 0.0000 0.0000 0.0000 13.6966 0.0000 0.0000
# 5 0.0000 0.0000 0.0000 0.0000 30.4749 0.0000
# 6 0.0000 0.0000 0.0000 0.0000 0.0000 24.0623
#
#
#
# Elastic Compliance Matrix: (Units=1/GPa)
#
#
# Indices 1 2 3 4 5 6 
#
# 1 0.007894 -0.004057 -0.000606 0.000000 0.000000 0.000000
# 2 -0.004057 0.030481 -0.014027 0.000000 0.000000 0.000000
# 3 -0.000606 -0.014027 0.018346 0.000000 0.000000 0.000000
# 4 0.000000 0.000000 0.000000 0.073011 0.000000 0.000000
# 5 0.000000 0.000000 0.000000 0.000000 0.032814 0.000000
# 6 0.000000 0.000000 0.000000 0.000000 0.000000 0.041559
#
#
# Mechanical properties :
#
#
# Convention : Reuss Voigt Hill
#
# Bulk Modulus (GPa) = 51.70371 57.10368 54.40369
# Shear Modulus (GPa) = 20.16689 26.00548 23.08619
#
# Velocity S-wave (km/s) = 3.26246 3.70474 3.49061
# Velocity P-wave (km/s) = 6.44047 6.95976 6.70514
#
# Compressibility (1/GPa) = 0.01934097
#
# Stress axis : x y z
#
# Youngs Moduli (GPa) = 126.67789 32.80720 54.50853
#
# Poissons Ratio (x) = 0.13310 0.03303
# Poissons Ratio (y) = 0.51395 0.76459
# Poissons Ratio (z) = 0.07676 0.46018
#
# Static dielectric constant tensor:
#      x y z
#    x 3.541250 0.000000 0.000000 
#    y 0.000000 3.697750 0.000000 
#    z 0.000000 0.000000 3.157060 
# 
# 
# High freq. dielectric constant tensor:
#      x y z
#    x 1.759880 0.000000 0.000000 
#    y 0.000000 1.720500 0.000000 
#    z 0.000000 0.000000 1.707920 
# 
# From -- ./inp_files/40940.got.cif
#   From: 2010.03.12/outbox.cif.g09.slc.cpg/sg67_21_cif.got.tgz:40940.got - 2010.04.10 22:41:39.
