data_PCOD8278381
_publ_section_title
;
Structure prediction by ZEFSAII (Michael W. Deem and Ramdas Pophale) SiO2 
 PCOD8278381
Probable space group: C M M A
;
_chemical_formula_sum "Si O2"
_cell_formula_units_Z 112
_cell_length_a 26.880919
_cell_length_b 15.314251
_cell_length_c 13.417308
_cell_angle_alpha 90.000000
_cell_angle_beta 90.000000
_cell_angle_gamma 90.000000
_cell_volume 5523.384316
_symmetry_space_group_name_H-M "C M M A"
_symmetry_group_IT_number 67
_symmetry_cell_setting 'orthorhombic'
loop_
_space_group_symop_operation_xyz
x,y,z
-x,1/2-y,z
x,-y,-z
-x,1/2+y,-z
-x,-y,-z
x,1/2+y,-z
-x,y,z
x,1/2-y,z
1/2+x,1/2+y,z
1/2-x,-y,z
1/2+x,1/2-y,-z
1/2-x,y,-z
1/2-x,1/2-y,-z
1/2+x,y,-z
1/2-x,1/2+y,z
1/2+x,-y,z
loop_
_atom_site_type_symbol
_atom_site_label
_atom_site_fract_x
_atom_site_fract_y
_atom_site_fract_z
Si Si1 0.557031 0.979958 0.266164
Si Si2 0.854155 0.430927 0.144592
Si Si3 0.305089 0.403832 0.238986
Si Si4 0.391650 0.851381 0.415894
Si Si5 0.101000 0.649774 0.352526
Si Si6 0.304430 0.347011 0.025404
Si Si7 0.798145 0.346882 0.301125
O O1 0.500000 0.965911 0.237995
O O2 0.588584 0.955421 0.166558
O O3 0.571892 0.914989 0.355232
O O4 0.565287 0.081397 0.295782
O O5 0.818199 0.501755 0.196055
O O6 0.834562 0.345641 0.203867
O O7 0.844653 0.412788 0.026820
O O8 0.342362 0.369361 0.322890
O O9 0.310350 0.340594 0.143759
O O10 0.250456 0.406996 0.288100
O O11 0.400925 0.750000 0.385996
O O12 0.403816 0.867132 0.530508
O O13 0.333789 0.876960 0.393150
O O14 0.086004 0.750000 0.326042
O O15 0.311362 0.250000 0.981791
O O16 0.250000 0.384491 0.000000
O O17 0.777591 0.250000 0.318905
#
# Coordination Sequence:
#
# PCOD8278381 Si02
#       7
#    16  16  16  16  16  16  16
#     4  10  22  40  61  84 109 144 193 246 296 343
#     4  10  21  35  53  79 113 145 181 235 288 330
#     4  11  21  33  53  81 113 150 190 226 273 344
#     4   9  20  36  55  82 116 150 187 235 289 342
#     4  10  21  37  56  82 115 150 190 238 289 344
#     4  11  21  33  55  84 113 149 187 225 276 341
#     4  10  18  31  50  76 112 150 185 223 271 336
#
# _framework density 20.277422999999999
#
# number of rings (size 3 to 8) (size 9 to 14) (size 15 to 20)
#    0.000    1.857    1.429    3.000    0.000    3.429 
#    0.000    3.571    0.000   12.000    0.000    0.000 
#    0.000    0.000    0.000    0.000    0.000    0.000 
#
# Total GULP energy -694029.491691 kJ/mol
# GULP energy per Si atom -12393.383780 kJ/mol
# Density = 2.023127 g / cm^3
# Si number density = 20.277423 Si / 1000 Ang^3
#
#
#
# Elastic Constant Matrix: (Units=GPa)
#
#
# Indices 1 2 3 4 5 6 
#
# 1 143.4378 47.4643 22.5541 0.0000 0.0000 0.0000
# 2 47.4643 91.5589 26.0813 0.0000 0.0000 0.0000
# 3 22.5541 26.0813 34.8341 0.0000 0.0000 0.0000
# 4 0.0000 0.0000 0.0000 24.7395 0.0000 0.0000
# 5 0.0000 0.0000 0.0000 0.0000 18.1454 0.0000
# 6 0.0000 0.0000 0.0000 0.0000 0.0000 15.9880
#
#
#
# Elastic Compliance Matrix: (Units=1/GPa)
#
#
# Indices 1 2 3 4 5 6 
#
# 1 0.008632 -0.003664 -0.002845 0.000000 0.000000 0.000000
# 2 -0.003664 0.015438 -0.009187 0.000000 0.000000 0.000000
# 3 -0.002845 -0.009187 0.037428 0.000000 0.000000 0.000000
# 4 0.000000 0.000000 0.000000 0.040421 0.000000 0.000000
# 5 0.000000 0.000000 0.000000 0.000000 0.055111 0.000000
# 6 0.000000 0.000000 0.000000 0.000000 0.000000 0.062547
#
#
# Mechanical properties :
#
#
# Convention : Reuss Voigt Hill
#
# Bulk Modulus (GPa) = 33.21623 51.33671 42.27647
# Shear Modulus (GPa) = 19.15680 23.35664 21.25672
#
# Velocity S-wave (km/s) = 3.07699 3.39758 3.24125
# Velocity P-wave (km/s) = 5.38890 6.38463 5.90778
#
# Compressibility (1/GPa) = 0.03010577
#
# Stress axis : x y z
#
# Youngs Moduli (GPa) = 115.85446 64.77385 26.71792
#
# Poissons Ratio (x) = 0.23734 0.07602
# Poissons Ratio (y) = 0.42450 0.24545
# Poissons Ratio (z) = 0.32963 0.59506
#
# Static dielectric constant tensor:
#      x y z
#    x 3.399990 0.000000 0.000000 
#    y 0.000000 3.875490 0.000000 
#    z 0.000000 0.000000 3.638630 
# 
# 
# High freq. dielectric constant tensor:
#      x y z
#    x 1.760450 0.000000 0.000000 
#    y 0.000000 1.811300 0.000000 
#    z 0.000000 0.000000 1.777550 
# 
# From -- ./inp_files/30819.got.cif
#   From: 2010.03.12/outbox.cif.g09.slc.cpg/sg67_16_cif.got.tgz:30819.got - 2010.04.10 22:41:39.
