data_PCOD8278645
_publ_section_title
;
Structure prediction by ZEFSAII (Michael W. Deem and Ramdas Pophale) SiO2 
 PCOD8278645
Probable space group: C M M A
;
_chemical_formula_sum "Si O2"
_cell_formula_units_Z 80
_cell_length_a 27.149080
_cell_length_b 36.250711
_cell_length_c 5.087848
_cell_angle_alpha 90.000000
_cell_angle_beta 90.000000
_cell_angle_gamma 90.000000
_cell_volume 5007.324934
_symmetry_space_group_name_H-M "C M M A"
_symmetry_group_IT_number 67
_symmetry_cell_setting 'orthorhombic'
loop_
_space_group_symop_operation_xyz
x,y,z
-x,1/2-y,z
x,-y,-z
-x,1/2+y,-z
-x,-y,-z
x,1/2+y,-z
-x,y,z
x,1/2-y,z
1/2+x,1/2+y,z
1/2-x,-y,z
1/2+x,1/2-y,-z
1/2-x,y,-z
1/2-x,1/2-y,-z
1/2+x,y,-z
1/2-x,1/2+y,z
1/2+x,-y,z
loop_
_atom_site_type_symbol
_atom_site_label
_atom_site_fract_x
_atom_site_fract_y
_atom_site_fract_z
Si Si1 0.801487 0.208133 0.914814
Si Si2 0.557423 0.522889 0.742364
Si Si3 0.635944 0.707958 0.433048
Si Si4 0.444052 0.103279 0.174849
Si Si5 0.556052 0.350264 0.691677
O O1 0.788432 0.250000 0.833147
O O2 0.828593 0.190382 0.659890
O O3 0.750000 0.188251 0.000000
O O4 0.837681 0.206072 0.156712
O O5 0.581457 0.500000 0.500000
O O6 0.500000 0.528989 0.678921
O O7 0.581909 0.563194 0.792445
O O8 0.567282 0.500000 0.000000
O O9 0.621935 0.750000 0.509478
O O10 0.585824 0.685511 0.399875
O O11 0.500000 0.097213 0.077783
O O12 0.441342 0.120806 0.458873
O O13 0.420211 0.129720 0.949951
O O14 0.500000 0.337277 0.746849
#
# Coordination Sequence:
#
# PCOD8278645 Si02
#       5
#    16  16  16  16  16
#     4   9  17  30  47  65  83 101 128 175 229 273
#     4   9  15  23  37  56  75  97 133 179 214 241
#     4  10  19  30  45  64  83 108 146 183 215 254
#     4   9  17  28  40  55  78 110 145 177 211 249
#     4  10  19  30  42  57  83 118 151 180 208 243
#
# _framework density 15.976594
#
# number of rings (size 3 to 8) (size 9 to 14) (size 15 to 20)
#    0.000    2.600    0.000    3.000    0.000    7.600 
#    0.000    0.000    0.000    7.200    0.000    0.000 
#    0.000    0.000    0.000    0.000    0.000  210.000 
#
# Total GULP energy -495694.461679 kJ/mol
# GULP energy per Si atom -12392.361542 kJ/mol
# Density = 1.594023 g / cm^3
# Si number density = 15.976594 Si / 1000 Ang^3
#
#
#
# Elastic Constant Matrix: (Units=GPa)
#
#
# Indices 1 2 3 4 5 6 
#
# 1 42.4318 29.4633 6.8228 0.0000 0.0000 0.0000
# 2 29.4633 73.4547 17.4865 0.0000 0.0000 0.0000
# 3 6.8228 17.4865 80.3468 0.0000 0.0000 0.0000
# 4 0.0000 0.0000 0.0000 21.7331 0.0000 0.0000
# 5 0.0000 0.0000 0.0000 0.0000 17.0951 0.0000
# 6 0.0000 0.0000 0.0000 0.0000 0.0000 1.3129
#
#
#
# Elastic Compliance Matrix: (Units=1/GPa)
#
#
# Indices 1 2 3 4 5 6 
#
# 1 0.032665 -0.013122 0.000082 0.000000 0.000000 0.000000
# 2 -0.013122 0.019629 -0.003158 0.000000 0.000000 0.000000
# 3 0.000082 -0.003158 0.013126 0.000000 0.000000 0.000000
# 4 0.000000 0.000000 0.000000 0.046013 0.000000 0.000000
# 5 0.000000 0.000000 0.000000 0.000000 0.058496 0.000000
# 6 0.000000 0.000000 0.000000 0.000000 0.000000 0.761699
#
#
# Mechanical properties :
#
#
# Convention : Reuss Voigt Hill
#
# Bulk Modulus (GPa) = 30.27975 33.75317 32.01646
# Shear Modulus (GPa) = 5.12803 17.52561 11.32682
#
# Velocity S-wave (km/s) = 1.79351 3.31562 2.66553
# Velocity P-wave (km/s) = 4.82521 5.98584 5.43659
#
# Compressibility (1/GPa) = 0.03302537
#
# Stress axis : x y z
#
# Youngs Moduli (GPa) = 30.61336 50.94547 76.18286
#
# Poissons Ratio (x) = 0.66850 -0.00624
# Poissons Ratio (y) = 0.40170 0.24056
# Poissons Ratio (z) = -0.00251 0.16087
#
# Static dielectric constant tensor:
#      x y z
#    x 2.725040 0.000000 0.000000 
#    y 0.000000 3.018490 0.000000 
#    z 0.000000 0.000000 3.234020 
# 
# 
# High freq. dielectric constant tensor:
#      x y z
#    x 1.552980 0.000000 0.000000 
#    y 0.000000 1.595050 0.000000 
#    z 0.000000 0.000000 1.642100 
# 
# From -- ./inp_files/3539.got.cif
#   From: 2010.03.12/outbox.cif.g09.slc.cpg/sg67_2_cif.got.tgz:3539.got - 2010.04.10 22:41:39.
