data_PCOD8278596
_publ_section_title
;
Structure prediction by ZEFSAII (Michael W. Deem and Ramdas Pophale) SiO2 
 PCOD8278596
Probable space group: C M M A
;
_chemical_formula_sum "Si O2"
_cell_formula_units_Z 96
_cell_length_a 26.223088
_cell_length_b 8.929074
_cell_length_c 23.136904
_cell_angle_alpha 90.000000
_cell_angle_beta 90.000000
_cell_angle_gamma 90.000000
_cell_volume 5417.457328
_symmetry_space_group_name_H-M "C M M A"
_symmetry_group_IT_number 67
_symmetry_cell_setting 'orthorhombic'
loop_
_space_group_symop_operation_xyz
x,y,z
-x,1/2-y,z
x,-y,-z
-x,1/2+y,-z
-x,-y,-z
x,1/2+y,-z
-x,y,z
x,1/2-y,z
1/2+x,1/2+y,z
1/2-x,-y,z
1/2+x,1/2-y,-z
1/2-x,y,-z
1/2-x,1/2-y,-z
1/2+x,y,-z
1/2-x,1/2+y,z
1/2+x,-y,z
loop_
_atom_site_type_symbol
_atom_site_label
_atom_site_fract_x
_atom_site_fract_y
_atom_site_fract_z
Si Si1 0.802954 0.430602 0.562818
Si Si2 0.620472 0.083775 0.647157
Si Si3 0.057782 0.926218 0.260736
Si Si4 0.856194 0.076496 0.825920
Si Si5 0.205941 0.089746 0.260609
Si Si6 0.696006 0.573208 0.940647
O O1 0.811430 0.500000 0.500000
O O2 0.799133 0.250000 0.561130
O O3 0.750000 0.500000 0.588183
O O4 0.852675 0.480305 0.599064
O O5 0.605550 0.250000 0.622452
O O6 0.658701 0.108661 0.698737
O O7 0.572627 0.002256 0.677662
O O8 0.063864 0.750000 0.270417
O O9 0.091305 0.980182 0.204885
O O10 0.000000 0.971925 0.246215
O O11 0.851309 0.250000 0.813328
O O12 0.849466 0.041448 0.894070
O O13 0.807865 0.998574 0.797057
O O14 0.227609 0.250000 0.241884
O O15 0.250000 0.000000 0.294336
O O16 0.704578 0.750000 0.948653
O O17 0.750000 0.500000 0.922233
O O18 0.676289 0.500000 0.000000
#
# Coordination Sequence:
#
# PCOD8278596 Si02
#       6
#    16  16  16  16  16  16
#     4  11  21  34  52  75 105 140 175 207 242 286
#     4  10  20  33  49  72 100 130 165 203 245 293
#     4   9  18  34  55  76  97 124 160 204 254 303
#     4   9  18  31  47  68  93 122 158 198 240 289
#     4  10  19  28  42  65  94 126 156 191 235 284
#     4  10  19  30  45  66  94 128 163 197 235 282
#
# _framework density 17.720490000000002
#
# number of rings (size 3 to 8) (size 9 to 14) (size 15 to 20)
#    0.000    2.167    0.000    5.000    0.000    6.333 
#    0.000    0.000    0.000    1.000    0.000    0.000 
#    0.000    0.000    0.000    0.000    0.000    0.667 
#
# Total GULP energy -594645.568850 kJ/mol
# GULP energy per Si atom -12388.449351 kJ/mol
# Density = 1.768016 g / cm^3
# Si number density = 17.720490 Si / 1000 Ang^3
#
#
#
# Elastic Constant Matrix: (Units=GPa)
#
#
# Indices 1 2 3 4 5 6 
#
# 1 86.7815 41.4790 41.1965 0.0000 0.0000 0.0000
# 2 41.4790 101.2607 44.4610 0.0000 0.0000 0.0000
# 3 41.1965 44.4610 90.7235 0.0000 0.0000 0.0000
# 4 0.0000 0.0000 0.0000 25.2278 0.0000 0.0000
# 5 0.0000 0.0000 0.0000 0.0000 14.5509 0.0000
# 6 0.0000 0.0000 0.0000 0.0000 0.0000 20.1965
#
#
#
# Elastic Compliance Matrix: (Units=1/GPa)
#
#
# Indices 1 2 3 4 5 6 
#
# 1 0.016033 -0.004295 -0.005176 0.000000 0.000000 0.000000
# 2 -0.004295 0.013734 -0.004780 0.000000 0.000000 0.000000
# 3 -0.005176 -0.004780 0.015715 0.000000 0.000000 0.000000
# 4 0.000000 0.000000 0.000000 0.039639 0.000000 0.000000
# 5 0.000000 0.000000 0.000000 0.000000 0.068724 0.000000
# 6 0.000000 0.000000 0.000000 0.000000 0.000000 0.049513
#
#
# Mechanical properties :
#
#
# Convention : Reuss Voigt Hill
#
# Bulk Modulus (GPa) = 58.89115 59.22654 59.05885
# Shear Modulus (GPa) = 21.05086 22.10367 21.57726
#
# Velocity S-wave (km/s) = 3.45039 3.53562 3.49326
# Velocity P-wave (km/s) = 7.01278 7.08256 7.04776
#
# Compressibility (1/GPa) = 0.01698048
#
# Stress axis : x y z
#
# Youngs Moduli (GPa) = 62.37123 72.81346 63.63248
#
# Poissons Ratio (x) = 0.31274 0.32933
# Poissons Ratio (y) = 0.26789 0.30417
# Poissons Ratio (z) = 0.32280 0.34806
#
# Static dielectric constant tensor:
#      x y z
#    x 3.419010 0.000000 0.000000 
#    y 0.000000 3.819840 0.000000 
#    z 0.000000 0.000000 3.330170 
# 
# 
# High freq. dielectric constant tensor:
#      x y z
#    x 1.654740 0.000000 0.000000 
#    y 0.000000 1.701160 0.000000 
#    z 0.000000 0.000000 1.676500 
# 
# From -- ./inp_files/42706.got.cif
#   From: 2010.03.12/outbox.cif.g09.slc.cpg/sg67_22_cif.got.tgz:42706.got - 2010.04.10 22:41:39.
