data_PCOD8278269
_publ_section_title
;
Structure prediction by ZEFSAII (Michael W. Deem and Ramdas Pophale) SiO2 
 PCOD8278269
Probable space group: C M M A
;
_chemical_formula_sum "Si O2"
_cell_formula_units_Z 120
_cell_length_a 8.806594
_cell_length_b 27.520741
_cell_length_c 28.988179
_cell_angle_alpha 90.000000
_cell_angle_beta 90.000000
_cell_angle_gamma 90.000000
_cell_volume 7025.690800
_symmetry_space_group_name_H-M "C M M A"
_symmetry_group_IT_number 67
_symmetry_cell_setting 'orthorhombic'
loop_
_space_group_symop_operation_xyz
x,y,z
-x,1/2-y,z
x,-y,-z
-x,1/2+y,-z
-x,-y,-z
x,1/2+y,-z
-x,y,z
x,1/2-y,z
1/2+x,1/2+y,z
1/2-x,-y,z
1/2+x,1/2-y,-z
1/2-x,y,-z
1/2-x,1/2-y,-z
1/2+x,y,-z
1/2-x,1/2+y,z
1/2+x,-y,z
loop_
_atom_site_type_symbol
_atom_site_label
_atom_site_fract_x
_atom_site_fract_y
_atom_site_fract_z
Si Si1 0.669171 0.452089 0.199423
Si Si2 0.820902 0.806030 0.784226
Si Si3 0.323083 0.053184 0.646118
Si Si4 0.319006 0.250000 0.949421
Si Si5 0.320720 0.153156 0.049808
Si Si6 0.168684 0.377997 0.718204
Si Si7 0.324292 0.947678 0.456542
Si Si8 0.822353 0.619638 0.863545
O O1 0.500000 0.462312 0.179773
O O2 0.750000 0.500000 0.218288
O O3 0.656924 0.416290 0.241489
O O4 0.779763 0.430688 0.160547
O O5 0.767563 0.750000 0.789296
O O6 0.748196 0.829382 0.738103
O O7 0.772071 0.835314 0.830515
O O8 0.000000 0.809698 0.778034
O O9 0.500000 0.046020 0.656318
O O10 0.260768 0.096705 0.677305
O O11 0.293744 0.073941 0.594317
O O12 0.250000 0.000000 0.654998
O O13 0.500000 0.250000 0.948600
O O14 0.253360 0.201490 0.926771
O O15 0.250000 0.250000 0.000000
O O16 0.500000 0.158293 0.043551
O O17 0.273599 0.115103 0.088838
O O18 0.250000 0.140222 0.000000
O O19 0.000000 0.364090 0.700677
O O20 0.500000 0.952194 0.466939
O O21 0.250000 0.917819 0.500000
O O22 0.250000 0.000000 0.455981
O O23 0.000000 0.621945 0.874995
#
# Coordination Sequence:
#
# PCOD8278269 Si02
#       8
#    16  16  16   8  16  16  16  16
#     4  10  20  34  51  72  97 125 159 199 240 282
#     4   9  19  35  53  72  96 128 159 192 236 285
#     4  10  19  29  43  65  94 128 165 204 244 287
#     4  10  18  30  46  66  92 122 154 186 224 270
#     4  11  21  34  50  72  99 128 158 193 233 275
#     4  10  20  32  48  71  97 126 161 200 240 283
#     4   9  16  25  38  57  84 121 161 199 239 283
#     4  10  20  34  53  76  99 127 160 193 232 281
#
# _framework density 17.080172000000001
#
# number of rings (size 3 to 8) (size 9 to 14) (size 15 to 20)
#    0.000    2.133    0.000    5.400    0.933    5.067 
#    0.000    0.000    0.000    0.400    0.000    2.800 
#    0.000    0.533    0.000    1.733    0.000    2.400 
#
# Total GULP energy -743474.744239 kJ/mol
# GULP energy per Si atom -12391.245737 kJ/mol
# Density = 1.704130 g / cm^3
# Si number density = 17.080172 Si / 1000 Ang^3
#
#
#
# Elastic Constant Matrix: (Units=GPa)
#
#
# Indices 1 2 3 4 5 6 
#
# 1 118.2844 24.6344 49.1038 0.0000 0.0000 0.0000
# 2 24.6344 50.2682 15.0399 0.0000 0.0000 0.0000
# 3 49.1038 15.0399 94.0588 0.0000 0.0000 0.0000
# 4 0.0000 0.0000 0.0000 17.2139 0.0000 0.0000
# 5 0.0000 0.0000 0.0000 0.0000 30.4221 0.0000
# 6 0.0000 0.0000 0.0000 0.0000 0.0000 23.4256
#
#
#
# Elastic Compliance Matrix: (Units=1/GPa)
#
#
# Indices 1 2 3 4 5 6 
#
# 1 0.011525 -0.004041 -0.005371 0.000000 0.000000 0.000000
# 2 -0.004041 0.022310 -0.001458 0.000000 0.000000 0.000000
# 3 -0.005371 -0.001458 0.013669 0.000000 0.000000 0.000000
# 4 0.000000 0.000000 0.000000 0.058093 0.000000 0.000000
# 5 0.000000 0.000000 0.000000 0.000000 0.032871 0.000000
# 6 0.000000 0.000000 0.000000 0.000000 0.000000 0.042688
#
#
# Mechanical properties :
#
#
# Convention : Reuss Voigt Hill
#
# Bulk Modulus (GPa) = 38.81280 48.90752 43.86016
# Shear Modulus (GPa) = 23.64257 25.80119 24.72188
#
# Velocity S-wave (km/s) = 3.72454 3.89085 3.80860
# Velocity P-wave (km/s) = 6.42413 6.99151 6.71382
#
# Compressibility (1/GPa) = 0.02576470
#
# Stress axis : x y z
#
# Youngs Moduli (GPa) = 86.76488 44.82331 73.16088
#
# Poissons Ratio (x) = 0.18114 0.39292
# Poissons Ratio (y) = 0.35064 0.10664
# Poissons Ratio (z) = 0.46599 0.06533
#
# Static dielectric constant tensor:
#      x y z
#    x 3.409220 0.000000 0.000000 
#    y 0.000000 3.255640 0.000000 
#    z 0.000000 0.000000 4.007800 
# 
# 
# High freq. dielectric constant tensor:
#      x y z
#    x 1.677980 0.000000 0.000000 
#    y 0.000000 1.616390 0.000000 
#    z 0.000000 0.000000 1.657420 
# 
# From -- ./inp_files/43953.got.cif
#   From: 2010.03.12/outbox.cif.g09.slc.cpg/sg67_22_cif.got.tgz:43953.got - 2010.04.10 22:41:39.
