data_PCOD8278276
_publ_section_title
;
Structure prediction by ZEFSAII (Michael W. Deem and Ramdas Pophale) SiO2 
 PCOD8278276
Probable space group: C M M A
;
_chemical_formula_sum "Si O2"
_cell_formula_units_Z 88
_cell_length_a 8.790373
_cell_length_b 27.548900
_cell_length_c 22.878586
_cell_angle_alpha 90.000000
_cell_angle_beta 90.000000
_cell_angle_gamma 90.000000
_cell_volume 5540.395221
_symmetry_space_group_name_H-M "C M M A"
_symmetry_group_IT_number 67
_symmetry_cell_setting 'orthorhombic'
loop_
_space_group_symop_operation_xyz
x,y,z
-x,1/2-y,z
x,-y,-z
-x,1/2+y,-z
-x,-y,-z
x,1/2+y,-z
-x,y,z
x,1/2-y,z
1/2+x,1/2+y,z
1/2-x,-y,z
1/2+x,1/2-y,-z
1/2-x,y,-z
1/2-x,1/2-y,-z
1/2+x,y,-z
1/2-x,1/2+y,z
1/2+x,-y,z
loop_
_atom_site_type_symbol
_atom_site_label
_atom_site_fract_x
_atom_site_fract_y
_atom_site_fract_z
Si Si1 0.672864 0.696425 0.660995
Si Si2 0.179270 0.640995 0.762764
Si Si3 0.319133 0.250000 0.563776
Si Si4 0.323393 0.804948 0.866358
Si Si5 0.676710 0.604935 0.939060
Si Si6 0.819634 0.051751 0.823609
O O1 0.500000 0.678167 0.651664
O O2 0.672472 0.750000 0.691652
O O3 0.764503 0.658051 0.699532
O O4 0.757797 0.702012 0.598215
O O5 0.224458 0.681598 0.810121
O O6 0.257894 0.589789 0.776411
O O7 0.000000 0.634091 0.762257
O O8 0.500000 0.250000 0.561244
O O9 0.250000 0.250000 0.500000
O O10 0.500000 0.812630 0.849253
O O11 0.288428 0.750000 0.885723
O O12 0.280149 0.839963 0.920478
O O13 0.500000 0.599190 0.948384
O O14 0.733417 0.568487 0.888350
O O15 0.750000 0.590280 0.000000
O O16 0.000000 0.049884 0.818951
O O17 0.750000 0.000000 0.808810
#
# Coordination Sequence:
#
# PCOD8278276 Si02
#       6
#    16  16   8  16  16  16
#     4   9  18  30  46  68  98 137 170 200 237 273
#     4  11  20  30  47  71  96 121 156 197 237 285
#     4  10  18  30  46  70 104 142 179 210 237 272
#     4   9  18  32  47  63  89 123 154 188 234 283
#     4   9  19  33  48  66  88 115 148 188 233 289
#     4  10  21  37  53  69  90 116 148 190 244 297
#
# _framework density 15.883343999999999
#
# number of rings (size 3 to 8) (size 9 to 14) (size 15 to 20)
#    0.545    1.818    0.000    4.909    0.000    6.909 
#    0.000    1.818    0.000    0.000    0.000    0.000 
#    0.000    0.727    0.000    7.273    0.000    4.364 
#
# Total GULP energy -545453.493337 kJ/mol
# GULP energy per Si atom -12396.670303 kJ/mol
# Density = 1.584719 g / cm^3
# Si number density = 15.883344 Si / 1000 Ang^3
#
#
#
# Elastic Constant Matrix: (Units=GPa)
#
#
# Indices 1 2 3 4 5 6 
#
# 1 93.5080 34.2682 41.0077 0.0000 0.0000 0.0000
# 2 34.2682 91.4831 37.6415 0.0000 0.0000 0.0000
# 3 41.0077 37.6415 104.7368 0.0000 0.0000 0.0000
# 4 0.0000 0.0000 0.0000 12.0755 0.0000 0.0000
# 5 0.0000 0.0000 0.0000 0.0000 28.7040 0.0000
# 6 0.0000 0.0000 0.0000 0.0000 0.0000 24.3134
#
#
#
# Elastic Compliance Matrix: (Units=1/GPa)
#
#
# Indices 1 2 3 4 5 6 
#
# 1 0.013782 -0.003453 -0.004155 0.000000 0.000000 0.000000
# 2 -0.003453 0.013693 -0.003569 0.000000 0.000000 0.000000
# 3 -0.004155 -0.003569 0.012457 0.000000 0.000000 0.000000
# 4 0.000000 0.000000 0.000000 0.082813 0.000000 0.000000
# 5 0.000000 0.000000 0.000000 0.000000 0.034838 0.000000
# 6 0.000000 0.000000 0.000000 0.000000 0.000000 0.041130
#
#
# Mechanical properties :
#
#
# Convention : Reuss Voigt Hill
#
# Bulk Modulus (GPa) = 56.88989 57.28473 57.08731
# Shear Modulus (GPa) = 22.03359 24.80595 23.41977
#
# Velocity S-wave (km/s) = 3.72857 3.95620 3.84407
# Velocity P-wave (km/s) = 7.37777 7.55069 7.46473
#
# Compressibility (1/GPa) = 0.01757782
#
# Stress axis : x y z
#
# Youngs Moduli (GPa) = 72.55919 73.03026 80.27389
#
# Poissons Ratio (x) = 0.25216 0.33355
# Poissons Ratio (y) = 0.25053 0.28652
# Poissons Ratio (z) = 0.30149 0.26066
#
# Static dielectric constant tensor:
#      x y z
#    x 3.058380 0.000000 0.000000 
#    y 0.000000 2.973830 0.000000 
#    z 0.000000 0.000000 2.861920 
# 
# 
# High freq. dielectric constant tensor:
#      x y z
#    x 1.622220 0.000000 0.000000 
#    y 0.000000 1.592570 0.000000 
#    z 0.000000 0.000000 1.585780 
# 
# From -- ./inp_files/37435.got.cif
#   From: 2010.03.12/outbox.cif.g09.slc.cpg/sg67_19_cif.got.tgz:37435.got - 2010.04.10 22:41:39.
