data_PCOD8278916
_publ_section_title
;
Structure prediction by ZEFSAII (Michael W. Deem and Ramdas Pophale) SiO2 
 PCOD8278916
Probable space group: C M M A
;
_chemical_formula_sum "Si O2"
_cell_formula_units_Z 96
_cell_length_a 19.927533
_cell_length_b 8.829287
_cell_length_c 29.881328
_cell_angle_alpha 90.000000
_cell_angle_beta 90.000000
_cell_angle_gamma 90.000000
_cell_volume 5257.497389
_symmetry_space_group_name_H-M "C M M A"
_symmetry_group_IT_number 67
_symmetry_cell_setting 'orthorhombic'
loop_
_space_group_symop_operation_xyz
x,y,z
-x,1/2-y,z
x,-y,-z
-x,1/2+y,-z
-x,-y,-z
x,1/2+y,-z
-x,y,z
x,1/2-y,z
1/2+x,1/2+y,z
1/2-x,-y,z
1/2+x,1/2-y,-z
1/2-x,y,-z
1/2-x,1/2-y,-z
1/2+x,y,-z
1/2-x,1/2+y,z
1/2+x,-y,z
loop_
_atom_site_type_symbol
_atom_site_label
_atom_site_fract_x
_atom_site_fract_y
_atom_site_fract_z
Si Si1 0.421965 0.926799 0.953420
Si Si2 0.821557 0.068691 0.546944
Si Si3 0.574106 0.070212 0.379259
Si Si4 0.578356 0.075957 0.279235
Si Si5 0.319305 0.428871 0.887074
Si Si6 0.681911 0.073226 0.784528
O O1 0.500000 0.958919 0.944310
O O2 0.405720 0.750000 0.955213
O O3 0.381719 0.003856 0.913569
O O4 0.398850 0.000000 0.000000
O O5 0.817165 0.250000 0.543735
O O6 0.873090 0.010294 0.584509
O O7 0.846397 0.000000 0.500000
O O8 0.750000 0.000000 0.560104
O O9 0.500000 0.006125 0.391111
O O10 0.571222 0.250000 0.379888
O O11 0.595310 0.018035 0.329452
O O12 0.500000 0.054942 0.269285
O O13 0.599803 0.250000 0.273432
O O14 0.618432 0.975885 0.244239
O O15 0.316423 0.250000 0.893689
O O16 0.250000 0.500000 0.905269
O O17 0.330333 0.476902 0.835632
O O18 0.691216 0.250000 0.780568
O O19 0.750000 0.000000 0.765468
#
# Coordination Sequence:
#
# PCOD8278916 Si02
#       6
#    16  16  16  16  16  16
#     4  10  21  37  57  81 109 140 175 215 258 306
#     4  10  19  32  50  71  98 129 163 204 248 297
#     4   8  16  32  52  73  98 130 166 204 248 297
#     4   9  18  34  55  77 103 136 172 209 253 307
#     4  10  21  37  56  78 106 139 175 216 260 307
#     4  10  21  36  54  77 106 138 173 215 260 305
#
# _framework density 18.259637999999999
#
# number of rings (size 3 to 8) (size 9 to 14) (size 15 to 20)
#    0.000    2.500    0.000    3.500    0.000    5.333 
#    0.000    8.333    0.000    3.500    0.000    0.000 
#    0.000    0.000    0.000    0.000    0.000    0.000 
#
# Total GULP energy -595249.648795 kJ/mol
# GULP energy per Si atom -12401.034350 kJ/mol
# Density = 1.821808 g / cm^3
# Si number density = 18.259638 Si / 1000 Ang^3
#
#
#
# Elastic Constant Matrix: (Units=GPa)
#
#
# Indices 1 2 3 4 5 6 
#
# 1 96.8741 41.7052 77.5812 0.0000 0.0000 0.0000
# 2 41.7052 71.2465 44.3356 0.0000 0.0000 0.0000
# 3 77.5812 44.3356 112.5766 0.0000 0.0000 0.0000
# 4 0.0000 0.0000 0.0000 27.5342 0.0000 0.0000
# 5 0.0000 0.0000 0.0000 0.0000 37.2466 0.0000
# 6 0.0000 0.0000 0.0000 0.0000 0.0000 31.6669
#
#
#
# Elastic Compliance Matrix: (Units=1/GPa)
#
#
# Indices 1 2 3 4 5 6 
#
# 1 0.024332 -0.005045 -0.014782 0.000000 0.000000 0.000000
# 2 -0.005045 0.019638 -0.004257 0.000000 0.000000 0.000000
# 3 -0.014782 -0.004257 0.020746 0.000000 0.000000 0.000000
# 4 0.000000 0.000000 0.000000 0.036318 0.000000 0.000000
# 5 0.000000 0.000000 0.000000 0.000000 0.026848 0.000000
# 6 0.000000 0.000000 0.000000 0.000000 0.000000 0.031579
#
#
# Mechanical properties :
#
#
# Convention : Reuss Voigt Hill
#
# Bulk Modulus (GPa) = 60.42711 67.54902 63.98807
# Shear Modulus (GPa) = 23.45808 27.09456 25.27632
#
# Velocity S-wave (km/s) = 3.58815 3.85626 3.72462
# Velocity P-wave (km/s) = 7.09448 7.54331 7.32233
#
# Compressibility (1/GPa) = 0.01654886
#
# Stress axis : x y z
#
# Youngs Moduli (GPa) = 41.09746 50.92120 48.20166
#
# Poissons Ratio (x) = 0.25689 0.71250
# Poissons Ratio (y) = 0.20733 0.20521
# Poissons Ratio (z) = 0.60749 0.21679
#
# Static dielectric constant tensor:
#      x y z
#    x 3.458160 0.000000 0.000000 
#    y 0.000000 3.277760 0.000000 
#    z 0.000000 0.000000 3.486330 
# 
# 
# High freq. dielectric constant tensor:
#      x y z
#    x 1.711170 0.000000 0.000000 
#    y 0.000000 1.702740 0.000000 
#    z 0.000000 0.000000 1.710710 
# 
# From -- ./inp_files/43461.got.cif
#   From: 2010.03.12/outbox.cif.g09.slc.cpg/sg67_22_cif.got.tgz:43461.got - 2010.04.10 22:41:39.
