data_PCOD8278358
_publ_section_title
;
Structure prediction by ZEFSAII (Michael W. Deem and Ramdas Pophale) SiO2 
 PCOD8278358
Probable space group: C M M A
;
_chemical_formula_sum "Si O2"
_cell_formula_units_Z 96
_cell_length_a 17.189031
_cell_length_b 22.641398
_cell_length_c 13.656842
_cell_angle_alpha 90.000000
_cell_angle_beta 90.000000
_cell_angle_gamma 90.000000
_cell_volume 5315.020192
_symmetry_space_group_name_H-M "C M M A"
_symmetry_group_IT_number 67
_symmetry_cell_setting 'orthorhombic'
loop_
_space_group_symop_operation_xyz
x,y,z
-x,1/2-y,z
x,-y,-z
-x,1/2+y,-z
-x,-y,-z
x,1/2+y,-z
-x,y,z
x,1/2-y,z
1/2+x,1/2+y,z
1/2-x,-y,z
1/2+x,1/2-y,-z
1/2-x,y,-z
1/2-x,1/2-y,-z
1/2+x,y,-z
1/2-x,1/2+y,z
1/2+x,-y,z
loop_
_atom_site_type_symbol
_atom_site_label
_atom_site_fract_x
_atom_site_fract_y
_atom_site_fract_z
Si Si1 0.412738 0.250000 0.167286
Si Si2 0.178167 0.146966 0.935794
Si Si3 0.583348 0.750000 0.194980
Si Si4 0.128446 0.250000 0.619537
Si Si5 0.908268 0.125835 0.121617
Si Si6 0.252327 0.350158 0.607140
Si Si7 0.376556 0.750000 0.403710
Si Si8 0.768709 0.932019 0.788410
O O1 0.500000 0.250000 0.121101
O O2 0.362273 0.194431 0.133699
O O3 0.425934 0.250000 0.284977
O O4 0.211345 0.094228 0.870105
O O5 0.250000 0.173599 0.000000
O O6 0.111101 0.120827 0.006641
O O7 0.500000 0.750000 0.141242
O O8 0.624987 0.809935 0.158557
O O9 0.565668 0.750000 0.311761
O O10 0.178329 0.309208 0.625757
O O11 0.084362 0.250000 0.512776
O O12 0.859096 0.076841 0.180611
O O13 0.000000 0.116598 0.141957
O O14 0.250000 0.380064 0.500000
O O15 0.327160 0.308835 0.611718
O O16 0.254157 0.402329 0.684337
O O17 0.750000 0.000000 0.776863
#
# Coordination Sequence:
#
# PCOD8278358 Si02
#       8
#     8  16   8   8  16  16   8  16
#     4  12  21  33  54  83 115 146 175 213 278 350
#     4  10  22  36  55  78 110 145 181 227 272 320
#     4  10  18  30  54  82 109 138 170 212 280 338
#     4   9  18  31  53  80 110 139 172 211 280 337
#     4  10  21  37  56  83 112 140 177 228 279 323
#     4   9  17  32  56  82 108 136 179 224 269 323
#     4   9  16  30  54  84 106 136 170 219 275 332
#     4  11  22  37  58  81 105 144 195 227 258 314
#
# _framework density 18.06202
#
# number of rings (size 3 to 8) (size 9 to 14) (size 15 to 20)
#    0.000    2.000    3.333    2.250    0.000    6.333 
#    0.000    2.500    0.000    0.000    0.000    1.167 
#    0.000    0.000    0.000    0.000    0.000    0.000 
#
# Total GULP energy -594754.785819 kJ/mol
# GULP energy per Si atom -12390.724705 kJ/mol
# Density = 1.802091 g / cm^3
# Si number density = 18.062020 Si / 1000 Ang^3
#
#
#
# Elastic Constant Matrix: (Units=GPa)
#
#
# Indices 1 2 3 4 5 6 
#
# 1 84.9815 45.0332 35.9459 0.0000 0.0000 0.0000
# 2 45.0332 122.0418 58.8442 0.0000 0.0000 0.0000
# 3 35.9459 58.8442 142.6972 0.0000 0.0000 0.0000
# 4 0.0000 0.0000 0.0000 15.5990 0.0000 0.0000
# 5 0.0000 0.0000 0.0000 0.0000 16.5897 0.0000
# 6 0.0000 0.0000 0.0000 0.0000 0.0000 13.4901
#
#
#
# Elastic Compliance Matrix: (Units=1/GPa)
#
#
# Indices 1 2 3 4 5 6 
#
# 1 0.015017 -0.004640 -0.001869 0.000000 0.000000 0.000000
# 2 -0.004640 0.011661 -0.003640 0.000000 0.000000 0.000000
# 3 -0.001869 -0.003640 0.008980 0.000000 0.000000 0.000000
# 4 0.000000 0.000000 0.000000 0.064107 0.000000 0.000000
# 5 0.000000 0.000000 0.000000 0.000000 0.060278 0.000000
# 6 0.000000 0.000000 0.000000 0.000000 0.000000 0.074129
#
#
# Mechanical properties :
#
#
# Convention : Reuss Voigt Hill
#
# Bulk Modulus (GPa) = 65.10732 69.92969 67.51851
# Shear Modulus (GPa) = 19.26123 23.12891 21.19507
#
# Velocity S-wave (km/s) = 3.26911 3.58233 3.42930
# Velocity P-wave (km/s) = 7.09748 7.47738 7.28991
#
# Compressibility (1/GPa) = 0.01535926
#
# Stress axis : x y z
#
# Youngs Moduli (GPa) = 66.59254 85.75596 111.36158
#
# Poissons Ratio (x) = 0.39789 0.20819
# Poissons Ratio (y) = 0.30897 0.40534
# Poissons Ratio (z) = 0.12449 0.31214
#
# Static dielectric constant tensor:
#      x y z
#    x 3.158790 0.000000 0.000000 
#    y 0.000000 2.990370 0.000000 
#    z 0.000000 0.000000 3.652940 
# 
# 
# High freq. dielectric constant tensor:
#      x y z
#    x 1.688490 0.000000 0.000000 
#    y 0.000000 1.664200 0.000000 
#    z 0.000000 0.000000 1.720880 
# 
# From -- ./inp_files/19743.got.cif
#   From: 2010.03.12/outbox.cif.g09.slc.cpg/sg67_10_cif.got.tgz:19743.got - 2010.04.10 22:41:39.
