data_PCOD8278309
_publ_section_title
;
Structure prediction by ZEFSAII (Michael W. Deem and Ramdas Pophale) SiO2 
 PCOD8278309
Probable space group: C M M A
;
_chemical_formula_sum "Si O2"
_cell_formula_units_Z 116
_cell_length_a 28.294184
_cell_length_b 25.711199
_cell_length_c 9.688359
_cell_angle_alpha 90.000000
_cell_angle_beta 90.000000
_cell_angle_gamma 90.000000
_cell_volume 7048.062171
_symmetry_space_group_name_H-M "C M M A"
_symmetry_group_IT_number 67
_symmetry_cell_setting 'orthorhombic'
loop_
_space_group_symop_operation_xyz
x,y,z
-x,1/2-y,z
x,-y,-z
-x,1/2+y,-z
-x,-y,-z
x,1/2+y,-z
-x,y,z
x,1/2-y,z
1/2+x,1/2+y,z
1/2-x,-y,z
1/2+x,1/2-y,-z
1/2-x,y,-z
1/2-x,1/2-y,-z
1/2+x,y,-z
1/2-x,1/2+y,z
1/2+x,-y,z
loop_
_atom_site_type_symbol
_atom_site_label
_atom_site_fract_x
_atom_site_fract_y
_atom_site_fract_z
Si Si1 0.729721 0.377673 0.139903
Si Si2 0.806799 0.445783 0.272501
Si Si3 0.750000 0.500000 0.500000
Si Si4 0.350357 0.447382 0.225886
Si Si5 0.793069 0.189895 0.602677
Si Si6 0.446795 0.448039 0.583408
Si Si7 0.446977 0.486199 0.159100
Si Si8 0.640776 0.393214 0.505170
O O1 0.769677 0.420484 0.170101
O O2 0.679434 0.408108 0.127934
O O3 0.723984 0.332336 0.251123
O O4 0.750000 0.351557 0.000000
O O5 0.780136 0.462104 0.408598
O O6 0.833139 0.493638 0.197753
O O7 0.842771 0.404331 0.337872
O O8 0.406337 0.443339 0.191201
O O9 0.340916 0.433279 0.386483
O O10 0.805277 0.250000 0.620806
O O11 0.750000 0.179624 0.500000
O O12 0.841061 0.163400 0.543435
O O13 0.432744 0.500000 0.500000
O O14 0.500000 0.430699 0.553696
O O15 0.438902 0.462457 0.745295
O O16 0.415732 0.399989 0.524544
O O17 0.500000 0.463799 0.190562
O O18 0.442516 0.500000 0.000000
#
# Coordination Sequence:
#
# PCOD8278309 Si02
#       8
#    16  16   4  16  16  16  16  16
#     4  11  24  34  47  76 105 135 171 211 258 313
#     4  12  18  28  44  71 105 137 167 199 241 301
#     4  12  16  28  42  60 100 140 174 192 232 280
#     4  11  20  29  47  70 105 138 168 202 246 291
#     4  10  21  39  58  72  93 129 176 224 268 315
#     4  10  18  30  49  74 103 137 173 202 240 298
#     4  10  21  33  44  65 101 145 178 201 233 283
#     4  11  18  31  52  77  95 132 172 216 253 298
#
# _framework density 16.458424000000001
#
# number of rings (size 3 to 8) (size 9 to 14) (size 15 to 20)
#    0.000    1.241    6.897    0.828    1.931    0.828 
#    0.000    0.000    0.000    0.414    0.000    0.000 
#    0.000    0.000    0.000    0.000    0.000    0.000 
#
# Total GULP energy -718618.656740 kJ/mol
# GULP energy per Si atom -12389.976840 kJ/mol
# Density = 1.642096 g / cm^3
# Si number density = 16.458424 Si / 1000 Ang^3
#
#
#
# Elastic Constant Matrix: (Units=GPa)
#
#
# Indices 1 2 3 4 5 6 
#
# 1 120.1783 49.0872 33.4030 0.0000 0.0000 0.0000
# 2 49.0872 87.7287 32.8775 0.0000 0.0000 0.0000
# 3 33.4030 32.8775 83.3364 0.0000 0.0000 0.0000
# 4 0.0000 0.0000 0.0000 25.5301 0.0000 0.0000
# 5 0.0000 0.0000 0.0000 0.0000 23.5873 0.0000
# 6 0.0000 0.0000 0.0000 0.0000 0.0000 16.6735
#
#
#
# Elastic Compliance Matrix: (Units=1/GPa)
#
#
# Indices 1 2 3 4 5 6 
#
# 1 0.011168 -0.005364 -0.002360 0.000000 0.000000 0.000000
# 2 -0.005364 0.015953 -0.004144 0.000000 0.000000 0.000000
# 3 -0.002360 -0.004144 0.014580 0.000000 0.000000 0.000000
# 4 0.000000 0.000000 0.000000 0.039169 0.000000 0.000000
# 5 0.000000 0.000000 0.000000 0.000000 0.042396 0.000000
# 6 0.000000 0.000000 0.000000 0.000000 0.000000 0.059975
#
#
# Mechanical properties :
#
#
# Convention : Reuss Voigt Hill
#
# Bulk Modulus (GPa) = 55.66279 57.99765 56.83022
# Shear Modulus (GPa) = 23.47784 24.88323 24.18053
#
# Velocity S-wave (km/s) = 3.78099 3.89251 3.83716
# Velocity P-wave (km/s) = 7.27701 7.45101 7.36453
#
# Compressibility (1/GPa) = 0.01796532
#
# Stress axis : x y z
#
# Youngs Moduli (GPa) = 89.54109 62.68315 68.58606
#
# Poissons Ratio (x) = 0.33626 0.16186
# Poissons Ratio (y) = 0.48034 0.28419
# Poissons Ratio (z) = 0.21132 0.25974
#
# Static dielectric constant tensor:
#      x y z
#    x 3.199850 0.000000 0.000000 
#    y 0.000000 2.696380 0.000000 
#    z 0.000000 0.000000 3.070790 
# 
# 
# High freq. dielectric constant tensor:
#      x y z
#    x 1.644400 0.000000 0.000000 
#    y 0.000000 1.570740 0.000000 
#    z 0.000000 0.000000 1.640950 
# 
# From -- ./inp_files/14853.got.cif
#   From: 2010.03.12/outbox.cif.g09.slc.cpg/sg67_8_cif.got.tgz:14853.got - 2010.04.10 22:41:39.
