data_PCOD8278380
_publ_section_title
;
Structure prediction by ZEFSAII (Michael W. Deem and Ramdas Pophale) SiO2 
 PCOD8278380
Probable space group: C M M A
;
_chemical_formula_sum "Si O2"
_cell_formula_units_Z 64
_cell_length_a 20.971283
_cell_length_b 8.575121
_cell_length_c 18.720725
_cell_angle_alpha 90.000000
_cell_angle_beta 90.000000
_cell_angle_gamma 90.000000
_cell_volume 3366.572112
_symmetry_space_group_name_H-M "C M M A"
_symmetry_group_IT_number 67
_symmetry_cell_setting 'orthorhombic'
loop_
_space_group_symop_operation_xyz
x,y,z
-x,1/2-y,z
x,-y,-z
-x,1/2+y,-z
-x,-y,-z
x,1/2+y,-z
-x,y,z
x,1/2-y,z
1/2+x,1/2+y,z
1/2-x,-y,z
1/2+x,1/2-y,-z
1/2-x,y,-z
1/2-x,1/2-y,-z
1/2+x,y,-z
1/2-x,1/2+y,z
1/2+x,-y,z
loop_
_atom_site_type_symbol
_atom_site_label
_atom_site_fract_x
_atom_site_fract_y
_atom_site_fract_z
Si Si1 0.685581 0.433164 0.212154
Si Si2 0.000000 0.935066 0.421033
Si Si3 0.630221 0.933663 0.078327
Si Si4 0.929608 0.430027 0.299131
Si Si5 0.000000 0.435284 0.920440
O O1 0.690188 0.250000 0.203109
O O2 0.750000 0.500000 0.249039
O O3 0.683863 0.513068 0.133771
O O4 0.623922 0.473712 0.258527
O O5 0.000000 0.750000 0.421463
O O6 0.000000 0.000000 0.500000
O O7 0.937055 0.999843 0.379435
O O8 0.626149 0.750000 0.072136
O O9 0.564692 0.999090 0.114121
O O10 0.644972 0.000000 0.000000
O O11 0.908712 0.250000 0.302713
O O12 0.000000 0.447214 0.261308
O O13 0.000000 0.250000 0.918212
O O14 0.000000 0.500000 0.000000
#
# Coordination Sequence:
#
# PCOD8278380 Si02
#       5
#    16   8  16  16   8
#     4  12  25  41  60  84 116 156 200 246 300 359
#     4  10  18  33  60  97 131 162 198 242 289 337
#     4  11  22  38  57  80 109 145 192 248 305 360
#     4   9  20  38  61  90 122 157 197 242 290 343
#     4  10  18  31  50  75 102 132 170 222 286 347
#
# _framework density 19.010435000000001
#
# number of rings (size 3 to 8) (size 9 to 14) (size 15 to 20)
#    0.750    0.750    0.000    8.625    1.750    0.500 
#    0.000    2.500    0.000    0.750    0.000    5.250 
#    0.000    0.000    0.000    0.000    0.000    0.000 
#
# Total GULP energy -396621.927436 kJ/mol
# GULP energy per Si atom -12394.435232 kJ/mol
# Density = 1.896717 g / cm^3
# Si number density = 19.010435 Si / 1000 Ang^3
#
#
#
# Elastic Constant Matrix: (Units=GPa)
#
#
# Indices 1 2 3 4 5 6 
#
# 1 92.9940 41.3347 43.1544 0.0000 0.0000 0.0000
# 2 41.3347 180.9476 34.7418 0.0000 0.0000 0.0000
# 3 43.1544 34.7418 93.9350 0.0000 0.0000 0.0000
# 4 0.0000 0.0000 0.0000 32.7112 0.0000 0.0000
# 5 0.0000 0.0000 0.0000 0.0000 3.1009 0.0000
# 6 0.0000 0.0000 0.0000 0.0000 0.0000 32.3397
#
#
#
# Elastic Compliance Matrix: (Units=1/GPa)
#
#
# Indices 1 2 3 4 5 6 
#
# 1 0.014422 -0.002177 -0.005820 0.000000 0.000000 0.000000
# 2 -0.002177 0.006278 -0.001322 0.000000 0.000000 0.000000
# 3 -0.005820 -0.001322 0.013808 0.000000 0.000000 0.000000
# 4 0.000000 0.000000 0.000000 0.030571 0.000000 0.000000
# 5 0.000000 0.000000 0.000000 0.000000 0.322487 0.000000
# 6 0.000000 0.000000 0.000000 0.000000 0.000000 0.030922
#
#
# Mechanical properties :
#
#
# Convention : Reuss Voigt Hill
#
# Bulk Modulus (GPa) = 63.01237 67.37095 65.19166
# Shear Modulus (GPa) = 11.30160 30.20674 20.75417
#
# Velocity S-wave (km/s) = 2.44087 3.99050 3.30771
# Velocity P-wave (km/s) = 6.41576 7.53312 6.99678
#
# Compressibility (1/GPa) = 0.01586990
#
# Stress axis : x y z
#
# Youngs Moduli (GPa) = 69.33836 159.29894 72.41965
#
# Poissons Ratio (x) = 0.34679 0.42151
# Poissons Ratio (y) = 0.15095 0.09571
# Poissons Ratio (z) = 0.40358 0.21053
#
# Static dielectric constant tensor:
#      x y z
#    x 3.770680 0.000000 0.000000 
#    y 0.000000 3.573480 0.000000 
#    z 0.000000 0.000000 -0.085180 
# 
# 
# High freq. dielectric constant tensor:
#      x y z
#    x 1.732420 0.000000 0.000000 
#    y 0.000000 1.762820 0.000000 
#    z 0.000000 0.000000 1.710290 
# 
# From -- ./inp_files/39209.got.cif
#   From: 2010.03.12/outbox.cif.g09.slc.cpg/sg67_20_cif.got.tgz:39209.got - 2010.04.10 22:41:39.
