data_PCOD8278400
_publ_section_title
;
Structure prediction by ZEFSAII (Michael W. Deem and Ramdas Pophale) SiO2 
 PCOD8278400
Probable space group: C M M A
;
_chemical_formula_sum "Si O2"
_cell_formula_units_Z 96
_cell_length_a 14.866168
_cell_length_b 23.835696
_cell_length_c 11.721765
_cell_angle_alpha 90.000000
_cell_angle_beta 90.000000
_cell_angle_gamma 90.000000
_cell_volume 4153.554224
_symmetry_space_group_name_H-M "C M M A"
_symmetry_group_IT_number 67
_symmetry_cell_setting 'orthorhombic'
loop_
_space_group_symop_operation_xyz
x,y,z
-x,1/2-y,z
x,-y,-z
-x,1/2+y,-z
-x,-y,-z
x,1/2+y,-z
-x,y,z
x,1/2-y,z
1/2+x,1/2+y,z
1/2-x,-y,z
1/2+x,1/2-y,-z
1/2-x,y,-z
1/2-x,1/2-y,-z
1/2+x,y,-z
1/2-x,1/2+y,z
1/2+x,-y,z
loop_
_atom_site_type_symbol
_atom_site_label
_atom_site_fract_x
_atom_site_fract_y
_atom_site_fract_z
Si Si1 0.392466 0.404456 0.818382
Si Si2 0.393214 0.032195 0.203655
Si Si3 0.108650 0.750000 0.446488
Si Si4 0.347583 0.942959 0.549506
Si Si5 0.392555 0.750000 0.815733
Si Si6 0.106520 0.637697 0.057045
Si Si7 0.098135 0.650662 0.591644
O O1 0.500000 0.406024 0.812210
O O2 0.359235 0.469377 0.828367
O O3 0.352430 0.373833 0.704968
O O4 0.358957 0.367334 0.926158
O O5 0.500000 0.032434 0.222118
O O6 0.343027 0.053819 0.315408
O O7 0.362876 0.078573 0.111871
O O8 0.143694 0.750000 0.315310
O O9 0.149444 0.699101 0.521823
O O10 0.000000 0.750000 0.442223
O O11 0.250000 0.928424 0.500000
O O12 0.416081 0.896855 0.503901
O O13 0.386518 0.000000 0.500000
O O14 0.500000 0.750000 0.816624
O O15 0.355520 0.693802 0.880436
O O16 0.000000 0.641696 0.060091
O O17 0.000000 0.672744 0.629683
#
# Coordination Sequence:
#
# PCOD8278400 Si02
#       7
#    16  16   8  16   8  16  16
#     4   9  17  28  46  75 105 133 170 216 261 309
#     4  10  18  31  52  76 104 137 176 218 264 315
#     4   9  18  31  50  78 109 139 178 223 260 306
#     4  11  22  34  50  75 105 140 172 222 270 315
#     4   9  16  27  41  64 103 142 171 209 261 311
#     4   9  17  28  46  73 103 136 175 217 258 306
#     4  10  19  33  53  77 106 139 176 216 264 320
#
# _framework density 23.112736000000002
#
# number of rings (size 3 to 8) (size 9 to 14) (size 15 to 20)
#    0.000    2.333    1.667    2.000    0.000    6.000 
#    0.000    3.750    0.000    1.000    0.000    0.000 
#    0.000    4.000    0.000    0.000    0.000    0.000 
#
# Total GULP energy -594681.399962 kJ/mol
# GULP energy per Si atom -12389.195833 kJ/mol
# Density = 2.306013 g / cm^3
# Si number density = 23.112736 Si / 1000 Ang^3
#
#
#
# Elastic Constant Matrix: (Units=GPa)
#
#
# Indices 1 2 3 4 5 6 
#
# 1 6.5384 4.4937 5.1081 0.0000 0.0000 0.0000
# 2 4.4937 193.9026 118.8731 0.0000 0.0000 0.0000
# 3 5.1081 118.8731 202.0630 0.0000 0.0000 0.0000
# 4 0.0000 0.0000 0.0000 44.3039 0.0000 0.0000
# 5 0.0000 0.0000 0.0000 0.0000 14.7657 0.0000
# 6 0.0000 0.0000 0.0000 0.0000 0.0000 5.9914
#
#
#
# Elastic Compliance Matrix: (Units=1/GPa)
#
#
# Indices 1 2 3 4 5 6 
#
# 1 0.156461 -0.001879 -0.002850 0.000000 0.000000 0.000000
# 2 -0.001879 0.008089 -0.004711 0.000000 0.000000 0.000000
# 3 -0.002850 -0.004711 0.007793 0.000000 0.000000 0.000000
# 4 0.000000 0.000000 0.000000 0.022571 0.000000 0.000000
# 5 0.000000 0.000000 0.000000 0.000000 0.067724 0.000000
# 6 0.000000 0.000000 0.000000 0.000000 0.000000 0.166905
#
#
# Mechanical properties :
#
#
# Convention : Reuss Voigt Hill
#
# Bulk Modulus (GPa) = 6.51627 73.27264 39.89445
# Shear Modulus (GPa) = 10.00847 31.28083 20.64465
#
# Velocity S-wave (km/s) = 2.08319 3.68285 2.99191
# Velocity P-wave (km/s) = 2.93457 7.06085 5.40682
#
# Compressibility (1/GPa) = 0.15346212
#
# Stress axis : x y z
#
# Youngs Moduli (GPa) = 6.39139 123.62407 128.32653
#
# Poissons Ratio (x) = 0.23227 0.36572
# Poissons Ratio (y) = 0.01201 0.60458
# Poissons Ratio (z) = 0.01822 0.58243
#
# Static dielectric constant tensor:
#      x y z
#    x 3.369790 0.000000 0.000000 
#    y 0.000000 4.333360 0.000000 
#    z 0.000000 0.000000 4.509740 
# 
# 
# High freq. dielectric constant tensor:
#      x y z
#    x 1.861030 0.000000 0.000000 
#    y 0.000000 1.918260 0.000000 
#    z 0.000000 0.000000 1.922040 
# 
# From -- ./inp_files/19706.got.cif
#   From: 2010.03.12/outbox.cif.g09.slc.cpg/sg67_10_cif.got.tgz:19706.got - 2010.04.10 22:41:39.
