data_PCOD8278361
_publ_section_title
;
Structure prediction by ZEFSAII (Michael W. Deem and Ramdas Pophale) SiO2 
 PCOD8278361
Probable space group: C M M A
;
_chemical_formula_sum "Si O2"
_cell_formula_units_Z 56
_cell_length_a 18.747037
_cell_length_b 8.842903
_cell_length_c 19.555006
_cell_angle_alpha 90.000000
_cell_angle_beta 90.000000
_cell_angle_gamma 90.000000
_cell_volume 3241.794277
_symmetry_space_group_name_H-M "C M M A"
_symmetry_group_IT_number 67
_symmetry_cell_setting 'orthorhombic'
loop_
_space_group_symop_operation_xyz
x,y,z
-x,1/2-y,z
x,-y,-z
-x,1/2+y,-z
-x,-y,-z
x,1/2+y,-z
-x,y,z
x,1/2-y,z
1/2+x,1/2+y,z
1/2-x,-y,z
1/2+x,1/2-y,-z
1/2-x,y,-z
1/2-x,1/2-y,-z
1/2+x,y,-z
1/2-x,1/2+y,z
1/2+x,-y,z
loop_
_atom_site_type_symbol
_atom_site_label
_atom_site_fract_x
_atom_site_fract_y
_atom_site_fract_z
Si Si1 0.500000 0.073372 0.073548
Si Si2 0.916949 0.074125 0.571657
Si Si3 0.672421 0.069772 0.691977
Si Si4 0.421709 0.580887 0.184273
O O1 0.500000 0.250000 0.064270
O O2 0.571226 0.021306 0.115571
O O3 0.500000 0.000000 0.000000
O O4 0.896495 0.250000 0.569988
O O5 0.000000 0.049870 0.587470
O O6 0.895569 0.000000 0.500000
O O7 0.872305 0.989885 0.628804
O O8 0.675581 0.250000 0.688727
O O9 0.635059 0.013751 0.762249
O O10 0.750000 0.000000 0.689575
O O11 0.500000 0.584437 0.220548
O O12 0.399107 0.750000 0.161926
#
# Coordination Sequence:
#
# PCOD8278361 Si02
#       4
#     8  16  16  16
#     4  10  18  30  54  84 111 136 171 216 258 306
#     4  10  21  37  57  80 105 136 178 225 272 322
#     4  11  22  36  54  77 109 144 179 221 267 317
#     4   8  17  34  53  76 105 138 174 213 260 310
#
# _framework density 17.274384000000001
#
# number of rings (size 3 to 8) (size 9 to 14) (size 15 to 20)
#    0.857    1.429    0.000    3.429    0.000    5.714 
#    0.000    2.857    0.000    0.857    0.000    6.000 
#    0.000    0.000    0.000    0.000    0.000    0.000 
#
# Total GULP energy -347023.390549 kJ/mol
# GULP energy per Si atom -12393.692520 kJ/mol
# Density = 1.723507 g / cm^3
# Si number density = 17.274384 Si / 1000 Ang^3
#
#
#
# Elastic Constant Matrix: (Units=GPa)
#
#
# Indices 1 2 3 4 5 6 
#
# 1 63.3480 47.5843 66.8535 0.0000 0.0000 0.0000
# 2 47.5843 117.6576 79.2396 0.0000 0.0000 0.0000
# 3 66.8535 79.2396 160.2381 0.0000 0.0000 0.0000
# 4 0.0000 0.0000 0.0000 32.4547 0.0000 0.0000
# 5 0.0000 0.0000 0.0000 0.0000 0.9233 0.0000
# 6 0.0000 0.0000 0.0000 0.0000 0.0000 20.7303
#
#
#
# Elastic Compliance Matrix: (Units=1/GPa)
#
#
# Indices 1 2 3 4 5 6 
#
# 1 0.030518 -0.005649 -0.009939 0.000000 0.000000 0.000000
# 2 -0.005649 0.013789 -0.004462 0.000000 0.000000 0.000000
# 3 -0.009939 -0.004462 0.012594 0.000000 0.000000 0.000000
# 4 0.000000 0.000000 0.000000 0.030812 0.000000 0.000000
# 5 0.000000 0.000000 0.000000 0.000000 1.083051 0.000000
# 6 0.000000 0.000000 0.000000 0.000000 0.000000 0.048239
#
#
# Mechanical properties :
#
#
# Convention : Reuss Voigt Hill
#
# Bulk Modulus (GPa) = 59.51989 80.95540 70.23765
# Shear Modulus (GPa) = 3.95350 20.65942 12.30646
#
# Velocity S-wave (km/s) = 1.51447 3.46201 2.67200
# Velocity P-wave (km/s) = 6.13095 7.93391 7.08997
#
# Compressibility (1/GPa) = 0.01680111
#
# Stress axis : x y z
#
# Youngs Moduli (GPa) = 32.76753 72.52279 79.40260
#
# Poissons Ratio (x) = 0.40965 0.78920
# Poissons Ratio (y) = 0.18509 0.35430
# Poissons Ratio (z) = 0.32568 0.32360
#
# Static dielectric constant tensor:
#      x y z
#    x 3.104590 0.000000 0.000000 
#    y 0.000000 3.314970 0.000000 
#    z 0.000000 0.000000 3.209100 
# 
# 
# High freq. dielectric constant tensor:
#      x y z
#    x 1.646030 0.000000 0.000000 
#    y 0.000000 1.678580 0.000000 
#    z 0.000000 0.000000 1.665040 
# 
# From -- ./inp_files/31702.got.cif
#   From: 2010.03.12/outbox.cif.g09.slc.cpg/sg67_16_cif.got.tgz:31702.got - 2010.04.10 22:41:39.
