data_PCOD8278871
_publ_section_title
;
Structure prediction by ZEFSAII (Michael W. Deem and Ramdas Pophale) SiO2 
 PCOD8278871
Probable space group: C M M A
;
_chemical_formula_sum "Si O2"
_cell_formula_units_Z 112
_cell_length_a 14.601227
_cell_length_b 26.687793
_cell_length_c 13.419919
_cell_angle_alpha 90.000000
_cell_angle_beta 90.000000
_cell_angle_gamma 90.000000
_cell_volume 5229.400545
_symmetry_space_group_name_H-M "C M M A"
_symmetry_group_IT_number 67
_symmetry_cell_setting 'orthorhombic'
loop_
_space_group_symop_operation_xyz
x,y,z
-x,1/2-y,z
x,-y,-z
-x,1/2+y,-z
-x,-y,-z
x,1/2+y,-z
-x,y,z
x,1/2-y,z
1/2+x,1/2+y,z
1/2-x,-y,z
1/2+x,1/2-y,-z
1/2-x,y,-z
1/2-x,1/2-y,-z
1/2+x,y,-z
1/2-x,1/2+y,z
1/2+x,-y,z
loop_
_atom_site_type_symbol
_atom_site_label
_atom_site_fract_x
_atom_site_fract_y
_atom_site_fract_z
Si Si1 0.850951 0.694415 0.037820
Si Si2 0.894732 0.098158 0.644410
Si Si3 0.272776 0.944633 0.247516
Si Si4 0.605029 0.804389 0.746570
Si Si5 0.108336 0.906024 0.581009
Si Si6 0.393700 0.804845 0.325028
Si Si7 0.897701 0.869188 0.859699
O O1 0.898086 0.750000 0.031336
O O2 0.900303 0.651769 0.972055
O O3 0.750000 0.699138 0.000000
O O4 0.846569 0.676065 0.152388
O O5 0.828085 0.074828 0.725549
O O6 0.880834 0.158153 0.654190
O O7 0.867953 0.081129 0.532999
O O8 0.000000 0.083045 0.668202
O O9 0.337804 0.944014 0.346179
O O10 0.323194 0.913297 0.159554
O O11 0.250000 0.000000 0.208424
O O12 0.500000 0.800417 0.776440
O O13 0.643573 0.750000 0.713469
O O14 0.143499 0.849179 0.603272
O O15 0.000000 0.911174 0.601600
O O16 0.500000 0.798373 0.345919
O O17 0.346605 0.750000 0.342570
O O18 0.374061 0.822247 0.211979
O O19 0.000000 0.889933 0.834805
#
# Coordination Sequence:
#
# PCOD8278871 Si02
#       7
#    16  16  16  16  16  16  16
#     4  10  19  31  53  87 123 157 191 227 271 331
#     4  10  21  36  55  79 109 147 187 229 279 340
#     4  11  23  39  58  79 105 140 183 244 305 351
#     4   9  18  33  53  79 112 149 187 222 261 320
#     4   9  19  35  54  80 111 142 183 229 277 340
#     4   8  14  26  47  76 109 142 174 213 266 331
#     4  10  20  35  57  84 114 148 189 237 290 344
#
# _framework density 21.417369999999998
#
# number of rings (size 3 to 8) (size 9 to 14) (size 15 to 20)
#    0.000    2.429    0.000    3.429    0.000    4.286 
#    0.000    7.143    0.000    8.143    0.000    6.000 
#    0.000    0.000    0.000    0.000    0.000    0.000 
#
# Total GULP energy -693850.756846 kJ/mol
# GULP energy per Si atom -12390.192087 kJ/mol
# Density = 2.136862 g / cm^3
# Si number density = 21.417370 Si / 1000 Ang^3
#
#
#
# Elastic Constant Matrix: (Units=GPa)
#
#
# Indices 1 2 3 4 5 6 
#
# 1 73.5382 22.9997 13.1807 0.0000 0.0000 0.0000
# 2 22.9997 89.8395 3.0381 0.0000 0.0000 0.0000
# 3 13.1807 3.0381 44.8480 0.0000 0.0000 0.0000
# 4 0.0000 0.0000 0.0000 17.8928 0.0000 0.0000
# 5 0.0000 0.0000 0.0000 0.0000 27.4411 0.0000
# 6 0.0000 0.0000 0.0000 0.0000 0.0000 24.7579
#
#
#
# Elastic Compliance Matrix: (Units=1/GPa)
#
#
# Indices 1 2 3 4 5 6 
#
# 1 0.015573 -0.003841 -0.004317 0.000000 0.000000 0.000000
# 2 -0.003841 0.012104 0.000309 0.000000 0.000000 0.000000
# 3 -0.004317 0.000309 0.023545 0.000000 0.000000 0.000000
# 4 0.000000 0.000000 0.000000 0.055888 0.000000 0.000000
# 5 0.000000 0.000000 0.000000 0.000000 0.036442 0.000000
# 6 0.000000 0.000000 0.000000 0.000000 0.000000 0.040391
#
#
# Mechanical properties :
#
#
# Convention : Reuss Voigt Hill
#
# Bulk Modulus (GPa) = 28.14932 31.85144 30.00038
# Shear Modulus (GPa) = 23.64257 25.28552 24.46404
#
# Velocity S-wave (km/s) = 3.32610 3.43973 3.38339
# Velocity P-wave (km/s) = 5.28416 5.53892 5.41304
#
# Compressibility (1/GPa) = 0.03552484
#
# Stress axis : x y z
#
# Youngs Moduli (GPa) = 64.21216 82.61852 42.47135
#
# Poissons Ratio (x) = 0.31733 0.18334
# Poissons Ratio (y) = 0.24663 -0.01312
# Poissons Ratio (z) = 0.27719 -0.02552
#
# Static dielectric constant tensor:
#      x y z
#    x 3.900120 0.000000 0.000000 
#    y 0.000000 3.893730 0.000000 
#    z 0.000000 0.000000 3.694320 
# 
# 
# High freq. dielectric constant tensor:
#      x y z
#    x 1.845770 0.000000 0.000000 
#    y 0.000000 1.814490 0.000000 
#    z 0.000000 0.000000 1.816760 
# 
# From -- ./inp_files/27726.got.cif
#   From: 2010.03.12/outbox.cif.g09.slc.cpg/sg67_14_cif.got.tgz:27726.got - 2010.04.10 22:41:39.
