data_PCOD8278958
_publ_section_title
;
Structure prediction by ZEFSAII (Michael W. Deem and Ramdas Pophale) SiO2 
 PCOD8278958
Probable space group: C M M A
;
_chemical_formula_sum "Si O2"
_cell_formula_units_Z 112
_cell_length_a 23.323115
_cell_length_b 27.963074
_cell_length_c 9.813837
_cell_angle_alpha 90.000000
_cell_angle_beta 90.000000
_cell_angle_gamma 90.000000
_cell_volume 6400.447006
_symmetry_space_group_name_H-M "C M M A"
_symmetry_group_IT_number 67
_symmetry_cell_setting 'orthorhombic'
loop_
_space_group_symop_operation_xyz
x,y,z
-x,1/2-y,z
x,-y,-z
-x,1/2+y,-z
-x,-y,-z
x,1/2+y,-z
-x,y,z
x,1/2-y,z
1/2+x,1/2+y,z
1/2-x,-y,z
1/2+x,1/2-y,-z
1/2-x,y,-z
1/2-x,1/2-y,-z
1/2+x,y,-z
1/2-x,1/2+y,z
1/2+x,-y,z
loop_
_atom_site_type_symbol
_atom_site_label
_atom_site_fract_x
_atom_site_fract_y
_atom_site_fract_z
Si Si1 0.564778 0.454266 0.923459
Si Si2 0.843502 0.196251 0.939917
Si Si3 0.778200 0.196098 0.203730
Si Si4 0.141336 0.454020 0.327989
Si Si5 0.753205 0.102997 0.343440
Si Si6 0.634335 0.566394 0.635322
Si Si7 0.064754 0.621646 0.156141
O O1 0.500000 0.468089 0.883997
O O2 0.595345 0.439128 0.784335
O O3 0.593442 0.500000 0.000000
O O4 0.568037 0.409275 0.020833
O O5 0.866998 0.250000 0.932200
O O6 0.783442 0.191812 0.864408
O O7 0.891847 0.165114 0.866775
O O8 0.829306 0.183206 0.097689
O O9 0.787293 0.250000 0.262009
O O10 0.777639 0.156654 0.322651
O O11 0.203292 0.435222 0.276030
O O12 0.141912 0.510714 0.337166
O O13 0.126713 0.427622 0.471887
O O14 0.750000 0.090205 0.500000
O O15 0.688275 0.093943 0.293659
O O16 0.579867 0.589296 0.711535
O O17 0.000000 0.640922 0.178251
#
# Coordination Sequence:
#
# PCOD8278958 Si02
#       7
#    16  16  16  16  16  16  16
#     4  10  20  34  50  72 102 133 171 218 259 299
#     4   9  18  33  53  76 103 134 170 215 267 315
#     4   9  17  31  53  77 102 133 166 212 267 312
#     4  10  20  34  53  71 101 143 174 208 264 310
#     4  10  19  32  51  74 104 137 171 213 262 313
#     4  10  20  34  50  74 104 136 176 215 252 316
#     4  11  21  34  54  77 104 138 175 219 262 307
#
# _framework density 17.498778000000001
#
# number of rings (size 3 to 8) (size 9 to 14) (size 15 to 20)
#    0.000    2.143    2.857    2.143    0.000    2.857 
#    0.000    1.429    0.000    0.000    0.000    0.000 
#    0.000    2.286    0.000    0.000    0.000    0.000 
#
# Total GULP energy -693998.051896 kJ/mol
# GULP energy per Si atom -12392.822355 kJ/mol
# Density = 1.745895 g / cm^3
# Si number density = 17.498778 Si / 1000 Ang^3
#
#
#
# Elastic Constant Matrix: (Units=GPa)
#
#
# Indices 1 2 3 4 5 6 
#
# 1 93.5376 40.4878 43.9692 0.0000 0.0000 0.0000
# 2 40.4878 81.7265 25.2736 0.0000 0.0000 0.0000
# 3 43.9692 25.2736 72.4206 0.0000 0.0000 0.0000
# 4 0.0000 0.0000 0.0000 25.3841 0.0000 0.0000
# 5 0.0000 0.0000 0.0000 0.0000 24.3907 0.0000
# 6 0.0000 0.0000 0.0000 0.0000 0.0000 20.0275
#
#
#
# Elastic Compliance Matrix: (Units=1/GPa)
#
#
# Indices 1 2 3 4 5 6 
#
# 1 0.017191 -0.005929 -0.008368 0.000000 0.000000 0.000000
# 2 -0.005929 0.015761 -0.001901 0.000000 0.000000 0.000000
# 3 -0.008368 -0.001901 0.019552 0.000000 0.000000 0.000000
# 4 0.000000 0.000000 0.000000 0.039395 0.000000 0.000000
# 5 0.000000 0.000000 0.000000 0.000000 0.040999 0.000000
# 6 0.000000 0.000000 0.000000 0.000000 0.000000 0.049931
#
#
# Mechanical properties :
#
#
# Convention : Reuss Voigt Hill
#
# Bulk Modulus (GPa) = 49.72980 51.90508 50.81744
# Shear Modulus (GPa) = 22.52995 23.15740 22.84368
#
# Velocity S-wave (km/s) = 3.59209 3.64177 3.61701
# Velocity P-wave (km/s) = 6.75906 6.88548 6.82256
#
# Compressibility (1/GPa) = 0.02010867
#
# Stress axis : x y z
#
# Youngs Moduli (GPa) = 58.17111 63.44861 51.14521
#
# Poissons Ratio (x) = 0.37616 0.42799
# Poissons Ratio (y) = 0.34487 0.09722
# Poissons Ratio (z) = 0.48678 0.12060
#
# Static dielectric constant tensor:
#      x y z
#    x 3.412510 0.000000 0.000000 
#    y 0.000000 3.271780 0.000000 
#    z 0.000000 0.000000 3.287130 
# 
# 
# High freq. dielectric constant tensor:
#      x y z
#    x 1.667740 0.000000 0.000000 
#    y 0.000000 1.675120 0.000000 
#    z 0.000000 0.000000 1.664200 
# 
# From -- ./inp_files/22389.got.cif
#   From: 2010.03.12/outbox.cif.g09.slc.cpg/sg67_12_cif.got.tgz:22389.got - 2010.04.10 22:41:39.
