data_PCOD8278244
_publ_section_title
;
Structure prediction by ZEFSAII (Michael W. Deem and Ramdas Pophale) SiO2 
 PCOD8278244
Probable space group: C M M A
;
_chemical_formula_sum "Si O2"
_cell_formula_units_Z 96
_cell_length_a 23.724262
_cell_length_b 16.185728
_cell_length_c 12.442016
_cell_angle_alpha 90.000000
_cell_angle_beta 90.000000
_cell_angle_gamma 90.000000
_cell_volume 4777.665112
_symmetry_space_group_name_H-M "C M M A"
_symmetry_group_IT_number 67
_symmetry_cell_setting 'orthorhombic'
loop_
_space_group_symop_operation_xyz
x,y,z
-x,1/2-y,z
x,-y,-z
-x,1/2+y,-z
-x,-y,-z
x,1/2+y,-z
-x,y,z
x,1/2-y,z
1/2+x,1/2+y,z
1/2-x,-y,z
1/2+x,1/2-y,-z
1/2-x,y,-z
1/2-x,1/2-y,-z
1/2+x,y,-z
1/2-x,1/2+y,z
1/2+x,-y,z
loop_
_atom_site_type_symbol
_atom_site_label
_atom_site_fract_x
_atom_site_fract_y
_atom_site_fract_z
Si Si1 0.562322 0.847205 0.483225
Si Si2 0.435018 0.918025 0.069448
Si Si3 0.258482 0.652155 0.379348
Si Si4 0.126549 0.847787 0.729443
Si Si5 0.637870 0.151385 0.324589
Si Si6 0.438932 0.156488 0.142157
O O1 0.500000 0.885280 0.501702
O O2 0.560002 0.750000 0.501013
O O3 0.581670 0.867265 0.363129
O O4 0.606346 0.884508 0.569758
O O5 0.500000 0.916760 0.110002
O O6 0.392516 0.902133 0.167966
O O7 0.422890 0.845536 0.983279
O O8 0.421141 0.000000 0.000000
O O9 0.265813 0.750000 0.387684
O O10 0.250000 0.616687 0.500000
O O11 0.312874 0.619310 0.314037
O O12 0.202606 0.622596 0.316573
O O13 0.127685 0.750000 0.758151
O O14 0.637599 0.250000 0.328396
O O15 0.606899 0.113735 0.219556
O O16 0.500000 0.111915 0.158402
O O17 0.444218 0.250000 0.180346
#
# Coordination Sequence:
#
# PCOD8278244 Si02
#       6
#    16  16  16  16  16  16
#     4   9  15  22  38  69 104 130 158 205 258 305
#     4  10  21  36  52  70  97 135 175 217 267 313
#     4   9  15  26  44  72 108 138 162 200 257 315
#     4  10  18  29  49  76 104 136 175 215 258 309
#     4   9  15  25  43  70 103 133 161 198 252 309
#     4   9  17  30  50  74  98 127 166 212 259 309
#
# _framework density 20.093495999999998
#
# number of rings (size 3 to 8) (size 9 to 14) (size 15 to 20)
#    0.000    2.667    1.667    1.500    0.000    3.667 
#    0.000    0.833    0.000    7.000    0.000    5.833 
#    0.000    0.000    0.000    0.000    0.000    0.167 
#
# Total GULP energy -594647.037673 kJ/mol
# GULP energy per Si atom -12388.479952 kJ/mol
# Density = 2.004776 g / cm^3
# Si number density = 20.093496 Si / 1000 Ang^3
#
#
#
# Elastic Constant Matrix: (Units=GPa)
#
#
# Indices 1 2 3 4 5 6 
#
# 1 175.2066 18.3000 90.9958 0.0000 0.0000 0.0000
# 2 18.3000 22.8955 18.9021 0.0000 0.0000 0.0000
# 3 90.9958 18.9021 139.2720 0.0000 0.0000 0.0000
# 4 0.0000 0.0000 0.0000 14.3966 0.0000 0.0000
# 5 0.0000 0.0000 0.0000 0.0000 40.2908 0.0000
# 6 0.0000 0.0000 0.0000 0.0000 0.0000 7.7976
#
#
#
# Elastic Compliance Matrix: (Units=1/GPa)
#
#
# Indices 1 2 3 4 5 6 
#
# 1 0.008771 -0.002567 -0.005382 0.000000 0.000000 0.000000
# 2 -0.002567 0.049940 -0.005101 0.000000 0.000000 0.000000
# 3 -0.005382 -0.005101 0.011389 0.000000 0.000000 0.000000
# 4 0.000000 0.000000 0.000000 0.069461 0.000000 0.000000
# 5 0.000000 0.000000 0.000000 0.000000 0.024820 0.000000
# 6 0.000000 0.000000 0.000000 0.000000 0.000000 0.128244
#
#
# Mechanical properties :
#
#
# Convention : Reuss Voigt Hill
#
# Bulk Modulus (GPa) = 22.72740 65.97443 44.35091
# Shear Modulus (GPa) = 14.99740 26.44207 20.71974
#
# Velocity S-wave (km/s) = 2.73496 3.63154 3.21466
# Velocity P-wave (km/s) = 4.61614 7.10557 5.99157
#
# Compressibility (1/GPa) = 0.04399976
#
# Stress axis : x y z
#
# Youngs Moduli (GPa) = 114.01150 20.02421 87.80334
#
# Poissons Ratio (x) = 0.05140 0.47259
# Poissons Ratio (y) = 0.29267 0.44785
# Poissons Ratio (z) = 0.61365 0.10214
#
# Static dielectric constant tensor:
#      x y z
#    x 3.976560 0.000000 0.000000 
#    y 0.000000 3.131500 0.000000 
#    z 0.000000 0.000000 3.754830 
# 
# 
# High freq. dielectric constant tensor:
#      x y z
#    x 1.786770 0.000000 0.000000 
#    y 0.000000 1.730190 0.000000 
#    z 0.000000 0.000000 1.783360 
# 
# From -- ./inp_files/19664.got.cif
#   From: 2010.03.12/outbox.cif.g09.slc.cpg/sg67_10_cif.got.tgz:19664.got - 2010.04.10 22:41:39.
