data_PCOD8278951
_publ_section_title
;
Structure prediction by ZEFSAII (Michael W. Deem and Ramdas Pophale) SiO2 
 PCOD8278951
Probable space group: C M M A
;
_chemical_formula_sum "Si O2"
_cell_formula_units_Z 96
_cell_length_a 18.327698
_cell_length_b 8.659350
_cell_length_c 31.013236
_cell_angle_alpha 90.000000
_cell_angle_beta 90.000000
_cell_angle_gamma 90.000000
_cell_volume 4921.985134
_symmetry_space_group_name_H-M "C M M A"
_symmetry_group_IT_number 67
_symmetry_cell_setting 'orthorhombic'
loop_
_space_group_symop_operation_xyz
x,y,z
-x,1/2-y,z
x,-y,-z
-x,1/2+y,-z
-x,-y,-z
x,1/2+y,-z
-x,y,z
x,1/2-y,z
1/2+x,1/2+y,z
1/2-x,-y,z
1/2+x,1/2-y,-z
1/2-x,y,-z
1/2-x,1/2-y,-z
1/2+x,y,-z
1/2-x,1/2+y,z
1/2+x,-y,z
loop_
_atom_site_type_symbol
_atom_site_label
_atom_site_fract_x
_atom_site_fract_y
_atom_site_fract_z
Si Si1 0.169706 0.433559 0.709736
Si Si2 0.918305 0.433519 0.627303
Si Si3 0.581999 0.433646 0.207372
Si Si4 0.170755 0.933297 0.455083
Si Si5 0.170224 0.567052 0.124627
Si Si6 0.416233 0.431452 0.954078
O O1 0.173879 0.250000 0.709587
O O2 0.250000 0.500000 0.711044
O O3 0.128847 0.496917 0.667262
O O4 0.125660 0.495482 0.751159
O O5 0.920558 0.250000 0.629105
O O6 0.882842 0.489692 0.582633
O O7 0.000000 0.501323 0.630324
O O8 0.500000 0.501060 0.208415
O O9 0.579631 0.250000 0.208012
O O10 0.621399 0.493914 0.164289
O O11 0.175868 0.750000 0.458091
O O12 0.140043 0.000000 0.500000
O O13 0.250000 0.000000 0.444794
O O14 0.174540 0.750000 0.123940
O O15 0.250000 0.500000 0.130686
O O16 0.135492 0.509285 0.080586
O O17 0.500000 0.472746 0.943248
O O18 0.402721 0.250000 0.954624
O O19 0.393643 0.500000 0.000000
#
# Coordination Sequence:
#
# PCOD8278951 Si02
#       6
#    16  16  16  16  16  16
#     4  10  19  33  55  79 105 136 171 213 258 308
#     4   9  18  32  51  75 101 132 172 214 255 303
#     4   9  18  33  55  81 106 137 178 219 260 310
#     4  10  19  32  51  73  99 131 168 211 257 308
#     4  11  22  36  55  80 112 146 182 223 266 316
#     4  10  21  38  60  85 112 143 181 224 271 322
#
# _framework density 19.504327
#
# number of rings (size 3 to 8) (size 9 to 14) (size 15 to 20)
#    0.000    2.167    0.000    4.000    0.000    4.333 
#    0.000    3.333    0.000    7.500    0.000    0.000 
#    0.000    0.000    0.000    0.000    0.000    0.000 
#
# Total GULP energy -595311.843727 kJ/mol
# GULP energy per Si atom -12402.330078 kJ/mol
# Density = 1.945993 g / cm^3
# Si number density = 19.504327 Si / 1000 Ang^3
#
#
#
# Elastic Constant Matrix: (Units=GPa)
#
#
# Indices 1 2 3 4 5 6 
#
# 1 183.5342 32.6782 114.4929 0.0000 0.0000 0.0000
# 2 32.6782 49.3214 36.1782 0.0000 0.0000 0.0000
# 3 114.4929 36.1782 182.6399 0.0000 0.0000 0.0000
# 4 0.0000 0.0000 0.0000 19.9689 0.0000 0.0000
# 5 0.0000 0.0000 0.0000 0.0000 45.6275 0.0000
# 6 0.0000 0.0000 0.0000 0.0000 0.0000 25.2761
#
#
#
# Elastic Compliance Matrix: (Units=1/GPa)
#
#
# Indices 1 2 3 4 5 6 
#
# 1 0.009142 -0.002168 -0.005301 0.000000 0.000000 0.000000
# 2 -0.002168 0.024236 -0.003442 0.000000 0.000000 0.000000
# 3 -0.005301 -0.003442 0.009480 0.000000 0.000000 0.000000
# 4 0.000000 0.000000 0.000000 0.050078 0.000000 0.000000
# 5 0.000000 0.000000 0.000000 0.000000 0.021917 0.000000
# 6 0.000000 0.000000 0.000000 0.000000 0.000000 0.039563
#
#
# Mechanical properties :
#
#
# Convention : Reuss Voigt Hill
#
# Bulk Modulus (GPa) = 47.53774 86.91048 67.22411
# Shear Modulus (GPa) = 27.28518 33.65093 30.46805
#
# Velocity S-wave (km/s) = 3.74428 4.15819 3.95665
# Velocity P-wave (km/s) = 6.56648 8.22863 7.44409
#
# Compressibility (1/GPa) = 0.02103592
#
# Stress axis : x y z
#
# Youngs Moduli (GPa) = 109.38954 41.26052 105.48338
#
# Poissons Ratio (x) = 0.08947 0.55919
# Poissons Ratio (y) = 0.23719 0.36303
# Poissons Ratio (z) = 0.57989 0.14200
#
# Static dielectric constant tensor:
#      x y z
#    x 3.439000 0.000000 0.000000 
#    y 0.000000 3.275470 0.000000 
#    z 0.000000 0.000000 3.840760 
# 
# 
# High freq. dielectric constant tensor:
#      x y z
#    x 1.768750 0.000000 0.000000 
#    y 0.000000 1.731160 0.000000 
#    z 0.000000 0.000000 1.779260 
# 
# From -- ./inp_files/44627.got.cif
#   From: 2010.03.12/outbox.cif.g09.slc.cpg/sg67_23_cif.got.tgz:44627.got - 2010.04.10 22:41:39.
