data_PCOD8278435
_publ_section_title
;
Structure prediction by ZEFSAII (Michael W. Deem and Ramdas Pophale) SiO2 
 PCOD8278435
Probable space group: C M M A
;
_chemical_formula_sum "Si O2"
_cell_formula_units_Z 112
_cell_length_a 27.625220
_cell_length_b 14.263860
_cell_length_c 12.776191
_cell_angle_alpha 90.000000
_cell_angle_beta 90.000000
_cell_angle_gamma 90.000000
_cell_volume 5034.359311
_symmetry_space_group_name_H-M "C M M A"
_symmetry_group_IT_number 67
_symmetry_cell_setting 'orthorhombic'
loop_
_space_group_symop_operation_xyz
x,y,z
-x,1/2-y,z
x,-y,-z
-x,1/2+y,-z
-x,-y,-z
x,1/2+y,-z
-x,y,z
x,1/2-y,z
1/2+x,1/2+y,z
1/2-x,-y,z
1/2+x,1/2-y,-z
1/2-x,y,-z
1/2-x,1/2-y,-z
1/2+x,y,-z
1/2-x,1/2+y,z
1/2+x,-y,z
loop_
_atom_site_type_symbol
_atom_site_label
_atom_site_fract_x
_atom_site_fract_y
_atom_site_fract_z
Si Si1 0.054067 0.360821 0.536182
Si Si2 0.699133 0.516697 0.290581
Si Si3 0.116446 0.138334 0.341533
Si Si4 0.703987 0.092515 0.937832
Si Si5 0.378417 0.361532 0.273607
Si Si6 0.602521 0.353029 0.887735
Si Si7 0.946448 0.637921 0.086906
O O1 0.050119 0.250000 0.539751
O O2 0.076499 0.393798 0.425399
O O3 0.089331 0.394596 0.627913
O O4 0.000000 0.403930 0.547834
O O5 0.750000 0.500000 0.350629
O O6 0.667527 0.587075 0.363211
O O7 0.715369 0.566368 0.181963
O O8 0.671819 0.417538 0.273524
O O9 0.124630 0.250000 0.342695
O O10 0.101113 0.097755 0.226334
O O11 0.656641 0.157710 0.936204
O O12 0.750000 0.139409 0.000000
O O13 0.689389 0.000000 0.000000
O O14 0.367871 0.250000 0.275467
O O15 0.408061 0.395409 0.172309
O O16 0.581523 0.250000 0.868445
O O17 0.568410 0.404507 0.972835
O O18 0.945098 0.750000 0.081796
O O19 0.000000 0.602362 0.116784
#
# Coordination Sequence:
#
# PCOD8278435 Si02
#       7
#    16  16  16  16  16  16  16
#     4   9  18  37  65  89 113 153 197 238 288 342
#     4  11  22  37  58  83 113 152 191 236 295 343
#     4   9  20  38  58  84 117 149 189 239 285 341
#     4  10  18  32  52  73 104 146 188 232 280 330
#     4  10  21  37  58  85 116 148 193 243 286 339
#     4   9  18  31  50  79 111 144 182 229 284 345
#     4   9  17  30  51  80 115 150 181 225 289 351
#
# _framework density 22.247119999999999
#
# number of rings (size 3 to 8) (size 9 to 14) (size 15 to 20)
#    0.000    2.429    1.429    1.286    0.000    3.714 
#    0.000    6.429    0.000   12.000    0.000    0.000 
#    0.000    0.000    0.000    0.000    0.000    0.000 
#
# Total GULP energy -693892.104380 kJ/mol
# GULP energy per Si atom -12390.930435 kJ/mol
# Density = 2.219649 g / cm^3
# Si number density = 22.247120 Si / 1000 Ang^3
#
#
#
# Elastic Constant Matrix: (Units=GPa)
#
#
# Indices 1 2 3 4 5 6 
#
# 1 163.4702 21.2194 57.8252 0.0000 0.0000 0.0000
# 2 21.2194 26.2297 3.4248 0.0000 0.0000 0.0000
# 3 57.8252 3.4248 114.2863 0.0000 0.0000 0.0000
# 4 0.0000 0.0000 0.0000 5.7770 0.0000 0.0000
# 5 0.0000 0.0000 0.0000 0.0000 29.9801 0.0000
# 6 0.0000 0.0000 0.0000 0.0000 0.0000 27.0458
#
#
#
# Elastic Compliance Matrix: (Units=1/GPa)
#
#
# Indices 1 2 3 4 5 6 
#
# 1 0.008356 -0.006232 -0.004041 0.000000 0.000000 0.000000
# 2 -0.006232 0.042923 0.001867 0.000000 0.000000 0.000000
# 3 -0.004041 0.001867 0.010739 0.000000 0.000000 0.000000
# 4 0.000000 0.000000 0.000000 0.173099 0.000000 0.000000
# 5 0.000000 0.000000 0.000000 0.000000 0.033355 0.000000
# 6 0.000000 0.000000 0.000000 0.000000 0.000000 0.036974
#
#
# Mechanical properties :
#
#
# Convention : Reuss Voigt Hill
#
# Bulk Modulus (GPa) = 22.12152 52.10276 37.11214
# Shear Modulus (GPa) = 14.82246 27.32838 21.07542
#
# Velocity S-wave (km/s) = 2.58401 3.50866 3.08122
# Velocity P-wave (km/s) = 4.34372 6.31546 5.42001
#
# Compressibility (1/GPa) = 0.04520485
#
# Stress axis : x y z
#
# Youngs Moduli (GPa) = 119.67863 23.29775 93.12191
#
# Poissons Ratio (x) = 0.14519 0.37630
# Poissons Ratio (y) = 0.74584 -0.17385
# Poissons Ratio (z) = 0.48362 -0.04350
#
# Static dielectric constant tensor:
#      x y z
#    x 4.198380 0.000000 0.000000 
#    y 0.000000 3.661530 0.000000 
#    z 0.000000 0.000000 4.135680 
# 
# 
# High freq. dielectric constant tensor:
#      x y z
#    x 1.872100 0.000000 0.000000 
#    y 0.000000 1.860370 0.000000 
#    z 0.000000 0.000000 1.869760 
# 
# From -- ./inp_files/23788.got.cif
#   From: 2010.03.12/outbox.cif.g09.slc.cpg/sg67_12_cif.got.tgz:23788.got - 2010.04.10 22:41:39.
