data_PCOD8278622
_publ_section_title
;
Structure prediction by ZEFSAII (Michael W. Deem and Ramdas Pophale) SiO2 
 PCOD8278622
Probable space group: C M M A
;
_chemical_formula_sum "Si O2"
_cell_formula_units_Z 120
_cell_length_a 8.978403
_cell_length_b 27.063252
_cell_length_c 28.912072
_cell_angle_alpha 90.000000
_cell_angle_beta 90.000000
_cell_angle_gamma 90.000000
_cell_volume 7025.193539
_symmetry_space_group_name_H-M "C M M A"
_symmetry_group_IT_number 67
_symmetry_cell_setting 'orthorhombic'
loop_
_space_group_symop_operation_xyz
x,y,z
-x,1/2-y,z
x,-y,-z
-x,1/2+y,-z
-x,-y,-z
x,1/2+y,-z
-x,y,z
x,1/2-y,z
1/2+x,1/2+y,z
1/2-x,-y,z
1/2+x,1/2-y,-z
1/2-x,y,-z
1/2-x,1/2-y,-z
1/2+x,y,-z
1/2-x,1/2+y,z
1/2+x,-y,z
loop_
_atom_site_type_symbol
_atom_site_label
_atom_site_fract_x
_atom_site_fract_y
_atom_site_fract_z
Si Si1 0.667683 0.808671 0.954855
Si Si2 0.823841 0.447955 0.275830
Si Si3 0.324301 0.692869 0.138875
Si Si4 0.828998 0.860055 0.222946
Si Si5 0.171920 0.609400 0.634531
Si Si6 0.673378 0.357916 0.450402
Si Si7 0.169669 0.750000 0.452472
Si Si8 0.331944 0.806654 0.684556
O O1 0.500000 0.829951 0.952395
O O2 0.663187 0.750000 0.958159
O O3 0.758982 0.825414 0.909879
O O4 0.750000 0.830606 0.000000
O O5 0.750000 0.500000 0.264936
O O6 0.752993 0.408921 0.240846
O O7 0.787000 0.433721 0.329180
O O8 0.000000 0.449886 0.267577
O O9 0.500000 0.685023 0.138412
O O10 0.282442 0.750000 0.148116
O O11 0.252370 0.658714 0.177530
O O12 0.819149 0.816686 0.260841
O O13 0.000000 0.873114 0.211613
O O14 0.262314 0.602811 0.586532
O O15 0.211330 0.661438 0.657763
O O16 0.000000 0.609059 0.621565
O O17 0.500000 0.368063 0.457329
O O18 0.750000 0.364639 0.500000
O O19 0.705701 0.302654 0.427870
O O20 0.250000 0.750000 0.500000
O O21 0.000000 0.750000 0.466509
O O22 0.500000 0.819777 0.667392
O O23 0.295225 0.750000 0.674319
#
# Coordination Sequence:
#
# PCOD8278622 Si02
#       8
#    16  16  16  16  16  16   8  16
#     4   9  16  26  40  59  87 127 175 220 257 294
#     4  10  21  38  58  77  98 122 154 196 244 296
#     4  10  19  29  43  66  99 138 175 212 252 293
#     4  10  19  32  50  72  97 126 162 201 245 295
#     4  10  21  34  49  73  98 123 156 192 232 280
#     4  10  19  32  49  69  96 128 160 193 228 269
#     4   8  16  28  42  62  88 122 158 188 216 252
#     4   9  18  31  46  65  93 128 162 194 228 273
#
# _framework density 17.081379999999999
#
# number of rings (size 3 to 8) (size 9 to 14) (size 15 to 20)
#    0.000    2.400    0.000    2.800    0.933    5.867 
#    0.000    0.000    0.000    0.400    0.000    2.800 
#    0.000    0.533    0.000    5.333    0.000    3.467 
#
# Total GULP energy -743765.127410 kJ/mol
# GULP energy per Si atom -12396.085457 kJ/mol
# Density = 1.704250 g / cm^3
# Si number density = 17.081380 Si / 1000 Ang^3
#
#
#
# Elastic Constant Matrix: (Units=GPa)
#
#
# Indices 1 2 3 4 5 6 
#
# 1 108.6364 36.4138 61.0023 0.0000 0.0000 0.0000
# 2 36.4138 55.8226 28.2406 0.0000 0.0000 0.0000
# 3 61.0023 28.2406 107.6039 0.0000 0.0000 0.0000
# 4 0.0000 0.0000 0.0000 8.8298 0.0000 0.0000
# 5 0.0000 0.0000 0.0000 0.0000 35.6479 0.0000
# 6 0.0000 0.0000 0.0000 0.0000 0.0000 21.7180
#
#
#
# Elastic Compliance Matrix: (Units=1/GPa)
#
#
# Indices 1 2 3 4 5 6 
#
# 1 0.015278 -0.006439 -0.006971 0.000000 0.000000 0.000000
# 2 -0.006439 0.023370 -0.002483 0.000000 0.000000 0.000000
# 3 -0.006971 -0.002483 0.013897 0.000000 0.000000 0.000000
# 4 0.000000 0.000000 0.000000 0.113252 0.000000 0.000000
# 5 0.000000 0.000000 0.000000 0.000000 0.028052 0.000000
# 6 0.000000 0.000000 0.000000 0.000000 0.000000 0.046045
#
#
# Mechanical properties :
#
#
# Convention : Reuss Voigt Hill
#
# Bulk Modulus (GPa) = 48.17340 58.15291 53.16315
# Shear Modulus (GPa) = 17.94678 22.99957 20.47318
#
# Velocity S-wave (km/s) = 3.24491 3.67341 3.46579
# Velocity P-wave (km/s) = 6.50406 7.21876 6.87071
#
# Compressibility (1/GPa) = 0.02075834
#
# Stress axis : x y z
#
# Youngs Moduli (GPa) = 65.45374 42.78906 71.95700
#
# Poissons Ratio (x) = 0.27553 0.50164
# Poissons Ratio (y) = 0.42147 0.17868
# Poissons Ratio (z) = 0.45630 0.10625
#
# Static dielectric constant tensor:
#      x y z
#    x 3.318410 0.000000 0.000000 
#    y 0.000000 2.854080 0.000000 
#    z 0.000000 0.000000 3.199460 
# 
# 
# High freq. dielectric constant tensor:
#      x y z
#    x 1.676280 0.000000 0.000000 
#    y 0.000000 1.611070 0.000000 
#    z 0.000000 0.000000 1.660260 
# 
# From -- ./inp_files/43895.got.cif
#   From: 2010.03.12/outbox.cif.g09.slc.cpg/sg67_22_cif.got.tgz:43895.got - 2010.04.10 22:41:39.
