data_PCOD8278946
_publ_section_title
;
Structure prediction by ZEFSAII (Michael W. Deem and Ramdas Pophale) SiO2 
 PCOD8278946
Probable space group: C M M A
;
_chemical_formula_sum "Si O2"
_cell_formula_units_Z 80
_cell_length_a 19.375883
_cell_length_b 8.849271
_cell_length_c 25.450480
_cell_angle_alpha 90.000000
_cell_angle_beta 90.000000
_cell_angle_gamma 90.000000
_cell_volume 4363.801388
_symmetry_space_group_name_H-M "C M M A"
_symmetry_group_IT_number 67
_symmetry_cell_setting 'orthorhombic'
loop_
_space_group_symop_operation_xyz
x,y,z
-x,1/2-y,z
x,-y,-z
-x,1/2+y,-z
-x,-y,-z
x,1/2+y,-z
-x,y,z
x,1/2-y,z
1/2+x,1/2+y,z
1/2-x,-y,z
1/2+x,1/2-y,-z
1/2-x,y,-z
1/2-x,1/2-y,-z
1/2+x,y,-z
1/2-x,1/2+y,z
1/2+x,-y,z
loop_
_atom_site_type_symbol
_atom_site_label
_atom_site_fract_x
_atom_site_fract_y
_atom_site_fract_z
Si Si1 0.422686 0.429099 0.351570
Si Si2 0.178486 0.928175 0.143338
Si Si3 0.578262 0.928425 0.946790
Si Si4 0.677186 0.930127 0.555456
Si Si5 0.677811 0.928575 0.738156
O O1 0.500000 0.498694 0.352833
O O2 0.427372 0.250000 0.349414
O O3 0.381134 0.479840 0.403227
O O4 0.382722 0.488887 0.299864
O O5 0.186337 0.750000 0.140106
O O6 0.120279 0.987861 0.103563
O O7 0.158678 0.978470 0.202501
O O8 0.250000 0.000000 0.125307
O O9 0.500000 0.983365 0.938511
O O10 0.583346 0.750000 0.952009
O O11 0.609194 0.000000 0.000000
O O12 0.684656 0.750000 0.551000
O O13 0.654405 0.000000 0.500000
O O14 0.750000 0.000000 0.573790
O O15 0.686040 0.750000 0.733236
O O16 0.750000 0.000000 0.720170
#
# Coordination Sequence:
#
# PCOD8278946 Si02
#       5
#    16  16  16  16  16
#     4   9  18  31  48  72  98 123 154 192 233 275
#     4   9  18  31  48  71  95 120 152 191 233 274
#     4   9  18  32  48  67  92 122 156 191 228 273
#     4  10  19  32  51  72  95 124 158 194 230 273
#     4   9  17  31  51  71  93 122 154 190 231 275
#
# _framework density 18.332640000000001
#
# number of rings (size 3 to 8) (size 9 to 14) (size 15 to 20)
#    0.000    2.800    0.000    1.800    0.000    2.400 
#    0.000    7.000    0.000    4.800    0.000    5.600 
#    0.000    0.000    0.000    0.000    0.000    0.000 
#
# Total GULP energy -495945.322570 kJ/mol
# GULP energy per Si atom -12398.633064 kJ/mol
# Density = 1.829091 g / cm^3
# Si number density = 18.332640 Si / 1000 Ang^3
#
#
#
# Elastic Constant Matrix: (Units=GPa)
#
#
# Indices 1 2 3 4 5 6 
#
# 1 155.2624 25.9525 110.2617 0.0000 0.0000 0.0000
# 2 25.9525 27.4375 27.4416 0.0000 0.0000 0.0000
# 3 110.2617 27.4416 152.9998 0.0000 0.0000 0.0000
# 4 0.0000 0.0000 0.0000 20.6219 0.0000 0.0000
# 5 0.0000 0.0000 0.0000 0.0000 33.7976 0.0000
# 6 0.0000 0.0000 0.0000 0.0000 0.0000 23.3230
#
#
#
# Elastic Compliance Matrix: (Units=1/GPa)
#
#
# Indices 1 2 3 4 5 6 
#
# 1 0.013494 -0.003702 -0.009061 0.000000 0.000000 0.000000
# 2 -0.003702 0.045429 -0.005480 0.000000 0.000000 0.000000
# 3 -0.009061 -0.005480 0.014049 0.000000 0.000000 0.000000
# 4 0.000000 0.000000 0.000000 0.048492 0.000000 0.000000
# 5 0.000000 0.000000 0.000000 0.000000 0.029588 0.000000
# 6 0.000000 0.000000 0.000000 0.000000 0.000000 0.042876
#
#
# Mechanical properties :
#
#
# Convention : Reuss Voigt Hill
#
# Bulk Modulus (GPa) = 27.40764 73.66792 50.53778
# Shear Modulus (GPa) = 20.61212 27.01810 23.81511
#
# Velocity S-wave (km/s) = 3.35676 3.84314 3.60815
# Velocity P-wave (km/s) = 5.47781 7.74365 6.70711
#
# Compressibility (1/GPa) = 0.03648617
#
# Stress axis : x y z
#
# Youngs Moduli (GPa) = 74.10639 22.01238 71.18084
#
# Poissons Ratio (x) = 0.08148 0.64496
# Poissons Ratio (y) = 0.27431 0.39010
# Poissons Ratio (z) = 0.67147 0.12064
#
# Static dielectric constant tensor:
#      x y z
#    x 3.632390 0.000000 0.000000 
#    y 0.000000 3.122930 0.000000 
#    z 0.000000 0.000000 3.661180 
# 
# 
# High freq. dielectric constant tensor:
#      x y z
#    x 1.707380 0.000000 0.000000 
#    y 0.000000 1.685460 0.000000 
#    z 0.000000 0.000000 1.723710 
# 
# From -- ./inp_files/43226.got.cif
#   From: 2010.03.12/outbox.cif.g09.slc.cpg/sg67_22_cif.got.tgz:43226.got - 2010.04.10 22:41:39.
