data_PCOD8278305
_publ_section_title
;
Structure prediction by ZEFSAII (Michael W. Deem and Ramdas Pophale) SiO2 
 PCOD8278305
Probable space group: C M M A
;
_chemical_formula_sum "Si O2"
_cell_formula_units_Z 80
_cell_length_a 26.183800
_cell_length_b 8.740006
_cell_length_c 19.440257
_cell_angle_alpha 90.000000
_cell_angle_beta 90.000000
_cell_angle_gamma 90.000000
_cell_volume 4448.836117
_symmetry_space_group_name_H-M "C M M A"
_symmetry_group_IT_number 67
_symmetry_cell_setting 'orthorhombic'
loop_
_space_group_symop_operation_xyz
x,y,z
-x,1/2-y,z
x,-y,-z
-x,1/2+y,-z
-x,-y,-z
x,1/2+y,-z
-x,y,z
x,1/2-y,z
1/2+x,1/2+y,z
1/2-x,-y,z
1/2+x,1/2-y,-z
1/2-x,y,-z
1/2-x,1/2-y,-z
1/2+x,y,-z
1/2-x,1/2+y,z
1/2+x,-y,z
loop_
_atom_site_type_symbol
_atom_site_label
_atom_site_fract_x
_atom_site_fract_y
_atom_site_fract_z
Si Si1 0.603162 0.567777 0.424542
Si Si2 0.802777 0.931294 0.824283
Si Si3 0.889880 0.431082 0.075339
Si Si4 0.500000 0.571420 0.073619
Si Si5 0.697287 0.930293 0.331595
Si Si6 0.500000 0.432650 0.423824
O O1 0.611905 0.500000 0.500000
O O2 0.598125 0.750000 0.428552
O O3 0.650513 0.513294 0.378273
O O4 0.551805 0.497815 0.389101
O O5 0.799911 0.750000 0.828030
O O6 0.847912 0.996728 0.872194
O O7 0.812819 0.987030 0.746283
O O8 0.750000 0.000000 0.852447
O O9 0.884564 0.250000 0.068442
O O10 0.945842 0.476645 0.108266
O O11 0.881295 0.500000 0.000000
O O12 0.500000 0.750000 0.063071
O O13 0.500000 0.500000 0.000000
O O14 0.702527 0.750000 0.334803
O O15 0.750000 0.000000 0.360423
O O16 0.500000 0.250000 0.423607
O O17 0.500000 0.500000 0.500000
#
# Coordination Sequence:
#
# PCOD8278305 Si02
#       6
#    16  16  16   8  16   8
#     4  10  19  32  50  73  98 125 158 197 237 281
#     4   9  18  33  49  67  91 122 156 190 228 274
#     4   9  17  29  47  69  93 118 151 189 228 272
#     4   8  14  26  43  64  88 116 144 178 222 266
#     4   9  19  34  51  69  93 125 160 195 236 282
#     4  10  18  30  49  72  98 128 158 192 235 282
#
# _framework density 17.982232
#
# number of rings (size 3 to 8) (size 9 to 14) (size 15 to 20)
#    0.000    2.800    0.000    2.700    0.000    3.200 
#    0.000    5.000    0.000    4.800    0.000    5.600 
#    0.000    0.000    0.000    0.000    0.000    0.000 
#
# Total GULP energy -495655.965224 kJ/mol
# GULP energy per Si atom -12391.399131 kJ/mol
# Density = 1.794130 g / cm^3
# Si number density = 17.982232 Si / 1000 Ang^3
#
#
#
# Elastic Constant Matrix: (Units=GPa)
#
#
# Indices 1 2 3 4 5 6 
#
# 1 220.0723 43.7955 84.8258 0.0000 0.0000 0.0000
# 2 43.7955 43.2254 21.3210 0.0000 0.0000 0.0000
# 3 84.8258 21.3210 70.6011 0.0000 0.0000 0.0000
# 4 0.0000 0.0000 0.0000 20.0981 0.0000 0.0000
# 5 0.0000 0.0000 0.0000 0.0000 17.2601 0.0000
# 6 0.0000 0.0000 0.0000 0.0000 0.0000 30.2981
#
#
#
# Elastic Compliance Matrix: (Units=1/GPa)
#
#
# Indices 1 2 3 4 5 6 
#
# 1 0.009160 -0.004526 -0.009638 0.000000 0.000000 0.000000
# 2 -0.004526 0.029421 -0.003446 0.000000 0.000000 0.000000
# 3 -0.009638 -0.003446 0.026785 0.000000 0.000000 0.000000
# 4 0.000000 0.000000 0.000000 0.049756 0.000000 0.000000
# 5 0.000000 0.000000 0.000000 0.000000 0.057937 0.000000
# 6 0.000000 0.000000 0.000000 0.000000 0.000000 0.033005
#
#
# Mechanical properties :
#
#
# Convention : Reuss Voigt Hill
#
# Bulk Modulus (GPa) = 33.17491 70.42036 51.79763
# Shear Modulus (GPa) = 19.89384 25.79502 22.84443
#
# Velocity S-wave (km/s) = 3.32973 3.79155 3.56812
# Velocity P-wave (km/s) = 5.76815 7.64290 6.77073
#
# Compressibility (1/GPa) = 0.03014326
#
# Stress axis : x y z
#
# Youngs Moduli (GPa) = 109.17247 33.98977 37.33414
#
# Poissons Ratio (x) = 0.15385 0.35984
# Poissons Ratio (y) = 0.49417 0.12866
# Poissons Ratio (z) = 1.05224 0.11714
#
# Static dielectric constant tensor:
#      x y z
#    x 4.202020 0.000000 0.000000 
#    y 0.000000 3.105370 0.000000 
#    z 0.000000 0.000000 3.181550 
# 
# 
# High freq. dielectric constant tensor:
#      x y z
#    x 1.721760 0.000000 0.000000 
#    y 0.000000 1.691880 0.000000 
#    z 0.000000 0.000000 1.660540 
# 
# From -- ./inp_files/39517.got.cif
#   From: 2010.03.12/outbox.cif.g09.slc.cpg/sg67_20_cif.got.tgz:39517.got - 2010.04.10 22:41:39.
