data_PCOD8278563
_publ_section_title
;
Structure prediction by ZEFSAII (Michael W. Deem and Ramdas Pophale) SiO2 
 PCOD8278563
Probable space group: C M M A
;
_chemical_formula_sum "Si O2"
_cell_formula_units_Z 88
_cell_length_a 27.140618
_cell_length_b 8.850982
_cell_length_c 19.110072
_cell_angle_alpha 90.000000
_cell_angle_beta 90.000000
_cell_angle_gamma 90.000000
_cell_volume 4590.642926
_symmetry_space_group_name_H-M "C M M A"
_symmetry_group_IT_number 67
_symmetry_cell_setting 'orthorhombic'
loop_
_space_group_symop_operation_xyz
x,y,z
-x,1/2-y,z
x,-y,-z
-x,1/2+y,-z
-x,-y,-z
x,1/2+y,-z
-x,y,z
x,1/2-y,z
1/2+x,1/2+y,z
1/2-x,-y,z
1/2+x,1/2-y,-z
1/2-x,y,-z
1/2-x,1/2-y,-z
1/2+x,y,-z
1/2-x,1/2+y,z
1/2+x,-y,z
loop_
_atom_site_type_symbol
_atom_site_label
_atom_site_fract_x
_atom_site_fract_y
_atom_site_fract_z
Si Si1 0.400978 0.428677 0.157242
Si Si2 0.446806 0.072955 0.296856
Si Si3 0.500000 0.571234 0.924348
Si Si4 0.698345 0.071907 0.823931
Si Si5 0.884435 0.073057 0.573739
Si Si6 0.800108 0.427732 0.337376
O O1 0.393282 0.250000 0.150510
O O2 0.409766 0.485918 0.237114
O O3 0.449399 0.481756 0.113906
O O4 0.349431 0.507659 0.133490
O O5 0.500000 0.995410 0.286835
O O6 0.451860 0.250000 0.284140
O O7 0.429815 0.037494 0.375145
O O8 0.500000 0.750000 0.929605
O O9 0.500000 0.500000 0.000000
O O10 0.701746 0.250000 0.835567
O O11 0.690143 0.026033 0.742994
O O12 0.750000 0.000000 0.851167
O O13 0.874607 0.250000 0.564766
O O14 0.897427 0.000000 0.500000
O O15 0.838233 0.996067 0.608914
O O16 0.798645 0.250000 0.346209
O O17 0.750000 0.500000 0.363478
#
# Coordination Sequence:
#
# PCOD8278563 Si02
#       6
#    16  16   8  16  16  16
#     4  10  18  34  60  87 115 153 196 233 275 333
#     4   9  17  32  55  79 102 136 185 230 274 330
#     4  10  22  38  62  94 129 162 192 229 276 335
#     4  10  20  33  54  85 118 150 188 239 289 338
#     4  11  22  35  52  72 101 140 182 232 285 337
#     4  10  20  34  52  75 104 136 178 227 282 338
#
# _framework density 19.169429000000001
#
# number of rings (size 3 to 8) (size 9 to 14) (size 15 to 20)
#    0.000    2.000    2.727    1.636    0.000    2.909 
#    0.000    1.818    0.000    4.364    0.000    3.818 
#    0.000    0.000    0.000    0.000    0.000    0.000 
#
# Total GULP energy -545331.910900 kJ/mol
# GULP energy per Si atom -12393.907066 kJ/mol
# Density = 1.912580 g / cm^3
# Si number density = 19.169429 Si / 1000 Ang^3
#
#
#
# Elastic Constant Matrix: (Units=GPa)
#
#
# Indices 1 2 3 4 5 6 
#
# 1 169.1744 48.5968 34.2284 0.0000 0.0000 0.0000
# 2 48.5968 60.6748 31.5413 0.0000 0.0000 0.0000
# 3 34.2284 31.5413 54.1831 0.0000 0.0000 0.0000
# 4 0.0000 0.0000 0.0000 24.7036 0.0000 0.0000
# 5 0.0000 0.0000 0.0000 0.0000 96.2207 0.0000
# 6 0.0000 0.0000 0.0000 0.0000 0.0000 28.3761
#
#
#
# Elastic Compliance Matrix: (Units=1/GPa)
#
#
# Indices 1 2 3 4 5 6 
#
# 1 0.007805 -0.005289 -0.001852 0.000000 0.000000 0.000000
# 2 -0.005289 0.027216 -0.012502 0.000000 0.000000 0.000000
# 3 -0.001852 -0.012502 0.026904 0.000000 0.000000 0.000000
# 4 0.000000 0.000000 0.000000 0.040480 0.000000 0.000000
# 5 0.000000 0.000000 0.000000 0.000000 0.010393 0.000000
# 6 0.000000 0.000000 0.000000 0.000000 0.000000 0.035241
#
#
# Mechanical properties :
#
#
# Convention : Reuss Voigt Hill
#
# Bulk Modulus (GPa) = 44.17098 56.97392 50.57245
# Shear Modulus (GPa) = 25.65797 41.17114 33.41455
#
# Velocity S-wave (km/s) = 3.66250 4.63941 4.17959
# Velocity P-wave (km/s) = 6.40138 7.64752 7.05203
#
# Compressibility (1/GPa) = 0.02263930
#
# Stress axis : x y z
#
# Youngs Moduli (GPa) = 128.12403 36.74246 37.16946
#
# Poissons Ratio (x) = 0.19432 0.06883
# Poissons Ratio (y) = 0.67760 0.46471
# Poissons Ratio (z) = 0.23727 0.45937
#
# Static dielectric constant tensor:
#      x y z
#    x 3.746410 0.000000 0.000000 
#    y 0.000000 3.351250 0.000000 
#    z 0.000000 0.000000 3.241600 
# 
# 
# High freq. dielectric constant tensor:
#      x y z
#    x 1.765240 0.000000 0.000000 
#    y 0.000000 1.730580 0.000000 
#    z 0.000000 0.000000 1.716220 
# 
# From -- ./inp_files/32434.got.cif
#   From: 2010.03.12/outbox.cif.g09.slc.cpg/sg67_17_cif.got.tgz:32434.got - 2010.04.10 22:41:39.
