data_PCOD8278965
_publ_section_title
;
Structure prediction by ZEFSAII (Michael W. Deem and Ramdas Pophale) SiO2 
 PCOD8278965
Probable space group: C M M A
;
_chemical_formula_sum "Si O2"
_cell_formula_units_Z 80
_cell_length_a 27.241660
_cell_length_b 8.829570
_cell_length_c 20.711867
_cell_angle_alpha 90.000000
_cell_angle_beta 90.000000
_cell_angle_gamma 90.000000
_cell_volume 4981.869773
_symmetry_space_group_name_H-M "C M M A"
_symmetry_group_IT_number 67
_symmetry_cell_setting 'orthorhombic'
loop_
_space_group_symop_operation_xyz
x,y,z
-x,1/2-y,z
x,-y,-z
-x,1/2+y,-z
-x,-y,-z
x,1/2+y,-z
-x,y,z
x,1/2-y,z
1/2+x,1/2+y,z
1/2-x,-y,z
1/2+x,1/2-y,-z
1/2-x,y,-z
1/2-x,1/2-y,-z
1/2+x,y,-z
1/2-x,1/2+y,z
1/2+x,-y,z
loop_
_atom_site_type_symbol
_atom_site_label
_atom_site_fract_x
_atom_site_fract_y
_atom_site_fract_z
Si Si1 0.800828 0.078936 0.256639
Si Si2 0.443828 0.927819 0.933162
Si Si3 0.894790 0.421135 0.186497
Si Si4 0.887427 0.070541 0.685809
Si Si5 0.942799 0.573892 0.567479
O O1 0.791264 0.250000 0.280559
O O2 0.835130 0.078743 0.192198
O O3 0.750000 0.000000 0.239581
O O4 0.830634 0.987884 0.312610
O O5 0.500000 0.974126 0.918676
O O6 0.437362 0.750000 0.938656
O O7 0.409649 0.988484 0.876649
O O8 0.425800 0.000000 0.000000
O O9 0.915454 0.250000 0.183374
O O10 0.916021 0.503092 0.251174
O O11 0.889320 0.250000 0.687910
O O12 0.912672 0.011261 0.621888
O O13 0.927385 0.500000 0.500000
O O14 0.928904 0.750000 0.566628
O O15 0.000000 0.548423 0.581307
#
# Coordination Sequence:
#
# PCOD8278965 Si02
#       5
#    16  16  16  16  16
#     4   9  18  32  52  76 100 128 162 203 252 298
#     4  10  20  33  50  72 100 135 170 203 245 296
#     4   9  19  33  50  74 100 129 166 207 248 292
#     4  10  19  32  51  75 101 131 167 207 248 293
#     4  10  20  34  51  72 101 136 171 206 247 295
#
# _framework density 16.058226999999999
#
# number of rings (size 3 to 8) (size 9 to 14) (size 15 to 20)
#    1.200    1.200    0.000    3.600    0.000    3.200 
#    0.000    0.000    0.000    1.200    0.000    8.400 
#    0.000    0.000    0.000    0.000    0.000    0.000 
#
# Total GULP energy -495732.392107 kJ/mol
# GULP energy per Si atom -12393.309803 kJ/mol
# Density = 1.602168 g / cm^3
# Si number density = 16.058227 Si / 1000 Ang^3
#
#
#
# Elastic Constant Matrix: (Units=GPa)
#
#
# Indices 1 2 3 4 5 6 
#
# 1 60.5615 42.0018 50.6614 0.0000 0.0000 0.0000
# 2 42.0018 128.8355 58.2060 0.0000 0.0000 0.0000
# 3 50.6614 58.2060 118.6452 0.0000 0.0000 0.0000
# 4 0.0000 0.0000 0.0000 34.8041 0.0000 0.0000
# 5 0.0000 0.0000 0.0000 0.0000 -22.5090 0.0000
# 6 0.0000 0.0000 0.0000 0.0000 0.0000 4.3988
#
#
#
# Elastic Compliance Matrix: (Units=1/GPa)
#
#
# Indices 1 2 3 4 5 6 
#
# 1 0.027780 -0.004750 -0.009532 0.000000 0.000000 0.000000
# 2 -0.004750 0.010784 -0.003262 0.000000 0.000000 0.000000
# 3 -0.009532 -0.003262 0.014099 0.000000 0.000000 0.000000
# 4 0.000000 0.000000 0.000000 0.028732 0.000000 0.000000
# 5 0.000000 0.000000 0.000000 0.000000 -0.044427 0.000000
# 6 0.000000 0.000000 0.000000 0.000000 0.000000 0.227335
#
#
# Mechanical properties :
#
#
# Convention : Reuss Voigt Hill
#
# Bulk Modulus (GPa) = 56.89939 67.75340 62.32640
# Shear Modulus (GPa) = 16.37998 13.81699 15.09848
#
# Velocity S-wave (km/s) = 3.19727 2.93649 3.06965
# Velocity P-wave (km/s) = 7.01000 7.33357 7.17361
#
# Compressibility (1/GPa) = 0.01757488
#
# Stress axis : x y z
#
# Youngs Moduli (GPa) = 35.99688 92.72686 70.92739
#
# Poissons Ratio (x) = 0.44049 0.67605
# Poissons Ratio (y) = 0.17100 0.23138
# Poissons Ratio (z) = 0.34311 0.30250
#
# Static dielectric constant tensor:
#      x y z
#    x 2.833950 0.000000 0.000000 
#    y 0.000000 3.238740 0.000000 
#    z 0.000000 0.000000 2.890290 
# 
# 
# High freq. dielectric constant tensor:
#      x y z
#    x 1.592750 0.000000 0.000000 
#    y 0.000000 1.642630 0.000000 
#    z 0.000000 0.000000 1.604090 
# 
# From -- ./inp_files/35765.got.cif
#   From: 2010.03.12/outbox.cif.g09.slc.cpg/sg67_18_cif.got.tgz:35765.got - 2010.04.10 22:41:39.
