data_PCOD8278659
_publ_section_title
;
Structure prediction by ZEFSAII (Michael W. Deem and Ramdas Pophale) SiO2 
 PCOD8278659
Probable space group: C M M A
;
_chemical_formula_sum "Si O2"
_cell_formula_units_Z 96
_cell_length_a 27.577390
_cell_length_b 8.679423
_cell_length_c 23.880679
_cell_angle_alpha 90.000000
_cell_angle_beta 90.000000
_cell_angle_gamma 90.000000
_cell_volume 5715.979816
_symmetry_space_group_name_H-M "C M M A"
_symmetry_group_IT_number 67
_symmetry_cell_setting 'orthorhombic'
loop_
_space_group_symop_operation_xyz
x,y,z
-x,1/2-y,z
x,-y,-z
-x,1/2+y,-z
-x,-y,-z
x,1/2+y,-z
-x,y,z
x,1/2-y,z
1/2+x,1/2+y,z
1/2-x,-y,z
1/2+x,1/2-y,-z
1/2-x,y,-z
1/2-x,1/2-y,-z
1/2+x,y,-z
1/2-x,1/2+y,z
1/2+x,-y,z
loop_
_atom_site_type_symbol
_atom_site_label
_atom_site_fract_x
_atom_site_fract_y
_atom_site_fract_z
Si Si1 0.944498 0.568503 0.059525
Si Si2 0.698141 0.932167 0.776000
Si Si3 0.302370 0.568752 0.442403
Si Si4 0.148164 0.568432 0.670864
Si Si5 0.447033 0.068103 0.727864
Si Si6 0.609026 0.567645 0.163415
O O1 0.937036 0.750000 0.058567
O O2 0.909003 0.493786 0.104392
O O3 0.000000 0.523817 0.073670
O O4 0.929241 0.500000 0.000000
O O5 0.699915 0.750000 0.778502
O O6 0.750000 0.000000 0.791979
O O7 0.683986 0.983429 0.713333
O O8 0.660789 0.994489 0.822194
O O9 0.323738 0.500000 0.500000
O O10 0.296942 0.750000 0.448986
O O11 0.250000 0.500000 0.428754
O O12 0.338705 0.523215 0.392493
O O13 0.154127 0.750000 0.682005
O O14 0.092586 0.514714 0.681803
O O15 0.500000 0.993480 0.715377
O O16 0.451825 0.250000 0.726214
O O17 0.429427 0.015577 0.789215
O O18 0.614844 0.750000 0.161596
#
# Coordination Sequence:
#
# PCOD8278659 Si02
#       6
#    16  16  16  16  16  16
#     4  10  20  33  50  74 103 134 168 205 245 288
#     4  11  21  33  50  72  98 128 160 196 240 288
#     4  10  19  30  45  65  90 119 153 193 237 286
#     4   9  18  31  47  70  96 123 157 195 236 284
#     4   8  14  26  46  70  94 121 154 191 230 274
#     4  10  19  32  50  73 100 129 163 201 242 288
#
# _framework density 16.795020000000001
#
# number of rings (size 3 to 8) (size 9 to 14) (size 15 to 20)
#    0.000    2.333    0.000    5.500    0.000    4.333 
#    0.000    0.000    0.000    5.500    0.000    3.500 
#    0.000    0.000    0.000    0.000    0.000    0.667 
#
# Total GULP energy -595160.975491 kJ/mol
# GULP energy per Si atom -12399.186989 kJ/mol
# Density = 1.675679 g / cm^3
# Si number density = 16.795020 Si / 1000 Ang^3
#
#
#
# Elastic Constant Matrix: (Units=GPa)
#
#
# Indices 1 2 3 4 5 6 
#
# 1 138.4132 45.8587 82.3174 0.0000 0.0000 0.0000
# 2 45.8587 85.1039 52.5811 0.0000 0.0000 0.0000
# 3 82.3174 52.5811 142.4071 0.0000 0.0000 0.0000
# 4 0.0000 0.0000 0.0000 24.5467 0.0000 0.0000
# 5 0.0000 0.0000 0.0000 0.0000 18.8904 0.0000
# 6 0.0000 0.0000 0.0000 0.0000 0.0000 21.1568
#
#
#
# Elastic Compliance Matrix: (Units=1/GPa)
#
#
# Indices 1 2 3 4 5 6 
#
# 1 0.011469 -0.002700 -0.005633 0.000000 0.000000 0.000000
# 2 -0.002700 0.015859 -0.004295 0.000000 0.000000 0.000000
# 3 -0.005633 -0.004295 0.011864 0.000000 0.000000 0.000000
# 4 0.000000 0.000000 0.000000 0.040739 0.000000 0.000000
# 5 0.000000 0.000000 0.000000 0.000000 0.052937 0.000000
# 6 0.000000 0.000000 0.000000 0.000000 0.000000 0.047266
#
#
# Mechanical properties :
#
#
# Convention : Reuss Voigt Hill
#
# Bulk Modulus (GPa) = 71.75326 80.82650 76.28988
# Shear Modulus (GPa) = 23.80561 25.26325 24.53443
#
# Velocity S-wave (km/s) = 3.76895 3.88262 3.82621
# Velocity P-wave (km/s) = 7.85848 8.26616 8.06490
#
# Compressibility (1/GPa) = 0.01393665
#
# Stress axis : x y z
#
# Youngs Moduli (GPa) = 87.18952 63.05635 84.28945
#
# Poissons Ratio (x) = 0.17026 0.47478
# Poissons Ratio (y) = 0.23542 0.36201
# Poissons Ratio (z) = 0.49112 0.27081
#
# Static dielectric constant tensor:
#      x y z
#    x 3.357640 0.000000 0.000000 
#    y 0.000000 3.108120 0.000000 
#    z 0.000000 0.000000 3.156120 
# 
# 
# High freq. dielectric constant tensor:
#      x y z
#    x 1.641720 0.000000 0.000000 
#    y 0.000000 1.647500 0.000000 
#    z 0.000000 0.000000 1.639390 
# 
# From -- ./inp_files/42694.got.cif
#   From: 2010.03.12/outbox.cif.g09.slc.cpg/sg67_22_cif.got.tgz:42694.got - 2010.04.10 22:41:39.
