data_PCOD8278155
_publ_section_title
;
Structure prediction by ZEFSAII (Michael W. Deem and Ramdas Pophale) SiO2 
 PCOD8278155
Probable space group: C M M A
;
_chemical_formula_sum "Si O2"
_cell_formula_units_Z 116
_cell_length_a 25.617844
_cell_length_b 29.662505
_cell_length_c 9.176661
_cell_angle_alpha 90.000000
_cell_angle_beta 90.000000
_cell_angle_gamma 90.000000
_cell_volume 6973.247657
_symmetry_space_group_name_H-M "C M M A"
_symmetry_group_IT_number 67
_symmetry_cell_setting 'orthorhombic'
loop_
_space_group_symop_operation_xyz
x,y,z
-x,1/2-y,z
x,-y,-z
-x,1/2+y,-z
-x,-y,-z
x,1/2+y,-z
-x,y,z
x,1/2-y,z
1/2+x,1/2+y,z
1/2-x,-y,z
1/2+x,1/2-y,-z
1/2-x,y,-z
1/2-x,1/2-y,-z
1/2+x,y,-z
1/2-x,1/2+y,z
1/2+x,-y,z
loop_
_atom_site_type_symbol
_atom_site_label
_atom_site_fract_x
_atom_site_fract_y
_atom_site_fract_z
Si Si1 0.940190 0.697480 0.250795
Si Si2 0.738007 0.939785 0.259238
Si Si3 0.274091 0.341848 0.223277
Si Si4 0.331808 0.451712 0.469669
Si Si5 0.250000 0.500000 0.000000
Si Si6 0.866261 0.643908 0.441053
Si Si7 0.354409 0.199028 0.026159
Si Si8 0.167513 0.800724 0.705667
O O1 0.933789 0.750000 0.293107
O O2 0.919075 0.666384 0.381735
O O3 0.907699 0.684464 0.106512
O O4 0.000000 0.685065 0.220861
O O5 0.750130 0.890699 0.199423
O O6 0.693957 0.935280 0.380273
O O7 0.789701 0.960634 0.339506
O O8 0.718834 0.968226 0.115996
O O9 0.315513 0.339918 0.353928
O O10 0.303977 0.329696 0.074317
O O11 0.229045 0.306827 0.265163
O O12 0.360157 0.500000 0.500000
O O13 0.371347 0.410928 0.430723
O O14 0.857442 0.661561 0.603456
O O15 0.340621 0.250000 0.068362
O O16 0.364073 0.192894 0.855702
O O17 0.159391 0.750000 0.643948
#
# Coordination Sequence:
#
# PCOD8278155 Si02
#       8
#    16  16  16  16   4  16  16  16
#     4   9  18  36  57  73  93 123 160 206 253 297
#     4  10  19  28  43  63  93 131 173 204 234 274
#     4  10  19  30  44  66  98 142 168 191 230 282
#     4  10  17  34  45  60  95 134 163 198 245 287
#     4  12  20  26  40  68  86 126 178 220 228 262
#     4  10  20  31  50  73  95 126 170 204 241 287
#     4   9  19  32  45  67  98 133 167 194 233 291
#     4  11  20  29  43  70 105 133 161 197 234 283
#
# _framework density 16.635003999999999
#
# number of rings (size 3 to 8) (size 9 to 14) (size 15 to 20)
#    0.000    2.069    2.759    2.069    1.931    3.310 
#    0.000    0.690    0.000    2.897    0.000    0.000 
#    0.000    1.103    0.000    0.000    0.000    0.000 
#
# Total GULP energy -718814.185702 kJ/mol
# GULP energy per Si atom -12393.348029 kJ/mol
# Density = 1.659714 g / cm^3
# Si number density = 16.635004 Si / 1000 Ang^3
#
#
#
# Elastic Constant Matrix: (Units=GPa)
#
#
# Indices 1 2 3 4 5 6 
#
# 1 69.0855 29.7016 18.5358 0.0000 0.0000 0.0000
# 2 29.7016 85.9809 25.8076 0.0000 0.0000 0.0000
# 3 18.5358 25.8076 74.7288 0.0000 0.0000 0.0000
# 4 0.0000 0.0000 0.0000 26.6447 0.0000 0.0000
# 5 0.0000 0.0000 0.0000 0.0000 10.3231 0.0000
# 6 0.0000 0.0000 0.0000 0.0000 0.0000 10.3026
#
#
#
# Elastic Compliance Matrix: (Units=1/GPa)
#
#
# Indices 1 2 3 4 5 6 
#
# 1 0.017408 -0.005263 -0.002500 0.000000 0.000000 0.000000
# 2 -0.005263 0.014567 -0.003725 0.000000 0.000000 0.000000
# 3 -0.002500 -0.003725 0.015288 0.000000 0.000000 0.000000
# 4 0.000000 0.000000 0.000000 0.037531 0.000000 0.000000
# 5 0.000000 0.000000 0.000000 0.000000 0.096870 0.000000
# 6 0.000000 0.000000 0.000000 0.000000 0.000000 0.097063
#
#
# Mechanical properties :
#
#
# Convention : Reuss Voigt Hill
#
# Bulk Modulus (GPa) = 41.17560 41.98725 41.58143
# Shear Modulus (GPa) = 16.13943 19.83742 17.98843
#
# Velocity S-wave (km/s) = 3.11820 3.45702 3.29197
# Velocity P-wave (km/s) = 6.14576 6.42104 6.28491
#
# Compressibility (1/GPa) = 0.02428623
#
# Stress axis : x y z
#
# Youngs Moduli (GPa) = 57.44343 68.64959 65.40899
#
# Poissons Ratio (x) = 0.36131 0.16355
# Poissons Ratio (y) = 0.30233 0.24366
# Poissons Ratio (z) = 0.14363 0.25573
#
# Static dielectric constant tensor:
#      x y z
#    x 2.719240 0.000000 0.000000 
#    y 0.000000 3.301520 0.000000 
#    z 0.000000 0.000000 3.230690 
# 
# 
# High freq. dielectric constant tensor:
#      x y z
#    x 1.577350 0.000000 0.000000 
#    y 0.000000 1.652350 0.000000 
#    z 0.000000 0.000000 1.649810 
# 
# From -- ./inp_files/12995.got.cif
#   From: 2010.03.12/outbox.cif.g09.slc.cpg/sg67_7_cif.got.tgz:12995.got - 2010.04.10 22:41:39.
