data_PCOD8278759
_publ_section_title
;
Structure prediction by ZEFSAII (Michael W. Deem and Ramdas Pophale) SiO2 
 PCOD8278759
Probable space group: C M M A
;
_chemical_formula_sum "Si O2"
_cell_formula_units_Z 72
_cell_length_a 26.207443
_cell_length_b 8.971731
_cell_length_c 14.891371
_cell_angle_alpha 90.000000
_cell_angle_beta 90.000000
_cell_angle_gamma 90.000000
_cell_volume 3501.350416
_symmetry_space_group_name_H-M "C M M A"
_symmetry_group_IT_number 67
_symmetry_cell_setting 'orthorhombic'
loop_
_space_group_symop_operation_xyz
x,y,z
-x,1/2-y,z
x,-y,-z
-x,1/2+y,-z
-x,-y,-z
x,1/2+y,-z
-x,y,z
x,1/2-y,z
1/2+x,1/2+y,z
1/2-x,-y,z
1/2+x,1/2-y,-z
1/2-x,y,-z
1/2-x,1/2-y,-z
1/2+x,y,-z
1/2-x,1/2+y,z
1/2+x,-y,z
loop_
_atom_site_type_symbol
_atom_site_label
_atom_site_fract_x
_atom_site_fract_y
_atom_site_fract_z
Si Si1 0.798100 0.915565 0.104219
Si Si2 0.299442 0.585017 0.686204
Si Si3 0.596044 0.926314 0.287912
Si Si4 0.000000 0.925777 0.595937
Si Si5 0.598618 0.924356 0.086281
O O1 0.806573 0.750000 0.062369
O O2 0.790271 0.896405 0.209240
O O3 0.750000 0.000000 0.061885
O O4 0.842868 0.028398 0.079226
O O5 0.303336 0.750000 0.641944
O O6 0.250000 0.500000 0.644000
O O7 0.352634 0.498203 0.671388
O O8 0.604691 0.750000 0.287958
O O9 0.549874 0.978795 0.350432
O O10 0.580909 0.977809 0.185941
O O11 0.000000 0.750000 0.584126
O O12 0.000000 0.000000 0.500000
O O13 0.590809 0.750000 0.075681
O O14 0.569538 0.000000 0.000000
#
# Coordination Sequence:
#
# PCOD8278759 Si02
#       5
#    16  16  16   8  16
#     4   9  16  26  40  62  95 137 185 232 272 313
#     4   9  16  27  48  78 112 149 188 228 274 327
#     4   9  19  36  57  81 113 150 187 228 278 332
#     4  10  22  42  67  92 114 140 177 226 283 340
#     4  10  19  31  47  69 101 142 184 225 267 316
#
# _framework density 20.563493000000001
#
# number of rings (size 3 to 8) (size 9 to 14) (size 15 to 20)
#    0.000    2.667    0.000    2.000    0.000    7.556 
#    0.000    2.778    0.000    0.667    0.000    4.667 
#    0.000    0.000    0.000    0.000    0.000    0.000 
#
# Total GULP energy -446009.282824 kJ/mol
# GULP energy per Si atom -12389.146745 kJ/mol
# Density = 2.051669 g / cm^3
# Si number density = 20.563493 Si / 1000 Ang^3
#
#
#
# Elastic Constant Matrix: (Units=GPa)
#
#
# Indices 1 2 3 4 5 6 
#
# 1 131.6361 48.1185 63.3865 0.0000 0.0000 0.0000
# 2 48.1185 79.3864 32.0126 0.0000 0.0000 0.0000
# 3 63.3865 32.0126 104.7063 0.0000 0.0000 0.0000
# 4 0.0000 0.0000 0.0000 25.4505 0.0000 0.0000
# 5 0.0000 0.0000 0.0000 0.0000 -3.3789 0.0000
# 6 0.0000 0.0000 0.0000 0.0000 0.0000 15.2597
#
#
#
# Elastic Compliance Matrix: (Units=1/GPa)
#
#
# Indices 1 2 3 4 5 6 
#
# 1 0.012286 -0.005073 -0.005886 0.000000 0.000000 0.000000
# 2 -0.005073 0.016463 -0.001962 0.000000 0.000000 0.000000
# 3 -0.005886 -0.001962 0.013714 0.000000 0.000000 0.000000
# 4 0.000000 0.000000 0.000000 0.039292 0.000000 0.000000
# 5 0.000000 0.000000 0.000000 0.000000 -0.295954 0.000000
# 6 0.000000 0.000000 0.000000 0.000000 0.000000 0.065532
#
#
# Mechanical properties :
#
#
# Convention : Reuss Voigt Hill
#
# Bulk Modulus (GPa) = 60.17176 66.97380 63.57278
# Shear Modulus (GPa) = -42.63127 18.94700 -11.84214
#
# Velocity S-wave (km/s) = -4.55813 3.03873 -2.40236
# Velocity P-wave (km/s) = 1.27394 6.70461 4.82570
#
# Compressibility (1/GPa) = 0.01661909
#
# Stress axis : x y z
#
# Youngs Moduli (GPa) = 81.39668 60.74314 72.91873
#
# Poissons Ratio (x) = 0.30815 0.42922
# Poissons Ratio (y) = 0.41292 0.14308
# Poissons Ratio (z) = 0.47913 0.11919
#
# Static dielectric constant tensor:
#      x y z
#    x 3.554620 0.000000 0.000000 
#    y 0.000000 2.873850 0.000000 
#    z 0.000000 0.000000 3.793490 
# 
# 
# High freq. dielectric constant tensor:
#      x y z
#    x 1.781620 0.000000 0.000000 
#    y 0.000000 1.807430 0.000000 
#    z 0.000000 0.000000 1.787050 
# 
# From -- ./inp_files/30550.got.cif
#   From: 2010.03.12/outbox.cif.g09.slc.cpg/sg67_16_cif.got.tgz:30550.got - 2010.04.10 22:41:39.
