data_PCOD8278294
_publ_section_title
;
Structure prediction by ZEFSAII (Michael W. Deem and Ramdas Pophale) SiO2 
 PCOD8278294
Probable space group: C M M A
;
_chemical_formula_sum "Si O2"
_cell_formula_units_Z 96
_cell_length_a 21.361655
_cell_length_b 19.090362
_cell_length_c 13.756174
_cell_angle_alpha 90.000000
_cell_angle_beta 90.000000
_cell_angle_gamma 90.000000
_cell_volume 5609.791512
_symmetry_space_group_name_H-M "C M M A"
_symmetry_group_IT_number 67
_symmetry_cell_setting 'orthorhombic'
loop_
_space_group_symop_operation_xyz
x,y,z
-x,1/2-y,z
x,-y,-z
-x,1/2+y,-z
-x,-y,-z
x,1/2+y,-z
-x,y,z
x,1/2-y,z
1/2+x,1/2+y,z
1/2-x,-y,z
1/2+x,1/2-y,-z
1/2-x,y,-z
1/2-x,1/2-y,-z
1/2+x,y,-z
1/2-x,1/2+y,z
1/2+x,-y,z
loop_
_atom_site_type_symbol
_atom_site_label
_atom_site_fract_x
_atom_site_fract_y
_atom_site_fract_z
Si Si1 0.188103 0.969617 0.892921
Si Si2 0.072790 0.672978 0.095620
Si Si3 0.857915 0.172420 0.102927
Si Si4 0.071756 0.963596 0.205679
Si Si5 0.928132 0.033535 0.404086
Si Si6 0.926291 0.672441 0.694966
O O1 0.196887 0.885381 0.891355
O O2 0.250000 0.000000 0.838151
O O3 0.121388 0.985225 0.844369
O O4 0.186695 0.000000 0.000000
O O5 0.094678 0.750000 0.132392
O O6 0.089813 0.616238 0.178463
O O7 0.000000 0.672889 0.074380
O O8 0.103631 0.653523 0.993522
O O9 0.827855 0.250000 0.096550
O O10 0.902282 0.166401 0.195773
O O11 0.000000 0.981381 0.172600
O O12 0.078371 0.974784 0.320679
O O13 0.898087 0.108896 0.371362
O O14 0.000000 0.048820 0.429608
O O15 0.895071 0.000000 0.500000
O O16 0.909392 0.750000 0.651768
O O17 0.000000 0.661914 0.701829
#
# Coordination Sequence:
#
# PCOD8278294 Si02
#       6
#    16  16  16  16  16  16
#     4  11  22  35  48  73 107 134 163 206 249 294
#     4   9  17  28  44  71 103 131 165 207 244 288
#     4  10  18  30  48  71  98 131 166 202 247 295
#     4  10  19  32  52  72  95 134 173 206 246 298
#     4   9  17  29  46  71 100 127 162 210 256 295
#     4   9  16  26  44  72 102 129 160 203 253 297
#
# _framework density 17.112936000000001
#
# number of rings (size 3 to 8) (size 9 to 14) (size 15 to 20)
#    0.000    2.333    3.333    0.500    0.000    3.000 
#    0.000    3.333    0.000    5.500    0.000    0.000 
#    0.000    2.667    0.000    0.000    0.000    0.000 
#
# Total GULP energy -594642.340972 kJ/mol
# GULP energy per Si atom -12388.382104 kJ/mol
# Density = 1.707399 g / cm^3
# Si number density = 17.112936 Si / 1000 Ang^3
#
#
#
# Elastic Constant Matrix: (Units=GPa)
#
#
# Indices 1 2 3 4 5 6 
#
# 1 48.6471 35.2550 20.9178 0.0000 0.0000 0.0000
# 2 35.2550 174.1315 64.3144 0.0000 0.0000 0.0000
# 3 20.9178 64.3144 88.9387 0.0000 0.0000 0.0000
# 4 0.0000 0.0000 0.0000 26.4846 0.0000 0.0000
# 5 0.0000 0.0000 0.0000 0.0000 4.0808 0.0000
# 6 0.0000 0.0000 0.0000 0.0000 0.0000 16.4948
#
#
#
# Elastic Compliance Matrix: (Units=1/GPa)
#
#
# Indices 1 2 3 4 5 6 
#
# 1 0.024659 -0.003889 -0.002987 0.000000 0.000000 0.000000
# 2 -0.003889 0.008449 -0.005195 0.000000 0.000000 0.000000
# 3 -0.002987 -0.005195 0.015703 0.000000 0.000000 0.000000
# 4 0.000000 0.000000 0.000000 0.037758 0.000000 0.000000
# 5 0.000000 0.000000 0.000000 0.000000 0.245052 0.000000
# 6 0.000000 0.000000 0.000000 0.000000 0.000000 0.060625
#
#
# Mechanical properties :
#
#
# Convention : Reuss Voigt Hill
#
# Bulk Modulus (GPa) = 40.53803 61.41018 50.97410
# Shear Modulus (GPa) = 11.77545 22.16070 16.96807
#
# Velocity S-wave (km/s) = 2.62602 3.60247 3.15228
# Velocity P-wave (km/s) = 5.73886 7.29841 6.56511
#
# Compressibility (1/GPa) = 0.02466819
#
# Stress axis : x y z
#
# Youngs Moduli (GPa) = 40.55263 118.35806 63.68233
#
# Poissons Ratio (x) = 0.46032 0.19024
# Poissons Ratio (y) = 0.15772 0.33083
# Poissons Ratio (z) = 0.12114 0.61487
#
# Static dielectric constant tensor:
#      x y z
#    x 3.212590 0.000000 0.000000 
#    y 0.000000 3.841030 0.000000 
#    z 0.000000 0.000000 3.102240 
# 
# 
# High freq. dielectric constant tensor:
#      x y z
#    x 1.616540 0.000000 0.000000 
#    y 0.000000 1.685150 0.000000 
#    z 0.000000 0.000000 1.632400 
# 
# From -- ./inp_files/20855.got.cif
#   From: 2010.03.12/outbox.cif.g09.slc.cpg/sg67_11_cif.got.tgz:20855.got - 2010.04.10 22:41:39.
