data_PCOD8278195
_publ_section_title
;
Structure prediction by ZEFSAII (Michael W. Deem and Ramdas Pophale) SiO2 
 PCOD8278195
Probable space group: C M M A
;
_chemical_formula_sum "Si O2"
_cell_formula_units_Z 128
_cell_length_a 25.122703
_cell_length_b 15.931451
_cell_length_c 19.430987
_cell_angle_alpha 90.000000
_cell_angle_beta 90.000000
_cell_angle_gamma 90.000000
_cell_volume 7777.079841
_symmetry_space_group_name_H-M "C M M A"
_symmetry_group_IT_number 67
_symmetry_cell_setting 'orthorhombic'
loop_
_space_group_symop_operation_xyz
x,y,z
-x,1/2-y,z
x,-y,-z
-x,1/2+y,-z
-x,-y,-z
x,1/2+y,-z
-x,y,z
x,1/2-y,z
1/2+x,1/2+y,z
1/2-x,-y,z
1/2+x,1/2-y,-z
1/2-x,y,-z
1/2-x,1/2-y,-z
1/2+x,y,-z
1/2-x,1/2+y,z
1/2+x,-y,z
loop_
_atom_site_type_symbol
_atom_site_label
_atom_site_fract_x
_atom_site_fract_y
_atom_site_fract_z
Si Si1 0.436905 0.656729 0.067205
Si Si2 0.120832 0.494564 0.307860
Si Si3 0.155780 0.345845 0.490498
Si Si4 0.281210 0.084499 0.630897
Si Si5 0.936823 0.343180 0.912678
Si Si6 0.936422 0.491980 0.165448
Si Si7 0.059302 0.064081 0.437759
Si Si8 0.174129 0.655069 0.353794
O O1 0.500000 0.652146 0.065742
O O2 0.418959 0.750000 0.092932
O O3 0.415425 0.583100 0.116424
O O4 0.415012 0.641409 0.989965
O O5 0.169761 0.428482 0.316082
O O6 0.090483 0.474820 0.238101
O O7 0.079401 0.483172 0.369760
O O8 0.142511 0.590498 0.305025
O O9 0.171461 0.250000 0.485676
O O10 0.198229 0.394538 0.444851
O O11 0.096712 0.358778 0.459865
O O12 0.160696 0.376343 0.568916
O O13 0.238253 0.152367 0.658709
O O14 0.250000 0.000000 0.621210
O O15 0.918297 0.250000 0.886607
O O16 0.916065 0.418121 0.863834
O O17 0.000000 0.346162 0.914381
O O18 0.000000 0.490663 0.173489
O O19 0.000000 0.099036 0.424276
O O20 0.059783 0.000000 0.500000
O O21 0.154101 0.750000 0.339805
#
# Coordination Sequence:
#
# PCOD8278195 Si02
#       8
#    16  16  16  16  16  16  16  16
#     4   8  14  26  44  66  91 122 158 192 225 262
#     4  10  20  32  45  67  91 122 159 191 226 277
#     4  10  19  31  49  73  89 104 143 197 245 285
#     4   9  19  31  49  67  87 112 142 187 243 296
#     4   8  14  25  43  67  94 124 158 190 221 261
#     4  10  18  28  44  66  97 132 163 188 219 263
#     4  10  19  33  49  61  85 126 163 191 220 259
#     4  10  19  32  48  67  88 109 140 192 254 299
#
# _framework density 16.45862
#
# number of rings (size 3 to 8) (size 9 to 14) (size 15 to 20)
#    0.000    2.625    1.250    2.250    0.000    4.750 
#    0.000    3.125    0.000    4.125    0.000    0.000 
#    0.000   18.000    0.000   29.250    0.000    2.250 
#
# Total GULP energy -793173.784395 kJ/mol
# GULP energy per Si atom -12393.340381 kJ/mol
# Density = 1.642116 g / cm^3
# Si number density = 16.458620 Si / 1000 Ang^3
#
#
#
# Elastic Constant Matrix: (Units=GPa)
#
#
# Indices 1 2 3 4 5 6 
#
# 1 60.0645 9.9341 24.3735 0.0000 0.0000 0.0000
# 2 9.9341 68.1827 36.0304 0.0000 0.0000 0.0000
# 3 24.3735 36.0304 82.0579 0.0000 0.0000 0.0000
# 4 0.0000 0.0000 0.0000 15.0495 0.0000 0.0000
# 5 0.0000 0.0000 0.0000 0.0000 -0.1575 0.0000
# 6 0.0000 0.0000 0.0000 0.0000 0.0000 8.7895
#
#
#
# Elastic Compliance Matrix: (Units=1/GPa)
#
#
# Indices 1 2 3 4 5 6 
#
# 1 0.018934 0.000278 -0.005746 0.000000 0.000000 0.000000
# 2 0.000278 0.019102 -0.008470 0.000000 0.000000 0.000000
# 3 -0.005746 -0.008470 0.017612 0.000000 0.000000 0.000000
# 4 0.000000 0.000000 0.000000 0.066447 0.000000 0.000000
# 5 0.000000 0.000000 0.000000 0.000000 -6.347972 0.000000
# 6 0.000000 0.000000 0.000000 0.000000 0.000000 0.113772
#
#
# Mechanical properties :
#
#
# Convention : Reuss Voigt Hill
#
# Bulk Modulus (GPa) = 36.00712 38.99788 37.50250
# Shear Modulus (GPa) = -0.82305 14.06745 6.62220
#
# Velocity S-wave (km/s) = -0.70792 2.92672 2.00805
# Velocity P-wave (km/s) = 4.61049 5.93017 5.31148
#
# Compressibility (1/GPa) = 0.02777229
#
# Stress axis : x y z
#
# Youngs Moduli (GPa) = 52.81368 52.35114 56.77889
#
# Poissons Ratio (x) = -0.01454 0.32625
# Poissons Ratio (y) = -0.01467 0.48090
# Poissons Ratio (z) = 0.30347 0.44340
#
# Static dielectric constant tensor:
#      x y z
#    x 3.177570 0.000000 0.000000 
#    y 0.000000 3.367480 0.000000 
#    z 0.000000 0.000000 2.971780 
# 
# 
# High freq. dielectric constant tensor:
#      x y z
#    x 1.602760 0.000000 0.000000 
#    y 0.000000 1.641490 0.000000 
#    z 0.000000 0.000000 1.611760 
# 
# From -- ./inp_files/35636.got.cif
#   From: 2010.03.12/outbox.cif.g09.slc.cpg/sg67_18_cif.got.tgz:35636.got - 2010.04.10 22:41:39.
