data_PCOD8278728
_publ_section_title
;
Structure prediction by ZEFSAII (Michael W. Deem and Ramdas Pophale) SiO2 
 PCOD8278728
Probable space group: C M M A
;
_chemical_formula_sum "Si O2"
_cell_formula_units_Z 104
_cell_length_a 24.878444
_cell_length_b 18.703870
_cell_length_c 12.007855
_cell_angle_alpha 90.000000
_cell_angle_beta 90.000000
_cell_angle_gamma 90.000000
_cell_volume 5587.533302
_symmetry_space_group_name_H-M "C M M A"
_symmetry_group_IT_number 67
_symmetry_cell_setting 'orthorhombic'
loop_
_space_group_symop_operation_xyz
x,y,z
-x,1/2-y,z
x,-y,-z
-x,1/2+y,-z
-x,-y,-z
x,1/2+y,-z
-x,y,z
x,1/2-y,z
1/2+x,1/2+y,z
1/2-x,-y,z
1/2+x,1/2-y,-z
1/2-x,y,-z
1/2-x,1/2-y,-z
1/2+x,y,-z
1/2-x,1/2+y,z
1/2+x,-y,z
loop_
_atom_site_type_symbol
_atom_site_label
_atom_site_fract_x
_atom_site_fract_y
_atom_site_fract_z
Si Si1 0.688236 0.976123 0.378082
Si Si2 0.747631 0.830795 0.876751
Si Si3 0.846619 0.168508 0.274329
Si Si4 0.654167 0.580199 0.803167
Si Si5 0.062297 0.877204 0.883860
Si Si6 0.559632 0.169630 0.126975
Si Si7 0.117269 0.000000 0.000000
O O1 0.674547 0.891173 0.363462
O O2 0.669388 0.000000 0.500000
O O3 0.750000 0.000000 0.359352
O O4 0.652452 0.019079 0.289667
O O5 0.725863 0.750000 0.882686
O O6 0.807304 0.835820 0.830366
O O7 0.707715 0.872275 0.793338
O O8 0.750000 0.864218 0.000000
O O9 0.845731 0.250000 0.325725
O O10 0.905303 0.152068 0.223520
O O11 0.599773 0.626159 0.793595
O O12 0.656528 0.548536 0.927432
O O13 0.079034 0.958205 0.913068
O O14 0.000000 0.873115 0.849989
O O15 0.074898 0.831680 0.995706
O O16 0.500000 0.136759 0.142068
O O17 0.561602 0.250000 0.169894
#
# Coordination Sequence:
#
# PCOD8278728 Si02
#       7
#    16  16  16  16  16  16   8
#     4  11  24  44  62  82 112 150 193 246 294 347
#     4  10  20  32  51  83 121 151 181 228 287 352
#     4  11  22  39  58  84 115 148 195 245 287 339
#     4  11  20  34  56  81 114 150 190 229 290 341
#     4  10  19  32  53  83 122 163 196 230 277 338
#     4   9  18  32  52  84 123 158 191 226 272 337
#     4  10  19  30  53  88 122 154 190 236 278 338
#
# _framework density 18.612863999999998
#
# number of rings (size 3 to 8) (size 9 to 14) (size 15 to 20)
#    0.000    1.692    3.077    3.000    0.000    2.769 
#    0.000    3.077    0.000    1.846    0.000    0.000 
#    0.000    0.000    0.000    0.000    0.000    0.000 
#
# Total GULP energy -644532.733805 kJ/mol
# GULP energy per Si atom -12394.860265 kJ/mol
# Density = 1.857050 g / cm^3
# Si number density = 18.612864 Si / 1000 Ang^3
#
#
#
# Elastic Constant Matrix: (Units=GPa)
#
#
# Indices 1 2 3 4 5 6 
#
# 1 97.1419 39.0581 27.0792 0.0000 0.0000 0.0000
# 2 39.0581 115.1750 39.3378 0.0000 0.0000 0.0000
# 3 27.0792 39.3378 67.4862 0.0000 0.0000 0.0000
# 4 0.0000 0.0000 0.0000 23.0177 0.0000 0.0000
# 5 0.0000 0.0000 0.0000 0.0000 15.3635 0.0000
# 6 0.0000 0.0000 0.0000 0.0000 0.0000 23.0132
#
#
#
# Elastic Compliance Matrix: (Units=1/GPa)
#
#
# Indices 1 2 3 4 5 6 
#
# 1 0.012437 -0.003138 -0.003161 0.000000 0.000000 0.000000
# 2 -0.003138 0.011632 -0.005521 0.000000 0.000000 0.000000
# 3 -0.003161 -0.005521 0.019305 0.000000 0.000000 0.000000
# 4 0.000000 0.000000 0.000000 0.043445 0.000000 0.000000
# 5 0.000000 0.000000 0.000000 0.000000 0.065089 0.000000
# 6 0.000000 0.000000 0.000000 0.000000 0.000000 0.043453
#
#
# Mechanical properties :
#
#
# Convention : Reuss Voigt Hill
#
# Bulk Modulus (GPa) = 50.67676 54.52813 52.60244
# Shear Modulus (GPa) = 22.16498 23.90074 23.03286
#
# Velocity S-wave (km/s) = 3.45460 3.58732 3.52159
# Velocity P-wave (km/s) = 6.57253 6.82041 6.69762
#
# Compressibility (1/GPa) = 0.01973291
#
# Stress axis : x y z
#
# Youngs Moduli (GPa) = 80.40421 85.96669 51.80048
#
# Poissons Ratio (x) = 0.26976 0.16376
# Poissons Ratio (y) = 0.25230 0.28601
# Poissons Ratio (z) = 0.25419 0.47466
#
# Static dielectric constant tensor:
#      x y z
#    x 3.415130 0.000000 0.000000 
#    y 0.000000 3.724060 0.000000 
#    z 0.000000 0.000000 2.986840 
# 
# 
# High freq. dielectric constant tensor:
#      x y z
#    x 1.725030 0.000000 0.000000 
#    y 0.000000 1.737570 0.000000 
#    z 0.000000 0.000000 1.666650 
# 
# From -- ./inp_files/22981.got.cif
#   From: 2010.03.12/outbox.cif.g09.slc.cpg/sg67_12_cif.got.tgz:22981.got - 2010.04.10 22:41:39.
