data_PCOD8278988
_publ_section_title
;
Structure prediction by ZEFSAII (Michael W. Deem and Ramdas Pophale) SiO2 
 PCOD8278988
Probable space group: C M M A
;
_chemical_formula_sum "Si O2"
_cell_formula_units_Z 112
_cell_length_a 18.928632
_cell_length_b 17.861213
_cell_length_c 17.691371
_cell_angle_alpha 90.000000
_cell_angle_beta 90.000000
_cell_angle_gamma 90.000000
_cell_volume 5981.246041
_symmetry_space_group_name_H-M "C M M A"
_symmetry_group_IT_number 67
_symmetry_cell_setting 'orthorhombic'
loop_
_space_group_symop_operation_xyz
x,y,z
-x,1/2-y,z
x,-y,-z
-x,1/2+y,-z
-x,-y,-z
x,1/2+y,-z
-x,y,z
x,1/2-y,z
1/2+x,1/2+y,z
1/2-x,-y,z
1/2+x,1/2-y,-z
1/2-x,y,-z
1/2-x,1/2-y,-z
1/2+x,y,-z
1/2-x,1/2+y,z
1/2+x,-y,z
loop_
_atom_site_type_symbol
_atom_site_label
_atom_site_fract_x
_atom_site_fract_y
_atom_site_fract_z
Si Si1 0.160538 0.663662 0.735814
Si Si2 0.421334 0.161062 0.589245
Si Si3 0.581870 0.093905 0.163482
Si Si4 0.679548 0.161044 0.460570
Si Si5 0.416280 0.333469 0.011493
Si Si6 0.918442 0.079238 0.134255
Si Si7 0.176081 0.663112 0.290088
O O1 0.139945 0.750000 0.746984
O O2 0.127027 0.632498 0.658095
O O3 0.129151 0.617089 0.803434
O O4 0.243931 0.652194 0.735997
O O5 0.500000 0.126905 0.596005
O O6 0.424120 0.250000 0.590614
O O7 0.387240 0.134500 0.510224
O O8 0.500000 0.111468 0.180566
O O9 0.612377 0.142485 0.093730
O O10 0.625587 0.113112 0.238254
O O11 0.592409 0.008819 0.138467
O O12 0.687161 0.250000 0.456989
O O13 0.750000 0.128020 0.500000
O O14 0.668954 0.131538 0.375439
O O15 0.500000 0.335484 0.015712
O O16 0.388364 0.250000 0.992789
O O17 0.391008 0.390933 0.946873
O O18 0.000000 0.101946 0.147354
O O19 0.153193 0.750000 0.284650
#
# Coordination Sequence:
#
# PCOD8278988 Si02
#       7
#    16  16  16  16  16  16  16
#     4  10  19  32  51  78 108 137 175 225 276 326
#     4   9  16  26  45  75 106 134 169 219 274 321
#     4  10  21  36  53  77 110 146 184 224 267 323
#     4   9  15  28  48  72 104 138 173 219 273 327
#     4   9  17  32  56  82 107 138 178 225 274 322
#     4  10  20  34  54  79 108 143 179 219 271 326
#     4  10  20  33  53  78 107 144 182 222 274 326
#
# _framework density 18.725194999999999
#
# number of rings (size 3 to 8) (size 9 to 14) (size 15 to 20)
#    0.000    2.429    1.429    1.714    0.000    5.143 
#    0.000    2.143    0.000    5.143    0.000    3.000 
#    0.000    0.000    0.000    0.000    0.000    0.000 
#
# Total GULP energy -694339.754511 kJ/mol
# GULP energy per Si atom -12398.924188 kJ/mol
# Density = 1.868258 g / cm^3
# Si number density = 18.725195 Si / 1000 Ang^3
#
#
#
# Elastic Constant Matrix: (Units=GPa)
#
#
# Indices 1 2 3 4 5 6 
#
# 1 76.9452 32.1884 49.8603 0.0000 0.0000 0.0000
# 2 32.1884 55.5052 45.4981 0.0000 0.0000 0.0000
# 3 49.8603 45.4981 156.7057 0.0000 0.0000 0.0000
# 4 0.0000 0.0000 0.0000 -14.7114 0.0000 0.0000
# 5 0.0000 0.0000 0.0000 0.0000 28.0276 0.0000
# 6 0.0000 0.0000 0.0000 0.0000 0.0000 18.6026
#
#
#
# Elastic Compliance Matrix: (Units=1/GPa)
#
#
# Indices 1 2 3 4 5 6 
#
# 1 0.018635 -0.007804 -0.003663 0.000000 0.000000 0.000000
# 2 -0.007804 0.026911 -0.005331 0.000000 0.000000 0.000000
# 3 -0.003663 -0.005331 0.009095 0.000000 0.000000 0.000000
# 4 0.000000 0.000000 0.000000 -0.067975 0.000000 0.000000
# 5 0.000000 0.000000 0.000000 0.000000 0.035679 0.000000
# 6 0.000000 0.000000 0.000000 0.000000 0.000000 0.053756
#
#
# Mechanical properties :
#
#
# Convention : Reuss Voigt Hill
#
# Bulk Modulus (GPa) = 47.51614 60.47221 53.99417
# Shear Modulus (GPa) = 42.84087 17.15773 29.99930
#
# Velocity S-wave (km/s) = 4.78836 3.03031 4.00694
# Velocity P-wave (km/s) = 7.48343 6.67895 7.09261
#
# Compressibility (1/GPa) = 0.02104548
#
# Stress axis : x y z
#
# Youngs Moduli (GPa) = 53.66363 37.15926 109.95445
#
# Poissons Ratio (x) = 0.28997 0.40281
# Poissons Ratio (y) = 0.41877 0.58611
# Poissons Ratio (z) = 0.19659 0.19808
#
# Static dielectric constant tensor:
#      x y z
#    x 3.336230 0.000000 0.000000 
#    y 0.000000 3.173120 0.000000 
#    z 0.000000 0.000000 3.640500 
# 
# 
# High freq. dielectric constant tensor:
#      x y z
#    x 1.711460 0.000000 0.000000 
#    y 0.000000 1.693740 0.000000 
#    z 0.000000 0.000000 1.742990 
# 
# From -- ./inp_files/34421.got.cif
#   From: 2010.03.12/outbox.cif.g09.slc.cpg/sg67_18_cif.got.tgz:34421.got - 2010.04.10 22:41:39.
