data_PCOD8278595
_publ_section_title
;
Structure prediction by ZEFSAII (Michael W. Deem and Ramdas Pophale) SiO2 
 PCOD8278595
Probable space group: C M M A
;
_chemical_formula_sum "Si O2"
_cell_formula_units_Z 120
_cell_length_a 9.080743
_cell_length_b 26.997762
_cell_length_c 28.869313
_cell_angle_alpha 90.000000
_cell_angle_beta 90.000000
_cell_angle_gamma 90.000000
_cell_volume 7077.593220
_symmetry_space_group_name_H-M "C M M A"
_symmetry_group_IT_number 67
_symmetry_cell_setting 'orthorhombic'
loop_
_space_group_symop_operation_xyz
x,y,z
-x,1/2-y,z
x,-y,-z
-x,1/2+y,-z
-x,-y,-z
x,1/2+y,-z
-x,y,z
x,1/2-y,z
1/2+x,1/2+y,z
1/2-x,-y,z
1/2+x,1/2-y,-z
1/2-x,y,-z
1/2-x,1/2-y,-z
1/2+x,y,-z
1/2-x,1/2+y,z
1/2+x,-y,z
loop_
_atom_site_type_symbol
_atom_site_label
_atom_site_fract_x
_atom_site_fract_y
_atom_site_fract_z
Si Si1 0.828025 0.604595 0.356395
Si Si2 0.667217 0.693811 0.314678
Si Si3 0.671680 0.142516 0.451771
Si Si4 0.333729 0.145893 0.779781
Si Si5 0.327262 0.692997 0.862916
Si Si6 0.172802 0.450396 0.278443
Si Si7 0.328516 0.250000 0.452083
Si Si8 0.334100 0.691081 0.044769
O O1 0.785410 0.659178 0.339064
O O2 0.791813 0.602444 0.411596
O O3 0.735711 0.563069 0.329357
O O4 0.000000 0.596046 0.346845
O O5 0.500000 0.679259 0.329560
O O6 0.704365 0.750000 0.328509
O O7 0.680546 0.687954 0.259309
O O8 0.500000 0.142260 0.463275
O O9 0.750000 0.128885 0.500000
O O10 0.717774 0.196907 0.429768
O O11 0.500000 0.144399 0.799415
O O12 0.222551 0.158400 0.820818
O O13 0.290174 0.092839 0.757940
O O14 0.500000 0.687428 0.870299
O O15 0.283269 0.750000 0.852788
O O16 0.248676 0.673156 0.909128
O O17 0.250000 0.500000 0.259988
O O18 0.000000 0.458919 0.283586
O O19 0.500000 0.250000 0.460727
O O20 0.250000 0.250000 0.500000
O O21 0.500000 0.670188 0.045176
O O22 0.334497 0.750000 0.042450
O O23 0.250000 0.669325 0.000000
#
# Coordination Sequence:
#
# PCOD8278595 Si02
#       8
#    16  16  16  16  16  16   8  16
#     4  10  20  32  49  73  97 123 155 190 231 279
#     4   9  18  31  45  64  93 128 162 195 231 274
#     4   9  18  30  46  66  93 125 157 191 225 265
#     4   9  18  32  48  67  92 121 154 191 234 284
#     4  10  19  28  41  65  97 132 169 205 239 278
#     4  10  21  38  58  76  95 119 150 191 239 291
#     4   8  14  26  40  58  86 120 156 186 214 248
#     4   9  16  26  40  58  85 125 171 213 249 282
#
# _framework density 16.954916999999998
#
# number of rings (size 3 to 8) (size 9 to 14) (size 15 to 20)
#    0.000    2.667    0.000    2.800    0.933    6.933 
#    0.000    0.000    0.000    0.400    0.000    2.800 
#    0.000    0.533    0.000    5.600    0.000    3.333 
#
# Total GULP energy -743615.328350 kJ/mol
# GULP energy per Si atom -12393.588806 kJ/mol
# Density = 1.691633 g / cm^3
# Si number density = 16.954917 Si / 1000 Ang^3
#
#
#
# Elastic Constant Matrix: (Units=GPa)
#
#
# Indices 1 2 3 4 5 6 
#
# 1 82.7817 27.3486 46.2668 0.0000 0.0000 0.0000
# 2 27.3486 53.3022 23.8075 0.0000 0.0000 0.0000
# 3 46.2668 23.8075 93.8049 0.0000 0.0000 0.0000
# 4 0.0000 0.0000 0.0000 12.3099 0.0000 0.0000
# 5 0.0000 0.0000 0.0000 0.0000 31.7916 0.0000
# 6 0.0000 0.0000 0.0000 0.0000 0.0000 23.5805
#
#
#
# Elastic Compliance Matrix: (Units=1/GPa)
#
#
# Indices 1 2 3 4 5 6 
#
# 1 0.018245 -0.006025 -0.007470 0.000000 0.000000 0.000000
# 2 -0.006025 0.023149 -0.002904 0.000000 0.000000 0.000000
# 3 -0.007470 -0.002904 0.015082 0.000000 0.000000 0.000000
# 4 0.000000 0.000000 0.000000 0.081236 0.000000 0.000000
# 5 0.000000 0.000000 0.000000 0.000000 0.031455 0.000000
# 6 0.000000 0.000000 0.000000 0.000000 0.000000 0.042408
#
#
# Mechanical properties :
#
#
# Convention : Reuss Voigt Hill
#
# Bulk Modulus (GPa) = 42.23100 47.19274 44.71187
# Shear Modulus (GPa) = 19.82047 22.36746 21.09397
#
# Velocity S-wave (km/s) = 3.42279 3.63606 3.53104
# Velocity P-wave (km/s) = 6.37044 6.74705 6.56145
#
# Compressibility (1/GPa) = 0.02367929
#
# Stress axis : x y z
#
# Youngs Moduli (GPa) = 54.80844 43.19813 66.30564
#
# Poissons Ratio (x) = 0.26027 0.49530
# Poissons Ratio (y) = 0.33022 0.19252
# Poissons Ratio (z) = 0.40941 0.12543
#
# Static dielectric constant tensor:
#      x y z
#    x 3.203720 0.000000 0.000000 
#    y 0.000000 2.749430 0.000000 
#    z 0.000000 0.000000 3.106980 
# 
# 
# High freq. dielectric constant tensor:
#      x y z
#    x 1.664150 0.000000 0.000000 
#    y 0.000000 1.610570 0.000000 
#    z 0.000000 0.000000 1.647510 
# 
# From -- ./inp_files/43946.got.cif
#   From: 2010.03.12/outbox.cif.g09.slc.cpg/sg67_22_cif.got.tgz:43946.got - 2010.04.10 22:41:39.
