data_PCOD8278205
_publ_section_title
;
Structure prediction by ZEFSAII (Michael W. Deem and Ramdas Pophale) SiO2 
 PCOD8278205
Probable space group: C M M A
;
_chemical_formula_sum "Si O2"
_cell_formula_units_Z 112
_cell_length_a 10.130562
_cell_length_b 17.929936
_cell_length_c 34.945953
_cell_angle_alpha 90.000000
_cell_angle_beta 90.000000
_cell_angle_gamma 90.000000
_cell_volume 6347.594376
_symmetry_space_group_name_H-M "C M M A"
_symmetry_group_IT_number 67
_symmetry_cell_setting 'orthorhombic'
loop_
_space_group_symop_operation_xyz
x,y,z
-x,1/2-y,z
x,-y,-z
-x,1/2+y,-z
-x,-y,-z
x,1/2+y,-z
-x,y,z
x,1/2-y,z
1/2+x,1/2+y,z
1/2-x,-y,z
1/2+x,1/2-y,-z
1/2-x,y,-z
1/2-x,1/2-y,-z
1/2+x,y,-z
1/2-x,1/2+y,z
1/2+x,-y,z
loop_
_atom_site_type_symbol
_atom_site_label
_atom_site_fract_x
_atom_site_fract_y
_atom_site_fract_z
Si Si1 0.846671 0.831751 0.676720
Si Si2 0.154155 0.069852 0.108080
Si Si3 0.848783 0.438946 0.389247
Si Si4 0.345415 0.667151 0.179054
Si Si5 0.640626 0.421464 0.522879
Si Si6 0.656556 0.929256 0.252800
Si Si7 0.149404 0.163829 0.032184
O O1 0.778356 0.750000 0.679509
O O2 0.822595 0.863088 0.633997
O O3 0.793412 0.888992 0.708460
O O4 0.000000 0.821758 0.685081
O O5 0.207209 0.118011 0.143845
O O6 0.173930 0.118442 0.070454
O O7 0.000000 0.045912 0.113108
O O8 0.250000 0.000000 0.104792
O O9 0.750000 0.500000 0.371756
O O10 0.813450 0.428678 0.433583
O O11 0.000000 0.466064 0.384161
O O12 0.500000 0.676360 0.173930
O O13 0.280477 0.750000 0.178793
O O14 0.311415 0.627224 0.218679
O O15 0.629962 0.500000 0.500000
O O16 0.500000 0.380066 0.521492
O O17 0.750000 0.372786 0.500000
O O18 0.500000 0.951103 0.253937
O O19 0.750000 0.000000 0.246864
O O20 0.177293 0.250000 0.041717
O O21 0.000000 0.152404 0.017094
O O22 0.250000 0.134158 0.000000
#
# Coordination Sequence:
#
# PCOD8278205 Si02
#       7
#    16  16  16  16  16  16  16
#     4   9  18  32  49  70  96 126 162 198 231 277
#     4  10  20  33  50  73 101 131 165 206 248 292
#     4  10  18  28  46  70  93 119 153 194 238 277
#     4   9  17  31  53  77  99 129 168 203 237 283
#     4   9  15  24  39  63  89 114 146 187 231 274
#     4  10  19  32  53  78 102 127 158 198 241 283
#     4   9  18  33  52  72  95 127 167 209 252 298
#
# _framework density 17.644480000000001
#
# number of rings (size 3 to 8) (size 9 to 14) (size 15 to 20)
#    0.000    2.571    1.429    1.714    0.000    4.286 
#    0.000    1.429    0.000    5.571    0.000    0.000 
#    0.000    0.000    0.000    0.000    0.000    0.000 
#
# Total GULP energy -693931.017425 kJ/mol
# GULP energy per Si atom -12391.625311 kJ/mol
# Density = 1.760432 g / cm^3
# Si number density = 17.644480 Si / 1000 Ang^3
#
#
#
# Elastic Constant Matrix: (Units=GPa)
#
#
# Indices 1 2 3 4 5 6 
#
# 1 73.9522 42.7526 37.4963 0.0000 0.0000 0.0000
# 2 42.7526 84.2598 41.1379 0.0000 0.0000 0.0000
# 3 37.4963 41.1379 119.4652 0.0000 0.0000 0.0000
# 4 0.0000 0.0000 0.0000 8.7116 0.0000 0.0000
# 5 0.0000 0.0000 0.0000 0.0000 11.6959 0.0000
# 6 0.0000 0.0000 0.0000 0.0000 0.0000 -0.9671
#
#
#
# Elastic Compliance Matrix: (Units=1/GPa)
#
#
# Indices 1 2 3 4 5 6 
#
# 1 0.020210 -0.008604 -0.003381 0.000000 0.000000 0.000000
# 2 -0.008604 0.017930 -0.003473 0.000000 0.000000 0.000000
# 3 -0.003381 -0.003473 0.010628 0.000000 0.000000 0.000000
# 4 0.000000 0.000000 0.000000 0.114789 0.000000 0.000000
# 5 0.000000 0.000000 0.000000 0.000000 0.085500 0.000000
# 6 0.000000 0.000000 0.000000 0.000000 0.000000 -1.034039
#
#
# Mechanical properties :
#
#
# Convention : Reuss Voigt Hill
#
# Bulk Modulus (GPa) = 56.01790 57.82785 56.92287
# Shear Modulus (GPa) = -6.68346 14.30746 3.81200
#
# Velocity S-wave (km/s) = -1.94835 2.85068 1.47144
# Velocity P-wave (km/s) = 5.17258 6.60910 5.93447
#
# Compressibility (1/GPa) = 0.01785144
#
# Stress axis : x y z
#
# Youngs Moduli (GPa) = 49.47942 55.77392 94.09295
#
# Poissons Ratio (x) = 0.47988 0.31809
# Poissons Ratio (y) = 0.42572 0.32683
# Poissons Ratio (z) = 0.16727 0.19373
#
# Static dielectric constant tensor:
#      x y z
#    x 3.878450 0.000000 0.000000 
#    y 0.000000 3.223490 0.000000 
#    z 0.000000 0.000000 3.414450 
# 
# 
# High freq. dielectric constant tensor:
#      x y z
#    x 1.659620 0.000000 0.000000 
#    y 0.000000 1.662150 0.000000 
#    z 0.000000 0.000000 1.699570 
# 
# From -- ./inp_files/45561.got.cif
#   From: 2010.03.12/outbox.cif.g09.slc.cpg/sg67_23_cif.got.tgz:45561.got - 2010.04.10 22:41:39.
