data_PCOD8278780
_publ_section_title
;
Structure prediction by ZEFSAII (Michael W. Deem and Ramdas Pophale) SiO2 
 PCOD8278780
Probable space group: C M M A
;
_chemical_formula_sum "Si O2"
_cell_formula_units_Z 120
_cell_length_a 26.483336
_cell_length_b 9.069266
_cell_length_c 29.167630
_cell_angle_alpha 90.000000
_cell_angle_beta 90.000000
_cell_angle_gamma 90.000000
_cell_volume 7005.610258
_symmetry_space_group_name_H-M "C M M A"
_symmetry_group_IT_number 67
_symmetry_cell_setting 'orthorhombic'
loop_
_space_group_symop_operation_xyz
x,y,z
-x,1/2-y,z
x,-y,-z
-x,1/2+y,-z
-x,-y,-z
x,1/2+y,-z
-x,y,z
x,1/2-y,z
1/2+x,1/2+y,z
1/2-x,-y,z
1/2+x,1/2-y,-z
1/2-x,y,-z
1/2-x,1/2-y,-z
1/2+x,y,-z
1/2-x,1/2+y,z
1/2+x,-y,z
loop_
_atom_site_type_symbol
_atom_site_label
_atom_site_fract_x
_atom_site_fract_y
_atom_site_fract_z
Si Si1 0.698255 0.424009 0.118166
Si Si2 0.799185 0.920545 0.224014
Si Si3 0.602319 0.419838 0.279258
Si Si4 0.000000 0.924460 0.951283
Si Si5 0.942658 0.585496 0.186189
Si Si6 0.939898 0.916301 0.455559
Si Si7 0.599149 0.076847 0.895203
Si Si8 0.941811 0.422923 0.364321
O O1 0.701550 0.250000 0.109037
O O2 0.750000 0.500000 0.100670
O O3 0.689484 0.464922 0.171494
O O4 0.650555 0.491981 0.089992
O O5 0.787886 0.750000 0.226841
O O6 0.844817 0.966666 0.256800
O O7 0.750000 0.000000 0.243377
O O8 0.601776 0.250000 0.295557
O O9 0.560273 0.448745 0.240240
O O10 0.591754 0.523802 0.322058
O O11 0.051135 0.975295 0.925358
O O12 0.000000 0.750000 0.956934
O O13 0.000000 0.000000 0.000000
O O14 0.919158 0.750000 0.177319
O O15 0.912289 0.465149 0.157421
O O16 0.000000 0.581506 0.170193
O O17 0.918888 0.750000 0.455257
O O18 0.000000 0.917224 0.457438
O O19 0.917864 0.000000 0.500000
O O20 0.921095 0.998899 0.410005
O O21 0.608548 0.250000 0.899203
O O22 0.935229 0.250000 0.371068
O O23 0.000000 0.466088 0.355209
#
# Coordination Sequence:
#
# PCOD8278780 Si02
#       8
#    16  16  16   8  16  16  16  16
#     4  10  19  34  54  80 108 139 176 215 259 307
#     4   9  18  31  47  67  94 125 164 205 243 289
#     4  10  19  32  46  64  93 130 168 203 241 292
#     4  10  24  42  60  84 112 142 178 218 265 312
#     4  10  19  31  48  70  98 136 175 208 246 297
#     4   9  16  27  44  63  84 115 155 200 247 293
#     4  11  21  35  54  80 110 138 171 215 258 306
#     4  10  20  31  42  62  92 126 164 203 245 293
#
# _framework density 17.129128000000001
#
# number of rings (size 3 to 8) (size 9 to 14) (size 15 to 20)
#    0.000    2.133    2.000    2.000    0.000    5.600 
#    0.000    0.000    0.000    0.400    0.000    2.800 
#    0.000    0.533    0.000    5.600    0.000    3.333 
#
# Total GULP energy -743930.330456 kJ/mol
# GULP energy per Si atom -12398.838841 kJ/mol
# Density = 1.709014 g / cm^3
# Si number density = 17.129128 Si / 1000 Ang^3
#
#
#
# Elastic Constant Matrix: (Units=GPa)
#
#
# Indices 1 2 3 4 5 6 
#
# 1 106.9969 49.4925 37.8137 0.0000 0.0000 0.0000
# 2 49.4925 81.3172 36.9450 0.0000 0.0000 0.0000
# 3 37.8137 36.9450 74.0543 0.0000 0.0000 0.0000
# 4 0.0000 0.0000 0.0000 28.7277 0.0000 0.0000
# 5 0.0000 0.0000 0.0000 0.0000 11.3242 0.0000
# 6 0.0000 0.0000 0.0000 0.0000 0.0000 28.5473
#
#
#
# Elastic Compliance Matrix: (Units=1/GPa)
#
#
# Indices 1 2 3 4 5 6 
#
# 1 0.013742 -0.006693 -0.003678 0.000000 0.000000 0.000000
# 2 -0.006693 0.019161 -0.006142 0.000000 0.000000 0.000000
# 3 -0.003678 -0.006142 0.018446 0.000000 0.000000 0.000000
# 4 0.000000 0.000000 0.000000 0.034810 0.000000 0.000000
# 5 0.000000 0.000000 0.000000 0.000000 0.088306 0.000000
# 6 0.000000 0.000000 0.000000 0.000000 0.000000 0.035030
#
#
# Mechanical properties :
#
#
# Convention : Reuss Voigt Hill
#
# Bulk Modulus (GPa) = 54.57402 56.76341 55.66871
# Shear Modulus (GPa) = 20.11044 22.92767 21.51906
#
# Velocity S-wave (km/s) = 3.43016 3.66255 3.54826
# Velocity P-wave (km/s) = 6.90054 7.14816 7.02544
#
# Compressibility (1/GPa) = 0.01832374
#
# Stress axis : x y z
#
# Youngs Moduli (GPa) = 72.77173 52.18817 54.21295
#
# Poissons Ratio (x) = 0.34928 0.19939
# Poissons Ratio (y) = 0.48704 0.33298
# Poissons Ratio (z) = 0.26764 0.32054
#
# Static dielectric constant tensor:
#      x y z
#    x 3.221880 0.000000 0.000000 
#    y 0.000000 3.213920 0.000000 
#    z 0.000000 0.000000 3.017970 
# 
# 
# High freq. dielectric constant tensor:
#      x y z
#    x 1.643440 0.000000 0.000000 
#    y 0.000000 1.667470 0.000000 
#    z 0.000000 0.000000 1.636990 
# 
# From -- ./inp_files/44998.got.cif
#   From: 2010.03.12/outbox.cif.g09.slc.cpg/sg67_23_cif.got.tgz:44998.got - 2010.04.10 22:41:39.
