data_PCOD8278544
_publ_section_title
;
Structure prediction by ZEFSAII (Michael W. Deem and Ramdas Pophale) SiO2 
 PCOD8278544
Probable space group: C M M A
;
_chemical_formula_sum "Si O2"
_cell_formula_units_Z 64
_cell_length_a 24.764475
_cell_length_b 8.557781
_cell_length_c 14.957004
_cell_angle_alpha 90.000000
_cell_angle_beta 90.000000
_cell_angle_gamma 90.000000
_cell_volume 3169.822207
_symmetry_space_group_name_H-M "C M M A"
_symmetry_group_IT_number 67
_symmetry_cell_setting 'orthorhombic'
loop_
_space_group_symop_operation_xyz
x,y,z
-x,1/2-y,z
x,-y,-z
-x,1/2+y,-z
-x,-y,-z
x,1/2+y,-z
-x,y,z
x,1/2-y,z
1/2+x,1/2+y,z
1/2-x,-y,z
1/2+x,1/2-y,-z
1/2-x,y,-z
1/2-x,1/2-y,-z
1/2+x,y,-z
1/2-x,1/2+y,z
1/2+x,-y,z
loop_
_atom_site_type_symbol
_atom_site_label
_atom_site_fract_x
_atom_site_fract_y
_atom_site_fract_z
Si Si1 0.500000 0.566015 0.097365
Si Si2 0.610251 0.065041 0.400628
Si Si3 0.809786 0.064239 0.258622
Si Si4 0.000000 0.935378 0.599505
Si Si5 0.383511 0.065285 0.901595
O O1 0.500000 0.750000 0.094752
O O2 0.557495 0.510542 0.138890
O O3 0.500000 0.500000 0.000000
O O4 0.607304 0.250000 0.404407
O O5 0.617657 0.000000 0.500000
O O6 0.661025 0.009133 0.343890
O O7 0.554909 0.998910 0.354901
O O8 0.810476 0.250000 0.267204
O O9 0.838853 0.005392 0.167960
O O10 0.750000 0.000000 0.255764
O O11 0.000000 0.750000 0.603021
O O12 0.000000 0.000000 0.500000
O O13 0.381594 0.250000 0.909996
O O14 0.371218 0.000000 0.000000
#
# Coordination Sequence:
#
# PCOD8278544 Si02
#       5
#     8  16  16   8  16
#     4   8  14  29  52  81 110 140 176 221 275 337
#     4  11  22  39  62  89 119 153 191 237 289 346
#     4  11  24  41  58  82 113 152 199 247 292 344
#     4  10  18  33  58  89 122 154 188 231 282 343
#     4   9  19  35  58  84 114 148 186 231 287 346
#
# _framework density 20.190407
#
# number of rings (size 3 to 8) (size 9 to 14) (size 15 to 20)
#    0.000    2.000    0.000    5.625    0.000    4.000 
#    0.000    7.500    0.000    3.000    0.000    0.000 
#    0.000    0.000    0.000    0.000    0.000    0.000 
#
# Total GULP energy -396534.002175 kJ/mol
# GULP energy per Si atom -12391.687568 kJ/mol
# Density = 2.014445 g / cm^3
# Si number density = 20.190407 Si / 1000 Ang^3
#
#
#
# Elastic Constant Matrix: (Units=GPa)
#
#
# Indices 1 2 3 4 5 6 
#
# 1 213.2400 62.2337 83.8085 0.0000 0.0000 0.0000
# 2 62.2337 118.1539 42.2956 0.0000 0.0000 0.0000
# 3 83.8085 42.2956 106.0147 0.0000 0.0000 0.0000
# 4 0.0000 0.0000 0.0000 26.0219 0.0000 0.0000
# 5 0.0000 0.0000 0.0000 0.0000 49.2014 0.0000
# 6 0.0000 0.0000 0.0000 0.0000 0.0000 22.4045
#
#
#
# Elastic Compliance Matrix: (Units=1/GPa)
#
#
# Indices 1 2 3 4 5 6 
#
# 1 0.007205 -0.002049 -0.004878 0.000000 0.000000 0.000000
# 2 -0.002049 0.010456 -0.002552 0.000000 0.000000 0.000000
# 3 -0.004878 -0.002552 0.014307 0.000000 0.000000 0.000000
# 4 0.000000 0.000000 0.000000 0.038429 0.000000 0.000000
# 5 0.000000 0.000000 0.000000 0.000000 0.020325 0.000000
# 6 0.000000 0.000000 0.000000 0.000000 0.000000 0.044634
#
#
# Mechanical properties :
#
#
# Convention : Reuss Voigt Hill
#
# Bulk Modulus (GPa) = 76.86267 90.45380 83.65824
# Shear Modulus (GPa) = 31.51582 36.13029 33.82305
#
# Velocity S-wave (km/s) = 3.95515 4.23481 4.09737
# Velocity P-wave (km/s) = 7.68174 8.29513 7.99432
#
# Compressibility (1/GPa) = 0.01301022
#
# Stress axis : x y z
#
# Youngs Moduli (GPa) = 138.79822 95.63761 69.89437
#
# Poissons Ratio (x) = 0.19592 0.34096
# Poissons Ratio (y) = 0.28434 0.17838
# Poissons Ratio (z) = 0.67710 0.24408
#
# Static dielectric constant tensor:
#      x y z
#    x 4.569760 0.000000 0.000000 
#    y 0.000000 3.820100 0.000000 
#    z 0.000000 0.000000 3.592590 
# 
# 
# High freq. dielectric constant tensor:
#      x y z
#    x 1.805920 0.000000 0.000000 
#    y 0.000000 1.792520 0.000000 
#    z 0.000000 0.000000 1.774350 
# 
# From -- ./inp_files/24853.got.cif
#   From: 2010.03.12/outbox.cif.g09.slc.cpg/sg67_13_cif.got.tgz:24853.got - 2010.04.10 22:41:39.
