data_PCOD8278386
_publ_section_title
;
Structure prediction by ZEFSAII (Michael W. Deem and Ramdas Pophale) SiO2 
 PCOD8278386
Probable space group: C M M A
;
_chemical_formula_sum "Si O2"
_cell_formula_units_Z 112
_cell_length_a 21.660566
_cell_length_b 25.796593
_cell_length_c 11.119321
_cell_angle_alpha 90.000000
_cell_angle_beta 90.000000
_cell_angle_gamma 90.000000
_cell_volume 6213.129710
_symmetry_space_group_name_H-M "C M M A"
_symmetry_group_IT_number 67
_symmetry_cell_setting 'orthorhombic'
loop_
_space_group_symop_operation_xyz
x,y,z
-x,1/2-y,z
x,-y,-z
-x,1/2+y,-z
-x,-y,-z
x,1/2+y,-z
-x,y,z
x,1/2-y,z
1/2+x,1/2+y,z
1/2-x,-y,z
1/2+x,1/2-y,-z
1/2-x,y,-z
1/2-x,1/2-y,-z
1/2+x,y,-z
1/2-x,1/2+y,z
1/2+x,-y,z
loop_
_atom_site_type_symbol
_atom_site_label
_atom_site_fract_x
_atom_site_fract_y
_atom_site_fract_z
Si Si1 0.191088 0.809990 0.418373
Si Si2 0.568003 0.014782 0.861146
Si Si3 0.069980 0.632821 0.815835
Si Si4 0.331026 0.809081 0.065700
Si Si5 0.283845 0.854811 0.833367
Si Si6 0.070612 0.190520 0.426531
Si Si7 0.691406 0.526937 0.869273
O O1 0.197508 0.750000 0.381789
O O2 0.250000 0.825849 0.500000
O O3 0.192436 0.845660 0.300589
O O4 0.123939 0.820933 0.476144
O O5 0.500000 0.003966 0.801153
O O6 0.588723 0.073695 0.838878
O O7 0.625014 0.982174 0.803037
O O8 0.562044 0.000000 0.000000
O O9 0.100792 0.670341 0.913017
O O10 0.085067 0.650903 0.680698
O O11 0.000000 0.641203 0.846982
O O12 0.323921 0.750000 0.104963
O O13 0.289006 0.843993 0.155144
O O14 0.315707 0.814758 0.925247
O O15 0.298177 0.912269 0.878661
O O16 0.076934 0.250000 0.381409
O O17 0.000000 0.181568 0.476233
O O18 0.750000 0.500000 0.800964
O O19 0.686848 0.500000 0.000000
#
# Coordination Sequence:
#
# PCOD8278386 Si02
#       7
#    16  16  16  16  16  16  16
#     4  10  20  35  55  77 102 137 180 219 257 308
#     4   9  17  30  48  72 101 132 169 212 258 309
#     4  10  19  32  53  79 106 137 176 219 263 316
#     4  11  20  31  49  76 112 141 164 207 268 329
#     4  11  21  34  52  77 106 137 175 217 264 318
#     4   9  18  33  53  76 103 138 179 219 257 303
#     4  10  18  31  51  73  98 130 170 211 256 312
#
# _framework density 18.026340999999999
#
# number of rings (size 3 to 8) (size 9 to 14) (size 15 to 20)
#    0.000    2.000    0.000    7.286    0.000    2.000 
#    0.000    1.429    0.000    4.714    0.000    3.000 
#    0.000    0.000    0.000    0.000    0.000    0.000 
#
# Total GULP energy -693930.812530 kJ/mol
# GULP energy per Si atom -12391.621652 kJ/mol
# Density = 1.798531 g / cm^3
# Si number density = 18.026341 Si / 1000 Ang^3
#
#
#
# Elastic Constant Matrix: (Units=GPa)
#
#
# Indices 1 2 3 4 5 6 
#
# 1 117.8951 45.7719 19.9507 0.0000 0.0000 0.0000
# 2 45.7719 117.6474 31.9667 0.0000 0.0000 0.0000
# 3 19.9507 31.9667 55.4080 0.0000 0.0000 0.0000
# 4 0.0000 0.0000 0.0000 21.6250 0.0000 0.0000
# 5 0.0000 0.0000 0.0000 0.0000 17.0856 0.0000
# 6 0.0000 0.0000 0.0000 0.0000 0.0000 28.3539
#
#
#
# Elastic Compliance Matrix: (Units=1/GPa)
#
#
# Indices 1 2 3 4 5 6 
#
# 1 0.010113 -0.003493 -0.001626 0.000000 0.000000 0.000000
# 2 -0.003493 0.011286 -0.005254 0.000000 0.000000 0.000000
# 3 -0.001626 -0.005254 0.021665 0.000000 0.000000 0.000000
# 4 0.000000 0.000000 0.000000 0.046243 0.000000 0.000000
# 5 0.000000 0.000000 0.000000 0.000000 0.058529 0.000000
# 6 0.000000 0.000000 0.000000 0.000000 0.000000 0.035269
#
#
# Mechanical properties :
#
#
# Convention : Reuss Voigt Hill
#
# Bulk Modulus (GPa) = 44.80614 54.03656 49.42135
# Shear Modulus (GPa) = 23.66414 26.29699 24.98056
#
# Velocity S-wave (km/s) = 3.62712 3.82358 3.72665
# Velocity P-wave (km/s) = 6.51546 7.03808 6.78181
#
# Compressibility (1/GPa) = 0.02231837
#
# Stress axis : x y z
#
# Youngs Moduli (GPa) = 98.87879 88.60194 46.15809
#
# Poissons Ratio (x) = 0.30947 0.07507
# Poissons Ratio (y) = 0.34536 0.24251
# Poissons Ratio (z) = 0.16082 0.46550
#
# Static dielectric constant tensor:
#      x y z
#    x 4.186870 0.000000 0.000000 
#    y 0.000000 3.543050 0.000000 
#    z 0.000000 0.000000 2.976750 
# 
# 
# High freq. dielectric constant tensor:
#      x y z
#    x 1.725360 0.000000 0.000000 
#    y 0.000000 1.697480 0.000000 
#    z 0.000000 0.000000 1.649140 
# 
# From -- ./inp_files/21109.got.cif
#   From: 2010.03.12/outbox.cif.g09.slc.cpg/sg67_11_cif.got.tgz:21109.got - 2010.04.10 22:41:39.
