data_PCOD8278660
_publ_section_title
;
Structure prediction by ZEFSAII (Michael W. Deem and Ramdas Pophale) SiO2 
 PCOD8278660
Probable space group: C M M A
;
_chemical_formula_sum "Si O2"
_cell_formula_units_Z 96
_cell_length_a 27.279624
_cell_length_b 8.835353
_cell_length_c 23.851293
_cell_angle_alpha 90.000000
_cell_angle_beta 90.000000
_cell_angle_gamma 90.000000
_cell_volume 5748.760465
_symmetry_space_group_name_H-M "C M M A"
_symmetry_group_IT_number 67
_symmetry_cell_setting 'orthorhombic'
loop_
_space_group_symop_operation_xyz
x,y,z
-x,1/2-y,z
x,-y,-z
-x,1/2+y,-z
-x,-y,-z
x,1/2+y,-z
-x,y,z
x,1/2-y,z
1/2+x,1/2+y,z
1/2-x,-y,z
1/2+x,1/2-y,-z
1/2-x,y,-z
1/2-x,1/2-y,-z
1/2+x,y,-z
1/2-x,1/2+y,z
1/2+x,-y,z
loop_
_atom_site_type_symbol
_atom_site_label
_atom_site_fract_x
_atom_site_fract_y
_atom_site_fract_z
Si Si1 0.198276 0.929268 0.829081
Si Si2 0.058192 0.420251 0.555507
Si Si3 0.147880 0.574069 0.942156
Si Si4 0.057368 0.073689 0.330056
Si Si5 0.893709 0.071572 0.774776
Si Si6 0.055178 0.074179 0.124263
O O1 0.200327 0.750000 0.823315
O O2 0.183919 0.978835 0.892373
O O3 0.250000 0.000000 0.812830
O O4 0.158157 0.992037 0.786146
O O5 0.079952 0.500000 0.500000
O O6 0.079289 0.250000 0.560247
O O7 0.074603 0.518447 0.608888
O O8 0.000000 0.414665 0.551479
O O9 0.152176 0.750000 0.951968
O O10 0.092164 0.527545 0.925626
O O11 0.164281 0.500000 0.000000
O O12 0.069550 0.250000 0.323436
O O13 0.000000 0.041809 0.320736
O O14 0.087887 0.977134 0.285891
O O15 0.886610 0.250000 0.777207
O O16 0.934081 0.021853 0.820327
O O17 0.063206 0.250000 0.140146
O O18 0.000000 0.041741 0.103671
#
# Coordination Sequence:
#
# PCOD8278660 Si02
#       6
#    16  16  16  16  16  16
#     4  10  21  38  56  73  93 118 148 185 234 286
#     4   9  16  26  40  60  89 126 167 206 240 276
#     4   9  19  33  49  70  95 121 151 187 226 274
#     4  10  19  30  45  66  95 132 168 201 238 277
#     4  11  21  32  48  71  96 121 154 195 236 281
#     4   9  18  33  49  65  91 127 160 191 231 275
#
# _framework density 16.699252000000001
#
# number of rings (size 3 to 8) (size 9 to 14) (size 15 to 20)
#    0.000    2.333    0.000    4.500    0.000    9.333 
#    0.000    1.667    0.000    0.000    0.000    0.000 
#    0.000    0.667    0.000    6.667    0.000    4.333 
#
# Total GULP energy -595238.257533 kJ/mol
# GULP energy per Si atom -12400.797032 kJ/mol
# Density = 1.666124 g / cm^3
# Si number density = 16.699252 Si / 1000 Ang^3
#
#
#
# Elastic Constant Matrix: (Units=GPa)
#
#
# Indices 1 2 3 4 5 6 
#
# 1 69.5803 29.0524 20.4653 0.0000 0.0000 0.0000
# 2 29.0524 81.9012 30.8651 0.0000 0.0000 0.0000
# 3 20.4653 30.8651 93.7123 0.0000 0.0000 0.0000
# 4 0.0000 0.0000 0.0000 32.4704 0.0000 0.0000
# 5 0.0000 0.0000 0.0000 0.0000 9.9037 0.0000
# 6 0.0000 0.0000 0.0000 0.0000 0.0000 21.9501
#
#
#
# Elastic Compliance Matrix: (Units=1/GPa)
#
#
# Indices 1 2 3 4 5 6 
#
# 1 0.017191 -0.005347 -0.001993 0.000000 0.000000 0.000000
# 2 -0.005347 0.015603 -0.003971 0.000000 0.000000 0.000000
# 3 -0.001993 -0.003971 0.012414 0.000000 0.000000 0.000000
# 4 0.000000 0.000000 0.000000 0.030797 0.000000 0.000000
# 5 0.000000 0.000000 0.000000 0.000000 0.100973 0.000000
# 6 0.000000 0.000000 0.000000 0.000000 0.000000 0.045558
#
#
# Mechanical properties :
#
#
# Convention : Reuss Voigt Hill
#
# Bulk Modulus (GPa) = 44.27655 45.10660 44.69158
# Shear Modulus (GPa) = 19.78734 23.85223 21.81978
#
# Velocity S-wave (km/s) = 3.44601 3.78344 3.61866
# Velocity P-wave (km/s) = 6.51191 6.79380 6.65435
#
# Compressibility (1/GPa) = 0.02258532
#
# Stress axis : x y z
#
# Youngs Moduli (GPa) = 58.17126 64.08978 80.55261
#
# Poissons Ratio (x) = 0.34268 0.16055
# Poissons Ratio (y) = 0.31103 0.31991
# Poissons Ratio (z) = 0.11594 0.25453
#
# Static dielectric constant tensor:
#      x y z
#    x 2.951400 0.000000 0.000000 
#    y 0.000000 3.219230 0.000000 
#    z 0.000000 0.000000 3.154250 
# 
# 
# High freq. dielectric constant tensor:
#      x y z
#    x 1.609690 0.000000 0.000000 
#    y 0.000000 1.655600 0.000000 
#    z 0.000000 0.000000 1.638430 
# 
# From -- ./inp_files/37137.got.cif
#   From: 2010.03.12/outbox.cif.g09.slc.cpg/sg67_19_cif.got.tgz:37137.got - 2010.04.10 22:41:39.
