data_PCOD8278043
_publ_section_title
;
Structure prediction by ZEFSAII (Michael W. Deem and Ramdas Pophale) SiO2 
 PCOD8278043
Probable space group: C M M A
;
_chemical_formula_sum "Si O2"
_cell_formula_units_Z 96
_cell_length_a 19.615470
_cell_length_b 8.650554
_cell_length_c 31.396879
_cell_angle_alpha 90.000000
_cell_angle_beta 90.000000
_cell_angle_gamma 90.000000
_cell_volume 5327.569444
_symmetry_space_group_name_H-M "C M M A"
_symmetry_group_IT_number 67
_symmetry_cell_setting 'orthorhombic'
loop_
_space_group_symop_operation_xyz
x,y,z
-x,1/2-y,z
x,-y,-z
-x,1/2+y,-z
-x,-y,-z
x,1/2+y,-z
-x,y,z
x,1/2-y,z
1/2+x,1/2+y,z
1/2-x,-y,z
1/2+x,1/2-y,-z
1/2-x,y,-z
1/2-x,1/2-y,-z
1/2+x,y,-z
1/2-x,1/2+y,z
1/2+x,-y,z
loop_
_atom_site_type_symbol
_atom_site_label
_atom_site_fract_x
_atom_site_fract_y
_atom_site_fract_z
Si Si1 0.174100 0.566041 0.457462
Si Si2 0.676198 0.434114 0.044869
Si Si3 0.576365 0.431588 0.703558
Si Si4 0.325285 0.434235 0.629313
Si Si5 0.076059 0.565640 0.118080
Si Si6 0.918977 0.421287 0.789388
O O1 0.136435 0.500000 0.500000
O O2 0.173765 0.750000 0.458016
O O3 0.250000 0.500000 0.457480
O O4 0.140493 0.501456 0.414084
O O5 0.679200 0.250000 0.042599
O O6 0.750000 0.500000 0.055958
O O7 0.625426 0.496057 0.081229
O O8 0.649584 0.500000 0.000000
O O9 0.500000 0.501510 0.697237
O O10 0.572659 0.250000 0.700123
O O11 0.626704 0.495503 0.667329
O O12 0.606469 0.474990 0.749993
O O13 0.321624 0.250000 0.626607
O O14 0.250000 0.500000 0.637134
O O15 0.073968 0.750000 0.118588
O O16 0.104095 0.509877 0.164573
O O17 0.000000 0.500604 0.109303
O O18 0.888577 0.250000 0.782561
O O19 0.000000 0.414314 0.790595
#
# Coordination Sequence:
#
# PCOD8278043 Si02
#       6
#    16  16  16  16  16  16
#     4  10  17  27  44  66  92 120 153 190 229 274
#     4  10  19  32  49  67  92 124 155 187 224 272
#     4   9  18  32  49  69  94 124 155 188 229 274
#     4  10  19  31  47  68  95 123 152 189 231 272
#     4   8  15  29  49  71  92 116 149 190 232 269
#     4   8  14  27  48  70  90 116 152 189 224 268
#
# _framework density 18.019475
#
# number of rings (size 3 to 8) (size 9 to 14) (size 15 to 20)
#    0.000    2.833    0.000    5.500    0.000    1.667 
#    0.000    2.500    0.000    8.000    0.000    0.000 
#    0.000    0.000    0.000    0.000    0.000    0.000 
#
# Total GULP energy -594828.393422 kJ/mol
# GULP energy per Si atom -12392.258196 kJ/mol
# Density = 1.797846 g / cm^3
# Si number density = 18.019475 Si / 1000 Ang^3
#
#
#
# Elastic Constant Matrix: (Units=GPa)
#
#
# Indices 1 2 3 4 5 6 
#
# 1 60.6368 21.0232 76.8240 0.0000 0.0000 0.0000
# 2 21.0232 66.8034 40.4444 0.0000 0.0000 0.0000
# 3 76.8240 40.4444 207.6804 0.0000 0.0000 0.0000
# 4 0.0000 0.0000 0.0000 29.9426 0.0000 0.0000
# 5 0.0000 0.0000 0.0000 0.0000 30.9404 0.0000
# 6 0.0000 0.0000 0.0000 0.0000 0.0000 13.9776
#
#
#
# Elastic Compliance Matrix: (Units=1/GPa)
#
#
# Indices 1 2 3 4 5 6 
#
# 1 0.031651 -0.003256 -0.011074 0.000000 0.000000 0.000000
# 2 -0.003256 0.017305 -0.002166 0.000000 0.000000 0.000000
# 3 -0.011074 -0.002166 0.009333 0.000000 0.000000 0.000000
# 4 0.000000 0.000000 0.000000 0.033397 0.000000 0.000000
# 5 0.000000 0.000000 0.000000 0.000000 0.032320 0.000000
# 6 0.000000 0.000000 0.000000 0.000000 0.000000 0.071543
#
#
# Mechanical properties :
#
#
# Convention : Reuss Voigt Hill
#
# Bulk Modulus (GPa) = 39.52917 67.96710 53.74813
# Shear Modulus (GPa) = 21.09939 28.09403 24.59671
#
# Velocity S-wave (km/s) = 3.42559 3.95282 3.69861
# Velocity P-wave (km/s) = 6.13439 7.65726 6.93773
#
# Compressibility (1/GPa) = 0.02529777
#
# Stress axis : x y z
#
# Youngs Moduli (GPa) = 31.59483 57.78641 107.14382
#
# Poissons Ratio (x) = 0.18816 1.18651
# Poissons Ratio (y) = 0.10288 0.23203
# Poissons Ratio (z) = 0.34988 0.12514
#
# Static dielectric constant tensor:
#      x y z
#    x 3.133930 0.000000 0.000000 
#    y 0.000000 3.183610 0.000000 
#    z 0.000000 0.000000 4.166510 
# 
# 
# High freq. dielectric constant tensor:
#      x y z
#    x 1.649160 0.000000 0.000000 
#    y 0.000000 1.686270 0.000000 
#    z 0.000000 0.000000 1.723100 
# 
# From -- ./inp_files/44786.got.cif
#   From: 2010.03.12/outbox.cif.g09.slc.cpg/sg67_23_cif.got.tgz:44786.got - 2010.04.10 22:41:39.
