data_PCOD8278930
_publ_section_title
;
Structure prediction by ZEFSAII (Michael W. Deem and Ramdas Pophale) SiO2 
 PCOD8278930
Probable space group: C M M A
;
_chemical_formula_sum "Si O2"
_cell_formula_units_Z 80
_cell_length_a 19.384430
_cell_length_b 14.991364
_cell_length_c 14.076259
_cell_angle_alpha 90.000000
_cell_angle_beta 90.000000
_cell_angle_gamma 90.000000
_cell_volume 4090.547438
_symmetry_space_group_name_H-M "C M M A"
_symmetry_group_IT_number 67
_symmetry_cell_setting 'orthorhombic'
loop_
_space_group_symop_operation_xyz
x,y,z
-x,1/2-y,z
x,-y,-z
-x,1/2+y,-z
-x,-y,-z
x,1/2+y,-z
-x,y,z
x,1/2-y,z
1/2+x,1/2+y,z
1/2-x,-y,z
1/2+x,1/2-y,-z
1/2-x,y,-z
1/2-x,1/2-y,-z
1/2+x,y,-z
1/2-x,1/2+y,z
1/2+x,-y,z
loop_
_atom_site_type_symbol
_atom_site_label
_atom_site_fract_x
_atom_site_fract_y
_atom_site_fract_z
Si Si1 0.420159 0.508321 0.103939
Si Si2 0.165742 0.585535 0.568514
Si Si3 0.304744 0.347187 0.382734
Si Si4 0.422246 0.146766 0.243414
Si Si5 0.418092 0.647732 0.257368
O O1 0.500000 0.531520 0.090158
O O2 0.409170 0.411820 0.150546
O O3 0.389016 0.588535 0.169088
O O4 0.384396 0.500000 0.000000
O O5 0.154484 0.500000 0.500000
O O6 0.239779 0.585244 0.623931
O O7 0.169411 0.665496 0.491735
O O8 0.105866 0.602206 0.644187
O O9 0.283890 0.250000 0.342820
O O10 0.368154 0.387227 0.322130
O O11 0.500000 0.131030 0.282538
O O12 0.411060 0.250000 0.216200
O O13 0.500000 0.644472 0.259978
O O14 0.391532 0.750000 0.247642
#
# Coordination Sequence:
#
# PCOD8278930 Si02
#       5
#    16  16  16  16  16
#     4   9  18  33  53  77 104 134 172 219 269 322
#     4  11  21  33  51  74 103 140 179 215 255 310
#     4  10  19  32  50  73 103 138 175 212 257 314
#     4   9  18  32  52  79 107 135 172 220 271 320
#     4  10  21  36  54  78 107 139 177 221 269 319
#
# _framework density 19.557283999999999
#
# number of rings (size 3 to 8) (size 9 to 14) (size 15 to 20)
#    0.000    2.200    0.000    4.800    0.000    2.000 
#    0.000    6.000    0.000    4.200    0.000    4.200 
#    0.000    0.000    0.000    0.000    0.000    0.000 
#
# Total GULP energy -495522.791140 kJ/mol
# GULP energy per Si atom -12388.069778 kJ/mol
# Density = 1.951277 g / cm^3
# Si number density = 19.557284 Si / 1000 Ang^3
#
#
#
# Elastic Constant Matrix: (Units=GPa)
#
#
# Indices 1 2 3 4 5 6 
#
# 1 54.3187 29.8129 44.4249 0.0000 0.0000 0.0000
# 2 29.8129 121.3089 49.4186 0.0000 0.0000 0.0000
# 3 44.4249 49.4186 122.1278 0.0000 0.0000 0.0000
# 4 0.0000 0.0000 0.0000 27.1053 0.0000 0.0000
# 5 0.0000 0.0000 0.0000 0.0000 10.6401 0.0000
# 6 0.0000 0.0000 0.0000 0.0000 0.0000 18.2634
#
#
#
# Elastic Compliance Matrix: (Units=1/GPa)
#
#
# Indices 1 2 3 4 5 6 
#
# 1 0.027192 -0.003177 -0.008606 0.000000 0.000000 0.000000
# 2 -0.003177 0.010242 -0.002989 0.000000 0.000000 0.000000
# 3 -0.008606 -0.002989 0.012528 0.000000 0.000000 0.000000
# 4 0.000000 0.000000 0.000000 0.036893 0.000000 0.000000
# 5 0.000000 0.000000 0.000000 0.000000 0.093984 0.000000
# 6 0.000000 0.000000 0.000000 0.000000 0.000000 0.054754
#
#
# Mechanical properties :
#
#
# Convention : Reuss Voigt Hill
#
# Bulk Modulus (GPa) = 48.97436 60.56315 54.76876
# Shear Modulus (GPa) = 18.38632 22.80837 20.59734
#
# Velocity S-wave (km/s) = 3.06947 3.41872 3.24879
# Velocity P-wave (km/s) = 6.13662 6.82772 6.49138
#
# Compressibility (1/GPa) = 0.02041885
#
# Stress axis : x y z
#
# Youngs Moduli (GPa) = 36.77599 97.64025 79.82211
#
# Poissons Ratio (x) = 0.31019 0.68692
# Poissons Ratio (y) = 0.11683 0.23856
# Poissons Ratio (z) = 0.31648 0.29181
#
# Static dielectric constant tensor:
#      x y z
#    x 3.378340 0.000000 0.000000 
#    y 0.000000 3.896270 0.000000 
#    z 0.000000 0.000000 3.689490 
# 
# 
# High freq. dielectric constant tensor:
#      x y z
#    x 1.730680 0.000000 0.000000 
#    y 0.000000 1.782280 0.000000 
#    z 0.000000 0.000000 1.745320 
# 
# From -- ./inp_files/29091.got.cif
#   From: 2010.03.12/outbox.cif.g09.slc.cpg/sg67_15_cif.got.tgz:29091.got - 2010.04.10 22:41:39.
