data_PCOD8278123
_publ_section_title
;
Structure prediction by ZEFSAII (Michael W. Deem and Ramdas Pophale) SiO2 
 PCOD8278123
Probable space group: C M M A
;
_chemical_formula_sum "Si O2"
_cell_formula_units_Z 68
_cell_length_a 17.947022
_cell_length_b 17.246767
_cell_length_c 9.811383
_cell_angle_alpha 90.000000
_cell_angle_beta 90.000000
_cell_angle_gamma 90.000000
_cell_volume 3036.898805
_symmetry_space_group_name_H-M "C M M A"
_symmetry_group_IT_number 67
_symmetry_cell_setting 'orthorhombic'
loop_
_space_group_symop_operation_xyz
x,y,z
-x,1/2-y,z
x,-y,-z
-x,1/2+y,-z
-x,-y,-z
x,1/2+y,-z
-x,y,z
x,1/2-y,z
1/2+x,1/2+y,z
1/2-x,-y,z
1/2+x,1/2-y,-z
1/2-x,y,-z
1/2-x,1/2-y,-z
1/2+x,y,-z
1/2-x,1/2+y,z
1/2+x,-y,z
loop_
_atom_site_type_symbol
_atom_site_label
_atom_site_fract_x
_atom_site_fract_y
_atom_site_fract_z
Si Si1 0.000000 0.750000 0.223518
Si Si2 0.377700 0.000000 0.500000
Si Si3 0.765650 0.250000 0.344118
Si Si4 0.500000 0.620284 0.555383
Si Si5 0.250000 0.382646 0.000000
Si Si6 0.158731 0.905011 0.750848
Si Si7 0.500000 0.838875 0.253263
Si Si8 0.155982 0.250000 0.879902
O O1 0.000000 0.673828 0.314052
O O2 0.067777 0.750000 0.119012
O O3 0.426670 0.931954 0.564376
O O4 0.330040 0.967052 0.372130
O O5 0.750000 0.250000 0.500000
O O6 0.813106 0.322960 0.300566
O O7 0.684869 0.250000 0.275116
O O8 0.500000 0.669222 0.416879
O O9 0.289426 0.433115 0.879294
O O10 0.182812 0.327707 0.953018
O O11 0.072018 0.890351 0.792319
O O12 0.500000 0.750000 0.195061
#
# Coordination Sequence:
#
# PCOD8278123 Si02
#       8
#     4   8   8   8   8  16   8   8
#     4  12  22  36  68  92 116 166 226 292 330 382
#     4   9  20  36  61  98 132 176 218 272 328 405
#     4  10  21  34  58  94 131 166 214 284 327 377
#     4   9  20  35  56  94 141 154 214 291 342 367
#     4   9  20  44  58  87 142 172 212 270 332 399
#     4  10  20  37  64  96 137 174 222 276 329 393
#     4  10  17  28  56  99 125 172 221 269 325 388
#     4   9  22  35  59  94 123 166 216 274 327 385
#
# _framework density 22.391262000000001
#
# number of rings (size 3 to 8) (size 9 to 14) (size 15 to 20)
#    0.000    2.353    1.765    1.412    6.588    0.941 
#    0.000    0.588    0.000    5.647    0.000    0.000 
#    0.000    3.294    0.000    0.000    0.000    0.000 
#
# Total GULP energy -421432.834658 kJ/mol
# GULP energy per Si atom -12395.083372 kJ/mol
# Density = 2.234030 g / cm^3
# Si number density = 22.391262 Si / 1000 Ang^3
#
#
#
# Elastic Constant Matrix: (Units=GPa)
#
#
# Indices 1 2 3 4 5 6 
#
# 1 144.7488 31.8294 66.6780 0.0000 0.0000 0.0000
# 2 31.8294 79.8117 43.0211 0.0000 0.0000 0.0000
# 3 66.6780 43.0211 143.7726 0.0000 0.0000 0.0000
# 4 0.0000 0.0000 0.0000 27.7990 0.0000 0.0000
# 5 0.0000 0.0000 0.0000 0.0000 26.8202 0.0000
# 6 0.0000 0.0000 0.0000 0.0000 0.0000 41.2313
#
#
#
# Elastic Compliance Matrix: (Units=1/GPa)
#
#
# Indices 1 2 3 4 5 6 
#
# 1 0.008951 -0.001588 -0.003676 0.000000 0.000000 0.000000
# 2 -0.001588 0.015221 -0.003818 0.000000 0.000000 0.000000
# 3 -0.003676 -0.003818 0.009803 0.000000 0.000000 0.000000
# 4 0.000000 0.000000 0.000000 0.035973 0.000000 0.000000
# 5 0.000000 0.000000 0.000000 0.000000 0.037285 0.000000
# 6 0.000000 0.000000 0.000000 0.000000 0.000000 0.024253
#
#
# Mechanical properties :
#
#
# Convention : Reuss Voigt Hill
#
# Bulk Modulus (GPa) = 63.25016 72.37668 67.81342
# Shear Modulus (GPa) = 32.27457 34.29040 33.28249
#
# Velocity S-wave (km/s) = 3.80068 3.91758 3.85958
# Velocity P-wave (km/s) = 6.89705 7.27028 7.08613
#
# Compressibility (1/GPa) = 0.01581024
#
# Stress axis : x y z
#
# Youngs Moduli (GPa) = 111.71776 65.69907 102.01230
#
# Poissons Ratio (x) = 0.10435 0.37500
# Poissons Ratio (y) = 0.17744 0.38948
# Poissons Ratio (z) = 0.41068 0.25084
#
# Static dielectric constant tensor:
#      x y z
#    x 4.370650 0.000000 0.000000 
#    y 0.000000 3.882730 0.000000 
#    z 0.000000 0.000000 4.383820 
# 
# 
# High freq. dielectric constant tensor:
#      x y z
#    x 1.884830 0.000000 0.000000 
#    y 0.000000 1.870420 0.000000 
#    z 0.000000 0.000000 1.875550 
# 
# From -- ./inp_files/10851.got.cif
#   From: 2010.03.12/outbox.cif.g09.slc.cpg/sg67_6_cif.got.tgz:10851.got - 2010.04.10 22:41:39.
