data_PCOD8278611
_publ_section_title
;
Structure prediction by ZEFSAII (Michael W. Deem and Ramdas Pophale) SiO2 
 PCOD8278611
Probable space group: C M M A
;
_chemical_formula_sum "Si O2"
_cell_formula_units_Z 120
_cell_length_a 22.806435
_cell_length_b 27.433980
_cell_length_c 11.214133
_cell_angle_alpha 90.000000
_cell_angle_beta 90.000000
_cell_angle_gamma 90.000000
_cell_volume 7016.360967
_symmetry_space_group_name_H-M "C M M A"
_symmetry_group_IT_number 67
_symmetry_cell_setting 'orthorhombic'
loop_
_space_group_symop_operation_xyz
x,y,z
-x,1/2-y,z
x,-y,-z
-x,1/2+y,-z
-x,-y,-z
x,1/2+y,-z
-x,y,z
x,1/2-y,z
1/2+x,1/2+y,z
1/2-x,-y,z
1/2+x,1/2-y,-z
1/2-x,y,-z
1/2-x,1/2-y,-z
1/2+x,y,-z
1/2-x,1/2+y,z
1/2+x,-y,z
loop_
_atom_site_type_symbol
_atom_site_label
_atom_site_fract_x
_atom_site_fract_y
_atom_site_fract_z
Si Si1 0.329134 0.805819 0.382212
Si Si2 0.133452 0.693713 0.999826
Si Si3 0.750000 0.365202 0.000000
Si Si4 0.685895 0.553927 0.456093
Si Si5 0.935115 0.306361 0.226797
Si Si6 0.431827 0.694620 0.757018
Si Si7 0.845608 0.635328 0.396232
Si Si8 0.733980 0.390198 0.743541
O O1 0.309012 0.750000 0.368130
O O2 0.398176 0.812578 0.348916
O O3 0.317797 0.822816 0.518330
O O4 0.292551 0.837235 0.287296
O O5 0.148344 0.750000 0.976850
O O6 0.194211 0.667758 0.030132
O O7 0.101011 0.670415 0.884278
O O8 0.089987 0.686178 0.109794
O O9 0.764642 0.398924 0.114506
O O10 0.669844 0.500000 0.500000
O O11 0.750000 0.570042 0.500000
O O12 0.637979 0.590229 0.514551
O O13 0.693854 0.565665 0.314197
O O14 0.943799 0.250000 0.195897
O O15 0.000000 0.330523 0.241209
O O16 0.500000 0.683476 0.753515
O O17 0.417921 0.750000 0.715530
O O18 0.402379 0.656333 0.667731
O O19 0.800889 0.612706 0.300944
#
# Coordination Sequence:
#
# PCOD8278611 Si02
#       8
#    16  16   8  16  16  16  16  16
#     4  10  19  29  42  65  97 133 169 207 249 296
#     4  10  19  30  44  64  95 139 177 206 243 285
#     4  12  19  30  48  73 104 126 158 214 246 296
#     4   8  16  33  56  75  95 125 159 197 256 324
#     4   9  17  29  43  59  85 127 178 217 240 272
#     4  10  20  32  46  67  99 139 179 210 238 285
#     4  10  19  32  48  71  96 127 165 206 259 303
#     4  10  20  31  48  74 101 131 162 202 254 302
#
# _framework density 17.102882999999999
#
# number of rings (size 3 to 8) (size 9 to 14) (size 15 to 20)
#    0.000    2.267    2.667    2.200    0.000    4.267 
#    0.000    1.333    0.000    6.800    0.000    0.000 
#    0.000    1.067    0.000    0.000    0.000    0.000 
#
# Total GULP energy -743420.312446 kJ/mol
# GULP energy per Si atom -12390.338541 kJ/mol
# Density = 1.706396 g / cm^3
# Si number density = 17.102883 Si / 1000 Ang^3
#
#
#
# Elastic Constant Matrix: (Units=GPa)
#
#
# Indices 1 2 3 4 5 6 
#
# 1 56.9403 19.4027 11.2609 0.0000 0.0000 0.0000
# 2 19.4027 80.7841 37.2014 0.0000 0.0000 0.0000
# 3 11.2609 37.2014 103.4571 0.0000 0.0000 0.0000
# 4 0.0000 0.0000 0.0000 13.1689 0.0000 0.0000
# 5 0.0000 0.0000 0.0000 0.0000 21.5101 0.0000
# 6 0.0000 0.0000 0.0000 0.0000 0.0000 10.6459
#
#
#
# Elastic Compliance Matrix: (Units=1/GPa)
#
#
# Indices 1 2 3 4 5 6 
#
# 1 0.019151 -0.004362 -0.000516 0.000000 0.000000 0.000000
# 2 -0.004362 0.015829 -0.005217 0.000000 0.000000 0.000000
# 3 -0.000516 -0.005217 0.011598 0.000000 0.000000 0.000000
# 4 0.000000 0.000000 0.000000 0.075937 0.000000 0.000000
# 5 0.000000 0.000000 0.000000 0.000000 0.046490 0.000000
# 6 0.000000 0.000000 0.000000 0.000000 0.000000 0.093932
#
#
# Mechanical properties :
#
#
# Convention : Reuss Voigt Hill
#
# Bulk Modulus (GPa) = 37.89672 41.87906 39.88789
# Shear Modulus (GPa) = 17.12786 20.61942 18.87364
#
# Velocity S-wave (km/s) = 3.16802 3.47596 3.32555
# Velocity P-wave (km/s) = 5.96557 6.37569 6.17403
#
# Compressibility (1/GPa) = 0.02638751
#
# Stress axis : x y z
#
# Youngs Moduli (GPa) = 52.21747 63.17611 86.22218
#
# Poissons Ratio (x) = 0.27557 0.04449
# Poissons Ratio (y) = 0.22777 0.44982
# Poissons Ratio (z) = 0.02694 0.32959
#
# Static dielectric constant tensor:
#      x y z
#    x 3.151020 0.000000 0.000000 
#    y 0.000000 2.851110 0.000000 
#    z 0.000000 0.000000 3.342690 
# 
# 
# High freq. dielectric constant tensor:
#      x y z
#    x 1.644980 0.000000 0.000000 
#    y 0.000000 1.611110 0.000000 
#    z 0.000000 0.000000 1.669640 
# 
# From -- ./inp_files/21314.got.cif
#   From: 2010.03.12/outbox.cif.g09.slc.cpg/sg67_11_cif.got.tgz:21314.got - 2010.04.10 22:41:39.
