data_PCOD8278706
_publ_section_title
;
Structure prediction by ZEFSAII (Michael W. Deem and Ramdas Pophale) SiO2 
 PCOD8278706
Probable space group: C M M A
;
_chemical_formula_sum "Si O2"
_cell_formula_units_Z 112
_cell_length_a 22.949933
_cell_length_b 22.135935
_cell_length_c 12.575369
_cell_angle_alpha 90.000000
_cell_angle_beta 90.000000
_cell_angle_gamma 90.000000
_cell_volume 6388.516640
_symmetry_space_group_name_H-M "C M M A"
_symmetry_group_IT_number 67
_symmetry_cell_setting 'orthorhombic'
loop_
_space_group_symop_operation_xyz
x,y,z
-x,1/2-y,z
x,-y,-z
-x,1/2+y,-z
-x,-y,-z
x,1/2+y,-z
-x,y,z
x,1/2-y,z
1/2+x,1/2+y,z
1/2-x,-y,z
1/2+x,1/2-y,-z
1/2-x,y,-z
1/2-x,1/2-y,-z
1/2+x,y,-z
1/2-x,1/2+y,z
1/2+x,-y,z
loop_
_atom_site_type_symbol
_atom_site_label
_atom_site_fract_x
_atom_site_fract_y
_atom_site_fract_z
Si Si1 0.432394 0.137397 0.437439
Si Si2 0.353265 0.682770 0.726284
Si Si3 0.263751 0.179475 0.623326
Si Si4 0.931330 0.182596 0.144355
Si Si5 0.380707 0.111893 0.662389
Si Si6 0.936064 0.991877 0.376139
Si Si7 0.565186 0.322018 0.092800
O O1 0.500000 0.153099 0.426411
O O2 0.393811 0.187678 0.379283
O O3 0.417857 0.135343 0.562151
O O4 0.415168 0.077469 0.368056
O O5 0.339790 0.750000 0.764610
O O6 0.290753 0.654910 0.693654
O O7 0.387951 0.650017 0.823426
O O8 0.279241 0.250000 0.647772
O O9 0.250000 0.172114 0.500000
O O10 0.314647 0.133044 0.652000
O O11 0.906120 0.250000 0.163615
O O12 0.904812 0.137298 0.228391
O O13 0.000000 0.184124 0.157240
O O14 0.914911 0.159519 0.025975
O O15 0.387961 0.038794 0.669148
O O16 0.000000 0.002290 0.321585
O O17 0.945685 0.000000 0.500000
O O18 0.500000 0.347448 0.117629
O O19 0.562563 0.250000 0.102159
#
# Coordination Sequence:
#
# PCOD8278706 Si02
#       7
#    16  16  16  16  16  16  16
#     4  10  19  30  48  73  97 120 155 203 247 291
#     4  10  19  32  49  67  94 131 164 193 239 290
#     4  10  20  33  45  65 100 134 158 195 241 277
#     4   9  17  28  45  72 100 122 153 203 251 291
#     4  11  18  30  49  66  92 131 162 186 240 300
#     4   8  16  30  46  67  95 124 152 193 245 287
#     4   8  15  29  47  68  95 125 158 198 243 289
#
# _framework density 17.531455999999999
#
# number of rings (size 3 to 8) (size 9 to 14) (size 15 to 20)
#    0.000    2.571    1.429    3.857    0.000    1.429 
#    0.000    1.429    0.000    4.286    0.000    4.000 
#    0.000    2.286    0.000    0.000    0.000    0.000 
#
# Total GULP energy -693756.936269 kJ/mol
# GULP energy per Si atom -12388.516719 kJ/mol
# Density = 1.749155 g / cm^3
# Si number density = 17.531456 Si / 1000 Ang^3
#
#
#
# Elastic Constant Matrix: (Units=GPa)
#
#
# Indices 1 2 3 4 5 6 
#
# 1 111.1007 36.4709 49.4310 0.0000 0.0000 0.0000
# 2 36.4709 36.3342 22.9316 0.0000 0.0000 0.0000
# 3 49.4310 22.9316 92.0241 0.0000 0.0000 0.0000
# 4 0.0000 0.0000 0.0000 10.7640 0.0000 0.0000
# 5 0.0000 0.0000 0.0000 0.0000 24.3709 0.0000
# 6 0.0000 0.0000 0.0000 0.0000 0.0000 20.1139
#
#
#
# Elastic Compliance Matrix: (Units=1/GPa)
#
#
# Indices 1 2 3 4 5 6 
#
# 1 0.015268 -0.012044 -0.005200 0.000000 0.000000 0.000000
# 2 -0.012044 0.042159 -0.004036 0.000000 0.000000 0.000000
# 3 -0.005200 -0.004036 0.014666 0.000000 0.000000 0.000000
# 4 0.000000 0.000000 0.000000 0.092902 0.000000 0.000000
# 5 0.000000 0.000000 0.000000 0.000000 0.041033 0.000000
# 6 0.000000 0.000000 0.000000 0.000000 0.000000 0.049717
#
#
# Mechanical properties :
#
#
# Convention : Reuss Voigt Hill
#
# Bulk Modulus (GPa) = 33.86106 50.79178 42.32642
# Shear Modulus (GPa) = 16.22595 19.75811 17.99203
#
# Velocity S-wave (km/s) = 3.04556 3.36074 3.20702
# Velocity P-wave (km/s) = 5.63237 6.64034 6.15702
#
# Compressibility (1/GPa) = 0.02953245
#
# Stress axis : x y z
#
# Youngs Moduli (GPa) = 65.49652 23.71995 68.18586
#
# Poissons Ratio (x) = 0.28567 0.35457
# Poissons Ratio (y) = 0.78881 0.27522
# Poissons Ratio (z) = 0.34059 0.09574
#
# Static dielectric constant tensor:
#      x y z
#    x 3.459290 0.000000 0.000000 
#    y 0.000000 3.688340 0.000000 
#    z 0.000000 0.000000 3.566840 
# 
# 
# High freq. dielectric constant tensor:
#      x y z
#    x 1.669060 0.000000 0.000000 
#    y 0.000000 1.645280 0.000000 
#    z 0.000000 0.000000 1.665350 
# 
# From -- ./inp_files/22289.got.cif
#   From: 2010.03.12/outbox.cif.g09.slc.cpg/sg67_12_cif.got.tgz:22289.got - 2010.04.10 22:41:39.
