data_PCOD8278609
_publ_section_title
;
Structure prediction by ZEFSAII (Michael W. Deem and Ramdas Pophale) SiO2 
 PCOD8278609
Probable space group: C M M A
;
_chemical_formula_sum "Si O2"
_cell_formula_units_Z 96
_cell_length_a 8.944085
_cell_length_b 27.134905
_cell_length_c 24.079537
_cell_angle_alpha 90.000000
_cell_angle_beta 90.000000
_cell_angle_gamma 90.000000
_cell_volume 5844.028906
_symmetry_space_group_name_H-M "C M M A"
_symmetry_group_IT_number 67
_symmetry_cell_setting 'orthorhombic'
loop_
_space_group_symop_operation_xyz
x,y,z
-x,1/2-y,z
x,-y,-z
-x,1/2+y,-z
-x,-y,-z
x,1/2+y,-z
-x,y,z
x,1/2-y,z
1/2+x,1/2+y,z
1/2-x,-y,z
1/2+x,1/2-y,-z
1/2-x,y,-z
1/2-x,1/2-y,-z
1/2+x,y,-z
1/2-x,1/2+y,z
1/2+x,-y,z
loop_
_atom_site_type_symbol
_atom_site_label
_atom_site_fract_x
_atom_site_fract_y
_atom_site_fract_z
Si Si1 0.824102 0.950316 0.376450
Si Si2 0.675976 0.600540 0.275154
Si Si3 0.674582 0.446815 0.174617
Si Si4 0.173953 0.353258 0.558215
Si Si5 0.672994 0.947293 0.948344
Si Si6 0.171811 0.694801 0.657792
O O1 0.748352 0.937987 0.317770
O O2 0.787469 0.908272 0.421274
O O3 0.000000 0.957035 0.367369
O O4 0.750000 0.000000 0.400031
O O5 0.500000 0.590786 0.272307
O O6 0.749155 0.592501 0.215238
O O7 0.714700 0.656402 0.293672
O O8 0.500000 0.452840 0.188489
O O9 0.750000 0.500000 0.181650
O O10 0.697342 0.423821 0.112675
O O11 0.250000 0.342719 0.500000
O O12 0.231016 0.313997 0.603006
O O13 0.000000 0.345219 0.550544
O O14 0.500000 0.953144 0.962128
O O15 0.750000 0.000000 0.945937
O O16 0.750000 0.917219 0.000000
O O17 0.202504 0.750000 0.680056
O O18 0.000000 0.687282 0.640563
#
# Coordination Sequence:
#
# PCOD8278609 Si02
#       6
#    16  16  16  16  16  16
#     4  10  20  33  48  66  90 120 151 182 218 259
#     4  10  19  31  48  68  90 116 147 184 223 264
#     4  10  19  29  42  63  92 125 158 189 221 258
#     4  10  21  35  51  71  93 117 146 180 217 261
#     4   9  16  25  38  56  82 118 156 191 222 253
#     4   9  19  36  55  72  90 113 142 179 224 271
#
# _framework density 16.427025
#
# number of rings (size 3 to 8) (size 9 to 14) (size 15 to 20)
#    0.000    2.333    0.000    3.500    0.000    5.667 
#    0.000    1.667    0.000    0.000    0.000    0.000 
#    0.000    0.667    0.000    1.500    0.000    2.667 
#
# Total GULP energy -595086.768531 kJ/mol
# GULP energy per Si atom -12397.641011 kJ/mol
# Density = 1.638964 g / cm^3
# Si number density = 16.427025 Si / 1000 Ang^3
#
#
#
# Elastic Constant Matrix: (Units=GPa)
#
#
# Indices 1 2 3 4 5 6 
#
# 1 95.7272 31.8491 54.0849 0.0000 0.0000 0.0000
# 2 31.8491 76.8012 34.5129 0.0000 0.0000 0.0000
# 3 54.0849 34.5129 120.1588 0.0000 0.0000 0.0000
# 4 0.0000 0.0000 0.0000 12.2718 0.0000 0.0000
# 5 0.0000 0.0000 0.0000 0.0000 29.0796 0.0000
# 6 0.0000 0.0000 0.0000 0.0000 0.0000 18.3119
#
#
#
# Elastic Compliance Matrix: (Units=1/GPa)
#
#
# Indices 1 2 3 4 5 6 
#
# 1 0.014836 -0.003619 -0.005638 0.000000 0.000000 0.000000
# 2 -0.003619 0.015833 -0.002919 0.000000 0.000000 0.000000
# 3 -0.005638 -0.002919 0.011699 0.000000 0.000000 0.000000
# 4 0.000000 0.000000 0.000000 0.081488 0.000000 0.000000
# 5 0.000000 0.000000 0.000000 0.000000 0.034388 0.000000
# 6 0.000000 0.000000 0.000000 0.000000 0.000000 0.054609
#
#
# Mechanical properties :
#
#
# Convention : Reuss Voigt Hill
#
# Bulk Modulus (GPa) = 55.50735 59.28679 57.39707
# Shear Modulus (GPa) = 20.55838 23.41536 21.98687
#
# Velocity S-wave (km/s) = 3.54149 3.77957 3.66246
# Velocity P-wave (km/s) = 7.11242 7.43076 7.27333
#
# Compressibility (1/GPa) = 0.01801563
#
# Stress axis : x y z
#
# Youngs Moduli (GPa) = 67.40372 63.15954 85.47990
#
# Poissons Ratio (x) = 0.22855 0.48198
# Poissons Ratio (y) = 0.24391 0.24951
# Poissons Ratio (z) = 0.38006 0.18435
#
# Static dielectric constant tensor:
#      x y z
#    x 3.257850 0.000000 0.000000 
#    y 0.000000 2.872830 0.000000 
#    z 0.000000 0.000000 3.574370 
# 
# 
# High freq. dielectric constant tensor:
#      x y z
#    x 1.652350 0.000000 0.000000 
#    y 0.000000 1.592500 0.000000 
#    z 0.000000 0.000000 1.633070 
# 
# From -- ./inp_files/37167.got.cif
#   From: 2010.03.12/outbox.cif.g09.slc.cpg/sg67_19_cif.got.tgz:37167.got - 2010.04.10 22:41:39.
