data_PCOD8278342
_publ_section_title
;
Structure prediction by ZEFSAII (Michael W. Deem and Ramdas Pophale) SiO2 
 PCOD8278342
Probable space group: C M M A
;
_chemical_formula_sum "Si O2"
_cell_formula_units_Z 72
_cell_length_a 9.007077
_cell_length_b 20.676555
_cell_length_c 19.813072
_cell_angle_alpha 90.000000
_cell_angle_beta 90.000000
_cell_angle_gamma 90.000000
_cell_volume 3689.893863
_symmetry_space_group_name_H-M "C M M A"
_symmetry_group_IT_number 67
_symmetry_cell_setting 'orthorhombic'
loop_
_space_group_symop_operation_xyz
x,y,z
-x,1/2-y,z
x,-y,-z
-x,1/2+y,-z
-x,-y,-z
x,1/2+y,-z
-x,y,z
x,1/2-y,z
1/2+x,1/2+y,z
1/2-x,-y,z
1/2+x,1/2-y,-z
1/2-x,y,-z
1/2-x,1/2-y,-z
1/2+x,y,-z
1/2-x,1/2+y,z
1/2+x,-y,z
loop_
_atom_site_type_symbol
_atom_site_label
_atom_site_fract_x
_atom_site_fract_y
_atom_site_fract_z
Si Si1 0.329277 0.624426 0.569472
Si Si2 0.669202 0.064604 0.293442
Si Si3 0.662359 0.673702 0.062796
Si Si4 0.322229 0.750000 0.426365
Si Si5 0.823562 0.323943 0.212276
O O1 0.500000 0.643281 0.552809
O O2 0.250000 0.602159 0.500000
O O3 0.322191 0.567759 0.624812
O O4 0.242718 0.684430 0.605730
O O5 0.500000 0.061561 0.268907
O O6 0.743944 0.127852 0.262723
O O7 0.750000 0.000000 0.268246
O O8 0.500000 0.642076 0.060650
O O9 0.649964 0.750000 0.052507
O O10 0.734082 0.659969 0.136248
O O11 0.750000 0.642124 0.000000
O O12 0.500000 0.750000 0.424145
O O13 0.250000 0.750000 0.500000
O O14 0.782269 0.250000 0.232076
O O15 0.000000 0.332848 0.216522
#
# Coordination Sequence:
#
# PCOD8278342 Si02
#       5
#    16  16  16   8  16
#     4  10  21  37  56  80 108 139 179 228 278 333
#     4  11  25  41  58  80 110 147 187 233 282 336
#     4   8  14  26  47  78 114 147 180 221 267 318
#     4  10  18  30  52  80 108 138 169 212 269 324
#     4   9  19  36  58  85 116 150 188 228 274 329
#
# _framework density 19.512757000000001
#
# number of rings (size 3 to 8) (size 9 to 14) (size 15 to 20)
#    0.000    2.444    0.000    5.000    1.556    5.333 
#    0.000    4.444    0.000    0.667    0.000    4.667 
#    0.000    0.000    0.000    0.000    0.000    0.000 
#
# Total GULP energy -446104.213715 kJ/mol
# GULP energy per Si atom -12391.783714 kJ/mol
# Density = 1.946835 g / cm^3
# Si number density = 19.512757 Si / 1000 Ang^3
#
#
#
# Elastic Constant Matrix: (Units=GPa)
#
#
# Indices 1 2 3 4 5 6 
#
# 1 121.7978 48.2683 48.6617 0.0000 0.0000 0.0000
# 2 48.2683 83.9882 42.4397 0.0000 0.0000 0.0000
# 3 48.6617 42.4397 95.2434 0.0000 0.0000 0.0000
# 4 0.0000 0.0000 0.0000 10.3684 0.0000 0.0000
# 5 0.0000 0.0000 0.0000 0.0000 31.2865 0.0000
# 6 0.0000 0.0000 0.0000 0.0000 0.0000 22.2582
#
#
#
# Elastic Compliance Matrix: (Units=1/GPa)
#
#
# Indices 1 2 3 4 5 6 
#
# 1 0.011618 -0.004746 -0.003821 0.000000 0.000000 0.000000
# 2 -0.004746 0.017305 -0.005286 0.000000 0.000000 0.000000
# 3 -0.003821 -0.005286 0.014807 0.000000 0.000000 0.000000
# 4 0.000000 0.000000 0.000000 0.096447 0.000000 0.000000
# 5 0.000000 0.000000 0.000000 0.000000 0.031963 0.000000
# 6 0.000000 0.000000 0.000000 0.000000 0.000000 0.044927
#
#
# Mechanical properties :
#
#
# Convention : Reuss Voigt Hill
#
# Bulk Modulus (GPa) = 62.40770 64.41874 63.41322
# Shear Modulus (GPa) = 19.99088 23.55996 21.77542
#
# Velocity S-wave (km/s) = 3.20426 3.47855 3.34422
# Velocity P-wave (km/s) = 6.76329 7.01563 6.89062
#
# Compressibility (1/GPa) = 0.01602366
#
# Stress axis : x y z
#
# Youngs Moduli (GPa) = 86.07524 57.78632 67.53519
#
# Poissons Ratio (x) = 0.27425 0.25805
# Poissons Ratio (y) = 0.40851 0.35700
# Poissons Ratio (z) = 0.32889 0.30547
#
# Static dielectric constant tensor:
#      x y z
#    x 3.719050 0.000000 0.000000 
#    y 0.000000 3.567280 0.000000 
#    z 0.000000 0.000000 3.638030 
# 
# 
# High freq. dielectric constant tensor:
#      x y z
#    x 1.762960 0.000000 0.000000 
#    y 0.000000 1.722620 0.000000 
#    z 0.000000 0.000000 1.760340 
# 
# From -- ./inp_files/36780.got.cif
#   From: 2010.03.12/outbox.cif.g09.slc.cpg/sg67_19_cif.got.tgz:36780.got - 2010.04.10 22:41:39.
