data_PCOD8278282
_publ_section_title
;
Structure prediction by ZEFSAII (Michael W. Deem and Ramdas Pophale) SiO2 
 PCOD8278282
Probable space group: C M M A
;
_chemical_formula_sum "Si O2"
_cell_formula_units_Z 64
_cell_length_a 8.823692
_cell_length_b 30.504223
_cell_length_c 14.560647
_cell_angle_alpha 90.000000
_cell_angle_beta 90.000000
_cell_angle_gamma 90.000000
_cell_volume 3919.141831
_symmetry_space_group_name_H-M "C M M A"
_symmetry_group_IT_number 67
_symmetry_cell_setting 'orthorhombic'
loop_
_space_group_symop_operation_xyz
x,y,z
-x,1/2-y,z
x,-y,-z
-x,1/2+y,-z
-x,-y,-z
x,1/2+y,-z
-x,y,z
x,1/2-y,z
1/2+x,1/2+y,z
1/2-x,-y,z
1/2+x,1/2-y,-z
1/2-x,y,-z
1/2-x,1/2-y,-z
1/2+x,y,-z
1/2-x,1/2+y,z
1/2+x,-y,z
loop_
_atom_site_type_symbol
_atom_site_label
_atom_site_fract_x
_atom_site_fract_y
_atom_site_fract_z
Si Si1 0.171837 0.905093 0.906914
Si Si2 0.179696 0.545248 0.242789
Si Si3 0.172034 0.630568 0.719840
Si Si4 0.321925 0.699737 0.594730
O O1 0.263003 0.946240 0.862302
O O2 0.174776 0.865522 0.831669
O O3 0.000000 0.919922 0.927125
O O4 0.250000 0.888731 0.000000
O O5 0.250000 0.500000 0.279470
O O6 0.242982 0.584915 0.307267
O O7 0.000000 0.543364 0.247441
O O8 0.258468 0.671983 0.679136
O O9 0.000000 0.629107 0.682812
O O10 0.500000 0.693657 0.588321
O O11 0.275293 0.750000 0.612332
O O12 0.250000 0.682535 0.500000
#
# Coordination Sequence:
#
# PCOD8278282 Si02
#       4
#    16  16  16  16
#     4   9  18  30  46  70  98 132 170 208 247 290
#     4  10  18  30  47  69  99 133 170 209 247 291
#     4   9  19  33  49  72 101 132 165 204 249 294
#     4  10  20  34  55  81 104 127 158 199 248 298
#
# _framework density 16.330105
#
# number of rings (size 3 to 8) (size 9 to 14) (size 15 to 20)
#    1.500    1.000    0.000    3.750    0.000    2.000 
#    0.000    2.500    0.000    1.500    0.000    5.250 
#    0.000    0.000    0.000    0.000    0.000    0.000 
#
# Total GULP energy -396483.224590 kJ/mol
# GULP energy per Si atom -12390.100768 kJ/mol
# Density = 1.629294 g / cm^3
# Si number density = 16.330105 Si / 1000 Ang^3
#
#
#
# Elastic Constant Matrix: (Units=GPa)
#
#
# Indices 1 2 3 4 5 6 
#
# 1 131.9280 51.1243 28.7302 0.0000 0.0000 0.0000
# 2 51.1243 88.9325 43.3299 0.0000 0.0000 0.0000
# 3 28.7302 43.3299 38.4657 0.0000 0.0000 0.0000
# 4 0.0000 0.0000 0.0000 21.4468 0.0000 0.0000
# 5 0.0000 0.0000 0.0000 0.0000 29.1312 0.0000
# 6 0.0000 0.0000 0.0000 0.0000 0.0000 30.6576
#
#
#
# Elastic Compliance Matrix: (Units=1/GPa)
#
#
# Indices 1 2 3 4 5 6 
#
# 1 0.009833 -0.004598 -0.002165 0.000000 0.000000 0.000000
# 2 -0.004598 0.027073 -0.027062 0.000000 0.000000 0.000000
# 3 -0.002165 -0.027062 0.058099 0.000000 0.000000 0.000000
# 4 0.000000 0.000000 0.000000 0.046627 0.000000 0.000000
# 5 0.000000 0.000000 0.000000 0.000000 0.034327 0.000000
# 6 0.000000 0.000000 0.000000 0.000000 0.000000 0.032618
#
#
# Mechanical properties :
#
#
# Convention : Reuss Voigt Hill
#
# Bulk Modulus (GPa) = 36.55733 56.18834 46.37284
# Shear Modulus (GPa) = 17.52255 25.32326 21.42290
#
# Velocity S-wave (km/s) = 3.27925 3.94218 3.62590
# Velocity P-wave (km/s) = 6.06408 7.42991 6.78147
#
# Compressibility (1/GPa) = 0.02735430
#
# Stress axis : x y z
#
# Youngs Moduli (GPa) = 101.69698 36.93715 17.21202
#
# Poissons Ratio (x) = 0.16983 0.03727
# Poissons Ratio (y) = 0.46758 0.46580
# Poissons Ratio (z) = 0.22019 0.99961
#
# Static dielectric constant tensor:
#      x y z
#    x 3.179160 0.000000 0.000000 
#    y 0.000000 2.894130 0.000000 
#    z 0.000000 0.000000 2.830440 
# 
# 
# High freq. dielectric constant tensor:
#      x y z
#    x 1.653060 0.000000 0.000000 
#    y 0.000000 1.604890 0.000000 
#    z 0.000000 0.000000 1.598150 
# 
# From -- ./inp_files/15812.got.cif
#   From: 2010.03.12/outbox.cif.g09.slc.cpg/sg67_8_cif.got.tgz:15812.got - 2010.04.10 22:41:39.
