data_PCOD8278061
_publ_section_title
;
Structure prediction by ZEFSAII (Michael W. Deem and Ramdas Pophale) SiO2 
 PCOD8278061
Probable space group: C M M A
;
_chemical_formula_sum "Si O2"
_cell_formula_units_Z 56
_cell_length_a 8.622960
_cell_length_b 36.839884
_cell_length_c 9.561032
_cell_angle_alpha 90.000000
_cell_angle_beta 90.000000
_cell_angle_gamma 90.000000
_cell_volume 3037.242003
_symmetry_space_group_name_H-M "C M M A"
_symmetry_group_IT_number 67
_symmetry_cell_setting 'orthorhombic'
loop_
_space_group_symop_operation_xyz
x,y,z
-x,1/2-y,z
x,-y,-z
-x,1/2+y,-z
-x,-y,-z
x,1/2+y,-z
-x,y,z
x,1/2-y,z
1/2+x,1/2+y,z
1/2-x,-y,z
1/2+x,1/2-y,-z
1/2-x,y,-z
1/2-x,1/2-y,-z
1/2+x,y,-z
1/2-x,1/2+y,z
1/2+x,-y,z
loop_
_atom_site_type_symbol
_atom_site_label
_atom_site_fract_x
_atom_site_fract_y
_atom_site_fract_z
Si Si1 0.682718 0.176600 0.346545
Si Si2 0.316286 0.463752 0.844175
Si Si3 0.317030 0.390240 0.153331
Si Si4 0.183641 0.750000 0.655329
O O1 0.500000 0.181096 0.358384
O O2 0.750000 0.169714 0.500000
O O3 0.731920 0.143185 0.249962
O O4 0.752968 0.213035 0.273976
O O5 0.500000 0.464997 0.844142
O O6 0.250000 0.500000 0.767131
O O7 0.255528 0.426473 0.774371
O O8 0.250000 0.463268 0.000000
O O9 0.500000 0.395157 0.142262
O O10 0.250000 0.383028 0.000000
O O11 0.250000 0.750000 0.500000
O O12 0.000000 0.750000 0.656664
#
# Coordination Sequence:
#
# PCOD8278061 Si02
#       4
#    16  16  16   8
#     4  10  20  34  53  75 100 129 164 203 244 291
#     4  10  17  27  45  68  96 128 163 202 241 285
#     4  10  20  33  50  74 102 131 163 202 246 292
#     4  10  18  30  51  74  97 126 164 204 242 286
#
# _framework density 18.437778999999999
#
# number of rings (size 3 to 8) (size 9 to 14) (size 15 to 20)
#    0.000    2.000    0.000    9.857    0.000    4.571 
#    0.000    0.714    0.000    0.857    0.000    6.000 
#    0.000    0.000    0.000    0.000    0.000    0.000 
#
# Total GULP energy -347058.121788 kJ/mol
# GULP energy per Si atom -12394.932921 kJ/mol
# Density = 1.839581 g / cm^3
# Si number density = 18.437779 Si / 1000 Ang^3
#
#
#
# Elastic Constant Matrix: (Units=GPa)
#
#
# Indices 1 2 3 4 5 6 
#
# 1 139.7159 92.5455 28.7657 0.0000 0.0000 0.0000
# 2 92.5455 232.9220 58.3401 0.0000 0.0000 0.0000
# 3 28.7657 58.3401 44.1224 0.0000 0.0000 0.0000
# 4 0.0000 0.0000 0.0000 11.6182 0.0000 0.0000
# 5 0.0000 0.0000 0.0000 0.0000 18.7091 0.0000
# 6 0.0000 0.0000 0.0000 0.0000 0.0000 34.4260
#
#
#
# Elastic Compliance Matrix: (Units=1/GPa)
#
#
# Indices 1 2 3 4 5 6 
#
# 1 0.009815 -0.003434 -0.001858 0.000000 0.000000 0.000000
# 2 -0.003434 0.007621 -0.007838 0.000000 0.000000 0.000000
# 3 -0.001858 -0.007838 0.034239 0.000000 0.000000 0.000000
# 4 0.000000 0.000000 0.000000 0.086072 0.000000 0.000000
# 5 0.000000 0.000000 0.000000 0.000000 0.053450 0.000000
# 6 0.000000 0.000000 0.000000 0.000000 0.000000 0.029048
#
#
# Mechanical properties :
#
#
# Convention : Reuss Voigt Hill
#
# Bulk Modulus (GPa) = 39.34721 86.22922 62.78822
# Shear Modulus (GPa) = 19.60982 28.75794 24.18388
#
# Velocity S-wave (km/s) = 3.26478 3.95363 3.62560
# Velocity P-wave (km/s) = 5.96645 8.22865 7.18712
#
# Compressibility (1/GPa) = 0.02541476
#
# Stress axis : x y z
#
# Youngs Moduli (GPa) = 101.88808 131.21812 29.20686
#
# Poissons Ratio (x) = 0.45064 0.05426
# Poissons Ratio (y) = 0.34991 0.22891
# Poissons Ratio (z) = 0.18929 1.02844
#
# Static dielectric constant tensor:
#      x y z
#    x 3.508860 0.000000 0.000000 
#    y 0.000000 4.814640 0.000000 
#    z 0.000000 0.000000 2.875000 
# 
# 
# High freq. dielectric constant tensor:
#      x y z
#    x 1.738170 0.000000 0.000000 
#    y 0.000000 1.751470 0.000000 
#    z 0.000000 0.000000 1.644830 
# 
# From -- ./inp_files/15705.got.cif
#   From: 2010.03.12/outbox.cif.g09.slc.cpg/sg67_8_cif.got.tgz:15705.got - 2010.04.10 22:41:39.
