data_PCOD8278213
_publ_section_title
;
Structure prediction by ZEFSAII (Michael W. Deem and Ramdas Pophale) SiO2 
 PCOD8278213
Probable space group: C M M A
;
_chemical_formula_sum "Si O2"
_cell_formula_units_Z 96
_cell_length_a 21.614392
_cell_length_b 22.221750
_cell_length_c 11.177522
_cell_angle_alpha 90.000000
_cell_angle_beta 90.000000
_cell_angle_gamma 90.000000
_cell_volume 5368.671293
_symmetry_space_group_name_H-M "C M M A"
_symmetry_group_IT_number 67
_symmetry_cell_setting 'orthorhombic'
loop_
_space_group_symop_operation_xyz
x,y,z
-x,1/2-y,z
x,-y,-z
-x,1/2+y,-z
-x,-y,-z
x,1/2+y,-z
-x,y,z
x,1/2-y,z
1/2+x,1/2+y,z
1/2-x,-y,z
1/2+x,1/2-y,-z
1/2-x,y,-z
1/2-x,1/2-y,-z
1/2+x,y,-z
1/2-x,1/2+y,z
1/2+x,-y,z
loop_
_atom_site_type_symbol
_atom_site_label
_atom_site_fract_x
_atom_site_fract_y
_atom_site_fract_z
Si Si1 0.427043 0.478389 0.781332
Si Si2 0.734269 0.066956 0.178674
Si Si3 0.571585 0.320453 0.103694
Si Si4 0.431210 0.430955 0.537715
Si Si5 0.875787 0.395381 0.694473
Si Si6 0.151345 0.089698 0.040416
O O1 0.500000 0.479643 0.795599
O O2 0.407579 0.431131 0.675174
O O3 0.405285 0.545180 0.752284
O O4 0.397825 0.456579 0.904945
O O5 0.698614 0.103079 0.284008
O O6 0.795362 0.104354 0.139686
O O7 0.750000 0.000000 0.224938
O O8 0.686039 0.058061 0.069716
O O9 0.500000 0.338383 0.083351
O O10 0.581576 0.250000 0.090359
O O11 0.592972 0.339385 0.237245
O O12 0.614851 0.351108 0.002845
O O13 0.432759 0.500000 0.500000
O O14 0.500000 0.403317 0.528344
O O15 0.387898 0.392189 0.448336
#
# Coordination Sequence:
#
# PCOD8278213 Si02
#       6
#    16  16  16  16  16  16
#     4  10  18  28  49  76  99 127 162 200 254 315
#     4  10  19  31  46  69 101 133 157 205 245 289
#     4  10  21  34  49  72  99 128 167 215 254 291
#     4   8  15  28  45  70 100 125 153 198 246 294
#     4  10  18  31  50  69  97 133 163 197 255 298
#     4  10  19  31  48  67  97 132 161 196 252 292
#
# _framework density 17.881519999999998
#
# number of rings (size 3 to 8) (size 9 to 14) (size 15 to 20)
#    0.000    2.333    1.667    4.000    2.333    0.000 
#    0.000   10.000    0.000    1.000    0.000    4.667 
#    0.000   13.333    0.000    0.000    0.000    0.000 
#
# Total GULP energy -594829.676930 kJ/mol
# GULP energy per Si atom -12392.284936 kJ/mol
# Density = 1.784082 g / cm^3
# Si number density = 17.881520 Si / 1000 Ang^3
#
#
#
# Elastic Constant Matrix: (Units=GPa)
#
#
# Indices 1 2 3 4 5 6 
#
# 1 87.4881 23.0311 17.6446 0.0000 0.0000 0.0000
# 2 23.0311 46.7209 8.5035 0.0000 0.0000 0.0000
# 3 17.6446 8.5035 38.3340 0.0000 0.0000 0.0000
# 4 0.0000 0.0000 0.0000 16.0634 0.0000 0.0000
# 5 0.0000 0.0000 0.0000 0.0000 23.9147 0.0000
# 6 0.0000 0.0000 0.0000 0.0000 0.0000 22.2194
#
#
#
# Elastic Compliance Matrix: (Units=1/GPa)
#
#
# Indices 1 2 3 4 5 6 
#
# 1 0.014042 -0.005987 -0.005135 0.000000 0.000000 0.000000
# 2 -0.005987 0.024857 -0.002758 0.000000 0.000000 0.000000
# 3 -0.005135 -0.002758 0.029062 0.000000 0.000000 0.000000
# 4 0.000000 0.000000 0.000000 0.062253 0.000000 0.000000
# 5 0.000000 0.000000 0.000000 0.000000 0.041815 0.000000
# 6 0.000000 0.000000 0.000000 0.000000 0.000000 0.045006
#
#
# Mechanical properties :
#
#
# Convention : Reuss Voigt Hill
#
# Bulk Modulus (GPa) = 24.87572 30.10016 27.48794
# Shear Modulus (GPa) = 19.36508 20.66375 20.01442
#
# Velocity S-wave (km/s) = 3.29442 3.40309 3.34919
# Velocity P-wave (km/s) = 5.33034 5.68428 5.51015
#
# Compressibility (1/GPa) = 0.04019985
#
# Stress axis : x y z
#
# Youngs Moduli (GPa) = 71.21517 40.22982 34.40928
#
# Poissons Ratio (x) = 0.24087 0.17670
# Poissons Ratio (y) = 0.42639 0.09490
# Poissons Ratio (z) = 0.36570 0.11096
#
# Static dielectric constant tensor:
#      x y z
#    x 3.727800 0.000000 0.000000 
#    y 0.000000 2.783310 0.000000 
#    z 0.000000 0.000000 3.811950 
# 
# 
# High freq. dielectric constant tensor:
#      x y z
#    x 1.707490 0.000000 0.000000 
#    y 0.000000 1.630060 0.000000 
#    z 0.000000 0.000000 1.685090 
# 
# From -- ./inp_files/20871.got.cif
#   From: 2010.03.12/outbox.cif.g09.slc.cpg/sg67_11_cif.got.tgz:20871.got - 2010.04.10 22:41:39.
