data_PCOD8278849
_publ_section_title
;
Structure prediction by ZEFSAII (Michael W. Deem and Ramdas Pophale) SiO2 
 PCOD8278849
Probable space group: C M M A
;
_chemical_formula_sum "Si O2"
_cell_formula_units_Z 84
_cell_length_a 13.566296
_cell_length_b 22.004434
_cell_length_c 13.744036
_cell_angle_alpha 90.000000
_cell_angle_beta 90.000000
_cell_angle_gamma 90.000000
_cell_volume 4102.851278
_symmetry_space_group_name_H-M "C M M A"
_symmetry_group_IT_number 67
_symmetry_cell_setting 'orthorhombic'
loop_
_space_group_symop_operation_xyz
x,y,z
-x,1/2-y,z
x,-y,-z
-x,1/2+y,-z
-x,-y,-z
x,1/2+y,-z
-x,y,z
x,1/2-y,z
1/2+x,1/2+y,z
1/2-x,-y,z
1/2+x,1/2-y,-z
1/2-x,y,-z
1/2-x,1/2-y,-z
1/2+x,y,-z
1/2-x,1/2+y,z
1/2+x,-y,z
loop_
_atom_site_type_symbol
_atom_site_label
_atom_site_fract_x
_atom_site_fract_y
_atom_site_fract_z
Si Si1 0.112634 0.575790 0.141091
Si Si2 0.889951 0.487982 0.656556
Si Si3 0.750000 0.000000 0.000000
Si Si4 0.115426 0.121568 0.348620
Si Si5 0.614831 0.632664 0.566886
Si Si6 0.285627 0.181302 0.251764
O O1 0.112842 0.531209 0.232002
O O2 0.179785 0.544793 0.060046
O O3 0.157363 0.641000 0.172223
O O4 0.000000 0.585181 0.103466
O O5 0.837289 0.553446 0.649683
O O6 0.843358 0.435505 0.588364
O O7 0.000000 0.499881 0.618584
O O8 0.135322 0.150797 0.455277
O O9 0.172463 0.159309 0.265941
O O10 0.000000 0.122648 0.321510
O O11 0.500000 0.633494 0.592350
O O12 0.665374 0.679175 0.640949
O O13 0.286794 0.250000 0.212947
#
# Coordination Sequence:
#
# PCOD8278849 Si02
#       6
#    16  16   4  16  16  16
#     4  10  22  40  64  92 118 146 179 220 278 344
#     4   8  15  31  53  78 110 146 185 230 286 345
#     4  12  22  40  70 102 122 128 158 226 300 358
#     4  10  19  31  50  78 114 155 200 253 300 326
#     4   9  18  31  50  78 110 149 199 251 294 329
#     4  11  23  38  54  75 110 158 205 235 267 331
#
# _framework density 20.473566999999999
#
# number of rings (size 3 to 8) (size 9 to 14) (size 15 to 20)
#    0.000    2.286    0.000    4.286    0.000    8.000 
#    0.000    7.143    0.000    0.000    0.000    0.000 
#    0.000    0.000    0.000    0.000    0.000    0.000 
#
# Total GULP energy -520574.690243 kJ/mol
# GULP energy per Si atom -12394.635482 kJ/mol
# Density = 2.042697 g / cm^3
# Si number density = 20.473567 Si / 1000 Ang^3
#
#
#
# Elastic Constant Matrix: (Units=GPa)
#
#
# Indices 1 2 3 4 5 6 
#
# 1 116.2342 47.4872 45.2237 0.0000 0.0000 0.0000
# 2 47.4872 119.6068 38.0432 0.0000 0.0000 0.0000
# 3 45.2237 38.0432 60.8390 0.0000 0.0000 0.0000
# 4 0.0000 0.0000 0.0000 14.0053 0.0000 0.0000
# 5 0.0000 0.0000 0.0000 0.0000 30.8293 0.0000
# 6 0.0000 0.0000 0.0000 0.0000 0.0000 23.6777
#
#
#
# Elastic Compliance Matrix: (Units=1/GPa)
#
#
# Indices 1 2 3 4 5 6 
#
# 1 0.012696 -0.002545 -0.007846 0.000000 0.000000 0.000000
# 2 -0.002545 0.010947 -0.004953 0.000000 0.000000 0.000000
# 3 -0.007846 -0.004953 0.025366 0.000000 0.000000 0.000000
# 4 0.000000 0.000000 0.000000 0.071401 0.000000 0.000000
# 5 0.000000 0.000000 0.000000 0.000000 0.032437 0.000000
# 6 0.000000 0.000000 0.000000 0.000000 0.000000 0.042234
#
#
# Mechanical properties :
#
#
# Convention : Reuss Voigt Hill
#
# Bulk Modulus (GPa) = 54.58369 62.02092 58.30230
# Shear Modulus (GPa) = 21.56334 24.76419 23.16376
#
# Velocity S-wave (km/s) = 3.24887 3.48166 3.36728
# Velocity P-wave (km/s) = 6.38686 6.82067 6.60733
#
# Compressibility (1/GPa) = 0.01832049
#
# Stress axis : x y z
#
# Youngs Moduli (GPa) = 78.76721 91.35217 39.42273
#
# Poissons Ratio (x) = 0.23250 0.30930
# Poissons Ratio (y) = 0.20047 0.19527
# Poissons Ratio (z) = 0.61798 0.45249
#
# Static dielectric constant tensor:
#      x y z
#    x 4.009780 0.000000 0.000000 
#    y 0.000000 3.554720 0.000000 
#    z 0.000000 0.000000 3.368120 
# 
# 
# High freq. dielectric constant tensor:
#      x y z
#    x 1.821680 0.000000 0.000000 
#    y 0.000000 1.781290 0.000000 
#    z 0.000000 0.000000 1.759600 
# 
# From -- ./inp_files/27049.got.cif
#   From: 2010.03.12/outbox.cif.g09.slc.cpg/sg67_14_cif.got.tgz:27049.got - 2010.04.10 22:41:39.
