data_PCOD8278233
_publ_section_title
;
Structure prediction by ZEFSAII (Michael W. Deem and Ramdas Pophale) SiO2 
 PCOD8278233
Probable space group: C M M A
;
_chemical_formula_sum "Si O2"
_cell_formula_units_Z 88
_cell_length_a 19.692465
_cell_length_b 8.902975
_cell_length_c 30.095782
_cell_angle_alpha 90.000000
_cell_angle_beta 90.000000
_cell_angle_gamma 90.000000
_cell_volume 5276.438354
_symmetry_space_group_name_H-M "C M M A"
_symmetry_group_IT_number 67
_symmetry_cell_setting 'orthorhombic'
loop_
_space_group_symop_operation_xyz
x,y,z
-x,1/2-y,z
x,-y,-z
-x,1/2+y,-z
-x,-y,-z
x,1/2+y,-z
-x,y,z
x,1/2-y,z
1/2+x,1/2+y,z
1/2-x,-y,z
1/2+x,1/2-y,-z
1/2-x,y,-z
1/2-x,1/2-y,-z
1/2+x,y,-z
1/2-x,1/2+y,z
1/2+x,-y,z
loop_
_atom_site_type_symbol
_atom_site_label
_atom_site_fract_x
_atom_site_fract_y
_atom_site_fract_z
Si Si1 0.322735 0.074739 0.121285
Si Si2 0.175846 0.929018 0.694319
Si Si3 0.574341 0.918631 0.380581
Si Si4 0.422855 0.572354 0.954431
Si Si5 0.000000 0.926170 0.452304
Si Si6 0.177111 0.574249 0.219061
O O1 0.310686 0.250000 0.114316
O O2 0.376032 0.011023 0.085508
O O3 0.355564 0.045300 0.170397
O O4 0.250000 0.000000 0.114373
O O5 0.180145 0.750000 0.696701
O O6 0.129878 0.984460 0.653220
O O7 0.250000 0.000000 0.687930
O O8 0.139888 0.991950 0.739608
O O9 0.500000 0.916773 0.356707
O O10 0.594967 0.750000 0.395058
O O11 0.567693 0.020587 0.425137
O O12 0.500000 0.521075 0.944683
O O13 0.417819 0.750000 0.958846
O O14 0.396099 0.500000 0.000000
O O15 0.000000 0.750000 0.457940
O O16 0.000000 0.000000 0.500000
O O17 0.182845 0.750000 0.229758
O O18 0.250000 0.500000 0.216629
#
# Coordination Sequence:
#
# PCOD8278233 Si02
#       6
#    16  16  16  16   8  16
#     4   9  18  31  47  67  90 117 148 188 230 269
#     4  10  18  29  48  70  97 129 159 196 235 278
#     4   8  17  33  48  67  96 128 161 195 235 279
#     4   9  18  33  50  66  87 116 148 182 226 278
#     4  10  18  30  52  76  98 126 162 202 239 282
#     4   9  16  27  43  64  91 121 155 188 224 276
#
# _framework density 16.677917000000001
#
# number of rings (size 3 to 8) (size 9 to 14) (size 15 to 20)
#    0.545    2.364    0.000    2.727    0.000    3.273 
#    0.000    2.727    0.000    1.636    0.000    3.818 
#    0.000    0.000    0.000    0.000    0.000    0.000 
#
# Total GULP energy -545077.220206 kJ/mol
# GULP energy per Si atom -12388.118641 kJ/mol
# Density = 1.663996 g / cm^3
# Si number density = 16.677917 Si / 1000 Ang^3
#
#
#
# Elastic Constant Matrix: (Units=GPa)
#
#
# Indices 1 2 3 4 5 6 
#
# 1 60.3619 28.5318 65.7765 0.0000 0.0000 0.0000
# 2 28.5318 75.7730 60.4653 0.0000 0.0000 0.0000
# 3 65.7765 60.4653 172.9875 0.0000 0.0000 0.0000
# 4 0.0000 0.0000 0.0000 30.3374 0.0000 0.0000
# 5 0.0000 0.0000 0.0000 0.0000 29.3376 0.0000
# 6 0.0000 0.0000 0.0000 0.0000 0.0000 18.2612
#
#
#
# Elastic Compliance Matrix: (Units=1/GPa)
#
#
# Indices 1 2 3 4 5 6 
#
# 1 0.028744 -0.002915 -0.009911 0.000000 0.000000 0.000000
# 2 -0.002915 0.018598 -0.005392 0.000000 0.000000 0.000000
# 3 -0.009911 -0.005392 0.011434 0.000000 0.000000 0.000000
# 4 0.000000 0.000000 0.000000 0.032963 0.000000 0.000000
# 5 0.000000 0.000000 0.000000 0.000000 0.034086 0.000000
# 6 0.000000 0.000000 0.000000 0.000000 0.000000 0.054761
#
#
# Mechanical properties :
#
#
# Convention : Reuss Voigt Hill
#
# Bulk Modulus (GPa) = 44.76217 68.74108 56.75162
# Shear Modulus (GPa) = 22.27485 25.87716 24.07601
#
# Velocity S-wave (km/s) = 3.65854 3.94329 3.80358
# Velocity P-wave (km/s) = 6.68909 7.87648 7.30695
#
# Compressibility (1/GPa) = 0.02234030
#
# Stress axis : x y z
#
# Youngs Moduli (GPa) = 34.78936 53.76986 87.45802
#
# Poissons Ratio (x) = 0.15673 0.86679
# Poissons Ratio (y) = 0.10140 0.47160
# Poissons Ratio (z) = 0.34479 0.28994
#
# Static dielectric constant tensor:
#      x y z
#    x 2.915400 0.000000 0.000000 
#    y 0.000000 3.134840 0.000000 
#    z 0.000000 0.000000 3.604270 
# 
# 
# High freq. dielectric constant tensor:
#      x y z
#    x 1.604360 0.000000 0.000000 
#    y 0.000000 1.646550 0.000000 
#    z 0.000000 0.000000 1.650160 
# 
# From -- ./inp_files/45844.got.cif
#   From: 2010.03.12/outbox.cif.g09.slc.cpg/sg67_23_cif.got.tgz:45844.got - 2010.04.10 22:41:39.
