data_PCOD8278143
_publ_section_title
;
Structure prediction by ZEFSAII (Michael W. Deem and Ramdas Pophale) SiO2 
 PCOD8278143
Probable space group: C M M A
;
_chemical_formula_sum "Si O2"
_cell_formula_units_Z 68
_cell_length_a 19.346869
_cell_length_b 18.279637
_cell_length_c 8.353913
_cell_angle_alpha 90.000000
_cell_angle_beta 90.000000
_cell_angle_gamma 90.000000
_cell_volume 2954.392596
_symmetry_space_group_name_H-M "C M M A"
_symmetry_group_IT_number 67
_symmetry_cell_setting 'orthorhombic'
loop_
_space_group_symop_operation_xyz
x,y,z
-x,1/2-y,z
x,-y,-z
-x,1/2+y,-z
-x,-y,-z
x,1/2+y,-z
-x,y,z
x,1/2-y,z
1/2+x,1/2+y,z
1/2-x,-y,z
1/2+x,1/2-y,-z
1/2-x,y,-z
1/2-x,1/2-y,-z
1/2+x,y,-z
1/2-x,1/2+y,z
1/2+x,-y,z
loop_
_atom_site_type_symbol
_atom_site_label
_atom_site_fract_x
_atom_site_fract_y
_atom_site_fract_z
Si Si1 0.000000 0.750000 0.186679
Si Si2 0.391982 0.000000 0.500000
Si Si3 0.829287 0.250000 0.465810
Si Si4 0.500000 0.618449 0.577290
Si Si5 0.250000 0.360541 0.000000
Si Si6 0.143626 0.891618 0.747933
Si Si7 0.500000 0.834045 0.227912
Si Si8 0.150398 0.250000 0.832028
O O1 0.000000 0.827326 0.275569
O O2 0.073122 0.750000 0.087023
O O3 0.434442 0.934702 0.581925
O O4 0.347412 0.964170 0.358872
O O5 0.750000 0.250000 0.500000
O O6 0.847122 0.319852 0.360244
O O7 0.866516 0.250000 0.639990
O O8 0.500000 0.668818 0.420151
O O9 0.201803 0.406092 0.119074
O O10 0.303570 0.317535 0.112256
O O11 0.067568 0.880575 0.828577
O O12 0.500000 0.750000 0.163089
#
# Coordination Sequence:
#
# PCOD8278143 Si02
#       8
#     4   8   8   8   8  16   8   8
#     4  12  22  38  72  92 122 170 234 298 334 390
#     4   9  20  36  67 100 136 178 228 282 336 415
#     4  12  20  38  68  97 131 179 228 289 331 399
#     4   9  18  37  62 102 133 158 228 307 341 378
#     4  11  24  42  60  95 150 178 216 274 346 415
#     4  11  22  40  68 102 141 181 230 284 342 403
#     4  10  17  30  60 101 133 175 229 280 330 392
#     4  11  23  38  63 103 131 171 226 288 341 393
#
# _framework density 23.016577000000002
#
# number of rings (size 3 to 8) (size 9 to 14) (size 15 to 20)
#    0.000    1.412    4.118    4.235    0.000    0.941 
#    0.000    0.588    0.000   18.353    0.000    0.000 
#    0.000    2.824    0.000    0.000    0.000    0.000 
#
# Total GULP energy -421235.735179 kJ/mol
# GULP energy per Si atom -12389.286329 kJ/mol
# Density = 2.296419 g / cm^3
# Si number density = 23.016577 Si / 1000 Ang^3
#
#
#
# Elastic Constant Matrix: (Units=GPa)
#
#
# Indices 1 2 3 4 5 6 
#
# 1 183.8443 36.3191 58.4545 0.0000 0.0000 0.0000
# 2 36.3191 110.1474 46.1753 0.0000 0.0000 0.0000
# 3 58.4545 46.1753 114.3940 0.0000 0.0000 0.0000
# 4 0.0000 0.0000 0.0000 66.8368 0.0000 0.0000
# 5 0.0000 0.0000 0.0000 0.0000 27.9763 0.0000
# 6 0.0000 0.0000 0.0000 0.0000 0.0000 716.7779
#
#
#
# Elastic Compliance Matrix: (Units=1/GPa)
#
#
# Indices 1 2 3 4 5 6 
#
# 1 0.006570 -0.000914 -0.002989 0.000000 0.000000 0.000000
# 2 -0.000914 0.011055 -0.003996 0.000000 0.000000 0.000000
# 3 -0.002989 -0.003996 0.011882 0.000000 0.000000 0.000000
# 4 0.000000 0.000000 0.000000 0.014962 0.000000 0.000000
# 5 0.000000 0.000000 0.000000 0.000000 0.035745 0.000000
# 6 0.000000 0.000000 0.000000 0.000000 0.000000 0.001395
#
#
# Mechanical properties :
#
#
# Convention : Reuss Voigt Hill
#
# Bulk Modulus (GPa) = 72.93153 76.69814 74.81484
# Shear Modulus (GPa) = 49.03218 180.14731 114.58975
#
# Velocity S-wave (km/s) = 4.62052 8.85655 7.06356
# Velocity P-wave (km/s) = 7.76022 11.74648 9.95492
#
# Compressibility (1/GPa) = 0.01371149
#
# Stress axis : x y z
#
# Youngs Moduli (GPa) = 152.20529 90.45725 84.16357
#
# Poissons Ratio (x) = 0.08264 0.25152
# Poissons Ratio (y) = 0.13905 0.33628
# Poissons Ratio (z) = 0.45487 0.36142
#
# Static dielectric constant tensor:
#      x y z
#    x 4.265070 0.000000 0.000000 
#    y 0.000000 4.013690 0.000000 
#    z 0.000000 0.000000 -2.992750 
# 
# 
# High freq. dielectric constant tensor:
#      x y z
#    x 1.931970 0.000000 0.000000 
#    y 0.000000 1.888750 0.000000 
#    z 0.000000 0.000000 1.893040 
# 
# From -- ./inp_files/10850.got.cif
#   From: 2010.03.12/outbox.cif.g09.slc.cpg/sg67_6_cif.got.tgz:10850.got - 2010.04.10 22:41:39.
