data_PCOD8278583
_publ_section_title
;
Structure prediction by ZEFSAII (Michael W. Deem and Ramdas Pophale) SiO2 
 PCOD8278583
Probable space group: C M M A
;
_chemical_formula_sum "Si O2"
_cell_formula_units_Z 36
_cell_length_a 13.533087
_cell_length_b 14.965909
_cell_length_c 9.367771
_cell_angle_alpha 90.000000
_cell_angle_beta 90.000000
_cell_angle_gamma 90.000000
_cell_volume 1897.301017
_symmetry_space_group_name_H-M "C M M A"
_symmetry_group_IT_number 67
_symmetry_cell_setting 'orthorhombic'
loop_
_space_group_symop_operation_xyz
x,y,z
-x,1/2-y,z
x,-y,-z
-x,1/2+y,-z
-x,-y,-z
x,1/2+y,-z
-x,y,z
x,1/2-y,z
1/2+x,1/2+y,z
1/2-x,-y,z
1/2+x,1/2-y,-z
1/2-x,y,-z
1/2-x,1/2-y,-z
1/2+x,y,-z
1/2-x,1/2+y,z
1/2+x,-y,z
loop_
_atom_site_type_symbol
_atom_site_label
_atom_site_fract_x
_atom_site_fract_y
_atom_site_fract_z
Si Si1 0.214007 0.750000 0.339255
Si Si2 0.000000 0.250000 0.788027
Si Si3 0.708454 0.597845 0.146727
Si Si4 0.000000 0.849761 0.932753
O O1 0.250000 0.750000 0.500000
O O2 0.260797 0.838818 0.274346
O O3 0.095535 0.750000 0.315341
O O4 0.000000 0.337670 0.893125
O O5 0.750000 0.500000 0.177774
O O6 0.591096 0.593231 0.126434
O O7 0.750000 0.639346 0.000000
O O8 0.000000 0.750000 0.863836
#
# Coordination Sequence:
#
# PCOD8278583 Si02
#       4
#     8   4  16   8
#     4  12  24  41  61  90 138 173 212 264 321 393
#     4  10  20  38  68  90 122 172 224 256 326 384
#     4  11  22  38  66  98 123 164 221 269 319 374
#     4  10  18  37  73  89 132 161 220 272 319 380
#
# _framework density 18.974322000000001
#
# number of rings (size 3 to 8) (size 9 to 14) (size 15 to 20)
#    0.667    0.444    6.667    0.667    0.000    8.000 
#    0.000    0.000    0.000    5.333    0.000    0.000 
#    0.000    0.000    0.000    0.000    0.000    0.000 
#
# Total GULP energy -223141.109349 kJ/mol
# GULP energy per Si atom -12396.728297 kJ/mol
# Density = 1.893114 g / cm^3
# Si number density = 18.974322 Si / 1000 Ang^3
#
#
#
# Elastic Constant Matrix: (Units=GPa)
#
#
# Indices 1 2 3 4 5 6 
#
# 1 210.2722 62.2495 70.7711 0.0000 0.0000 0.0000
# 2 62.2495 119.8383 68.6497 0.0000 0.0000 0.0000
# 3 70.7711 68.6497 145.9040 0.0000 0.0000 0.0000
# 4 0.0000 0.0000 0.0000 -8.7537 0.0000 0.0000
# 5 0.0000 0.0000 0.0000 0.0000 25.6305 0.0000
# 6 0.0000 0.0000 0.0000 0.0000 0.0000 31.7094
#
#
#
# Elastic Compliance Matrix: (Units=1/GPa)
#
#
# Indices 1 2 3 4 5 6 
#
# 1 0.006011 -0.001988 -0.001980 0.000000 0.000000 0.000000
# 2 -0.001988 0.012081 -0.004720 0.000000 0.000000 0.000000
# 3 -0.001980 -0.004720 0.010035 0.000000 0.000000 0.000000
# 4 0.000000 0.000000 0.000000 -0.114238 0.000000 0.000000
# 5 0.000000 0.000000 0.000000 0.000000 0.039016 0.000000
# 6 0.000000 0.000000 0.000000 0.000000 0.000000 0.031536
#
#
# Mechanical properties :
#
#
# Convention : Reuss Voigt Hill
#
# Bulk Modulus (GPa) = 93.01739 97.70610 95.36175
# Shear Modulus (GPa) = 925.63437 28.00685 476.82061
#
# Velocity S-wave (km/s) = 22.11095 3.84609 15.86957
# Velocity P-wave (km/s) = 26.47618 8.44564 19.65092
#
# Compressibility (1/GPa) = 0.01075068
#
# Stress axis : x y z
#
# Youngs Moduli (GPa) = 166.36972 82.77403 99.64950
#
# Poissons Ratio (x) = 0.16454 0.19732
# Poissons Ratio (y) = 0.33072 0.47035
# Poissons Ratio (z) = 0.32944 0.39070
#
# Static dielectric constant tensor:
#      x y z
#    x 3.690120 0.000000 0.000000 
#    y 0.000000 3.328270 0.000000 
#    z 0.000000 0.000000 3.178100 
# 
# 
# High freq. dielectric constant tensor:
#      x y z
#    x 1.760270 0.000000 0.000000 
#    y 0.000000 1.735140 0.000000 
#    z 0.000000 0.000000 1.701990 
# 
# From -- ./inp_files/6992.got.cif
#   From: 2010.03.12/outbox.cif.g09.slc.cpg/sg67_4_cif.got.tgz:6992.got - 2010.04.10 22:41:39.
