data_PCOD8278698
_publ_section_title
;
Structure prediction by ZEFSAII (Michael W. Deem and Ramdas Pophale) SiO2 
 PCOD8278698
Probable space group: C M M A
;
_chemical_formula_sum "Si O2"
_cell_formula_units_Z 80
_cell_length_a 34.702445
_cell_length_b 25.504581
_cell_length_c 5.069704
_cell_angle_alpha 90.000000
_cell_angle_beta 90.000000
_cell_angle_gamma 90.000000
_cell_volume 4487.049608
_symmetry_space_group_name_H-M "C M M A"
_symmetry_group_IT_number 67
_symmetry_cell_setting 'orthorhombic'
loop_
_space_group_symop_operation_xyz
x,y,z
-x,1/2-y,z
x,-y,-z
-x,1/2+y,-z
-x,-y,-z
x,1/2+y,-z
-x,y,z
x,1/2-y,z
1/2+x,1/2+y,z
1/2-x,-y,z
1/2+x,1/2-y,-z
1/2-x,y,-z
1/2-x,1/2-y,-z
1/2+x,y,-z
1/2-x,1/2+y,z
1/2+x,-y,z
loop_
_atom_site_type_symbol
_atom_site_label
_atom_site_fract_x
_atom_site_fract_y
_atom_site_fract_z
Si Si1 0.956329 0.690545 0.861790
Si Si2 0.707640 0.689709 0.003328
Si Si3 0.340895 0.189220 0.511521
Si Si4 0.543845 0.034868 0.243750
Si Si5 0.079306 0.642990 0.361700
O O1 0.949315 0.750000 0.770236
O O2 0.948010 0.654124 0.611124
O O3 0.000000 0.680455 0.952706
O O4 0.929289 0.679873 0.111924
O O5 0.712967 0.750000 0.086062
O O6 0.690130 0.682792 0.716740
O O7 0.750000 0.662681 0.000000
O O8 0.678898 0.666095 0.223824
O O9 0.354270 0.250000 0.542447
O O10 0.377109 0.152534 0.450964
O O11 0.500000 0.054915 0.194946
O O12 0.572693 0.083527 0.270666
O O13 0.546241 0.000000 0.500000
O O14 0.558241 0.000000 0.000000
#
# Coordination Sequence:
#
# PCOD8278698 Si02
#       5
#    16  16  16  16  16
#     4  11  22  34  49  71 101 139 176 205 244 309
#     4   9  17  30  47  68  99 138 172 198 230 284
#     4  10  19  30  47  73 103 134 166 201 245 298
#     4  10  21  37  55  73  94 127 175 225 268 308
#     4  12  22  35  53  74 103 134 170 218 270 309
#
# _framework density 17.829086
#
# number of rings (size 3 to 8) (size 9 to 14) (size 15 to 20)
#    0.000    1.600    0.000    6.600    0.000    7.200 
#    0.000    0.000    0.000    0.000    0.000    0.000 
#    0.000   12.000    0.000    0.000    0.000    0.000 
#
# Total GULP energy -496114.281487 kJ/mol
# GULP energy per Si atom -12402.857037 kJ/mol
# Density = 1.778851 g / cm^3
# Si number density = 17.829086 Si / 1000 Ang^3
#
#
#
# Elastic Constant Matrix: (Units=GPa)
#
#
# Indices 1 2 3 4 5 6 
#
# 1 91.9725 43.4502 16.6243 0.0000 0.0000 0.0000
# 2 43.4502 62.7401 17.0025 0.0000 0.0000 0.0000
# 3 16.6243 17.0025 99.6809 0.0000 0.0000 0.0000
# 4 0.0000 0.0000 0.0000 23.4483 0.0000 0.0000
# 5 0.0000 0.0000 0.0000 0.0000 33.3384 0.0000
# 6 0.0000 0.0000 0.0000 0.0000 0.0000 15.7648
#
#
#
# Elastic Compliance Matrix: (Units=1/GPa)
#
#
# Indices 1 2 3 4 5 6 
#
# 1 0.016225 -0.011012 -0.000828 0.000000 0.000000 0.000000
# 2 -0.011012 0.024185 -0.002289 0.000000 0.000000 0.000000
# 3 -0.000828 -0.002289 0.010560 0.000000 0.000000 0.000000
# 4 0.000000 0.000000 0.000000 0.042647 0.000000 0.000000
# 5 0.000000 0.000000 0.000000 0.000000 0.029995 0.000000
# 6 0.000000 0.000000 0.000000 0.000000 0.000000 0.063432
#
#
# Mechanical properties :
#
#
# Convention : Reuss Voigt Hill
#
# Bulk Modulus (GPa) = 44.02615 45.39418 44.71016
# Shear Modulus (GPa) = 22.43424 26.33140 24.38282
#
# Velocity S-wave (km/s) = 3.55109 3.84719 3.70210
# Velocity P-wave (km/s) = 6.44676 6.72685 6.58829
#
# Compressibility (1/GPa) = 0.02271377
#
# Stress axis : x y z
#
# Youngs Moduli (GPa) = 61.63393 41.34723 94.69324
#
# Poissons Ratio (x) = 0.45532 0.07836
# Poissons Ratio (y) = 0.67872 0.21673
# Poissons Ratio (z) = 0.05101 0.09463
#
# Static dielectric constant tensor:
#      x y z
#    x 3.287310 0.000000 0.000000 
#    y 0.000000 2.932440 0.000000 
#    z 0.000000 0.000000 3.500370 
# 
# 
# High freq. dielectric constant tensor:
#      x y z
#    x 1.684550 0.000000 0.000000 
#    y 0.000000 1.640480 0.000000 
#    z 0.000000 0.000000 1.716730 
# 
# From -- ./inp_files/3529.got.cif
#   From: 2010.03.12/outbox.cif.g09.slc.cpg/sg67_2_cif.got.tgz:3529.got - 2010.04.10 22:41:39.
