data_PCOD8278161
_publ_section_title
;
Structure prediction by ZEFSAII (Michael W. Deem and Ramdas Pophale) SiO2 
 PCOD8278161
Probable space group: C M M A
;
_chemical_formula_sum "Si O2"
_cell_formula_units_Z 128
_cell_length_a 17.764254
_cell_length_b 18.104262
_cell_length_c 21.647325
_cell_angle_alpha 90.000000
_cell_angle_beta 90.000000
_cell_angle_gamma 90.000000
_cell_volume 6961.968239
_symmetry_space_group_name_H-M "C M M A"
_symmetry_group_IT_number 67
_symmetry_cell_setting 'orthorhombic'
loop_
_space_group_symop_operation_xyz
x,y,z
-x,1/2-y,z
x,-y,-z
-x,1/2+y,-z
-x,-y,-z
x,1/2+y,-z
-x,y,z
x,1/2-y,z
1/2+x,1/2+y,z
1/2-x,-y,z
1/2+x,1/2-y,-z
1/2-x,y,-z
1/2-x,1/2-y,-z
1/2+x,y,-z
1/2-x,1/2+y,z
1/2+x,-y,z
loop_
_atom_site_type_symbol
_atom_site_label
_atom_site_fract_x
_atom_site_fract_y
_atom_site_fract_z
Si Si1 0.089542 0.923303 0.606257
Si Si2 0.914600 0.835852 0.116482
Si Si3 0.230657 0.586108 0.067753
Si Si4 0.089676 0.332654 0.509255
Si Si5 0.794673 0.834916 0.819686
Si Si6 0.357590 0.333937 0.248506
Si Si7 0.585737 0.836321 0.275803
Si Si8 0.410757 0.912034 0.631067
O O1 0.122458 0.886705 0.543740
O O2 0.119361 0.877483 0.664797
O O3 0.000000 0.920171 0.603698
O O4 0.118220 0.006711 0.612862
O O5 0.892381 0.750000 0.102769
O O6 0.856161 0.891230 0.082560
O O7 0.911790 0.849224 0.190150
O O8 0.000000 0.852496 0.093899
O O9 0.250000 0.500000 0.070641
O O10 0.287132 0.621420 0.116921
O O11 0.250000 0.617110 0.000000
O O12 0.119672 0.250000 0.497207
O O13 0.117663 0.358520 0.576531
O O14 0.000000 0.334699 0.507265
O O15 0.797788 0.750000 0.838583
O O16 0.727094 0.850079 0.772491
O O17 0.870252 0.861153 0.785525
O O18 0.368032 0.250000 0.271965
O O19 0.375574 0.388944 0.303979
O O20 0.500000 0.858830 0.263859
O O21 0.595817 0.750000 0.288762
O O22 0.500000 0.909801 0.638041
#
# Coordination Sequence:
#
# PCOD8278161 Si02
#       8
#    16  16  16  16  16  16  16  16
#     4   9  17  28  42  63  92 125 159 197 244 296
#     4   9  18  34  57  82 107 140 184 227 262 307
#     4  10  21  37  55  79 111 146 178 210 260 320
#     4   9  16  26  41  61  87 122 163 204 245 289
#     4   9  19  35  54  75  99 131 169 209 252 301
#     4   9  17  30  48  70  98 129 161 203 257 309
#     4   9  17  31  51  73  96 123 161 206 248 295
#     4  10  18  26  40  66  97 125 158 202 248 293
#
# _framework density 18.385605999999999
#
# number of rings (size 3 to 8) (size 9 to 14) (size 15 to 20)
#    0.000    2.750    0.000    2.625    0.000    7.250 
#    0.000    3.750    0.000    2.250    0.000    5.250 
#    0.000    0.000    0.000    0.000    0.000    0.000 
#
# Total GULP energy -793399.771475 kJ/mol
# GULP energy per Si atom -12396.871429 kJ/mol
# Density = 1.834376 g / cm^3
# Si number density = 18.385606 Si / 1000 Ang^3
#
#
#
# Elastic Constant Matrix: (Units=GPa)
#
#
# Indices 1 2 3 4 5 6 
#
# 1 58.4713 30.6563 39.7435 0.0000 0.0000 0.0000
# 2 30.6563 99.5931 69.5217 0.0000 0.0000 0.0000
# 3 39.7435 69.5217 147.2040 0.0000 0.0000 0.0000
# 4 0.0000 0.0000 0.0000 34.9176 0.0000 0.0000
# 5 0.0000 0.0000 0.0000 0.0000 15.2247 0.0000
# 6 0.0000 0.0000 0.0000 0.0000 0.0000 20.0115
#
#
#
# Elastic Compliance Matrix: (Units=1/GPa)
#
#
# Indices 1 2 3 4 5 6 
#
# 1 0.021918 -0.003902 -0.004075 0.000000 0.000000 0.000000
# 2 -0.003902 0.015674 -0.006349 0.000000 0.000000 0.000000
# 3 -0.004075 -0.006349 0.010892 0.000000 0.000000 0.000000
# 4 0.000000 0.000000 0.000000 0.028639 0.000000 0.000000
# 5 0.000000 0.000000 0.000000 0.000000 0.065683 0.000000
# 6 0.000000 0.000000 0.000000 0.000000 0.000000 0.049971
#
#
# Mechanical properties :
#
#
# Convention : Reuss Voigt Hill
#
# Bulk Modulus (GPa) = 50.42359 65.01239 57.71799
# Shear Modulus (GPa) = 21.92607 25.05390 23.48999
#
# Velocity S-wave (km/s) = 3.45710 3.69547 3.57827
# Velocity P-wave (km/s) = 6.58943 7.32434 6.96658
#
# Compressibility (1/GPa) = 0.01983199
#
# Stress axis : x y z
#
# Youngs Moduli (GPa) = 45.62475 63.79990 91.81166
#
# Poissons Ratio (x) = 0.24897 0.37409
# Poissons Ratio (y) = 0.17805 0.58291
# Poissons Ratio (z) = 0.18590 0.40506
#
# Static dielectric constant tensor:
#      x y z
#    x 3.293240 0.000000 0.000000 
#    y 0.000000 3.410030 0.000000 
#    z 0.000000 0.000000 3.430480 
# 
# 
# High freq. dielectric constant tensor:
#      x y z
#    x 1.680000 0.000000 0.000000 
#    y 0.000000 1.712890 0.000000 
#    z 0.000000 0.000000 1.714430 
# 
# From -- ./inp_files/39441.got.cif
#   From: 2010.03.12/outbox.cif.g09.slc.cpg/sg67_20_cif.got.tgz:39441.got - 2010.04.10 22:41:39.
