data_PCOD8278757
_publ_section_title
;
Structure prediction by ZEFSAII (Michael W. Deem and Ramdas Pophale) SiO2 
 PCOD8278757
Probable space group: C M M A
;
_chemical_formula_sum "Si O2"
_cell_formula_units_Z 120
_cell_length_a 9.044147
_cell_length_b 26.493127
_cell_length_c 29.244431
_cell_angle_alpha 90.000000
_cell_angle_beta 90.000000
_cell_angle_gamma 90.000000
_cell_volume 7007.191876
_symmetry_space_group_name_H-M "C M M A"
_symmetry_group_IT_number 67
_symmetry_cell_setting 'orthorhombic'
loop_
_space_group_symop_operation_xyz
x,y,z
-x,1/2-y,z
x,-y,-z
-x,1/2+y,-z
-x,-y,-z
x,1/2+y,-z
-x,y,z
x,1/2-y,z
1/2+x,1/2+y,z
1/2-x,-y,z
1/2+x,1/2-y,-z
1/2-x,y,-z
1/2-x,1/2-y,-z
1/2+x,y,-z
1/2-x,1/2+y,z
1/2+x,-y,z
loop_
_atom_site_type_symbol
_atom_site_label
_atom_site_fract_x
_atom_site_fract_y
_atom_site_fract_z
Si Si1 0.666546 0.309979 0.455628
Si Si2 0.674696 0.448491 0.118011
Si Si3 0.673970 0.308482 0.636373
Si Si4 0.672265 0.549523 0.776574
Si Si5 0.824247 0.750000 0.951152
Si Si6 0.664470 0.306566 0.801650
Si Si7 0.173282 0.351543 0.722774
Si Si8 0.826648 0.650397 0.897166
O O1 0.500000 0.331597 0.454123
O O2 0.663337 0.250000 0.458479
O O3 0.750000 0.332204 0.500000
O O4 0.754042 0.327468 0.410704
O O5 0.500000 0.451993 0.110381
O O6 0.750000 0.500000 0.099718
O O7 0.719029 0.440568 0.171067
O O8 0.738467 0.400675 0.089291
O O9 0.500000 0.316697 0.633015
O O10 0.713194 0.250000 0.646106
O O11 0.740025 0.343108 0.676012
O O12 0.500000 0.540490 0.773452
O O13 0.750000 0.500000 0.756848
O O14 0.722039 0.595097 0.744049
O O15 0.770524 0.699038 0.925495
O O16 0.000000 0.750000 0.955415
O O17 0.750000 0.750000 0.000000
O O18 0.500000 0.320862 0.783737
O O19 0.664912 0.250000 0.820820
O O20 0.779728 0.310138 0.760170
O O21 0.710341 0.341346 0.843873
O O22 0.000000 0.347186 0.713214
O O23 0.000000 0.641739 0.905366
#
# Coordination Sequence:
#
# PCOD8278757 Si02
#       8
#    16  16  16  16   8  16  16  16
#     4   9  16  27  44  64  86 116 155 201 249 293
#     4  10  19  33  52  78 107 136 172 213 257 304
#     4  10  20  32  44  62  90 127 168 203 239 290
#     4   9  19  32  46  66  93 124 161 202 242 288
#     4  10  22  40  60  84 112 142 176 214 261 310
#     4  10  19  31  47  68  95 131 169 201 236 285
#     4  11  21  32  44  65  96 128 162 202 245 290
#     4  10  19  34  55  78 105 137 172 211 252 302
#
# _framework density 17.125261999999999
#
# number of rings (size 3 to 8) (size 9 to 14) (size 15 to 20)
#    0.000    2.133    2.000    2.000    0.000    6.400 
#    0.000    0.000    0.000    0.400    0.000    2.800 
#    0.000    0.533    0.000    5.600    0.000    3.333 
#
# Total GULP energy -743950.519300 kJ/mol
# GULP energy per Si atom -12399.175322 kJ/mol
# Density = 1.708628 g / cm^3
# Si number density = 17.125262 Si / 1000 Ang^3
#
#
#
# Elastic Constant Matrix: (Units=GPa)
#
#
# Indices 1 2 3 4 5 6 
#
# 1 74.9394 44.4579 38.7437 0.0000 0.0000 0.0000
# 2 44.4579 108.6998 40.2691 0.0000 0.0000 0.0000
# 3 38.7437 40.2691 73.7724 0.0000 0.0000 0.0000
# 4 0.0000 0.0000 0.0000 11.3931 0.0000 0.0000
# 5 0.0000 0.0000 0.0000 0.0000 29.3989 0.0000
# 6 0.0000 0.0000 0.0000 0.0000 0.0000 27.7325
#
#
#
# Elastic Compliance Matrix: (Units=1/GPa)
#
#
# Indices 1 2 3 4 5 6 
#
# 1 0.020693 -0.005562 -0.007831 0.000000 0.000000 0.000000
# 2 -0.005562 0.013027 -0.004190 0.000000 0.000000 0.000000
# 3 -0.007831 -0.004190 0.019955 0.000000 0.000000 0.000000
# 4 0.000000 0.000000 0.000000 0.087773 0.000000 0.000000
# 5 0.000000 0.000000 0.000000 0.000000 0.034015 0.000000
# 6 0.000000 0.000000 0.000000 0.000000 0.000000 0.036059
#
#
# Mechanical properties :
#
#
# Convention : Reuss Voigt Hill
#
# Bulk Modulus (GPa) = 54.02958 56.03922 55.03440
# Shear Modulus (GPa) = 19.77415 22.63429 21.20422
#
# Velocity S-wave (km/s) = 3.40174 3.63945 3.52260
# Velocity P-wave (km/s) = 6.85910 7.10317 6.98220
#
# Compressibility (1/GPa) = 0.01850838
#
# Stress axis : x y z
#
# Youngs Moduli (GPa) = 48.32668 76.76612 50.11302
#
# Poissons Ratio (x) = 0.42697 0.39244
# Poissons Ratio (y) = 0.26879 0.20995
# Poissons Ratio (z) = 0.37846 0.32162
#
# Static dielectric constant tensor:
#      x y z
#    x 3.244960 0.000000 0.000000 
#    y 0.000000 3.134900 0.000000 
#    z 0.000000 0.000000 3.037050 
# 
# 
# High freq. dielectric constant tensor:
#      x y z
#    x 1.668980 0.000000 0.000000 
#    y 0.000000 1.639990 0.000000 
#    z 0.000000 0.000000 1.639500 
# 
# From -- ./inp_files/43920.got.cif
#   From: 2010.03.12/outbox.cif.g09.slc.cpg/sg67_22_cif.got.tgz:43920.got - 2010.04.10 22:41:39.
