data_PCOD8278597
_publ_section_title
;
Structure prediction by ZEFSAII (Michael W. Deem and Ramdas Pophale) SiO2 
 PCOD8278597
Probable space group: C M M A
;
_chemical_formula_sum "Si O2"
_cell_formula_units_Z 112
_cell_length_a 17.373240
_cell_length_b 25.606445
_cell_length_c 14.945343
_cell_angle_alpha 90.000000
_cell_angle_beta 90.000000
_cell_angle_gamma 90.000000
_cell_volume 6648.688627
_symmetry_space_group_name_H-M "C M M A"
_symmetry_group_IT_number 67
_symmetry_cell_setting 'orthorhombic'
loop_
_space_group_symop_operation_xyz
x,y,z
-x,1/2-y,z
x,-y,-z
-x,1/2+y,-z
-x,-y,-z
x,1/2+y,-z
-x,y,z
x,1/2-y,z
1/2+x,1/2+y,z
1/2-x,-y,z
1/2+x,1/2-y,-z
1/2-x,y,-z
1/2-x,1/2-y,-z
1/2+x,y,-z
1/2-x,1/2+y,z
1/2+x,-y,z
loop_
_atom_site_type_symbol
_atom_site_label
_atom_site_fract_x
_atom_site_fract_y
_atom_site_fract_z
Si Si1 0.735469 0.940641 0.104301
Si Si2 0.649363 0.190040 0.736746
Si Si3 0.586432 0.618712 0.120453
Si Si4 0.085005 0.188382 0.446910
Si Si5 0.412735 0.191259 0.043827
Si Si6 0.409038 0.189695 0.355966
Si Si7 0.188306 0.347510 0.798791
O O1 0.646247 0.928882 0.127015
O O2 0.791989 0.905257 0.164813
O O3 0.750000 0.000000 0.131693
O O4 0.750000 0.930386 0.000000
O O5 0.623701 0.250000 0.746085
O O6 0.589840 0.155235 0.792598
O O7 0.643217 0.172021 0.632580
O O8 0.734856 0.183131 0.773100
O O9 0.500000 0.596289 0.110992
O O10 0.611404 0.652878 0.035300
O O11 0.077349 0.250000 0.453846
O O12 0.114981 0.169958 0.544479
O O13 0.000000 0.164896 0.427083
O O14 0.500000 0.179738 0.076169
O O15 0.405665 0.250000 0.006808
O O16 0.354965 0.185030 0.125525
O O17 0.500000 0.184427 0.342534
O O18 0.383557 0.250000 0.338823
O O19 0.366300 0.150543 0.287957
#
# Coordination Sequence:
#
# PCOD8278597 Si02
#       7
#    16  16  16  16  16  16  16
#     4  10  21  40  56  69  94 126 160 213 268 291
#     4  10  19  28  45  72 104 138 168 202 239 282
#     4  10  20  34  51  74  98 129 170 201 237 295
#     4   8  15  28  44  65  97 137 171 198 233 277
#     4  10  19  30  45  69 104 137 162 192 232 287
#     4   9  17  30  48  71 104 138 165 196 235 287
#     4  11  20  31  48  72  96 129 169 204 246 298
#
# _framework density 16.845427000000001
#
# number of rings (size 3 to 8) (size 9 to 14) (size 15 to 20)
#    0.000    2.286    1.429    3.429    0.000    3.143 
#    0.000    7.143    0.000    0.000    0.000    8.000 
#    0.000   10.286    0.000    0.000    0.000    0.000 
#
# Total GULP energy -694236.317499 kJ/mol
# GULP energy per Si atom -12397.077098 kJ/mol
# Density = 1.680709 g / cm^3
# Si number density = 16.845427 Si / 1000 Ang^3
#
#
#
# Elastic Constant Matrix: (Units=GPa)
#
#
# Indices 1 2 3 4 5 6 
#
# 1 80.2156 40.9894 44.1143 0.0000 0.0000 0.0000
# 2 40.9894 83.1701 41.0042 0.0000 0.0000 0.0000
# 3 44.1143 41.0042 118.0343 0.0000 0.0000 0.0000
# 4 0.0000 0.0000 0.0000 12.2090 0.0000 0.0000
# 5 0.0000 0.0000 0.0000 0.0000 19.9576 0.0000
# 6 0.0000 0.0000 0.0000 0.0000 0.0000 15.8315
#
#
#
# Elastic Compliance Matrix: (Units=1/GPa)
#
#
# Indices 1 2 3 4 5 6 
#
# 1 0.018460 -0.006873 -0.004511 0.000000 0.000000 0.000000
# 2 -0.006873 0.017068 -0.003360 0.000000 0.000000 0.000000
# 3 -0.004511 -0.003360 0.011326 0.000000 0.000000 0.000000
# 4 0.000000 0.000000 0.000000 0.081906 0.000000 0.000000
# 5 0.000000 0.000000 0.000000 0.000000 0.050106 0.000000
# 6 0.000000 0.000000 0.000000 0.000000 0.000000 0.063165
#
#
# Mechanical properties :
#
#
# Convention : Reuss Voigt Hill
#
# Bulk Modulus (GPa) = 57.59468 59.29285 58.44376
# Shear Modulus (GPa) = 18.03045 19.95377 18.99211
#
# Velocity S-wave (km/s) = 3.27517 3.44542 3.36137
# Velocity P-wave (km/s) = 6.96897 7.14860 7.05936
#
# Compressibility (1/GPa) = 0.01736271
#
# Stress axis : x y z
#
# Youngs Moduli (GPa) = 54.17212 58.59008 88.29603
#
# Poissons Ratio (x) = 0.40272 0.39833
# Poissons Ratio (y) = 0.37235 0.29670
# Poissons Ratio (z) = 0.24439 0.19688
#
# Static dielectric constant tensor:
#      x y z
#    x 3.197030 0.000000 0.000000 
#    y 0.000000 2.760690 0.000000 
#    z 0.000000 0.000000 3.454320 
# 
# 
# High freq. dielectric constant tensor:
#      x y z
#    x 1.657090 0.000000 0.000000 
#    y 0.000000 1.596090 0.000000 
#    z 0.000000 0.000000 1.660000 
# 
# From -- ./inp_files/27839.got.cif
#   From: 2010.03.12/outbox.cif.g09.slc.cpg/sg67_14_cif.got.tgz:27839.got - 2010.04.10 22:41:39.
