data_PCOD8278071
_publ_section_title
;
Structure prediction by ZEFSAII (Michael W. Deem and Ramdas Pophale) SiO2 
 PCOD8278071
Probable space group: C M M A
;
_chemical_formula_sum "Si O2"
_cell_formula_units_Z 60
_cell_length_a 13.673343
_cell_length_b 26.102225
_cell_length_c 9.000905
_cell_angle_alpha 90.000000
_cell_angle_beta 90.000000
_cell_angle_gamma 90.000000
_cell_volume 3212.465078
_symmetry_space_group_name_H-M "C M M A"
_symmetry_group_IT_number 67
_symmetry_cell_setting 'orthorhombic'
loop_
_space_group_symop_operation_xyz
x,y,z
-x,1/2-y,z
x,-y,-z
-x,1/2+y,-z
-x,-y,-z
x,1/2+y,-z
-x,y,z
x,1/2-y,z
1/2+x,1/2+y,z
1/2-x,-y,z
1/2+x,1/2-y,-z
1/2-x,y,-z
1/2-x,1/2-y,-z
1/2+x,y,-z
1/2-x,1/2+y,z
1/2+x,-y,z
loop_
_atom_site_type_symbol
_atom_site_label
_atom_site_fract_x
_atom_site_fract_y
_atom_site_fract_z
Si Si1 0.784269 0.947660 0.829830
Si Si2 0.293636 0.750000 0.336671
Si Si3 0.000000 0.250000 0.200250
Si Si4 0.500000 0.337870 0.048724
Si Si5 0.293696 0.657273 0.836341
Si Si6 0.000000 0.552620 0.907661
O O1 0.730528 0.897877 0.760267
O O2 0.901631 0.944109 0.809829
O O3 0.750000 0.000000 0.748013
O O4 0.750000 0.950706 0.000000
O O5 0.250000 0.750000 0.500000
O O6 0.410372 0.750000 0.316027
O O7 0.256937 0.699210 0.260813
O O8 0.000000 0.199419 0.094978
O O9 0.407370 0.328381 0.153925
O O10 0.500000 0.397733 0.010883
O O11 0.250000 0.657800 0.000000
O O12 0.000000 0.500000 0.000000
#
# Coordination Sequence:
#
# PCOD8278071 Si02
#       6
#    16   8   4   8  16   8
#     4  10  17  27  45  76 113 138 171 219 269 324
#     4  12  26  41  57  78 112 145 186 230 273 327
#     4  12  22  38  60  78 104 148 182 222 282 326
#     4  12  20  31  60  85 109 141 183 225 272 325
#     4  11  20  36  56  83 108 141 184 226 269 319
#     4  12  16  24  43  75 113 143 163 211 281 322
#
# _framework density 18.677244999999999
#
# number of rings (size 3 to 8) (size 9 to 14) (size 15 to 20)
#    0.000    0.800   10.667    1.200    0.000    1.067 
#    0.000    0.000    0.000    0.800    0.000    0.000 
#    0.000   12.800    0.000    0.000    0.000    0.000 
#
# Total GULP energy -371764.597267 kJ/mol
# GULP energy per Si atom -12392.153242 kJ/mol
# Density = 1.863474 g / cm^3
# Si number density = 18.677245 Si / 1000 Ang^3
#
#
#
# Elastic Constant Matrix: (Units=GPa)
#
#
# Indices 1 2 3 4 5 6 
#
# 1 188.3898 38.1424 28.3488 0.0000 0.0000 0.0000
# 2 38.1424 164.5012 42.1575 0.0000 0.0000 0.0000
# 3 28.3488 42.1575 39.6240 0.0000 0.0000 0.0000
# 4 0.0000 0.0000 0.0000 -39.9231 0.0000 0.0000
# 5 0.0000 0.0000 0.0000 0.0000 13.8188 0.0000
# 6 0.0000 0.0000 0.0000 0.0000 0.0000 80.3257
#
#
#
# Elastic Compliance Matrix: (Units=1/GPa)
#
#
# Indices 1 2 3 4 5 6 
#
# 1 0.005967 -0.000398 -0.003846 0.000000 0.000000 0.000000
# 2 -0.000398 0.008384 -0.008636 0.000000 0.000000 0.000000
# 3 -0.003846 -0.008636 0.037177 0.000000 0.000000 0.000000
# 4 0.000000 0.000000 0.000000 -0.025048 0.000000 0.000000
# 5 0.000000 0.000000 0.000000 0.000000 0.072365 0.000000
# 6 0.000000 0.000000 0.000000 0.000000 0.000000 0.012449
#
#
# Mechanical properties :
#
#
# Convention : Reuss Voigt Hill
#
# Bulk Modulus (GPa) = 38.80608 67.75695 53.28152
# Shear Modulus (GPa) = 34.33037 29.76870 32.04954
#
# Velocity S-wave (km/s) = 4.29194 3.99663 4.14692
# Velocity P-wave (km/s) = 6.73671 7.59302 7.17765
#
# Compressibility (1/GPa) = 0.02576915
#
# Stress axis : x y z
#
# Youngs Moduli (GPa) = 167.57540 119.26929 26.89868
#
# Poissons Ratio (x) = 0.04748 0.10345
# Poissons Ratio (y) = 0.06670 0.23229
# Poissons Ratio (z) = 0.64448 1.02997
#
# Static dielectric constant tensor:
#      x y z
#    x 4.264000 0.000000 0.000000 
#    y 0.000000 3.483130 0.000000 
#    z 0.000000 0.000000 2.485370 
# 
# 
# High freq. dielectric constant tensor:
#      x y z
#    x 1.752770 0.000000 0.000000 
#    y 0.000000 1.764480 0.000000 
#    z 0.000000 0.000000 1.629700 
# 
# From -- ./inp_files/6554.got.cif
#   From: 2010.03.12/outbox.cif.g09.slc.cpg/sg67_4_cif.got.tgz:6554.got - 2010.04.10 22:41:39.
