data_PCOD8278087
_publ_section_title
;
Structure prediction by ZEFSAII (Michael W. Deem and Ramdas Pophale) SiO2 
 PCOD8278087
Probable space group: C M M A
;
_chemical_formula_sum "Si O2"
_cell_formula_units_Z 56
_cell_length_a 8.500365
_cell_length_b 25.225143
_cell_length_c 15.308910
_cell_angle_alpha 90.000000
_cell_angle_beta 90.000000
_cell_angle_gamma 90.000000
_cell_volume 3282.581225
_symmetry_space_group_name_H-M "C M M A"
_symmetry_group_IT_number 67
_symmetry_cell_setting 'orthorhombic'
loop_
_space_group_symop_operation_xyz
x,y,z
-x,1/2-y,z
x,-y,-z
-x,1/2+y,-z
-x,-y,-z
x,1/2+y,-z
-x,y,z
x,1/2-y,z
1/2+x,1/2+y,z
1/2-x,-y,z
1/2+x,1/2-y,-z
1/2-x,y,-z
1/2-x,1/2-y,-z
1/2+x,y,-z
1/2-x,1/2+y,z
1/2+x,-y,z
loop_
_atom_site_type_symbol
_atom_site_label
_atom_site_fract_x
_atom_site_fract_y
_atom_site_fract_z
Si Si1 0.186241 0.858637 0.097511
Si Si2 0.313699 0.940612 0.588138
Si Si3 0.813444 0.250000 0.097622
Si Si4 0.686253 0.940839 0.232709
O O1 0.247887 0.803756 0.141955
O O2 0.249689 0.907542 0.152324
O O3 0.000000 0.858654 0.096038
O O4 0.250000 0.865027 0.000000
O O5 0.500000 0.939698 0.589116
O O6 0.250000 0.911505 0.500000
O O7 0.247407 0.913995 0.676684
O O8 0.250000 0.000000 0.587258
O O9 0.000000 0.250000 0.100073
O O10 0.750000 0.250000 0.000000
O O11 0.500000 0.941642 0.232340
O O12 0.750000 0.000000 0.222168
#
# Coordination Sequence:
#
# PCOD8278087 Si02
#       4
#    16  16   8  16
#     4  11  21  35  52  73  98 129 164 203 244 288
#     4  10  17  28  45  67  93 125 160 199 240 284
#     4  10  18  32  52  74  95 122 159 204 246 284
#     4  11  21  34  49  71 100 132 165 201 242 293
#
# _framework density 17.059746000000001
#
# number of rings (size 3 to 8) (size 9 to 14) (size 15 to 20)
#    0.000    1.429    0.000   13.286    0.000    0.571 
#    0.000    2.857    0.000    0.000    0.000    1.000 
#    0.000    0.000    0.000    0.000    0.000    0.000 
#
# Total GULP energy -347087.679616 kJ/mol
# GULP energy per Si atom -12395.988558 kJ/mol
# Density = 1.702092 g / cm^3
# Si number density = 17.059746 Si / 1000 Ang^3
#
#
#
# Elastic Constant Matrix: (Units=GPa)
#
#
# Indices 1 2 3 4 5 6 
#
# 1 213.3403 48.3301 59.9128 0.0000 0.0000 0.0000
# 2 48.3301 81.1023 54.9058 0.0000 0.0000 0.0000
# 3 59.9128 54.9058 112.1192 0.0000 0.0000 0.0000
# 4 0.0000 0.0000 0.0000 0.6714 0.0000 0.0000
# 5 0.0000 0.0000 0.0000 0.0000 31.9846 0.0000
# 6 0.0000 0.0000 0.0000 0.0000 0.0000 24.4614
#
#
#
# Elastic Compliance Matrix: (Units=1/GPa)
#
#
# Indices 1 2 3 4 5 6 
#
# 1 0.005725 -0.002005 -0.002077 0.000000 0.000000 0.000000
# 2 -0.002005 0.019148 -0.008305 0.000000 0.000000 0.000000
# 3 -0.002077 -0.008305 0.014096 0.000000 0.000000 0.000000
# 4 0.000000 0.000000 0.000000 1.489526 0.000000 0.000000
# 5 0.000000 0.000000 0.000000 0.000000 0.031265 0.000000
# 6 0.000000 0.000000 0.000000 0.000000 0.000000 0.040881
#
#
# Mechanical properties :
#
#
# Convention : Reuss Voigt Hill
#
# Bulk Modulus (GPa) = 70.45547 81.42880 75.94213
# Shear Modulus (GPa) = 3.06721 27.65100 15.35911
#
# Velocity S-wave (km/s) = 1.34232 4.03032 3.00378
# Velocity P-wave (km/s) = 6.61750 8.33626 7.52611
#
# Compressibility (1/GPa) = 0.01419336
#
# Stress axis : x y z
#
# Youngs Moduli (GPa) = 174.67294 52.22553 70.94102
#
# Poissons Ratio (x) = 0.10473 0.14736
# Poissons Ratio (y) = 0.35028 0.58918
# Poissons Ratio (z) = 0.36283 0.43374
#
# Static dielectric constant tensor:
#      x y z
#    x 3.419680 0.000000 0.000000 
#    y 0.000000 3.319970 0.000000 
#    z 0.000000 0.000000 3.873910 
# 
# 
# High freq. dielectric constant tensor:
#      x y z
#    x 1.690350 0.000000 0.000000 
#    y 0.000000 1.620050 0.000000 
#    z 0.000000 0.000000 1.655210 
# 
# From -- ./inp_files/15554.got.cif
#   From: 2010.03.12/outbox.cif.g09.slc.cpg/sg67_8_cif.got.tgz:15554.got - 2010.04.10 22:41:39.
