data_PCOD8278014
_publ_section_title
;
Structure prediction by ZEFSAII (Michael W. Deem and Ramdas Pophale) SiO2 
 PCOD8278014
Probable space group: C M M A
;
_chemical_formula_sum "Si O2"
_cell_formula_units_Z 104
_cell_length_a 8.712196
_cell_length_b 25.745330
_cell_length_c 27.588930
_cell_angle_alpha 90.000000
_cell_angle_beta 90.000000
_cell_angle_gamma 90.000000
_cell_volume 6188.151782
_symmetry_space_group_name_H-M "C M M A"
_symmetry_group_IT_number 67
_symmetry_cell_setting 'orthorhombic'
loop_
_space_group_symop_operation_xyz
x,y,z
-x,1/2-y,z
x,-y,-z
-x,1/2+y,-z
-x,-y,-z
x,1/2+y,-z
-x,y,z
x,1/2-y,z
1/2+x,1/2+y,z
1/2-x,-y,z
1/2+x,1/2-y,-z
1/2-x,y,-z
1/2-x,1/2-y,-z
1/2+x,y,-z
1/2-x,1/2+y,z
1/2+x,-y,z
loop_
_atom_site_type_symbol
_atom_site_label
_atom_site_fract_x
_atom_site_fract_y
_atom_site_fract_z
Si Si1 0.319248 0.555029 0.342691
Si Si2 0.176031 0.903380 0.761264
Si Si3 0.671777 0.191763 0.274028
Si Si4 0.320161 0.556246 0.855678
Si Si5 0.825174 0.656748 0.380853
Si Si6 0.683339 0.750000 0.553190
Si Si7 0.182282 0.442174 0.048244
O O1 0.500000 0.551754 0.346752
O O2 0.250000 0.500000 0.359707
O O3 0.269201 0.565566 0.286798
O O4 0.264625 0.601819 0.377763
O O5 0.197997 0.842488 0.751401
O O6 0.286149 0.914691 0.806029
O O7 0.000000 0.915826 0.774214
O O8 0.500000 0.173257 0.259196
O O9 0.700813 0.250000 0.256550
O O10 0.689292 0.188685 0.331498
O O11 0.500000 0.552886 0.865132
O O12 0.250000 0.500000 0.849143
O O13 0.241285 0.585165 0.902129
O O14 0.757809 0.696694 0.421001
O O15 0.000000 0.642075 0.392838
O O16 0.500000 0.750000 0.553782
O O17 0.750000 0.750000 0.500000
O O18 0.250000 0.500000 0.049714
O O19 0.000000 0.442702 0.045984
O O20 0.250000 0.413954 0.000000
#
# Coordination Sequence:
#
# PCOD8278014 Si02
#       7
#    16  16  16  16  16   8  16
#     4  10  20  32  48  71  98 130 166 201 238 283
#     4  10  20  31  43  65  94 124 158 193 233 279
#     4   9  16  29  49  69  91 122 157 191 229 277
#     4  11  20  30  43  60  85 119 155 192 233 276
#     4   9  17  32  52  73  99 130 163 197 237 285
#     4  10  20  34  54  80 106 132 160 198 245 290
#     4  10  17  27  41  58  80 109 147 189 232 278
#
# _framework density 16.80631
#
# number of rings (size 3 to 8) (size 9 to 14) (size 15 to 20)
#    0.000    2.154    0.769    5.538    0.000    4.000 
#    0.000    0.000    0.000    0.462    0.000    3.231 
#    0.000    0.615    0.000    2.308    0.000    3.846 
#
# Total GULP energy -644513.487904 kJ/mol
# GULP energy per Si atom -12394.490152 kJ/mol
# Density = 1.676806 g / cm^3
# Si number density = 16.806310 Si / 1000 Ang^3
#
#
#
# Elastic Constant Matrix: (Units=GPa)
#
#
# Indices 1 2 3 4 5 6 
#
# 1 94.0978 33.2108 38.7000 0.0000 0.0000 0.0000
# 2 33.2108 94.7738 45.5789 0.0000 0.0000 0.0000
# 3 38.7000 45.5789 100.8059 0.0000 0.0000 0.0000
# 4 0.0000 0.0000 0.0000 14.1910 0.0000 0.0000
# 5 0.0000 0.0000 0.0000 0.0000 26.5095 0.0000
# 6 0.0000 0.0000 0.0000 0.0000 0.0000 23.3302
#
#
#
# Elastic Compliance Matrix: (Units=1/GPa)
#
#
# Indices 1 2 3 4 5 6 
#
# 1 0.013173 -0.002791 -0.003795 0.000000 0.000000 0.000000
# 2 -0.002791 0.014075 -0.005292 0.000000 0.000000 0.000000
# 3 -0.003795 -0.005292 0.013770 0.000000 0.000000 0.000000
# 4 0.000000 0.000000 0.000000 0.070467 0.000000 0.000000
# 5 0.000000 0.000000 0.000000 0.000000 0.037722 0.000000
# 6 0.000000 0.000000 0.000000 0.000000 0.000000 0.042863
#
#
# Mechanical properties :
#
#
# Convention : Reuss Voigt Hill
#
# Bulk Modulus (GPa) = 57.93526 58.29520 58.11523
# Shear Modulus (GPa) = 22.56514 24.28535 23.42524
#
# Velocity S-wave (km/s) = 3.66821 3.80546 3.73746
# Velocity P-wave (km/s) = 7.24487 7.35326 7.29927
#
# Compressibility (1/GPa) = 0.01726065
#
# Stress axis : x y z
#
# Youngs Moduli (GPa) = 75.91169 71.04985 72.62148
#
# Poissons Ratio (x) = 0.19829 0.27563
# Poissons Ratio (y) = 0.21186 0.38434
# Poissons Ratio (z) = 0.28811 0.37602
#
# Static dielectric constant tensor:
#      x y z
#    x 3.178220 0.000000 0.000000 
#    y 0.000000 2.989370 0.000000 
#    z 0.000000 0.000000 3.610650 
# 
# 
# High freq. dielectric constant tensor:
#      x y z
#    x 1.656180 0.000000 0.000000 
#    y 0.000000 1.615520 0.000000 
#    z 0.000000 0.000000 1.636400 
# 
# From -- ./inp_files/43727.got.cif
#   From: 2010.03.12/outbox.cif.g09.slc.cpg/sg67_22_cif.got.tgz:43727.got - 2010.04.10 22:41:39.
