data_PCOD8278798
_publ_section_title
;
Structure prediction by ZEFSAII (Michael W. Deem and Ramdas Pophale) SiO2 
 PCOD8278798
Probable space group: C M M A
;
_chemical_formula_sum "Si O2"
_cell_formula_units_Z 80
_cell_length_a 18.656853
_cell_length_b 19.496774
_cell_length_c 12.164263
_cell_angle_alpha 90.000000
_cell_angle_beta 90.000000
_cell_angle_gamma 90.000000
_cell_volume 4424.731769
_symmetry_space_group_name_H-M "C M M A"
_symmetry_group_IT_number 67
_symmetry_cell_setting 'orthorhombic'
loop_
_space_group_symop_operation_xyz
x,y,z
-x,1/2-y,z
x,-y,-z
-x,1/2+y,-z
-x,-y,-z
x,1/2+y,-z
-x,y,z
x,1/2-y,z
1/2+x,1/2+y,z
1/2-x,-y,z
1/2+x,1/2-y,-z
1/2-x,y,-z
1/2-x,1/2-y,-z
1/2+x,y,-z
1/2-x,1/2+y,z
1/2+x,-y,z
loop_
_atom_site_type_symbol
_atom_site_label
_atom_site_fract_x
_atom_site_fract_y
_atom_site_fract_z
Si Si1 0.000000 0.671810 0.867597
Si Si2 0.367118 0.671625 0.282904
Si Si3 0.226419 0.399178 0.121419
Si Si4 0.862772 0.023836 0.823140
Si Si5 0.415036 0.044249 0.604761
Si Si6 0.500000 0.430193 0.062148
O O1 0.067102 0.651759 0.794646
O O2 0.000000 0.750000 0.902259
O O3 0.000000 0.633654 0.982255
O O4 0.368947 0.750000 0.326801
O O5 0.298977 0.661791 0.202212
O O6 0.373262 0.618273 0.385746
O O7 0.162802 0.456441 0.106462
O O8 0.293527 0.428735 0.188081
O O9 0.250000 0.373153 0.000000
O O10 0.926549 0.070416 0.870082
O O11 0.890734 0.001195 0.705875
O O12 0.500000 0.057465 0.602340
O O13 0.390027 0.000000 0.500000
O O14 0.500000 0.500000 0.000000
#
# Coordination Sequence:
#
# PCOD8278798 Si02
#       6
#     8  16  16  16  16   8
#     4  10  20  32  48  77 110 135 169 218 263 316
#     4  10  20  35  54  79 109 142 180 219 267 323
#     4  10  19  32  48  77 115 147 177 213 265 321
#     4  10  19  31  48  77 106 137 180 231 270 310
#     4  10  19  34  56  82 104 132 179 234 283 316
#     4  12  18  28  52  75 101 139 183 222 269 316
#
# _framework density 18.080193000000001
#
# number of rings (size 3 to 8) (size 9 to 14) (size 15 to 20)
#    0.000    1.800    2.000    6.000    0.000    0.400 
#    0.000    9.000    0.000    3.600    0.000    0.000 
#    0.000    0.000    0.000    0.000    0.000    0.000 
#
# Total GULP energy -495638.405037 kJ/mol
# GULP energy per Si atom -12390.960126 kJ/mol
# Density = 1.803904 g / cm^3
# Si number density = 18.080193 Si / 1000 Ang^3
#
#
#
# Elastic Constant Matrix: (Units=GPa)
#
#
# Indices 1 2 3 4 5 6 
#
# 1 58.9756 29.6657 13.4966 0.0000 0.0000 0.0000
# 2 29.6657 102.0109 55.6141 0.0000 0.0000 0.0000
# 3 13.4966 55.6141 86.1941 0.0000 0.0000 0.0000
# 4 0.0000 0.0000 0.0000 27.5053 0.0000 0.0000
# 5 0.0000 0.0000 0.0000 0.0000 26.2862 0.0000
# 6 0.0000 0.0000 0.0000 0.0000 0.0000 -5.4956
#
#
#
# Elastic Compliance Matrix: (Units=1/GPa)
#
#
# Indices 1 2 3 4 5 6 
#
# 1 0.019912 -0.006311 0.000954 0.000000 0.000000 0.000000
# 2 -0.006311 0.017122 -0.010060 0.000000 0.000000 0.000000
# 3 0.000954 -0.010060 0.017943 0.000000 0.000000 0.000000
# 4 0.000000 0.000000 0.000000 0.036357 0.000000 0.000000
# 5 0.000000 0.000000 0.000000 0.000000 0.038043 0.000000
# 6 0.000000 0.000000 0.000000 0.000000 0.000000 -0.181965
#
#
# Mechanical properties :
#
#
# Convention : Reuss Voigt Hill
#
# Bulk Modulus (GPa) = 41.41671 49.41482 45.41577
# Shear Modulus (GPa) = -364.76525 19.55279 -172.60623
#
# Velocity S-wave (km/s) = -14.21923 3.29211 -9.78132
# Velocity P-wave (km/s) = 15.70430 6.46845 10.11890
#
# Compressibility (1/GPa) = 0.02414484
#
# Stress axis : x y z
#
# Youngs Moduli (GPa) = 50.22035 58.40339 55.73215
#
# Poissons Ratio (x) = 0.36856 -0.05316
# Poissons Ratio (y) = 0.31692 0.56064
# Poissons Ratio (z) = -0.04790 0.58751
#
# Static dielectric constant tensor:
#      x y z
#    x 3.052790 0.000000 0.000000 
#    y 0.000000 3.189970 0.000000 
#    z 0.000000 0.000000 3.148250 
# 
# 
# High freq. dielectric constant tensor:
#      x y z
#    x 1.713910 0.000000 0.000000 
#    y 0.000000 1.682470 0.000000 
#    z 0.000000 0.000000 1.674730 
# 
# From -- ./inp_files/19371.got.cif
#   From: 2010.03.12/outbox.cif.g09.slc.cpg/sg67_10_cif.got.tgz:19371.got - 2010.04.10 22:41:39.
