data_PCOD8278117
_publ_section_title
;
Structure prediction by ZEFSAII (Michael W. Deem and Ramdas Pophale) SiO2 
 PCOD8278117
Probable space group: C M M A
;
_chemical_formula_sum "Si O2"
_cell_formula_units_Z 72
_cell_length_a 8.763717
_cell_length_b 14.511933
_cell_length_c 29.154646
_cell_angle_alpha 90.000000
_cell_angle_beta 90.000000
_cell_angle_gamma 90.000000
_cell_volume 3707.843386
_symmetry_space_group_name_H-M "C M M A"
_symmetry_group_IT_number 67
_symmetry_cell_setting 'orthorhombic'
loop_
_space_group_symop_operation_xyz
x,y,z
-x,1/2-y,z
x,-y,-z
-x,1/2+y,-z
-x,-y,-z
x,1/2+y,-z
-x,y,z
x,1/2-y,z
1/2+x,1/2+y,z
1/2-x,-y,z
1/2+x,1/2-y,-z
1/2-x,y,-z
1/2-x,1/2-y,-z
1/2+x,y,-z
1/2-x,1/2+y,z
1/2+x,-y,z
loop_
_atom_site_type_symbol
_atom_site_label
_atom_site_fract_x
_atom_site_fract_y
_atom_site_fract_z
Si Si1 0.318208 0.602078 0.954637
Si Si2 0.679670 0.250000 0.308079
Si Si3 0.325156 0.250000 0.789455
Si Si4 0.820801 0.098977 0.136799
Si Si5 0.820497 0.750000 0.450277
Si Si6 0.319787 0.899309 0.621925
O O1 0.500000 0.602754 0.956914
O O2 0.250000 0.500000 0.953467
O O3 0.259161 0.647942 0.907435
O O4 0.250000 0.652694 0.000000
O O5 0.500000 0.250000 0.313078
O O6 0.723124 0.250000 0.255288
O O7 0.740240 0.342406 0.333510
O O8 0.500000 0.250000 0.773970
O O9 0.286517 0.339914 0.818982
O O10 0.000000 0.090145 0.126601
O O11 0.750000 0.000000 0.147419
O O12 0.750000 0.750000 0.500000
O O13 0.768355 0.658168 0.423016
O O14 0.000000 0.750000 0.455265
O O15 0.500000 0.910109 0.623431
O O16 0.250000 0.000000 0.621101
#
# Coordination Sequence:
#
# PCOD8278117 Si02
#       6
#    16   8   8  16   8  16
#     4  10  17  28  48  74 101 133 169 207 251 304
#     4   9  20  38  57  76 104 138 175 219 270 320
#     4  10  23  39  56  78 107 137 171 216 267 318
#     4  10  20  36  54  76 104 135 169 210 257 310
#     4   9  19  35  53  78 116 153 188 225 269 316
#     4   9  19  36  56  80 109 144 183 227 270 316
#
# _framework density 19.418296999999999
#
# number of rings (size 3 to 8) (size 9 to 14) (size 15 to 20)
#    0.000    2.444    0.000    6.000    0.000    4.889 
#    0.000    9.444    0.000    0.000    0.000    0.000 
#    0.000    0.000    0.000    0.000    0.000    0.000 
#
# Total GULP energy -446199.297217 kJ/mol
# GULP energy per Si atom -12394.424923 kJ/mol
# Density = 1.937410 g / cm^3
# Si number density = 19.418297 Si / 1000 Ang^3
#
#
#
# Elastic Constant Matrix: (Units=GPa)
#
#
# Indices 1 2 3 4 5 6 
#
# 1 100.5944 43.9038 56.8099 0.0000 0.0000 0.0000
# 2 43.9038 135.9922 68.3872 0.0000 0.0000 0.0000
# 3 56.8099 68.3872 161.4506 0.0000 0.0000 0.0000
# 4 0.0000 0.0000 0.0000 25.0061 0.0000 0.0000
# 5 0.0000 0.0000 0.0000 0.0000 37.7160 0.0000
# 6 0.0000 0.0000 0.0000 0.0000 0.0000 23.0768
#
#
#
# Elastic Compliance Matrix: (Units=1/GPa)
#
#
# Indices 1 2 3 4 5 6 
#
# 1 0.012999 -0.002410 -0.003553 0.000000 0.000000 0.000000
# 2 -0.002410 0.009790 -0.003299 0.000000 0.000000 0.000000
# 3 -0.003553 -0.003299 0.008842 0.000000 0.000000 0.000000
# 4 0.000000 0.000000 0.000000 0.039990 0.000000 0.000000
# 5 0.000000 0.000000 0.000000 0.000000 0.026514 0.000000
# 6 0.000000 0.000000 0.000000 0.000000 0.000000 0.043334
#
#
# Mechanical properties :
#
#
# Convention : Reuss Voigt Hill
#
# Bulk Modulus (GPa) = 76.29592 81.80432 79.05012
# Shear Modulus (GPa) = 30.42056 32.42221 31.42138
#
# Velocity S-wave (km/s) = 3.96231 4.09060 4.02697
# Velocity P-wave (km/s) = 7.76591 8.03303 7.90060
#
# Compressibility (1/GPa) = 0.01310686
#
# Stress axis : x y z
#
# Youngs Moduli (GPa) = 76.92659 102.14118 113.10190
#
# Poissons Ratio (x) = 0.24614 0.40189
# Poissons Ratio (y) = 0.18538 0.37313
# Poissons Ratio (z) = 0.27335 0.33697
#
# Static dielectric constant tensor:
#      x y z
#    x 3.445680 0.000000 0.000000 
#    y 0.000000 3.698590 0.000000 
#    z 0.000000 0.000000 2.947370 
# 
# 
# High freq. dielectric constant tensor:
#      x y z
#    x 1.753780 0.000000 0.000000 
#    y 0.000000 1.749690 0.000000 
#    z 0.000000 0.000000 1.763410 
# 
# From -- ./inp_files/45168.got.cif
#   From: 2010.03.12/outbox.cif.g09.slc.cpg/sg67_23_cif.got.tgz:45168.got - 2010.04.10 22:41:39.
