data_PCOD8278920
_publ_section_title
;
Structure prediction by ZEFSAII (Michael W. Deem and Ramdas Pophale) SiO2 
 PCOD8278920
Probable space group: C M M A
;
_chemical_formula_sum "Si O2"
_cell_formula_units_Z 96
_cell_length_a 8.629023
_cell_length_b 19.876591
_cell_length_c 30.345310
_cell_angle_alpha 90.000000
_cell_angle_beta 90.000000
_cell_angle_gamma 90.000000
_cell_volume 5204.692865
_symmetry_space_group_name_H-M "C M M A"
_symmetry_group_IT_number 67
_symmetry_cell_setting 'orthorhombic'
loop_
_space_group_symop_operation_xyz
x,y,z
-x,1/2-y,z
x,-y,-z
-x,1/2+y,-z
-x,-y,-z
x,1/2+y,-z
-x,y,z
x,1/2-y,z
1/2+x,1/2+y,z
1/2-x,-y,z
1/2+x,1/2-y,-z
1/2-x,y,-z
1/2-x,1/2-y,-z
1/2+x,y,-z
1/2-x,1/2+y,z
1/2+x,-y,z
loop_
_atom_site_type_symbol
_atom_site_label
_atom_site_fract_x
_atom_site_fract_y
_atom_site_fract_z
Si Si1 0.816744 0.326001 0.046029
Si Si2 0.184676 0.427216 0.453332
Si Si3 0.181402 0.071056 0.786047
Si Si4 0.179094 0.671491 0.718581
Si Si5 0.316180 0.428011 0.879972
Si Si6 0.683815 0.675811 0.380532
O O1 0.757988 0.250000 0.055037
O O2 0.754879 0.373038 0.085278
O O3 0.000000 0.328648 0.043339
O O4 0.750000 0.353312 0.000000
O O5 0.250000 0.500000 0.441343
O O6 0.250000 0.401816 0.500000
O O7 0.248703 0.376935 0.415964
O O8 0.000000 0.429933 0.455358
O O9 0.213779 0.128269 0.750412
O O10 0.256956 0.093634 0.831999
O O11 0.000000 0.062167 0.793085
O O12 0.250000 0.000000 0.769663
O O13 0.204868 0.750000 0.728685
O O14 0.232723 0.654479 0.668761
O O15 0.000000 0.651899 0.725872
O O16 0.500000 0.431636 0.879057
O O17 0.250000 0.500000 0.894256
O O18 0.500000 0.678614 0.382863
O O19 0.750752 0.750000 0.391593
#
# Coordination Sequence:
#
# PCOD8278920 Si02
#       6
#    16  16  16  16  16  16
#     4   9  19  35  54  76 102 133 169 208 250 298
#     4  10  19  32  50  72 100 131 166 206 248 296
#     4  11  22  36  54  77 106 137 173 215 259 306
#     4   9  18  35  57  78 103 136 171 208 255 309
#     4  10  20  35  54  76 103 135 172 211 254 304
#     4   8  16  32  53  75  99 130 167 205 247 298
#
# _framework density 18.444890999999998
#
# number of rings (size 3 to 8) (size 9 to 14) (size 15 to 20)
#    0.000    2.500    0.000    5.000    0.000    3.667 
#    0.000    6.667    0.000    3.500    0.000    0.000 
#    0.000    0.000    0.000    0.000    0.000    0.000 
#
# Total GULP energy -595207.034254 kJ/mol
# GULP energy per Si atom -12400.146547 kJ/mol
# Density = 1.840291 g / cm^3
# Si number density = 18.444891 Si / 1000 Ang^3
#
#
#
# Elastic Constant Matrix: (Units=GPa)
#
#
# Indices 1 2 3 4 5 6 
#
# 1 62.6314 31.0104 33.7980 0.0000 0.0000 0.0000
# 2 31.0104 108.8612 99.0052 0.0000 0.0000 0.0000
# 3 33.7980 99.0052 146.6854 0.0000 0.0000 0.0000
# 4 0.0000 0.0000 0.0000 43.6011 0.0000 0.0000
# 5 0.0000 0.0000 0.0000 0.0000 25.8748 0.0000
# 6 0.0000 0.0000 0.0000 0.0000 0.0000 25.5700
#
#
#
# Elastic Compliance Matrix: (Units=1/GPa)
#
#
# Indices 1 2 3 4 5 6 
#
# 1 0.018781 -0.003663 -0.001855 0.000000 0.000000 0.000000
# 2 -0.003663 0.024502 -0.015694 0.000000 0.000000 0.000000
# 3 -0.001855 -0.015694 0.017837 0.000000 0.000000 0.000000
# 4 0.000000 0.000000 0.000000 0.022935 0.000000 0.000000
# 5 0.000000 0.000000 0.000000 0.000000 0.038648 0.000000
# 6 0.000000 0.000000 0.000000 0.000000 0.000000 0.039108
#
#
# Mechanical properties :
#
#
# Convention : Reuss Voigt Hill
#
# Bulk Modulus (GPa) = 53.48431 71.75614 62.62022
# Shear Modulus (GPa) = 23.75653 29.30014 26.52833
#
# Velocity S-wave (km/s) = 3.59273 3.98995 3.79654
# Velocity P-wave (km/s) = 6.80221 7.75975 7.29670
#
# Compressibility (1/GPa) = 0.01869707
#
# Stress axis : x y z
#
# Youngs Moduli (GPa) = 53.24499 40.81216 56.06196
#
# Poissons Ratio (x) = 0.14949 0.10400
# Poissons Ratio (y) = 0.19503 0.87984
# Poissons Ratio (z) = 0.09878 0.64051
#
# Static dielectric constant tensor:
#      x y z
#    x 3.213210 0.000000 0.000000 
#    y 0.000000 3.590300 0.000000 
#    z 0.000000 0.000000 3.557270 
# 
# 
# High freq. dielectric constant tensor:
#      x y z
#    x 1.704100 0.000000 0.000000 
#    y 0.000000 1.716740 0.000000 
#    z 0.000000 0.000000 1.721660 
# 
# From -- ./inp_files/43460.got.cif
#   From: 2010.03.12/outbox.cif.g09.slc.cpg/sg67_22_cif.got.tgz:43460.got - 2010.04.10 22:41:39.
