data_PCOD8278265
_publ_section_title
;
Structure prediction by ZEFSAII (Michael W. Deem and Ramdas Pophale) SiO2 
 PCOD8278265
Probable space group: C M M A
;
_chemical_formula_sum "Si O2"
_cell_formula_units_Z 80
_cell_length_a 8.867007
_cell_length_b 28.197619
_cell_length_c 20.885680
_cell_angle_alpha 90.000000
_cell_angle_beta 90.000000
_cell_angle_gamma 90.000000
_cell_volume 5222.014930
_symmetry_space_group_name_H-M "C M M A"
_symmetry_group_IT_number 67
_symmetry_cell_setting 'orthorhombic'
loop_
_space_group_symop_operation_xyz
x,y,z
-x,1/2-y,z
x,-y,-z
-x,1/2+y,-z
-x,-y,-z
x,1/2+y,-z
-x,y,z
x,1/2-y,z
1/2+x,1/2+y,z
1/2-x,-y,z
1/2+x,1/2-y,-z
1/2-x,y,-z
1/2-x,1/2-y,-z
1/2+x,y,-z
1/2-x,1/2+y,z
1/2+x,-y,z
loop_
_atom_site_type_symbol
_atom_site_label
_atom_site_fract_x
_atom_site_fract_y
_atom_site_fract_z
Si Si1 0.330414 0.193568 0.063120
Si Si2 0.171057 0.144002 0.690281
Si Si3 0.829112 0.047982 0.635867
Si Si4 0.820794 0.126143 0.434311
Si Si5 0.822637 0.804541 0.807216
O O1 0.500000 0.173889 0.065487
O O2 0.328419 0.250000 0.060091
O O3 0.243750 0.175967 0.126212
O O4 0.250000 0.172578 0.000000
O O5 0.171738 0.086210 0.694341
O O6 0.257435 0.158749 0.624301
O O7 0.257543 0.164363 0.750427
O O8 0.000000 0.163572 0.688534
O O9 0.737000 0.071788 0.576690
O O10 0.000000 0.037481 0.613609
O O11 0.750000 0.000000 0.659188
O O12 0.750000 0.145776 0.500000
O O13 0.000000 0.128558 0.436972
O O14 0.775909 0.750000 0.796006
O O15 0.000000 0.810811 0.809853
#
# Coordination Sequence:
#
# PCOD8278265 Si02
#       5
#    16  16  16  16  16
#     4   9  16  26  41  62  89 118 146 178 216 258
#     4   9  19  32  45  64  88 115 149 184 220 264
#     4   9  18  30  45  66  89 115 145 179 220 268
#     4  10  18  30  46  64  88 115 144 181 223 268
#     4  10  19  30  46  67  90 119 153 184 218 260
#
# _framework density 15.319756999999999
#
# number of rings (size 3 to 8) (size 9 to 14) (size 15 to 20)
#    1.200    1.400    0.000    3.600    0.000    4.000 
#    0.000    2.000    0.000    0.600    0.000    0.000 
#    0.000    0.800    0.000    8.400    0.000    5.000 
#
# Total GULP energy -495633.265357 kJ/mol
# GULP energy per Si atom -12390.831634 kJ/mol
# Density = 1.528489 g / cm^3
# Si number density = 15.319757 Si / 1000 Ang^3
#
#
#
# Elastic Constant Matrix: (Units=GPa)
#
#
# Indices 1 2 3 4 5 6 
#
# 1 120.2177 18.4579 61.5681 0.0000 0.0000 0.0000
# 2 18.4579 17.9033 33.9722 0.0000 0.0000 0.0000
# 3 61.5681 33.9722 139.7161 0.0000 0.0000 0.0000
# 4 0.0000 0.0000 0.0000 -10.0694 0.0000 0.0000
# 5 0.0000 0.0000 0.0000 0.0000 34.2606 0.0000
# 6 0.0000 0.0000 0.0000 0.0000 0.0000 19.6483
#
#
#
# Elastic Compliance Matrix: (Units=1/GPa)
#
#
# Indices 1 2 3 4 5 6 
#
# 1 0.010890 -0.003939 -0.003841 0.000000 0.000000 0.000000
# 2 -0.003939 0.105128 -0.023826 0.000000 0.000000 0.000000
# 3 -0.003841 -0.023826 0.014643 0.000000 0.000000 0.000000
# 4 0.000000 0.000000 0.000000 -0.099310 0.000000 0.000000
# 5 0.000000 0.000000 0.000000 0.000000 0.029188 0.000000
# 6 0.000000 0.000000 0.000000 0.000000 0.000000 0.050895
#
#
# Mechanical properties :
#
#
# Convention : Reuss Voigt Hill
#
# Bulk Modulus (GPa) = 14.82605 56.20375 35.51490
# Shear Modulus (GPa) = 25.36405 19.69049 22.52727
#
# Velocity S-wave (km/s) = 4.07337 3.58900 3.83883
# Velocity P-wave (km/s) = 5.64109 7.34447 6.54840
#
# Compressibility (1/GPa) = 0.06744886
#
# Stress axis : x y z
#
# Youngs Moduli (GPa) = 91.82538 9.51225 68.28977
#
# Poissons Ratio (x) = 0.03747 0.26232
# Poissons Ratio (y) = 0.36167 1.62709
# Poissons Ratio (z) = 0.35273 0.22664
#
# Static dielectric constant tensor:
#      x y z
#    x 3.103030 0.000000 0.000000 
#    y 0.000000 2.519870 0.000000 
#    z 0.000000 0.000000 2.904560 
# 
# 
# High freq. dielectric constant tensor:
#      x y z
#    x 1.612870 0.000000 0.000000 
#    y 0.000000 1.529890 0.000000 
#    z 0.000000 0.000000 1.580340 
# 
# From -- ./inp_files/37388.got.cif
#   From: 2010.03.12/outbox.cif.g09.slc.cpg/sg67_19_cif.got.tgz:37388.got - 2010.04.10 22:41:39.
