data_PCOD8278277
_publ_section_title
;
Structure prediction by ZEFSAII (Michael W. Deem and Ramdas Pophale) SiO2 
 PCOD8278277
Probable space group: C M M A
;
_chemical_formula_sum "Si O2"
_cell_formula_units_Z 128
_cell_length_a 19.840451
_cell_length_b 18.963595
_cell_length_c 19.575129
_cell_angle_alpha 90.000000
_cell_angle_beta 90.000000
_cell_angle_gamma 90.000000
_cell_volume 7365.069416
_symmetry_space_group_name_H-M "C M M A"
_symmetry_group_IT_number 67
_symmetry_cell_setting 'orthorhombic'
loop_
_space_group_symop_operation_xyz
x,y,z
-x,1/2-y,z
x,-y,-z
-x,1/2+y,-z
-x,-y,-z
x,1/2+y,-z
-x,y,z
x,1/2-y,z
1/2+x,1/2+y,z
1/2-x,-y,z
1/2+x,1/2-y,-z
1/2-x,y,-z
1/2-x,1/2-y,-z
1/2+x,y,-z
1/2-x,1/2+y,z
1/2+x,-y,z
loop_
_atom_site_type_symbol
_atom_site_label
_atom_site_fract_x
_atom_site_fract_y
_atom_site_fract_z
Si Si1 0.200927 0.329428 0.597963
Si Si2 0.920911 0.327306 0.235058
Si Si3 0.670900 0.075605 0.013273
Si Si4 0.148293 0.169604 0.451989
Si Si5 0.667481 0.331315 0.888960
Si Si6 0.920084 0.069235 0.350744
Si Si7 0.682546 0.044065 0.305750
Si Si8 0.214348 0.927349 0.153092
O O1 0.187576 0.250000 0.623093
O O2 0.153956 0.345898 0.532609
O O3 0.278683 0.339894 0.580376
O O4 0.182364 0.380483 0.659123
O O5 0.895885 0.250000 0.258886
O O6 0.896709 0.342855 0.158935
O O7 0.892466 0.382848 0.288845
O O8 0.000000 0.331866 0.234204
O O9 0.659884 0.093367 0.093919
O O10 0.750000 0.072248 0.000000
O O11 0.644313 0.134849 0.961139
O O12 0.635818 0.000000 0.000000
O O13 0.121798 0.250000 0.439727
O O14 0.098202 0.110976 0.420383
O O15 0.685681 0.250000 0.902027
O O16 0.729309 0.366396 0.847322
O O17 0.000000 0.054867 0.349853
O O18 0.881263 0.996076 0.338692
O O19 0.676568 0.060911 0.225000
O O20 0.750000 0.000000 0.321432
O O21 0.250000 0.000000 0.130222
#
# Coordination Sequence:
#
# PCOD8278277 Si02
#       8
#    16  16  16  16  16  16  16  16
#     4   9  19  36  56  78 105 139 180 222 266 315
#     4   9  18  32  49  72 106 141 168 205 265 325
#     4   9  15  28  45  64  96 137 164 200 260 318
#     4   9  18  35  56  78 107 142 177 215 265 328
#     4  10  19  29  48  76 100 129 173 222 263 312
#     4  11  22  35  53  82 115 144 177 223 270 324
#     4  11  21  34  54  80 108 143 183 224 271 320
#     4  10  18  30  46  70  99 136 172 206 261 318
#
# _framework density 17.379334
#
# number of rings (size 3 to 8) (size 9 to 14) (size 15 to 20)
#    0.000    2.250    3.750    2.625    0.000    4.000 
#    0.000    1.250    0.000    2.250    0.000    0.000 
#    0.000    0.000    0.000    0.000    0.000    0.000 
#
# Total GULP energy -793138.257743 kJ/mol
# GULP energy per Si atom -12392.785277 kJ/mol
# Density = 1.733978 g / cm^3
# Si number density = 17.379334 Si / 1000 Ang^3
#
#
#
# Elastic Constant Matrix: (Units=GPa)
#
#
# Indices 1 2 3 4 5 6 
#
# 1 32.1426 22.5180 24.6922 0.0000 0.0000 0.0000
# 2 22.5180 102.4687 48.2557 0.0000 0.0000 0.0000
# 3 24.6922 48.2557 100.2031 0.0000 0.0000 0.0000
# 4 0.0000 0.0000 0.0000 33.8554 0.0000 0.0000
# 5 0.0000 0.0000 0.0000 0.0000 20.2686 0.0000
# 6 0.0000 0.0000 0.0000 0.0000 0.0000 15.2849
#
#
#
# Elastic Compliance Matrix: (Units=1/GPa)
#
#
# Indices 1 2 3 4 5 6 
#
# 1 0.040597 -0.005445 -0.007382 0.000000 0.000000 0.000000
# 2 -0.005445 0.013352 -0.005088 0.000000 0.000000 0.000000
# 3 -0.007382 -0.005088 0.014249 0.000000 0.000000 0.000000
# 4 0.000000 0.000000 0.000000 0.029537 0.000000 0.000000
# 5 0.000000 0.000000 0.000000 0.000000 0.049337 0.000000
# 6 0.000000 0.000000 0.000000 0.000000 0.000000 0.065424
#
#
# Mechanical properties :
#
#
# Convention : Reuss Voigt Hill
#
# Bulk Modulus (GPa) = 30.89496 47.30515 39.10006
# Shear Modulus (GPa) = 19.29644 23.17169 21.23407
#
# Velocity S-wave (km/s) = 3.33575 3.65539 3.49922
# Velocity P-wave (km/s) = 5.71417 6.71521 6.23481
#
# Compressibility (1/GPa) = 0.03236774
#
# Stress axis : x y z
#
# Youngs Moduli (GPa) = 24.63263 74.89609 70.17993
#
# Poissons Ratio (x) = 0.40781 0.51804
# Poissons Ratio (y) = 0.13413 0.35709
# Poissons Ratio (z) = 0.18183 0.38109
#
# Static dielectric constant tensor:
#      x y z
#    x 2.840040 0.000000 0.000000 
#    y 0.000000 3.383800 0.000000 
#    z 0.000000 0.000000 3.514730 
# 
# 
# High freq. dielectric constant tensor:
#      x y z
#    x 1.620060 0.000000 0.000000 
#    y 0.000000 1.676230 0.000000 
#    z 0.000000 0.000000 1.682460 
# 
# From -- ./inp_files/39405.got.cif
#   From: 2010.03.12/outbox.cif.g09.slc.cpg/sg67_20_cif.got.tgz:39405.got - 2010.04.10 22:41:39.
