data_PCOD8278379
_publ_section_title
;
Structure prediction by ZEFSAII (Michael W. Deem and Ramdas Pophale) SiO2 
 PCOD8278379
Probable space group: C M M A
;
_chemical_formula_sum "Si O2"
_cell_formula_units_Z 104
_cell_length_a 27.120200
_cell_length_b 9.340119
_cell_length_c 22.334062
_cell_angle_alpha 90.000000
_cell_angle_beta 90.000000
_cell_angle_gamma 90.000000
_cell_volume 5657.349571
_symmetry_space_group_name_H-M "C M M A"
_symmetry_group_IT_number 67
_symmetry_cell_setting 'orthorhombic'
loop_
_space_group_symop_operation_xyz
x,y,z
-x,1/2-y,z
x,-y,-z
-x,1/2+y,-z
-x,-y,-z
x,1/2+y,-z
-x,y,z
x,1/2-y,z
1/2+x,1/2+y,z
1/2-x,-y,z
1/2+x,1/2-y,-z
1/2-x,y,-z
1/2-x,1/2-y,-z
1/2+x,y,-z
1/2-x,1/2+y,z
1/2+x,-y,z
loop_
_atom_site_type_symbol
_atom_site_label
_atom_site_fract_x
_atom_site_fract_y
_atom_site_fract_z
Si Si1 0.750000 0.000000 0.159254
Si Si2 0.809069 0.404082 0.947391
Si Si3 0.348355 0.587470 0.218751
Si Si4 0.556979 0.582284 0.560995
Si Si5 0.095965 0.919971 0.120195
Si Si6 0.000000 0.921515 0.874611
Si Si7 0.000000 0.918147 0.739653
Si Si8 0.094867 0.916233 0.667969
O O1 0.723618 0.108800 0.113228
O O2 0.790652 0.071540 0.202392
O O3 0.811405 0.250000 0.977370
O O4 0.863412 0.456698 0.929764
O O5 0.786421 0.500000 0.000000
O O6 0.365179 0.750000 0.203710
O O7 0.384105 0.480661 0.183290
O O8 0.356705 0.559944 0.290120
O O9 0.568140 0.500000 0.500000
O O10 0.500000 0.556605 0.580297
O O11 0.568176 0.750000 0.552857
O O12 0.595036 0.515686 0.609278
O O13 0.086355 0.750000 0.126634
O O14 0.048275 0.005872 0.096634
O O15 0.000000 0.750000 0.883606
O O16 0.000000 0.978256 0.806540
O O17 0.048377 0.971278 0.706004
O O18 0.000000 0.750000 0.744738
O O19 0.089721 0.750000 0.648599
#
# Coordination Sequence:
#
# PCOD8278379 Si02
#       8
#     8  16  16  16  16   8   8  16
#     4  10  21  36  58  84 109 132 168 220 270 320
#     4  10  22  38  56  78 104 134 171 215 264 319
#     4  10  20  35  55  78 106 142 178 214 267 330
#     4  10  20  32  47  71 104 145 187 223 259 300
#     4  10  21  35  51  77 109 137 171 220 267 309
#     4  11  19  33  54  77 104 143 184 212 254 316
#     4   9  16  27  46  73 104 135 174 212 250 303
#     4  10  18  31  50  74 106 142 177 216 256 309
#
# _framework density 18.383167
#
# number of rings (size 3 to 8) (size 9 to 14) (size 15 to 20)
#    0.000    2.000    2.308    1.846    0.000    6.154 
#    0.000    0.385    0.000    0.000    0.000    0.538 
#    0.000    3.692    0.000    0.000    0.000    0.000 
#
# Total GULP energy -644418.116922 kJ/mol
# GULP energy per Si atom -12392.656095 kJ/mol
# Density = 1.834133 g / cm^3
# Si number density = 18.383167 Si / 1000 Ang^3
#
#
#
# Elastic Constant Matrix: (Units=GPa)
#
#
# Indices 1 2 3 4 5 6 
#
# 1 111.9883 44.0374 43.3827 0.0000 0.0000 0.0000
# 2 44.0374 106.9711 51.5658 0.0000 0.0000 0.0000
# 3 43.3827 51.5658 101.2503 0.0000 0.0000 0.0000
# 4 0.0000 0.0000 0.0000 27.8263 0.0000 0.0000
# 5 0.0000 0.0000 0.0000 0.0000 10.8085 0.0000
# 6 0.0000 0.0000 0.0000 0.0000 0.0000 12.1475
#
#
#
# Elastic Compliance Matrix: (Units=1/GPa)
#
#
# Indices 1 2 3 4 5 6 
#
# 1 0.011437 -0.003110 -0.003317 0.000000 0.000000 0.000000
# 2 -0.003110 0.013236 -0.005408 0.000000 0.000000 0.000000
# 3 -0.003317 -0.005408 0.014052 0.000000 0.000000 0.000000
# 4 0.000000 0.000000 0.000000 0.035937 0.000000 0.000000
# 5 0.000000 0.000000 0.000000 0.000000 0.092520 0.000000
# 6 0.000000 0.000000 0.000000 0.000000 0.000000 0.082322
#
#
# Mechanical properties :
#
#
# Convention : Reuss Voigt Hill
#
# Bulk Modulus (GPa) = 66.42159 66.46460 66.44310
# Shear Modulus (GPa) = 17.97324 22.23803 20.10563
#
# Velocity S-wave (km/s) = 3.13021 3.48184 3.31070
# Velocity P-wave (km/s) = 7.01958 7.23864 7.12995
#
# Compressibility (1/GPa) = 0.01505534
#
# Stress axis : x y z
#
# Youngs Moduli (GPa) = 87.43422 75.55392 71.16355
#
# Poissons Ratio (x) = 0.23494 0.23604
# Poissons Ratio (y) = 0.27188 0.38488
# Poissons Ratio (z) = 0.29001 0.40863
#
# Static dielectric constant tensor:
#      x y z
#    x 3.431080 0.000000 0.000000 
#    y 0.000000 3.320870 0.000000 
#    z 0.000000 0.000000 3.295340 
# 
# 
# High freq. dielectric constant tensor:
#      x y z
#    x 1.699210 0.000000 0.000000 
#    y 0.000000 1.712390 0.000000 
#    z 0.000000 0.000000 1.694000 
# 
# From -- ./inp_files/42956.got.cif
#   From: 2010.03.12/outbox.cif.g09.slc.cpg/sg67_22_cif.got.tgz:42956.got - 2010.04.10 22:41:39.
