data_PCOD8278931
_publ_section_title
;
Structure prediction by ZEFSAII (Michael W. Deem and Ramdas Pophale) SiO2 
 PCOD8278931
Probable space group: C M M A
;
_chemical_formula_sum "Si O2"
_cell_formula_units_Z 88
_cell_length_a 8.840148
_cell_length_b 26.650131
_cell_length_c 19.138766
_cell_angle_alpha 90.000000
_cell_angle_beta 90.000000
_cell_angle_gamma 90.000000
_cell_volume 4508.922978
_symmetry_space_group_name_H-M "C M M A"
_symmetry_group_IT_number 67
_symmetry_cell_setting 'orthorhombic'
loop_
_space_group_symop_operation_xyz
x,y,z
-x,1/2-y,z
x,-y,-z
-x,1/2+y,-z
-x,-y,-z
x,1/2+y,-z
-x,y,z
x,1/2-y,z
1/2+x,1/2+y,z
1/2-x,-y,z
1/2+x,1/2-y,-z
1/2-x,y,-z
1/2-x,1/2-y,-z
1/2+x,y,-z
1/2-x,1/2+y,z
1/2+x,-y,z
loop_
_atom_site_type_symbol
_atom_site_label
_atom_site_fract_x
_atom_site_fract_y
_atom_site_fract_z
Si Si1 0.821293 0.250000 0.924319
Si Si2 0.174903 0.353921 0.572436
Si Si3 0.669209 0.192801 0.288172
Si Si4 0.326028 0.659327 0.157374
Si Si5 0.820808 0.550369 0.342464
Si Si6 0.678077 0.949116 0.191496
O O1 0.774274 0.198170 0.886596
O O2 0.000000 0.250000 0.930062
O O3 0.750000 0.250000 0.000000
O O4 0.250000 0.339388 0.500000
O O5 0.216838 0.312314 0.630859
O O6 0.229886 0.406898 0.603489
O O7 0.000000 0.355160 0.556036
O O8 0.500000 0.169175 0.278405
O O9 0.666319 0.250000 0.265108
O O10 0.789138 0.165013 0.239335
O O11 0.500000 0.672874 0.143218
O O12 0.293887 0.599964 0.141518
O O13 0.750000 0.500000 0.374077
O O14 0.753962 0.561267 0.266122
O O15 0.000000 0.546105 0.335648
O O16 0.500000 0.957533 0.202246
O O17 0.750000 0.000000 0.157747
#
# Coordination Sequence:
#
# PCOD8278931 Si02
#       6
#     8  16  16  16  16  16
#     4  12  26  44  68  98 133 168 197 236 286 342
#     4  10  22  36  50  71 102 142 191 245 299 360
#     4  10  20  36  57  80 107 146 194 239 294 357
#     4  11  22  37  61  94 126 158 200 245 291 347
#     4  10  19  32  50  73 103 139 185 240 296 355
#     4  10  20  33  55  87 121 156 197 247 295 347
#
# _framework density 19.516855
#
# number of rings (size 3 to 8) (size 9 to 14) (size 15 to 20)
#    0.000    1.636    2.727    3.545    0.000    5.091 
#    0.000    1.818    0.000    0.545    0.000    3.818 
#    0.000    0.000    0.000    0.000    0.000    0.000 
#
# Total GULP energy -545340.907068 kJ/mol
# GULP energy per Si atom -12394.111524 kJ/mol
# Density = 1.947243 g / cm^3
# Si number density = 19.516855 Si / 1000 Ang^3
#
#
#
# Elastic Constant Matrix: (Units=GPa)
#
#
# Indices 1 2 3 4 5 6 
#
# 1 103.4117 49.5121 31.7487 0.0000 0.0000 0.0000
# 2 49.5121 110.9262 39.1557 0.0000 0.0000 0.0000
# 3 31.7487 39.1557 67.2680 0.0000 0.0000 0.0000
# 4 0.0000 0.0000 0.0000 16.9573 0.0000 0.0000
# 5 0.0000 0.0000 0.0000 0.0000 30.2354 0.0000
# 6 0.0000 0.0000 0.0000 0.0000 0.0000 27.9806
#
#
#
# Elastic Compliance Matrix: (Units=1/GPa)
#
#
# Indices 1 2 3 4 5 6 
#
# 1 0.012903 -0.004543 -0.003445 0.000000 0.000000 0.000000
# 2 -0.004543 0.012946 -0.005391 0.000000 0.000000 0.000000
# 3 -0.003445 -0.005391 0.019630 0.000000 0.000000 0.000000
# 4 0.000000 0.000000 0.000000 0.058972 0.000000 0.000000
# 5 0.000000 0.000000 0.000000 0.000000 0.033074 0.000000
# 6 0.000000 0.000000 0.000000 0.000000 0.000000 0.035739
#
#
# Mechanical properties :
#
#
# Convention : Reuss Voigt Hill
#
# Bulk Modulus (GPa) = 53.42041 58.04875 55.73458
# Shear Modulus (GPa) = 24.24085 25.78063 25.01074
#
# Velocity S-wave (km/s) = 3.52809 3.63842 3.58368
# Velocity P-wave (km/s) = 6.63532 6.88899 6.76334
#
# Compressibility (1/GPa) = 0.01871944
#
# Stress axis : x y z
#
# Youngs Moduli (GPa) = 77.50114 77.24440 50.94158
#
# Poissons Ratio (x) = 0.35093 0.17552
# Poissons Ratio (y) = 0.35209 0.27465
# Poissons Ratio (z) = 0.26702 0.41646
#
# Static dielectric constant tensor:
#      x y z
#    x 3.584090 0.000000 0.000000 
#    y 0.000000 3.979800 0.000000 
#    z 0.000000 0.000000 3.299670 
# 
# 
# High freq. dielectric constant tensor:
#      x y z
#    x 1.764810 0.000000 0.000000 
#    y 0.000000 1.779550 0.000000 
#    z 0.000000 0.000000 1.721860 
# 
# From -- ./inp_files/32418.got.cif
#   From: 2010.03.12/outbox.cif.g09.slc.cpg/sg67_17_cif.got.tgz:32418.got - 2010.04.10 22:41:39.
