data_PCOD8278257
_publ_section_title
;
Structure prediction by ZEFSAII (Michael W. Deem and Ramdas Pophale) SiO2 
 PCOD8278257
Probable space group: C M M A
;
_chemical_formula_sum "Si O2"
_cell_formula_units_Z 104
_cell_length_a 25.415364
_cell_length_b 9.236220
_cell_length_c 30.401327
_cell_angle_alpha 90.000000
_cell_angle_beta 90.000000
_cell_angle_gamma 90.000000
_cell_volume 7136.465058
_symmetry_space_group_name_H-M "C M M A"
_symmetry_group_IT_number 67
_symmetry_cell_setting 'orthorhombic'
loop_
_space_group_symop_operation_xyz
x,y,z
-x,1/2-y,z
x,-y,-z
-x,1/2+y,-z
-x,-y,-z
x,1/2+y,-z
-x,y,z
x,1/2-y,z
1/2+x,1/2+y,z
1/2-x,-y,z
1/2+x,1/2-y,-z
1/2-x,y,-z
1/2-x,1/2-y,-z
1/2+x,y,-z
1/2-x,1/2+y,z
1/2+x,-y,z
loop_
_atom_site_type_symbol
_atom_site_label
_atom_site_fract_x
_atom_site_fract_y
_atom_site_fract_z
Si Si1 0.597499 0.579817 0.397256
Si Si2 0.562477 0.087047 0.221391
Si Si3 0.061564 0.081684 0.304763
Si Si4 0.696266 0.923794 0.454731
Si Si5 0.500000 0.922697 0.453881
Si Si6 0.937384 0.913108 0.124835
Si Si7 0.062788 0.587212 0.957928
O O1 0.589426 0.750000 0.394424
O O2 0.591907 0.518382 0.347609
O O3 0.653818 0.538697 0.417415
O O4 0.551180 0.519653 0.428044
O O5 0.500000 0.079774 0.223084
O O6 0.582411 0.250000 0.228231
O O7 0.581271 0.030898 0.173157
O O8 0.585729 0.991891 0.261075
O O9 0.071891 0.250000 0.298709
O O10 0.000000 0.047861 0.311107
O O11 0.702931 0.750000 0.461338
O O12 0.677987 0.000000 0.500000
O O13 0.750000 0.000000 0.439055
O O14 0.500000 0.750000 0.460316
O O15 0.500000 0.000000 0.500000
O O16 0.916911 0.750000 0.116817
O O17 0.000000 0.913454 0.122871
O O18 0.914413 0.015717 0.086693
O O19 0.084374 0.750000 0.960770
O O20 0.000000 0.585167 0.957484
O O21 0.084246 0.500000 0.000000
#
# Coordination Sequence:
#
# PCOD8278257 Si02
#       7
#    16  16  16  16   8  16  16
#     4   9  17  29  45  61  80 104 126 151 185 224
#     4   8  14  23  33  46  65  87 109 138 175 211
#     4   9  15  25  40  55  71  94 121 144 172 215
#     4  10  19  32  48  64  81 102 128 157 187 220
#     4  10  18  30  44  60  82 104 126 150 181 222
#     4   8  13  21  30  38  52  75 101 129 166 209
#     4   9  15  20  26  36  50  68  94 130 172 215
#
# _framework density 14.573041
#
# number of rings (size 3 to 8) (size 9 to 14) (size 15 to 20)
#    0.000    3.077    0.769    2.769    0.000    2.462 
#    0.000    6.154    0.000    0.000    0.000    0.000 
#    0.000    0.000    0.000    0.000    0.000    0.000 
#
# Total GULP energy -644370.308197 kJ/mol
# GULP energy per Si atom -12391.736696 kJ/mol
# Density = 1.453987 g / cm^3
# Si number density = 14.573041 Si / 1000 Ang^3
#
#
#
# Elastic Constant Matrix: (Units=GPa)
#
#
# Indices 1 2 3 4 5 6 
#
# 1 35.0803 22.6100 37.4681 0.0000 0.0000 0.0000
# 2 22.6100 73.4808 67.2003 0.0000 0.0000 0.0000
# 3 37.4681 67.2003 169.4993 0.0000 0.0000 0.0000
# 4 0.0000 0.0000 0.0000 28.9740 0.0000 0.0000
# 5 0.0000 0.0000 0.0000 0.0000 7.9489 0.0000
# 6 0.0000 0.0000 0.0000 0.0000 0.0000 8.6720
#
#
#
# Elastic Compliance Matrix: (Units=1/GPa)
#
#
# Indices 1 2 3 4 5 6 
#
# 1 0.039194 -0.006490 -0.006091 0.000000 0.000000 0.000000
# 2 -0.006490 0.022425 -0.007456 0.000000 0.000000 0.000000
# 3 -0.006091 -0.007456 0.010202 0.000000 0.000000 0.000000
# 4 0.000000 0.000000 0.000000 0.034514 0.000000 0.000000
# 5 0.000000 0.000000 0.000000 0.000000 0.125804 0.000000
# 6 0.000000 0.000000 0.000000 0.000000 0.000000 0.115313
#
#
# Mechanical properties :
#
#
# Convention : Reuss Voigt Hill
#
# Bulk Modulus (GPa) = 31.49821 59.17969 45.33895
# Shear Modulus (GPa) = 12.55941 19.17112 15.86527
#
# Velocity S-wave (km/s) = 2.93887 3.63094 3.30308
# Velocity P-wave (km/s) = 5.75994 7.63384 6.76212
#
# Compressibility (1/GPa) = 0.03174784
#
# Stress axis : x y z
#
# Youngs Moduli (GPa) = 25.51381 44.59394 98.01799
#
# Poissons Ratio (x) = 0.28940 0.59704
# Poissons Ratio (y) = 0.16557 0.73082
# Poissons Ratio (z) = 0.15541 0.33249
#
# Static dielectric constant tensor:
#      x y z
#    x 2.333630 0.000000 0.000000 
#    y 0.000000 2.853730 0.000000 
#    z 0.000000 0.000000 3.232700 
# 
# 
# High freq. dielectric constant tensor:
#      x y z
#    x 1.479170 0.000000 0.000000 
#    y 0.000000 1.552440 0.000000 
#    z 0.000000 0.000000 1.574310 
# 
# From -- ./inp_files/46032.got.cif
#   From: 2010.03.12/outbox.cif.g09.slc.cpg/sg67_24_cif.got.tgz:46032.got - 2010.04.10 22:41:39.
