data_PCOD8278809
_publ_section_title
;
Structure prediction by ZEFSAII (Michael W. Deem and Ramdas Pophale) SiO2 
 PCOD8278809
Probable space group: C M M A
;
_chemical_formula_sum "Si O2"
_cell_formula_units_Z 88
_cell_length_a 20.925193
_cell_length_b 8.674217
_cell_length_c 24.486412
_cell_angle_alpha 90.000000
_cell_angle_beta 90.000000
_cell_angle_gamma 90.000000
_cell_volume 4444.520435
_symmetry_space_group_name_H-M "C M M A"
_symmetry_group_IT_number 67
_symmetry_cell_setting 'orthorhombic'
loop_
_space_group_symop_operation_xyz
x,y,z
-x,1/2-y,z
x,-y,-z
-x,1/2+y,-z
-x,-y,-z
x,1/2+y,-z
-x,y,z
x,1/2-y,z
1/2+x,1/2+y,z
1/2-x,-y,z
1/2+x,1/2-y,-z
1/2-x,y,-z
1/2-x,1/2-y,-z
1/2+x,y,-z
1/2-x,1/2+y,z
1/2+x,-y,z
loop_
_atom_site_type_symbol
_atom_site_label
_atom_site_fract_x
_atom_site_fract_y
_atom_site_fract_z
Si Si1 0.361858 0.932223 0.439708
Si Si2 0.182659 0.065833 0.940479
Si Si3 0.429217 0.066632 0.261085
Si Si4 0.000000 0.428419 0.441822
Si Si5 0.570953 0.567034 0.861690
Si Si6 0.314363 0.067624 0.334373
O O1 0.350188 0.750000 0.442114
O O2 0.432632 0.975846 0.414520
O O3 0.350535 0.000000 0.500000
O O4 0.314365 0.010628 0.397101
O O5 0.186073 0.250000 0.942514
O O6 0.125927 0.003279 0.901597
O O7 0.250000 0.000000 0.918304
O O8 0.167944 0.000000 0.000000
O O9 0.500000 0.010198 0.280239
O O10 0.427254 0.250000 0.261967
O O11 0.415703 0.006826 0.199681
O O12 0.374835 0.999414 0.301002
O O13 0.000000 0.500000 0.500000
O O14 0.000000 0.250000 0.452496
O O15 0.500000 0.511297 0.880723
O O16 0.572870 0.750000 0.862077
O O17 0.312872 0.250000 0.332169
O O18 0.250000 0.000000 0.307149
#
# Coordination Sequence:
#
# PCOD8278809 Si02
#       6
#    16  16  16   8  16  16
#     4  10  20  36  56  80 109 140 174 213 260 314
#     4  10  19  31  49  74 106 144 181 219 262 310
#     4   8  16  33  56  80 104 134 175 220 263 313
#     4   8  16  30  50  76 104 132 162 202 247 296
#     4   8  15  30  52  77 104 135 175 220 266 314
#     4  11  23  37  55  80 109 140 175 216 264 316
#
# _framework density 19.799661
#
# number of rings (size 3 to 8) (size 9 to 14) (size 15 to 20)
#    0.000    2.727    0.000    3.273    1.273    2.182 
#    0.000    1.818    0.000    4.909    0.000   10.182 
#    0.000    0.000    0.000    0.000    0.000    0.000 
#
# Total GULP energy -545188.596259 kJ/mol
# GULP energy per Si atom -12390.649915 kJ/mol
# Density = 1.975460 g / cm^3
# Si number density = 19.799661 Si / 1000 Ang^3
#
#
#
# Elastic Constant Matrix: (Units=GPa)
#
#
# Indices 1 2 3 4 5 6 
#
# 1 176.3756 33.4547 91.8242 0.0000 0.0000 0.0000
# 2 33.4547 48.2967 22.2667 0.0000 0.0000 0.0000
# 3 91.8242 22.2667 103.7761 0.0000 0.0000 0.0000
# 4 0.0000 0.0000 0.0000 15.5264 0.0000 0.0000
# 5 0.0000 0.0000 0.0000 0.0000 25.6551 0.0000
# 6 0.0000 0.0000 0.0000 0.0000 0.0000 25.7866
#
#
#
# Elastic Compliance Matrix: (Units=1/GPa)
#
#
# Indices 1 2 3 4 5 6 
#
# 1 0.011016 -0.003481 -0.009000 0.000000 0.000000 0.000000
# 2 -0.003481 0.024078 -0.002086 0.000000 0.000000 0.000000
# 3 -0.009000 -0.002086 0.018047 0.000000 0.000000 0.000000
# 4 0.000000 0.000000 0.000000 0.064407 0.000000 0.000000
# 5 0.000000 0.000000 0.000000 0.000000 0.038979 0.000000
# 6 0.000000 0.000000 0.000000 0.000000 0.000000 0.038780
#
#
# Mechanical properties :
#
#
# Convention : Reuss Voigt Hill
#
# Bulk Modulus (GPa) = 41.65510 69.28219 55.46864
# Shear Modulus (GPa) = 21.51065 25.45380 23.48222
#
# Velocity S-wave (km/s) = 3.29966 3.58937 3.44756
# Velocity P-wave (km/s) = 5.96665 7.22812 6.62747
#
# Compressibility (1/GPa) = 0.02400667
#
# Stress axis : x y z
#
# Youngs Moduli (GPa) = 90.78089 41.53088 55.41018
#
# Poissons Ratio (x) = 0.14457 0.49869
# Poissons Ratio (y) = 0.31601 0.11560
# Poissons Ratio (z) = 0.81703 0.08665
#
# Static dielectric constant tensor:
#      x y z
#    x 4.246440 0.000000 0.000000 
#    y 0.000000 3.209940 0.000000 
#    z 0.000000 0.000000 3.609040 
# 
# 
# High freq. dielectric constant tensor:
#      x y z
#    x 1.791820 0.000000 0.000000 
#    y 0.000000 1.740510 0.000000 
#    z 0.000000 0.000000 1.758280 
# 
# From -- ./inp_files/42369.got.cif
#   From: 2010.03.12/outbox.cif.g09.slc.cpg/sg67_22_cif.got.tgz:42369.got - 2010.04.10 22:41:39.
