data_PCOD8278876
_publ_section_title
;
Structure prediction by ZEFSAII (Michael W. Deem and Ramdas Pophale) SiO2 
 PCOD8278876
Probable space group: C M M A
;
_chemical_formula_sum "Si O2"
_cell_formula_units_Z 80
_cell_length_a 18.958654
_cell_length_b 7.626423
_cell_length_c 29.335086
_cell_angle_alpha 90.000000
_cell_angle_beta 90.000000
_cell_angle_gamma 90.000000
_cell_volume 4241.463716
_symmetry_space_group_name_H-M "C M M A"
_symmetry_group_IT_number 67
_symmetry_cell_setting 'orthorhombic'
loop_
_space_group_symop_operation_xyz
x,y,z
-x,1/2-y,z
x,-y,-z
-x,1/2+y,-z
-x,-y,-z
x,1/2+y,-z
-x,y,z
x,1/2-y,z
1/2+x,1/2+y,z
1/2-x,-y,z
1/2+x,1/2-y,-z
1/2-x,y,-z
1/2-x,1/2-y,-z
1/2+x,y,-z
1/2-x,1/2+y,z
1/2+x,-y,z
loop_
_atom_site_type_symbol
_atom_site_label
_atom_site_fract_x
_atom_site_fract_y
_atom_site_fract_z
Si Si1 0.584240 0.250000 0.601344
Si Si2 0.330952 0.547845 0.950402
Si Si3 0.416257 0.750000 0.294365
Si Si4 0.084195 0.944674 0.230907
Si Si5 0.078177 0.041229 0.869303
Si Si6 0.171131 0.545221 0.447226
O O1 0.500000 0.250000 0.595471
O O2 0.608726 0.250000 0.653721
O O3 0.614698 0.427153 0.579308
O O4 0.340608 0.750000 0.942904
O O5 0.250000 0.500000 0.947127
O O6 0.373676 0.455687 0.909239
O O7 0.362110 0.500000 0.000000
O O8 0.500000 0.750000 0.291362
O O9 0.386157 0.577333 0.269033
O O10 0.113757 0.750000 0.241966
O O11 0.108805 0.009812 0.180621
O O12 0.000000 0.939426 0.230926
O O13 0.074973 0.250000 0.872097
O O14 0.000000 0.962692 0.875872
O O15 0.163925 0.500000 0.500000
O O16 0.154508 0.750000 0.438477
O O17 0.250000 0.500000 0.430251
#
# Coordination Sequence:
#
# PCOD8278876 Si02
#       6
#     8  16   8  16  16  16
#     4  11  24  37  55  93 128 153 196 252 300 339
#     4  10  19  32  47  65  93 127 160 192 241 306
#     4   9  18  32  49  77 115 143 176 224 273 325
#     4   8  14  28  50  72  98 134 173 214 262 319
#     4   8  15  29  50  73  93 120 161 206 252 297
#     4  11  20  39  65  87 115 162 210 242 287 356
#
# _framework density 18.861412999999999
#
# number of rings (size 3 to 8) (size 9 to 14) (size 15 to 20)
#    0.000    2.600    2.000    3.000    0.000    2.000 
#    3.600    2.000    0.000    1.200    0.000    0.000 
#    0.000    0.000    0.000    0.000    0.000    0.000 
#
# Total GULP energy -495732.319646 kJ/mol
# GULP energy per Si atom -12393.307991 kJ/mol
# Density = 1.881848 g / cm^3
# Si number density = 18.861413 Si / 1000 Ang^3
#
#
#
# Elastic Constant Matrix: (Units=GPa)
#
#
# Indices 1 2 3 4 5 6 
#
# 1 62.3772 32.0100 55.6995 0.0000 0.0000 0.0000
# 2 32.0100 118.9295 59.0868 0.0000 0.0000 0.0000
# 3 55.6995 59.0868 144.7701 0.0000 0.0000 0.0000
# 4 0.0000 0.0000 0.0000 22.4648 0.0000 0.0000
# 5 0.0000 0.0000 0.0000 0.0000 8.3191 0.0000
# 6 0.0000 0.0000 0.0000 0.0000 0.0000 12.9317
#
#
#
# Elastic Compliance Matrix: (Units=1/GPa)
#
#
# Indices 1 2 3 4 5 6 
#
# 1 0.024975 -0.002444 -0.008612 0.000000 0.000000 0.000000
# 2 -0.002444 0.010786 -0.003462 0.000000 0.000000 0.000000
# 3 -0.008612 -0.003462 0.011634 0.000000 0.000000 0.000000
# 4 0.000000 0.000000 0.000000 0.044514 0.000000 0.000000
# 5 0.000000 0.000000 0.000000 0.000000 0.120205 0.000000
# 6 0.000000 0.000000 0.000000 0.000000 0.000000 0.077330
#
#
# Mechanical properties :
#
#
# Convention : Reuss Voigt Hill
#
# Bulk Modulus (GPa) = 54.46528 68.85214 61.65871
# Shear Modulus (GPa) = 15.40361 20.69515 18.04938
#
# Velocity S-wave (km/s) = 2.86085 3.31603 3.09681
# Velocity P-wave (km/s) = 6.31283 7.15855 6.74895
#
# Compressibility (1/GPa) = 0.01836032
#
# Stress axis : x y z
#
# Youngs Moduli (GPa) = 40.03954 92.71197 85.95595
#
# Poissons Ratio (x) = 0.22655 0.74023
# Poissons Ratio (y) = 0.09784 0.29759
# Poissons Ratio (z) = 0.34481 0.32098
#
# Static dielectric constant tensor:
#      x y z
#    x 3.088960 0.000000 0.000000 
#    y 0.000000 3.563190 0.000000 
#    z 0.000000 0.000000 4.418490 
# 
# 
# High freq. dielectric constant tensor:
#      x y z
#    x 1.689920 0.000000 0.000000 
#    y 0.000000 1.736340 0.000000 
#    z 0.000000 0.000000 1.738450 
# 
# From -- ./inp_files/44452.got.cif
#   From: 2010.03.12/outbox.cif.g09.slc.cpg/sg67_23_cif.got.tgz:44452.got - 2010.04.10 22:41:39.
