data_PCOD8278291
_publ_section_title
;
Structure prediction by ZEFSAII (Michael W. Deem and Ramdas Pophale) SiO2 
 PCOD8278291
Probable space group: C M M A
;
_chemical_formula_sum "Si O2"
_cell_formula_units_Z 104
_cell_length_a 8.812493
_cell_length_b 24.820007
_cell_length_c 27.360513
_cell_angle_alpha 90.000000
_cell_angle_beta 90.000000
_cell_angle_gamma 90.000000
_cell_volume 5984.459341
_symmetry_space_group_name_H-M "C M M A"
_symmetry_group_IT_number 67
_symmetry_cell_setting 'orthorhombic'
loop_
_space_group_symop_operation_xyz
x,y,z
-x,1/2-y,z
x,-y,-z
-x,1/2+y,-z
-x,-y,-z
x,1/2+y,-z
-x,y,z
x,1/2-y,z
1/2+x,1/2+y,z
1/2-x,-y,z
1/2+x,1/2-y,-z
1/2-x,y,-z
1/2-x,1/2-y,-z
1/2+x,y,-z
1/2-x,1/2+y,z
1/2+x,-y,z
loop_
_atom_site_type_symbol
_atom_site_label
_atom_site_fract_x
_atom_site_fract_y
_atom_site_fract_z
Si Si1 0.678788 0.188205 0.448426
Si Si2 0.681036 0.644695 0.355976
Si Si3 0.678867 0.056164 0.719922
Si Si4 0.322276 0.250000 0.052630
Si Si5 0.674777 0.250000 0.693212
Si Si6 0.179759 0.662169 0.130136
Si Si7 0.320224 0.442323 0.831168
Si Si8 0.324286 0.750000 0.193039
O O1 0.500000 0.181281 0.451588
O O2 0.724071 0.250000 0.434791
O O3 0.750000 0.172189 0.500000
O O4 0.746100 0.145143 0.409784
O O5 0.500000 0.643444 0.360235
O O6 0.739949 0.596718 0.321359
O O7 0.749178 0.697309 0.329717
O O8 0.500000 0.051502 0.717732
O O9 0.726112 0.072920 0.775291
O O10 0.750000 0.000000 0.705241
O O11 0.500000 0.250000 0.046037
O O12 0.272544 0.304388 0.081461
O O13 0.250000 0.250000 0.000000
O O14 0.500000 0.250000 0.678693
O O15 0.697500 0.250000 0.750102
O O16 0.254053 0.602850 0.131931
O O17 0.242678 0.696028 0.175407
O O18 0.000000 0.656544 0.134152
O O19 0.500000 0.445222 0.837860
O O20 0.250000 0.500000 0.845739
O O21 0.500000 0.750000 0.176856
#
# Coordination Sequence:
#
# PCOD8278291 Si02
#       8
#    16  16  16   8   8  16  16   8
#     4  10  20  33  49  70  95 122 156 196 243 300
#     4  10  18  31  50  70  95 127 160 197 243 294
#     4   9  19  33  50  73 101 135 174 207 242 289
#     4   9  20  36  55  78 106 137 174 217 263 312
#     4   9  17  28  45  69  98 128 159 197 242 293
#     4  10  20  34  50  75 107 138 172 215 261 306
#     4  10  19  33  53  77 105 140 180 216 252 300
#     4  10  18  30  48  71 100 137 175 208 246 301
#
# _framework density 17.378344999999999
#
# number of rings (size 3 to 8) (size 9 to 14) (size 15 to 20)
#    0.000    2.308    0.769    3.000    0.000    6.154 
#    0.000    3.077    0.000    0.923    0.000    6.462 
#    0.000    0.000    0.000    0.000    0.000    0.000 
#
# Total GULP energy -644616.269403 kJ/mol
# GULP energy per Si atom -12396.466719 kJ/mol
# Density = 1.733879 g / cm^3
# Si number density = 17.378345 Si / 1000 Ang^3
#
#
#
# Elastic Constant Matrix: (Units=GPa)
#
#
# Indices 1 2 3 4 5 6 
#
# 1 58.6962 45.8359 32.7326 0.0000 0.0000 0.0000
# 2 45.8359 149.3516 23.6590 0.0000 0.0000 0.0000
# 3 32.7326 23.6590 264.8938 0.0000 0.0000 0.0000
# 4 0.0000 0.0000 0.0000 18.3633 0.0000 0.0000
# 5 0.0000 0.0000 0.0000 0.0000 26.3402 0.0000
# 6 0.0000 0.0000 0.0000 0.0000 0.0000 29.8155
#
#
#
# Elastic Compliance Matrix: (Units=1/GPa)
#
#
# Indices 1 2 3 4 5 6 
#
# 1 0.023728 -0.006915 -0.002314 0.000000 0.000000 0.000000
# 2 -0.006915 0.008807 0.000068 0.000000 0.000000 0.000000
# 3 -0.002314 0.000068 0.004055 0.000000 0.000000 0.000000
# 4 0.000000 0.000000 0.000000 0.054456 0.000000 0.000000
# 5 0.000000 0.000000 0.000000 0.000000 0.037965 0.000000
# 6 0.000000 0.000000 0.000000 0.000000 0.000000 0.033540
#
#
# Mechanical properties :
#
#
# Convention : Reuss Voigt Hill
#
# Bulk Modulus (GPa) = 54.74580 75.26628 65.00604
# Shear Modulus (GPa) = 26.74323 39.61808 33.18065
#
# Velocity S-wave (km/s) = 3.92711 4.77984 4.37431
# Velocity P-wave (km/s) = 7.22037 8.59459 7.93727
#
# Compressibility (1/GPa) = 0.01826624
#
# Stress axis : x y z
#
# Youngs Moduli (GPa) = 42.14477 113.54368 246.60826
#
# Poissons Ratio (x) = 0.78520 0.57074
# Poissons Ratio (y) = 0.29145 -0.01675
# Poissons Ratio (z) = 0.09754 -0.00771
#
# Static dielectric constant tensor:
#      x y z
#    x 3.174770 0.000000 0.000000 
#    y 0.000000 3.268790 0.000000 
#    z 0.000000 0.000000 1.687310 
# 
# 
# High freq. dielectric constant tensor:
#      x y z
#    x 1.670460 0.000000 0.000000 
#    y 0.000000 1.663290 0.000000 
#    z 0.000000 0.000000 1.659710 
# 
# From -- ./inp_files/43759.got.cif
#   From: 2010.03.12/outbox.cif.g09.slc.cpg/sg67_22_cif.got.tgz:43759.got - 2010.04.10 22:41:39.
