data_PCOD8278694
_publ_section_title
;
Structure prediction by ZEFSAII (Michael W. Deem and Ramdas Pophale) SiO2 
 PCOD8278694
Probable space group: C M M A
;
_chemical_formula_sum "Si O2"
_cell_formula_units_Z 96
_cell_length_a 10.213635
_cell_length_b 18.363017
_cell_length_c 29.205966
_cell_angle_alpha 90.000000
_cell_angle_beta 90.000000
_cell_angle_gamma 90.000000
_cell_volume 5477.671014
_symmetry_space_group_name_H-M "C M M A"
_symmetry_group_IT_number 67
_symmetry_cell_setting 'orthorhombic'
loop_
_space_group_symop_operation_xyz
x,y,z
-x,1/2-y,z
x,-y,-z
-x,1/2+y,-z
-x,-y,-z
x,1/2+y,-z
-x,y,z
x,1/2-y,z
1/2+x,1/2+y,z
1/2-x,-y,z
1/2+x,1/2-y,-z
1/2-x,y,-z
1/2-x,1/2-y,-z
1/2+x,y,-z
1/2-x,1/2+y,z
1/2+x,-y,z
loop_
_atom_site_type_symbol
_atom_site_label
_atom_site_fract_x
_atom_site_fract_y
_atom_site_fract_z
Si Si1 0.352122 0.056931 0.131792
Si Si2 0.139983 0.076871 0.973022
Si Si3 0.849268 0.067090 0.373417
Si Si4 0.850433 0.834519 0.714170
Si Si5 0.149396 0.666266 0.539530
Si Si6 0.352705 0.833836 0.789756
O O1 0.500000 0.026144 0.135541
O O2 0.314872 0.070173 0.079188
O O3 0.334757 0.129874 0.160854
O O4 0.250000 0.000000 0.153005
O O5 0.000000 0.117028 0.975160
O O6 0.250000 0.124021 0.000000
O O7 0.129820 0.000000 0.000000
O O8 0.821450 0.118535 0.330463
O O9 0.819927 0.114866 0.417925
O O10 0.000000 0.039261 0.373224
O O11 0.750000 0.000000 0.372172
O O12 0.822340 0.750000 0.702565
O O13 0.752282 0.863932 0.753282
O O14 0.000000 0.844916 0.730981
O O15 0.172014 0.750000 0.554383
O O16 0.250000 0.643260 0.500000
O O17 0.000000 0.655292 0.522200
O O18 0.500000 0.847680 0.770712
O O19 0.325220 0.750000 0.798903
#
# Coordination Sequence:
#
# PCOD8278694 Si02
#       6
#    16  16  16  16  16  16
#     4  10  19  30  47  72  97 124 158 197 241 286
#     4   9  15  25  42  65  90 118 153 193 232 274
#     4  10  21  35  52  76 106 137 167 206 257 305
#     4   9  18  35  57  75  93 126 171 210 245 292
#     4   9  18  34  55  77 102 135 176 217 253 295
#     4   9  19  35  52  71  98 130 162 199 246 298
#
# _framework density 17.525697000000001
#
# number of rings (size 3 to 8) (size 9 to 14) (size 15 to 20)
#    0.000    2.667    1.667    0.500    0.000    5.000 
#    0.000    5.000    0.000    5.500    0.000    0.000 
#    0.000    0.000    0.000    0.000    0.000    0.000 
#
# Total GULP energy -594860.172628 kJ/mol
# GULP energy per Si atom -12392.920263 kJ/mol
# Density = 1.748581 g / cm^3
# Si number density = 17.525697 Si / 1000 Ang^3
#
#
#
# Elastic Constant Matrix: (Units=GPa)
#
#
# Indices 1 2 3 4 5 6 
#
# 1 128.9670 54.1393 77.6842 0.0000 0.0000 0.0000
# 2 54.1393 60.7362 53.8163 0.0000 0.0000 0.0000
# 3 77.6842 53.8163 130.3369 0.0000 0.0000 0.0000
# 4 0.0000 0.0000 0.0000 22.9118 0.0000 0.0000
# 5 0.0000 0.0000 0.0000 0.0000 33.1122 0.0000
# 6 0.0000 0.0000 0.0000 0.0000 0.0000 22.8437
#
#
#
# Elastic Compliance Matrix: (Units=1/GPa)
#
#
# Indices 1 2 3 4 5 6 
#
# 1 0.014280 -0.008180 -0.005134 0.000000 0.000000 0.000000
# 2 -0.008180 0.030650 -0.007780 0.000000 0.000000 0.000000
# 3 -0.005134 -0.007780 0.013944 0.000000 0.000000 0.000000
# 4 0.000000 0.000000 0.000000 0.043646 0.000000 0.000000
# 5 0.000000 0.000000 0.000000 0.000000 0.030200 0.000000
# 6 0.000000 0.000000 0.000000 0.000000 0.000000 0.043776
#
#
# Mechanical properties :
#
#
# Convention : Reuss Voigt Hill
#
# Bulk Modulus (GPa) = 59.92663 76.81329 68.36996
# Shear Modulus (GPa) = 22.29693 24.73358 23.51525
#
# Velocity S-wave (km/s) = 3.57072 3.76077 3.66698
# Velocity P-wave (km/s) = 7.16016 7.92351 7.55148
#
# Compressibility (1/GPa) = 0.01668707
#
# Stress axis : x y z
#
# Youngs Moduli (GPa) = 70.02629 32.62660 71.71296
#
# Poissons Ratio (x) = 0.26690 0.36816
# Poissons Ratio (y) = 0.57285 0.55790
# Poissons Ratio (z) = 0.35950 0.25382
#
# Static dielectric constant tensor:
#      x y z
#    x 4.233720 0.000000 0.000000 
#    y 0.000000 3.000540 0.000000 
#    z 0.000000 0.000000 3.269170 
# 
# 
# High freq. dielectric constant tensor:
#      x y z
#    x 1.696560 0.000000 0.000000 
#    y 0.000000 1.643900 0.000000 
#    z 0.000000 0.000000 1.679870 
# 
# From -- ./inp_files/41478.got.cif
#   From: 2010.03.12/outbox.cif.g09.slc.cpg/sg67_21_cif.got.tgz:41478.got - 2010.04.10 22:41:39.
