data_PCOD8278432
_publ_section_title
;
Structure prediction by ZEFSAII (Michael W. Deem and Ramdas Pophale) SiO2 
 PCOD8278432
Probable space group: C M M A
;
_chemical_formula_sum "Si O2"
_cell_formula_units_Z 72
_cell_length_a 30.759501
_cell_length_b 8.672098
_cell_length_c 14.457944
_cell_angle_alpha 90.000000
_cell_angle_beta 90.000000
_cell_angle_gamma 90.000000
_cell_volume 3856.647990
_symmetry_space_group_name_H-M "C M M A"
_symmetry_group_IT_number 67
_symmetry_cell_setting 'orthorhombic'
loop_
_space_group_symop_operation_xyz
x,y,z
-x,1/2-y,z
x,-y,-z
-x,1/2+y,-z
-x,-y,-z
x,1/2+y,-z
-x,y,z
x,1/2-y,z
1/2+x,1/2+y,z
1/2-x,-y,z
1/2+x,1/2-y,-z
1/2-x,y,-z
1/2-x,1/2-y,-z
1/2+x,y,-z
1/2-x,1/2+y,z
1/2+x,-y,z
loop_
_atom_site_type_symbol
_atom_site_label
_atom_site_fract_x
_atom_site_fract_y
_atom_site_fract_z
Si Si1 0.548734 0.568353 0.901030
Si Si2 0.374479 0.931847 0.770704
Si Si3 0.000000 0.433588 0.602230
Si Si4 0.911585 0.568293 0.600909
Si Si5 0.203988 0.431933 0.901612
O O1 0.500000 0.519287 0.869288
O O2 0.552431 0.750000 0.910235
O O3 0.583846 0.507205 0.827940
O O4 0.560504 0.500000 0.000000
O O5 0.376760 0.750000 0.753147
O O6 0.331048 0.979251 0.824800
O O7 0.373577 0.019389 0.671878
O O8 0.000000 0.500000 0.500000
O O9 0.044285 0.497530 0.647112
O O10 0.000000 0.250000 0.606065
O O11 0.901441 0.500000 0.500000
O O12 0.915841 0.750000 0.590912
O O13 0.207901 0.250000 0.912538
O O14 0.250000 0.500000 0.869416
O O15 0.189286 0.500000 0.000000
#
# Coordination Sequence:
#
# PCOD8278432 Si02
#       5
#    16  16   8  16  16
#     4   9  18  32  49  71 102 140 176 212 258 310
#     4  10  21  35  53  79 107 142 182 223 272 325
#     4  10  18  32  52  72 101 138 179 226 270 314
#     4  11  22  36  54  78 107 142 184 229 275 323
#     4  10  20  35  57  83 113 143 180 225 275 329
#
# _framework density 18.669060999999999
#
# number of rings (size 3 to 8) (size 9 to 14) (size 15 to 20)
#    0.000    2.000    0.000    6.333    1.556    2.667 
#    0.000    0.000    0.000    0.667    0.000    4.667 
#    0.000    0.000    0.000    0.000    0.000    0.000 
#
# Total GULP energy -446367.250575 kJ/mol
# GULP energy per Si atom -12399.090294 kJ/mol
# Density = 1.862657 g / cm^3
# Si number density = 18.669061 Si / 1000 Ang^3
#
#
#
# Elastic Constant Matrix: (Units=GPa)
#
#
# Indices 1 2 3 4 5 6 
#
# 1 111.4619 50.1232 81.1414 0.0000 0.0000 0.0000
# 2 50.1232 105.8225 51.7175 0.0000 0.0000 0.0000
# 3 81.1414 51.7175 121.3461 0.0000 0.0000 0.0000
# 4 0.0000 0.0000 0.0000 31.6526 0.0000 0.0000
# 5 0.0000 0.0000 0.0000 0.0000 28.7689 0.0000
# 6 0.0000 0.0000 0.0000 0.0000 0.0000 24.9270
#
#
#
# Elastic Compliance Matrix: (Units=1/GPa)
#
#
# Indices 1 2 3 4 5 6 
#
# 1 0.018409 -0.003415 -0.010854 0.000000 0.000000 0.000000
# 2 -0.003415 0.012569 -0.003074 0.000000 0.000000 0.000000
# 3 -0.010854 -0.003074 0.016809 0.000000 0.000000 0.000000
# 4 0.000000 0.000000 0.000000 0.031593 0.000000 0.000000
# 5 0.000000 0.000000 0.000000 0.000000 0.034760 0.000000
# 6 0.000000 0.000000 0.000000 0.000000 0.000000 0.040117
#
#
# Mechanical properties :
#
#
# Convention : Reuss Voigt Hill
#
# Bulk Modulus (GPa) = 76.32553 78.28830 77.30691
# Shear Modulus (GPa) = 25.86528 27.44627 26.65577
#
# Velocity S-wave (km/s) = 3.72622 3.83841 3.78273
# Velocity P-wave (km/s) = 7.71266 7.85305 7.78317
#
# Compressibility (1/GPa) = 0.01310178
#
# Stress axis : x y z
#
# Youngs Moduli (GPa) = 54.32179 79.55855 59.49249
#
# Poissons Ratio (x) = 0.27167 0.64574
# Poissons Ratio (y) = 0.18550 0.18286
# Poissons Ratio (z) = 0.58962 0.24454
#
# Static dielectric constant tensor:
#      x y z
#    x 3.705220 0.000000 0.000000 
#    y 0.000000 3.404990 0.000000 
#    z 0.000000 0.000000 3.392900 
# 
# 
# High freq. dielectric constant tensor:
#      x y z
#    x 1.709630 0.000000 0.000000 
#    y 0.000000 1.728610 0.000000 
#    z 0.000000 0.000000 1.722250 
# 
# From -- ./inp_files/25331.got.cif
#   From: 2010.03.12/outbox.cif.g09.slc.cpg/sg67_13_cif.got.tgz:25331.got - 2010.04.10 22:41:39.
