data_PCOD8278255
_publ_section_title
;
Structure prediction by ZEFSAII (Michael W. Deem and Ramdas Pophale) SiO2 
 PCOD8278255
Probable space group: C M M A
;
_chemical_formula_sum "Si O2"
_cell_formula_units_Z 80
_cell_length_a 27.478822
_cell_length_b 10.238431
_cell_length_c 18.635919
_cell_angle_alpha 90.000000
_cell_angle_beta 90.000000
_cell_angle_gamma 90.000000
_cell_volume 5243.029880
_symmetry_space_group_name_H-M "C M M A"
_symmetry_group_IT_number 67
_symmetry_cell_setting 'orthorhombic'
loop_
_space_group_symop_operation_xyz
x,y,z
-x,1/2-y,z
x,-y,-z
-x,1/2+y,-z
-x,-y,-z
x,1/2+y,-z
-x,y,z
x,1/2-y,z
1/2+x,1/2+y,z
1/2-x,-y,z
1/2+x,1/2-y,-z
1/2-x,y,-z
1/2-x,1/2-y,-z
1/2+x,y,-z
1/2-x,1/2+y,z
1/2+x,-y,z
loop_
_atom_site_type_symbol
_atom_site_label
_atom_site_fract_x
_atom_site_fract_y
_atom_site_fract_z
Si Si1 0.695677 0.499720 0.085019
Si Si2 0.136049 0.250000 0.923439
Si Si3 0.057713 0.250000 0.211969
Si Si4 0.636097 0.250000 0.906896
Si Si5 0.558042 0.398906 0.440368
Si Si6 0.942518 0.515507 0.286227
Si Si7 0.442767 0.250000 0.186968
O O1 0.750000 0.500000 0.118374
O O2 0.666136 0.371901 0.106944
O O3 0.667291 0.624367 0.115423
O O4 0.699862 0.500000 0.000000
O O5 0.082357 0.250000 0.890304
O O6 0.126348 0.250000 0.008210
O O7 0.085028 0.250000 0.135422
O O8 0.074342 0.373911 0.259008
O O9 0.000000 0.250000 0.195512
O O10 0.578019 0.500000 0.500000
O O11 0.500000 0.399783 0.439845
O O12 0.576203 0.250000 0.455161
O O13 0.579153 0.450486 0.364439
O O14 0.924791 0.623284 0.229964
O O15 0.000000 0.520687 0.292346
O O16 0.500000 0.250000 0.173058
#
# Coordination Sequence:
#
# PCOD8278255 Si02
#       7
#    16   8   8   8  16  16   8
#     4   9  17  30  47  65  84 104 131 177 233 282
#     4  10  19  29  46  66  82 110 150 185 222 264
#     4  10  20  30  42  58  84 122 155 184 216 248
#     4  10  19  31  44  64  88 108 146 193 222 256
#     4   9  16  25  39  59  80 102 137 185 222 248
#     4   9  17  29  41  55  79 113 150 181 213 256
#     4  10  18  30  44  58  82 118 155 186 212 248
#
# _framework density 15.258353
#
# number of rings (size 3 to 8) (size 9 to 14) (size 15 to 20)
#    0.000    2.600    1.000    1.800    1.400    2.800 
#    0.000    0.000    0.000    7.200    0.000    0.000 
#    0.000    0.000    0.000    0.000    0.000   70.000 
#
# Total GULP energy -495843.147650 kJ/mol
# GULP energy per Si atom -12396.078691 kJ/mol
# Density = 1.522362 g / cm^3
# Si number density = 15.258353 Si / 1000 Ang^3
#
#
#
# Elastic Constant Matrix: (Units=GPa)
#
#
# Indices 1 2 3 4 5 6 
#
# 1 55.4201 38.3227 38.1344 0.0000 0.0000 0.0000
# 2 38.3227 158.3398 52.1890 0.0000 0.0000 0.0000
# 3 38.1344 52.1890 81.0705 0.0000 0.0000 0.0000
# 4 0.0000 0.0000 0.0000 3.8982 0.0000 0.0000
# 5 0.0000 0.0000 0.0000 0.0000 3.0105 0.0000
# 6 0.0000 0.0000 0.0000 0.0000 0.0000 16.5031
#
#
#
# Elastic Compliance Matrix: (Units=1/GPa)
#
#
# Indices 1 2 3 4 5 6 
#
# 1 0.027808 -0.003070 -0.011104 0.000000 0.000000 0.000000
# 2 -0.003070 0.008355 -0.003935 0.000000 0.000000 0.000000
# 3 -0.011104 -0.003935 0.020091 0.000000 0.000000 0.000000
# 4 0.000000 0.000000 0.000000 0.256526 0.000000 0.000000
# 5 0.000000 0.000000 0.000000 0.000000 0.332167 0.000000
# 6 0.000000 0.000000 0.000000 0.000000 0.000000 0.060595
#
#
# Mechanical properties :
#
#
# Convention : Reuss Voigt Hill
#
# Bulk Modulus (GPa) = 49.90881 61.34696 55.62789
# Shear Modulus (GPa) = 6.68058 15.76132 11.22095
#
# Velocity S-wave (km/s) = 2.09471 3.21746 2.71476
# Velocity P-wave (km/s) = 6.21535 7.35497 6.80904
#
# Compressibility (1/GPa) = 0.02003654
#
# Stress axis : x y z
#
# Youngs Moduli (GPa) = 35.96136 119.68165 49.77391
#
# Poissons Ratio (x) = 0.36747 0.55268
# Poissons Ratio (y) = 0.11042 0.19584
# Poissons Ratio (z) = 0.39931 0.47089
#
# Static dielectric constant tensor:
#      x y z
#    x 2.572510 0.000000 0.000000 
#    y 0.000000 3.296740 0.000000 
#    z 0.000000 0.000000 2.839350 
# 
# 
# High freq. dielectric constant tensor:
#      x y z
#    x 1.532310 0.000000 0.000000 
#    y 0.000000 1.611000 0.000000 
#    z 0.000000 0.000000 1.564210 
# 
# From -- ./inp_files/30652.got.cif
#   From: 2010.03.12/outbox.cif.g09.slc.cpg/sg67_16_cif.got.tgz:30652.got - 2010.04.10 22:41:39.
