data_PCOD8278252
_publ_section_title
;
Structure prediction by ZEFSAII (Michael W. Deem and Ramdas Pophale) SiO2 
 PCOD8278252
Probable space group: C M M A
;
_chemical_formula_sum "Si O2"
_cell_formula_units_Z 112
_cell_length_a 14.947153
_cell_length_b 22.552158
_cell_length_c 15.580095
_cell_angle_alpha 90.000000
_cell_angle_beta 90.000000
_cell_angle_gamma 90.000000
_cell_volume 5251.902888
_symmetry_space_group_name_H-M "C M M A"
_symmetry_group_IT_number 67
_symmetry_cell_setting 'orthorhombic'
loop_
_space_group_symop_operation_xyz
x,y,z
-x,1/2-y,z
x,-y,-z
-x,1/2+y,-z
-x,-y,-z
x,1/2+y,-z
-x,y,z
x,1/2-y,z
1/2+x,1/2+y,z
1/2-x,-y,z
1/2+x,1/2-y,-z
1/2-x,y,-z
1/2-x,1/2-y,-z
1/2+x,y,-z
1/2-x,1/2+y,z
1/2+x,-y,z
loop_
_atom_site_type_symbol
_atom_site_label
_atom_site_fract_x
_atom_site_fract_y
_atom_site_fract_z
Si Si1 0.347711 0.942652 0.457927
Si Si2 0.151489 0.483419 0.265236
Si Si3 0.758640 0.316289 0.258346
Si Si4 0.895578 0.063184 0.974074
Si Si5 0.662234 0.814675 0.444427
Si Si6 0.899996 0.397109 0.790068
Si Si7 0.600958 0.122160 0.852319
O O1 0.250000 0.940653 0.500000
O O2 0.342639 0.952673 0.357080
O O3 0.390978 0.875857 0.472424
O O4 0.399557 0.000000 0.500000
O O5 0.250000 0.500000 0.232247
O O6 0.093025 0.543089 0.266547
O O7 0.105750 0.439466 0.198497
O O8 0.725506 0.250000 0.245368
O O9 0.810322 0.325724 0.346722
O O10 0.668296 0.354158 0.257958
O O11 0.827660 0.331240 0.182615
O O12 0.858222 0.088344 0.884079
O O13 0.000000 0.052438 0.959525
O O14 0.876154 0.111043 0.047960
O O15 0.851127 0.000000 0.000000
O O16 0.610322 0.750000 0.452844
O O17 0.750000 0.808387 0.500000
O O18 0.000000 0.369018 0.794805
O O19 0.500000 0.147415 0.842960
#
# Coordination Sequence:
#
# PCOD8278252 Si02
#       7
#    16  16  16  16  16  16  16
#     4  10  18  29  53  87 119 161 196 245 298 364
#     4  12  19  34  58  92 121 155 198 242 302 365
#     4  11  24  42  63  87 117 160 211 252 297 359
#     4   9  18  35  57  86 123 160 194 241 310 375
#     4   9  18  34  57  85 113 155 206 242 292 362
#     4  11  23  39  61  90 123 157 201 254 308 366
#     4  11  22  38  61  90 123 155 199 253 306 362
#
# _framework density 21.325603999999998
#
# number of rings (size 3 to 8) (size 9 to 14) (size 15 to 20)
#    0.000    1.571    5.714    0.429    2.000    1.143 
#    0.000    2.857    0.000    6.857    0.000    4.000 
#    0.000    0.000    0.000    0.000    0.000    0.000 
#
# Total GULP energy -693770.288556 kJ/mol
# GULP energy per Si atom -12388.755153 kJ/mol
# Density = 2.127707 g / cm^3
# Si number density = 21.325604 Si / 1000 Ang^3
#
#
#
# Elastic Constant Matrix: (Units=GPa)
#
#
# Indices 1 2 3 4 5 6 
#
# 1 44.6461 6.1592 3.5378 0.0000 0.0000 0.0000
# 2 6.1592 177.6475 26.7628 0.0000 0.0000 0.0000
# 3 3.5378 26.7628 56.4118 0.0000 0.0000 0.0000
# 4 0.0000 0.0000 0.0000 26.1306 0.0000 0.0000
# 5 0.0000 0.0000 0.0000 0.0000 2.2133 0.0000
# 6 0.0000 0.0000 0.0000 0.0000 0.0000 12.2196
#
#
#
# Elastic Compliance Matrix: (Units=1/GPa)
#
#
# Indices 1 2 3 4 5 6 
#
# 1 0.022572 -0.000613 -0.001125 0.000000 0.000000 0.000000
# 2 -0.000613 0.006079 -0.002846 0.000000 0.000000 0.000000
# 3 -0.001125 -0.002846 0.019147 0.000000 0.000000 0.000000
# 4 0.000000 0.000000 0.000000 0.038269 0.000000 0.000000
# 5 0.000000 0.000000 0.000000 0.000000 0.451819 0.000000
# 6 0.000000 0.000000 0.000000 0.000000 0.000000 0.081836
#
#
# Mechanical properties :
#
#
# Convention : Reuss Voigt Hill
#
# Bulk Modulus (GPa) = 25.88553 39.06945 32.47749
# Shear Modulus (GPa) = 7.79099 24.26240 16.02669
#
# Velocity S-wave (km/s) = 1.91345 3.37666 2.74437
# Velocity P-wave (km/s) = 4.12872 5.79333 5.03035
#
# Compressibility (1/GPa) = 0.03863162
#
# Stress axis : x y z
#
# Youngs Moduli (GPa) = 44.30248 164.49875 52.22668
#
# Poissons Ratio (x) = 0.10086 0.05874
# Poissons Ratio (y) = 0.02716 0.14861
# Poissons Ratio (z) = 0.04983 0.46809
#
# Static dielectric constant tensor:
#      x y z
#    x 3.542850 0.000000 0.000000 
#    y 0.000000 4.487330 0.000000 
#    z 0.000000 0.000000 4.027280 
# 
# 
# High freq. dielectric constant tensor:
#      x y z
#    x 1.797070 0.000000 0.000000 
#    y 0.000000 1.836840 0.000000 
#    z 0.000000 0.000000 1.844220 
# 
# From -- ./inp_files/27558.got.cif
#   From: 2010.03.12/outbox.cif.g09.slc.cpg/sg67_14_cif.got.tgz:27558.got - 2010.04.10 22:41:39.
