data_PCOD8278889
_publ_section_title
;
Structure prediction by ZEFSAII (Michael W. Deem and Ramdas Pophale) SiO2 
 PCOD8278889
Probable space group: C M M A
;
_chemical_formula_sum "Si O2"
_cell_formula_units_Z 80
_cell_length_a 19.830172
_cell_length_b 8.754315
_cell_length_c 25.824664
_cell_angle_alpha 90.000000
_cell_angle_beta 90.000000
_cell_angle_gamma 90.000000
_cell_volume 4483.150622
_symmetry_space_group_name_H-M "C M M A"
_symmetry_group_IT_number 67
_symmetry_cell_setting 'orthorhombic'
loop_
_space_group_symop_operation_xyz
x,y,z
-x,1/2-y,z
x,-y,-z
-x,1/2+y,-z
-x,-y,-z
x,1/2+y,-z
-x,y,z
x,1/2-y,z
1/2+x,1/2+y,z
1/2-x,-y,z
1/2+x,1/2-y,-z
1/2-x,y,-z
1/2-x,1/2-y,-z
1/2+x,y,-z
1/2-x,1/2+y,z
1/2+x,-y,z
loop_
_atom_site_type_symbol
_atom_site_label
_atom_site_fract_x
_atom_site_fract_y
_atom_site_fract_z
Si Si1 0.080144 0.580816 0.245579
Si Si2 0.177851 0.932381 0.445368
Si Si3 0.321963 0.432372 0.945128
Si Si4 0.424772 0.067964 0.358234
Si Si5 0.424368 0.070175 0.857900
O O1 0.110535 0.750000 0.237803
O O2 0.102133 0.511968 0.301622
O O3 0.105893 0.478626 0.197822
O O4 0.000000 0.588066 0.246084
O O5 0.181985 0.750000 0.448783
O O6 0.125201 0.991254 0.402515
O O7 0.153395 0.000000 0.500000
O O8 0.250000 0.000000 0.429895
O O9 0.317322 0.250000 0.948497
O O10 0.250000 0.500000 0.928667
O O11 0.376245 0.490656 0.903290
O O12 0.345235 0.500000 0.000000
O O13 0.500000 0.003954 0.369689
O O14 0.427135 0.250000 0.357133
O O15 0.500000 0.003117 0.866196
O O16 0.426849 0.250000 0.859287
#
# Coordination Sequence:
#
# PCOD8278889 Si02
#       5
#    16  16  16  16  16
#     4   8  14  27  48  71  93 120 154 188 225 272
#     4  10  19  32  49  67  92 124 155 190 231 276
#     4  10  20  34  51  69  93 125 157 191 231 275
#     4   8  15  29  49  71  93 119 153 192 231 270
#     4   9  18  32  49  71  98 124 151 188 233 274
#
# _framework density 17.844594000000001
#
# number of rings (size 3 to 8) (size 9 to 14) (size 15 to 20)
#    0.000    3.000    0.000    3.600    0.000    2.400 
#    0.000    3.000    0.000    9.000    0.000    0.000 
#    0.000    0.000    0.000    0.000    0.000    0.000 
#
# Total GULP energy -495763.698183 kJ/mol
# GULP energy per Si atom -12394.092455 kJ/mol
# Density = 1.780398 g / cm^3
# Si number density = 17.844594 Si / 1000 Ang^3
#
#
#
# Elastic Constant Matrix: (Units=GPa)
#
#
# Indices 1 2 3 4 5 6 
#
# 1 89.5770 23.9699 99.0078 0.0000 0.0000 0.0000
# 2 23.9699 41.1042 33.9288 0.0000 0.0000 0.0000
# 3 99.0078 33.9288 184.9690 0.0000 0.0000 0.0000
# 4 0.0000 0.0000 0.0000 27.8260 0.0000 0.0000
# 5 0.0000 0.0000 0.0000 0.0000 15.2121 0.0000
# 6 0.0000 0.0000 0.0000 0.0000 0.0000 17.5778
#
#
#
# Elastic Compliance Matrix: (Units=1/GPa)
#
#
# Indices 1 2 3 4 5 6 
#
# 1 0.028079 -0.004676 -0.014172 0.000000 0.000000 0.000000
# 2 -0.004676 0.029448 -0.002899 0.000000 0.000000 0.000000
# 3 -0.014172 -0.002899 0.013524 0.000000 0.000000 0.000000
# 4 0.000000 0.000000 0.000000 0.035938 0.000000 0.000000
# 5 0.000000 0.000000 0.000000 0.000000 0.065737 0.000000
# 6 0.000000 0.000000 0.000000 0.000000 0.000000 0.056890
#
#
# Mechanical properties :
#
#
# Convention : Reuss Voigt Hill
#
# Bulk Modulus (GPa) = 36.28825 69.94033 53.11429
# Shear Modulus (GPa) = 17.71201 22.70610 20.20905
#
# Velocity S-wave (km/s) = 3.15393 3.57099 3.36892
# Velocity P-wave (km/s) = 5.80025 7.50212 6.70540
#
# Compressibility (1/GPa) = 0.02755713
#
# Stress axis : x y z
#
# Youngs Moduli (GPa) = 35.61396 33.95820 73.94380
#
# Poissons Ratio (x) = 0.15879 1.04793
# Poissons Ratio (y) = 0.16654 0.21434
# Poissons Ratio (z) = 0.50472 0.09843
#
# Static dielectric constant tensor:
#      x y z
#    x 3.314460 0.000000 0.000000 
#    y 0.000000 3.138380 0.000000 
#    z 0.000000 0.000000 3.711160 
# 
# 
# High freq. dielectric constant tensor:
#      x y z
#    x 1.665960 0.000000 0.000000 
#    y 0.000000 1.672630 0.000000 
#    z 0.000000 0.000000 1.705820 
# 
# From -- ./inp_files/44428.got.cif
#   From: 2010.03.12/outbox.cif.g09.slc.cpg/sg67_23_cif.got.tgz:44428.got - 2010.04.10 22:41:39.
