data_PCOD8278800
_publ_section_title
;
Structure prediction by ZEFSAII (Michael W. Deem and Ramdas Pophale) SiO2 
 PCOD8278800
Probable space group: C M M A
;
_chemical_formula_sum "Si O2"
_cell_formula_units_Z 112
_cell_length_a 16.049173
_cell_length_b 25.542101
_cell_length_c 16.187141
_cell_angle_alpha 90.000000
_cell_angle_beta 90.000000
_cell_angle_gamma 90.000000
_cell_volume 6635.588199
_symmetry_space_group_name_H-M "C M M A"
_symmetry_group_IT_number 67
_symmetry_cell_setting 'orthorhombic'
loop_
_space_group_symop_operation_xyz
x,y,z
-x,1/2-y,z
x,-y,-z
-x,1/2+y,-z
-x,-y,-z
x,1/2+y,-z
-x,y,z
x,1/2-y,z
1/2+x,1/2+y,z
1/2-x,-y,z
1/2+x,1/2-y,-z
1/2-x,y,-z
1/2-x,1/2-y,-z
1/2+x,y,-z
1/2-x,1/2+y,z
1/2+x,-y,z
loop_
_atom_site_type_symbol
_atom_site_label
_atom_site_fract_x
_atom_site_fract_y
_atom_site_fract_z
Si Si1 0.500000 0.188932 0.468723
Si Si2 0.656167 0.152044 0.177737
Si Si3 0.330308 0.687628 0.451573
Si Si4 0.591520 0.623308 0.136026
Si Si5 0.753224 0.060170 0.098468
Si Si6 0.844246 0.690719 0.005447
Si Si7 0.500000 0.312809 0.274743
Si Si8 0.322285 0.310842 0.735710
O O1 0.500000 0.250000 0.487872
O O2 0.583946 0.164725 0.509436
O O3 0.500000 0.177889 0.371951
O O4 0.680152 0.093541 0.144767
O O5 0.626074 0.186248 0.099549
O O6 0.579912 0.155570 0.240988
O O7 0.734612 0.179291 0.220180
O O8 0.330148 0.750000 0.457480
O O9 0.250000 0.665071 0.500000
O O10 0.321304 0.668136 0.357676
O O11 0.500000 0.598256 0.140983
O O12 0.657466 0.576992 0.133155
O O13 0.605116 0.659390 0.215957
O O14 0.596421 0.658016 0.053502
O O15 0.750000 0.000000 0.124430
O O16 0.750000 0.067563 0.000000
O O17 0.846710 0.750000 0.974033
O O18 0.750000 0.668043 0.000000
O O19 0.500000 0.250000 0.254369
O O20 0.343521 0.250000 0.737621
#
# Coordination Sequence:
#
# PCOD8278800 Si02
#       8
#     8  16  16  16  16  16   8  16
#     4   9  18  32  46  67 103 141 175 205 241 298
#     4  11  20  34  49  74 103 134 181 215 250 306
#     4   9  17  29  46  67  96 137 179 208 241 294
#     4  11  22  34  49  76 103 129 176 217 250 304
#     4  10  20  40  58  70  95 135 173 219 275 310
#     4  11  19  31  47  66 101 145 172 200 240 291
#     4  11  22  32  50  78 111 143 171 213 252 298
#     4  10  19  31  49  71 104 145 173 204 252 298
#
# _framework density 16.878684
#
# number of rings (size 3 to 8) (size 9 to 14) (size 15 to 20)
#    0.000    1.714    4.286    2.571    2.000    3.429 
#    1.286    0.714    0.000    0.000    0.000    0.000 
#    0.000   41.143    0.000    0.000    0.000    0.000 
#
# Total GULP energy -694259.589641 kJ/mol
# GULP energy per Si atom -12397.492672 kJ/mol
# Density = 1.684027 g / cm^3
# Si number density = 16.878684 Si / 1000 Ang^3
#
#
#
# Elastic Constant Matrix: (Units=GPa)
#
#
# Indices 1 2 3 4 5 6 
#
# 1 107.6342 32.3972 43.1518 0.0000 0.0000 0.0000
# 2 32.3972 80.1630 28.5764 0.0000 0.0000 0.0000
# 3 43.1518 28.5764 122.5690 0.0000 0.0000 0.0000
# 4 0.0000 0.0000 0.0000 5.7290 0.0000 0.0000
# 5 0.0000 0.0000 0.0000 0.0000 12.8056 0.0000
# 6 0.0000 0.0000 0.0000 0.0000 0.0000 7.7644
#
#
#
# Elastic Compliance Matrix: (Units=1/GPa)
#
#
# Indices 1 2 3 4 5 6 
#
# 1 0.011675 -0.003548 -0.003283 0.000000 0.000000 0.000000
# 2 -0.003548 0.014684 -0.002174 0.000000 0.000000 0.000000
# 3 -0.003283 -0.002174 0.009821 0.000000 0.000000 0.000000
# 4 0.000000 0.000000 0.000000 0.174549 0.000000 0.000000
# 5 0.000000 0.000000 0.000000 0.000000 0.078091 0.000000
# 6 0.000000 0.000000 0.000000 0.000000 0.000000 0.128792
#
#
# Mechanical properties :
#
#
# Convention : Reuss Voigt Hill
#
# Bulk Modulus (GPa) = 55.03824 57.62411 56.33117
# Shear Modulus (GPa) = 11.32044 19.00922 15.16483
#
# Velocity S-wave (km/s) = 2.59259 3.35957 3.00069
# Velocity P-wave (km/s) = 6.45298 7.01878 6.74182
#
# Compressibility (1/GPa) = 0.01816919
#
# Stress axis : x y z
#
# Youngs Moduli (GPa) = 85.65413 68.10345 101.81810
#
# Poissons Ratio (x) = 0.24163 0.33428
# Poissons Ratio (y) = 0.30390 0.22138
# Poissons Ratio (z) = 0.28121 0.14808
#
# Static dielectric constant tensor:
#      x y z
#    x 3.224660 0.000000 0.000000 
#    y 0.000000 2.833370 0.000000 
#    z 0.000000 0.000000 3.299100 
# 
# 
# High freq. dielectric constant tensor:
#      x y z
#    x 1.654820 0.000000 0.000000 
#    y 0.000000 1.601320 0.000000 
#    z 0.000000 0.000000 1.658250 
# 
# From -- ./inp_files/27783.got.cif
#   From: 2010.03.12/outbox.cif.g09.slc.cpg/sg67_14_cif.got.tgz:27783.got - 2010.04.10 22:41:39.
