data_PCOD8278718
_publ_section_title
;
Structure prediction by ZEFSAII (Michael W. Deem and Ramdas Pophale) SiO2 
 PCOD8278718
Probable space group: C M M A
;
_chemical_formula_sum "Si O2"
_cell_formula_units_Z 104
_cell_length_a 26.930121
_cell_length_b 8.938434
_cell_length_c 20.675860
_cell_angle_alpha 90.000000
_cell_angle_beta 90.000000
_cell_angle_gamma 90.000000
_cell_volume 4976.950545
_symmetry_space_group_name_H-M "C M M A"
_symmetry_group_IT_number 67
_symmetry_cell_setting 'orthorhombic'
loop_
_space_group_symop_operation_xyz
x,y,z
-x,1/2-y,z
x,-y,-z
-x,1/2+y,-z
-x,-y,-z
x,1/2+y,-z
-x,y,z
x,1/2-y,z
1/2+x,1/2+y,z
1/2-x,-y,z
1/2+x,1/2-y,-z
1/2-x,y,-z
1/2-x,1/2-y,-z
1/2+x,y,-z
1/2-x,1/2+y,z
1/2+x,-y,z
loop_
_atom_site_type_symbol
_atom_site_label
_atom_site_fract_x
_atom_site_fract_y
_atom_site_fract_z
Si Si1 0.443058 0.417879 0.736410
Si Si2 0.500000 0.427832 0.069654
Si Si3 0.598639 0.925500 0.853530
Si Si4 0.800919 0.075500 0.319969
Si Si5 0.946212 0.084466 0.607541
Si Si6 0.302726 0.925502 0.170306
Si Si7 0.844581 0.582038 0.437998
O O1 0.500000 0.423144 0.758218
O O2 0.421153 0.250000 0.745538
O O3 0.412549 0.533478 0.779656
O O4 0.436510 0.461480 0.662350
O O5 0.500000 0.250000 0.065212
O O6 0.448813 0.481764 0.104387
O O7 0.500000 0.500000 0.000000
O O8 0.606815 0.750000 0.861550
O O9 0.651280 0.006147 0.871637
O O10 0.797474 0.250000 0.333346
O O11 0.814712 0.041170 0.245726
O O12 0.750000 0.000000 0.339502
O O13 0.839103 0.002102 0.369723
O O14 0.945638 0.250000 0.640231
O O15 0.904200 0.079653 0.552325
O O16 0.000000 0.054381 0.575008
O O17 0.298410 0.750000 0.156010
O O18 0.250000 0.000000 0.150624
O O19 0.819927 0.500000 0.500000
O O20 0.822918 0.750000 0.434793
#
# Coordination Sequence:
#
# PCOD8278718 Si02
#       7
#    16   8  16  16  16  16  16
#     4  10  19  30  49  80 112 143 183 232 288 347
#     4  10  24  42  62  90 126 170 213 250 293 338
#     4  11  21  36  58  86 122 162 202 245 292 347
#     4  10  21  38  59  82 110 139 177 225 281 342
#     4   9  19  35  53  73 101 138 177 223 280 342
#     4  10  21  37  60  92 124 157 194 240 298 355
#     4  11  23  37  53  73  99 135 181 229 281 339
#
# _framework density 20.896331
#
# number of rings (size 3 to 8) (size 9 to 14) (size 15 to 20)
#    0.000    1.846    0.769    3.231    0.000    8.000 
#    0.000    1.538    0.000    0.462    0.000    3.231 
#    0.000    0.000    0.000    0.000    0.000    0.000 
#
# Total GULP energy -644446.183966 kJ/mol
# GULP energy per Si atom -12393.195846 kJ/mol
# Density = 2.084877 g / cm^3
# Si number density = 20.896331 Si / 1000 Ang^3
#
#
#
# Elastic Constant Matrix: (Units=GPa)
#
#
# Indices 1 2 3 4 5 6 
#
# 1 136.7148 54.5343 35.7739 0.0000 0.0000 0.0000
# 2 54.5343 107.8270 26.1388 0.0000 0.0000 0.0000
# 3 35.7739 26.1388 36.6023 0.0000 0.0000 0.0000
# 4 0.0000 0.0000 0.0000 25.2343 0.0000 0.0000
# 5 0.0000 0.0000 0.0000 0.0000 16.7656 0.0000
# 6 0.0000 0.0000 0.0000 0.0000 0.0000 33.2338
#
#
#
# Elastic Compliance Matrix: (Units=1/GPa)
#
#
# Indices 1 2 3 4 5 6 
#
# 1 0.010831 -0.003521 -0.008071 0.000000 0.000000 0.000000
# 2 -0.003521 0.012361 -0.005385 0.000000 0.000000 0.000000
# 3 -0.008071 -0.005385 0.039055 0.000000 0.000000 0.000000
# 4 0.000000 0.000000 0.000000 0.039629 0.000000 0.000000
# 5 0.000000 0.000000 0.000000 0.000000 0.059646 0.000000
# 6 0.000000 0.000000 0.000000 0.000000 0.000000 0.030090
#
#
# Mechanical properties :
#
#
# Convention : Reuss Voigt Hill
#
# Bulk Modulus (GPa) = 35.34716 57.11533 46.23124
# Shear Modulus (GPa) = 21.27678 26.02652 23.65165
#
# Velocity S-wave (km/s) = 3.19440 3.53300 3.36796
# Velocity P-wave (km/s) = 5.52791 6.63588 6.10707
#
# Compressibility (1/GPa) = 0.02829082
#
# Stress axis : x y z
#
# Youngs Moduli (GPa) = 92.32648 80.90247 25.60472
#
# Poissons Ratio (x) = 0.28488 0.20666
# Poissons Ratio (y) = 0.32511 0.13789
# Poissons Ratio (z) = 0.74520 0.43570
#
# Static dielectric constant tensor:
#      x y z
#    x 4.071910 0.000000 0.000000 
#    y 0.000000 3.852460 0.000000 
#    z 0.000000 0.000000 3.249550 
# 
# 
# High freq. dielectric constant tensor:
#      x y z
#    x 1.838250 0.000000 0.000000 
#    y 0.000000 1.825740 0.000000 
#    z 0.000000 0.000000 1.765760 
# 
# From -- ./inp_files/39988.got.cif
#   From: 2010.03.12/outbox.cif.g09.slc.cpg/sg67_20_cif.got.tgz:39988.got - 2010.04.10 22:41:39.
