data_PCOD8278454
_publ_section_title
;
Structure prediction by ZEFSAII (Michael W. Deem and Ramdas Pophale) SiO2 
 PCOD8278454
Probable space group: C M M A
;
_chemical_formula_sum "Si O2"
_cell_formula_units_Z 96
_cell_length_a 28.475144
_cell_length_b 17.646697
_cell_length_c 10.390146
_cell_angle_alpha 90.000000
_cell_angle_beta 90.000000
_cell_angle_gamma 90.000000
_cell_volume 5220.967719
_symmetry_space_group_name_H-M "C M M A"
_symmetry_group_IT_number 67
_symmetry_cell_setting 'orthorhombic'
loop_
_space_group_symop_operation_xyz
x,y,z
-x,1/2-y,z
x,-y,-z
-x,1/2+y,-z
-x,-y,-z
x,1/2+y,-z
-x,y,z
x,1/2-y,z
1/2+x,1/2+y,z
1/2-x,-y,z
1/2+x,1/2-y,-z
1/2-x,y,-z
1/2-x,1/2-y,-z
1/2+x,y,-z
1/2-x,1/2+y,z
1/2+x,-y,z
loop_
_atom_site_type_symbol
_atom_site_label
_atom_site_fract_x
_atom_site_fract_y
_atom_site_fract_z
Si Si1 0.894374 0.160051 0.252644
Si Si2 0.554674 0.913649 0.492080
Si Si3 0.402295 0.840216 0.737053
Si Si4 0.202416 0.660262 0.650636
Si Si5 0.553191 0.340248 0.998882
Si Si6 0.304417 0.340000 0.361547
O O1 0.899405 0.250000 0.258760
O O2 0.918640 0.127592 0.378032
O O3 0.839239 0.135141 0.252782
O O4 0.918517 0.127578 0.124015
O O5 0.500000 0.908268 0.460967
O O6 0.564720 0.872638 0.626260
O O7 0.571823 0.000000 0.500000
O O8 0.404949 0.750000 0.730044
O O9 0.421399 0.870839 0.873085
O O10 0.348618 0.870272 0.720807
O O11 0.204465 0.750000 0.642190
O O12 0.254136 0.631111 0.696426
O O13 0.190876 0.629394 0.507526
O O14 0.500000 0.371279 0.994043
O O15 0.553372 0.250000 0.997680
O O16 0.305870 0.250000 0.360691
#
# Coordination Sequence:
#
# PCOD8278454 Si02
#       6
#    16  16  16  16  16  16
#     4  10  18  32  53  74  96 130 167 198 241 293
#     4  11  23  35  48  71 100 126 161 211 252 285
#     4  10  18  32  53  74  96 130 167 198 241 293
#     4   8  13  23  43  72 100 123 153 197 244 286
#     4   9  18  30  46  72 102 127 161 209 246 279
#     4   8  13  23  43  72 100 123 153 197 244 286
#
# _framework density 18.387395999999999
#
# number of rings (size 3 to 8) (size 9 to 14) (size 15 to 20)
#    0.000    2.667    1.667    2.500    0.000    2.667 
#    0.000    1.667    0.000   10.000    0.000    0.000 
#    0.000    2.667    0.000    0.000    0.000    0.000 
#
# Total GULP energy -594867.476713 kJ/mol
# GULP energy per Si atom -12393.072432 kJ/mol
# Density = 1.834555 g / cm^3
# Si number density = 18.387396 Si / 1000 Ang^3
#
#
#
# Elastic Constant Matrix: (Units=GPa)
#
#
# Indices 1 2 3 4 5 6 
#
# 1 142.9803 12.2807 55.0304 0.0000 0.0000 0.0000
# 2 12.2807 18.5841 13.1814 0.0000 0.0000 0.0000
# 3 55.0304 13.1814 110.6705 0.0000 0.0000 0.0000
# 4 0.0000 0.0000 0.0000 0.2225 0.0000 0.0000
# 5 0.0000 0.0000 0.0000 0.0000 31.5257 0.0000
# 6 0.0000 0.0000 0.0000 0.0000 0.0000 3.8433
#
#
#
# Elastic Compliance Matrix: (Units=1/GPa)
#
#
# Indices 1 2 3 4 5 6 
#
# 1 0.008796 -0.002960 -0.004021 0.000000 0.000000 0.000000
# 2 -0.002960 0.059771 -0.005647 0.000000 0.000000 0.000000
# 3 -0.004021 -0.005647 0.011708 0.000000 0.000000 0.000000
# 4 0.000000 0.000000 0.000000 4.494808 0.000000 0.000000
# 5 0.000000 0.000000 0.000000 0.000000 0.031720 0.000000
# 6 0.000000 0.000000 0.000000 0.000000 0.000000 0.260196
#
#
# Mechanical properties :
#
#
# Convention : Reuss Voigt Hill
#
# Bulk Modulus (GPa) = 18.17591 48.13554 33.15573
# Shear Modulus (GPa) = 1.01821 19.90111 10.45966
#
# Velocity S-wave (km/s) = 0.74495 3.29344 2.38764
# Velocity P-wave (km/s) = 3.26288 6.37947 5.06676
#
# Compressibility (1/GPa) = 0.05501789
#
# Stress axis : x y z
#
# Youngs Moduli (GPa) = 113.68949 16.73050 85.41243
#
# Poissons Ratio (x) = 0.04953 0.34345
# Poissons Ratio (y) = 0.33656 0.48232
# Poissons Ratio (z) = 0.45716 0.09448
#
# Static dielectric constant tensor:
#      x y z
#    x 4.027480 0.000000 0.000000 
#    y 0.000000 2.891200 0.000000 
#    z 0.000000 0.000000 3.407190 
# 
# 
# High freq. dielectric constant tensor:
#      x y z
#    x 1.738190 0.000000 0.000000 
#    y 0.000000 1.653910 0.000000 
#    z 0.000000 0.000000 1.696560 
# 
# From -- ./inp_files/22927.got.cif
#   From: 2010.03.12/outbox.cif.g09.slc.cpg/sg67_12_cif.got.tgz:22927.got - 2010.04.10 22:41:39.
