data_PCOD8278594
_publ_section_title
;
Structure prediction by ZEFSAII (Michael W. Deem and Ramdas Pophale) SiO2 
 PCOD8278594
Probable space group: C M M A
;
_chemical_formula_sum "Si O2"
_cell_formula_units_Z 96
_cell_length_a 8.912059
_cell_length_b 27.001430
_cell_length_c 23.756777
_cell_angle_alpha 90.000000
_cell_angle_beta 90.000000
_cell_angle_gamma 90.000000
_cell_volume 5716.791316
_symmetry_space_group_name_H-M "C M M A"
_symmetry_group_IT_number 67
_symmetry_cell_setting 'orthorhombic'
loop_
_space_group_symop_operation_xyz
x,y,z
-x,1/2-y,z
x,-y,-z
-x,1/2+y,-z
-x,-y,-z
x,1/2+y,-z
-x,y,z
x,1/2-y,z
1/2+x,1/2+y,z
1/2-x,-y,z
1/2+x,1/2-y,-z
1/2-x,y,-z
1/2-x,1/2-y,-z
1/2+x,y,-z
1/2-x,1/2+y,z
1/2+x,-y,z
loop_
_atom_site_type_symbol
_atom_site_label
_atom_site_fract_x
_atom_site_fract_y
_atom_site_fract_z
Si Si1 0.821970 0.897058 0.058444
Si Si2 0.825457 0.550127 0.837840
Si Si3 0.673968 0.306702 0.888864
Si Si4 0.829179 0.147705 0.228241
Si Si5 0.668837 0.691027 0.444770
Si Si6 0.824169 0.306403 0.667986
O O1 0.758549 0.933398 0.105740
O O2 0.775579 0.840281 0.070882
O O3 0.000000 0.901297 0.055592
O O4 0.750000 0.914339 0.000000
O O5 0.750000 0.500000 0.815245
O O6 0.804423 0.590799 0.789175
O O7 0.000000 0.542198 0.851781
O O8 0.500000 0.320675 0.899310
O O9 0.708463 0.250000 0.903585
O O10 0.714007 0.316823 0.823835
O O11 0.721115 0.159622 0.279759
O O12 0.000000 0.157517 0.246972
O O13 0.500000 0.670976 0.444511
O O14 0.674766 0.750000 0.446477
O O15 0.750000 0.669119 0.500000
O O16 0.749550 0.671822 0.388434
O O17 0.770855 0.250000 0.679274
O O18 0.000000 0.308991 0.659024
#
# Coordination Sequence:
#
# PCOD8278594 Si02
#       6
#    16  16  16  16  16  16
#     4  11  22  36  53  73  97 123 154 191 230 276
#     4  10  21  38  57  76  96 119 149 187 236 288
#     4   9  18  33  51  70  95 127 160 194 233 276
#     4   9  18  32  49  69  94 122 153 190 231 277
#     4   9  16  26  40  58  85 123 164 202 238 274
#     4  10  19  28  41  65  96 129 165 200 231 268
#
# _framework density 16.792638
#
# number of rings (size 3 to 8) (size 9 to 14) (size 15 to 20)
#    0.000    2.333    0.000    4.500    0.000    8.000 
#    0.000    1.667    0.000    0.000    0.000    0.000 
#    0.000    0.667    0.000    7.000    0.000    4.167 
#
# Total GULP energy -595308.808349 kJ/mol
# GULP energy per Si atom -12402.266841 kJ/mol
# Density = 1.675442 g / cm^3
# Si number density = 16.792638 Si / 1000 Ang^3
#
#
#
# Elastic Constant Matrix: (Units=GPa)
#
#
# Indices 1 2 3 4 5 6 
#
# 1 116.4165 29.7456 52.8876 0.0000 0.0000 0.0000
# 2 29.7456 59.5987 19.3236 0.0000 0.0000 0.0000
# 3 52.8876 19.3236 99.5657 0.0000 0.0000 0.0000
# 4 0.0000 0.0000 0.0000 11.2400 0.0000 0.0000
# 5 0.0000 0.0000 0.0000 0.0000 34.6393 0.0000
# 6 0.0000 0.0000 0.0000 0.0000 0.0000 25.6507
#
#
#
# Elastic Compliance Matrix: (Units=1/GPa)
#
#
# Indices 1 2 3 4 5 6 
#
# 1 0.012266 -0.004279 -0.005685 0.000000 0.000000 0.000000
# 2 -0.004279 0.019398 -0.001492 0.000000 0.000000 0.000000
# 3 -0.005685 -0.001492 0.013353 0.000000 0.000000 0.000000
# 4 0.000000 0.000000 0.000000 0.088968 0.000000 0.000000
# 5 0.000000 0.000000 0.000000 0.000000 0.028869 0.000000
# 6 0.000000 0.000000 0.000000 0.000000 0.000000 0.038985
#
#
# Mechanical properties :
#
#
# Convention : Reuss Voigt Hill
#
# Bulk Modulus (GPa) = 45.23746 53.27718 49.25732
# Shear Modulus (GPa) = 21.54073 25.88095 23.71084
#
# Velocity S-wave (km/s) = 3.58543 3.93008 3.76171
# Velocity P-wave (km/s) = 6.64363 7.23806 6.94720
#
# Compressibility (1/GPa) = 0.02210557
#
# Stress axis : x y z
#
# Youngs Moduli (GPa) = 81.52805 51.55145 74.88984
#
# Poissons Ratio (x) = 0.22057 0.42575
# Poissons Ratio (y) = 0.34882 0.11174
# Poissons Ratio (z) = 0.46348 0.07692
#
# Static dielectric constant tensor:
#      x y z
#    x 3.208570 0.000000 0.000000 
#    y 0.000000 2.940260 0.000000 
#    z 0.000000 0.000000 3.095600 
# 
# 
# High freq. dielectric constant tensor:
#      x y z
#    x 1.659530 0.000000 0.000000 
#    y 0.000000 1.611500 0.000000 
#    z 0.000000 0.000000 1.642430 
# 
# From -- ./inp_files/37174.got.cif
#   From: 2010.03.12/outbox.cif.g09.slc.cpg/sg67_19_cif.got.tgz:37174.got - 2010.04.10 22:41:39.
