data_PCOD8278943
_publ_section_title
;
Structure prediction by ZEFSAII (Michael W. Deem and Ramdas Pophale) SiO2 
 PCOD8278943
Probable space group: C M M A
;
_chemical_formula_sum "Si O2"
_cell_formula_units_Z 80
_cell_length_a 8.978233
_cell_length_b 18.605068
_cell_length_c 26.069743
_cell_angle_alpha 90.000000
_cell_angle_beta 90.000000
_cell_angle_gamma 90.000000
_cell_volume 4354.706438
_symmetry_space_group_name_H-M "C M M A"
_symmetry_group_IT_number 67
_symmetry_cell_setting 'orthorhombic'
loop_
_space_group_symop_operation_xyz
x,y,z
-x,1/2-y,z
x,-y,-z
-x,1/2+y,-z
-x,-y,-z
x,1/2+y,-z
-x,y,z
x,1/2-y,z
1/2+x,1/2+y,z
1/2-x,-y,z
1/2+x,1/2-y,-z
1/2-x,y,-z
1/2-x,1/2-y,-z
1/2+x,y,-z
1/2-x,1/2+y,z
1/2+x,-y,z
loop_
_atom_site_type_symbol
_atom_site_label
_atom_site_fract_x
_atom_site_fract_y
_atom_site_fract_z
Si Si1 0.664221 0.835525 0.548513
Si Si2 0.677770 0.830258 0.660178
Si Si3 0.677313 0.077102 0.244681
Si Si4 0.677802 0.575946 0.947242
Si Si5 0.176214 0.169780 0.850936
O O1 0.500000 0.868645 0.545642
O O2 0.658247 0.750000 0.544121
O O3 0.750000 0.869280 0.500000
O O4 0.737487 0.855366 0.603896
O O5 0.500000 0.828165 0.658342
O O6 0.736513 0.750000 0.673316
O O7 0.734777 0.885156 0.703243
O O8 0.500000 0.069478 0.243818
O O9 0.736556 0.124389 0.197152
O O10 0.750000 0.000000 0.240374
O O11 0.500000 0.567664 0.952866
O O12 0.750000 0.500000 0.932158
O O13 0.724220 0.632321 0.903753
O O14 0.750000 0.604333 0.000000
O O15 0.244922 0.250000 0.849406
O O16 0.000000 0.174351 0.847143
#
# Coordination Sequence:
#
# PCOD8278943 Si02
#       5
#    16  16  16  16  16
#     4   8  13  22  38  62  89 114 144 183 225 268
#     4   8  14  26  46  69  90 117 155 192 224 267
#     4  10  19  32  51  71  93 121 153 191 233 278
#     4  10  19  32  51  73  99 129 160 193 228 272
#     4   9  18  32  51  74  96 121 157 197 233 272
#
# _framework density 18.370927999999999
#
# number of rings (size 3 to 8) (size 9 to 14) (size 15 to 20)
#    0.000    3.000    0.000    3.600    0.000    2.800 
#    0.000    2.000    0.000    8.400    0.000    4.200 
#    0.000    0.000    0.000    0.000    0.000    0.000 
#
# Total GULP energy -495747.322995 kJ/mol
# GULP energy per Si atom -12393.683075 kJ/mol
# Density = 1.832912 g / cm^3
# Si number density = 18.370928 Si / 1000 Ang^3
#
#
#
# Elastic Constant Matrix: (Units=GPa)
#
#
# Indices 1 2 3 4 5 6 
#
# 1 40.7273 25.7279 37.7210 0.0000 0.0000 0.0000
# 2 25.7279 126.1934 100.3267 0.0000 0.0000 0.0000
# 3 37.7210 100.3267 192.5023 0.0000 0.0000 0.0000
# 4 0.0000 0.0000 0.0000 18.6468 0.0000 0.0000
# 5 0.0000 0.0000 0.0000 0.0000 22.6044 0.0000
# 6 0.0000 0.0000 0.0000 0.0000 0.0000 19.8783
#
#
#
# Elastic Compliance Matrix: (Units=1/GPa)
#
#
# Indices 1 2 3 4 5 6 
#
# 1 0.030453 -0.002501 -0.004664 0.000000 0.000000 0.000000
# 2 -0.002501 0.013736 -0.006669 0.000000 0.000000 0.000000
# 3 -0.004664 -0.006669 0.009584 0.000000 0.000000 0.000000
# 4 0.000000 0.000000 0.000000 0.053629 0.000000 0.000000
# 5 0.000000 0.000000 0.000000 0.000000 0.044239 0.000000
# 6 0.000000 0.000000 0.000000 0.000000 0.000000 0.050306
#
#
# Mechanical properties :
#
#
# Convention : Reuss Voigt Hill
#
# Bulk Modulus (GPa) = 38.30490 76.33047 57.31769
# Shear Modulus (GPa) = 20.98053 25.26906 23.12480
#
# Velocity S-wave (km/s) = 3.38309 3.71279 3.55177
# Velocity P-wave (km/s) = 6.01303 7.74723 6.93455
#
# Compressibility (1/GPa) = 0.02610632
#
# Stress axis : x y z
#
# Youngs Moduli (GPa) = 32.83744 72.80115 104.33764
#
# Poissons Ratio (x) = 0.18205 0.48663
# Poissons Ratio (y) = 0.08212 0.69581
# Poissons Ratio (z) = 0.15316 0.48550
#
# Static dielectric constant tensor:
#      x y z
#    x 3.059350 0.000000 0.000000 
#    y 0.000000 3.244320 0.000000 
#    z 0.000000 0.000000 3.826760 
# 
# 
# High freq. dielectric constant tensor:
#      x y z
#    x 1.668030 0.000000 0.000000 
#    y 0.000000 1.689130 0.000000 
#    z 0.000000 0.000000 1.736490 
# 
# From -- ./inp_files/43246.got.cif
#   From: 2010.03.12/outbox.cif.g09.slc.cpg/sg67_22_cif.got.tgz:43246.got - 2010.04.10 22:41:39.
