data_PCOD8278144
_publ_section_title
;
Structure prediction by ZEFSAII (Michael W. Deem and Ramdas Pophale) SiO2 
 PCOD8278144
Probable space group: C M M A
;
_chemical_formula_sum "Si O2"
_cell_formula_units_Z 112
_cell_length_a 14.629409
_cell_length_b 14.374697
_cell_length_c 25.497775
_cell_angle_alpha 90.000000
_cell_angle_beta 90.000000
_cell_angle_gamma 90.000000
_cell_volume 5362.011800
_symmetry_space_group_name_H-M "C M M A"
_symmetry_group_IT_number 67
_symmetry_cell_setting 'orthorhombic'
loop_
_space_group_symop_operation_xyz
x,y,z
-x,1/2-y,z
x,-y,-z
-x,1/2+y,-z
-x,-y,-z
x,1/2+y,-z
-x,y,z
x,1/2-y,z
1/2+x,1/2+y,z
1/2-x,-y,z
1/2+x,1/2-y,-z
1/2-x,y,-z
1/2-x,1/2-y,-z
1/2+x,y,-z
1/2-x,1/2+y,z
1/2+x,-y,z
loop_
_atom_site_type_symbol
_atom_site_label
_atom_site_fract_x
_atom_site_fract_y
_atom_site_fract_z
Si Si1 0.101431 0.889649 0.557634
Si Si2 0.750000 0.645381 0.755963
Si Si3 0.610766 0.500000 0.202160
Si Si4 0.250000 0.610615 0.637218
Si Si5 0.608808 0.646765 0.000000
Si Si6 0.398569 0.110351 0.442365
Si Si7 0.392185 0.500000 0.917971
O O1 0.163547 0.851728 0.604482
O O2 0.135398 0.855748 0.500000
O O3 0.000000 0.851707 0.567996
O O4 0.103460 1.000000 0.558227
O O5 0.750000 0.750000 0.780077
O O6 0.657074 0.591637 0.772785
O O7 0.842926 0.591637 0.772785
O O8 0.750000 0.657086 0.693630
O O9 0.500000 0.500000 0.210666
O O10 0.641051 0.500000 0.141519
O O11 0.250000 0.500000 0.644068
O O12 0.336453 0.648272 0.604482
O O13 0.500000 0.652011 0.000000
O O14 0.651673 0.750000 0.000000
O O15 0.643677 0.592053 0.051817
O O16 0.643677 0.592054 0.948183
O O17 0.500000 0.148293 0.432004
O O18 0.500000 0.500000 0.920087
#
# Coordination Sequence:
#
# PCOD8278144 Si02
#       7
#    16  16  16  16  16  16  16
#     4   8  14  24  43  75 109 140 179 227 282 352
#     4  11  25  43  60  88 121 155 207 266 311 356
#     4  10  22  43  66  88 118 162 209 256 308 358
#     4  10  17  31  51  76 104 150 191 235 295 354
#     4   8  13  23  44  81 123 153 184 233 289 350
#     4   8  14  24  43  75 109 140 179 227 282 352
#     4   8  15  28  50  81 116 153 195 239 289 352
#
# _framework density 20.887682999999999
#
# number of rings (size 3 to 8) (size 9 to 14) (size 15 to 20)
#    0.000    3.000    1.429    2.143    0.000    4.571 
#    0.000    2.857    0.000    8.571    0.000   10.000 
#    0.000    0.000    0.000    0.000    0.000    0.000 
#
# Total GULP energy -693846.960617 kJ/mol
# GULP energy per Si atom -12390.124297 kJ/mol
# Density = 2.084014 g / cm^3
# Si number density = 20.887683 Si / 1000 Ang^3
#
#
#
# Elastic Constant Matrix: (Units=GPa)
#
#
# Indices 1 2 3 4 5 6 
#
# 1 112.0103 32.6999 54.0474 0.0000 0.0000 0.0000
# 2 32.6999 140.8908 44.7020 0.0000 0.0000 0.0000
# 3 54.0474 44.7020 172.1542 0.0000 0.0000 0.0000
# 4 0.0000 0.0000 0.0000 -15.9139 0.0000 0.0000
# 5 0.0000 0.0000 0.0000 0.0000 -12.7926 0.0000
# 6 0.0000 0.0000 0.0000 0.0000 0.0000 -8.3471
#
#
#
# Elastic Compliance Matrix: (Units=1/GPa)
#
#
# Indices 1 2 3 4 5 6 
#
# 1 0.010829 -0.001563 -0.002994 0.000000 0.000000 0.000000
# 2 -0.001563 0.007961 -0.001576 0.000000 0.000000 0.000000
# 3 -0.002994 -0.001576 0.007158 0.000000 0.000000 0.000000
# 4 0.000000 0.000000 0.000000 -0.062838 0.000000 0.000000
# 5 0.000000 0.000000 0.000000 0.000000 -0.078170 0.000000
# 6 0.000000 0.000000 0.000000 0.000000 0.000000 -0.119802
#
#
# Mechanical properties :
#
#
# Convention : Reuss Voigt Hill
#
# Bulk Modulus (GPa) = 73.09658 76.43933 74.76796
# Shear Modulus (GPa) = -22.93198 12.16300 -5.38449
#
# Velocity S-wave (km/s) = -3.31701 2.41572 -1.60730
# Velocity P-wave (km/s) = 4.51674 6.66752 5.69459
#
# Compressibility (1/GPa) = 0.01368053
#
# Stress axis : x y z
#
# Youngs Moduli (GPa) = 92.34728 125.61748 139.70579
#
# Poissons Ratio (x) = 0.19639 0.41823
# Poissons Ratio (y) = 0.14438 0.22021
# Poissons Ratio (z) = 0.27646 0.19801
#
# Static dielectric constant tensor:
#      x y z
#    x 3.832030 0.000000 0.000000 
#    y 0.000000 3.679600 0.000000 
#    z 0.000000 0.000000 4.077770 
# 
# 
# High freq. dielectric constant tensor:
#      x y z
#    x 1.810080 0.000000 0.000000 
#    y 0.000000 1.808820 0.000000 
#    z 0.000000 0.000000 1.815170 
# 
# From -- ./inp_files/41952.got.cif
#   From: 2010.03.12/outbox.cif.g09.slc.cpg/sg67_21_cif.got.tgz:41952.got - 2010.04.10 22:41:39.
