data_PCOD8278959
_publ_section_title
;
Structure prediction by ZEFSAII (Michael W. Deem and Ramdas Pophale) SiO2 
 PCOD8278959
Probable space group: C M M A
;
_chemical_formula_sum "Si O2"
_cell_formula_units_Z 112
_cell_length_a 21.837213
_cell_length_b 25.754339
_cell_length_c 10.918916
_cell_angle_alpha 90.000000
_cell_angle_beta 90.000000
_cell_angle_gamma 90.000000
_cell_volume 6140.830967
_symmetry_space_group_name_H-M "C M M A"
_symmetry_group_IT_number 67
_symmetry_cell_setting 'orthorhombic'
loop_
_space_group_symop_operation_xyz
x,y,z
-x,1/2-y,z
x,-y,-z
-x,1/2+y,-z
-x,-y,-z
x,1/2+y,-z
-x,y,z
x,1/2-y,z
1/2+x,1/2+y,z
1/2-x,-y,z
1/2+x,1/2-y,-z
1/2-x,y,-z
1/2-x,1/2-y,-z
1/2+x,y,-z
1/2-x,1/2+y,z
1/2+x,-y,z
loop_
_atom_site_type_symbol
_atom_site_label
_atom_site_fract_x
_atom_site_fract_y
_atom_site_fract_z
Si Si1 0.930959 0.689434 0.528977
Si Si2 0.681270 0.979936 0.626218
Si Si3 0.671375 0.859468 0.069551
Si Si4 0.568214 0.807013 0.187654
Si Si5 0.215095 0.690423 0.166298
Si Si6 0.810983 0.639893 0.416057
Si Si7 0.317855 0.478030 0.877414
O O1 0.918444 0.750000 0.502161
O O2 0.930180 0.677019 0.671686
O O3 0.875558 0.655134 0.476845
O O4 0.000000 0.674905 0.478845
O O5 0.681165 0.918081 0.633393
O O6 0.648431 0.000000 0.500000
O O7 0.750000 0.000000 0.622658
O O8 0.649214 0.003898 0.749689
O O9 0.601830 0.849388 0.105364
O O10 0.712816 0.819467 0.147637
O O11 0.688503 0.916769 0.111013
O O12 0.679826 0.849041 0.925125
O O13 0.500000 0.806768 0.136914
O O14 0.597575 0.750000 0.169981
O O15 0.198870 0.750000 0.135526
O O16 0.196976 0.679176 0.304529
O O17 0.750000 0.644662 0.500000
O O18 0.250000 0.500000 0.873615
O O19 0.352107 0.500000 0.000000
#
# Coordination Sequence:
#
# PCOD8278959 Si02
#       7
#    16  16  16  16  16  16  16
#     4   9  20  37  55  78 112 149 182 224 277 336
#     4  10  19  33  49  78 110 140 179 240 282 319
#     4  11  20  34  56  76 110 144 176 225 280 328
#     4   9  18  34  56  79 102 136 184 225 264 325
#     4  11  22  33  49  82 117 142 175 227 282 332
#     4  12  22  34  57  82 111 149 192 228 278 339
#     4  10  19  32  51  74 104 141 182 219 273 340
#
# _framework density 18.238574
#
# number of rings (size 3 to 8) (size 9 to 14) (size 15 to 20)
#    0.000    1.714    1.429    8.143    2.000    2.286 
#    0.000    0.714    0.000    4.286    0.000    0.000 
#    0.000    0.000    0.000    0.000    0.000    0.000 
#
# Total GULP energy -693933.633170 kJ/mol
# GULP energy per Si atom -12391.672021 kJ/mol
# Density = 1.819706 g / cm^3
# Si number density = 18.238574 Si / 1000 Ang^3
#
#
#
# Elastic Constant Matrix: (Units=GPa)
#
#
# Indices 1 2 3 4 5 6 
#
# 1 82.1838 39.1126 39.5892 0.0000 0.0000 0.0000
# 2 39.1126 121.4684 50.6418 0.0000 0.0000 0.0000
# 3 39.5892 50.6418 120.4298 0.0000 0.0000 0.0000
# 4 0.0000 0.0000 0.0000 34.9206 0.0000 0.0000
# 5 0.0000 0.0000 0.0000 0.0000 15.7857 0.0000
# 6 0.0000 0.0000 0.0000 0.0000 0.0000 16.3685
#
#
#
# Elastic Compliance Matrix: (Units=1/GPa)
#
#
# Indices 1 2 3 4 5 6 
#
# 1 0.015593 -0.003497 -0.003655 0.000000 0.000000 0.000000
# 2 -0.003497 0.010767 -0.003378 0.000000 0.000000 0.000000
# 3 -0.003655 -0.003378 0.010926 0.000000 0.000000 0.000000
# 4 0.000000 0.000000 0.000000 0.028636 0.000000 0.000000
# 5 0.000000 0.000000 0.000000 0.000000 0.063349 0.000000
# 6 0.000000 0.000000 0.000000 0.000000 0.000000 0.061093
#
#
# Mechanical properties :
#
#
# Convention : Reuss Voigt Hill
#
# Bulk Modulus (GPa) = 61.63375 64.75215 63.19295
# Shear Modulus (GPa) = 23.05924 26.39750 24.72837
#
# Velocity S-wave (km/s) = 3.55957 3.80853 3.68615
# Velocity P-wave (km/s) = 7.12464 7.41079 7.26912
#
# Compressibility (1/GPa) = 0.01622488
#
# Stress axis : x y z
#
# Youngs Moduli (GPa) = 64.13153 92.87685 91.52688
#
# Poissons Ratio (x) = 0.32478 0.33457
# Poissons Ratio (y) = 0.22426 0.30918
# Poissons Ratio (z) = 0.23443 0.31374
#
# Static dielectric constant tensor:
#      x y z
#    x 3.166690 0.000000 0.000000 
#    y 0.000000 3.248540 0.000000 
#    z 0.000000 0.000000 4.930200 
# 
# 
# High freq. dielectric constant tensor:
#      x y z
#    x 1.661910 0.000000 0.000000 
#    y 0.000000 1.713600 0.000000 
#    z 0.000000 0.000000 1.717040 
# 
# From -- ./inp_files/21083.got.cif
#   From: 2010.03.12/outbox.cif.g09.slc.cpg/sg67_11_cif.got.tgz:21083.got - 2010.04.10 22:41:39.
