data_PCOD8278460
_publ_section_title
;
Structure prediction by ZEFSAII (Michael W. Deem and Ramdas Pophale) SiO2 
 PCOD8278460
Probable space group: C M M A
;
_chemical_formula_sum "Si O2"
_cell_formula_units_Z 96
_cell_length_a 24.020161
_cell_length_b 16.138166
_cell_length_c 12.557385
_cell_angle_alpha 90.000000
_cell_angle_beta 90.000000
_cell_angle_gamma 90.000000
_cell_volume 4867.761618
_symmetry_space_group_name_H-M "C M M A"
_symmetry_group_IT_number 67
_symmetry_cell_setting 'orthorhombic'
loop_
_space_group_symop_operation_xyz
x,y,z
-x,1/2-y,z
x,-y,-z
-x,1/2+y,-z
-x,-y,-z
x,1/2+y,-z
-x,y,z
x,1/2-y,z
1/2+x,1/2+y,z
1/2-x,-y,z
1/2+x,1/2-y,-z
1/2-x,y,-z
1/2-x,1/2-y,-z
1/2+x,y,-z
1/2-x,1/2+y,z
1/2+x,-y,z
loop_
_atom_site_type_symbol
_atom_site_label
_atom_site_fract_x
_atom_site_fract_y
_atom_site_fract_z
Si Si1 0.500000 0.094290 0.036657
Si Si2 0.311674 0.410001 0.784778
Si Si3 0.613779 0.656197 0.631823
Si Si4 0.618414 0.902097 0.019788
Si Si5 0.308688 0.348819 0.549080
Si Si6 0.000000 0.650076 0.274294
Si Si7 0.188586 0.395092 0.820045
O O1 0.556547 0.137298 0.992544
O O2 0.500000 0.101844 0.163483
O O3 0.500000 0.000000 0.000000
O O4 0.359341 0.375476 0.863899
O O5 0.322850 0.386538 0.663342
O O6 0.253323 0.369933 0.822029
O O7 0.313897 0.508077 0.795561
O O8 0.600882 0.750000 0.602684
O O9 0.642555 0.615906 0.527957
O O10 0.554290 0.616357 0.662472
O O11 0.657098 0.654146 0.728421
O O12 0.660988 0.867705 0.931190
O O13 0.614797 0.000000 0.000000
O O14 0.308159 0.250000 0.556353
O O15 0.250000 0.380270 0.500000
O O16 0.000000 0.750000 0.256554
#
# Coordination Sequence:
#
# PCOD8278460 Si02
#       7
#     8  16  16  16  16   8  16
#     4  10  18  32  57  78 106 143 182 222 278 335
#     4  10  20  32  51  80 111 143 177 220 271 332
#     4  10  20  35  56  79 105 140 183 229 272 313
#     4   9  18  32  51  78 107 142 176 217 274 329
#     4  10  20  36  55  75 106 145 183 223 273 329
#     4  10  20  36  59  83 106 140 194 239 266 313
#     4  10  18  32  53  78 109 140 178 225 267 324
#
# _framework density 19.721589000000002
#
# number of rings (size 3 to 8) (size 9 to 14) (size 15 to 20)
#    0.000    2.167    3.333    0.500    0.000    2.667 
#    0.000    2.500    0.000    3.000    0.000    0.000 
#    0.000    0.000    0.000    0.000    0.000    0.000 
#
# Total GULP energy -594898.696388 kJ/mol
# GULP energy per Si atom -12393.722841 kJ/mol
# Density = 1.967670 g / cm^3
# Si number density = 19.721589 Si / 1000 Ang^3
#
#
#
# Elastic Constant Matrix: (Units=GPa)
#
#
# Indices 1 2 3 4 5 6 
#
# 1 188.4797 11.6459 102.5162 0.0000 0.0000 0.0000
# 2 11.6459 12.4210 12.3738 0.0000 0.0000 0.0000
# 3 102.5162 12.3738 190.8858 0.0000 0.0000 0.0000
# 4 0.0000 0.0000 0.0000 11.8635 0.0000 0.0000
# 5 0.0000 0.0000 0.0000 0.0000 42.3966 0.0000
# 6 0.0000 0.0000 0.0000 0.0000 0.0000 8.8537
#
#
#
# Elastic Compliance Matrix: (Units=1/GPa)
#
#
# Indices 1 2 3 4 5 6 
#
# 1 0.007618 -0.003278 -0.003879 0.000000 0.000000 0.000000
# 2 -0.003278 0.087477 -0.003910 0.000000 0.000000 0.000000
# 3 -0.003879 -0.003910 0.007575 0.000000 0.000000 0.000000
# 4 0.000000 0.000000 0.000000 0.084292 0.000000 0.000000
# 5 0.000000 0.000000 0.000000 0.000000 0.023587 0.000000
# 6 0.000000 0.000000 0.000000 0.000000 0.000000 0.112947
#
#
# Mechanical properties :
#
#
# Convention : Reuss Voigt Hill
#
# Bulk Modulus (GPa) = 12.41672 71.65091 42.03382
# Shear Modulus (GPa) = 13.42368 30.30612 21.86490
#
# Velocity S-wave (km/s) = 2.61177 3.92433 3.33329
# Velocity P-wave (km/s) = 3.92490 7.54612 6.01451
#
# Compressibility (1/GPa) = 0.08053654
#
# Stress axis : x y z
#
# Youngs Moduli (GPa) = 131.27078 11.43152 132.00890
#
# Poissons Ratio (x) = 0.03748 0.51202
# Poissons Ratio (y) = 0.43037 0.51613
# Poissons Ratio (z) = 0.50916 0.04470
#
# Static dielectric constant tensor:
#      x y z
#    x 4.171470 0.000000 0.000000 
#    y 0.000000 3.151880 0.000000 
#    z 0.000000 0.000000 3.693840 
# 
# 
# High freq. dielectric constant tensor:
#      x y z
#    x 1.779970 0.000000 0.000000 
#    y 0.000000 1.725290 0.000000 
#    z 0.000000 0.000000 1.771360 
# 
# From -- ./inp_files/19699.got.cif
#   From: 2010.03.12/outbox.cif.g09.slc.cpg/sg67_10_cif.got.tgz:19699.got - 2010.04.10 22:41:39.
