data_PCOD8278949
_publ_section_title
;
Structure prediction by ZEFSAII (Michael W. Deem and Ramdas Pophale) SiO2 
 PCOD8278949
Probable space group: C M M A
;
_chemical_formula_sum "Si O2"
_cell_formula_units_Z 96
_cell_length_a 19.197490
_cell_length_b 9.016979
_cell_length_c 31.420780
_cell_angle_alpha 90.000000
_cell_angle_beta 90.000000
_cell_angle_gamma 90.000000
_cell_volume 5439.042723
_symmetry_space_group_name_H-M "C M M A"
_symmetry_group_IT_number 67
_symmetry_cell_setting 'orthorhombic'
loop_
_space_group_symop_operation_xyz
x,y,z
-x,1/2-y,z
x,-y,-z
-x,1/2+y,-z
-x,-y,-z
x,1/2+y,-z
-x,y,z
x,1/2-y,z
1/2+x,1/2+y,z
1/2-x,-y,z
1/2+x,1/2-y,-z
1/2-x,y,-z
1/2-x,1/2-y,-z
1/2+x,y,-z
1/2-x,1/2+y,z
1/2+x,-y,z
loop_
_atom_site_type_symbol
_atom_site_label
_atom_site_fract_x
_atom_site_fract_y
_atom_site_fract_z
Si Si1 0.420501 0.075064 0.957205
Si Si2 0.678056 0.420304 0.789615
Si Si3 0.825517 0.925279 0.697092
Si Si4 0.675481 0.575663 0.118587
Si Si5 0.081928 0.422398 0.626992
Si Si6 0.082862 0.917475 0.541615
O O1 0.500000 0.026668 0.949287
O O2 0.413428 0.250000 0.962317
O O3 0.376493 0.014196 0.917277
O O4 0.391140 0.000000 0.000000
O O5 0.697326 0.250000 0.789410
O O6 0.750000 0.500000 0.790440
O O7 0.641265 0.458528 0.744448
O O8 0.640094 0.459575 0.834609
O O9 0.818339 0.750000 0.688494
O O10 0.750000 0.000000 0.691716
O O11 0.879860 0.995570 0.665029
O O12 0.686568 0.750000 0.112784
O O13 0.750000 0.500000 0.113212
O O14 0.101585 0.250000 0.626702
O O15 0.108448 0.493285 0.582915
O O16 0.000000 0.447361 0.633063
O O17 0.112258 0.750000 0.543178
O O18 0.000000 0.915126 0.539669
O O19 0.112979 0.000000 0.500000
#
# Coordination Sequence:
#
# PCOD8278949 Si02
#       6
#    16  16  16  16  16  16
#     4   9  18  32  48  65  89 122 156 188 225 273
#     4   8  15  28  46  68  92 119 152 189 230 277
#     4  10  19  32  51  73  97 127 163 199 238 288
#     4   9  17  30  48  70  93 117 149 190 234 275
#     4  10  20  33  49  71 100 131 163 202 245 285
#     4   9  16  27  45  69  96 126 161 200 242 288
#
# _framework density 17.650164
#
# number of rings (size 3 to 8) (size 9 to 14) (size 15 to 20)
#    0.000    2.833    0.000    1.500    0.000    4.667 
#    0.000    2.500    0.000    3.500    0.000    5.833 
#    0.000    0.000    0.000    0.000    0.000    0.000 
#
# Total GULP energy -594701.934653 kJ/mol
# GULP energy per Si atom -12389.623639 kJ/mol
# Density = 1.760999 g / cm^3
# Si number density = 17.650164 Si / 1000 Ang^3
#
#
#
# Elastic Constant Matrix: (Units=GPa)
#
#
# Indices 1 2 3 4 5 6 
#
# 1 42.6782 30.6350 59.3748 0.0000 0.0000 0.0000
# 2 30.6350 85.6841 72.6192 0.0000 0.0000 0.0000
# 3 59.3748 72.6192 207.7464 0.0000 0.0000 0.0000
# 4 0.0000 0.0000 0.0000 31.4582 0.0000 0.0000
# 5 0.0000 0.0000 0.0000 0.0000 22.7001 0.0000
# 6 0.0000 0.0000 0.0000 0.0000 0.0000 22.0674
#
#
#
# Elastic Compliance Matrix: (Units=1/GPa)
#
#
# Indices 1 2 3 4 5 6 
#
# 1 0.041511 -0.006802 -0.009487 0.000000 0.000000 0.000000
# 2 -0.006802 0.017698 -0.004243 0.000000 0.000000 0.000000
# 3 -0.009487 -0.004243 0.009008 0.000000 0.000000 0.000000
# 4 0.000000 0.000000 0.000000 0.031788 0.000000 0.000000
# 5 0.000000 0.000000 0.000000 0.000000 0.044053 0.000000
# 6 0.000000 0.000000 0.000000 0.000000 0.000000 0.045316
#
#
# Mechanical properties :
#
#
# Convention : Reuss Voigt Hill
#
# Bulk Modulus (GPa) = 36.82441 73.48520 55.15480
# Shear Modulus (GPa) = 20.87787 26.81046 23.84416
#
# Velocity S-wave (km/s) = 3.44302 3.90165 3.67949
# Velocity P-wave (km/s) = 6.05926 7.87540 7.02625
#
# Compressibility (1/GPa) = 0.02715590
#
# Stress axis : x y z
#
# Youngs Moduli (GPa) = 24.08973 56.50254 111.01372
#
# Poissons Ratio (x) = 0.38431 1.05314
# Poissons Ratio (y) = 0.16385 0.47099
# Poissons Ratio (z) = 0.22853 0.23972
#
# Static dielectric constant tensor:
#      x y z
#    x 2.844200 0.000000 0.000000 
#    y 0.000000 3.364550 0.000000 
#    z 0.000000 0.000000 4.049820 
# 
# 
# High freq. dielectric constant tensor:
#      x y z
#    x 1.629920 0.000000 0.000000 
#    y 0.000000 1.690790 0.000000 
#    z 0.000000 0.000000 1.709670 
# 
# From -- ./inp_files/43511.got.cif
#   From: 2010.03.12/outbox.cif.g09.slc.cpg/sg67_22_cif.got.tgz:43511.got - 2010.04.10 22:41:39.
