data_PCOD8278654
_publ_section_title
;
Structure prediction by ZEFSAII (Michael W. Deem and Ramdas Pophale) SiO2 
 PCOD8278654
Probable space group: C M M A
;
_chemical_formula_sum "Si O2"
_cell_formula_units_Z 96
_cell_length_a 14.168369
_cell_length_b 17.274708
_cell_length_c 20.785801
_cell_angle_alpha 90.000000
_cell_angle_beta 90.000000
_cell_angle_gamma 90.000000
_cell_volume 5087.417028
_symmetry_space_group_name_H-M "C M M A"
_symmetry_group_IT_number 67
_symmetry_cell_setting 'orthorhombic'
loop_
_space_group_symop_operation_xyz
x,y,z
-x,1/2-y,z
x,-y,-z
-x,1/2+y,-z
-x,-y,-z
x,1/2+y,-z
-x,y,z
x,1/2-y,z
1/2+x,1/2+y,z
1/2-x,-y,z
1/2+x,1/2-y,-z
1/2-x,y,-z
1/2-x,1/2-y,-z
1/2+x,y,-z
1/2-x,1/2+y,z
1/2+x,-y,z
loop_
_atom_site_type_symbol
_atom_site_label
_atom_site_fract_x
_atom_site_fract_y
_atom_site_fract_z
Si Si1 0.290756 0.842104 0.596255
Si Si2 0.701443 0.158080 0.146814
Si Si3 0.893254 0.842158 0.278056
Si Si4 0.394802 0.157909 0.530677
Si Si5 0.608752 0.082434 0.024399
Si Si6 0.398788 0.160126 0.893643
O O1 0.292344 0.750000 0.597545
O O2 0.330176 0.875812 0.663398
O O3 0.359297 0.871311 0.539103
O O4 0.182355 0.870176 0.583826
O O5 0.686673 0.250000 0.135666
O O6 0.651049 0.128727 0.211283
O O7 0.661922 0.110621 0.087279
O O8 0.812609 0.135561 0.152705
O O9 0.892724 0.750000 0.280139
O O10 0.000000 0.873521 0.284056
O O11 0.500000 0.124175 0.545138
O O12 0.399303 0.250000 0.530600
O O13 0.500000 0.075319 0.043596
O O14 0.626963 0.143140 0.967563
O O15 0.648281 0.000000 0.000000
O O16 0.500000 0.119539 0.875000
O O17 0.413458 0.250000 0.886896
#
# Coordination Sequence:
#
# PCOD8278654 Si02
#       6
#    16  16  16  16  16  16
#     4   8  13  20  30  46  68  96 132 172 212 250
#     4  10  19  30  45  64  85 112 146 182 223 270
#     4   9  16  25  37  53  74 101 135 175 216 258
#     4   8  12  18  29  45  67  96 131 171 210 246
#     4  10  20  32  47  68  90 110 137 177 223 267
#     4   9  18  32  47  62  83 111 141 174 215 263
#
# _framework density 18.870087999999999
#
# number of rings (size 3 to 8) (size 9 to 14) (size 15 to 20)
#    0.000    3.000    0.000    3.000    0.000    6.333 
#    0.000    0.833    0.000    5.000    0.000    0.000 
#    0.000    0.000    0.000    0.000    0.000   13.333 
#
# Total GULP energy -594713.663197 kJ/mol
# GULP energy per Si atom -12389.867983 kJ/mol
# Density = 1.882714 g / cm^3
# Si number density = 18.870088 Si / 1000 Ang^3
#
#
#
# Elastic Constant Matrix: (Units=GPa)
#
#
# Indices 1 2 3 4 5 6 
#
# 1 187.5442 20.5187 94.2009 0.0000 0.0000 0.0000
# 2 20.5187 13.7603 14.9894 0.0000 0.0000 0.0000
# 3 94.2009 14.9894 118.4533 0.0000 0.0000 0.0000
# 4 0.0000 0.0000 0.0000 6.5203 0.0000 0.0000
# 5 0.0000 0.0000 0.0000 0.0000 34.1993 0.0000
# 6 0.0000 0.0000 0.0000 0.0000 0.0000 7.8687
#
#
#
# Elastic Compliance Matrix: (Units=1/GPa)
#
#
# Indices 1 2 3 4 5 6 
#
# 1 0.009399 -0.006812 -0.006612 0.000000 0.000000 0.000000
# 2 -0.006812 0.089229 -0.005874 0.000000 0.000000 0.000000
# 3 -0.006612 -0.005874 0.014444 0.000000 0.000000 0.000000
# 4 0.000000 0.000000 0.000000 0.153366 0.000000 0.000000
# 5 0.000000 0.000000 0.000000 0.000000 0.029240 0.000000
# 6 0.000000 0.000000 0.000000 0.000000 0.000000 0.127087
#
#
# Mechanical properties :
#
#
# Convention : Reuss Voigt Hill
#
# Bulk Modulus (GPa) = 13.42729 64.35286 38.89007
# Shear Modulus (GPa) = 10.28412 22.38759 16.33585
#
# Velocity S-wave (km/s) = 2.33705 3.44816 2.94547
# Velocity P-wave (km/s) = 3.79651 7.07321 5.67643
#
# Compressibility (1/GPa) = 0.07447521
#
# Stress axis : x y z
#
# Youngs Moduli (GPa) = 106.39847 11.20710 69.23293
#
# Poissons Ratio (x) = 0.07634 0.45779
# Poissons Ratio (y) = 0.72477 0.40668
# Poissons Ratio (z) = 0.70354 0.06583
#
# Static dielectric constant tensor:
#      x y z
#    x 4.230430 0.000000 0.000000 
#    y 0.000000 2.907100 0.000000 
#    z 0.000000 0.000000 3.616030 
# 
# 
# High freq. dielectric constant tensor:
#      x y z
#    x 1.758710 0.000000 0.000000 
#    y 0.000000 1.666830 0.000000 
#    z 0.000000 0.000000 1.713320 
# 
# From -- ./inp_files/38406.got.cif
#   From: 2010.03.12/outbox.cif.g09.slc.cpg/sg67_20_cif.got.tgz:38406.got - 2010.04.10 22:41:39.
