data_PCOD8278991
_publ_section_title
;
Structure prediction by ZEFSAII (Michael W. Deem and Ramdas Pophale) SiO2 
 PCOD8278991
Probable space group: C M M A
;
_chemical_formula_sum "Si O2"
_cell_formula_units_Z 96
_cell_length_a 14.655508
_cell_length_b 21.781229
_cell_length_c 14.243059
_cell_angle_alpha 90.000000
_cell_angle_beta 90.000000
_cell_angle_gamma 90.000000
_cell_volume 4546.597735
_symmetry_space_group_name_H-M "C M M A"
_symmetry_group_IT_number 67
_symmetry_cell_setting 'orthorhombic'
loop_
_space_group_symop_operation_xyz
x,y,z
-x,1/2-y,z
x,-y,-z
-x,1/2+y,-z
-x,-y,-z
x,1/2+y,-z
-x,y,z
x,1/2-y,z
1/2+x,1/2+y,z
1/2-x,-y,z
1/2+x,1/2-y,-z
1/2-x,y,-z
1/2-x,1/2-y,-z
1/2+x,y,-z
1/2-x,1/2+y,z
1/2+x,-y,z
loop_
_atom_site_type_symbol
_atom_site_label
_atom_site_fract_x
_atom_site_fract_y
_atom_site_fract_z
Si Si1 0.901064 0.915420 0.419783
Si Si2 0.605681 0.318115 0.266870
Si Si3 0.395318 0.090032 0.794064
Si Si4 0.099689 0.531450 0.099050
Si Si5 0.658844 0.460496 0.610499
Si Si6 0.768001 0.143302 0.895566
O O1 0.857279 0.869638 0.341050
O O2 0.838694 0.922318 0.512631
O O3 0.000000 0.887945 0.446362
O O4 0.916875 0.985390 0.382885
O O5 0.500000 0.332535 0.241059
O O6 0.613853 0.250000 0.311647
O O7 0.667003 0.316702 0.172023
O O8 0.500000 0.111611 0.805939
O O9 0.361461 0.091753 0.686787
O O10 0.333019 0.136672 0.852627
O O11 0.380471 0.019782 0.823824
O O12 0.182935 0.577881 0.097627
O O13 0.000000 0.562688 0.119330
O O14 0.094570 0.500000 0.000000
O O15 0.750000 0.500000 0.625773
O O16 0.750000 0.171556 0.000000
#
# Coordination Sequence:
#
# PCOD8278991 Si02
#       6
#    16  16  16  16  16  16
#     4  10  19  34  56  83 115 148 187 237 298 367
#     4  10  23  43  65  88 114 151 204 260 309 360
#     4  11  22  34  51  82 125 168 203 241 296 368
#     4  10  19  32  51  81 123 163 198 237 296 369
#     4  11  20  32  56  88 122 157 189 231 297 371
#     4  12  23  35  58  83 117 159 207 255 305 355
#
# _framework density 21.11469
#
# number of rings (size 3 to 8) (size 9 to 14) (size 15 to 20)
#    0.000    1.333    1.667    7.000    0.000    3.667 
#    0.000    0.000    0.000    8.500    0.000    0.000 
#    0.000    0.000    0.000    0.000    0.000    0.000 
#
# Total GULP energy -594639.790651 kJ/mol
# GULP energy per Si atom -12388.328972 kJ/mol
# Density = 2.106663 g / cm^3
# Si number density = 21.114690 Si / 1000 Ang^3
#
#
#
# Elastic Constant Matrix: (Units=GPa)
#
#
# Indices 1 2 3 4 5 6 
#
# 1 125.6427 17.8394 38.3201 0.0000 0.0000 0.0000
# 2 17.8394 63.8730 41.0789 0.0000 0.0000 0.0000
# 3 38.3201 41.0789 136.6250 0.0000 0.0000 0.0000
# 4 0.0000 0.0000 0.0000 16.7100 0.0000 0.0000
# 5 0.0000 0.0000 0.0000 0.0000 31.7940 0.0000
# 6 0.0000 0.0000 0.0000 0.0000 0.0000 11.9240
#
#
#
# Elastic Compliance Matrix: (Units=1/GPa)
#
#
# Indices 1 2 3 4 5 6 
#
# 1 0.008763 -0.001074 -0.002135 0.000000 0.000000 0.000000
# 2 -0.001074 0.019541 -0.005574 0.000000 0.000000 0.000000
# 3 -0.002135 -0.005574 0.009594 0.000000 0.000000 0.000000
# 4 0.000000 0.000000 0.000000 0.059844 0.000000 0.000000
# 5 0.000000 0.000000 0.000000 0.000000 0.031452 0.000000
# 6 0.000000 0.000000 0.000000 0.000000 0.000000 0.083864
#
#
# Mechanical properties :
#
#
# Convention : Reuss Voigt Hill
#
# Bulk Modulus (GPa) = 49.18520 57.84640 53.51580
# Shear Modulus (GPa) = 21.06130 27.34576 24.20353
#
# Velocity S-wave (km/s) = 3.16170 3.60266 3.38936
# Velocity P-wave (km/s) = 6.05585 6.69039 6.38101
#
# Compressibility (1/GPa) = 0.02033132
#
# Stress axis : x y z
#
# Youngs Moduli (GPa) = 114.12010 51.17449 104.23233
#
# Poissons Ratio (x) = 0.05499 0.22250
# Poissons Ratio (y) = 0.12262 0.58099
# Poissons Ratio (z) = 0.24361 0.28525
#
# Static dielectric constant tensor:
#      x y z
#    x 4.203810 0.000000 0.000000 
#    y 0.000000 3.322350 0.000000 
#    z 0.000000 0.000000 4.028280 
# 
# 
# High freq. dielectric constant tensor:
#      x y z
#    x 1.845830 0.000000 0.000000 
#    y 0.000000 1.765200 0.000000 
#    z 0.000000 0.000000 1.837130 
# 
# From -- ./inp_files/27184.got.cif
#   From: 2010.03.12/outbox.cif.g09.slc.cpg/sg67_14_cif.got.tgz:27184.got - 2010.04.10 22:41:39.
