data_PCOD8278032
_publ_section_title
;
Structure prediction by ZEFSAII (Michael W. Deem and Ramdas Pophale) SiO2 
 PCOD8278032
Probable space group: C M M A
;
_chemical_formula_sum "Si O2"
_cell_formula_units_Z 96
_cell_length_a 19.614590
_cell_length_b 8.658543
_cell_length_c 31.390020
_cell_angle_alpha 90.000000
_cell_angle_beta 90.000000
_cell_angle_gamma 90.000000
_cell_volume 5331.085467
_symmetry_space_group_name_H-M "C M M A"
_symmetry_group_IT_number 67
_symmetry_cell_setting 'orthorhombic'
loop_
_space_group_symop_operation_xyz
x,y,z
-x,1/2-y,z
x,-y,-z
-x,1/2+y,-z
-x,-y,-z
x,1/2+y,-z
-x,y,z
x,1/2-y,z
1/2+x,1/2+y,z
1/2-x,-y,z
1/2+x,1/2-y,-z
1/2-x,y,-z
1/2-x,1/2-y,-z
1/2+x,y,-z
1/2-x,1/2+y,z
1/2+x,-y,z
loop_
_atom_site_type_symbol
_atom_site_label
_atom_site_fract_x
_atom_site_fract_y
_atom_site_fract_z
Si Si1 0.174101 0.566202 0.457469
Si Si2 0.676347 0.434064 0.045044
Si Si3 0.576190 0.434095 0.703582
Si Si4 0.325154 0.433994 0.629165
Si Si5 0.076290 0.568371 0.118127
Si Si6 0.918964 0.578882 0.796249
O O1 0.136486 0.500000 0.500000
O O2 0.173904 0.750000 0.458136
O O3 0.250000 0.500000 0.457370
O O4 0.140347 0.502012 0.414066
O O5 0.679862 0.250000 0.042830
O O6 0.750000 0.500000 0.056866
O O7 0.624178 0.496052 0.080735
O O8 0.650710 0.500000 0.000000
O O9 0.500000 0.498242 0.694060
O O10 0.573752 0.250000 0.704366
O O11 0.627726 0.493996 0.667638
O O12 0.603173 0.491104 0.750174
O O13 0.321900 0.250000 0.626104
O O14 0.250000 0.500000 0.636810
O O15 0.073395 0.750000 0.115348
O O16 0.107309 0.523412 0.164255
O O17 0.000000 0.498978 0.112259
O O18 0.888313 0.750000 0.802419
O O19 0.000000 0.585638 0.795875
#
# Coordination Sequence:
#
# PCOD8278032 Si02
#       6
#    16  16  16  16  16  16
#     4  10  17  27  43  64  90 118 152 189 227 273
#     4  10  20  34  51  69  93 125 157 189 226 273
#     4   8  15  29  49  70  91 120 158 193 225 267
#     4  10  18  29  46  68  95 122 149 187 232 273
#     4   9  18  32  49  71  97 121 148 188 235 274
#     4   8  14  27  48  71  92 118 155 193 226 266
#
# _framework density 18.00759
#
# number of rings (size 3 to 8) (size 9 to 14) (size 15 to 20)
#    0.000    2.833    0.000    5.500    0.000    1.667 
#    0.000    2.500    0.000    8.500    0.000    0.000 
#    0.000    0.000    0.000    0.000    0.000    0.000 
#
# Total GULP energy -594831.612297 kJ/mol
# GULP energy per Si atom -12392.325256 kJ/mol
# Density = 1.796660 g / cm^3
# Si number density = 18.007590 Si / 1000 Ang^3
#
#
#
# Elastic Constant Matrix: (Units=GPa)
#
#
# Indices 1 2 3 4 5 6 
#
# 1 61.7148 20.9618 77.2827 0.0000 0.0000 0.0000
# 2 20.9618 67.8073 42.6376 0.0000 0.0000 0.0000
# 3 77.2827 42.6376 208.7250 0.0000 0.0000 0.0000
# 4 0.0000 0.0000 0.0000 27.6027 0.0000 0.0000
# 5 0.0000 0.0000 0.0000 0.0000 30.8930 0.0000
# 6 0.0000 0.0000 0.0000 0.0000 0.0000 13.9679
#
#
#
# Elastic Compliance Matrix: (Units=1/GPa)
#
#
# Indices 1 2 3 4 5 6 
#
# 1 0.030631 -0.002682 -0.010793 0.000000 0.000000 0.000000
# 2 -0.002682 0.017156 -0.002511 0.000000 0.000000 0.000000
# 3 -0.010793 -0.002511 0.009300 0.000000 0.000000 0.000000
# 4 0.000000 0.000000 0.000000 0.036228 0.000000 0.000000
# 5 0.000000 0.000000 0.000000 0.000000 0.032370 0.000000
# 6 0.000000 0.000000 0.000000 0.000000 0.000000 0.071593
#
#
# Mechanical properties :
#
#
# Convention : Reuss Voigt Hill
#
# Bulk Modulus (GPa) = 39.81991 68.89014 54.35503
# Shear Modulus (GPa) = 21.04171 27.65040 24.34605
#
# Velocity S-wave (km/s) = 3.42203 3.92278 3.68093
# Velocity P-wave (km/s) = 6.14610 7.67182 6.95095
#
# Compressibility (1/GPa) = 0.02511306
#
# Stress axis : x y z
#
# Youngs Moduli (GPa) = 32.64694 58.28843 107.52185
#
# Poissons Ratio (x) = 0.15634 1.16053
# Poissons Ratio (y) = 0.08756 0.27004
# Poissons Ratio (z) = 0.35237 0.14639
#
# Static dielectric constant tensor:
#      x y z
#    x 3.128540 0.000000 0.000000 
#    y 0.000000 3.190490 0.000000 
#    z 0.000000 0.000000 4.197360 
# 
# 
# High freq. dielectric constant tensor:
#      x y z
#    x 1.648610 0.000000 0.000000 
#    y 0.000000 1.685840 0.000000 
#    z 0.000000 0.000000 1.722600 
# 
# From -- ./inp_files/44785.got.cif
#   From: 2010.03.12/outbox.cif.g09.slc.cpg/sg67_23_cif.got.tgz:44785.got - 2010.04.10 22:41:39.
