data_PCOD8278977
_publ_section_title
;
Structure prediction by ZEFSAII (Michael W. Deem and Ramdas Pophale) SiO2 
 PCOD8278977
Probable space group: C M M A
;
_chemical_formula_sum "Si O2"
_cell_formula_units_Z 104
_cell_length_a 26.807853
_cell_length_b 8.637921
_cell_length_c 23.954500
_cell_angle_alpha 90.000000
_cell_angle_beta 90.000000
_cell_angle_gamma 90.000000
_cell_volume 5547.002626
_symmetry_space_group_name_H-M "C M M A"
_symmetry_group_IT_number 67
_symmetry_cell_setting 'orthorhombic'
loop_
_space_group_symop_operation_xyz
x,y,z
-x,1/2-y,z
x,-y,-z
-x,1/2+y,-z
-x,-y,-z
x,1/2+y,-z
-x,y,z
x,1/2-y,z
1/2+x,1/2+y,z
1/2-x,-y,z
1/2+x,1/2-y,-z
1/2-x,y,-z
1/2-x,1/2-y,-z
1/2+x,y,-z
1/2-x,1/2+y,z
1/2+x,-y,z
loop_
_atom_site_type_symbol
_atom_site_label
_atom_site_fract_x
_atom_site_fract_y
_atom_site_fract_z
Si Si1 0.557450 0.431355 0.059966
Si Si2 0.697738 0.567570 0.350713
Si Si3 0.401336 0.071078 0.375641
Si Si4 0.889574 0.571119 0.836290
Si Si5 0.800806 0.067989 0.771350
Si Si6 0.500000 0.065181 0.438409
Si Si7 0.055871 0.575939 0.257678
O O1 0.500000 0.465829 0.075538
O O2 0.568579 0.250000 0.060305
O O3 0.593279 0.516679 0.103170
O O4 0.570668 0.500000 0.000000
O O5 0.701616 0.750000 0.351658
O O6 0.750000 0.500000 0.374279
O O7 0.650876 0.515046 0.389737
O O8 0.688219 0.510937 0.287858
O O9 0.395002 0.250000 0.391053
O O10 0.449388 0.002746 0.408544
O O11 0.408592 0.045437 0.309763
O O12 0.874683 0.750000 0.838385
O O13 0.843171 0.468969 0.816211
O O14 0.933944 0.544320 0.791876
O O15 0.796599 0.250000 0.761560
O O16 0.750000 0.000000 0.796887
O O17 0.500000 0.250000 0.436983
O O18 0.500000 0.000000 0.500000
O O19 0.064418 0.750000 0.234389
O O20 0.000000 0.554851 0.279688
#
# Coordination Sequence:
#
# PCOD8278977 Si02
#       7
#    16  16  16  16  16   8  16
#     4  10  21  38  58  79 105 142 185 230 279 330
#     4  11  21  34  54  83 115 151 190 233 286 344
#     4  10  19  35  57  81 113 153 192 233 282 337
#     4  12  23  34  51  79 111 145 184 227 277 334
#     4  11  21  35  53  76 109 146 183 226 276 334
#     4  10  22  40  62  88 118 160 201 238 285 338
#     4  10  19  32  51  76 108 147 184 224 279 336
#
# _framework density 18.748863
#
# number of rings (size 3 to 8) (size 9 to 14) (size 15 to 20)
#    0.000    1.385    2.308    6.000    0.000    3.692 
#    0.000    0.000    0.000    0.923    0.000    6.462 
#    0.000    0.000    0.000    0.000    0.000    0.000 
#
# Total GULP energy -644795.923823 kJ/mol
# GULP energy per Si atom -12399.921612 kJ/mol
# Density = 1.870619 g / cm^3
# Si number density = 18.748863 Si / 1000 Ang^3
#
#
#
# Elastic Constant Matrix: (Units=GPa)
#
#
# Indices 1 2 3 4 5 6 
#
# 1 150.2783 48.8517 40.1347 0.0000 0.0000 0.0000
# 2 48.8517 111.2249 29.5670 0.0000 0.0000 0.0000
# 3 40.1347 29.5670 56.3255 0.0000 0.0000 0.0000
# 4 0.0000 0.0000 0.0000 26.9180 0.0000 0.0000
# 5 0.0000 0.0000 0.0000 0.0000 92.6311 0.0000
# 6 0.0000 0.0000 0.0000 0.0000 0.0000 31.5737
#
#
#
# Elastic Compliance Matrix: (Units=1/GPa)
#
#
# Indices 1 2 3 4 5 6 
#
# 1 0.008802 -0.002555 -0.004930 0.000000 0.000000 0.000000
# 2 -0.002555 0.011191 -0.004054 0.000000 0.000000 0.000000
# 3 -0.004930 -0.004054 0.023395 0.000000 0.000000 0.000000
# 4 0.000000 0.000000 0.000000 0.037150 0.000000 0.000000
# 5 0.000000 0.000000 0.000000 0.000000 0.010796 0.000000
# 6 0.000000 0.000000 0.000000 0.000000 0.000000 0.031672
#
#
# Mechanical properties :
#
#
# Convention : Reuss Voigt Hill
#
# Bulk Modulus (GPa) = 49.23932 61.65950 55.44941
# Shear Modulus (GPa) = 32.71128 43.50959 38.11043
#
# Velocity S-wave (km/s) = 4.18150 4.82254 4.51342
# Velocity P-wave (km/s) = 7.04506 7.99798 7.53659
#
# Compressibility (1/GPa) = 0.02030897
#
# Stress axis : x y z
#
# Youngs Moduli (GPa) = 113.61449 89.36025 42.74432
#
# Poissons Ratio (x) = 0.22833 0.21074
# Poissons Ratio (y) = 0.29031 0.17327
# Poissons Ratio (z) = 0.56016 0.36223
#
# Static dielectric constant tensor:
#      x y z
#    x 3.724060 0.000000 0.000000 
#    y 0.000000 3.481510 0.000000 
#    z 0.000000 0.000000 3.224890 
# 
# 
# High freq. dielectric constant tensor:
#      x y z
#    x 1.741480 0.000000 0.000000 
#    y 0.000000 1.731760 0.000000 
#    z 0.000000 0.000000 1.692610 
# 
# From -- ./inp_files/42782.got.cif
#   From: 2010.03.12/outbox.cif.g09.slc.cpg/sg67_22_cif.got.tgz:42782.got - 2010.04.10 22:41:39.
