data_PCOD8278735
_publ_section_title
;
Structure prediction by ZEFSAII (Michael W. Deem and Ramdas Pophale) SiO2 
 PCOD8278735
Probable space group: C M M A
;
_chemical_formula_sum "Si O2"
_cell_formula_units_Z 112
_cell_length_a 19.113442
_cell_length_b 18.446164
_cell_length_c 19.038424
_cell_angle_alpha 90.000000
_cell_angle_beta 90.000000
_cell_angle_gamma 90.000000
_cell_volume 6712.371167
_symmetry_space_group_name_H-M "C M M A"
_symmetry_group_IT_number 67
_symmetry_cell_setting 'orthorhombic'
loop_
_space_group_symop_operation_xyz
x,y,z
-x,1/2-y,z
x,-y,-z
-x,1/2+y,-z
-x,-y,-z
x,1/2+y,-z
-x,y,z
x,1/2-y,z
1/2+x,1/2+y,z
1/2-x,-y,z
1/2+x,1/2-y,-z
1/2-x,y,-z
1/2-x,1/2-y,-z
1/2+x,y,-z
1/2-x,1/2+y,z
1/2+x,-y,z
loop_
_atom_site_type_symbol
_atom_site_label
_atom_site_fract_x
_atom_site_fract_y
_atom_site_fract_z
Si Si1 0.417958 0.601073 0.789807
Si Si2 0.170572 0.918867 0.082636
Si Si3 0.417565 0.667488 0.189797
Si Si4 0.916360 0.527108 0.426012
Si Si5 0.082446 0.457844 0.286700
Si Si6 0.168585 0.413519 0.076089
Si Si7 0.082912 0.829391 0.354297
O O1 0.500000 0.605686 0.806472
O O2 0.376075 0.623700 0.860051
O O3 0.393915 0.520142 0.767505
O O4 0.396259 0.654198 0.726290
O O5 0.251457 0.905552 0.100905
O O6 0.147875 0.002864 0.085086
O O7 0.157056 0.888882 0.004456
O O8 0.500000 0.659010 0.177311
O O9 0.396240 0.750000 0.205474
O O10 0.392857 0.619923 0.257121
O O11 0.379953 0.639457 0.120410
O O12 0.884611 0.500000 0.500000
O O13 0.888008 0.472755 0.365079
O O14 0.889027 0.608495 0.407530
O O15 0.000000 0.526740 0.429111
O O16 0.000000 0.462232 0.293155
O O17 0.113005 0.750000 0.375363
O O18 0.000000 0.829466 0.359251
#
# Coordination Sequence:
#
# PCOD8278735 Si02
#       7
#    16  16  16  16  16  16  16
#     4   9  15  25  44  66  86 113 150 185 221 269
#     4   9  17  30  47  65  87 115 147 192 233 270
#     4  10  19  31  46  63  88 122 156 191 228 266
#     4   8  13  22  38  59  85 118 151 178 209 261
#     4   8  14  25  40  60  85 112 147 185 219 258
#     4   9  18  31  45  64  89 115 150 189 231 274
#     4   8  14  24  37  57  87 117 143 179 225 263
#
# _framework density 16.685608999999999
#
# number of rings (size 3 to 8) (size 9 to 14) (size 15 to 20)
#    0.000    3.286    1.429    2.571    0.000    0.571 
#    0.000    5.000    0.000    6.000    0.000    0.000 
#    0.000    9.143    0.000    6.429    0.000    7.143 
#
# Total GULP energy -693891.716763 kJ/mol
# GULP energy per Si atom -12390.923514 kJ/mol
# Density = 1.664763 g / cm^3
# Si number density = 16.685609 Si / 1000 Ang^3
#
#
#
# Elastic Constant Matrix: (Units=GPa)
#
#
# Indices 1 2 3 4 5 6 
#
# 1 24.4681 21.8186 32.6052 0.0000 0.0000 0.0000
# 2 21.8186 119.4923 60.8529 0.0000 0.0000 0.0000
# 3 32.6052 60.8529 132.8798 0.0000 0.0000 0.0000
# 4 0.0000 0.0000 0.0000 20.8876 0.0000 0.0000
# 5 0.0000 0.0000 0.0000 0.0000 2.9539 0.0000
# 6 0.0000 0.0000 0.0000 0.0000 0.0000 12.5183
#
#
#
# Elastic Compliance Matrix: (Units=1/GPa)
#
#
# Indices 1 2 3 4 5 6 
#
# 1 0.062696 -0.004713 -0.013226 0.000000 0.000000 0.000000
# 2 -0.004713 0.011268 -0.004004 0.000000 0.000000 0.000000
# 3 -0.013226 -0.004004 0.012605 0.000000 0.000000 0.000000
# 4 0.000000 0.000000 0.000000 0.047875 0.000000 0.000000
# 5 0.000000 0.000000 0.000000 0.000000 0.338535 0.000000
# 6 0.000000 0.000000 0.000000 0.000000 0.000000 0.079883
#
#
# Mechanical properties :
#
#
# Convention : Reuss Voigt Hill
#
# Bulk Modulus (GPa) = 23.42796 56.37705 39.90251
# Shear Modulus (GPa) = 8.18365 18.04288 13.11327
#
# Velocity S-wave (km/s) = 2.21704 3.29195 2.80644
# Velocity P-wave (km/s) = 4.54147 6.95057 5.87092
#
# Compressibility (1/GPa) = 0.04268404
#
# Stress axis : x y z
#
# Youngs Moduli (GPa) = 15.95001 88.74434 79.33658
#
# Poissons Ratio (x) = 0.41821 1.04929
# Poissons Ratio (y) = 0.07516 0.31767
# Poissons Ratio (z) = 0.21095 0.35534
#
# Static dielectric constant tensor:
#      x y z
#    x 2.650640 0.000000 0.000000 
#    y 0.000000 3.274950 0.000000 
#    z 0.000000 0.000000 3.316730 
# 
# 
# High freq. dielectric constant tensor:
#      x y z
#    x 1.591470 0.000000 0.000000 
#    y 0.000000 1.629910 0.000000 
#    z 0.000000 0.000000 1.643410 
# 
# From -- ./inp_files/39060.got.cif
#   From: 2010.03.12/outbox.cif.g09.slc.cpg/sg67_20_cif.got.tgz:39060.got - 2010.04.10 22:41:39.
