data_PCOD8278938
_publ_section_title
;
Structure prediction by ZEFSAII (Michael W. Deem and Ramdas Pophale) SiO2 
 PCOD8278938
Probable space group: C M M A
;
_chemical_formula_sum "Si O2"
_cell_formula_units_Z 104
_cell_length_a 9.026006
_cell_length_b 26.984675
_cell_length_c 23.908880
_cell_angle_alpha 90.000000
_cell_angle_beta 90.000000
_cell_angle_gamma 90.000000
_cell_volume 5823.338586
_symmetry_space_group_name_H-M "C M M A"
_symmetry_group_IT_number 67
_symmetry_cell_setting 'orthorhombic'
loop_
_space_group_symop_operation_xyz
x,y,z
-x,1/2-y,z
x,-y,-z
-x,1/2+y,-z
-x,-y,-z
x,1/2+y,-z
-x,y,z
x,1/2-y,z
1/2+x,1/2+y,z
1/2-x,-y,z
1/2+x,1/2-y,-z
1/2-x,y,-z
1/2-x,1/2-y,-z
1/2+x,y,-z
1/2-x,1/2+y,z
1/2+x,-y,z
loop_
_atom_site_type_symbol
_atom_site_label
_atom_site_fract_x
_atom_site_fract_y
_atom_site_fract_z
Si Si1 0.172527 0.450829 0.850925
Si Si2 0.675567 0.050147 0.278096
Si Si3 0.326480 0.656101 0.869369
Si Si4 0.831807 0.305346 0.231994
Si Si5 0.328816 0.138393 0.658113
Si Si6 0.826384 0.306922 0.558682
Si Si7 0.822957 0.250000 0.940041
O O1 0.250000 0.500000 0.876059
O O2 0.220500 0.441597 0.786713
O O3 0.214364 0.400899 0.886875
O O4 0.000000 0.461520 0.854787
O O5 0.500000 0.048418 0.286026
O O6 0.743944 0.091677 0.317350
O O7 0.750000 0.000000 0.299747
O O8 0.500000 0.662686 0.867012
O O9 0.269294 0.660366 0.806278
O O10 0.263364 0.699823 0.909244
O O11 0.774199 0.250000 0.223606
O O12 0.816286 0.317882 0.296862
O O13 0.000000 0.311729 0.211563
O O14 0.500000 0.125223 0.645516
O O15 0.248568 0.156372 0.602509
O O16 0.798666 0.250000 0.576514
O O17 0.750000 0.318209 0.500000
O O18 0.000000 0.318625 0.554282
O O19 0.000000 0.250000 0.945264
O O20 0.750000 0.250000 0.000000
#
# Coordination Sequence:
#
# PCOD8278938 Si02
#       7
#    16  16  16  16  16  16   8
#     4   9  18  31  50  76 107 140 178 218 265 321
#     4  10  19  32  50  74 106 141 177 217 265 320
#     4  10  19  34  54  77 105 141 178 219 266 318
#     4  10  20  31  46  74 109 141 171 211 263 317
#     4  11  21  33  51  76 108 142 177 217 266 322
#     4  10  21  37  56  77 102 137 180 224 270 319
#     4  10  22  38  58  80 108 144 185 226 269 320
#
# _framework density 17.859171
#
# number of rings (size 3 to 8) (size 9 to 14) (size 15 to 20)
#    0.000    2.000    2.308    1.846    0.000    4.000 
#    0.000    0.000    0.000    0.923    0.000    6.462 
#    0.000    0.000    0.000    0.000    0.000    0.000 
#
# Total GULP energy -644578.511129 kJ/mol
# GULP energy per Si atom -12395.740599 kJ/mol
# Density = 1.781852 g / cm^3
# Si number density = 17.859171 Si / 1000 Ang^3
#
#
#
# Elastic Constant Matrix: (Units=GPa)
#
#
# Indices 1 2 3 4 5 6 
#
# 1 60.9841 50.6723 34.1778 0.0000 0.0000 0.0000
# 2 50.6723 145.6740 44.6446 0.0000 0.0000 0.0000
# 3 34.1778 44.6446 64.1364 0.0000 0.0000 0.0000
# 4 0.0000 0.0000 0.0000 19.9477 0.0000 0.0000
# 5 0.0000 0.0000 0.0000 0.0000 24.7848 0.0000
# 6 0.0000 0.0000 0.0000 0.0000 0.0000 31.4855
#
#
#
# Elastic Compliance Matrix: (Units=1/GPa)
#
#
# Indices 1 2 3 4 5 6 
#
# 1 0.027423 -0.006433 -0.010136 0.000000 0.000000 0.000000
# 2 -0.006433 0.010235 -0.003697 0.000000 0.000000 0.000000
# 3 -0.010136 -0.003697 0.023566 0.000000 0.000000 0.000000
# 4 0.000000 0.000000 0.000000 0.050131 0.000000 0.000000
# 5 0.000000 0.000000 0.000000 0.000000 0.040347 0.000000
# 6 0.000000 0.000000 0.000000 0.000000 0.000000 0.031761
#
#
# Mechanical properties :
#
#
# Convention : Reuss Voigt Hill
#
# Bulk Modulus (GPa) = 48.32271 58.86488 53.59379
# Shear Modulus (GPa) = 21.65511 24.66360 23.15936
#
# Velocity S-wave (km/s) = 3.48594 3.72022 3.60499
# Velocity P-wave (km/s) = 6.58170 7.17534 6.88492
#
# Compressibility (1/GPa) = 0.02069420
#
# Stress axis : x y z
#
# Youngs Moduli (GPa) = 36.46534 97.70245 42.43350
#
# Poissons Ratio (x) = 0.62850 0.43010
# Poissons Ratio (y) = 0.23457 0.15686
# Poissons Ratio (z) = 0.36961 0.36117
#
# Static dielectric constant tensor:
#      x y z
#    x 3.332690 0.000000 0.000000 
#    y 0.000000 3.746270 0.000000 
#    z 0.000000 0.000000 3.063720 
# 
# 
# High freq. dielectric constant tensor:
#      x y z
#    x 1.696170 0.000000 0.000000 
#    y 0.000000 1.702780 0.000000 
#    z 0.000000 0.000000 1.656930 
# 
# From -- ./inp_files/41008.got.cif
#   From: 2010.03.12/outbox.cif.g09.slc.cpg/sg67_21_cif.got.tgz:41008.got - 2010.04.10 22:41:39.
