data_PCOD8278840
_publ_section_title
;
Structure prediction by ZEFSAII (Michael W. Deem and Ramdas Pophale) SiO2 
 PCOD8278840
Probable space group: C M M A
;
_chemical_formula_sum "Si O2"
_cell_formula_units_Z 112
_cell_length_a 24.371980
_cell_length_b 20.061929
_cell_length_c 11.912787
_cell_angle_alpha 90.000000
_cell_angle_beta 90.000000
_cell_angle_gamma 90.000000
_cell_volume 5824.744485
_symmetry_space_group_name_H-M "C M M A"
_symmetry_group_IT_number 67
_symmetry_cell_setting 'orthorhombic'
loop_
_space_group_symop_operation_xyz
x,y,z
-x,1/2-y,z
x,-y,-z
-x,1/2+y,-z
-x,-y,-z
x,1/2+y,-z
-x,y,z
x,1/2-y,z
1/2+x,1/2+y,z
1/2-x,-y,z
1/2+x,1/2-y,-z
1/2-x,y,-z
1/2-x,1/2-y,-z
1/2+x,y,-z
1/2-x,1/2+y,z
1/2+x,-y,z
loop_
_atom_site_type_symbol
_atom_site_label
_atom_site_fract_x
_atom_site_fract_y
_atom_site_fract_z
Si Si1 0.064407 0.623605 0.734094
Si Si2 0.156873 0.676890 0.124459
Si Si3 0.435604 0.426031 0.492204
Si Si4 0.250362 0.423473 0.133183
Si Si5 0.156706 0.176340 0.132484
Si Si6 0.437660 0.631533 0.739619
Si Si7 0.061928 0.998225 0.878534
O O1 0.077613 0.617019 0.602322
O O2 0.102125 0.679981 0.789779
O O3 0.086354 0.556683 0.795302
O O4 0.000000 0.639164 0.752235
O O5 0.185825 0.750000 0.130220
O O6 0.195664 0.617619 0.171832
O O7 0.102877 0.683716 0.202357
O O8 0.139625 0.661490 0.996149
O O9 0.408854 0.500000 0.500000
O O10 0.500000 0.436277 0.474787
O O11 0.414081 0.386149 0.383758
O O12 0.250000 0.500000 0.180375
O O13 0.198296 0.380863 0.176670
O O14 0.250000 0.424715 0.000000
O O15 0.183977 0.250000 0.141007
O O16 0.500000 0.659645 0.733687
O O17 0.434681 0.568035 0.819108
O O18 0.000000 0.975609 0.901776
O O19 0.093087 0.000000 0.000000
#
# Coordination Sequence:
#
# PCOD8278840 Si02
#       7
#    16  16  16  16  16  16  16
#     4  10  19  31  50  77 108 144 184 222 266 318
#     4  10  21  36  54  78 112 148 177 215 271 330
#     4   9  16  30  49  72 105 146 187 229 271 313
#     4   9  19  35  57  82 105 136 181 225 264 318
#     4  10  21  36  54  78 112 148 177 215 271 330
#     4  10  19  31  50  77 108 144 184 222 266 318
#     4   9  16  25  41  70 106 136 166 213 263 305
#
# _framework density 19.228311000000001
#
# number of rings (size 3 to 8) (size 9 to 14) (size 15 to 20)
#    0.000    2.429    1.429    1.286    2.000    4.000 
#    0.000    2.143    0.000    3.429    0.000    4.000 
#    0.000    0.000    0.000    0.000    0.000    0.000 
#
# Total GULP energy -693893.290436 kJ/mol
# GULP energy per Si atom -12390.951615 kJ/mol
# Density = 1.918455 g / cm^3
# Si number density = 19.228311 Si / 1000 Ang^3
#
#
#
# Elastic Constant Matrix: (Units=GPa)
#
#
# Indices 1 2 3 4 5 6 
#
# 1 85.5442 41.0135 36.4818 0.0000 0.0000 0.0000
# 2 41.0135 103.5177 26.3947 0.0000 0.0000 0.0000
# 3 36.4818 26.3947 109.1218 0.0000 0.0000 0.0000
# 4 0.0000 0.0000 0.0000 17.6063 0.0000 0.0000
# 5 0.0000 0.0000 0.0000 0.0000 11.3520 0.0000
# 6 0.0000 0.0000 0.0000 0.0000 0.0000 22.0584
#
#
#
# Elastic Compliance Matrix: (Units=1/GPa)
#
#
# Indices 1 2 3 4 5 6 
#
# 1 0.015954 -0.005287 -0.004055 0.000000 0.000000 0.000000
# 2 -0.005287 0.012047 -0.001146 0.000000 0.000000 0.000000
# 3 -0.004055 -0.001146 0.010797 0.000000 0.000000 0.000000
# 4 0.000000 0.000000 0.000000 0.056798 0.000000 0.000000
# 5 0.000000 0.000000 0.000000 0.000000 0.088090 0.000000
# 6 0.000000 0.000000 0.000000 0.000000 0.000000 0.045334
#
#
# Mechanical properties :
#
#
# Convention : Reuss Voigt Hill
#
# Bulk Modulus (GPa) = 56.11220 56.21818 56.16519
# Shear Modulus (GPa) = 19.53598 23.15624 21.34611
#
# Velocity S-wave (km/s) = 3.19093 3.47404 3.33549
# Velocity P-wave (km/s) = 6.54381 6.73740 6.64131
#
# Compressibility (1/GPa) = 0.01782144
#
# Stress axis : x y z
#
# Youngs Moduli (GPa) = 62.68033 83.00678 92.61811
#
# Poissons Ratio (x) = 0.43886 0.37556
# Poissons Ratio (y) = 0.33139 0.10618
# Poissons Ratio (z) = 0.25416 0.09516
#
# Static dielectric constant tensor:
#      x y z
#    x 3.313100 0.000000 0.000000 
#    y 0.000000 3.522230 0.000000 
#    z 0.000000 0.000000 3.460880 
# 
# 
# High freq. dielectric constant tensor:
#      x y z
#    x 1.716640 0.000000 0.000000 
#    y 0.000000 1.746240 0.000000 
#    z 0.000000 0.000000 1.725600 
# 
# From -- ./inp_files/23134.got.cif
#   From: 2010.03.12/outbox.cif.g09.slc.cpg/sg67_12_cif.got.tgz:23134.got - 2010.04.10 22:41:39.
