data_PCOD8278983
_publ_section_title
;
Structure prediction by ZEFSAII (Michael W. Deem and Ramdas Pophale) SiO2 
 PCOD8278983
Probable space group: C M M A
;
_chemical_formula_sum "Si O2"
_cell_formula_units_Z 96
_cell_length_a 8.769167
_cell_length_b 19.016179
_cell_length_c 31.621038
_cell_angle_alpha 90.000000
_cell_angle_beta 90.000000
_cell_angle_gamma 90.000000
_cell_volume 5272.999373
_symmetry_space_group_name_H-M "C M M A"
_symmetry_group_IT_number 67
_symmetry_cell_setting 'orthorhombic'
loop_
_space_group_symop_operation_xyz
x,y,z
-x,1/2-y,z
x,-y,-z
-x,1/2+y,-z
-x,-y,-z
x,1/2+y,-z
-x,y,z
x,1/2-y,z
1/2+x,1/2+y,z
1/2-x,-y,z
1/2+x,1/2-y,-z
1/2-x,y,-z
1/2-x,1/2-y,-z
1/2+x,y,-z
1/2-x,1/2+y,z
1/2+x,-y,z
loop_
_atom_site_type_symbol
_atom_site_label
_atom_site_fract_x
_atom_site_fract_y
_atom_site_fract_z
Si Si1 0.676853 0.924961 0.208028
Si Si2 0.819537 0.577418 0.382252
Si Si3 0.819696 0.422770 0.298203
Si Si4 0.322215 0.331744 0.043410
Si Si5 0.820324 0.577065 0.883702
Si Si6 0.823304 0.332240 0.455564
O O1 0.500000 0.940098 0.208948
O O2 0.718735 0.884745 0.252475
O O3 0.719209 0.888975 0.162984
O O4 0.750000 0.000000 0.208123
O O5 0.750000 0.500000 0.387881
O O6 0.760284 0.614115 0.338460
O O7 0.767405 0.626368 0.420092
O O8 0.000000 0.571687 0.381577
O O9 0.750000 0.500000 0.295700
O O10 0.000000 0.425692 0.306564
O O11 0.500000 0.347403 0.041960
O O12 0.284448 0.250000 0.048997
O O13 0.249533 0.370835 0.082664
O O14 0.250000 0.360561 0.000000
O O15 0.750000 0.500000 0.889012
O O16 0.000000 0.571255 0.890953
O O17 0.802192 0.250000 0.446750
O O18 0.750000 0.353870 0.500000
O O19 0.000000 0.354157 0.455457
#
# Coordination Sequence:
#
# PCOD8278983 Si02
#       6
#    16  16  16  16  16  16
#     4   8  15  26  43  68  98 131 164 200 242 291
#     4  11  21  33  51  77 107 136 170 210 252 295
#     4   9  15  26  44  68  99 132 167 204 246 293
#     4  10  21  37  55  74  97 128 166 206 250 301
#     4  10  19  32  51  77 106 133 165 205 249 294
#     4  10  21  38  58  78 101 131 167 206 251 304
#
# _framework density 18.205957999999999
#
# number of rings (size 3 to 8) (size 9 to 14) (size 15 to 20)
#    0.000    2.333    0.000    4.500    0.000    4.000 
#    0.000    3.333    0.000    1.000    0.000    2.333 
#    0.000    0.000    0.000    0.000    0.000    0.000 
#
# Total GULP energy -594626.261978 kJ/mol
# GULP energy per Si atom -12388.047125 kJ/mol
# Density = 1.816452 g / cm^3
# Si number density = 18.205958 Si / 1000 Ang^3
#
#
#
# Elastic Constant Matrix: (Units=GPa)
#
#
# Indices 1 2 3 4 5 6 
#
# 1 118.9764 38.6976 85.4713 0.0000 0.0000 0.0000
# 2 38.6976 32.5340 55.9211 0.0000 0.0000 0.0000
# 3 85.4713 55.9211 215.1440 0.0000 0.0000 0.0000
# 4 0.0000 0.0000 0.0000 -22.8392 0.0000 0.0000
# 5 0.0000 0.0000 0.0000 0.0000 -141.3539 0.0000
# 6 0.0000 0.0000 0.0000 0.0000 0.0000 23.3046
#
#
#
# Elastic Compliance Matrix: (Units=1/GPa)
#
#
# Indices 1 2 3 4 5 6 
#
# 1 0.014300 -0.013095 -0.002277 0.000000 0.000000 0.000000
# 2 -0.013095 0.067550 -0.012356 0.000000 0.000000 0.000000
# 3 -0.002277 -0.012356 0.008764 0.000000 0.000000 0.000000
# 4 0.000000 0.000000 0.000000 -0.043784 0.000000 0.000000
# 5 0.000000 0.000000 0.000000 0.000000 -0.007074 0.000000
# 6 0.000000 0.000000 0.000000 0.000000 0.000000 0.042910
#
#
# Mechanical properties :
#
#
# Convention : Reuss Voigt Hill
#
# Bulk Modulus (GPa) = 28.44227 80.75937 54.60082
# Shear Modulus (GPa) = 33.36846 -15.74009 8.81419
#
# Velocity S-wave (km/s) = 4.28580 -2.94352 2.20270
# Velocity P-wave (km/s) = 6.33618 5.73608 6.04359
#
# Compressibility (1/GPa) = 0.03515894
#
# Stress axis : x y z
#
# Youngs Moduli (GPa) = 69.92846 14.80377 114.09828
#
# Poissons Ratio (x) = 0.19385 0.25986
# Poissons Ratio (y) = 0.91571 1.40976
# Poissons Ratio (z) = 0.15926 0.18291
#
# Static dielectric constant tensor:
#      x y z
#    x 3.517720 0.000000 0.000000 
#    y 0.000000 2.880180 0.000000 
#    z 0.000000 0.000000 4.414730 
# 
# 
# High freq. dielectric constant tensor:
#      x y z
#    x 1.723940 0.000000 0.000000 
#    y 0.000000 1.646460 0.000000 
#    z 0.000000 0.000000 1.740990 
# 
# From -- ./inp_files/43509.got.cif
#   From: 2010.03.12/outbox.cif.g09.slc.cpg/sg67_22_cif.got.tgz:43509.got - 2010.04.10 22:41:39.
