data_PCOD8278052
_publ_section_title
;
Structure prediction by ZEFSAII (Michael W. Deem and Ramdas Pophale) SiO2 
 PCOD8278052
Probable space group: C M M A
;
_chemical_formula_sum "Si O2"
_cell_formula_units_Z 72
_cell_length_a 15.953962
_cell_length_b 8.731832
_cell_length_c 24.744776
_cell_angle_alpha 90.000000
_cell_angle_beta 90.000000
_cell_angle_gamma 90.000000
_cell_volume 3447.128328
_symmetry_space_group_name_H-M "C M M A"
_symmetry_group_IT_number 67
_symmetry_cell_setting 'orthorhombic'
loop_
_space_group_symop_operation_xyz
x,y,z
-x,1/2-y,z
x,-y,-z
-x,1/2+y,-z
-x,-y,-z
x,1/2+y,-z
-x,y,z
x,1/2-y,z
1/2+x,1/2+y,z
1/2-x,-y,z
1/2+x,1/2-y,-z
1/2-x,y,-z
1/2-x,1/2-y,-z
1/2+x,y,-z
1/2-x,1/2+y,z
1/2+x,-y,z
loop_
_atom_site_type_symbol
_atom_site_label
_atom_site_fract_x
_atom_site_fract_y
_atom_site_fract_z
Si Si1 0.000000 0.067710 0.940844
Si Si2 0.340872 0.569736 0.338951
Si Si3 0.836110 0.070767 0.877716
Si Si4 0.404687 0.925775 0.223467
Si Si5 0.343195 0.067969 0.446337
O O1 0.916393 0.006854 0.910617
O O2 0.000000 0.250000 0.942789
O O3 0.000000 0.000000 0.000000
O O4 0.333994 0.750000 0.349625
O O5 0.250000 0.500000 0.329234
O O6 0.394659 0.529762 0.286128
O O7 0.386533 0.490896 0.390909
O O8 0.829130 0.250000 0.884170
O O9 0.750000 0.000000 0.900992
O O10 0.845960 0.028202 0.814570
O O11 0.500000 0.956697 0.206779
O O12 0.378746 0.750000 0.214373
O O13 0.342764 0.250000 0.449100
O O14 0.388872 0.000000 0.500000
O O15 0.250000 0.000000 0.444626
#
# Coordination Sequence:
#
# PCOD8278052 Si02
#       5
#     8  16  16  16  16
#     4  10  24  44  66  94 130 168 209 254 303 354
#     4  10  19  31  48  74 106 138 180 231 283 348
#     4  11  23  41  64  94 127 164 208 255 304 361
#     4  10  21  37  58  84 115 154 196 242 300 359
#     4  10  17  27  44  67  97 133 175 225 284 346
#
# _framework density 20.886952000000001
#
# number of rings (size 3 to 8) (size 9 to 14) (size 15 to 20)
#    0.000    1.778    1.111    6.000    0.000    5.778 
#    0.000    2.222    0.000    0.667    0.000    0.000 
#    0.000    0.000    0.000    0.000    0.000    0.000 
#
# Total GULP energy -446343.590512 kJ/mol
# GULP energy per Si atom -12398.433070 kJ/mol
# Density = 2.083941 g / cm^3
# Si number density = 20.886952 Si / 1000 Ang^3
#
#
#
# Elastic Constant Matrix: (Units=GPa)
#
#
# Indices 1 2 3 4 5 6 
#
# 1 102.6795 36.0996 51.9059 0.0000 0.0000 0.0000
# 2 36.0996 109.1215 51.7893 0.0000 0.0000 0.0000
# 3 51.9059 51.7893 140.4731 0.0000 0.0000 0.0000
# 4 0.0000 0.0000 0.0000 37.2605 0.0000 0.0000
# 5 0.0000 0.0000 0.0000 0.0000 21.9921 0.0000
# 6 0.0000 0.0000 0.0000 0.0000 0.0000 22.1952
#
#
#
# Elastic Compliance Matrix: (Units=1/GPa)
#
#
# Indices 1 2 3 4 5 6 
#
# 1 0.012453 -0.002346 -0.003736 0.000000 0.000000 0.000000
# 2 -0.002346 0.011550 -0.003391 0.000000 0.000000 0.000000
# 3 -0.003736 -0.003391 0.009750 0.000000 0.000000 0.000000
# 4 0.000000 0.000000 0.000000 0.026838 0.000000 0.000000
# 5 0.000000 0.000000 0.000000 0.000000 0.045471 0.000000
# 6 0.000000 0.000000 0.000000 0.000000 0.000000 0.045055
#
#
# Mechanical properties :
#
#
# Convention : Reuss Voigt Hill
#
# Bulk Modulus (GPa) = 67.54709 70.20707 68.87708
# Shear Modulus (GPa) = 28.57172 30.45487 29.51330
#
# Velocity S-wave (km/s) = 3.70256 3.82263 3.76307
# Velocity P-wave (km/s) = 7.11956 7.29172 7.20615
#
# Compressibility (1/GPa) = 0.01480449
#
# Stress axis : x y z
#
# Youngs Moduli (GPa) = 80.30371 86.58185 102.56781
#
# Poissons Ratio (x) = 0.20315 0.38323
# Poissons Ratio (y) = 0.18842 0.34782
# Poissons Ratio (z) = 0.30004 0.29361
#
# Static dielectric constant tensor:
#      x y z
#    x 3.613420 0.000000 0.000000 
#    y 0.000000 3.715060 0.000000 
#    z 0.000000 0.000000 4.368550 
# 
# 
# High freq. dielectric constant tensor:
#      x y z
#    x 1.792150 0.000000 0.000000 
#    y 0.000000 1.818210 0.000000 
#    z 0.000000 0.000000 1.832180 
# 
# From -- ./inp_files/44242.got.cif
#   From: 2010.03.12/outbox.cif.g09.slc.cpg/sg67_23_cif.got.tgz:44242.got - 2010.04.10 22:41:39.
