data_PCOD8278447
_publ_section_title
;
Structure prediction by ZEFSAII (Michael W. Deem and Ramdas Pophale) SiO2 
 PCOD8278447
Probable space group: C M M A
;
_chemical_formula_sum "Si O2"
_cell_formula_units_Z 68
_cell_length_a 19.857196
_cell_length_b 19.581460
_cell_length_c 9.805207
_cell_angle_alpha 90.000000
_cell_angle_beta 90.000000
_cell_angle_gamma 90.000000
_cell_volume 3812.586967
_symmetry_space_group_name_H-M "C M M A"
_symmetry_group_IT_number 67
_symmetry_cell_setting 'orthorhombic'
loop_
_space_group_symop_operation_xyz
x,y,z
-x,1/2-y,z
x,-y,-z
-x,1/2+y,-z
-x,-y,-z
x,1/2+y,-z
-x,y,z
x,1/2-y,z
1/2+x,1/2+y,z
1/2-x,-y,z
1/2+x,1/2-y,-z
1/2-x,y,-z
1/2-x,1/2-y,-z
1/2+x,y,-z
1/2-x,1/2+y,z
1/2+x,-y,z
loop_
_atom_site_type_symbol
_atom_site_label
_atom_site_fract_x
_atom_site_fract_y
_atom_site_fract_z
Si Si1 0.826303 0.328274 0.342189
Si Si2 0.872148 0.432823 0.132644
Si Si3 0.576502 0.079195 0.159702
Si Si4 0.750000 0.500000 0.000000
Si Si5 0.829642 0.171510 0.655470
O O1 0.842791 0.250000 0.307770
O O2 0.873033 0.375067 0.247556
O O3 0.844769 0.344774 0.497900
O O4 0.748196 0.343613 0.313123
O O5 0.910559 0.499323 0.189433
O O6 0.795573 0.452305 0.095447
O O7 0.909597 0.404228 0.998833
O O8 0.500000 0.097767 0.195968
O O9 0.624973 0.123879 0.252259
O O10 0.846694 0.250000 0.688477
#
# Coordination Sequence:
#
# PCOD8278447 Si02
#       5
#    16  16  16   4  16
#     4   9  18  34  55  79 104 128 162 212 262 301
#     4  10  18  32  52  76 102 132 170 213 251 292
#     4  10  21  36  52  71 102 141 173 204 245 299
#     4   8  16  28  48  78 104 128 164 210 256 296
#     4   9  19  35  54  77 105 134 164 204 256 308
#
# _framework density 17.835657999999999
#
# number of rings (size 3 to 8) (size 9 to 14) (size 15 to 20)
#    0.000    2.824    0.000    5.647    0.000    2.353 
#    0.000    8.824    0.000    4.941    0.000    0.000 
#    0.000    0.000    0.000    0.000    0.000    0.000 
#
# Total GULP energy -421567.114345 kJ/mol
# GULP energy per Si atom -12399.032775 kJ/mol
# Density = 1.779506 g / cm^3
# Si number density = 17.835658 Si / 1000 Ang^3
#
#
#
# Elastic Constant Matrix: (Units=GPa)
#
#
# Indices 1 2 3 4 5 6 
#
# 1 69.5204 39.5074 38.1372 0.0000 0.0000 0.0000
# 2 39.5074 103.3420 89.3634 0.0000 0.0000 0.0000
# 3 38.1372 89.3634 105.1755 0.0000 0.0000 0.0000
# 4 0.0000 0.0000 0.0000 46.2849 0.0000 0.0000
# 5 0.0000 0.0000 0.0000 0.0000 4.6219 0.0000
# 6 0.0000 0.0000 0.0000 0.0000 0.0000 2.5633
#
#
#
# Elastic Compliance Matrix: (Units=1/GPa)
#
#
# Indices 1 2 3 4 5 6 
#
# 1 0.018570 -0.004812 -0.002645 0.000000 0.000000 0.000000
# 2 -0.004812 0.037725 -0.030309 0.000000 0.000000 0.000000
# 3 -0.002645 -0.030309 0.036219 0.000000 0.000000 0.000000
# 4 0.000000 0.000000 0.000000 0.021605 0.000000 0.000000
# 5 0.000000 0.000000 0.000000 0.000000 0.216362 0.000000
# 6 0.000000 0.000000 0.000000 0.000000 0.000000 0.390120
#
#
# Mechanical properties :
#
#
# Convention : Reuss Voigt Hill
#
# Bulk Modulus (GPa) = 58.88327 68.00599 63.44463
# Shear Modulus (GPa) = 6.23601 18.09601 12.16601
#
# Velocity S-wave (km/s) = 1.87189 3.18873 2.61457
# Velocity P-wave (km/s) = 6.14475 7.19509 6.69056
#
# Compressibility (1/GPa) = 0.01698275
#
# Stress axis : x y z
#
# Youngs Moduli (GPa) = 53.85079 26.50734 27.60966
#
# Poissons Ratio (x) = 0.12756 0.07302
# Poissons Ratio (y) = 0.25913 0.83682
# Poissons Ratio (z) = 0.14243 0.80341
#
# Static dielectric constant tensor:
#      x y z
#    x 3.146060 0.000000 0.000000 
#    y 0.000000 3.204170 0.000000 
#    z 0.000000 0.000000 3.204590 
# 
# 
# High freq. dielectric constant tensor:
#      x y z
#    x 1.679170 0.000000 0.000000 
#    y 0.000000 1.687070 0.000000 
#    z 0.000000 0.000000 1.687450 
# 
# From -- ./inp_files/10782.got.cif
#   From: 2010.03.12/outbox.cif.g09.slc.cpg/sg67_6_cif.got.tgz:10782.got - 2010.04.10 22:41:39.
