data_PCOD8278874
_publ_section_title
;
Structure prediction by ZEFSAII (Michael W. Deem and Ramdas Pophale) SiO2 
 PCOD8278874
Probable space group: C M M A
;
_chemical_formula_sum "Si O2"
_cell_formula_units_Z 96
_cell_length_a 25.545772
_cell_length_b 14.375161
_cell_length_c 15.653884
_cell_angle_alpha 90.000000
_cell_angle_beta 90.000000
_cell_angle_gamma 90.000000
_cell_volume 5748.491061
_symmetry_space_group_name_H-M "C M M A"
_symmetry_group_IT_number 67
_symmetry_cell_setting 'orthorhombic'
loop_
_space_group_symop_operation_xyz
x,y,z
-x,1/2-y,z
x,-y,-z
-x,1/2+y,-z
-x,-y,-z
x,1/2+y,-z
-x,y,z
x,1/2-y,z
1/2+x,1/2+y,z
1/2-x,-y,z
1/2+x,1/2-y,-z
1/2-x,y,-z
1/2-x,1/2-y,-z
1/2+x,y,-z
1/2-x,1/2+y,z
1/2+x,-y,z
loop_
_atom_site_type_symbol
_atom_site_label
_atom_site_fract_x
_atom_site_fract_y
_atom_site_fract_z
Si Si1 0.436173 0.750000 0.330993
Si Si2 0.688229 0.490138 0.863375
Si Si3 0.688160 0.853975 0.988920
Si Si4 0.192683 0.140840 0.470167
Si Si5 0.401600 0.935493 0.570268
Si Si6 0.133499 0.421049 0.306434
Si Si7 0.557963 0.750000 0.523294
O O1 0.500000 0.750000 0.319450
O O2 0.409494 0.659474 0.287314
O O3 0.414044 0.750000 0.429959
O O4 0.750000 0.500000 0.848595
O O5 0.670941 0.590170 0.903104
O O6 0.660653 0.461968 0.776554
O O7 0.669278 0.409845 0.928120
O O8 0.663837 0.750000 0.985281
O O9 0.750000 0.848518 0.000000
O O10 0.184980 0.250000 0.484328
O O11 0.250000 0.109505 0.500000
O O12 0.156040 0.086349 0.535389
O O13 0.178545 0.113611 0.372270
O O14 0.431714 0.839038 0.582362
O O15 0.431174 0.000000 0.500000
O O16 0.398917 0.990890 0.658145
O O17 0.500000 0.750000 0.491037
#
# Coordination Sequence:
#
# PCOD8278874 Si02
#       7
#     8  16  16  16  16  16   8
#     4  11  22  38  54  72 100 132 184 247 271 291
#     4   9  19  31  49  80 110 137 170 204 246 310
#     4   8  15  32  52  73 108 143 169 201 243 298
#     4  10  19  32  47  64 101 145 174 205 251 302
#     4  10  19  33  47  69  97 128 169 215 253 299
#     4  11  21  34  51  77 104 132 181 215 261 319
#     4  11  20  36  54  68  89 128 179 223 272 309
#
# _framework density 16.700035
#
# number of rings (size 3 to 8) (size 9 to 14) (size 15 to 20)
#    0.000    2.167    5.000    1.000    3.500    3.333 
#    1.500    0.000    0.000    0.000    0.000    2.333 
#    0.000    0.000    0.000    0.000    0.000    0.000 
#
# Total GULP energy -594628.486014 kJ/mol
# GULP energy per Si atom -12388.093459 kJ/mol
# Density = 1.666202 g / cm^3
# Si number density = 16.700035 Si / 1000 Ang^3
#
#
#
# Elastic Constant Matrix: (Units=GPa)
#
#
# Indices 1 2 3 4 5 6 
#
# 1 55.9802 30.5373 29.2588 0.0000 0.0000 0.0000
# 2 30.5373 154.1643 54.4057 0.0000 0.0000 0.0000
# 3 29.2588 54.4057 94.5468 0.0000 0.0000 0.0000
# 4 0.0000 0.0000 0.0000 21.0923 0.0000 0.0000
# 5 0.0000 0.0000 0.0000 0.0000 10.8448 0.0000
# 6 0.0000 0.0000 0.0000 0.0000 0.0000 -28.2442
#
#
#
# Elastic Compliance Matrix: (Units=1/GPa)
#
#
# Indices 1 2 3 4 5 6 
#
# 1 0.022028 -0.002456 -0.005403 0.000000 0.000000 0.000000
# 2 -0.002456 0.008413 -0.004081 0.000000 0.000000 0.000000
# 3 -0.005403 -0.004081 0.014597 0.000000 0.000000 0.000000
# 4 0.000000 0.000000 0.000000 0.047411 0.000000 0.000000
# 5 0.000000 0.000000 0.000000 0.000000 0.092210 0.000000
# 6 0.000000 0.000000 0.000000 0.000000 0.000000 -0.035406
#
#
# Mechanical properties :
#
#
# Convention : Reuss Voigt Hill
#
# Bulk Modulus (GPa) = 47.26660 59.23278 53.24969
# Shear Modulus (GPa) = 27.74888 13.43788 20.59338
#
# Velocity S-wave (km/s) = 4.08070 2.83973 3.51541
# Velocity P-wave (km/s) = 7.11109 6.80425 6.95936
#
# Compressibility (1/GPa) = 0.02115659
#
# Stress axis : x y z
#
# Youngs Moduli (GPa) = 45.39778 118.85710 68.50559
#
# Poissons Ratio (x) = 0.29197 0.37015
# Poissons Ratio (y) = 0.11152 0.27959
# Poissons Ratio (z) = 0.24529 0.48508
#
# Static dielectric constant tensor:
#      x y z
#    x 2.903120 0.000000 0.000000 
#    y 0.000000 3.484520 0.000000 
#    z 0.000000 0.000000 2.858910 
# 
# 
# High freq. dielectric constant tensor:
#      x y z
#    x 1.609220 0.000000 0.000000 
#    y 0.000000 1.670970 0.000000 
#    z 0.000000 0.000000 1.609850 
# 
# From -- ./inp_files/30754.got.cif
#   From: 2010.03.12/outbox.cif.g09.slc.cpg/sg67_16_cif.got.tgz:30754.got - 2010.04.10 22:41:39.
