data_PCOD8278716
_publ_section_title
;
Structure prediction by ZEFSAII (Michael W. Deem and Ramdas Pophale) SiO2 
 PCOD8278716
Probable space group: C M M A
;
_chemical_formula_sum "Si O2"
_cell_formula_units_Z 128
_cell_length_a 22.828150
_cell_length_b 25.534038
_cell_length_c 12.594647
_cell_angle_alpha 90.000000
_cell_angle_beta 90.000000
_cell_angle_gamma 90.000000
_cell_volume 7341.354868
_symmetry_space_group_name_H-M "C M M A"
_symmetry_group_IT_number 67
_symmetry_cell_setting 'orthorhombic'
loop_
_space_group_symop_operation_xyz
x,y,z
-x,1/2-y,z
x,-y,-z
-x,1/2+y,-z
-x,-y,-z
x,1/2+y,-z
-x,y,z
x,1/2-y,z
1/2+x,1/2+y,z
1/2-x,-y,z
1/2+x,1/2-y,-z
1/2-x,y,-z
1/2-x,1/2-y,-z
1/2+x,y,-z
1/2-x,1/2+y,z
1/2+x,-y,z
loop_
_atom_site_type_symbol
_atom_site_label
_atom_site_fract_x
_atom_site_fract_y
_atom_site_fract_z
Si Si1 0.436077 0.310940 0.512342
Si Si2 0.068687 0.879828 0.882375
Si Si3 0.874906 0.636799 0.328995
Si Si4 0.068108 0.105205 0.879379
Si Si5 0.933085 0.467155 0.599985
Si Si6 0.566054 0.007551 0.827069
Si Si7 0.258749 0.310468 0.375787
Si Si8 0.132805 0.688785 0.713516
O O1 0.500000 0.337620 0.511774
O O2 0.441323 0.250000 0.532172
O O3 0.405322 0.318750 0.399535
O O4 0.399855 0.335053 0.610373
O O5 0.095388 0.938061 0.863353
O O6 0.108737 0.839447 0.818383
O O7 0.000000 0.874895 0.848809
O O8 0.076250 0.867280 0.007243
O O9 0.898074 0.639385 0.208347
O O10 0.889522 0.581406 0.383970
O O11 0.806066 0.649248 0.328313
O O12 0.000000 0.102536 0.844705
O O13 0.093487 0.045286 0.879094
O O14 0.910495 0.500000 0.500000
O O15 0.929726 0.505355 0.700289
O O16 0.000000 0.447188 0.583425
O O17 0.500000 0.011154 0.869033
O O18 0.278693 0.250000 0.362955
O O19 0.250000 0.322719 0.500000
O O20 0.201229 0.321474 0.305874
O O21 0.120051 0.750000 0.728551
#
# Coordination Sequence:
#
# PCOD8278716 Si02
#       8
#    16  16  16  16  16  16  16  16
#     4  10  19  30  49  78 106 129 160 209 266 324
#     4  10  19  32  55  79 105 142 178 212 264 317
#     4  11  19  32  54  75 103 137 176 212 260 310
#     4   9  18  33  51  79 112 139 170 215 260 310
#     4   9  18  29  45  77 116 141 162 207 268 323
#     4   8  15  28  48  75 105 138 174 205 244 311
#     4  10  20  37  57  75  97 135 182 224 261 306
#     4  10  21  36  52  75 104 133 175 222 266 315
#
# _framework density 17.435473999999999
#
# number of rings (size 3 to 8) (size 9 to 14) (size 15 to 20)
#    0.000    2.375    1.250    3.000    1.750    2.250 
#    0.000    1.875    0.000    9.375    0.000    3.500 
#    0.000    0.000    0.000    0.000    0.000    0.000 
#
# Total GULP energy -793335.665485 kJ/mol
# GULP energy per Si atom -12395.869773 kJ/mol
# Density = 1.739579 g / cm^3
# Si number density = 17.435474 Si / 1000 Ang^3
#
#
#
# Elastic Constant Matrix: (Units=GPa)
#
#
# Indices 1 2 3 4 5 6 
#
# 1 96.5236 45.7299 52.5478 0.0000 0.0000 0.0000
# 2 45.7299 57.7576 47.8170 0.0000 0.0000 0.0000
# 3 52.5478 47.8170 115.0196 0.0000 0.0000 0.0000
# 4 0.0000 0.0000 0.0000 28.0068 0.0000 0.0000
# 5 0.0000 0.0000 0.0000 0.0000 22.5665 0.0000
# 6 0.0000 0.0000 0.0000 0.0000 0.0000 24.7139
#
#
#
# Elastic Compliance Matrix: (Units=1/GPa)
#
#
# Indices 1 2 3 4 5 6 
#
# 1 0.017404 -0.010974 -0.003389 0.000000 0.000000 0.000000
# 2 -0.010974 0.033320 -0.008838 0.000000 0.000000 0.000000
# 3 -0.003389 -0.008838 0.013917 0.000000 0.000000 0.000000
# 4 0.000000 0.000000 0.000000 0.035706 0.000000 0.000000
# 5 0.000000 0.000000 0.000000 0.000000 0.044313 0.000000
# 6 0.000000 0.000000 0.000000 0.000000 0.000000 0.040463
#
#
# Mechanical properties :
#
#
# Convention : Reuss Voigt Hill
#
# Bulk Modulus (GPa) = 54.83119 62.38782 58.60950
# Shear Modulus (GPa) = 21.04322 23.27117 22.15719
#
# Velocity S-wave (km/s) = 3.47784 3.65732 3.56871
# Velocity P-wave (km/s) = 6.90243 7.32765 7.11822
#
# Compressibility (1/GPa) = 0.01823780
#
# Stress axis : x y z
#
# Youngs Moduli (GPa) = 57.45646 30.01206 71.85537
#
# Poissons Ratio (x) = 0.32936 0.24352
# Poissons Ratio (y) = 0.63055 0.63508
# Poissons Ratio (z) = 0.19472 0.26526
#
# Static dielectric constant tensor:
#      x y z
#    x 3.086890 0.000000 0.000000 
#    y 0.000000 3.147210 0.000000 
#    z 0.000000 0.000000 3.245540 
# 
# 
# High freq. dielectric constant tensor:
#      x y z
#    x 1.640130 0.000000 0.000000 
#    y 0.000000 1.663920 0.000000 
#    z 0.000000 0.000000 1.677100 
# 
# From -- ./inp_files/22430.got.cif
#   From: 2010.03.12/outbox.cif.g09.slc.cpg/sg67_12_cif.got.tgz:22430.got - 2010.04.10 22:41:39.
