data_PCOD8278550
_publ_section_title
;
Structure prediction by ZEFSAII (Michael W. Deem and Ramdas Pophale) SiO2 
 PCOD8278550
Probable space group: C M M A
;
_chemical_formula_sum "Si O2"
_cell_formula_units_Z 88
_cell_length_a 14.554603
_cell_length_b 23.064005
_cell_length_c 15.102015
_cell_angle_alpha 90.000000
_cell_angle_beta 90.000000
_cell_angle_gamma 90.000000
_cell_volume 5069.556699
_symmetry_space_group_name_H-M "C M M A"
_symmetry_group_IT_number 67
_symmetry_cell_setting 'orthorhombic'
loop_
_space_group_symop_operation_xyz
x,y,z
-x,1/2-y,z
x,-y,-z
-x,1/2+y,-z
-x,-y,-z
x,1/2+y,-z
-x,y,z
x,1/2-y,z
1/2+x,1/2+y,z
1/2-x,-y,z
1/2+x,1/2-y,-z
1/2-x,y,-z
1/2-x,1/2-y,-z
1/2+x,y,-z
1/2-x,1/2+y,z
1/2+x,-y,z
loop_
_atom_site_type_symbol
_atom_site_label
_atom_site_fract_x
_atom_site_fract_y
_atom_site_fract_z
Si Si1 0.000000 0.445862 0.350205
Si Si2 0.500000 0.566783 0.986122
Si Si3 0.333434 0.314862 0.894394
Si Si4 0.000000 0.874515 0.825758
Si Si5 0.000000 0.583286 0.368321
Si Si6 0.000000 0.185699 0.774157
Si Si7 0.147229 0.931876 0.507456
Si Si8 0.861508 0.149158 0.914859
O O1 0.000000 0.419402 0.253560
O O2 0.091097 0.421869 0.401063
O O3 0.000000 0.515805 0.337626
O O4 0.409479 0.586672 0.931271
O O5 0.500000 0.500000 0.000000
O O6 0.500000 0.591174 0.083838
O O7 0.301806 0.250000 0.870252
O O8 0.408928 0.334740 0.822886
O O9 0.245641 0.357935 0.889638
O O10 0.373622 0.314549 0.994203
O O11 0.909336 0.595102 0.426256
O O12 0.000000 0.630958 0.291607
O O13 0.910191 0.182727 0.835353
O O14 0.000000 0.250000 0.727895
O O15 0.250000 0.904421 0.500000
O O16 0.154612 0.000000 0.500000
#
# Coordination Sequence:
#
# PCOD8278550 Si02
#       8
#     8   8  16   8   8   8  16  16
#     4   9  18  32  50  74 105 127 164 208 251 320
#     4   9  19  34  51  67 106 145 172 208 258 321
#     4  10  18  34  52  70  98 133 183 227 256 296
#     4  10  21  30  48  77 103 137 169 212 269 304
#     4   9  19  31  51  74  95 130 156 200 261 301
#     4  11  20  31  49  75 101 126 168 215 260 307
#     4   8  15  32  55  75  94 124 161 198 245 310
#     4   9  19  32  51  73  92 136 182 215 259 292
#
# _framework density 17.358519999999999
#
# number of rings (size 3 to 8) (size 9 to 14) (size 15 to 20)
#    0.000    2.727    0.000    4.091    2.545    1.455 
#    0.000    7.273    0.000    4.909    0.000    0.000 
#    0.000    0.000    0.000    0.000    0.000    0.000 
#
# Total GULP energy -545156.087951 kJ/mol
# GULP energy per Si atom -12389.911090 kJ/mol
# Density = 1.731901 g / cm^3
# Si number density = 17.358520 Si / 1000 Ang^3
#
#
#
# Elastic Constant Matrix: (Units=GPa)
#
#
# Indices 1 2 3 4 5 6 
#
# 1 155.2144 48.8169 49.1395 0.0000 0.0000 0.0000
# 2 48.8169 98.6375 33.2250 0.0000 0.0000 0.0000
# 3 49.1395 33.2250 79.8066 0.0000 0.0000 0.0000
# 4 0.0000 0.0000 0.0000 21.2844 0.0000 0.0000
# 5 0.0000 0.0000 0.0000 0.0000 10.0598 0.0000
# 6 0.0000 0.0000 0.0000 0.0000 0.0000 13.9695
#
#
#
# Elastic Compliance Matrix: (Units=1/GPa)
#
#
# Indices 1 2 3 4 5 6 
#
# 1 0.008660 -0.002896 -0.004127 0.000000 0.000000 0.000000
# 2 -0.002896 0.012760 -0.003529 0.000000 0.000000 0.000000
# 3 -0.004127 -0.003529 0.016540 0.000000 0.000000 0.000000
# 4 0.000000 0.000000 0.000000 0.046983 0.000000 0.000000
# 5 0.000000 0.000000 0.000000 0.000000 0.099405 0.000000
# 6 0.000000 0.000000 0.000000 0.000000 0.000000 0.071584
#
#
# Mechanical properties :
#
#
# Convention : Reuss Voigt Hill
#
# Bulk Modulus (GPa) = 59.32203 66.22460 62.77331
# Shear Modulus (GPa) = 17.68940 22.56123 20.12531
#
# Velocity S-wave (km/s) = 3.19574 3.60908 3.40868
# Velocity P-wave (km/s) = 6.91851 7.45662 7.19260
#
# Compressibility (1/GPa) = 0.01685714
#
# Stress axis : x y z
#
# Youngs Moduli (GPa) = 115.47424 78.36920 60.45791
#
# Poissons Ratio (x) = 0.22695 0.24948
# Poissons Ratio (y) = 0.33440 0.21337
# Poissons Ratio (z) = 0.47651 0.27658
#
# Static dielectric constant tensor:
#      x y z
#    x 3.884770 0.000000 0.000000 
#    y 0.000000 3.134400 0.000000 
#    z 0.000000 0.000000 3.030880 
# 
# 
# High freq. dielectric constant tensor:
#      x y z
#    x 1.685420 0.000000 0.000000 
#    y 0.000000 1.639580 0.000000 
#    z 0.000000 0.000000 1.646360 
# 
# From -- ./inp_files/27416.got.cif
#   From: 2010.03.12/outbox.cif.g09.slc.cpg/sg67_14_cif.got.tgz:27416.got - 2010.04.10 22:41:39.
