data_PCOD8278723
_publ_section_title
;
Structure prediction by ZEFSAII (Michael W. Deem and Ramdas Pophale) SiO2 
 PCOD8278723
Probable space group: C M M A
;
_chemical_formula_sum "Si O2"
_cell_formula_units_Z 96
_cell_length_a 10.358797
_cell_length_b 18.800694
_cell_length_c 27.865767
_cell_angle_alpha 90.000000
_cell_angle_beta 90.000000
_cell_angle_gamma 90.000000
_cell_volume 5426.929811
_symmetry_space_group_name_H-M "C M M A"
_symmetry_group_IT_number 67
_symmetry_cell_setting 'orthorhombic'
loop_
_space_group_symop_operation_xyz
x,y,z
-x,1/2-y,z
x,-y,-z
-x,1/2+y,-z
-x,-y,-z
x,1/2+y,-z
-x,y,z
x,1/2-y,z
1/2+x,1/2+y,z
1/2-x,-y,z
1/2+x,1/2-y,-z
1/2-x,y,-z
1/2-x,1/2-y,-z
1/2+x,y,-z
1/2-x,1/2+y,z
1/2+x,-y,z
loop_
_atom_site_type_symbol
_atom_site_label
_atom_site_fract_x
_atom_site_fract_y
_atom_site_fract_z
Si Si1 0.856338 0.665376 0.036320
Si Si2 0.748186 0.165688 0.553685
Si Si3 0.000000 0.165292 0.388612
Si Si4 0.148980 0.167315 0.855507
Si Si5 0.500000 0.419458 0.291666
Si Si6 0.000000 0.834206 0.389219
Si Si7 0.000000 0.085581 0.288967
Si Si8 0.752147 0.082655 0.770106
O O1 0.857462 0.750000 0.033296
O O2 0.819900 0.642259 0.090319
O O3 0.000000 0.637078 0.022810
O O4 0.750000 0.632840 0.000000
O O5 0.741793 0.250000 0.550354
O O6 0.750000 0.133316 0.500000
O O7 0.624448 0.137183 0.582516
O O8 0.875998 0.140765 0.580970
O O9 0.000000 0.250000 0.383425
O O10 0.000000 0.132481 0.336213
O O11 0.179484 0.250000 0.849039
O O12 0.242045 0.124381 0.820134
O O13 0.000000 0.151055 0.843374
O O14 0.500000 0.374617 0.339595
O O15 0.500000 0.502969 0.303791
O O16 0.374235 0.397029 0.262203
O O17 0.000000 0.750000 0.379588
O O18 0.875512 0.106052 0.257914
O O19 0.750000 0.000000 0.782872
#
# Coordination Sequence:
#
# PCOD8278723 Si02
#       8
#    16  16   8  16   8   8   8  16
#     4   8  14  26  45  70 100 131 161 197 246 300
#     4   9  17  30  49  73  99 125 155 193 240 293
#     4  10  19  32  50  70  96 127 155 194 245 289
#     4   9  17  31  53  78 101 130 170 213 252 289
#     4  10  20  35  53  69  95 131 168 205 243 296
#     4  10  19  30  50  78  96 119 165 208 237 281
#     4  10  22  35  49  71  99 133 164 199 253 304
#     4  10  20  35  52  71  97 134 172 204 249 307
#
# _framework density 17.68956
#
# number of rings (size 3 to 8) (size 9 to 14) (size 15 to 20)
#    0.000    2.667    0.833    2.500    0.000    3.333 
#    1.500    0.000    0.000    3.500    0.000    2.333 
#    0.000    0.000    0.000    0.000    0.000    0.000 
#
# Total GULP energy -595190.543756 kJ/mol
# GULP energy per Si atom -12399.802995 kJ/mol
# Density = 1.764930 g / cm^3
# Si number density = 17.689560 Si / 1000 Ang^3
#
#
#
# Elastic Constant Matrix: (Units=GPa)
#
#
# Indices 1 2 3 4 5 6 
#
# 1 164.8499 32.5115 98.7535 0.0000 0.0000 0.0000
# 2 32.5115 30.0784 48.4276 0.0000 0.0000 0.0000
# 3 98.7535 48.4276 170.5874 0.0000 0.0000 0.0000
# 4 0.0000 0.0000 0.0000 -7.7637 0.0000 0.0000
# 5 0.0000 0.0000 0.0000 0.0000 34.7500 0.0000
# 6 0.0000 0.0000 0.0000 0.0000 0.0000 3.6854
#
#
#
# Elastic Compliance Matrix: (Units=1/GPa)
#
#
# Indices 1 2 3 4 5 6 
#
# 1 0.009394 -0.002575 -0.004707 0.000000 0.000000 0.000000
# 2 -0.002575 0.061941 -0.016094 0.000000 0.000000 0.000000
# 3 -0.004707 -0.016094 0.013156 0.000000 0.000000 0.000000
# 4 0.000000 0.000000 0.000000 -0.128804 0.000000 0.000000
# 5 0.000000 0.000000 0.000000 0.000000 0.028777 0.000000
# 6 0.000000 0.000000 0.000000 0.000000 0.000000 0.271341
#
#
# Mechanical properties :
#
#
# Convention : Reuss Voigt Hill
#
# Bulk Modulus (GPa) = 26.49751 80.54456 53.52103
# Shear Modulus (GPa) = 15.86615 18.52252 17.19434
#
# Velocity S-wave (km/s) = 2.99811 3.23938 3.12108
# Velocity P-wave (km/s) = 5.19583 7.72157 6.58100
#
# Compressibility (1/GPa) = 0.03773939
#
# Stress axis : x y z
#
# Youngs Moduli (GPa) = 106.45398 16.14428 76.01212
#
# Poissons Ratio (x) = 0.04157 0.35779
# Poissons Ratio (y) = 0.27413 1.22331
# Poissons Ratio (z) = 0.50108 0.25982
#
# Static dielectric constant tensor:
#      x y z
#    x 3.336320 0.000000 0.000000 
#    y 0.000000 2.853800 0.000000 
#    z 0.000000 0.000000 3.372090 
# 
# 
# High freq. dielectric constant tensor:
#      x y z
#    x 1.694400 0.000000 0.000000 
#    y 0.000000 1.639550 0.000000 
#    z 0.000000 0.000000 1.695280 
# 
# From -- ./inp_files/37966.got.cif
#   From: 2010.03.12/outbox.cif.g09.slc.cpg/sg67_19_cif.got.tgz:37966.got - 2010.04.10 22:41:39.
