data_PCOD8278078
_publ_section_title
;
Structure prediction by ZEFSAII (Michael W. Deem and Ramdas Pophale) SiO2 
 PCOD8278078
Probable space group: C M M A
;
_chemical_formula_sum "Si O2"
_cell_formula_units_Z 112
_cell_length_a 23.408188
_cell_length_b 25.954713
_cell_length_c 11.729445
_cell_angle_alpha 90.000000
_cell_angle_beta 90.000000
_cell_angle_gamma 90.000000
_cell_volume 7126.257169
_symmetry_space_group_name_H-M "C M M A"
_symmetry_group_IT_number 67
_symmetry_cell_setting 'orthorhombic'
loop_
_space_group_symop_operation_xyz
x,y,z
-x,1/2-y,z
x,-y,-z
-x,1/2+y,-z
-x,-y,-z
x,1/2+y,-z
-x,y,z
x,1/2-y,z
1/2+x,1/2+y,z
1/2-x,-y,z
1/2+x,1/2-y,-z
1/2-x,y,-z
1/2-x,1/2-y,-z
1/2+x,y,-z
1/2-x,1/2+y,z
1/2+x,-y,z
loop_
_atom_site_type_symbol
_atom_site_label
_atom_site_fract_x
_atom_site_fract_y
_atom_site_fract_z
Si Si1 0.067440 0.806927 0.678854
Si Si2 0.134046 0.070450 0.707104
Si Si3 0.934222 0.447117 0.934746
Si Si4 0.066769 0.115286 0.513195
Si Si5 0.877155 0.455146 0.335688
Si Si6 0.746508 0.439080 0.627221
Si Si7 0.565594 0.605868 0.158121
O O1 0.095669 0.750000 0.684629
O O2 0.082928 0.833108 0.557416
O O3 0.090993 0.841683 0.785085
O O4 0.000000 0.801648 0.689920
O O5 0.109476 0.066074 0.834046
O O6 0.100175 0.113467 0.633868
O O7 0.202094 0.083959 0.706030
O O8 0.127733 0.015888 0.642812
O O9 0.000000 0.449637 0.890787
O O10 0.918566 0.500000 0.000000
O O11 0.926197 0.399014 0.022404
O O12 0.084494 0.066444 0.437671
O O13 0.000000 0.112690 0.540707
O O14 0.816171 0.425478 0.325994
O O15 0.906791 0.444899 0.214523
O O16 0.750000 0.500000 0.623516
O O17 0.750000 0.415796 0.500000
O O18 0.500000 0.603335 0.192933
#
# Coordination Sequence:
#
# PCOD8278078 Si02
#       7
#    16  16  16  16  16  16  16
#     4   8  15  29  47  66  89 114 145 191 236 272
#     4  11  19  28  43  62  92 129 154 178 221 271
#     4  10  19  30  43  62  95 130 153 182 222 263
#     4  10  19  26  41  70  91 110 146 187 229 282
#     4  10  17  28  43  61  89 121 157 188 216 261
#     4   9  17  29  41  57  84 126 158 184 219 254
#     4   9  17  29  46  67  89 118 154 189 225 265
#
# _framework density 15.716525000000001
#
# number of rings (size 3 to 8) (size 9 to 14) (size 15 to 20)
#    0.000    2.429    2.857    2.143    0.000    2.286 
#    0.000    0.714    0.000    0.857    0.000   12.000 
#    0.000    4.571    0.000    0.000    0.000    0.000 
#
# Total GULP energy -693847.885650 kJ/mol
# GULP energy per Si atom -12390.140815 kJ/mol
# Density = 1.568075 g / cm^3
# Si number density = 15.716525 Si / 1000 Ang^3
#
#
#
# Elastic Constant Matrix: (Units=GPa)
#
#
# Indices 1 2 3 4 5 6 
#
# 1 72.1562 14.8023 42.0985 0.0000 0.0000 0.0000
# 2 14.8023 60.5724 21.8417 0.0000 0.0000 0.0000
# 3 42.0985 21.8417 90.0882 0.0000 0.0000 0.0000
# 4 0.0000 0.0000 0.0000 12.7499 0.0000 0.0000
# 5 0.0000 0.0000 0.0000 0.0000 22.6109 0.0000
# 6 0.0000 0.0000 0.0000 0.0000 0.0000 6.5237
#
#
#
# Elastic Compliance Matrix: (Units=1/GPa)
#
#
# Indices 1 2 3 4 5 6 
#
# 1 0.019193 -0.001596 -0.008582 0.000000 0.000000 0.000000
# 2 -0.001596 0.018223 -0.003673 0.000000 0.000000 0.000000
# 3 -0.008582 -0.003673 0.016001 0.000000 0.000000 0.000000
# 4 0.000000 0.000000 0.000000 0.078432 0.000000 0.000000
# 5 0.000000 0.000000 0.000000 0.000000 0.044226 0.000000
# 6 0.000000 0.000000 0.000000 0.000000 0.000000 0.153287
#
#
# Mechanical properties :
#
#
# Convention : Reuss Voigt Hill
#
# Bulk Modulus (GPa) = 38.88490 42.25575 40.57033
# Shear Modulus (GPa) = 13.67476 17.98184 15.82830
#
# Velocity S-wave (km/s) = 2.95293 3.38618 3.17695
# Velocity P-wave (km/s) = 6.03502 6.49868 6.27114
#
# Compressibility (1/GPa) = 0.02571692
#
# Stress axis : x y z
#
# Youngs Moduli (GPa) = 52.10134 54.87450 62.49548
#
# Poissons Ratio (x) = 0.08756 0.53635
# Poissons Ratio (y) = 0.08314 0.22952
# Poissons Ratio (z) = 0.44715 0.20153
#
# Static dielectric constant tensor:
#      x y z
#    x 3.132870 0.000000 0.000000 
#    y 0.000000 2.919560 0.000000 
#    z 0.000000 0.000000 2.966610 
# 
# 
# High freq. dielectric constant tensor:
#      x y z
#    x 1.595320 0.000000 0.000000 
#    y 0.000000 1.557950 0.000000 
#    z 0.000000 0.000000 1.595870 
# 
# From -- ./inp_files/21235.got.cif
#   From: 2010.03.12/outbox.cif.g09.slc.cpg/sg67_11_cif.got.tgz:21235.got - 2010.04.10 22:41:39.
