data_PCOD8278746
_publ_section_title
;
Structure prediction by ZEFSAII (Michael W. Deem and Ramdas Pophale) SiO2 
 PCOD8278746
Probable space group: C M M A
;
_chemical_formula_sum "Si O2"
_cell_formula_units_Z 80
_cell_length_a 20.136123
_cell_length_b 8.775850
_cell_length_c 25.814775
_cell_angle_alpha 90.000000
_cell_angle_beta 90.000000
_cell_angle_gamma 90.000000
_cell_volume 4561.770066
_symmetry_space_group_name_H-M "C M M A"
_symmetry_group_IT_number 67
_symmetry_cell_setting 'orthorhombic'
loop_
_space_group_symop_operation_xyz
x,y,z
-x,1/2-y,z
x,-y,-z
-x,1/2+y,-z
-x,-y,-z
x,1/2+y,-z
-x,y,z
x,1/2-y,z
1/2+x,1/2+y,z
1/2-x,-y,z
1/2+x,1/2-y,-z
1/2-x,y,-z
1/2-x,1/2-y,-z
1/2+x,y,-z
1/2-x,1/2+y,z
1/2+x,-y,z
loop_
_atom_site_type_symbol
_atom_site_label
_atom_site_fract_x
_atom_site_fract_y
_atom_site_fract_z
Si Si1 0.177858 0.927503 0.950614
Si Si2 0.322019 0.071025 0.836605
Si Si3 0.574158 0.431291 0.754008
Si Si4 0.926126 0.430834 0.361598
Si Si5 0.679274 0.567642 0.445041
O O1 0.183237 0.750000 0.960596
O O2 0.147036 0.963201 0.893932
O O3 0.250000 0.000000 0.949855
O O4 0.137800 0.000000 0.000000
O O5 0.313369 0.250000 0.828632
O O6 0.373245 0.000303 0.794935
O O7 0.250000 0.000000 0.828050
O O8 0.500000 0.490117 0.767664
O O9 0.574983 0.250000 0.756863
O O10 0.593887 0.486276 0.696140
O O11 0.926393 0.250000 0.362931
O O12 0.873517 0.493130 0.403029
O O13 0.000000 0.491374 0.375628
O O14 0.656758 0.500000 0.500000
O O15 0.683286 0.750000 0.448201
O O16 0.750000 0.500000 0.428405
#
# Coordination Sequence:
#
# PCOD8278746 Si02
#       5
#    16  16  16  16  16
#     4   9  15  23  36  56  82 109 138 171 209 251
#     4   9  17  27  42  66  89 110 140 178 217 255
#     4   8  14  27  46  65  86 113 145 179 213 252
#     4   8  15  28  46  67  88 112 145 182 216 251
#     4  10  19  31  47  67  92 119 146 176 213 257
#
# _framework density 17.537053
#
# number of rings (size 3 to 8) (size 9 to 14) (size 15 to 20)
#    0.000    3.200    0.000    3.600    0.000    2.000 
#    0.000    0.000    0.000    4.200    0.000    5.600 
#    0.000    0.000    0.000    0.000    0.000    5.400 
#
# Total GULP energy -495563.018575 kJ/mol
# GULP energy per Si atom -12389.075464 kJ/mol
# Density = 1.749714 g / cm^3
# Si number density = 17.537053 Si / 1000 Ang^3
#
#
#
# Elastic Constant Matrix: (Units=GPa)
#
#
# Indices 1 2 3 4 5 6 
#
# 1 106.5407 23.9442 107.2399 0.0000 0.0000 0.0000
# 2 23.9442 42.8765 35.7376 0.0000 0.0000 0.0000
# 3 107.2399 35.7376 180.7802 0.0000 0.0000 0.0000
# 4 0.0000 0.0000 0.0000 7.6551 0.0000 0.0000
# 5 0.0000 0.0000 0.0000 0.0000 16.9817 0.0000
# 6 0.0000 0.0000 0.0000 0.0000 0.0000 13.5698
#
#
#
# Elastic Compliance Matrix: (Units=1/GPa)
#
#
# Indices 1 2 3 4 5 6 
#
# 1 0.023411 -0.001794 -0.013533 0.000000 0.000000 0.000000
# 2 -0.001794 0.028061 -0.004483 0.000000 0.000000 0.000000
# 3 -0.013533 -0.004483 0.014446 0.000000 0.000000 0.000000
# 4 0.000000 0.000000 0.000000 0.130631 0.000000 0.000000
# 5 0.000000 0.000000 0.000000 0.000000 0.058887 0.000000
# 6 0.000000 0.000000 0.000000 0.000000 0.000000 0.073693
#
#
# Mechanical properties :
#
#
# Convention : Reuss Voigt Hill
#
# Bulk Modulus (GPa) = 38.02594 73.78232 55.90413
# Shear Modulus (GPa) = 13.24452 18.52639 15.88546
#
# Velocity S-wave (km/s) = 2.75113 3.25378 3.01295
# Velocity P-wave (km/s) = 5.64109 7.50198 6.63708
#
# Compressibility (1/GPa) = 0.02629784
#
# Stress axis : x y z
#
# Youngs Moduli (GPa) = 42.71512 35.63627 69.22550
#
# Poissons Ratio (x) = 0.06394 0.93682
# Poissons Ratio (y) = 0.07664 0.31034
# Poissons Ratio (z) = 0.57806 0.15976
#
# Static dielectric constant tensor:
#      x y z
#    x 3.252550 0.000000 0.000000 
#    y 0.000000 2.955890 0.000000 
#    z 0.000000 0.000000 4.191960 
# 
# 
# High freq. dielectric constant tensor:
#      x y z
#    x 1.649230 0.000000 0.000000 
#    y 0.000000 1.646420 0.000000 
#    z 0.000000 0.000000 1.697900 
# 
# From -- ./inp_files/45173.got.cif
#   From: 2010.03.12/outbox.cif.g09.slc.cpg/sg67_23_cif.got.tgz:45173.got - 2010.04.10 22:41:39.
