data_PCOD8278776
_publ_section_title
;
Structure prediction by ZEFSAII (Michael W. Deem and Ramdas Pophale) SiO2 
 PCOD8278776
Probable space group: C M M A
;
_chemical_formula_sum "Si O2"
_cell_formula_units_Z 64
_cell_length_a 15.067937
_cell_length_b 5.283779
_cell_length_c 35.200193
_cell_angle_alpha 90.000000
_cell_angle_beta 90.000000
_cell_angle_gamma 90.000000
_cell_volume 2802.486214
_symmetry_space_group_name_H-M "C M M A"
_symmetry_group_IT_number 67
_symmetry_cell_setting 'orthorhombic'
loop_
_space_group_symop_operation_xyz
x,y,z
-x,1/2-y,z
x,-y,-z
-x,1/2+y,-z
-x,-y,-z
x,1/2+y,-z
-x,y,z
x,1/2-y,z
1/2+x,1/2+y,z
1/2-x,-y,z
1/2+x,1/2-y,-z
1/2-x,y,-z
1/2-x,1/2-y,-z
1/2+x,y,-z
1/2-x,1/2+y,z
1/2+x,-y,z
loop_
_atom_site_type_symbol
_atom_site_label
_atom_site_fract_x
_atom_site_fract_y
_atom_site_fract_z
Si Si1 0.894620 0.750000 0.393182
Si Si2 0.151542 0.250000 0.768527
Si Si3 0.848798 0.750000 0.983844
Si Si4 0.604280 0.250000 0.898905
Si Si5 0.105919 0.250000 0.521185
Si Si6 0.395660 0.250000 0.146664
Si Si7 0.349399 0.750000 0.263774
Si Si8 0.394407 0.250000 0.650387
O O1 0.857011 0.750000 0.435935
O O2 0.860751 0.498220 0.371929
O O3 0.000000 0.750000 0.394328
O O4 0.156354 0.250000 0.813850
O O5 0.249902 0.250000 0.751758
O O6 0.101209 0.500050 0.752664
O O7 0.844459 0.750000 0.938532
O O8 0.898739 0.500000 0.000000
O O9 0.750000 0.750000 0.000000
O O10 0.500000 0.250000 0.907291
O O11 0.633239 0.500054 0.876140
O O12 0.142137 0.500000 0.500000
O O13 0.000000 0.250000 0.521032
O O14 0.500000 0.250000 0.155194
O O15 0.347989 0.750000 0.308983
O O16 0.500000 0.250000 0.655514
#
# Coordination Sequence:
#
# PCOD8278776 Si02
#       8
#     8   8   8   8   8   8   8   8
#     4   9  17  28  42  65  96 132 176 219 261 310
#     4  10  21  38  56  78 107 136 170 215 264 318
#     4  10  21  38  56  83 117 149 185 222 261 307
#     4  10  21  38  60  85 113 144 178 218 262 310
#     4   9  15  23  37  58  88 129 171 209 256 313
#     4  10  21  38  60  85 111 140 176 218 266 320
#     4  10  21  36  52  75 103 137 174 214 266 313
#     4  10  19  31  48  69  97 135 176 217 259 305
#
# _framework density 22.836866000000001
#
# number of rings (size 3 to 8) (size 9 to 14) (size 15 to 20)
#    0.000    2.250    0.000    3.000    0.000    4.500 
#    0.000   15.000    0.000    0.000    0.000    0.000 
#    0.000    0.000    0.000  157.500    0.000   70.000 
#
# Total GULP energy -396762.480305 kJ/mol
# GULP energy per Si atom -12398.827510 kJ/mol
# Density = 2.278489 g / cm^3
# Si number density = 22.836866 Si / 1000 Ang^3
#
#
#
# Elastic Constant Matrix: (Units=GPa)
#
#
# Indices 1 2 3 4 5 6 
#
# 1 29.3886 9.0974 31.8908 0.0000 0.0000 0.0000
# 2 9.0974 286.1424 130.0022 0.0000 0.0000 0.0000
# 3 31.8908 130.0022 262.4671 0.0000 0.0000 0.0000
# 4 0.0000 0.0000 0.0000 54.1835 0.0000 0.0000
# 5 0.0000 0.0000 0.0000 0.0000 31.6596 0.0000
# 6 0.0000 0.0000 0.0000 0.0000 0.0000 -1.9963
#
#
#
# Elastic Compliance Matrix: (Units=1/GPa)
#
#
# Indices 1 2 3 4 5 6 
#
# 1 0.039508 0.001193 -0.005391 0.000000 0.000000 0.000000
# 2 0.001193 0.004546 -0.002396 0.000000 0.000000 0.000000
# 3 -0.005391 -0.002396 0.005652 0.000000 0.000000 0.000000
# 4 0.000000 0.000000 0.000000 0.018456 0.000000 0.000000
# 5 0.000000 0.000000 0.000000 0.000000 0.031586 0.000000
# 6 0.000000 0.000000 0.000000 0.000000 0.000000 -0.500927
#
#
# Mechanical properties :
#
#
# Convention : Reuss Voigt Hill
#
# Bulk Modulus (GPa) = 27.38486 102.21987 64.80236
# Shear Modulus (GPa) = -13.30429 43.90319 15.29945
#
# Velocity S-wave (km/s) = -2.41629 4.38935 2.59114
# Velocity P-wave (km/s) = 2.05742 8.39921 6.11472
#
# Compressibility (1/GPa) = 0.03651652
#
# Stress axis : x y z
#
# Youngs Moduli (GPa) = 25.31137 219.99261 176.92598
#
# Poissons Ratio (x) = -0.26254 0.95389
# Poissons Ratio (y) = -0.03021 0.42400
# Poissons Ratio (z) = 0.13647 0.52721
#
# Static dielectric constant tensor:
#      x y z
#    x 11.072400 0.000000 0.000000 
#    y 0.000000 -3.205420 0.000000 
#    z 0.000000 0.000000 4.081510 
# 
# 
# High freq. dielectric constant tensor:
#      x y z
#    x 1.854050 0.000000 0.000000 
#    y 0.000000 1.935510 0.000000 
#    z 0.000000 0.000000 1.911700 
# 
# From -- ./inp_files/45744.got.cif
#   From: 2010.03.12/outbox.cif.g09.slc.cpg/sg67_23_cif.got.tgz:45744.got - 2010.04.10 22:41:39.
