data_PCOD8278764
_publ_section_title
;
Structure prediction by ZEFSAII (Michael W. Deem and Ramdas Pophale) SiO2 
 PCOD8278764
Probable space group: C M M A
;
_chemical_formula_sum "Si O2"
_cell_formula_units_Z 96
_cell_length_a 25.408719
_cell_length_b 16.720949
_cell_length_c 11.992934
_cell_angle_alpha 90.000000
_cell_angle_beta 90.000000
_cell_angle_gamma 90.000000
_cell_volume 5095.292689
_symmetry_space_group_name_H-M "C M M A"
_symmetry_group_IT_number 67
_symmetry_cell_setting 'orthorhombic'
loop_
_space_group_symop_operation_xyz
x,y,z
-x,1/2-y,z
x,-y,-z
-x,1/2+y,-z
-x,-y,-z
x,1/2+y,-z
-x,y,z
x,1/2-y,z
1/2+x,1/2+y,z
1/2-x,-y,z
1/2+x,1/2-y,-z
1/2-x,y,-z
1/2-x,1/2-y,-z
1/2+x,y,-z
1/2-x,1/2+y,z
1/2+x,-y,z
loop_
_atom_site_type_symbol
_atom_site_label
_atom_site_fract_x
_atom_site_fract_y
_atom_site_fract_z
Si Si1 0.228074 0.838640 0.634836
Si Si2 0.823465 0.425129 0.738982
Si Si3 0.807830 0.093962 0.983889
Si Si4 0.140626 0.342575 0.535873
Si Si5 0.440813 0.155009 0.647536
Si Si6 0.145298 0.895199 0.790065
O O1 0.254868 0.750000 0.633352
O O2 0.266298 0.906192 0.685553
O O3 0.200983 0.857859 0.512379
O O4 0.177645 0.831676 0.716503
O O5 0.865991 0.388714 0.653121
O O6 0.832217 0.518681 0.753741
O O7 0.828954 0.383576 0.860776
O O8 0.847656 0.125074 0.079061
O O9 0.750000 0.132824 0.000000
O O10 0.802526 0.000000 0.000000
O O11 0.130869 0.250000 0.557425
O O12 0.095241 0.375875 0.454972
O O13 0.500000 0.122716 0.631926
O O14 0.440339 0.250000 0.657546
O O15 0.416308 0.115926 0.760079
#
# Coordination Sequence:
#
# PCOD8278764 Si02
#       6
#    16  16  16  16  16  16
#     4  10  19  31  47  70 106 144 172 205 250 310
#     4  11  19  30  50  72 103 144 174 205 256 304
#     4   9  17  31  49  69 105 147 177 203 250 307
#     4   9  19  34  50  74 106 137 172 210 257 317
#     4   9  19  38  61  77  97 133 169 212 270 315
#     4  10  19  33  52  77 103 132 180 223 249 294
#
# _framework density 18.840921000000002
#
# number of rings (size 3 to 8) (size 9 to 14) (size 15 to 20)
#    0.000    2.333    1.667    3.000    0.000    4.000 
#    0.000    9.167    0.000    5.500    0.000    2.333 
#    0.000    0.000    0.000    0.000    0.000    0.000 
#
# Total GULP energy -594843.954120 kJ/mol
# GULP energy per Si atom -12392.582377 kJ/mol
# Density = 1.879804 g / cm^3
# Si number density = 18.840921 Si / 1000 Ang^3
#
#
#
# Elastic Constant Matrix: (Units=GPa)
#
#
# Indices 1 2 3 4 5 6 
#
# 1 109.2044 21.1799 48.4129 0.0000 0.0000 0.0000
# 2 21.1799 37.6647 30.1743 0.0000 0.0000 0.0000
# 3 48.4129 30.1743 168.0680 0.0000 0.0000 0.0000
# 4 0.0000 0.0000 0.0000 15.9246 0.0000 0.0000
# 5 0.0000 0.0000 0.0000 0.0000 18.0115 0.0000
# 6 0.0000 0.0000 0.0000 0.0000 0.0000 18.5885
#
#
#
# Elastic Compliance Matrix: (Units=1/GPa)
#
#
# Indices 1 2 3 4 5 6 
#
# 1 0.011059 -0.004283 -0.002417 0.000000 0.000000 0.000000
# 2 -0.004283 0.032669 -0.004632 0.000000 0.000000 0.000000
# 3 -0.002417 -0.004632 0.007478 0.000000 0.000000 0.000000
# 4 0.000000 0.000000 0.000000 0.062796 0.000000 0.000000
# 5 0.000000 0.000000 0.000000 0.000000 0.055520 0.000000
# 6 0.000000 0.000000 0.000000 0.000000 0.000000 0.053797
#
#
# Mechanical properties :
#
#
# Convention : Reuss Voigt Hill
#
# Bulk Modulus (GPa) = 35.03415 57.16349 46.09882
# Shear Modulus (GPa) = 19.56984 24.84959 22.20971
#
# Velocity S-wave (km/s) = 3.22636 3.63563 3.43709
# Velocity P-wave (km/s) = 5.70213 6.93034 6.34602
#
# Compressibility (1/GPa) = 0.02854357
#
# Stress axis : x y z
#
# Youngs Moduli (GPa) = 90.42275 30.61014 133.73155
#
# Poissons Ratio (x) = 0.13110 0.32319
# Poissons Ratio (y) = 0.38726 0.61939
# Poissons Ratio (z) = 0.21853 0.14177
#
# Static dielectric constant tensor:
#      x y z
#    x 3.383110 0.000000 0.000000 
#    y 0.000000 3.135860 0.000000 
#    z 0.000000 0.000000 3.855190 
# 
# 
# High freq. dielectric constant tensor:
#      x y z
#    x 1.694350 0.000000 0.000000 
#    y 0.000000 1.710720 0.000000 
#    z 0.000000 0.000000 1.743020 
# 
# From -- ./inp_files/19825.got.cif
#   From: 2010.03.12/outbox.cif.g09.slc.cpg/sg67_10_cif.got.tgz:19825.got - 2010.04.10 22:41:39.
