data_PCOD8278995
_publ_section_title
;
Structure prediction by ZEFSAII (Michael W. Deem and Ramdas Pophale) SiO2 
 PCOD8278995
Probable space group: C M M A
;
_chemical_formula_sum "Si O2"
_cell_formula_units_Z 80
_cell_length_a 19.240872
_cell_length_b 8.803947
_cell_length_c 25.269308
_cell_angle_alpha 90.000000
_cell_angle_beta 90.000000
_cell_angle_gamma 90.000000
_cell_volume 4280.510028
_symmetry_space_group_name_H-M "C M M A"
_symmetry_group_IT_number 67
_symmetry_cell_setting 'orthorhombic'
loop_
_space_group_symop_operation_xyz
x,y,z
-x,1/2-y,z
x,-y,-z
-x,1/2+y,-z
-x,-y,-z
x,1/2+y,-z
-x,y,z
x,1/2-y,z
1/2+x,1/2+y,z
1/2-x,-y,z
1/2+x,1/2-y,-z
1/2-x,y,-z
1/2-x,1/2-y,-z
1/2+x,y,-z
1/2-x,1/2+y,z
1/2+x,-y,z
loop_
_atom_site_type_symbol
_atom_site_label
_atom_site_fract_x
_atom_site_fract_y
_atom_site_fract_z
Si Si1 0.677985 0.571036 0.259156
Si Si2 0.322452 0.929078 0.138813
Si Si3 0.676084 0.069033 0.555686
Si Si4 0.422386 0.430218 0.650354
Si Si5 0.581774 0.575073 0.945829
O O1 0.686086 0.750000 0.264144
O O2 0.750000 0.500000 0.278854
O O3 0.661264 0.521762 0.199097
O O4 0.616469 0.510242 0.296878
O O5 0.317643 0.750000 0.132562
O O6 0.250000 0.000000 0.119444
O O7 0.384566 0.991747 0.103720
O O8 0.682775 0.250000 0.551413
O O9 0.619434 0.016902 0.598595
O O10 0.651432 0.000000 0.500000
O O11 0.750000 0.000000 0.572675
O O12 0.500000 0.500264 0.648906
O O13 0.426579 0.250000 0.651791
O O14 0.500000 0.553005 0.939865
O O15 0.603861 0.750000 0.946325
O O16 0.608855 0.500000 0.000000
#
# Coordination Sequence:
#
# PCOD8278995 Si02
#       5
#    16  16  16  16  16
#     4   9  18  33  54  76 100 132 168 208 250 298
#     4  10  20  34  54  80 107 136 172 214 259 306
#     4  10  19  32  52  74  98 130 167 208 250 297
#     4   9  18  32  50  74 102 132 167 206 250 298
#     4  10  21  37  56  78 106 139 174 213 257 307
#
# _framework density 18.689361999999999
#
# number of rings (size 3 to 8) (size 9 to 14) (size 15 to 20)
#    0.000    2.400    0.000    3.000    0.000    3.600 
#    0.000    5.000    0.000    4.800    0.000    0.000 
#    0.000    0.000    0.000    0.000    0.000    0.000 
#
# Total GULP energy -496060.707759 kJ/mol
# GULP energy per Si atom -12401.517694 kJ/mol
# Density = 1.864682 g / cm^3
# Si number density = 18.689362 Si / 1000 Ang^3
#
#
#
# Elastic Constant Matrix: (Units=GPa)
#
#
# Indices 1 2 3 4 5 6 
#
# 1 119.3252 33.9665 83.5931 0.0000 0.0000 0.0000
# 2 33.9665 65.8650 38.0967 0.0000 0.0000 0.0000
# 3 83.5931 38.0967 131.0415 0.0000 0.0000 0.0000
# 4 0.0000 0.0000 0.0000 20.3210 0.0000 0.0000
# 5 0.0000 0.0000 0.0000 0.0000 41.3132 0.0000
# 6 0.0000 0.0000 0.0000 0.0000 0.0000 27.7521
#
#
#
# Elastic Compliance Matrix: (Units=1/GPa)
#
#
# Indices 1 2 3 4 5 6 
#
# 1 0.015553 -0.002743 -0.009124 0.000000 0.000000 0.000000
# 2 -0.002743 0.018736 -0.003697 0.000000 0.000000 0.000000
# 3 -0.009124 -0.003697 0.014526 0.000000 0.000000 0.000000
# 4 0.000000 0.000000 0.000000 0.049210 0.000000 0.000000
# 5 0.000000 0.000000 0.000000 0.000000 0.024205 0.000000
# 6 0.000000 0.000000 0.000000 0.000000 0.000000 0.036033
#
#
# Mechanical properties :
#
#
# Convention : Reuss Voigt Hill
#
# Bulk Modulus (GPa) = 56.53997 69.72713 63.13355
# Shear Modulus (GPa) = 25.60325 28.58231 27.09278
#
# Velocity S-wave (km/s) = 3.70528 3.91491 3.81154
# Velocity P-wave (km/s) = 6.97307 7.60427 7.29550
#
# Compressibility (1/GPa) = 0.01768660
#
# Stress axis : x y z
#
# Youngs Moduli (GPa) = 64.29549 53.37435 68.84082
#
# Poissons Ratio (x) = 0.14643 0.62811
# Poissons Ratio (y) = 0.17639 0.25449
# Poissons Ratio (z) = 0.58663 0.19732
#
# Static dielectric constant tensor:
#      x y z
#    x 3.555190 0.000000 0.000000 
#    y 0.000000 3.330030 0.000000 
#    z 0.000000 0.000000 3.621360 
# 
# 
# High freq. dielectric constant tensor:
#      x y z
#    x 1.722670 0.000000 0.000000 
#    y 0.000000 1.715110 0.000000 
#    z 0.000000 0.000000 1.737060 
# 
# From -- ./inp_files/43240.got.cif
#   From: 2010.03.12/outbox.cif.g09.slc.cpg/sg67_22_cif.got.tgz:43240.got - 2010.04.10 22:41:39.
