data_PCOD8278514
_publ_section_title
;
Structure prediction by ZEFSAII (Michael W. Deem and Ramdas Pophale) SiO2 
 PCOD8278514
Probable space group: C M M A
;
_chemical_formula_sum "Si O2"
_cell_formula_units_Z 64
_cell_length_a 13.856136
_cell_length_b 17.435264
_cell_length_c 14.733029
_cell_angle_alpha 90.000000
_cell_angle_beta 90.000000
_cell_angle_gamma 90.000000
_cell_volume 3559.284545
_symmetry_space_group_name_H-M "C M M A"
_symmetry_group_IT_number 67
_symmetry_cell_setting 'orthorhombic'
loop_
_space_group_symop_operation_xyz
x,y,z
-x,1/2-y,z
x,-y,-z
-x,1/2+y,-z
-x,-y,-z
x,1/2+y,-z
-x,y,z
x,1/2-y,z
1/2+x,1/2+y,z
1/2-x,-y,z
1/2+x,1/2-y,-z
1/2-x,y,-z
1/2-x,1/2-y,-z
1/2+x,y,-z
1/2-x,1/2+y,z
1/2+x,-y,z
loop_
_atom_site_type_symbol
_atom_site_label
_atom_site_fract_x
_atom_site_fract_y
_atom_site_fract_z
Si Si1 0.500000 0.499530 0.893048
Si Si2 0.000000 0.165150 0.189264
Si Si3 0.109257 0.035991 0.406259
Si Si4 0.337395 0.446442 0.232101
Si Si5 0.696063 0.335706 0.697438
O O1 0.500000 0.408315 0.875006
O O2 0.409904 0.546682 0.852147
O O3 0.500000 0.500000 0.000000
O O4 0.903269 0.158461 0.247550
O O5 0.000000 0.250000 0.140663
O O6 0.182461 0.106222 0.386797
O O7 0.000000 0.066536 0.415870
O O8 0.145408 0.000000 0.500000
O O9 0.112521 0.973544 0.325551
O O10 0.250000 0.500000 0.205061
O O11 0.290891 0.361372 0.244597
O O12 0.714503 0.250000 0.662035
#
# Coordination Sequence:
#
# PCOD8278514 Si02
#       5
#     8   8  16  16  16
#     4  12  22  38  60  86 114 156 191 229 292 365
#     4  10  18  36  58  86 110 138 190 247 288 323
#     4  10  18  32  57  83 111 150 195 238 280 337
#     4  10  19  36  55  81 115 143 195 234 282 340
#     4  10  19  34  59  83 114 152 189 241 296 341
#
# _framework density 17.981141000000001
#
# number of rings (size 3 to 8) (size 9 to 14) (size 15 to 20)
#    0.000    1.750    7.500    0.000    0.000    5.000 
#    0.000    4.375    0.000    4.500    0.000    0.000 
#    0.000    0.000    0.000    0.000    0.000    0.000 
#
# Total GULP energy -396472.636670 kJ/mol
# GULP energy per Si atom -12389.769896 kJ/mol
# Density = 1.794022 g / cm^3
# Si number density = 17.981141 Si / 1000 Ang^3
#
#
#
# Elastic Constant Matrix: (Units=GPa)
#
#
# Indices 1 2 3 4 5 6 
#
# 1 99.2836 41.3241 46.6379 0.0000 0.0000 0.0000
# 2 41.3241 131.1317 48.8085 0.0000 0.0000 0.0000
# 3 46.6379 48.8085 124.8886 0.0000 0.0000 0.0000
# 4 0.0000 0.0000 0.0000 20.1838 0.0000 0.0000
# 5 0.0000 0.0000 0.0000 0.0000 1.3901 0.0000
# 6 0.0000 0.0000 0.0000 0.0000 0.0000 13.1996
#
#
#
# Elastic Compliance Matrix: (Units=1/GPa)
#
#
# Indices 1 2 3 4 5 6 
#
# 1 0.012969 -0.002673 -0.003798 0.000000 0.000000 0.000000
# 2 -0.002673 0.009475 -0.002705 0.000000 0.000000 0.000000
# 3 -0.003798 -0.002705 0.010483 0.000000 0.000000 0.000000
# 4 0.000000 0.000000 0.000000 0.049545 0.000000 0.000000
# 5 0.000000 0.000000 0.000000 0.000000 0.719354 0.000000
# 6 0.000000 0.000000 0.000000 0.000000 0.000000 0.075760
#
#
# Mechanical properties :
#
#
# Convention : Reuss Voigt Hill
#
# Bulk Modulus (GPa) = 68.61475 69.87166 69.24321
# Shear Modulus (GPa) = 5.55065 21.52360 13.53712
#
# Velocity S-wave (km/s) = 1.75887 3.46354 2.74679
# Velocity P-wave (km/s) = 6.50899 7.41198 6.97511
#
# Compressibility (1/GPa) = 0.01457413
#
# Stress axis : x y z
#
# Youngs Moduli (GPa) = 77.10650 105.54013 95.39569
#
# Poissons Ratio (x) = 0.28213 0.36235
# Poissons Ratio (y) = 0.20612 0.25802
# Poissons Ratio (z) = 0.29288 0.28546
#
# Static dielectric constant tensor:
#      x y z
#    x 3.781640 0.000000 0.000000 
#    y 0.000000 3.700760 0.000000 
#    z 0.000000 0.000000 3.005080 
# 
# 
# High freq. dielectric constant tensor:
#      x y z
#    x 1.713510 0.000000 0.000000 
#    y 0.000000 1.685320 0.000000 
#    z 0.000000 0.000000 1.660520 
# 
# From -- ./inp_files/26802.got.cif
#   From: 2010.03.12/outbox.cif.g09.slc.cpg/sg67_14_cif.got.tgz:26802.got - 2010.04.10 22:41:39.
