data_PCOD8278274
_publ_section_title
;
Structure prediction by ZEFSAII (Michael W. Deem and Ramdas Pophale) SiO2 
 PCOD8278274
Probable space group: C M M A
;
_chemical_formula_sum "Si O2"
_cell_formula_units_Z 72
_cell_length_a 8.641589
_cell_length_b 31.125679
_cell_length_c 14.595086
_cell_angle_alpha 90.000000
_cell_angle_beta 90.000000
_cell_angle_gamma 90.000000
_cell_volume 3925.718004
_symmetry_space_group_name_H-M "C M M A"
_symmetry_group_IT_number 67
_symmetry_cell_setting 'orthorhombic'
loop_
_space_group_symop_operation_xyz
x,y,z
-x,1/2-y,z
x,-y,-z
-x,1/2+y,-z
-x,-y,-z
x,1/2+y,-z
-x,y,z
x,1/2-y,z
1/2+x,1/2+y,z
1/2-x,-y,z
1/2+x,1/2-y,-z
1/2-x,y,-z
1/2-x,1/2-y,-z
1/2+x,y,-z
1/2-x,1/2+y,z
1/2+x,-y,z
loop_
_atom_site_type_symbol
_atom_site_label
_atom_site_fract_x
_atom_site_fract_y
_atom_site_fract_z
Si Si1 0.316375 0.202141 0.598462
Si Si2 0.818227 0.624297 0.717617
Si Si3 0.681113 0.337308 0.901336
Si Si4 0.184428 0.454423 0.400755
Si Si5 0.683410 0.250000 0.101226
O O1 0.500000 0.200582 0.593141
O O2 0.260962 0.250000 0.629056
O O3 0.250000 0.190156 0.500000
O O4 0.249034 0.166779 0.668774
O O5 0.780488 0.625590 0.826735
O O6 0.753268 0.580781 0.672082
O O7 0.000000 0.625044 0.701928
O O8 0.500000 0.330274 0.914705
O O9 0.751311 0.293902 0.855493
O O10 0.750000 0.350088 0.000000
O O11 0.250000 0.500000 0.367440
O O12 0.250000 0.441936 0.500000
O O13 0.000000 0.456683 0.406016
O O14 0.500000 0.250000 0.103177
O O15 0.750000 0.250000 0.000000
#
# Coordination Sequence:
#
# PCOD8278274 Si02
#       5
#    16  16  16  16   8
#     4   9  17  30  47  67  94 128 163 195 235 286
#     4   9  19  32  51  74  97 131 169 203 244 303
#     4  10  19  33  51  71  97 132 170 212 254 295
#     4  10  19  34  54  79 105 131 164 203 252 302
#     4  10  18  30  46  68  95 128 167 210 251 292
#
# _framework density 18.340593999999999
#
# number of rings (size 3 to 8) (size 9 to 14) (size 15 to 20)
#    0.000    2.444    0.000    5.000    1.556    0.000 
#    0.000    7.778    0.000    0.667    0.000    4.667 
#    0.000    0.000    0.000    0.000    0.000    0.000 
#
# Total GULP energy -446145.927807 kJ/mol
# GULP energy per Si atom -12392.942439 kJ/mol
# Density = 1.829885 g / cm^3
# Si number density = 18.340594 Si / 1000 Ang^3
#
#
#
# Elastic Constant Matrix: (Units=GPa)
#
#
# Indices 1 2 3 4 5 6 
#
# 1 75.4389 33.0380 32.6560 0.0000 0.0000 0.0000
# 2 33.0380 135.5530 89.4604 0.0000 0.0000 0.0000
# 3 32.6560 89.4604 120.8471 0.0000 0.0000 0.0000
# 4 0.0000 0.0000 0.0000 30.2552 0.0000 0.0000
# 5 0.0000 0.0000 0.0000 0.0000 22.6847 0.0000
# 6 0.0000 0.0000 0.0000 0.0000 0.0000 17.7880
#
#
#
# Elastic Compliance Matrix: (Units=1/GPa)
#
#
# Indices 1 2 3 4 5 6 
#
# 1 0.015272 -0.001952 -0.002681 0.000000 0.000000 0.000000
# 2 -0.001952 0.014674 -0.010335 0.000000 0.000000 0.000000
# 3 -0.002681 -0.010335 0.016650 0.000000 0.000000 0.000000
# 4 0.000000 0.000000 0.000000 0.033052 0.000000 0.000000
# 5 0.000000 0.000000 0.000000 0.000000 0.044083 0.000000
# 6 0.000000 0.000000 0.000000 0.000000 0.000000 0.056218
#
#
# Mechanical properties :
#
#
# Convention : Reuss Voigt Hill
#
# Bulk Modulus (GPa) = 60.03194 71.34976 65.69085
# Shear Modulus (GPa) = 23.20843 25.92455 24.56649
#
# Velocity S-wave (km/s) = 3.56112 3.76374 3.66383
# Velocity P-wave (km/s) = 7.05065 7.60755 7.33438
#
# Compressibility (1/GPa) = 0.01665780
#
# Stress axis : x y z
#
# Youngs Moduli (GPa) = 65.48125 68.14806 60.05858
#
# Poissons Ratio (x) = 0.13306 0.16104
# Poissons Ratio (y) = 0.12785 0.62072
# Poissons Ratio (z) = 0.17558 0.70432
#
# Static dielectric constant tensor:
#      x y z
#    x 3.239600 0.000000 0.000000 
#    y 0.000000 3.896820 0.000000 
#    z 0.000000 0.000000 3.368180 
# 
# 
# High freq. dielectric constant tensor:
#      x y z
#    x 1.699460 0.000000 0.000000 
#    y 0.000000 1.698630 0.000000 
#    z 0.000000 0.000000 1.705510 
# 
# From -- ./inp_files/25332.got.cif
#   From: 2010.03.12/outbox.cif.g09.slc.cpg/sg67_13_cif.got.tgz:25332.got - 2010.04.10 22:41:39.
