data_PCOD8278129
_publ_section_title
;
Structure prediction by ZEFSAII (Michael W. Deem and Ramdas Pophale) SiO2 
 PCOD8278129
Probable space group: C M M A
;
_chemical_formula_sum "Si O2"
_cell_formula_units_Z 112
_cell_length_a 19.768186
_cell_length_b 16.038287
_cell_length_c 18.912935
_cell_angle_alpha 90.000000
_cell_angle_beta 90.000000
_cell_angle_gamma 90.000000
_cell_volume 5996.305200
_symmetry_space_group_name_H-M "C M M A"
_symmetry_group_IT_number 67
_symmetry_cell_setting 'orthorhombic'
loop_
_space_group_symop_operation_xyz
x,y,z
-x,1/2-y,z
x,-y,-z
-x,1/2+y,-z
-x,-y,-z
x,1/2+y,-z
-x,y,z
x,1/2-y,z
1/2+x,1/2+y,z
1/2-x,-y,z
1/2+x,1/2-y,-z
1/2-x,y,-z
1/2-x,1/2-y,-z
1/2+x,y,-z
1/2-x,1/2+y,z
1/2+x,-y,z
loop_
_atom_site_type_symbol
_atom_site_label
_atom_site_fract_x
_atom_site_fract_y
_atom_site_fract_z
Si Si1 0.669316 0.500566 0.580078
Si Si2 0.808321 0.601261 0.186227
Si Si3 0.184328 0.156298 0.962069
Si Si4 0.321051 0.658907 0.667641
Si Si5 0.578434 0.419960 0.951022
Si Si6 0.341201 0.417708 0.809747
Si Si7 0.160050 0.343878 0.333579
O O1 0.642586 0.500000 0.500000
O O2 0.750000 0.500000 0.582219
O O3 0.645073 0.585118 0.620951
O O4 0.635961 0.416664 0.613112
O O5 0.842471 0.611868 0.109619
O O6 0.840799 0.656799 0.248834
O O7 0.729862 0.624631 0.167686
O O8 0.819909 0.509085 0.216690
O O9 0.204055 0.250000 0.942333
O O10 0.250000 0.113030 0.000000
O O11 0.120938 0.155264 0.015235
O O12 0.343296 0.750000 0.637534
O O13 0.240577 0.650104 0.667466
O O14 0.500000 0.397379 0.950757
O O15 0.603125 0.427737 0.870521
O O16 0.594291 0.500000 0.000000
O O17 0.370869 0.365111 0.743796
O O18 0.136608 0.250000 0.356206
#
# Coordination Sequence:
#
# PCOD8278129 Si02
#       7
#    16  16  16  16  16  16  16
#     4   9  16  26  39  60  94 132 167 198 237 295
#     4  10  17  29  50  72  93 122 165 215 260 299
#     4  11  22  34  51  75  99 126 168 218 264 312
#     4   9  16  26  41  64  93 124 162 206 251 295
#     4  11  23  37  52  71  98 134 171 210 265 322
#     4  10  18  30  51  69  92 125 164 214 260 298
#     4   9  17  28  43  64  90 124 166 205 245 298
#
# _framework density 18.678167999999999
#
# number of rings (size 3 to 8) (size 9 to 14) (size 15 to 20)
#    0.000    2.143    4.286    0.429    0.000    2.286 
#    0.000    2.857    0.000    0.000    0.000    0.000 
#    0.000    0.571    0.000    0.000    0.000    1.000 
#
# Total GULP energy -693737.985852 kJ/mol
# GULP energy per Si atom -12388.178319 kJ/mol
# Density = 1.863566 g / cm^3
# Si number density = 18.678168 Si / 1000 Ang^3
#
#
#
# Elastic Constant Matrix: (Units=GPa)
#
#
# Indices 1 2 3 4 5 6 
#
# 1 49.1648 13.8530 24.9286 0.0000 0.0000 0.0000
# 2 13.8530 126.2663 65.0696 0.0000 0.0000 0.0000
# 3 24.9286 65.0696 137.0011 0.0000 0.0000 0.0000
# 4 0.0000 0.0000 0.0000 22.5457 0.0000 0.0000
# 5 0.0000 0.0000 0.0000 0.0000 8.5681 0.0000
# 6 0.0000 0.0000 0.0000 0.0000 0.0000 7.6553
#
#
#
# Elastic Compliance Matrix: (Units=1/GPa)
#
#
# Indices 1 2 3 4 5 6 
#
# 1 0.022428 -0.000473 -0.003856 0.000000 0.000000 0.000000
# 2 -0.000473 0.010496 -0.004899 0.000000 0.000000 0.000000
# 3 -0.003856 -0.004899 0.010328 0.000000 0.000000 0.000000
# 4 0.000000 0.000000 0.000000 0.044354 0.000000 0.000000
# 5 0.000000 0.000000 0.000000 0.000000 0.116712 0.000000
# 6 0.000000 0.000000 0.000000 0.000000 0.000000 0.130629
#
#
# Mechanical properties :
#
#
# Convention : Reuss Voigt Hill
#
# Bulk Modulus (GPa) = 40.33078 57.79274 49.06176
# Shear Modulus (GPa) = 13.82472 21.65921 17.74196
#
# Velocity S-wave (km/s) = 2.72353 3.40898 3.08535
# Velocity P-wave (km/s) = 5.61511 6.81934 6.24631
#
# Compressibility (1/GPa) = 0.02479496
#
# Stress axis : x y z
#
# Youngs Moduli (GPa) = 44.58635 95.27028 96.82610
#
# Poissons Ratio (x) = 0.04510 0.37338
# Poissons Ratio (y) = 0.02111 0.47437
# Poissons Ratio (z) = 0.17193 0.46675
#
# Static dielectric constant tensor:
#      x y z
#    x 2.704960 0.000000 0.000000 
#    y 0.000000 3.539990 0.000000 
#    z 0.000000 0.000000 3.487980 
# 
# 
# High freq. dielectric constant tensor:
#      x y z
#    x 1.636770 0.000000 0.000000 
#    y 0.000000 1.732640 0.000000 
#    z 0.000000 0.000000 1.731530 
# 
# From -- ./inp_files/34443.got.cif
#   From: 2010.03.12/outbox.cif.g09.slc.cpg/sg67_18_cif.got.tgz:34443.got - 2010.04.10 22:41:39.
