data_PCOD8278118
_publ_section_title
;
Structure prediction by ZEFSAII (Michael W. Deem and Ramdas Pophale) SiO2 
 PCOD8278118
Probable space group: C M M A
;
_chemical_formula_sum "Si O2"
_cell_formula_units_Z 96
_cell_length_a 23.497822
_cell_length_b 19.538604
_cell_length_c 12.343901
_cell_angle_alpha 90.000000
_cell_angle_beta 90.000000
_cell_angle_gamma 90.000000
_cell_volume 5667.265650
_symmetry_space_group_name_H-M "C M M A"
_symmetry_group_IT_number 67
_symmetry_cell_setting 'orthorhombic'
loop_
_space_group_symop_operation_xyz
x,y,z
-x,1/2-y,z
x,-y,-z
-x,1/2+y,-z
-x,-y,-z
x,1/2+y,-z
-x,y,z
x,1/2-y,z
1/2+x,1/2+y,z
1/2-x,-y,z
1/2+x,1/2-y,-z
1/2-x,y,-z
1/2-x,1/2-y,-z
1/2+x,y,-z
1/2-x,1/2+y,z
1/2+x,-y,z
loop_
_atom_site_type_symbol
_atom_site_label
_atom_site_fract_x
_atom_site_fract_y
_atom_site_fract_z
Si Si1 0.434646 0.069018 0.938753
Si Si2 0.873269 0.433573 0.280647
Si Si3 0.435691 0.828905 0.869875
Si Si4 0.254110 0.080769 0.621905
Si Si5 0.563233 0.581013 0.488339
Si Si6 0.366284 0.905472 0.691416
O O1 0.500000 0.059557 0.898852
O O2 0.393405 0.087131 0.838828
O O3 0.427939 0.133367 0.016670
O O4 0.414641 0.000000 0.000000
O O5 0.811287 0.402523 0.310704
O O6 0.915927 0.400284 0.368035
O O7 0.876353 0.515311 0.283854
O O8 0.500000 0.839532 0.826543
O O9 0.421459 0.750000 0.889640
O O10 0.392480 0.858847 0.783489
O O11 0.250000 0.111769 0.500000
O O12 0.200841 0.110921 0.688204
O O13 0.250000 0.000000 0.610348
O O14 0.564332 0.500000 0.500000
O O15 0.500000 0.610564 0.505823
O O16 0.605050 0.614248 0.576781
#
# Coordination Sequence:
#
# PCOD8278118 Si02
#       6
#    16  16  16  16  16  16
#     4  10  19  32  52  76 104 135 173 222 270 312
#     4  10  17  28  48  76 106 135 168 212 265 310
#     4  10  21  36  54  75 103 141 177 214 267 323
#     4   9  16  28  46  73 106 140 166 203 259 313
#     4   9  16  23  40  73 105 128 157 205 266 319
#     4  10  17  29  49  72 104 137 168 211 259 312
#
# _framework density 16.939385999999999
#
# number of rings (size 3 to 8) (size 9 to 14) (size 15 to 20)
#    0.000    2.333    3.333    1.000    0.000    1.333 
#    0.000    0.833    0.000    3.500    0.000    2.333 
#    0.000    0.000    0.000    0.000    0.000    0.000 
#
# Total GULP energy -595023.944616 kJ/mol
# GULP energy per Si atom -12396.332179 kJ/mol
# Density = 1.690083 g / cm^3
# Si number density = 16.939386 Si / 1000 Ang^3
#
#
#
# Elastic Constant Matrix: (Units=GPa)
#
#
# Indices 1 2 3 4 5 6 
#
# 1 133.4852 34.4827 74.5504 0.0000 0.0000 0.0000
# 2 34.4827 49.4129 29.6821 0.0000 0.0000 0.0000
# 3 74.5504 29.6821 124.8300 0.0000 0.0000 0.0000
# 4 0.0000 0.0000 0.0000 13.0062 0.0000 0.0000
# 5 0.0000 0.0000 0.0000 0.0000 28.6099 0.0000
# 6 0.0000 0.0000 0.0000 0.0000 0.0000 13.1792
#
#
#
# Elastic Compliance Matrix: (Units=1/GPa)
#
#
# Indices 1 2 3 4 5 6 
#
# 1 0.012146 -0.004805 -0.006111 0.000000 0.000000 0.000000
# 2 -0.004805 0.025511 -0.003196 0.000000 0.000000 0.000000
# 3 -0.006111 -0.003196 0.012421 0.000000 0.000000 0.000000
# 4 0.000000 0.000000 0.000000 0.076886 0.000000 0.000000
# 5 0.000000 0.000000 0.000000 0.000000 0.034953 0.000000
# 6 0.000000 0.000000 0.000000 0.000000 0.000000 0.075877
#
#
# Mechanical properties :
#
#
# Convention : Reuss Voigt Hill
#
# Bulk Modulus (GPa) = 45.76184 65.01760 55.38972
# Shear Modulus (GPa) = 18.29476 22.22659 20.26067
#
# Velocity S-wave (km/s) = 3.28992 3.62626 3.46217
# Velocity P-wave (km/s) = 6.44245 7.48323 6.98226
#
# Compressibility (1/GPa) = 0.02185227
#
# Stress axis : x y z
#
# Youngs Moduli (GPa) = 82.33366 39.19902 80.51164
#
# Poissons Ratio (x) = 0.18835 0.49201
# Poissons Ratio (y) = 0.39561 0.25735
# Poissons Ratio (z) = 0.50315 0.12530
#
# Static dielectric constant tensor:
#      x y z
#    x 3.401690 0.000000 0.000000 
#    y 0.000000 2.689820 0.000000 
#    z 0.000000 0.000000 3.160370 
# 
# 
# High freq. dielectric constant tensor:
#      x y z
#    x 1.659710 0.000000 0.000000 
#    y 0.000000 1.594390 0.000000 
#    z 0.000000 0.000000 1.656930 
# 
# From -- ./inp_files/20832.got.cif
#   From: 2010.03.12/outbox.cif.g09.slc.cpg/sg67_11_cif.got.tgz:20832.got - 2010.04.10 22:41:39.
