data_PCOD8278875
_publ_section_title
;
Structure prediction by ZEFSAII (Michael W. Deem and Ramdas Pophale) SiO2 
 PCOD8278875
Probable space group: C M M A
;
_chemical_formula_sum "Si O2"
_cell_formula_units_Z 80
_cell_length_a 20.089567
_cell_length_b 7.780209
_cell_length_c 29.428581
_cell_angle_alpha 90.000000
_cell_angle_beta 90.000000
_cell_angle_gamma 90.000000
_cell_volume 4599.717521
_symmetry_space_group_name_H-M "C M M A"
_symmetry_group_IT_number 67
_symmetry_cell_setting 'orthorhombic'
loop_
_space_group_symop_operation_xyz
x,y,z
-x,1/2-y,z
x,-y,-z
-x,1/2+y,-z
-x,-y,-z
x,1/2+y,-z
-x,y,z
x,1/2-y,z
1/2+x,1/2+y,z
1/2-x,-y,z
1/2+x,1/2-y,-z
1/2-x,y,-z
1/2-x,1/2-y,-z
1/2+x,y,-z
1/2-x,1/2+y,z
1/2+x,-y,z
loop_
_atom_site_type_symbol
_atom_site_label
_atom_site_fract_x
_atom_site_fract_y
_atom_site_fract_z
Si Si1 0.420758 0.057314 0.549216
Si Si2 0.073929 0.954033 0.876169
Si Si3 0.420476 0.750000 0.714027
Si Si4 0.420833 0.558949 0.224903
Si Si5 0.824982 0.050143 0.050737
Si Si6 0.079364 0.250000 0.611564
O O1 0.500000 0.055296 0.548543
O O2 0.395050 0.250000 0.560869
O O3 0.393595 0.000000 0.500000
O O4 0.393938 0.921773 0.586475
O O5 0.070233 0.750000 0.880440
O O6 0.100243 0.001284 0.825738
O O7 0.124360 0.036422 0.913213
O O8 0.000000 0.031231 0.884554
O O9 0.500000 0.750000 0.714836
O O10 0.392882 0.579207 0.739078
O O11 0.392883 0.750000 0.662774
O O12 0.500000 0.566654 0.226826
O O13 0.392392 0.750000 0.236295
O O14 0.831804 0.250000 0.055972
O O15 0.750000 0.000000 0.062443
O O16 0.845703 0.000000 0.000000
O O17 0.000000 0.250000 0.611233
#
# Coordination Sequence:
#
# PCOD8278875 Si02
#       6
#    16  16   8  16  16   8
#     4   9  14  20  29  38  52  78 113 154 197 240
#     4   8  15  29  48  65  82 110 145 177 214 261
#     4   9  16  24  34  52  74  93 121 161 206 257
#     4   8  14  26  41  55  74  98 125 163 209 253
#     4  10  19  32  47  64  90 118 142 172 215 264
#     4   9  16  22  28  42  62  84 113 151 199 250
#
# _framework density 17.392372000000002
#
# number of rings (size 3 to 8) (size 9 to 14) (size 15 to 20)
#    0.000    3.200    1.000    2.400    0.000    1.200 
#    3.600    4.000    0.000    0.000    0.000    0.000 
#    0.000    0.000    0.000    0.000    0.000    0.000 
#
# Total GULP energy -495677.932366 kJ/mol
# GULP energy per Si atom -12391.948309 kJ/mol
# Density = 1.735279 g / cm^3
# Si number density = 17.392372 Si / 1000 Ang^3
#
#
#
# Elastic Constant Matrix: (Units=GPa)
#
#
# Indices 1 2 3 4 5 6 
#
# 1 27.8618 18.7623 43.0604 0.0000 0.0000 0.0000
# 2 18.7623 114.7724 74.2088 0.0000 0.0000 0.0000
# 3 43.0604 74.2088 170.7854 0.0000 0.0000 0.0000
# 4 0.0000 0.0000 0.0000 26.5830 0.0000 0.0000
# 5 0.0000 0.0000 0.0000 0.0000 2.3609 0.0000
# 6 0.0000 0.0000 0.0000 0.0000 0.0000 5.2109
#
#
#
# Elastic Compliance Matrix: (Units=1/GPa)
#
#
# Indices 1 2 3 4 5 6 
#
# 1 0.058807 -0.000037 -0.014811 0.000000 0.000000 0.000000
# 2 -0.000037 0.012117 -0.005256 0.000000 0.000000 0.000000
# 3 -0.014811 -0.005256 0.011873 0.000000 0.000000 0.000000
# 4 0.000000 0.000000 0.000000 0.037618 0.000000 0.000000
# 5 0.000000 0.000000 0.000000 0.000000 0.423572 0.000000
# 6 0.000000 0.000000 0.000000 0.000000 0.000000 0.191904
#
#
# Mechanical properties :
#
#
# Convention : Reuss Voigt Hill
#
# Bulk Modulus (GPa) = 23.47979 65.05364 44.26671
# Shear Modulus (GPa) = 6.32675 18.65684 12.49180
#
# Velocity S-wave (km/s) = 1.90933 3.27877 2.68290
# Velocity P-wave (km/s) = 4.28837 7.19851 5.92489
#
# Compressibility (1/GPa) = 0.04258982
#
# Stress axis : x y z
#
# Youngs Moduli (GPa) = 17.00482 82.52746 84.22238
#
# Poissons Ratio (x) = 0.00305 1.24742
# Poissons Ratio (y) = 0.00063 0.44265
# Poissons Ratio (z) = 0.25186 0.43374
#
# Static dielectric constant tensor:
#      x y z
#    x 2.291800 0.000000 0.000000 
#    y 0.000000 3.443910 0.000000 
#    z 0.000000 0.000000 3.075770 
# 
# 
# High freq. dielectric constant tensor:
#      x y z
#    x 1.587420 0.000000 0.000000 
#    y 0.000000 1.679320 0.000000 
#    z 0.000000 0.000000 1.676170 
# 
# From -- ./inp_files/42313.got.cif
#   From: 2010.03.12/outbox.cif.g09.slc.cpg/sg67_22_cif.got.tgz:42313.got - 2010.04.10 22:41:39.
