data_PCOD8278175
_publ_section_title
;
Structure prediction by ZEFSAII (Michael W. Deem and Ramdas Pophale) SiO2 
 PCOD8278175
Probable space group: C M M A
;
_chemical_formula_sum "Si O2"
_cell_formula_units_Z 72
_cell_length_a 25.826421
_cell_length_b 8.953721
_cell_length_c 20.015768
_cell_angle_alpha 90.000000
_cell_angle_beta 90.000000
_cell_angle_gamma 90.000000
_cell_volume 4628.497594
_symmetry_space_group_name_H-M "C M M A"
_symmetry_group_IT_number 67
_symmetry_cell_setting 'orthorhombic'
loop_
_space_group_symop_operation_xyz
x,y,z
-x,1/2-y,z
x,-y,-z
-x,1/2+y,-z
-x,-y,-z
x,1/2+y,-z
-x,y,z
x,1/2-y,z
1/2+x,1/2+y,z
1/2-x,-y,z
1/2+x,1/2-y,-z
1/2-x,y,-z
1/2-x,1/2-y,-z
1/2+x,y,-z
1/2-x,1/2+y,z
1/2+x,-y,z
loop_
_atom_site_type_symbol
_atom_site_label
_atom_site_fract_x
_atom_site_fract_y
_atom_site_fract_z
Si Si1 0.941847 0.928332 0.791863
Si Si2 0.500000 0.927918 0.428066
Si Si3 0.438178 0.584433 0.063807
Si Si4 0.803405 0.571186 0.571060
Si Si5 0.901501 0.926815 0.654422
O O1 0.942535 0.750000 0.795826
O O2 0.921805 0.988471 0.864355
O O3 0.905754 0.986058 0.731003
O O4 0.000000 0.985765 0.777547
O O5 0.500000 0.750000 0.434753
O O6 0.550653 0.987413 0.389211
O O7 0.500000 0.000000 0.500000
O O8 0.500000 0.585907 0.060643
O O9 0.415485 0.750000 0.058898
O O10 0.414335 0.500000 0.000000
O O11 0.818026 0.500000 0.500000
O O12 0.798665 0.750000 0.564285
O O13 0.750000 0.500000 0.597432
O O14 0.847317 0.520534 0.623245
O O15 0.904894 0.750000 0.654823
#
# Coordination Sequence:
#
# PCOD8278175 Si02
#       5
#    16   8  16  16  16
#     4   8  12  21  37  57  79 103 133 164 192 227
#     4  10  18  28  42  60  81 104 130 164 199 238
#     4   8  13  20  33  52  74 102 132 159 185 219
#     4  10  19  31  46  62  79 103 134 170 208 243
#     4   9  16  26  42  62  81 103 134 168 200 235
#
# _framework density 15.555804
#
# number of rings (size 3 to 8) (size 9 to 14) (size 15 to 20)
#    0.000    3.111    1.111    3.333    0.000    0.000 
#    0.000    1.111    0.000    4.000    0.000    0.000 
#    0.000    0.889    0.000   11.111    0.000    0.444 
#
# Total GULP energy -446005.922033 kJ/mol
# GULP energy per Si atom -12389.053390 kJ/mol
# Density = 1.552040 g / cm^3
# Si number density = 15.555804 Si / 1000 Ang^3
#
#
#
# Elastic Constant Matrix: (Units=GPa)
#
#
# Indices 1 2 3 4 5 6 
#
# 1 87.0469 20.8437 73.3032 0.0000 0.0000 0.0000
# 2 20.8437 34.8711 30.0182 0.0000 0.0000 0.0000
# 3 73.3032 30.0182 175.2800 0.0000 0.0000 0.0000
# 4 0.0000 0.0000 0.0000 20.0475 0.0000 0.0000
# 5 0.0000 0.0000 0.0000 0.0000 17.2160 0.0000
# 6 0.0000 0.0000 0.0000 0.0000 0.0000 11.5865
#
#
#
# Elastic Compliance Matrix: (Units=1/GPa)
#
#
# Indices 1 2 3 4 5 6 
#
# 1 0.018491 -0.005156 -0.006850 0.000000 0.000000 0.000000
# 2 -0.005156 0.035073 -0.003850 0.000000 0.000000 0.000000
# 3 -0.006850 -0.003850 0.009229 0.000000 0.000000 0.000000
# 4 0.000000 0.000000 0.000000 0.049882 0.000000 0.000000
# 5 0.000000 0.000000 0.000000 0.000000 0.058085 0.000000
# 6 0.000000 0.000000 0.000000 0.000000 0.000000 0.086307
#
#
# Mechanical properties :
#
#
# Convention : Reuss Voigt Hill
#
# Bulk Modulus (GPa) = 32.17398 60.61425 46.39412
# Shear Modulus (GPa) = 16.71449 21.30553 19.01001
#
# Velocity S-wave (km/s) = 3.28149 3.70485 3.49958
# Velocity P-wave (km/s) = 5.92330 7.57308 6.79842
#
# Compressibility (1/GPa) = 0.03108102
#
# Stress axis : x y z
#
# Youngs Moduli (GPa) = 54.07947 28.51159 108.34995
#
# Poissons Ratio (x) = 0.14701 0.74222
# Poissons Ratio (y) = 0.27883 0.41719
# Poissons Ratio (z) = 0.37045 0.10978
#
# Static dielectric constant tensor:
#      x y z
#    x 2.812030 0.000000 0.000000 
#    y 0.000000 2.705640 0.000000 
#    z 0.000000 0.000000 3.438190 
# 
# 
# High freq. dielectric constant tensor:
#      x y z
#    x 1.551390 0.000000 0.000000 
#    y 0.000000 1.561730 0.000000 
#    z 0.000000 0.000000 1.612570 
# 
# From -- ./inp_files/36831.got.cif
#   From: 2010.03.12/outbox.cif.g09.slc.cpg/sg67_19_cif.got.tgz:36831.got - 2010.04.10 22:41:39.
