data_PCOD8278053
_publ_section_title
;
Structure prediction by ZEFSAII (Michael W. Deem and Ramdas Pophale) SiO2 
 PCOD8278053
Probable space group: C M M A
;
_chemical_formula_sum "Si O2"
_cell_formula_units_Z 104
_cell_length_a 8.718250
_cell_length_b 20.513316
_cell_length_c 30.166262
_cell_angle_alpha 90.000000
_cell_angle_beta 90.000000
_cell_angle_gamma 90.000000
_cell_volume 5394.940849
_symmetry_space_group_name_H-M "C M M A"
_symmetry_group_IT_number 67
_symmetry_cell_setting 'orthorhombic'
loop_
_space_group_symop_operation_xyz
x,y,z
-x,1/2-y,z
x,-y,-z
-x,1/2+y,-z
-x,-y,-z
x,1/2+y,-z
-x,y,z
x,1/2-y,z
1/2+x,1/2+y,z
1/2-x,-y,z
1/2+x,1/2-y,-z
1/2-x,y,-z
1/2-x,1/2-y,-z
1/2+x,y,-z
1/2-x,1/2+y,z
1/2+x,-y,z
loop_
_atom_site_type_symbol
_atom_site_label
_atom_site_fract_x
_atom_site_fract_y
_atom_site_fract_z
Si Si1 0.323321 0.250000 0.046833
Si Si2 0.820278 0.676048 0.291982
Si Si3 0.181626 0.677334 0.801498
Si Si4 0.817122 0.072242 0.456028
Si Si5 0.818962 0.890772 0.048811
Si Si6 0.318674 0.935315 0.134974
Si Si7 0.317673 0.571710 0.634334
O O1 0.500000 0.250000 0.036857
O O2 0.277470 0.318485 0.069300
O O3 0.250000 0.250000 0.000000
O O4 0.773472 0.750000 0.306385
O O5 0.738402 0.655742 0.246673
O O6 0.768175 0.623257 0.328249
O O7 0.000000 0.671995 0.283819
O O8 0.242934 0.750000 0.813377
O O9 0.245251 0.626840 0.837937
O O10 0.000000 0.676386 0.801077
O O11 0.750000 0.108723 0.500000
O O12 0.753803 0.103209 0.410550
O O13 0.000000 0.072500 0.457020
O O14 0.750000 0.000000 0.456317
O O15 0.740674 0.937474 0.084297
O O16 0.000000 0.903466 0.046370
O O17 0.750000 0.902673 0.000000
O O18 0.500000 0.937733 0.135611
O O19 0.250000 0.000000 0.158094
O O20 0.500000 0.565439 0.629454
O O21 0.250000 0.500000 0.645170
#
# Coordination Sequence:
#
# PCOD8278053 Si02
#       7
#     8  16  16  16  16  16  16
#     4   8  16  30  50  78 108 136 170 212 254 298
#     4   9  19  36  57  80 106 139 177 218 266 319
#     4   9  20  39  61  83 106 137 177 220 266 317
#     4  10  17  27  44  68 101 139 180 223 269 317
#     4  10  20  36  57  83 113 145 181 218 262 312
#     4  11  24  40  58  82 113 146 180 220 267 318
#     4  10  19  31  49  76 108 139 177 222 268 318
#
# _framework density 19.277321000000001
#
# number of rings (size 3 to 8) (size 9 to 14) (size 15 to 20)
#    0.000    2.308    0.000    4.154    1.077    4.000 
#    0.000    4.615    0.000    0.462    0.000    0.000 
#    0.000    0.000    0.000    0.000    0.000    0.000 
#
# Total GULP energy -644359.574220 kJ/mol
# GULP energy per Si atom -12391.530273 kJ/mol
# Density = 1.923344 g / cm^3
# Si number density = 19.277321 Si / 1000 Ang^3
#
#
#
# Elastic Constant Matrix: (Units=GPa)
#
#
# Indices 1 2 3 4 5 6 
#
# 1 76.9342 37.9397 40.9882 0.0000 0.0000 0.0000
# 2 37.9397 105.8014 75.6320 0.0000 0.0000 0.0000
# 3 40.9882 75.6320 135.1778 0.0000 0.0000 0.0000
# 4 0.0000 0.0000 0.0000 38.0920 0.0000 0.0000
# 5 0.0000 0.0000 0.0000 0.0000 32.6655 0.0000
# 6 0.0000 0.0000 0.0000 0.0000 0.0000 23.7509
#
#
#
# Elastic Compliance Matrix: (Units=1/GPa)
#
#
# Indices 1 2 3 4 5 6 
#
# 1 0.016405 -0.003878 -0.002805 0.000000 0.000000 0.000000
# 2 -0.003878 0.016668 -0.008150 0.000000 0.000000 0.000000
# 3 -0.002805 -0.008150 0.012808 0.000000 0.000000 0.000000
# 4 0.000000 0.000000 0.000000 0.026252 0.000000 0.000000
# 5 0.000000 0.000000 0.000000 0.000000 0.030613 0.000000
# 6 0.000000 0.000000 0.000000 0.000000 0.000000 0.042104
#
#
# Mechanical properties :
#
#
# Convention : Reuss Voigt Hill
#
# Bulk Modulus (GPa) = 61.66709 69.67036 65.66872
# Shear Modulus (GPa) = 27.79006 29.79191 28.79098
#
# Velocity S-wave (km/s) = 3.80095 3.93547 3.86880
# Velocity P-wave (km/s) = 7.16393 7.54123 7.35500
#
# Compressibility (1/GPa) = 0.01621610
#
# Stress axis : x y z
#
# Youngs Moduli (GPa) = 60.95849 59.99401 78.07588
#
# Poissons Ratio (x) = 0.23264 0.21897
# Poissons Ratio (y) = 0.23638 0.63633
# Poissons Ratio (z) = 0.17096 0.48896
#
# Static dielectric constant tensor:
#      x y z
#    x 3.457010 0.000000 0.000000 
#    y 0.000000 3.807500 0.000000 
#    z 0.000000 0.000000 3.913800 
# 
# 
# High freq. dielectric constant tensor:
#      x y z
#    x 1.754620 0.000000 0.000000 
#    y 0.000000 1.737790 0.000000 
#    z 0.000000 0.000000 1.749540 
# 
# From -- ./inp_files/43582.got.cif
#   From: 2010.03.12/outbox.cif.g09.slc.cpg/sg67_22_cif.got.tgz:43582.got - 2010.04.10 22:41:39.
