data_PCOD8278064
_publ_section_title
;
Structure prediction by ZEFSAII (Michael W. Deem and Ramdas Pophale) SiO2 
 PCOD8278064
Probable space group: C M M A
;
_chemical_formula_sum "Si O2"
_cell_formula_units_Z 88
_cell_length_a 16.418226
_cell_length_b 8.616067
_cell_length_c 30.158396
_cell_angle_alpha 90.000000
_cell_angle_beta 90.000000
_cell_angle_gamma 90.000000
_cell_volume 4266.222840
_symmetry_space_group_name_H-M "C M M A"
_symmetry_group_IT_number 67
_symmetry_cell_setting 'orthorhombic'
loop_
_space_group_symop_operation_xyz
x,y,z
-x,1/2-y,z
x,-y,-z
-x,1/2+y,-z
-x,-y,-z
x,1/2+y,-z
-x,y,z
x,1/2-y,z
1/2+x,1/2+y,z
1/2-x,-y,z
1/2+x,1/2-y,-z
1/2-x,y,-z
1/2-x,1/2-y,-z
1/2+x,y,-z
1/2-x,1/2+y,z
1/2+x,-y,z
loop_
_atom_site_type_symbol
_atom_site_label
_atom_site_fract_x
_atom_site_fract_y
_atom_site_fract_z
Si Si1 0.907401 0.919564 0.223479
Si Si2 0.841165 0.434329 0.044406
Si Si3 0.838627 0.064596 0.403399
Si Si4 0.833360 0.930652 0.696662
Si Si5 0.500000 0.564721 0.549061
Si Si6 0.160913 0.565101 0.132636
O O1 0.866731 0.750000 0.232058
O O2 0.871296 0.000801 0.179577
O O3 0.000000 0.895487 0.212293
O O4 0.901094 0.023020 0.267711
O O5 0.841174 0.250000 0.044007
O O6 0.750000 0.500000 0.044125
O O7 0.886337 0.497098 0.089276
O O8 0.885739 0.500000 0.000000
O O9 0.838444 0.250000 0.408866
O O10 0.852397 0.007471 0.352730
O O11 0.750000 0.000000 0.420237
O O12 0.916117 0.995338 0.429004
O O13 0.825132 0.750000 0.693493
O O14 0.750000 0.000000 0.715408
O O15 0.500000 0.750000 0.549788
O O16 0.500000 0.500000 0.500000
O O17 0.156054 0.750000 0.132093
O O18 0.250000 0.500000 0.128160
#
# Coordination Sequence:
#
# PCOD8278064 Si02
#       6
#    16  16  16  16   8  16
#     4  10  22  37  53  77 110 148 187 230 280 337
#     4  10  17  27  45  70  98 126 163 211 266 323
#     4  10  22  42  66  96 132 169 215 266 319 377
#     4  10  21  37  60  87 117 152 193 241 291 345
#     4  12  26  44  68  98 132 174 218 266 321 376
#     4  10  19  32  50  72 101 135 174 219 270 325
#
# _framework density 20.627146
#
# number of rings (size 3 to 8) (size 9 to 14) (size 15 to 20)
#    0.000    1.818    0.000    6.273    1.273    5.818 
#    0.000    1.818    0.000    0.545    0.000    0.000 
#    0.000    0.000    0.000    0.000    0.000    0.000 
#
# Total GULP energy -545194.935748 kJ/mol
# GULP energy per Si atom -12390.793994 kJ/mol
# Density = 2.058020 g / cm^3
# Si number density = 20.627146 Si / 1000 Ang^3
#
#
#
# Elastic Constant Matrix: (Units=GPa)
#
#
# Indices 1 2 3 4 5 6 
#
# 1 86.5839 30.1961 59.3169 0.0000 0.0000 0.0000
# 2 30.1961 112.8383 51.8208 0.0000 0.0000 0.0000
# 3 59.3169 51.8208 164.8184 0.0000 0.0000 0.0000
# 4 0.0000 0.0000 0.0000 35.3348 0.0000 0.0000
# 5 0.0000 0.0000 0.0000 0.0000 0.7053 0.0000
# 6 0.0000 0.0000 0.0000 0.0000 0.0000 23.5607
#
#
#
# Elastic Compliance Matrix: (Units=1/GPa)
#
#
# Indices 1 2 3 4 5 6 
#
# 1 0.015660 -0.001873 -0.005047 0.000000 0.000000 0.000000
# 2 -0.001873 0.010582 -0.002653 0.000000 0.000000 0.000000
# 3 -0.005047 -0.002653 0.008718 0.000000 0.000000 0.000000
# 4 0.000000 0.000000 0.000000 0.028301 0.000000 0.000000
# 5 0.000000 0.000000 0.000000 0.000000 1.417752 0.000000
# 6 0.000000 0.000000 0.000000 0.000000 0.000000 0.042444
#
#
# Mechanical properties :
#
#
# Convention : Reuss Voigt Hill
#
# Bulk Modulus (GPa) = 63.23552 71.87870 67.55711
# Shear Modulus (GPa) = 3.23024 26.78062 15.00543
#
# Velocity S-wave (km/s) = 1.25276 3.60713 2.70007
# Velocity P-wave (km/s) = 5.72849 7.22986 6.52251
#
# Compressibility (1/GPa) = 0.01581390
#
# Stress axis : x y z
#
# Youngs Moduli (GPa) = 63.85536 94.50168 114.70694
#
# Poissons Ratio (x) = 0.17699 0.57895
# Poissons Ratio (y) = 0.11959 0.30432
# Poissons Ratio (z) = 0.32229 0.25071
#
# Static dielectric constant tensor:
#      x y z
#    x 3.535570 0.000000 0.000000 
#    y 0.000000 3.811380 0.000000 
#    z 0.000000 0.000000 4.673310 
# 
# 
# High freq. dielectric constant tensor:
#      x y z
#    x 1.775570 0.000000 0.000000 
#    y 0.000000 1.812370 0.000000 
#    z 0.000000 0.000000 1.830410 
# 
# From -- ./inp_files/45798.got.cif
#   From: 2010.03.12/outbox.cif.g09.slc.cpg/sg67_23_cif.got.tgz:45798.got - 2010.04.10 22:41:39.
