data_PCOD8278987
_publ_section_title
;
Structure prediction by ZEFSAII (Michael W. Deem and Ramdas Pophale) SiO2 
 PCOD8278987
Probable space group: C M M A
;
_chemical_formula_sum "Si O2"
_cell_formula_units_Z 112
_cell_length_a 18.735570
_cell_length_b 18.320658
_cell_length_c 17.561463
_cell_angle_alpha 90.000000
_cell_angle_beta 90.000000
_cell_angle_gamma 90.000000
_cell_volume 6027.936532
_symmetry_space_group_name_H-M "C M M A"
_symmetry_group_IT_number 67
_symmetry_cell_setting 'orthorhombic'
loop_
_space_group_symop_operation_xyz
x,y,z
-x,1/2-y,z
x,-y,-z
-x,1/2+y,-z
-x,-y,-z
x,1/2+y,-z
-x,y,z
x,1/2-y,z
1/2+x,1/2+y,z
1/2-x,-y,z
1/2+x,1/2-y,-z
1/2-x,y,-z
1/2-x,1/2-y,-z
1/2+x,y,-z
1/2-x,1/2+y,z
1/2+x,-y,z
loop_
_atom_site_type_symbol
_atom_site_label
_atom_site_fract_x
_atom_site_fract_y
_atom_site_fract_z
Si Si1 0.828484 0.666104 0.857128
Si Si2 0.416900 0.093870 0.730750
Si Si3 0.084027 0.928380 0.279477
Si Si4 0.663795 0.163505 0.154538
Si Si5 0.334908 0.917450 0.996759
Si Si6 0.915750 0.329925 0.419698
Si Si7 0.584387 0.067536 0.451332
O O1 0.833722 0.750000 0.879263
O O2 0.875184 0.648746 0.784311
O O3 0.747189 0.645088 0.837831
O O4 0.862444 0.622701 0.927853
O O5 0.500000 0.109971 0.740904
O O6 0.391358 0.112975 0.645109
O O7 0.399442 0.009948 0.750453
O O8 0.124153 0.869559 0.227652
O O9 0.114592 0.924197 0.365810
O O10 0.000000 0.910997 0.276583
O O11 0.648722 0.250000 0.150028
O O12 0.635128 0.124157 0.077791
O O13 0.250000 0.914866 0.000000
O O14 0.364023 0.000000 0.000000
O O15 0.880547 0.250000 0.407979
O O16 0.893866 0.359737 0.502705
O O17 0.000000 0.322681 0.415879
O O18 0.500000 0.055419 0.444085
O O19 0.616522 0.000000 0.500000
#
# Coordination Sequence:
#
# PCOD8278987 Si02
#       7
#    16  16  16  16  16  16  16
#     4  10  20  34  54  78 105 138 173 213 263 315
#     4  10  19  32  51  78 107 132 167 217 268 313
#     4  10  20  33  53  78 106 140 175 215 264 313
#     4  10  21  36  53  77 108 140 176 217 261 315
#     4   9  17  32  55  78 100 132 178 221 260 307
#     4   9  16  26  44  71 100 129 163 207 256 304
#     4   9  15  28  48  71 100 133 171 214 257 305
#
# _framework density 18.580157
#
# number of rings (size 3 to 8) (size 9 to 14) (size 15 to 20)
#    0.000    2.429    1.429    1.714    0.000    5.143 
#    0.000    2.143    0.000    5.143    0.000    3.000 
#    0.000    0.000    0.000    0.000    0.000    0.000 
#
# Total GULP energy -694219.428871 kJ/mol
# GULP energy per Si atom -12396.775516 kJ/mol
# Density = 1.853787 g / cm^3
# Si number density = 18.580157 Si / 1000 Ang^3
#
#
#
# Elastic Constant Matrix: (Units=GPa)
#
#
# Indices 1 2 3 4 5 6 
#
# 1 28.0756 29.3169 33.2108 0.0000 0.0000 0.0000
# 2 29.3169 121.0446 59.5439 0.0000 0.0000 0.0000
# 3 33.2108 59.5439 141.0392 0.0000 0.0000 0.0000
# 4 0.0000 0.0000 0.0000 34.5647 0.0000 0.0000
# 5 0.0000 0.0000 0.0000 0.0000 35.5337 0.0000
# 6 0.0000 0.0000 0.0000 0.0000 0.0000 22.2943
#
#
#
# Elastic Compliance Matrix: (Units=1/GPa)
#
#
# Indices 1 2 3 4 5 6 
#
# 1 0.056130 -0.008952 -0.009438 0.000000 0.000000 0.000000
# 2 -0.008952 0.011855 -0.002897 0.000000 0.000000 0.000000
# 3 -0.009438 -0.002897 0.010536 0.000000 0.000000 0.000000
# 4 0.000000 0.000000 0.000000 0.028931 0.000000 0.000000
# 5 0.000000 0.000000 0.000000 0.000000 0.028142 0.000000
# 6 0.000000 0.000000 0.000000 0.000000 0.000000 0.044854
#
#
# Mechanical properties :
#
#
# Convention : Reuss Voigt Hill
#
# Bulk Modulus (GPa) = 27.81876 59.36694 43.59285
# Shear Modulus (GPa) = 21.27629 29.68440 25.48035
#
# Velocity S-wave (km/s) = 3.38762 4.00139 3.70722
# Velocity P-wave (km/s) = 5.50509 7.30543 6.46820
#
# Compressibility (1/GPa) = 0.03594696
#
# Stress axis : x y z
#
# Youngs Moduli (GPa) = 17.81581 84.35564 94.91714
#
# Poissons Ratio (x) = 0.75516 0.89580
# Poissons Ratio (y) = 0.15949 0.27496
# Poissons Ratio (z) = 0.16814 0.24436
#
# Static dielectric constant tensor:
#      x y z
#    x 2.881740 0.000000 0.000000 
#    y 0.000000 3.571390 0.000000 
#    z 0.000000 0.000000 3.577320 
# 
# 
# High freq. dielectric constant tensor:
#      x y z
#    x 1.659180 0.000000 0.000000 
#    y 0.000000 1.734520 0.000000 
#    z 0.000000 0.000000 1.735110 
# 
# From -- ./inp_files/35123.got.cif
#   From: 2010.03.12/outbox.cif.g09.slc.cpg/sg67_18_cif.got.tgz:35123.got - 2010.04.10 22:41:39.
