data_PCOD8278322
_publ_section_title
;
Structure prediction by ZEFSAII (Michael W. Deem and Ramdas Pophale) SiO2 
 PCOD8278322
Probable space group: C M M A
;
_chemical_formula_sum "Si O2"
_cell_formula_units_Z 88
_cell_length_a 9.995453
_cell_length_b 22.178187
_cell_length_c 21.758884
_cell_angle_alpha 90.000000
_cell_angle_beta 90.000000
_cell_angle_gamma 90.000000
_cell_volume 4823.531725
_symmetry_space_group_name_H-M "C M M A"
_symmetry_group_IT_number 67
_symmetry_cell_setting 'orthorhombic'
loop_
_space_group_symop_operation_xyz
x,y,z
-x,1/2-y,z
x,-y,-z
-x,1/2+y,-z
-x,-y,-z
x,1/2+y,-z
-x,y,z
x,1/2-y,z
1/2+x,1/2+y,z
1/2-x,-y,z
1/2+x,1/2-y,-z
1/2-x,y,-z
1/2-x,1/2-y,-z
1/2+x,y,-z
1/2-x,1/2+y,z
1/2+x,-y,z
loop_
_atom_site_type_symbol
_atom_site_label
_atom_site_fract_x
_atom_site_fract_y
_atom_site_fract_z
Si Si1 0.500000 0.921417 0.056666
Si Si2 0.259031 0.120331 0.865861
Si Si3 0.349615 0.164127 0.664987
Si Si4 0.348139 0.556331 0.256392
Si Si5 0.850366 0.750000 0.555836
Si Si6 0.645265 0.250000 0.280468
Si Si7 0.354226 0.750000 0.859979
Si Si8 0.000000 0.938569 0.083083
O O1 0.367469 0.891563 0.082355
O O2 0.500000 0.990400 0.076303
O O3 0.500000 0.909134 0.984093
O O4 0.313207 0.102671 0.798482
O O5 0.230408 0.190808 0.874961
O O6 0.128477 0.080496 0.878027
O O7 0.500000 0.184971 0.685111
O O8 0.337307 0.092337 0.678028
O O9 0.326496 0.188590 0.595587
O O10 0.232567 0.191551 0.705718
O O11 0.500000 0.532813 0.247061
O O12 0.250000 0.500000 0.258108
O O13 0.750000 0.750000 0.500000
O O14 0.000000 0.750000 0.528991
O O15 0.500000 0.250000 0.315597
O O16 0.609824 0.250000 0.210480
O O17 0.500000 0.750000 0.894393
#
# Coordination Sequence:
#
# PCOD8278322 Si02
#       8
#     8  16  16  16   8   8   8   8
#     4  11  24  43  61  95 103 150 199 248 298 353
#     4  12  23  40  61  87 115 153 198 242 303 363
#     4   9  19  36  54  82 118 156 191 234 286 341
#     4  11  23  37  58  88 121 153 194 244 300 355
#     4   9  18  34  59  86 119 156 197 244 280 331
#     4  10  18  30  50  79 113 148 186 223 277 333
#     4  11  23  39  56  83 118 156 182 237 300 357
#     4  11  24  43  67  77 123 146 191 250 300 361
#
# _framework density 18.243894000000001
#
# number of rings (size 3 to 8) (size 9 to 14) (size 15 to 20)
#    0.000    1.455    3.636    3.000    1.273    4.000 
#    1.636    2.727    0.000    0.545    0.000    3.818 
#    0.000    0.000    0.000    0.000    0.000    0.000 
#
# Total GULP energy -545244.272322 kJ/mol
# GULP energy per Si atom -12391.915280 kJ/mol
# Density = 1.820237 g / cm^3
# Si number density = 18.243894 Si / 1000 Ang^3
#
#
#
# Elastic Constant Matrix: (Units=GPa)
#
#
# Indices 1 2 3 4 5 6 
#
# 1 152.6249 56.1191 44.1021 0.0000 0.0000 0.0000
# 2 56.1191 112.3322 37.4624 0.0000 0.0000 0.0000
# 3 44.1021 37.4624 78.3102 0.0000 0.0000 0.0000
# 4 0.0000 0.0000 0.0000 -6.5297 0.0000 0.0000
# 5 0.0000 0.0000 0.0000 0.0000 28.5353 0.0000
# 6 0.0000 0.0000 0.0000 0.0000 0.0000 -75.0951
#
#
#
# Elastic Compliance Matrix: (Units=1/GPa)
#
#
# Indices 1 2 3 4 5 6 
#
# 1 0.008711 -0.003231 -0.003360 0.000000 0.000000 0.000000
# 2 -0.003231 0.011791 -0.003821 0.000000 0.000000 0.000000
# 3 -0.003360 -0.003821 0.016490 0.000000 0.000000 0.000000
# 4 0.000000 0.000000 0.000000 -0.153147 0.000000 0.000000
# 5 0.000000 0.000000 0.000000 0.000000 0.035044 0.000000
# 6 0.000000 0.000000 0.000000 0.000000 0.000000 -0.013316
#
#
# Mechanical properties :
#
#
# Convention : Reuss Voigt Hill
#
# Bulk Modulus (GPa) = 61.85271 68.73715 65.29493
# Shear Modulus (GPa) = -73.29825 3.08768 -35.10528
#
# Velocity S-wave (km/s) = -6.34540 1.30235 -4.39135
# Velocity P-wave (km/s) = 4.43944 6.32614 3.18681
#
# Compressibility (1/GPa) = 0.01616744
#
# Stress axis : x y z
#
# Youngs Moduli (GPa) = 114.79678 84.81292 60.64382
#
# Poissons Ratio (x) = 0.27406 0.20376
# Poissons Ratio (y) = 0.37095 0.23170
# Poissons Ratio (z) = 0.38572 0.32404
#
# Static dielectric constant tensor:
#      x y z
#    x 3.594730 0.000000 0.000000 
#    y 0.000000 1.529950 0.000000 
#    z 0.000000 0.000000 3.172160 
# 
# 
# High freq. dielectric constant tensor:
#      x y z
#    x 1.733490 0.000000 0.000000 
#    y 0.000000 1.700390 0.000000 
#    z 0.000000 0.000000 1.677470 
# 
# From -- ./inp_files/40743.got.cif
#   From: 2010.03.12/outbox.cif.g09.slc.cpg/sg67_21_cif.got.tgz:40743.got - 2010.04.10 22:41:39.
