data_PCOD8278765
_publ_section_title
;
Structure prediction by ZEFSAII (Michael W. Deem and Ramdas Pophale) SiO2 
 PCOD8278765
Probable space group: C M M A
;
_chemical_formula_sum "Si O2"
_cell_formula_units_Z 96
_cell_length_a 24.002868
_cell_length_b 8.759909
_cell_length_c 25.793183
_cell_angle_alpha 90.000000
_cell_angle_beta 90.000000
_cell_angle_gamma 90.000000
_cell_volume 5423.350475
_symmetry_space_group_name_H-M "C M M A"
_symmetry_group_IT_number 67
_symmetry_cell_setting 'orthorhombic'
loop_
_space_group_symop_operation_xyz
x,y,z
-x,1/2-y,z
x,-y,-z
-x,1/2+y,-z
-x,-y,-z
x,1/2+y,-z
-x,y,z
x,1/2-y,z
1/2+x,1/2+y,z
1/2-x,-y,z
1/2+x,1/2-y,-z
1/2-x,y,-z
1/2-x,1/2-y,-z
1/2+x,y,-z
1/2-x,1/2+y,z
1/2+x,-y,z
loop_
_atom_site_type_symbol
_atom_site_label
_atom_site_fract_x
_atom_site_fract_y
_atom_site_fract_z
Si Si1 0.689362 0.568097 0.552875
Si Si2 0.120928 0.068665 0.651607
Si Si3 0.000000 0.567857 0.212943
Si Si4 0.390434 0.568781 0.840477
Si Si5 0.810778 0.068609 0.751918
Si Si6 0.063772 0.069872 0.946517
Si Si7 0.500000 0.431444 0.328901
O O1 0.663124 0.500000 0.500000
O O2 0.692364 0.750000 0.549233
O O3 0.750000 0.500000 0.561583
O O4 0.652875 0.509711 0.600983
O O5 0.120700 0.250000 0.653811
O O6 0.150741 0.009344 0.704250
O O7 0.057350 0.006769 0.645654
O O8 0.054446 0.500484 0.185723
O O9 0.000000 0.750000 0.210289
O O10 0.000000 0.507402 0.270846
O O11 0.392145 0.750000 0.837628
O O12 0.337062 0.511998 0.807142
O O13 0.393658 0.515617 0.900755
O O14 0.806222 0.250000 0.750370
O O15 0.750000 0.000000 0.745784
O O16 0.065037 0.250000 0.951678
O O17 0.000000 0.016371 0.934912
O O18 0.086155 0.000000 0.000000
O O19 0.500000 0.250000 0.330550
#
# Coordination Sequence:
#
# PCOD8278765 Si02
#       7
#    16  16   8  16  16  16   8
#     4  10  19  32  49  70  93 122 158 194 229 266
#     4   9  17  28  46  71  97 120 148 188 232 273
#     4   9  12  20  41  68  92 116 146 185 226 263
#     4   9  15  25  44  68  93 118 149 187 226 268
#     4  10  19  31  47  70  95 120 150 187 229 271
#     4   9  16  26  42  66  93 118 145 181 225 270
#     4   9  14  24  43  70  98 120 146 185 228 271
#
# _framework density 17.701235
#
# number of rings (size 3 to 8) (size 9 to 14) (size 15 to 20)
#    0.000    2.667    2.500    1.500    0.000    0.000 
#    0.000    2.083    0.000    0.500    0.000    9.333 
#    0.000    0.000    0.000    0.000    0.000    0.000 
#
# Total GULP energy -594725.744408 kJ/mol
# GULP energy per Si atom -12390.119675 kJ/mol
# Density = 1.766095 g / cm^3
# Si number density = 17.701235 Si / 1000 Ang^3
#
#
#
# Elastic Constant Matrix: (Units=GPa)
#
#
# Indices 1 2 3 4 5 6 
#
# 1 121.0375 14.0298 77.2291 0.0000 0.0000 0.0000
# 2 14.0298 20.3095 22.8597 0.0000 0.0000 0.0000
# 3 77.2291 22.8597 168.2310 0.0000 0.0000 0.0000
# 4 0.0000 0.0000 0.0000 18.3529 0.0000 0.0000
# 5 0.0000 0.0000 0.0000 0.0000 29.9407 0.0000
# 6 0.0000 0.0000 0.0000 0.0000 0.0000 15.8661
#
#
#
# Elastic Compliance Matrix: (Units=1/GPa)
#
#
# Indices 1 2 3 4 5 6 
#
# 1 0.011784 -0.002422 -0.005081 0.000000 0.000000 0.000000
# 2 -0.002422 0.058626 -0.006854 0.000000 0.000000 0.000000
# 3 -0.005081 -0.006854 0.009208 0.000000 0.000000 0.000000
# 4 0.000000 0.000000 0.000000 0.054487 0.000000 0.000000
# 5 0.000000 0.000000 0.000000 0.000000 0.033399 0.000000
# 6 0.000000 0.000000 0.000000 0.000000 0.000000 0.063027
#
#
# Mechanical properties :
#
#
# Convention : Reuss Voigt Hill
#
# Bulk Modulus (GPa) = 19.64464 59.75724 39.70094
# Shear Modulus (GPa) = 18.10181 25.86257 21.98219
#
# Velocity S-wave (km/s) = 3.20133 3.82653 3.52780
# Velocity P-wave (km/s) = 4.97862 7.30446 6.25067
#
# Compressibility (1/GPa) = 0.05090448
#
# Stress axis : x y z
#
# Youngs Moduli (GPa) = 84.85753 17.05715 108.60127
#
# Poissons Ratio (x) = 0.04131 0.55177
# Poissons Ratio (y) = 0.20553 0.74440
# Poissons Ratio (z) = 0.43114 0.11692
#
# Static dielectric constant tensor:
#      x y z
#    x 3.394290 0.000000 0.000000 
#    y 0.000000 2.789720 0.000000 
#    z 0.000000 0.000000 3.665460 
# 
# 
# High freq. dielectric constant tensor:
#      x y z
#    x 1.671620 0.000000 0.000000 
#    y 0.000000 1.633080 0.000000 
#    z 0.000000 0.000000 1.695130 
# 
# From -- ./inp_files/44804.got.cif
#   From: 2010.03.12/outbox.cif.g09.slc.cpg/sg67_23_cif.got.tgz:44804.got - 2010.04.10 22:41:39.
