data_PCOD8278956
_publ_section_title
;
Structure prediction by ZEFSAII (Michael W. Deem and Ramdas Pophale) SiO2 
 PCOD8278956
Probable space group: C M M A
;
_chemical_formula_sum "Si O2"
_cell_formula_units_Z 120
_cell_length_a 8.973671
_cell_length_b 26.719032
_cell_length_c 28.192386
_cell_angle_alpha 90.000000
_cell_angle_beta 90.000000
_cell_angle_gamma 90.000000
_cell_volume 6759.626441
_symmetry_space_group_name_H-M "C M M A"
_symmetry_group_IT_number 67
_symmetry_cell_setting 'orthorhombic'
loop_
_space_group_symop_operation_xyz
x,y,z
-x,1/2-y,z
x,-y,-z
-x,1/2+y,-z
-x,-y,-z
x,1/2+y,-z
-x,y,z
x,1/2-y,z
1/2+x,1/2+y,z
1/2-x,-y,z
1/2+x,1/2-y,-z
1/2-x,y,-z
1/2-x,1/2-y,-z
1/2+x,y,-z
1/2-x,1/2+y,z
1/2+x,-y,z
loop_
_atom_site_type_symbol
_atom_site_label
_atom_site_fract_x
_atom_site_fract_y
_atom_site_fract_z
Si Si1 0.175509 0.649732 0.549829
Si Si2 0.325481 0.551233 0.883981
Si Si3 0.327024 0.250000 0.049718
Si Si4 0.669834 0.307452 0.361487
Si Si5 0.824037 0.858617 0.051077
Si Si6 0.675452 0.551494 0.774786
Si Si7 0.676945 0.389519 0.695208
Si Si8 0.328176 0.050821 0.603527
O O1 0.250000 0.661937 0.500000
O O2 0.248122 0.686228 0.588319
O O3 0.209049 0.592424 0.564133
O O4 0.000000 0.660422 0.547692
O O5 0.500000 0.544302 0.891156
O O6 0.250000 0.500000 0.901819
O O7 0.263277 0.598171 0.914083
O O8 0.285765 0.562202 0.829428
O O9 0.500000 0.250000 0.039304
O O10 0.284658 0.303438 0.074434
O O11 0.250000 0.250000 0.000000
O O12 0.500000 0.327208 0.365495
O O13 0.672951 0.250000 0.346604
O O14 0.757724 0.336177 0.320101
O O15 0.000000 0.864201 0.044482
O O16 0.750000 0.865486 0.000000
O O17 0.500000 0.548496 0.765432
O O18 0.750000 0.500000 0.757879
O O19 0.748061 0.596064 0.744838
O O20 0.500000 0.385258 0.700624
O O21 0.723644 0.429926 0.655182
O O22 0.500000 0.038512 0.605098
O O23 0.250000 0.000000 0.588520
#
# Coordination Sequence:
#
# PCOD8278956 Si02
#       8
#    16  16   8  16  16  16  16  16
#     4  10  21  36  52  73 101 133 170 207 247 296
#     4   9  19  33  48  69 101 136 172 210 254 306
#     4   8  14  26  46  68  90 118 158 204 252 296
#     4  10  21  37  57  79 101 128 164 206 253 301
#     4   9  17  30  48  71  97 129 169 214 259 307
#     4  10  19  32  51  74 102 134 169 208 248 297
#     4  10  20  34  53  77 102 130 164 203 250 301
#     4   9  19  32  47  70  98 127 160 196 238 288
#
# _framework density 17.752461
#
# number of rings (size 3 to 8) (size 9 to 14) (size 15 to 20)
#    0.000    2.533    0.000    2.800    0.000    7.200 
#    0.000    2.667    1.467    0.000    0.000    0.000 
#    0.000    0.000    0.000    0.000    0.000    0.000 
#
# Total GULP energy -743827.119685 kJ/mol
# GULP energy per Si atom -12397.118661 kJ/mol
# Density = 1.771206 g / cm^3
# Si number density = 17.752461 Si / 1000 Ang^3
#
#
#
# Elastic Constant Matrix: (Units=GPa)
#
#
# Indices 1 2 3 4 5 6 
#
# 1 74.0255 45.2321 36.9999 0.0000 0.0000 0.0000
# 2 45.2321 126.1236 59.3635 0.0000 0.0000 0.0000
# 3 36.9999 59.3635 87.3199 0.0000 0.0000 0.0000
# 4 0.0000 0.0000 0.0000 -4.7930 0.0000 0.0000
# 5 0.0000 0.0000 0.0000 0.0000 26.8351 0.0000
# 6 0.0000 0.0000 0.0000 0.0000 0.0000 29.3303
#
#
#
# Elastic Compliance Matrix: (Units=1/GPa)
#
#
# Indices 1 2 3 4 5 6 
#
# 1 0.018640 -0.004364 -0.004932 0.000000 0.000000 0.000000
# 2 -0.004364 0.012681 -0.006772 0.000000 0.000000 0.000000
# 3 -0.004932 -0.006772 0.018146 0.000000 0.000000 0.000000
# 4 0.000000 0.000000 0.000000 -0.208639 0.000000 0.000000
# 5 0.000000 0.000000 0.000000 0.000000 0.037265 0.000000
# 6 0.000000 0.000000 0.000000 0.000000 0.000000 0.034094
#
#
# Mechanical properties :
#
#
# Convention : Reuss Voigt Hill
#
# Bulk Modulus (GPa) = 57.69667 63.40664 60.55166
# Shear Modulus (GPa) = -100.20117 19.99938 -40.10089
#
# Velocity S-wave (km/s) = -7.52104 3.36008 -4.75794
# Velocity P-wave (km/s) = 6.54601 7.13079 1.99975
#
# Compressibility (1/GPa) = 0.01733202
#
# Stress axis : x y z
#
# Youngs Moduli (GPa) = 53.64725 78.85686 55.10902
#
# Poissons Ratio (x) = 0.34411 0.27179
# Poissons Ratio (y) = 0.23410 0.37321
# Poissons Ratio (z) = 0.26458 0.53403
#
# Static dielectric constant tensor:
#      x y z
#    x 3.110550 0.000000 0.000000 
#    y 0.000000 3.521190 0.000000 
#    z 0.000000 0.000000 3.155670 
# 
# 
# High freq. dielectric constant tensor:
#      x y z
#    x 1.694990 0.000000 0.000000 
#    y 0.000000 1.690040 0.000000 
#    z 0.000000 0.000000 1.665820 
# 
# From -- ./inp_files/43887.got.cif
#   From: 2010.03.12/outbox.cif.g09.slc.cpg/sg67_22_cif.got.tgz:43887.got - 2010.04.10 22:41:39.
