data_PCOD8278299
_publ_section_title
;
Structure prediction by ZEFSAII (Michael W. Deem and Ramdas Pophale) SiO2 
 PCOD8278299
Probable space group: C M M A
;
_chemical_formula_sum "Si O2"
_cell_formula_units_Z 80
_cell_length_a 22.368338
_cell_length_b 18.805728
_cell_length_c 10.294542
_cell_angle_alpha 90.000000
_cell_angle_beta 90.000000
_cell_angle_gamma 90.000000
_cell_volume 4330.428743
_symmetry_space_group_name_H-M "C M M A"
_symmetry_group_IT_number 67
_symmetry_cell_setting 'orthorhombic'
loop_
_space_group_symop_operation_xyz
x,y,z
-x,1/2-y,z
x,-y,-z
-x,1/2+y,-z
-x,-y,-z
x,1/2+y,-z
-x,y,z
x,1/2-y,z
1/2+x,1/2+y,z
1/2-x,-y,z
1/2+x,1/2-y,-z
1/2-x,y,-z
1/2-x,1/2-y,-z
1/2+x,y,-z
1/2-x,1/2+y,z
1/2+x,-y,z
loop_
_atom_site_type_symbol
_atom_site_label
_atom_site_fract_x
_atom_site_fract_y
_atom_site_fract_z
Si Si1 0.183172 0.028079 0.640562
Si Si2 0.680363 0.173264 0.984404
Si Si3 0.500000 0.832150 0.796876
Si Si4 0.376618 0.047531 0.871294
Si Si5 0.631623 0.667455 0.732286
Si Si6 0.500000 0.577884 0.054671
O O1 0.173217 0.114144 0.645561
O O2 0.164256 0.000000 0.500000
O O3 0.250000 0.000000 0.673390
O O4 0.136754 0.998053 0.744853
O O5 0.656185 0.250000 0.935802
O O6 0.669472 0.112747 0.878107
O O7 0.750000 0.178267 0.000000
O O8 0.647777 0.153216 0.118200
O O9 0.500000 0.750000 0.831337
O O10 0.439440 0.850850 0.715986
O O11 0.500000 0.868295 0.936313
O O12 0.441217 0.085188 0.856744
O O13 0.371241 0.000000 0.000000
O O14 0.645149 0.750000 0.693130
O O15 0.500000 0.500000 0.000000
#
# Coordination Sequence:
#
# PCOD8278299 Si02
#       6
#    16  16   8  16  16   8
#     4  11  24  41  57  82 116 157 199 243 294 351
#     4  10  19  30  50  83 113 141 182 232 282 337
#     4  10  18  32  58  89 122 153 191 239 290 346
#     4  11  20  33  56  80 111 143 186 233 290 338
#     4  10  19  36  59  85 114 151 196 239 286 351
#     4  10  18  30  48  81 113 141 175 231 287 336
#
# _framework density 18.473922000000002
#
# number of rings (size 3 to 8) (size 9 to 14) (size 15 to 20)
#    0.000    1.600    4.000    2.400    0.000    0.000 
#    0.000    5.000    0.000    0.000    0.000    0.000 
#    0.000    0.000    0.000    0.000    0.000    0.000 
#
# Total GULP energy -495698.030228 kJ/mol
# GULP energy per Si atom -12392.450756 kJ/mol
# Density = 1.843187 g / cm^3
# Si number density = 18.473922 Si / 1000 Ang^3
#
#
#
# Elastic Constant Matrix: (Units=GPa)
#
#
# Indices 1 2 3 4 5 6 
#
# 1 96.9466 48.7864 25.0471 0.0000 0.0000 0.0000
# 2 48.7864 125.1453 38.3615 0.0000 0.0000 0.0000
# 3 25.0471 38.3615 71.2388 0.0000 0.0000 0.0000
# 4 0.0000 0.0000 0.0000 24.8893 0.0000 0.0000
# 5 0.0000 0.0000 0.0000 0.0000 11.1322 0.0000
# 6 0.0000 0.0000 0.0000 0.0000 0.0000 34.3251
#
#
#
# Elastic Compliance Matrix: (Units=1/GPa)
#
#
# Indices 1 2 3 4 5 6 
#
# 1 0.013121 -0.004433 -0.002226 0.000000 0.000000 0.000000
# 2 -0.004433 0.011068 -0.004402 0.000000 0.000000 0.000000
# 3 -0.002226 -0.004402 0.017190 0.000000 0.000000 0.000000
# 4 0.000000 0.000000 0.000000 0.040178 0.000000 0.000000
# 5 0.000000 0.000000 0.000000 0.000000 0.089829 0.000000
# 6 0.000000 0.000000 0.000000 0.000000 0.000000 0.029133
#
#
# Mechanical properties :
#
#
# Convention : Reuss Voigt Hill
#
# Bulk Modulus (GPa) = 51.92597 57.52451 54.72524
# Shear Modulus (GPa) = 21.82841 26.14504 23.98672
#
# Velocity S-wave (km/s) = 3.44114 3.76605 3.60725
# Velocity P-wave (km/s) = 6.63003 7.07931 6.85835
#
# Compressibility (1/GPa) = 0.01925819
#
# Stress axis : x y z
#
# Youngs Moduli (GPa) = 76.21540 90.35130 58.17255
#
# Poissons Ratio (x) = 0.40048 0.12951
# Poissons Ratio (y) = 0.33783 0.25605
# Poissons Ratio (z) = 0.16968 0.39768
#
# Static dielectric constant tensor:
#      x y z
#    x 4.106240 0.000000 0.000000 
#    y 0.000000 3.762840 0.000000 
#    z 0.000000 0.000000 2.951220 
# 
# 
# High freq. dielectric constant tensor:
#      x y z
#    x 1.731560 0.000000 0.000000 
#    y 0.000000 1.737070 0.000000 
#    z 0.000000 0.000000 1.656680 
# 
# From -- ./inp_files/20555.got.cif
#   From: 2010.03.12/outbox.cif.g09.slc.cpg/sg67_11_cif.got.tgz:20555.got - 2010.04.10 22:41:39.
