data_PCOD8278463
_publ_section_title
;
Structure prediction by ZEFSAII (Michael W. Deem and Ramdas Pophale) SiO2 
 PCOD8278463
Probable space group: C M M A
;
_chemical_formula_sum "Si O2"
_cell_formula_units_Z 72
_cell_length_a 8.589225
_cell_length_b 32.275049
_cell_length_c 13.576007
_cell_angle_alpha 90.000000
_cell_angle_beta 90.000000
_cell_angle_gamma 90.000000
_cell_volume 3763.508862
_symmetry_space_group_name_H-M "C M M A"
_symmetry_group_IT_number 67
_symmetry_cell_setting 'orthorhombic'
loop_
_space_group_symop_operation_xyz
x,y,z
-x,1/2-y,z
x,-y,-z
-x,1/2+y,-z
-x,-y,-z
x,1/2+y,-z
-x,y,z
x,1/2-y,z
1/2+x,1/2+y,z
1/2-x,-y,z
1/2+x,1/2-y,-z
1/2-x,y,-z
1/2-x,1/2-y,-z
1/2+x,y,-z
1/2-x,1/2+y,z
1/2+x,-y,z
loop_
_atom_site_type_symbol
_atom_site_label
_atom_site_fract_x
_atom_site_fract_y
_atom_site_fract_z
Si Si1 0.184667 0.582391 0.605297
Si Si2 0.184469 0.877413 0.896515
Si Si3 0.315679 0.543611 0.795803
Si Si4 0.816266 0.666081 0.702140
Si Si5 0.813999 0.750000 0.609160
O O1 0.250000 0.569081 0.500000
O O2 0.253233 0.551314 0.685791
O O3 0.240689 0.629172 0.630377
O O4 0.000000 0.578625 0.607240
O O5 0.256107 0.921937 0.871744
O O6 0.236795 0.844021 0.813788
O O7 0.000000 0.881965 0.899881
O O8 0.250000 0.861125 0.000000
O O9 0.500000 0.543175 0.795330
O O10 0.250000 0.500000 0.833890
O O11 0.746027 0.709722 0.665865
O O12 0.000000 0.668847 0.697600
O O13 0.750000 0.750000 0.500000
O O14 0.000000 0.750000 0.606580
#
# Coordination Sequence:
#
# PCOD8278463 Si02
#       5
#    16  16  16  16   8
#     4  10  19  33  51  75 105 142 181 220 263 315
#     4  10  20  37  57  79 104 137 176 218 264 315
#     4  11  22  37  55  78 105 136 172 218 266 316
#     4   8  17  32  52  76 107 140 176 217 261 309
#     4  10  18  32  53  80 110 144 177 214 259 306
#
# _framework density 19.131081999999999
#
# number of rings (size 3 to 8) (size 9 to 14) (size 15 to 20)
#    0.000    2.222    0.000    5.333    0.000    0.889 
#    0.000   10.556    0.000    0.000    0.000    0.000 
#    0.000    0.000    0.000    0.000    0.000    0.000 
#
# Total GULP energy -446415.902609 kJ/mol
# GULP energy per Si atom -12400.441739 kJ/mol
# Density = 1.908754 g / cm^3
# Si number density = 19.131082 Si / 1000 Ang^3
#
#
#
# Elastic Constant Matrix: (Units=GPa)
#
#
# Indices 1 2 3 4 5 6 
#
# 1 96.0605 26.4273 30.5193 0.0000 0.0000 0.0000
# 2 26.4273 114.3323 37.8114 0.0000 0.0000 0.0000
# 3 30.5193 37.8114 126.7759 0.0000 0.0000 0.0000
# 4 0.0000 0.0000 0.0000 19.7032 0.0000 0.0000
# 5 0.0000 0.0000 0.0000 0.0000 34.7719 0.0000
# 6 0.0000 0.0000 0.0000 0.0000 0.0000 19.2441
#
#
#
# Elastic Compliance Matrix: (Units=1/GPa)
#
#
# Indices 1 2 3 4 5 6 
#
# 1 0.011655 -0.001959 -0.002221 0.000000 0.000000 0.000000
# 2 -0.001959 0.010033 -0.002521 0.000000 0.000000 0.000000
# 3 -0.002221 -0.002521 0.009174 0.000000 0.000000 0.000000
# 4 0.000000 0.000000 0.000000 0.050753 0.000000 0.000000
# 5 0.000000 0.000000 0.000000 0.000000 0.028759 0.000000
# 6 0.000000 0.000000 0.000000 0.000000 0.000000 0.051964
#
#
# Mechanical properties :
#
#
# Convention : Reuss Voigt Hill
#
# Bulk Modulus (GPa) = 57.27511 58.52052 57.89781
# Shear Modulus (GPa) = 27.53895 30.90455 29.22175
#
# Velocity S-wave (km/s) = 3.79817 4.02358 3.91250
# Velocity P-wave (km/s) = 7.01698 7.22781 7.12318
#
# Compressibility (1/GPa) = 0.01745959
#
# Stress axis : x y z
#
# Youngs Moduli (GPa) = 85.80090 99.67160 108.99777
#
# Poissons Ratio (x) = 0.19529 0.24212
# Poissons Ratio (y) = 0.16811 0.27475
# Poissons Ratio (z) = 0.19059 0.25124
#
# Static dielectric constant tensor:
#      x y z
#    x 3.347030 0.000000 0.000000 
#    y 0.000000 3.757990 0.000000 
#    z 0.000000 0.000000 3.516210 
# 
# 
# High freq. dielectric constant tensor:
#      x y z
#    x 1.735780 0.000000 0.000000 
#    y 0.000000 1.738200 0.000000 
#    z 0.000000 0.000000 1.747650 
# 
# From -- ./inp_files/25289.got.cif
#   From: 2010.03.12/outbox.cif.g09.slc.cpg/sg67_13_cif.got.tgz:25289.got - 2010.04.10 22:41:39.
