data_PCOD8278288
_publ_section_title
;
Structure prediction by ZEFSAII (Michael W. Deem and Ramdas Pophale) SiO2 
 PCOD8278288
Probable space group: C M M A
;
_chemical_formula_sum "Si O2"
_cell_formula_units_Z 104
_cell_length_a 29.630073
_cell_length_b 9.487368
_cell_length_c 22.045693
_cell_angle_alpha 90.000000
_cell_angle_beta 90.000000
_cell_angle_gamma 90.000000
_cell_volume 6197.295765
_symmetry_space_group_name_H-M "C M M A"
_symmetry_group_IT_number 67
_symmetry_cell_setting 'orthorhombic'
loop_
_space_group_symop_operation_xyz
x,y,z
-x,1/2-y,z
x,-y,-z
-x,1/2+y,-z
-x,-y,-z
x,1/2+y,-z
-x,y,z
x,1/2-y,z
1/2+x,1/2+y,z
1/2-x,-y,z
1/2+x,1/2-y,-z
1/2-x,y,-z
1/2-x,1/2-y,-z
1/2+x,y,-z
1/2-x,1/2+y,z
1/2+x,-y,z
loop_
_atom_site_type_symbol
_atom_site_label
_atom_site_fract_x
_atom_site_fract_y
_atom_site_fract_z
Si Si1 0.250000 0.000000 0.765831
Si Si2 0.296419 0.083274 0.555905
Si Si3 0.180457 0.898914 0.142977
Si Si4 0.832688 0.407492 0.313450
Si Si5 0.396744 0.406297 0.239328
Si Si6 0.370920 0.413887 0.939069
Si Si7 0.050860 0.589588 0.844386
O O1 0.276991 0.900748 0.812019
O O2 0.214509 0.919675 0.723027
O O3 0.288461 0.250000 0.541801
O O4 0.326155 0.065077 0.615579
O O5 0.320777 0.000000 0.500000
O O6 0.250000 0.000000 0.566833
O O7 0.183747 0.750000 0.106980
O O8 0.136030 0.896923 0.182869
O O9 0.174082 0.027799 0.095814
O O10 0.850525 0.250000 0.301475
O O11 0.871296 0.515799 0.294079
O O12 0.411532 0.250000 0.261187
O O13 0.439577 0.493914 0.214985
O O14 0.362730 0.250000 0.952652
O O15 0.416007 0.441046 0.900404
O O16 0.377891 0.500000 0.000000
O O17 0.057071 0.750000 0.822792
O O18 0.000000 0.559267 0.866800
#
# Coordination Sequence:
#
# PCOD8278288 Si02
#       7
#     8  16  16  16  16  16  16
#     4  10  18  30  48  70  90 112 156 198 236 274
#     4  10  19  30  43  62  91 128 166 204 241 274
#     4   9  18  31  47  66  89 116 147 187 232 273
#     4  10  19  30  46  67  93 126 162 197 235 278
#     4   9  18  30  46  69  95 122 152 189 230 272
#     4  10  20  34  51  68  90 118 149 184 224 273
#     4   9  18  33  52  73  97 123 148 178 223 278
#
# _framework density 16.781514000000001
#
# number of rings (size 3 to 8) (size 9 to 14) (size 15 to 20)
#    0.000    2.462    0.769    2.308    0.000    7.385 
#    0.000    0.385    0.000    1.846    0.000    0.000 
#    0.000    0.615    0.000    2.000    0.000    2.462 
#
# Total GULP energy -644244.528035 kJ/mol
# GULP energy per Si atom -12389.317847 kJ/mol
# Density = 1.674332 g / cm^3
# Si number density = 16.781514 Si / 1000 Ang^3
#
#
#
# Elastic Constant Matrix: (Units=GPa)
#
#
# Indices 1 2 3 4 5 6 
#
# 1 38.7517 24.8636 36.1200 0.0000 0.0000 0.0000
# 2 24.8636 142.7024 69.1913 0.0000 0.0000 0.0000
# 3 36.1200 69.1913 97.5357 0.0000 0.0000 0.0000
# 4 0.0000 0.0000 0.0000 33.1441 0.0000 0.0000
# 5 0.0000 0.0000 0.0000 0.0000 16.5623 0.0000
# 6 0.0000 0.0000 0.0000 0.0000 0.0000 12.9451
#
#
#
# Elastic Compliance Matrix: (Units=1/GPa)
#
#
# Indices 1 2 3 4 5 6 
#
# 1 0.039418 0.000320 -0.014824 0.000000 0.000000 0.000000
# 2 0.000320 0.010684 -0.007698 0.000000 0.000000 0.000000
# 3 -0.014824 -0.007698 0.021203 0.000000 0.000000 0.000000
# 4 0.000000 0.000000 0.000000 0.030171 0.000000 0.000000
# 5 0.000000 0.000000 0.000000 0.000000 0.060378 0.000000
# 6 0.000000 0.000000 0.000000 0.000000 0.000000 0.077249
#
#
# Mechanical properties :
#
#
# Convention : Reuss Voigt Hill
#
# Bulk Modulus (GPa) = 37.17379 59.92663 48.55021
# Shear Modulus (GPa) = 17.09547 22.45130 19.77338
#
# Velocity S-wave (km/s) = 3.19518 3.66164 3.43634
# Velocity P-wave (km/s) = 5.98431 7.32559 6.68866
#
# Compressibility (1/GPa) = 0.02690068
#
# Stress axis : x y z
#
# Youngs Moduli (GPa) = 25.36940 93.59572 47.16252
#
# Poissons Ratio (x) = -0.02994 0.69915
# Poissons Ratio (y) = -0.00812 0.36305
# Poissons Ratio (z) = 0.37608 0.72048
#
# Static dielectric constant tensor:
#      x y z
#    x 3.010120 0.000000 0.000000 
#    y 0.000000 3.543930 0.000000 
#    z 0.000000 0.000000 3.140250 
# 
# 
# High freq. dielectric constant tensor:
#      x y z
#    x 1.609890 0.000000 0.000000 
#    y 0.000000 1.666020 0.000000 
#    z 0.000000 0.000000 1.632120 
# 
# From -- ./inp_files/42923.got.cif
#   From: 2010.03.12/outbox.cif.g09.slc.cpg/sg67_22_cif.got.tgz:42923.got - 2010.04.10 22:41:39.
