data_PCOD8278630
_publ_section_title
;
Structure prediction by ZEFSAII (Michael W. Deem and Ramdas Pophale) SiO2 
 PCOD8278630
Probable space group: C M M A
;
_chemical_formula_sum "Si O2"
_cell_formula_units_Z 104
_cell_length_a 26.651834
_cell_length_b 9.261179
_cell_length_c 24.558263
_cell_angle_alpha 90.000000
_cell_angle_beta 90.000000
_cell_angle_gamma 90.000000
_cell_volume 6061.652336
_symmetry_space_group_name_H-M "C M M A"
_symmetry_group_IT_number 67
_symmetry_cell_setting 'orthorhombic'
loop_
_space_group_symop_operation_xyz
x,y,z
-x,1/2-y,z
x,-y,-z
-x,1/2+y,-z
-x,-y,-z
x,1/2+y,-z
-x,y,z
x,1/2-y,z
1/2+x,1/2+y,z
1/2-x,-y,z
1/2+x,1/2-y,-z
1/2-x,y,-z
1/2-x,1/2-y,-z
1/2+x,y,-z
1/2-x,1/2+y,z
1/2+x,-y,z
loop_
_atom_site_type_symbol
_atom_site_label
_atom_site_fract_x
_atom_site_fract_y
_atom_site_fract_z
Si Si1 0.701177 0.085791 0.888143
Si Si2 0.796616 0.588036 0.758662
Si Si3 0.000000 0.579808 0.056736
Si Si4 0.442557 0.081944 0.550278
Si Si5 0.893252 0.917809 0.243891
Si Si6 0.558174 0.591886 0.331663
Si Si7 0.601321 0.581477 0.881702
O O1 0.701147 0.250000 0.911178
O O2 0.704648 0.088270 0.823610
O O3 0.750000 0.000000 0.911532
O O4 0.649150 0.006689 0.905317
O O5 0.795269 0.750000 0.735681
O O6 0.750000 0.500000 0.734921
O O7 0.845098 0.506682 0.736995
O O8 0.050197 0.532365 0.088798
O O9 0.000000 0.750000 0.047108
O O10 0.000000 0.500000 0.000000
O O11 0.500000 0.029850 0.551454
O O12 0.437565 0.250000 0.538575
O O13 0.417949 0.044891 0.609748
O O14 0.414909 0.000000 0.500000
O O15 0.882715 0.750000 0.251778
O O16 0.907927 0.952244 0.181780
O O17 0.936011 0.972195 0.284613
O O18 0.500000 0.610690 0.342976
O O19 0.579579 0.750000 0.313431
O O20 0.612966 0.750000 0.890981
#
# Coordination Sequence:
#
# PCOD8278630 Si02
#       7
#    16  16   8  16  16  16  16
#     4   9  16  27  47  74 101 126 156 191 233 285
#     4   9  16  27  43  63  91 122 153 186 225 272
#     4  10  22  40  58  74  96 128 165 206 243 280
#     4   8  14  25  40  56  77 109 150 192 232 272
#     4  10  19  29  45  68  94 123 156 189 228 279
#     4   9  18  30  41  58  89 125 155 190 235 275
#     4   9  19  34  51  71  98 129 160 197 243 286
#
# _framework density 17.157038
#
# number of rings (size 3 to 8) (size 9 to 14) (size 15 to 20)
#    0.000    2.923    0.000    2.308    1.077    5.846 
#    0.000    1.538    0.000    0.462    0.000    3.231 
#    0.000    0.615    0.000    6.462    0.000    4.154 
#
# Total GULP energy -644395.328076 kJ/mol
# GULP energy per Si atom -12392.217848 kJ/mol
# Density = 1.711799 g / cm^3
# Si number density = 17.157038 Si / 1000 Ang^3
#
#
#
# Elastic Constant Matrix: (Units=GPa)
#
#
# Indices 1 2 3 4 5 6 
#
# 1 95.4473 51.0292 38.2759 0.0000 0.0000 0.0000
# 2 51.0292 102.7742 46.1164 0.0000 0.0000 0.0000
# 3 38.2759 46.1164 73.1959 0.0000 0.0000 0.0000
# 4 0.0000 0.0000 0.0000 24.7613 0.0000 0.0000
# 5 0.0000 0.0000 0.0000 0.0000 1.8718 0.0000
# 6 0.0000 0.0000 0.0000 0.0000 0.0000 29.8234
#
#
#
# Elastic Compliance Matrix: (Units=1/GPa)
#
#
# Indices 1 2 3 4 5 6 
#
# 1 0.015243 -0.005565 -0.004465 0.000000 0.000000 0.000000
# 2 -0.005565 0.015597 -0.006917 0.000000 0.000000 0.000000
# 3 -0.004465 -0.006917 0.020354 0.000000 0.000000 0.000000
# 4 0.000000 0.000000 0.000000 0.040386 0.000000 0.000000
# 5 0.000000 0.000000 0.000000 0.000000 0.534241 0.000000
# 6 0.000000 0.000000 0.000000 0.000000 0.000000 0.033531
#
#
# Mechanical properties :
#
#
# Convention : Reuss Voigt Hill
#
# Bulk Modulus (GPa) = 57.79838 60.25117 59.02478
# Shear Modulus (GPa) = 7.15297 20.35770 13.75533
#
# Velocity S-wave (km/s) = 2.04406 3.44837 2.83456
# Velocity P-wave (km/s) = 6.27151 7.14484 6.72237
#
# Compressibility (1/GPa) = 0.01730152
#
# Stress axis : x y z
#
# Youngs Moduli (GPa) = 65.60599 64.11628 49.12955
#
# Poissons Ratio (x) = 0.35680 0.21934
# Poissons Ratio (y) = 0.36509 0.33981
# Poissons Ratio (z) = 0.29291 0.44346
#
# Static dielectric constant tensor:
#      x y z
#    x 3.109440 0.000000 0.000000 
#    y 0.000000 3.350540 0.000000 
#    z 0.000000 0.000000 3.014060 
# 
# 
# High freq. dielectric constant tensor:
#      x y z
#    x 1.637370 0.000000 0.000000 
#    y 0.000000 1.670260 0.000000 
#    z 0.000000 0.000000 1.633170 
# 
# From -- ./inp_files/44952.got.cif
#   From: 2010.03.12/outbox.cif.g09.slc.cpg/sg67_23_cif.got.tgz:44952.got - 2010.04.10 22:41:39.
