data_PCOD8278496
_publ_section_title
;
Structure prediction by ZEFSAII (Michael W. Deem and Ramdas Pophale) SiO2 
 PCOD8278496
Probable space group: C M M A
;
_chemical_formula_sum "Si O2"
_cell_formula_units_Z 88
_cell_length_a 8.733268
_cell_length_b 15.453523
_cell_length_c 30.568623
_cell_angle_alpha 90.000000
_cell_angle_beta 90.000000
_cell_angle_gamma 90.000000
_cell_volume 4125.533960
_symmetry_space_group_name_H-M "C M M A"
_symmetry_group_IT_number 67
_symmetry_cell_setting 'orthorhombic'
loop_
_space_group_symop_operation_xyz
x,y,z
-x,1/2-y,z
x,-y,-z
-x,1/2+y,-z
-x,-y,-z
x,1/2+y,-z
-x,y,z
x,1/2-y,z
1/2+x,1/2+y,z
1/2-x,-y,z
1/2+x,1/2-y,-z
1/2-x,y,-z
1/2-x,1/2-y,-z
1/2+x,y,-z
1/2-x,1/2+y,z
1/2+x,-y,z
loop_
_atom_site_type_symbol
_atom_site_label
_atom_site_fract_x
_atom_site_fract_y
_atom_site_fract_z
Si Si1 0.167457 0.150825 0.129371
Si Si2 0.681936 0.594965 0.609541
Si Si3 0.328480 0.853431 0.956023
Si Si4 0.817591 0.095594 0.301201
Si Si5 0.819617 0.905721 0.214501
Si Si6 0.179938 0.750000 0.452484
O O1 0.143256 0.250000 0.117924
O O2 0.242111 0.107210 0.086454
O O3 0.279300 0.145912 0.170875
O O4 0.000000 0.108291 0.138949
O O5 0.500000 0.586532 0.613887
O O6 0.750000 0.500000 0.598901
O O7 0.750203 0.636179 0.654321
O O8 0.732397 0.662438 0.572156
O O9 0.500000 0.889279 0.954843
O O10 0.327099 0.750000 0.955282
O O11 0.250000 0.888840 0.000000
O O12 0.756688 0.142107 0.256966
O O13 0.000000 0.096825 0.302708
O O14 0.750000 0.000000 0.298831
O O15 0.000000 0.909813 0.221657
O O16 0.750000 0.000000 0.208378
O O17 0.250000 0.750000 0.500000
O O18 0.000000 0.750000 0.456837
#
# Coordination Sequence:
#
# PCOD8278496 Si02
#       6
#    16  16  16  16  16   8
#     4  10  20  34  51  74 105 136 172 221 271 323
#     4  10  20  38  61  88 118 156 198 246 296 351
#     4   9  16  27  45  69  96 129 170 215 266 321
#     4  10  18  32  55  82 109 143 184 229 273 326
#     4  11  21  35  55  78 107 144 182 222 270 329
#     4  10  24  42  62  88 124 160 200 246 297 352
#
# _framework density 21.330572
#
# number of rings (size 3 to 8) (size 9 to 14) (size 15 to 20)
#    0.000    2.000    0.000    7.091    0.000    5.091 
#    1.636    1.818    0.000    0.545    0.000    3.818 
#    0.000    0.000    0.000    0.000    0.000    0.000 
#
# Total GULP energy -545396.237226 kJ/mol
# GULP energy per Si atom -12395.369028 kJ/mol
# Density = 2.128202 g / cm^3
# Si number density = 21.330572 Si / 1000 Ang^3
#
#
#
# Elastic Constant Matrix: (Units=GPa)
#
#
# Indices 1 2 3 4 5 6 
#
# 1 171.0025 30.0990 76.0213 0.0000 0.0000 0.0000
# 2 30.0990 48.2225 41.8179 0.0000 0.0000 0.0000
# 3 76.0213 41.8179 215.0433 0.0000 0.0000 0.0000
# 4 0.0000 0.0000 0.0000 21.3954 0.0000 0.0000
# 5 0.0000 0.0000 0.0000 0.0000 44.4573 0.0000
# 6 0.0000 0.0000 0.0000 0.0000 0.0000 20.1797
#
#
#
# Elastic Compliance Matrix: (Units=1/GPa)
#
#
# Indices 1 2 3 4 5 6 
#
# 1 0.007232 -0.002763 -0.002019 0.000000 0.000000 0.000000
# 2 -0.002763 0.025999 -0.004079 0.000000 0.000000 0.000000
# 3 -0.002019 -0.004079 0.006157 0.000000 0.000000 0.000000
# 4 0.000000 0.000000 0.000000 0.046739 0.000000 0.000000
# 5 0.000000 0.000000 0.000000 0.000000 0.022493 0.000000
# 6 0.000000 0.000000 0.000000 0.000000 0.000000 0.049555
#
#
# Mechanical properties :
#
#
# Convention : Reuss Voigt Hill
#
# Bulk Modulus (GPa) = 46.15588 81.12718 63.64153
# Shear Modulus (GPa) = 27.30451 36.29516 31.79983
#
# Velocity S-wave (km/s) = 3.58168 4.12947 3.86529
# Velocity P-wave (km/s) = 6.22816 7.80080 7.05842
#
# Compressibility (1/GPa) = 0.02166571
#
# Stress axis : x y z
#
# Youngs Moduli (GPa) = 138.27677 38.46302 162.40798
#
# Poissons Ratio (x) = 0.10626 0.32796
# Poissons Ratio (y) = 0.38203 0.66249
# Poissons Ratio (z) = 0.27923 0.15690
#
# Static dielectric constant tensor:
#      x y z
#    x 4.057430 0.000000 0.000000 
#    y 0.000000 3.439770 0.000000 
#    z 0.000000 0.000000 4.237550 
# 
# 
# High freq. dielectric constant tensor:
#      x y z
#    x 1.852180 0.000000 0.000000 
#    y 0.000000 1.793950 0.000000 
#    z 0.000000 0.000000 1.853290 
# 
# From -- ./inp_files/45254.got.cif
#   From: 2010.03.12/outbox.cif.g09.slc.cpg/sg67_23_cif.got.tgz:45254.got - 2010.04.10 22:41:39.
