data_PCOD8278162
_publ_section_title
;
Structure prediction by ZEFSAII (Michael W. Deem and Ramdas Pophale) SiO2 
 PCOD8278162
Probable space group: C M M A
;
_chemical_formula_sum "Si O2"
_cell_formula_units_Z 128
_cell_length_a 21.229679
_cell_length_b 18.279423
_cell_length_c 18.918794
_cell_angle_alpha 90.000000
_cell_angle_beta 90.000000
_cell_angle_gamma 90.000000
_cell_volume 7341.746059
_symmetry_space_group_name_H-M "C M M A"
_symmetry_group_IT_number 67
_symmetry_cell_setting 'orthorhombic'
loop_
_space_group_symop_operation_xyz
x,y,z
-x,1/2-y,z
x,-y,-z
-x,1/2+y,-z
-x,-y,-z
x,1/2+y,-z
-x,y,z
x,1/2-y,z
1/2+x,1/2+y,z
1/2-x,-y,z
1/2+x,1/2-y,-z
1/2-x,y,-z
1/2-x,1/2-y,-z
1/2+x,y,-z
1/2-x,1/2+y,z
1/2+x,-y,z
loop_
_atom_site_type_symbol
_atom_site_label
_atom_site_fract_x
_atom_site_fract_y
_atom_site_fract_z
Si Si1 0.224535 0.334226 0.740829
Si Si2 0.430921 0.431700 0.451941
Si Si3 0.427525 0.165909 0.842378
Si Si4 0.427178 0.834783 0.419435
Si Si5 0.838833 0.663196 0.961973
Si Si6 0.184609 0.965990 0.349643
Si Si7 0.289671 0.163315 0.103526
Si Si8 0.142769 0.892753 0.715427
O O1 0.205061 0.250000 0.726391
O O2 0.195355 0.385509 0.681226
O O3 0.197820 0.363515 0.816584
O O4 0.300087 0.340147 0.738422
O O5 0.444317 0.500000 0.500000
O O6 0.500000 0.415190 0.414337
O O7 0.411159 0.363942 0.502097
O O8 0.373097 0.453273 0.402265
O O9 0.500000 0.157707 0.856261
O O10 0.408142 0.250000 0.826684
O O11 0.397007 0.135590 0.915032
O O12 0.409963 0.116501 0.775160
O O13 0.500000 0.850116 0.400225
O O14 0.411088 0.750000 0.418739
O O15 0.383434 0.873268 0.361777
O O16 0.836220 0.750000 0.962450
O O17 0.776603 0.631711 0.924239
O O18 0.842001 0.637742 0.045000
O O19 0.250000 0.000000 0.383781
O O20 0.164570 0.022707 0.288095
O O21 0.285139 0.250000 0.107484
#
# Coordination Sequence:
#
# PCOD8278162 Si02
#       8
#    16  16  16  16  16  16  16  16
#     4  10  19  33  52  75 102 134 173 221 268 305
#     4  10  20  38  59  75  98 137 179 212 252 311
#     4  10  18  26  43  75 111 140 168 208 255 308
#     4  10  20  33  53  80 105 134 174 215 255 307
#     4   8  13  23  41  70  99 129 170 210 250 298
#     4  10  23  37  54  80 107 139 174 216 260 311
#     4   8  13  24  46  69  94 129 171 214 253 296
#     4  11  19  32  48  72 109 142 169 205 258 321
#
# _framework density 17.434545
#
# number of rings (size 3 to 8) (size 9 to 14) (size 15 to 20)
#    0.000    2.375    2.500    2.250    0.000    2.250 
#    0.000    0.000    0.000    3.750    0.000    2.625 
#    0.000    0.000    0.000    0.000    0.000    0.000 
#
# Total GULP energy -792840.032762 kJ/mol
# GULP energy per Si atom -12388.125512 kJ/mol
# Density = 1.739486 g / cm^3
# Si number density = 17.434545 Si / 1000 Ang^3
#
#
#
# Elastic Constant Matrix: (Units=GPa)
#
#
# Indices 1 2 3 4 5 6 
#
# 1 91.1849 24.3710 61.7953 0.0000 0.0000 0.0000
# 2 24.3710 62.7197 26.4964 0.0000 0.0000 0.0000
# 3 61.7953 26.4964 95.3287 0.0000 0.0000 0.0000
# 4 0.0000 0.0000 0.0000 14.0990 0.0000 0.0000
# 5 0.0000 0.0000 0.0000 0.0000 34.2144 0.0000
# 6 0.0000 0.0000 0.0000 0.0000 0.0000 18.2766
#
#
#
# Elastic Compliance Matrix: (Units=1/GPa)
#
#
# Indices 1 2 3 4 5 6 
#
# 1 0.019924 -0.002590 -0.012195 0.000000 0.000000 0.000000
# 2 -0.002590 0.018402 -0.003436 0.000000 0.000000 0.000000
# 3 -0.012195 -0.003436 0.019350 0.000000 0.000000 0.000000
# 4 0.000000 0.000000 0.000000 0.070927 0.000000 0.000000
# 5 0.000000 0.000000 0.000000 0.000000 0.029227 0.000000
# 6 0.000000 0.000000 0.000000 0.000000 0.000000 0.054715
#
#
# Mechanical properties :
#
#
# Convention : Reuss Voigt Hill
#
# Bulk Modulus (GPa) = 47.09480 52.72875 49.91178
# Shear Modulus (GPa) = 19.52631 22.42271 20.97451
#
# Velocity S-wave (km/s) = 3.35024 3.59013 3.47225
# Velocity P-wave (km/s) = 6.48355 6.89165 6.69071
#
# Compressibility (1/GPa) = 0.02123377
#
# Stress axis : x y z
#
# Youngs Moduli (GPa) = 50.19187 54.34253 51.67837
#
# Poissons Ratio (x) = 0.14073 0.63023
# Poissons Ratio (y) = 0.12998 0.17757
# Poissons Ratio (z) = 0.61211 0.18672
#
# Static dielectric constant tensor:
#      x y z
#    x 3.284130 0.000000 0.000000 
#    y 0.000000 3.136790 0.000000 
#    z 0.000000 0.000000 3.591150 
# 
# 
# High freq. dielectric constant tensor:
#      x y z
#    x 1.662380 0.000000 0.000000 
#    y 0.000000 1.648610 0.000000 
#    z 0.000000 0.000000 1.669720 
# 
# From -- ./inp_files/35597.got.cif
#   From: 2010.03.12/outbox.cif.g09.slc.cpg/sg67_18_cif.got.tgz:35597.got - 2010.04.10 22:41:39.
