data_PCOD8278887
_publ_section_title
;
Structure prediction by ZEFSAII (Michael W. Deem and Ramdas Pophale) SiO2 
 PCOD8278887
Probable space group: C M M A
;
_chemical_formula_sum "Si O2"
_cell_formula_units_Z 80
_cell_length_a 9.059613
_cell_length_b 19.891250
_cell_length_c 26.008367
_cell_angle_alpha 90.000000
_cell_angle_beta 90.000000
_cell_angle_gamma 90.000000
_cell_volume 4686.890496
_symmetry_space_group_name_H-M "C M M A"
_symmetry_group_IT_number 67
_symmetry_cell_setting 'orthorhombic'
loop_
_space_group_symop_operation_xyz
x,y,z
-x,1/2-y,z
x,-y,-z
-x,1/2+y,-z
-x,-y,-z
x,1/2+y,-z
-x,y,z
x,1/2-y,z
1/2+x,1/2+y,z
1/2-x,-y,z
1/2+x,1/2-y,-z
1/2-x,y,-z
1/2-x,1/2-y,-z
1/2+x,y,-z
1/2-x,1/2+y,z
1/2+x,-y,z
loop_
_atom_site_type_symbol
_atom_site_label
_atom_site_fract_x
_atom_site_fract_y
_atom_site_fract_z
Si Si1 0.665448 0.330227 0.349840
Si Si2 0.335947 0.170090 0.748415
Si Si3 0.677599 0.929615 0.053334
Si Si4 0.675378 0.824648 0.138984
Si Si5 0.666196 0.330162 0.550102
O O1 0.500000 0.357760 0.354352
O O2 0.668090 0.250000 0.349396
O O3 0.734095 0.359107 0.296983
O O4 0.756041 0.357930 0.398545
O O5 0.500000 0.139928 0.741130
O O6 0.344170 0.250000 0.744904
O O7 0.269757 0.150557 0.804580
O O8 0.500000 0.935831 0.048378
O O9 0.729140 0.875955 0.095671
O O10 0.750000 0.000000 0.069768
O O11 0.750000 0.905491 0.000000
O O12 0.500000 0.821265 0.140844
O O13 0.737944 0.750000 0.126360
O O14 0.500000 0.357674 0.548985
O O15 0.668406 0.250000 0.549959
O O16 0.750000 0.358196 0.500000
#
# Coordination Sequence:
#
# PCOD8278887 Si02
#       5
#    16  16  16  16  16
#     4   9  15  21  29  43  64  89 117 152 196 243
#     4   8  13  23  38  53  69  92 124 160 198 241
#     4  10  19  32  49  67  89 116 145 176 211 255
#     4   8  15  28  46  66  86 110 142 179 216 254
#     4   9  15  21  28  38  54  80 117 160 201 239
#
# _framework density 17.068885999999999
#
# number of rings (size 3 to 8) (size 9 to 14) (size 15 to 20)
#    0.000    3.200    0.000    3.600    0.000    5.200 
#    0.000    2.000    0.000    4.200    0.000    0.000 
#    0.000    0.000    0.000    0.000    0.000    1.000 
#
# Total GULP energy -495726.007979 kJ/mol
# GULP energy per Si atom -12393.150199 kJ/mol
# Density = 1.703004 g / cm^3
# Si number density = 17.068886 Si / 1000 Ang^3
#
#
#
# Elastic Constant Matrix: (Units=GPa)
#
#
# Indices 1 2 3 4 5 6 
#
# 1 113.4762 24.0594 74.9216 0.0000 0.0000 0.0000
# 2 24.0594 31.5949 54.3486 0.0000 0.0000 0.0000
# 3 74.9216 54.3486 187.8577 0.0000 0.0000 0.0000
# 4 0.0000 0.0000 0.0000 0.8928 0.0000 0.0000
# 5 0.0000 0.0000 0.0000 0.0000 28.5740 0.0000
# 6 0.0000 0.0000 0.0000 0.0000 0.0000 8.4564
#
#
#
# Elastic Compliance Matrix: (Units=1/GPa)
#
#
# Indices 1 2 3 4 5 6 
#
# 1 0.012014 -0.001805 -0.004269 0.000000 0.000000 0.000000
# 2 -0.001805 0.063277 -0.017587 0.000000 0.000000 0.000000
# 3 -0.004269 -0.017587 0.012114 0.000000 0.000000 0.000000
# 4 0.000000 0.000000 0.000000 1.120080 0.000000 0.000000
# 5 0.000000 0.000000 0.000000 0.000000 0.034997 0.000000
# 6 0.000000 0.000000 0.000000 0.000000 0.000000 0.118253
#
#
# Mechanical properties :
#
#
# Convention : Reuss Voigt Hill
#
# Bulk Modulus (GPa) = 24.94789 71.06534 48.00662
# Shear Modulus (GPa) = 3.51761 19.55792 11.53776
#
# Velocity S-wave (km/s) = 1.43712 3.38867 2.60273
# Velocity P-wave (km/s) = 4.17151 7.55219 6.10070
#
# Compressibility (1/GPa) = 0.04008355
#
# Stress axis : x y z
#
# Youngs Moduli (GPa) = 83.23780 15.80344 82.55001
#
# Poissons Ratio (x) = 0.02852 0.35243
# Poissons Ratio (y) = 0.15021 1.45180
# Poissons Ratio (z) = 0.35536 0.27793
#
# Static dielectric constant tensor:
#      x y z
#    x 3.214940 0.000000 0.000000 
#    y 0.000000 2.606540 0.000000 
#    z 0.000000 0.000000 3.575840 
# 
# 
# High freq. dielectric constant tensor:
#      x y z
#    x 1.652870 0.000000 0.000000 
#    y 0.000000 1.576310 0.000000 
#    z 0.000000 0.000000 1.680020 
# 
# From -- ./inp_files/43316.got.cif
#   From: 2010.03.12/outbox.cif.g09.slc.cpg/sg67_22_cif.got.tgz:43316.got - 2010.04.10 22:41:39.
