data_PCOD8278310
_publ_section_title
;
Structure prediction by ZEFSAII (Michael W. Deem and Ramdas Pophale) SiO2 
 PCOD8278310
Probable space group: C M M A
;
_chemical_formula_sum "Si O2"
_cell_formula_units_Z 72
_cell_length_a 9.077195
_cell_length_b 20.339345
_cell_length_c 23.988873
_cell_angle_alpha 90.000000
_cell_angle_beta 90.000000
_cell_angle_gamma 90.000000
_cell_volume 4428.926504
_symmetry_space_group_name_H-M "C M M A"
_symmetry_group_IT_number 67
_symmetry_cell_setting 'orthorhombic'
loop_
_space_group_symop_operation_xyz
x,y,z
-x,1/2-y,z
x,-y,-z
-x,1/2+y,-z
-x,-y,-z
x,1/2+y,-z
-x,y,z
x,1/2-y,z
1/2+x,1/2+y,z
1/2-x,-y,z
1/2+x,1/2-y,-z
1/2-x,y,-z
1/2-x,1/2-y,-z
1/2+x,y,-z
1/2-x,1/2+y,z
1/2+x,-y,z
loop_
_atom_site_type_symbol
_atom_site_label
_atom_site_fract_x
_atom_site_fract_y
_atom_site_fract_z
Si Si1 0.826116 0.066186 0.769940
Si Si2 0.673116 0.324557 0.443249
Si Si3 0.825364 0.750000 0.940565
Si Si4 0.826619 0.066403 0.643207
Si Si5 0.833846 0.678288 0.148138
O O1 0.778165 0.081676 0.706606
O O2 0.768717 0.125270 0.808935
O O3 0.000000 0.057716 0.774395
O O4 0.750000 0.000000 0.791659
O O5 0.500000 0.330263 0.452556
O O6 0.718791 0.250000 0.427431
O O7 0.750000 0.347395 0.500000
O O8 0.727066 0.372311 0.393912
O O9 0.769878 0.684712 0.906853
O O10 0.000000 0.750000 0.946671
O O11 0.750000 0.750000 0.000000
O O12 0.000000 0.055821 0.638467
O O13 0.750000 0.000000 0.621407
O O14 0.836542 0.750000 0.178454
O O15 0.000000 0.658834 0.129556
#
# Coordination Sequence:
#
# PCOD8278310 Si02
#       5
#    16  16   8  16  16
#     4   9  17  30  48  69  96 127 156 192 235 281
#     4   9  18  32  48  66  88 116 153 194 237 283
#     4  10  18  30  50  74 100 128 159 196 233 270
#     4   9  18  31  47  68  91 120 155 190 232 279
#     4   8  16  30  47  70  96 124 159 193 229 274
#
# _framework density 16.256761000000001
#
# number of rings (size 3 to 8) (size 9 to 14) (size 15 to 20)
#    0.667    2.444    0.000    0.667    0.000    3.111 
#    0.000    6.667    0.000    0.667    0.000    4.667 
#    0.000    0.000    0.000    0.000    0.000    0.000 
#
# Total GULP energy -446166.277066 kJ/mol
# GULP energy per Si atom -12393.507696 kJ/mol
# Density = 1.621976 g / cm^3
# Si number density = 16.256761 Si / 1000 Ang^3
#
#
#
# Elastic Constant Matrix: (Units=GPa)
#
#
# Indices 1 2 3 4 5 6 
#
# 1 47.8972 37.1543 42.1338 0.0000 0.0000 0.0000
# 2 37.1543 114.9168 82.7113 0.0000 0.0000 0.0000
# 3 42.1338 82.7113 114.7602 0.0000 0.0000 0.0000
# 4 0.0000 0.0000 0.0000 18.1492 0.0000 0.0000
# 5 0.0000 0.0000 0.0000 0.0000 25.1787 0.0000
# 6 0.0000 0.0000 0.0000 0.0000 0.0000 26.3133
#
#
#
# Elastic Compliance Matrix: (Units=1/GPa)
#
#
# Indices 1 2 3 4 5 6 
#
# 1 0.031651 -0.003884 -0.008821 0.000000 0.000000 0.000000
# 2 -0.003884 0.018559 -0.011950 0.000000 0.000000 0.000000
# 3 -0.008821 -0.011950 0.020565 0.000000 0.000000 0.000000
# 4 0.000000 0.000000 0.000000 0.055099 0.000000 0.000000
# 5 0.000000 0.000000 0.000000 0.000000 0.039716 0.000000
# 6 0.000000 0.000000 0.000000 0.000000 0.000000 0.038004
#
#
# Mechanical properties :
#
#
# Convention : Reuss Voigt Hill
#
# Bulk Modulus (GPa) = 46.58874 66.84145 56.71510
# Shear Modulus (GPa) = 19.22657 21.63323 20.42990
#
# Velocity S-wave (km/s) = 3.44274 3.65186 3.54884
# Velocity P-wave (km/s) = 6.67260 7.68029 7.19411
#
# Compressibility (1/GPa) = 0.02146441
#
# Stress axis : x y z
#
# Youngs Moduli (GPa) = 31.59500 53.88357 48.62672
#
# Poissons Ratio (x) = 0.20930 0.42893
# Poissons Ratio (y) = 0.12272 0.58107
# Poissons Ratio (z) = 0.27869 0.64389
#
# Static dielectric constant tensor:
#      x y z
#    x 2.960520 0.000000 0.000000 
#    y 0.000000 3.109690 0.000000 
#    z 0.000000 0.000000 3.036940 
# 
# 
# High freq. dielectric constant tensor:
#      x y z
#    x 1.618880 0.000000 0.000000 
#    y 0.000000 1.617660 0.000000 
#    z 0.000000 0.000000 1.613480 
# 
# From -- ./inp_files/43195.got.cif
#   From: 2010.03.12/outbox.cif.g09.slc.cpg/sg67_22_cif.got.tgz:43195.got - 2010.04.10 22:41:39.
