data_PCOD8278570
_publ_section_title
;
Structure prediction by ZEFSAII (Michael W. Deem and Ramdas Pophale) SiO2 
 PCOD8278570
Probable space group: C M M A
;
_chemical_formula_sum "Si O2"
_cell_formula_units_Z 88
_cell_length_a 26.436375
_cell_length_b 10.470892
_cell_length_c 17.985132
_cell_angle_alpha 90.000000
_cell_angle_beta 90.000000
_cell_angle_gamma 90.000000
_cell_volume 4978.508048
_symmetry_space_group_name_H-M "C M M A"
_symmetry_group_IT_number 67
_symmetry_cell_setting 'orthorhombic'
loop_
_space_group_symop_operation_xyz
x,y,z
-x,1/2-y,z
x,-y,-z
-x,1/2+y,-z
-x,-y,-z
x,1/2+y,-z
-x,y,z
x,1/2-y,z
1/2+x,1/2+y,z
1/2-x,-y,z
1/2+x,1/2-y,-z
1/2-x,y,-z
1/2-x,1/2-y,-z
1/2+x,y,-z
1/2-x,1/2+y,z
1/2+x,-y,z
loop_
_atom_site_type_symbol
_atom_site_label
_atom_site_fract_x
_atom_site_fract_y
_atom_site_fract_z
Si Si1 0.402066 0.250000 0.935924
Si Si2 0.790248 0.750000 0.931964
Si Si3 0.058495 0.396386 0.437835
Si Si4 0.941955 0.987902 0.851958
Si Si5 0.557200 0.250000 0.090767
Si Si6 0.212058 0.110219 0.214120
Si Si7 0.895859 0.397104 0.283344
O O1 0.345510 0.250000 0.969823
O O2 0.408996 0.374802 0.886314
O O3 0.442102 0.250000 0.001983
O O4 0.787498 0.625733 0.876667
O O5 0.750000 0.750000 0.000000
O O6 0.072653 0.500000 0.500000
O O7 0.067822 0.250000 0.465567
O O8 0.096075 0.429980 0.369763
O O9 0.000000 0.411834 0.413265
O O10 0.936839 0.979192 0.763057
O O11 0.000000 0.976050 0.877894
O O12 0.916941 0.121367 0.878524
O O13 0.500000 0.250000 0.119954
O O14 0.227333 0.250000 0.247927
O O15 0.159147 0.068350 0.250921
O O16 0.250000 0.000000 0.238851
O O17 0.908623 0.250000 0.269831
#
# Coordination Sequence:
#
# PCOD8278570 Si02
#       7
#     8   8  16  16   8  16  16
#     4  12  20  38  56  74  97 139 193 229 274 335
#     4  10  22  38  52  76 105 135 174 242 292 329
#     4   9  18  33  55  86 120 149 176 213 266 328
#     4  11  20  35  55  76 105 140 185 227 273 335
#     4  10  24  36  44  72 110 139 166 228 297 320
#     4   9  19  38  53  74 105 134 180 230 280 326
#     4  10  18  35  59  81 107 143 191 225 264 329
#
# _framework density 17.675978000000001
#
# number of rings (size 3 to 8) (size 9 to 14) (size 15 to 20)
#    0.545    1.455    2.727    1.909    0.000    4.000 
#    6.545    0.000    0.000    0.545    0.000    3.818 
#    0.000    0.000    0.000    0.000    0.000    0.000 
#
# Total GULP energy -545173.737349 kJ/mol
# GULP energy per Si atom -12390.312212 kJ/mol
# Density = 1.763575 g / cm^3
# Si number density = 17.675978 Si / 1000 Ang^3
#
#
#
# Elastic Constant Matrix: (Units=GPa)
#
#
# Indices 1 2 3 4 5 6 
#
# 1 80.4424 41.4149 44.2982 0.0000 0.0000 0.0000
# 2 41.4149 117.3390 57.0615 0.0000 0.0000 0.0000
# 3 44.2982 57.0615 116.0020 0.0000 0.0000 0.0000
# 4 0.0000 0.0000 0.0000 14.8429 0.0000 0.0000
# 5 0.0000 0.0000 0.0000 0.0000 28.4901 0.0000
# 6 0.0000 0.0000 0.0000 0.0000 0.0000 15.0646
#
#
#
# Elastic Compliance Matrix: (Units=1/GPa)
#
#
# Indices 1 2 3 4 5 6 
#
# 1 0.016889 -0.003713 -0.004623 0.000000 0.000000 0.000000
# 2 -0.003713 0.012018 -0.004494 0.000000 0.000000 0.000000
# 3 -0.004623 -0.004494 0.012597 0.000000 0.000000 0.000000
# 4 0.000000 0.000000 0.000000 0.067372 0.000000 0.000000
# 5 0.000000 0.000000 0.000000 0.000000 0.035100 0.000000
# 6 0.000000 0.000000 0.000000 0.000000 0.000000 0.066381
#
#
# Mechanical properties :
#
#
# Convention : Reuss Voigt Hill
#
# Bulk Modulus (GPa) = 63.11588 66.59251 64.85419
# Shear Modulus (GPa) = 20.72139 23.08010 21.90074
#
# Velocity S-wave (km/s) = 3.42759 3.61741 3.52378
# Velocity P-wave (km/s) = 7.17281 7.42990 7.30248
#
# Compressibility (1/GPa) = 0.01584387
#
# Stress axis : x y z
#
# Youngs Moduli (GPa) = 59.21188 83.20789 79.38682
#
# Poissons Ratio (x) = 0.30892 0.36701
# Poissons Ratio (y) = 0.21983 0.35676
# Poissons Ratio (z) = 0.27374 0.37393
#
# Static dielectric constant tensor:
#      x y z
#    x 3.098250 0.000000 0.000000 
#    y 0.000000 3.392980 0.000000 
#    z 0.000000 0.000000 3.150510 
# 
# 
# High freq. dielectric constant tensor:
#      x y z
#    x 1.666710 0.000000 0.000000 
#    y 0.000000 1.683790 0.000000 
#    z 0.000000 0.000000 1.662230 
# 
# From -- ./inp_files/36218.got.cif
#   From: 2010.03.12/outbox.cif.g09.slc.cpg/sg67_19_cif.got.tgz:36218.got - 2010.04.10 22:41:39.
