data_PCOD8278072
_publ_section_title
;
Structure prediction by ZEFSAII (Michael W. Deem and Ramdas Pophale) SiO2 
 PCOD8278072
Probable space group: C M M A
;
_chemical_formula_sum "Si O2"
_cell_formula_units_Z 112
_cell_length_a 15.244872
_cell_length_b 26.273031
_cell_length_c 16.421988
_cell_angle_alpha 90.000000
_cell_angle_beta 90.000000
_cell_angle_gamma 90.000000
_cell_volume 6577.482344
_symmetry_space_group_name_H-M "C M M A"
_symmetry_group_IT_number 67
_symmetry_cell_setting 'orthorhombic'
loop_
_space_group_symop_operation_xyz
x,y,z
-x,1/2-y,z
x,-y,-z
-x,1/2+y,-z
-x,-y,-z
x,1/2+y,-z
-x,y,z
x,1/2-y,z
1/2+x,1/2+y,z
1/2-x,-y,z
1/2+x,1/2-y,-z
1/2-x,y,-z
1/2-x,1/2-y,-z
1/2+x,y,-z
1/2-x,1/2+y,z
1/2+x,-y,z
loop_
_atom_site_type_symbol
_atom_site_label
_atom_site_fract_x
_atom_site_fract_y
_atom_site_fract_z
Si Si1 0.098434 0.429523 0.675956
Si Si2 0.764916 0.691556 0.728749
Si Si3 0.650015 0.308379 0.026065
Si Si4 0.760826 0.383196 0.409327
Si Si5 0.099834 0.027898 0.415210
Si Si6 0.595497 0.190147 0.854608
Si Si7 0.899564 0.148456 0.806528
O O1 0.165380 0.401948 0.616659
O O2 0.111188 0.490089 0.662873
O O3 0.112060 0.409365 0.769645
O O4 0.000000 0.414893 0.647042
O O5 0.786981 0.750000 0.714641
O O6 0.790170 0.663832 0.645625
O O7 0.827421 0.666970 0.798862
O O8 0.663464 0.685195 0.754149
O O9 0.624994 0.250000 0.051251
O O10 0.628092 0.347380 0.099098
O O11 0.750000 0.310723 0.000000
O O12 0.597135 0.329111 0.947883
O O13 0.750000 0.362643 0.500000
O O14 0.833275 0.426783 0.400886
O O15 0.000000 0.048499 0.419248
O O16 0.124020 0.000000 0.500000
O O17 0.500000 0.176585 0.817393
O O18 0.612230 0.250000 0.858942
O O19 0.000000 0.166715 0.796091
#
# Coordination Sequence:
#
# PCOD8278072 Si02
#       7
#    16  16  16  16  16  16  16
#     4   9  19  33  49  75 106 129 156 206 262 308
#     4  10  21  35  47  68 104 140 173 214 250 290
#     4  10  17  27  46  71 101 132 169 217 255 292
#     4  11  21  32  53  76  99 133 171 209 254 313
#     4  10  19  33  55  79 101 123 156 210 266 309
#     4   9  17  30  47  66  93 131 171 211 253 290
#     4  10  19  31  49  73 102 138 173 202 250 310
#
# _framework density 17.027792000000002
#
# number of rings (size 3 to 8) (size 9 to 14) (size 15 to 20)
#    0.000    2.143    2.857    1.286    0.000    2.571 
#    0.000    0.000    0.000    0.000    0.000    5.000 
#    0.000    4.571    0.286    0.000    0.000    0.000 
#
# Total GULP energy -693916.757637 kJ/mol
# GULP energy per Si atom -12391.370672 kJ/mol
# Density = 1.698904 g / cm^3
# Si number density = 17.027792 Si / 1000 Ang^3
#
#
#
# Elastic Constant Matrix: (Units=GPa)
#
#
# Indices 1 2 3 4 5 6 
#
# 1 101.7619 36.7819 54.3753 0.0000 0.0000 0.0000
# 2 36.7819 67.2571 60.7776 0.0000 0.0000 0.0000
# 3 54.3753 60.7776 137.3434 0.0000 0.0000 0.0000
# 4 0.0000 0.0000 0.0000 27.8344 0.0000 0.0000
# 5 0.0000 0.0000 0.0000 0.0000 23.4002 0.0000
# 6 0.0000 0.0000 0.0000 0.0000 0.0000 15.5370
#
#
#
# Elastic Compliance Matrix: (Units=1/GPa)
#
#
# Indices 1 2 3 4 5 6 
#
# 1 0.013119 -0.004134 -0.003364 0.000000 0.000000 0.000000
# 2 -0.004134 0.026079 -0.009904 0.000000 0.000000 0.000000
# 3 -0.003364 -0.009904 0.012996 0.000000 0.000000 0.000000
# 4 0.000000 0.000000 0.000000 0.035927 0.000000 0.000000
# 5 0.000000 0.000000 0.000000 0.000000 0.042735 0.000000
# 6 0.000000 0.000000 0.000000 0.000000 0.000000 0.064362
#
#
# Mechanical properties :
#
#
# Convention : Reuss Voigt Hill
#
# Bulk Modulus (GPa) = 57.50867 67.80356 62.65612
# Shear Modulus (GPa) = 21.20278 23.64950 22.42614
#
# Velocity S-wave (km/s) = 3.53255 3.73081 3.63303
# Velocity P-wave (km/s) = 7.10530 7.64620 7.38070
#
# Compressibility (1/GPa) = 0.01738868
#
# Stress axis : x y z
#
# Youngs Moduli (GPa) = 76.22581 38.34521 76.94906
#
# Poissons Ratio (x) = 0.15853 0.25888
# Poissons Ratio (y) = 0.31514 0.76208
# Poissons Ratio (z) = 0.25645 0.37976
#
# Static dielectric constant tensor:
#      x y z
#    x 3.404070 0.000000 0.000000 
#    y 0.000000 2.960880 0.000000 
#    z 0.000000 0.000000 3.436030 
# 
# 
# High freq. dielectric constant tensor:
#      x y z
#    x 1.680440 0.000000 0.000000 
#    y 0.000000 1.607870 0.000000 
#    z 0.000000 0.000000 1.653310 
# 
# From -- ./inp_files/27754.got.cif
#   From: 2010.03.12/outbox.cif.g09.slc.cpg/sg67_14_cif.got.tgz:27754.got - 2010.04.10 22:41:39.
