data_PCOD8278566
_publ_section_title
;
Structure prediction by ZEFSAII (Michael W. Deem and Ramdas Pophale) SiO2 
 PCOD8278566
Probable space group: C M M A
;
_chemical_formula_sum "Si O2"
_cell_formula_units_Z 112
_cell_length_a 19.903324
_cell_length_b 17.468713
_cell_length_c 17.180000
_cell_angle_alpha 90.000000
_cell_angle_beta 90.000000
_cell_angle_gamma 90.000000
_cell_volume 5973.236112
_symmetry_space_group_name_H-M "C M M A"
_symmetry_group_IT_number 67
_symmetry_cell_setting 'orthorhombic'
loop_
_space_group_symop_operation_xyz
x,y,z
-x,1/2-y,z
x,-y,-z
-x,1/2+y,-z
-x,-y,-z
x,1/2+y,-z
-x,y,z
x,1/2-y,z
1/2+x,1/2+y,z
1/2-x,-y,z
1/2+x,1/2-y,-z
1/2-x,y,-z
1/2-x,1/2-y,-z
1/2+x,y,-z
1/2-x,1/2+y,z
1/2+x,-y,z
loop_
_atom_site_type_symbol
_atom_site_label
_atom_site_fract_x
_atom_site_fract_y
_atom_site_fract_z
Si Si1 0.309005 0.160080 0.439863
Si Si2 0.606293 0.164843 0.720551
Si Si3 0.425728 0.659998 0.452503
Si Si4 0.769683 0.664724 0.826992
Si Si5 0.074753 0.988405 0.787898
Si Si6 0.319037 0.968565 0.086770
Si Si7 0.195007 0.433383 0.716862
O O1 0.311492 0.250000 0.420253
O O2 0.250000 0.141781 0.500000
O O3 0.377987 0.129493 0.478929
O O4 0.298248 0.114522 0.361191
O O5 0.573762 0.250000 0.731285
O O6 0.607790 0.140698 0.630373
O O7 0.681959 0.165533 0.751787
O O8 0.564410 0.101122 0.767133
O O9 0.500000 0.622316 0.458998
O O10 0.431991 0.750000 0.461391
O O11 0.750899 0.750000 0.855173
O O12 0.807309 0.622980 0.900476
O O13 0.704417 0.621119 0.793214
O O14 0.114276 0.996514 0.869577
O O15 0.000000 0.025005 0.794896
O O16 0.119889 0.030932 0.722851
O O17 0.250000 0.000000 0.125309
O O18 0.325483 0.000000 0.000000
O O19 0.250000 0.500000 0.716623
#
# Coordination Sequence:
#
# PCOD8278566 Si02
#       7
#    16  16  16  16  16  16  16
#     4  10  22  37  55  78 104 143 195 245 290 340
#     4   9  17  32  56  84 112 145 191 245 289 327
#     4   9  17  31  50  73 105 143 181 228 285 334
#     4  10  18  34  62  90 110 143 191 235 274 323
#     4  11  22  36  56  85 117 152 190 224 279 347
#     4  10  19  38  63  86 121 149 176 224 277 332
#     4  12  21  38  56  80 114 150 186 238 291 336
#
# _framework density 18.750305000000001
#
# number of rings (size 3 to 8) (size 9 to 14) (size 15 to 20)
#    0.000    1.857    4.286    1.714    0.000    4.286 
#    0.000    1.429    0.000    3.000    0.000    0.000 
#    0.000    0.000    0.000    0.000    0.000    0.000 
#
# Total GULP energy -693825.404554 kJ/mol
# GULP energy per Si atom -12389.739367 kJ/mol
# Density = 1.870763 g / cm^3
# Si number density = 18.750305 Si / 1000 Ang^3
#
#
#
# Elastic Constant Matrix: (Units=GPa)
#
#
# Indices 1 2 3 4 5 6 
#
# 1 123.9048 41.4573 35.7837 0.0000 0.0000 0.0000
# 2 41.4573 92.6255 58.6967 0.0000 0.0000 0.0000
# 3 35.7837 58.6967 116.1285 0.0000 0.0000 0.0000
# 4 0.0000 0.0000 0.0000 29.2869 0.0000 0.0000
# 5 0.0000 0.0000 0.0000 0.0000 12.5649 0.0000
# 6 0.0000 0.0000 0.0000 0.0000 0.0000 10.6245
#
#
#
# Elastic Compliance Matrix: (Units=1/GPa)
#
#
# Indices 1 2 3 4 5 6 
#
# 1 0.009597 -0.003562 -0.001157 0.000000 0.000000 0.000000
# 2 -0.003562 0.017206 -0.007599 0.000000 0.000000 0.000000
# 3 -0.001157 -0.007599 0.012808 0.000000 0.000000 0.000000
# 4 0.000000 0.000000 0.000000 0.034145 0.000000 0.000000
# 5 0.000000 0.000000 0.000000 0.000000 0.079587 0.000000
# 6 0.000000 0.000000 0.000000 0.000000 0.000000 0.094122
#
#
# Mechanical properties :
#
#
# Convention : Reuss Voigt Hill
#
# Bulk Modulus (GPa) = 66.77663 67.17048 66.97356
# Shear Modulus (GPa) = 18.04449 23.60999 20.82724
#
# Velocity S-wave (km/s) = 3.10555 3.55234 3.33643
# Velocity P-wave (km/s) = 6.96780 7.26133 7.11608
#
# Compressibility (1/GPa) = 0.01497530
#
# Stress axis : x y z
#
# Youngs Moduli (GPa) = 104.20297 58.11878 78.07354
#
# Poissons Ratio (x) = 0.20704 0.09029
# Poissons Ratio (y) = 0.37121 0.59329
# Poissons Ratio (z) = 0.12051 0.44165
#
# Static dielectric constant tensor:
#      x y z
#    x 3.610830 0.000000 0.000000 
#    y 0.000000 3.564640 0.000000 
#    z 0.000000 0.000000 3.234640 
# 
# 
# High freq. dielectric constant tensor:
#      x y z
#    x 1.720640 0.000000 0.000000 
#    y 0.000000 1.717390 0.000000 
#    z 0.000000 0.000000 1.713350 
# 
# From -- ./inp_files/35132.got.cif
#   From: 2010.03.12/outbox.cif.g09.slc.cpg/sg67_18_cif.got.tgz:35132.got - 2010.04.10 22:41:39.
