data_PCOD8278182
_publ_section_title
;
Structure prediction by ZEFSAII (Michael W. Deem and Ramdas Pophale) SiO2 
 PCOD8278182
Probable space group: C M M A
;
_chemical_formula_sum "Si O2"
_cell_formula_units_Z 104
_cell_length_a 27.569695
_cell_length_b 8.909279
_cell_length_c 24.047699
_cell_angle_alpha 90.000000
_cell_angle_beta 90.000000
_cell_angle_gamma 90.000000
_cell_volume 5906.742632
_symmetry_space_group_name_H-M "C M M A"
_symmetry_group_IT_number 67
_symmetry_cell_setting 'orthorhombic'
loop_
_space_group_symop_operation_xyz
x,y,z
-x,1/2-y,z
x,-y,-z
-x,1/2+y,-z
-x,-y,-z
x,1/2+y,-z
-x,y,z
x,1/2-y,z
1/2+x,1/2+y,z
1/2-x,-y,z
1/2+x,1/2-y,-z
1/2-x,y,-z
1/2-x,1/2-y,-z
1/2+x,y,-z
1/2-x,1/2+y,z
1/2+x,-y,z
loop_
_atom_site_type_symbol
_atom_site_label
_atom_site_fract_x
_atom_site_fract_y
_atom_site_fract_z
Si Si1 0.198704 0.927417 0.728510
Si Si2 0.636719 0.923298 0.171312
Si Si3 0.446104 0.078781 0.232128
Si Si4 0.883818 0.078065 0.661676
Si Si5 0.097563 0.926491 0.941268
Si Si6 0.000000 0.930002 0.060535
Si Si7 0.555035 0.427695 0.442517
O O1 0.204544 0.750000 0.727062
O O2 0.180043 0.987774 0.789607
O O3 0.250000 0.000000 0.715948
O O4 0.161648 0.976969 0.680146
O O5 0.634645 0.750000 0.185017
O O6 0.640960 0.951434 0.104393
O O7 0.585576 0.988325 0.189003
O O8 0.500000 0.011558 0.230092
O O9 0.445987 0.250000 0.212126
O O10 0.427064 0.064033 0.294493
O O11 0.865972 0.250000 0.656653
O O12 0.906778 0.017922 0.604198
O O13 0.087619 0.750000 0.950931
O O14 0.049869 0.005306 0.913805
O O15 0.113199 0.000000 0.000000
O O16 0.000000 0.750000 0.061864
O O17 0.000000 0.000000 0.000000
O O18 0.572541 0.500000 0.500000
O O19 0.500000 0.480036 0.428010
O O20 0.556686 0.250000 0.447927
#
# Coordination Sequence:
#
# PCOD8278182 Si02
#       7
#    16  16  16  16  16   8  16
#     4  10  20  36  56  77  97 121 156 201 253 305
#     4   9  20  34  48  68  95 124 155 193 241 293
#     4   9  17  28  44  68  96 126 161 199 236 280
#     4   9  17  31  50  72 100 133 167 203 245 289
#     4  10  19  32  47  65  91 125 160 196 235 280
#     4  10  18  28  42  62  88 122 162 196 225 266
#     4   9  17  29  47  73 107 146 181 209 238 276
#
# _framework density 17.606997
#
# number of rings (size 3 to 8) (size 9 to 14) (size 15 to 20)
#    0.000    2.615    0.000    3.000    1.077    4.615 
#    0.000    0.000    0.000    3.692    0.000    6.462 
#    0.000    0.000    0.000    0.000    0.000    0.000 
#
# Total GULP energy -644338.299411 kJ/mol
# GULP energy per Si atom -12391.121143 kJ/mol
# Density = 1.756692 g / cm^3
# Si number density = 17.606997 Si / 1000 Ang^3
#
#
#
# Elastic Constant Matrix: (Units=GPa)
#
#
# Indices 1 2 3 4 5 6 
#
# 1 91.5267 20.6489 44.1077 0.0000 0.0000 0.0000
# 2 20.6489 43.3701 29.7882 0.0000 0.0000 0.0000
# 3 44.1077 29.7882 111.7047 0.0000 0.0000 0.0000
# 4 0.0000 0.0000 0.0000 26.0019 0.0000 0.0000
# 5 0.0000 0.0000 0.0000 0.0000 16.5897 0.0000
# 6 0.0000 0.0000 0.0000 0.0000 0.0000 21.0001
#
#
#
# Elastic Compliance Matrix: (Units=1/GPa)
#
#
# Indices 1 2 3 4 5 6 
#
# 1 0.013912 -0.003490 -0.004563 0.000000 0.000000 0.000000
# 2 -0.003490 0.029103 -0.006383 0.000000 0.000000 0.000000
# 3 -0.004563 -0.006383 0.012456 0.000000 0.000000 0.000000
# 4 0.000000 0.000000 0.000000 0.038459 0.000000 0.000000
# 5 0.000000 0.000000 0.000000 0.000000 0.060278 0.000000
# 6 0.000000 0.000000 0.000000 0.000000 0.000000 0.047619
#
#
# Mechanical properties :
#
#
# Convention : Reuss Voigt Hill
#
# Bulk Modulus (GPa) = 37.59386 48.41011 43.00199
# Shear Modulus (GPa) = 20.87128 22.85546 21.86337
#
# Velocity S-wave (km/s) = 3.44669 3.60681 3.52766
# Velocity P-wave (km/s) = 6.10226 6.70074 6.40849
#
# Compressibility (1/GPa) = 0.02660009
#
# Stress axis : x y z
#
# Youngs Moduli (GPa) = 71.88107 34.36089 80.28332
#
# Poissons Ratio (x) = 0.11991 0.36630
# Poissons Ratio (y) = 0.25085 0.51244
# Poissons Ratio (z) = 0.32797 0.21932
#
# Static dielectric constant tensor:
#      x y z
#    x 3.436270 0.000000 0.000000 
#    y 0.000000 3.256740 0.000000 
#    z 0.000000 0.000000 3.472440 
# 
# 
# High freq. dielectric constant tensor:
#      x y z
#    x 1.651400 0.000000 0.000000 
#    y 0.000000 1.680340 0.000000 
#    z 0.000000 0.000000 1.682040 
# 
# From -- ./inp_files/42928.got.cif
#   From: 2010.03.12/outbox.cif.g09.slc.cpg/sg67_22_cif.got.tgz:42928.got - 2010.04.10 22:41:39.
