data_PCOD8278952
_publ_section_title
;
Structure prediction by ZEFSAII (Michael W. Deem and Ramdas Pophale) SiO2 
 PCOD8278952
Probable space group: C M M A
;
_chemical_formula_sum "Si O2"
_cell_formula_units_Z 112
_cell_length_a 18.157636
_cell_length_b 16.601649
_cell_length_c 20.276510
_cell_angle_alpha 90.000000
_cell_angle_beta 90.000000
_cell_angle_gamma 90.000000
_cell_volume 6112.287018
_symmetry_space_group_name_H-M "C M M A"
_symmetry_group_IT_number 67
_symmetry_cell_setting 'orthorhombic'
loop_
_space_group_symop_operation_xyz
x,y,z
-x,1/2-y,z
x,-y,-z
-x,1/2+y,-z
-x,-y,-z
x,1/2+y,-z
-x,y,z
x,1/2-y,z
1/2+x,1/2+y,z
1/2-x,-y,z
1/2+x,1/2-y,-z
1/2-x,y,-z
1/2-x,1/2-y,-z
1/2+x,y,-z
1/2-x,1/2+y,z
1/2+x,-y,z
loop_
_atom_site_type_symbol
_atom_site_label
_atom_site_fract_x
_atom_site_fract_y
_atom_site_fract_z
Si Si1 0.326527 0.835613 0.967704
Si Si2 0.083759 0.345518 0.472869
Si Si3 0.131156 0.657649 0.385438
Si Si4 0.415723 0.344386 0.244290
Si Si5 0.673683 0.040387 0.148433
Si Si6 0.581230 0.064049 0.941583
Si Si7 0.271864 0.408232 0.572515
O O1 0.354785 0.750000 0.936737
O O2 0.313381 0.903828 0.914294
O O3 0.250000 0.818959 0.000000
O O4 0.380989 0.858020 0.027259
O O5 0.097783 0.250000 0.469799
O O6 0.098363 0.381035 0.546946
O O7 0.140522 0.388954 0.421056
O O8 0.000000 0.366669 0.452075
O O9 0.112017 0.750000 0.390413
O O10 0.091007 0.625383 0.319935
O O11 0.219571 0.642901 0.378493
O O12 0.500000 0.354672 0.220477
O O13 0.391472 0.250000 0.236877
O O14 0.363414 0.404168 0.203795
O O15 0.750000 0.000000 0.173770
O O16 0.621470 0.967936 0.124299
O O17 0.500000 0.087886 0.918228
O O18 0.579147 0.000000 0.000000
O O19 0.250000 0.500000 0.585282
O O20 0.250000 0.378799 0.500000
#
# Coordination Sequence:
#
# PCOD8278952 Si02
#       7
#    16  16  16  16  16  16  16
#     4  10  19  32  51  74 100 129 161 198 240 289
#     4   9  16  28  49  75 101 130 165 207 256 306
#     4   9  17  31  50  70  96 133 173 210 251 301
#     4  10  21  36  53  74  99 129 171 219 257 292
#     4  11  20  33  52  74 100 135 166 202 249 302
#     4   9  18  31  49  73  99 128 159 194 241 294
#     4   9  17  29  45  70 102 133 165 203 249 303
#
# _framework density 18.323747000000001
#
# number of rings (size 3 to 8) (size 9 to 14) (size 15 to 20)
#    0.000    2.429    1.429    1.714    0.000    4.857 
#    0.000    6.429    0.000    0.000    0.000    0.000 
#    0.000    1.143    0.000    0.000    0.000    0.000 
#
# Total GULP energy -693770.618058 kJ/mol
# GULP energy per Si atom -12388.761037 kJ/mol
# Density = 1.828204 g / cm^3
# Si number density = 18.323747 Si / 1000 Ang^3
#
#
#
# Elastic Constant Matrix: (Units=GPa)
#
#
# Indices 1 2 3 4 5 6 
#
# 1 140.1248 41.9894 21.8935 0.0000 0.0000 0.0000
# 2 41.9894 65.8082 18.7231 0.0000 0.0000 0.0000
# 3 21.8935 18.7231 35.4008 0.0000 0.0000 0.0000
# 4 0.0000 0.0000 0.0000 16.0828 0.0000 0.0000
# 5 0.0000 0.0000 0.0000 0.0000 24.7286 0.0000
# 6 0.0000 0.0000 0.0000 0.0000 0.0000 31.1005
#
#
#
# Elastic Compliance Matrix: (Units=1/GPa)
#
#
# Indices 1 2 3 4 5 6 
#
# 1 0.009087 -0.004943 -0.003006 0.000000 0.000000 0.000000
# 2 -0.004943 0.020576 -0.007825 0.000000 0.000000 0.000000
# 3 -0.003006 -0.007825 0.034246 0.000000 0.000000 0.000000
# 4 0.000000 0.000000 0.000000 0.062178 0.000000 0.000000
# 5 0.000000 0.000000 0.000000 0.000000 0.040439 0.000000
# 6 0.000000 0.000000 0.000000 0.000000 0.000000 0.032154
#
#
# Mechanical properties :
#
#
# Convention : Reuss Voigt Hill
#
# Bulk Modulus (GPa) = 30.90176 45.17175 38.03676
# Shear Modulus (GPa) = 20.74554 24.96421 22.85488
#
# Velocity S-wave (km/s) = 3.36842 3.69507 3.53552
# Velocity P-wave (km/s) = 5.65944 6.55059 6.12126
#
# Compressibility (1/GPa) = 0.03236062
#
# Stress axis : x y z
#
# Youngs Moduli (GPa) = 110.04307 48.60011 29.20081
#
# Poissons Ratio (x) = 0.24024 0.08777
# Poissons Ratio (y) = 0.54396 0.22851
# Poissons Ratio (z) = 0.33075 0.38032
#
# Static dielectric constant tensor:
#      x y z
#    x 3.631110 0.000000 0.000000 
#    y 0.000000 3.544420 0.000000 
#    z 0.000000 0.000000 3.446480 
# 
# 
# High freq. dielectric constant tensor:
#      x y z
#    x 1.720550 0.000000 0.000000 
#    y 0.000000 1.700030 0.000000 
#    z 0.000000 0.000000 1.668640 
# 
# From -- ./inp_files/39061.got.cif
#   From: 2010.03.12/outbox.cif.g09.slc.cpg/sg67_20_cif.got.tgz:39061.got - 2010.04.10 22:41:39.
