data_PCOD8278040
_publ_section_title
;
Structure prediction by ZEFSAII (Michael W. Deem and Ramdas Pophale) SiO2 
 PCOD8278040
Probable space group: C M M A
;
_chemical_formula_sum "Si O2"
_cell_formula_units_Z 80
_cell_length_a 19.071064
_cell_length_b 8.855338
_cell_length_c 26.269406
_cell_angle_alpha 90.000000
_cell_angle_beta 90.000000
_cell_angle_gamma 90.000000
_cell_volume 4436.396140
_symmetry_space_group_name_H-M "C M M A"
_symmetry_group_IT_number 67
_symmetry_cell_setting 'orthorhombic'
loop_
_space_group_symop_operation_xyz
x,y,z
-x,1/2-y,z
x,-y,-z
-x,1/2+y,-z
-x,-y,-z
x,1/2+y,-z
-x,y,z
x,1/2-y,z
1/2+x,1/2+y,z
1/2-x,-y,z
1/2+x,1/2-y,-z
1/2-x,y,-z
1/2-x,1/2-y,-z
1/2+x,y,-z
1/2-x,1/2+y,z
1/2+x,-y,z
loop_
_atom_site_type_symbol
_atom_site_label
_atom_site_fract_x
_atom_site_fract_y
_atom_site_fract_z
Si Si1 0.083631 0.580150 0.050491
Si Si2 0.825959 0.929683 0.348075
Si Si3 0.583497 0.580053 0.151114
Si Si4 0.827581 0.568877 0.550265
Si Si5 0.579517 0.926879 0.746972
O O1 0.111344 0.750000 0.050075
O O2 0.114092 0.501306 0.101080
O O3 0.000000 0.573083 0.050698
O O4 0.113330 0.500000 0.000000
O O5 0.819958 0.750000 0.355783
O O6 0.874489 0.975432 0.301034
O O7 0.750000 0.000000 0.337759
O O8 0.862588 0.006203 0.397864
O O9 0.500000 0.570819 0.150339
O O10 0.611123 0.750000 0.150248
O O11 0.611747 0.502681 0.202517
O O12 0.866158 0.500000 0.500000
O O13 0.827101 0.750000 0.548531
O O14 0.750000 0.500000 0.551101
O O15 0.500000 0.981725 0.736933
O O16 0.581993 0.750000 0.756266
#
# Coordination Sequence:
#
# PCOD8278040 Si02
#       5
#    16  16  16  16  16
#     4   9  15  22  33  50  75 107 142 180 222 267
#     4  10  19  31  48  70  95 120 149 186 226 267
#     4   9  16  25  38  57  81 110 145 183 222 266
#     4  10  17  27  44  66  92 118 147 182 222 267
#     4   9  18  32  48  65  88 121 156 187 222 266
#
# _framework density 18.032654999999998
#
# number of rings (size 3 to 8) (size 9 to 14) (size 15 to 20)
#    0.000    2.600    0.000    5.400    0.000    6.400 
#    0.000    0.000    0.000    0.600    0.000    0.000 
#    0.000    0.800    0.000    8.400    0.000   12.600 
#
# Total GULP energy -495808.580029 kJ/mol
# GULP energy per Si atom -12395.214501 kJ/mol
# Density = 1.799161 g / cm^3
# Si number density = 18.032655 Si / 1000 Ang^3
#
#
#
# Elastic Constant Matrix: (Units=GPa)
#
#
# Indices 1 2 3 4 5 6 
#
# 1 25.2142 21.4070 38.5236 0.0000 0.0000 0.0000
# 2 21.4070 131.9007 97.4141 0.0000 0.0000 0.0000
# 3 38.5236 97.4141 222.3607 0.0000 0.0000 0.0000
# 4 0.0000 0.0000 0.0000 40.3435 0.0000 0.0000
# 5 0.0000 0.0000 0.0000 0.0000 -2.0800 0.0000
# 6 0.0000 0.0000 0.0000 0.0000 0.0000 10.7184
#
#
#
# Elastic Compliance Matrix: (Units=1/GPa)
#
#
# Indices 1 2 3 4 5 6 
#
# 1 0.054615 -0.002773 -0.008247 0.000000 0.000000 0.000000
# 2 -0.002773 0.011348 -0.004491 0.000000 0.000000 0.000000
# 3 -0.008247 -0.004491 0.007894 0.000000 0.000000 0.000000
# 4 0.000000 0.000000 0.000000 0.024787 0.000000 0.000000
# 5 0.000000 0.000000 0.000000 0.000000 -0.480760 0.000000
# 6 0.000000 0.000000 0.000000 0.000000 0.000000 0.093298
#
#
# Mechanical properties :
#
#
# Convention : Reuss Voigt Hill
#
# Bulk Modulus (GPa) = 23.34581 77.12946 50.23763
# Shear Modulus (GPa) = -20.53243 24.60509 2.03633
#
# Velocity S-wave (km/s) = -3.37801 3.69789 1.06381
# Velocity P-wave (km/s) = 1.49670 7.81648 5.42482
#
# Compressibility (1/GPa) = 0.04283424
#
# Stress axis : x y z
#
# Youngs Moduli (GPa) = 18.31003 88.11758 126.68528
#
# Poissons Ratio (x) = 0.24435 1.04479
# Poissons Ratio (y) = 0.05077 0.56898
# Poissons Ratio (z) = 0.15101 0.39576
#
# Static dielectric constant tensor:
#      x y z
#    x 2.655360 0.000000 0.000000 
#    y 0.000000 3.441600 0.000000 
#    z 0.000000 0.000000 4.079020 
# 
# 
# High freq. dielectric constant tensor:
#      x y z
#    x 1.610270 0.000000 0.000000 
#    y 0.000000 1.713570 0.000000 
#    z 0.000000 0.000000 1.728310 
# 
# From -- ./inp_files/43232.got.cif
#   From: 2010.03.12/outbox.cif.g09.slc.cpg/sg67_22_cif.got.tgz:43232.got - 2010.04.10 22:41:39.
