data_PCOD8278140
_publ_section_title
;
Structure prediction by ZEFSAII (Michael W. Deem and Ramdas Pophale) SiO2 
 PCOD8278140
Probable space group: C M M A
;
_chemical_formula_sum "Si O2"
_cell_formula_units_Z 96
_cell_length_a 20.552703
_cell_length_b 15.482948
_cell_length_c 14.614449
_cell_angle_alpha 90.000000
_cell_angle_beta 90.000000
_cell_angle_gamma 90.000000
_cell_volume 4650.557814
_symmetry_space_group_name_H-M "C M M A"
_symmetry_group_IT_number 67
_symmetry_cell_setting 'orthorhombic'
loop_
_space_group_symop_operation_xyz
x,y,z
-x,1/2-y,z
x,-y,-z
-x,1/2+y,-z
-x,-y,-z
x,1/2+y,-z
-x,y,z
x,1/2-y,z
1/2+x,1/2+y,z
1/2-x,-y,z
1/2+x,1/2-y,-z
1/2-x,y,-z
1/2-x,1/2-y,-z
1/2+x,y,-z
1/2-x,1/2+y,z
1/2+x,-y,z
loop_
_atom_site_type_symbol
_atom_site_label
_atom_site_fract_x
_atom_site_fract_y
_atom_site_fract_z
Si Si1 0.313270 0.146882 0.053711
Si Si2 0.875904 0.147702 0.265752
Si Si3 0.806988 0.152304 0.560376
Si Si4 0.273600 0.852107 0.752615
Si Si5 0.427980 0.647385 0.070822
Si Si6 0.573733 0.593518 0.456159
O O1 0.315662 0.250000 0.053089
O O2 0.308472 0.109110 0.157037
O O3 0.250000 0.114143 0.000000
O O4 0.377194 0.108821 0.003178
O O5 0.883429 0.250000 0.284735
O O6 0.801293 0.119878 0.254578
O O7 0.912066 0.117721 0.173813
O O8 0.908193 0.095076 0.349238
O O9 0.783489 0.250000 0.576214
O O10 0.750000 0.106185 0.500000
O O11 0.810285 0.110946 0.662210
O O12 0.876601 0.153790 0.511489
O O13 0.278142 0.750000 0.762410
O O14 0.500000 0.614626 0.044212
O O15 0.423666 0.750000 0.068182
O O16 0.582770 0.500000 0.500000
O O17 0.500000 0.627029 0.469715
#
# Coordination Sequence:
#
# PCOD8278140 Si02
#       6
#    16  16  16  16  16  16
#     4   9  14  23  40  64 101 137 159 194 253 309
#     4  10  17  30  52  76 103 134 175 224 264 306
#     4  10  19  34  55  77 103 134 174 220 261 312
#     4   9  16  27  46  74 102 131 169 211 256 304
#     4   9  16  24  39  68 102 135 171 210 254 305
#     4  11  24  38  51  73 106 139 173 217 269 320
#
# _framework density 20.642685
#
# number of rings (size 3 to 8) (size 9 to 14) (size 15 to 20)
#    0.000    2.333    3.333    1.000    0.000    2.333 
#    0.000    0.833    0.000    3.000    0.000    1.167 
#    0.000    4.000    0.000    0.000    0.000    0.000 
#
# Total GULP energy -594917.909686 kJ/mol
# GULP energy per Si atom -12394.123118 kJ/mol
# Density = 2.059570 g / cm^3
# Si number density = 20.642685 Si / 1000 Ang^3
#
#
#
# Elastic Constant Matrix: (Units=GPa)
#
#
# Indices 1 2 3 4 5 6 
#
# 1 172.3058 6.6842 107.5728 0.0000 0.0000 0.0000
# 2 6.6842 14.3746 14.8947 0.0000 0.0000 0.0000
# 3 107.5728 14.8947 218.8184 0.0000 0.0000 0.0000
# 4 0.0000 0.0000 0.0000 12.0493 0.0000 0.0000
# 5 0.0000 0.0000 0.0000 0.0000 36.8358 0.0000
# 6 0.0000 0.0000 0.0000 0.0000 0.0000 7.0298
#
#
#
# Elastic Compliance Matrix: (Units=1/GPa)
#
#
# Indices 1 2 3 4 5 6 
#
# 1 0.008376 0.000400 -0.004145 0.000000 0.000000 0.000000
# 2 0.000400 0.074865 -0.005293 0.000000 0.000000 0.000000
# 3 -0.004145 -0.005293 0.006968 0.000000 0.000000 0.000000
# 4 0.000000 0.000000 0.000000 0.082992 0.000000 0.000000
# 5 0.000000 0.000000 0.000000 0.000000 0.027147 0.000000
# 6 0.000000 0.000000 0.000000 0.000000 0.000000 0.142252
#
#
# Mechanical properties :
#
#
# Convention : Reuss Voigt Hill
#
# Bulk Modulus (GPa) = 13.86307 73.75580 43.80944
# Shear Modulus (GPa) = 12.99646 29.60613 21.30129
#
# Velocity S-wave (km/s) = 2.51189 3.79122 3.21581
# Velocity P-wave (km/s) = 3.89141 7.41429 5.92093
#
# Compressibility (1/GPa) = 0.07213408
#
# Stress axis : x y z
#
# Youngs Moduli (GPa) = 119.39179 13.35733 143.51549
#
# Poissons Ratio (x) = -0.00534 0.59485
# Poissons Ratio (y) = -0.04776 0.75957
# Poissons Ratio (z) = 0.49486 0.07070
#
# Static dielectric constant tensor:
#      x y z
#    x 3.831140 0.000000 0.000000 
#    y 0.000000 3.049170 0.000000 
#    z 0.000000 0.000000 4.184340 
# 
# 
# High freq. dielectric constant tensor:
#      x y z
#    x 1.804110 0.000000 0.000000 
#    y 0.000000 1.747810 0.000000 
#    z 0.000000 0.000000 1.827030 
# 
# From -- ./inp_files/29262.got.cif
#   From: 2010.03.12/outbox.cif.g09.slc.cpg/sg67_15_cif.got.tgz:29262.got - 2010.04.10 22:41:39.
