data_PCOD8278881
_publ_section_title
;
Structure prediction by ZEFSAII (Michael W. Deem and Ramdas Pophale) SiO2 
 PCOD8278881
Probable space group: C M M A
;
_chemical_formula_sum "Si O2"
_cell_formula_units_Z 104
_cell_length_a 27.022835
_cell_length_b 9.017353
_cell_length_c 23.880829
_cell_angle_alpha 90.000000
_cell_angle_beta 90.000000
_cell_angle_gamma 90.000000
_cell_volume 5819.147687
_symmetry_space_group_name_H-M "C M M A"
_symmetry_group_IT_number 67
_symmetry_cell_setting 'orthorhombic'
loop_
_space_group_symop_operation_xyz
x,y,z
-x,1/2-y,z
x,-y,-z
-x,1/2+y,-z
-x,-y,-z
x,1/2+y,-z
-x,y,z
x,1/2-y,z
1/2+x,1/2+y,z
1/2-x,-y,z
1/2+x,1/2-y,-z
1/2-x,y,-z
1/2-x,1/2-y,-z
1/2+x,y,-z
1/2-x,1/2+y,z
1/2+x,-y,z
loop_
_atom_site_type_symbol
_atom_site_label
_atom_site_fract_x
_atom_site_fract_y
_atom_site_fract_z
Si Si1 0.351736 0.424566 0.662808
Si Si2 0.945492 0.080641 0.266406
Si Si3 0.603633 0.924074 0.830238
Si Si4 0.500000 0.080488 0.442492
Si Si5 0.556761 0.924380 0.943495
Si Si6 0.391902 0.074748 0.439440
Si Si7 0.800257 0.426452 0.763324
O O1 0.339934 0.250000 0.658793
O O2 0.405892 0.460368 0.686797
O O3 0.351478 0.499081 0.601424
O O4 0.311686 0.503798 0.702431
O O5 0.939576 0.250000 0.248094
O O6 0.000000 0.047107 0.291182
O O7 0.938178 0.986151 0.210618
O O8 0.598024 0.750000 0.828249
O O9 0.592074 0.981082 0.892978
O O10 0.658012 0.972554 0.808744
O O11 0.500000 0.250000 0.459021
O O12 0.447289 0.042971 0.412940
O O13 0.500000 0.000000 0.500000
O O14 0.500000 0.970823 0.930997
O O15 0.561230 0.750000 0.951632
O O16 0.576378 0.000000 0.000000
O O17 0.381280 0.250000 0.444075
O O18 0.386109 0.000000 0.500000
O O19 0.795174 0.250000 0.757565
O O20 0.750000 0.500000 0.785861
#
# Coordination Sequence:
#
# PCOD8278881 Si02
#       7
#    16  16  16   8  16  16  16
#     4  10  20  33  50  73 100 130 164 203 249 300
#     4   9  18  30  44  67  99 132 164 201 245 292
#     4   9  18  32  50  72  98 130 168 208 249 297
#     4   8  16  28  42  62  90 126 168 204 235 276
#     4   9  17  29  46  71 104 140 175 207 241 283
#     4  10  19  32  48  69  97 132 171 209 248 293
#     4  10  20  36  57  78  99 124 160 207 259 310
#
# _framework density 17.872032999999998
#
# number of rings (size 3 to 8) (size 9 to 14) (size 15 to 20)
#    0.000    2.615    0.000    1.846    1.077    3.385 
#    0.000    1.538    0.000    0.923    0.000    6.462 
#    0.000    0.000    0.000    0.000    0.000    0.000 
#
# Total GULP energy -644469.308233 kJ/mol
# GULP energy per Si atom -12393.640543 kJ/mol
# Density = 1.783136 g / cm^3
# Si number density = 17.872033 Si / 1000 Ang^3
#
#
#
# Elastic Constant Matrix: (Units=GPa)
#
#
# Indices 1 2 3 4 5 6 
#
# 1 68.3481 24.7975 31.9546 0.0000 0.0000 0.0000
# 2 24.7975 52.4185 37.1919 0.0000 0.0000 0.0000
# 3 31.9546 37.1919 103.5791 0.0000 0.0000 0.0000
# 4 0.0000 0.0000 0.0000 30.0828 0.0000 0.0000
# 5 0.0000 0.0000 0.0000 0.0000 16.1707 0.0000
# 6 0.0000 0.0000 0.0000 0.0000 0.0000 24.9257
#
#
#
# Elastic Compliance Matrix: (Units=1/GPa)
#
#
# Indices 1 2 3 4 5 6 
#
# 1 0.018537 -0.006322 -0.003449 0.000000 0.000000 0.000000
# 2 -0.006322 0.027755 -0.008016 0.000000 0.000000 0.000000
# 3 -0.003449 -0.008016 0.013596 0.000000 0.000000 0.000000
# 4 0.000000 0.000000 0.000000 0.033242 0.000000 0.000000
# 5 0.000000 0.000000 0.000000 0.000000 0.061840 0.000000
# 6 0.000000 0.000000 0.000000 0.000000 0.000000 0.040119
#
#
# Mechanical properties :
#
#
# Convention : Reuss Voigt Hill
#
# Bulk Modulus (GPa) = 41.12561 45.80378 43.46469
# Shear Modulus (GPa) = 20.94080 22.92930 21.93505
#
# Velocity S-wave (km/s) = 3.42674 3.58574 3.50714
# Velocity P-wave (km/s) = 6.22236 6.54430 6.38536
#
# Compressibility (1/GPa) = 0.02431575
#
# Stress axis : x y z
#
# Youngs Moduli (GPa) = 53.94567 36.02909 73.54845
#
# Poissons Ratio (x) = 0.22779 0.25364
# Poissons Ratio (y) = 0.34107 0.58953
# Poissons Ratio (z) = 0.18604 0.28879
#
# Static dielectric constant tensor:
#      x y z
#    x 3.372650 0.000000 0.000000 
#    y 0.000000 3.268100 0.000000 
#    z 0.000000 0.000000 3.270910 
# 
# 
# High freq. dielectric constant tensor:
#      x y z
#    x 1.670100 0.000000 0.000000 
#    y 0.000000 1.698140 0.000000 
#    z 0.000000 0.000000 1.679820 
# 
# From -- ./inp_files/42759.got.cif
#   From: 2010.03.12/outbox.cif.g09.slc.cpg/sg67_22_cif.got.tgz:42759.got - 2010.04.10 22:41:39.
