data_PCOD8278465
_publ_section_title
;
Structure prediction by ZEFSAII (Michael W. Deem and Ramdas Pophale) SiO2 
 PCOD8278465
Probable space group: C M M A
;
_chemical_formula_sum "Si O2"
_cell_formula_units_Z 64
_cell_length_a 9.073543
_cell_length_b 31.812438
_cell_length_c 11.310178
_cell_angle_alpha 90.000000
_cell_angle_beta 90.000000
_cell_angle_gamma 90.000000
_cell_volume 3264.700118
_symmetry_space_group_name_H-M "C M M A"
_symmetry_group_IT_number 67
_symmetry_cell_setting 'orthorhombic'
loop_
_space_group_symop_operation_xyz
x,y,z
-x,1/2-y,z
x,-y,-z
-x,1/2+y,-z
-x,-y,-z
x,1/2+y,-z
-x,y,z
x,1/2-y,z
1/2+x,1/2+y,z
1/2-x,-y,z
1/2+x,1/2-y,-z
1/2-x,y,-z
1/2-x,1/2-y,-z
1/2+x,y,-z
1/2-x,1/2+y,z
1/2+x,-y,z
loop_
_atom_site_type_symbol
_atom_site_label
_atom_site_fract_x
_atom_site_fract_y
_atom_site_fract_z
Si Si1 0.822343 0.250000 0.873564
Si Si2 0.834680 0.540116 0.819984
Si Si3 0.177353 0.090989 0.626805
Si Si4 0.663701 0.162513 0.208505
Si Si5 0.250000 0.606674 0.000000
O O1 0.760893 0.208299 0.806391
O O2 0.000000 0.250000 0.886678
O O3 0.750000 0.250000 0.000000
O O4 0.750000 0.500000 0.875019
O O5 0.738875 0.553097 0.705804
O O6 0.000000 0.528043 0.780788
O O7 0.849855 0.576792 0.917869
O O8 0.250000 0.087812 0.500000
O O9 0.235832 0.134402 0.687760
O O10 0.000000 0.088387 0.620764
O O11 0.500000 0.171979 0.250151
O O12 0.655658 0.136800 0.085187
#
# Coordination Sequence:
#
# PCOD8278465 Si02
#       5
#     8  16  16  16   8
#     4  10  18  32  53  82 116 148 181 219 266 319
#     4  11  23  37  56  82 112 146 184 228 278 331
#     4  10  21  39  59  80 107 143 187 232 279 328
#     4   9  18  32  53  80 112 147 180 220 271 323
#     4  10  19  33  54  80 114 148 182 223 269 326
#
# _framework density 19.603639999999999
#
# number of rings (size 3 to 8) (size 9 to 14) (size 15 to 20)
#    0.000    2.000    1.250    2.625    0.000    4.500 
#    0.000    4.375    0.000    0.000    0.000    0.000 
#    0.000    0.000    0.000    0.000    0.000    0.000 
#
# Total GULP energy -396491.387197 kJ/mol
# GULP energy per Si atom -12390.355850 kJ/mol
# Density = 1.955902 g / cm^3
# Si number density = 19.603640 Si / 1000 Ang^3
#
#
#
# Elastic Constant Matrix: (Units=GPa)
#
#
# Indices 1 2 3 4 5 6 
#
# 1 93.5643 28.9765 21.8776 0.0000 0.0000 0.0000
# 2 28.9765 127.4296 30.0922 0.0000 0.0000 0.0000
# 3 21.8776 30.0922 94.5104 0.0000 0.0000 0.0000
# 4 0.0000 0.0000 0.0000 19.2119 0.0000 0.0000
# 5 0.0000 0.0000 0.0000 0.0000 25.4046 0.0000
# 6 0.0000 0.0000 0.0000 0.0000 0.0000 21.6424
#
#
#
# Elastic Compliance Matrix: (Units=1/GPa)
#
#
# Indices 1 2 3 4 5 6 
#
# 1 0.011850 -0.002213 -0.002038 0.000000 0.000000 0.000000
# 2 -0.002213 0.008899 -0.002321 0.000000 0.000000 0.000000
# 3 -0.002038 -0.002321 0.011792 0.000000 0.000000 0.000000
# 4 0.000000 0.000000 0.000000 0.052051 0.000000 0.000000
# 5 0.000000 0.000000 0.000000 0.000000 0.039363 0.000000
# 6 0.000000 0.000000 0.000000 0.000000 0.000000 0.046206
#
#
# Mechanical properties :
#
#
# Convention : Reuss Voigt Hill
#
# Bulk Modulus (GPa) = 51.55930 53.04410 52.30170
# Shear Modulus (GPa) = 26.34760 28.88896 27.61828
#
# Velocity S-wave (km/s) = 3.67006 3.84298 3.75752
# Velocity P-wave (km/s) = 6.65711 6.84167 6.75002
#
# Compressibility (1/GPa) = 0.01939514
#
# Stress axis : x y z
#
# Youngs Moduli (GPa) = 84.38901 112.37395 84.80522
#
# Poissons Ratio (x) = 0.24871 0.17286
# Poissons Ratio (y) = 0.18677 0.19684
# Poissons Ratio (z) = 0.17202 0.26083
#
# Static dielectric constant tensor:
#      x y z
#    x 3.343710 0.000000 0.000000 
#    y 0.000000 4.226620 0.000000 
#    z 0.000000 0.000000 3.438990 
# 
# 
# High freq. dielectric constant tensor:
#      x y z
#    x 1.744430 0.000000 0.000000 
#    y 0.000000 1.777110 0.000000 
#    z 0.000000 0.000000 1.748410 
# 
# From -- ./inp_files/15843.got.cif
#   From: 2010.03.12/outbox.cif.g09.slc.cpg/sg67_8_cif.got.tgz:15843.got - 2010.04.10 22:41:39.
