data_PCOD8278107
_publ_section_title
;
Structure prediction by ZEFSAII (Michael W. Deem and Ramdas Pophale) SiO2 
 PCOD8278107
Probable space group: C M M A
;
_chemical_formula_sum "Si O2"
_cell_formula_units_Z 96
_cell_length_a 8.716141
_cell_length_b 18.929189
_cell_length_c 30.632796
_cell_angle_alpha 90.000000
_cell_angle_beta 90.000000
_cell_angle_gamma 90.000000
_cell_volume 5054.089093
_symmetry_space_group_name_H-M "C M M A"
_symmetry_group_IT_number 67
_symmetry_cell_setting 'orthorhombic'
loop_
_space_group_symop_operation_xyz
x,y,z
-x,1/2-y,z
x,-y,-z
-x,1/2+y,-z
-x,-y,-z
x,1/2+y,-z
-x,y,z
x,1/2-y,z
1/2+x,1/2+y,z
1/2-x,-y,z
1/2+x,1/2-y,-z
1/2-x,y,-z
1/2-x,1/2-y,-z
1/2+x,y,-z
1/2-x,1/2+y,z
1/2+x,-y,z
loop_
_atom_site_type_symbol
_atom_site_label
_atom_site_fract_x
_atom_site_fract_y
_atom_site_fract_z
Si Si1 0.821137 0.832064 0.706434
Si Si2 0.817327 0.421600 0.456645
Si Si3 0.181005 0.922826 0.368418
Si Si4 0.679189 0.927581 0.214454
Si Si5 0.174881 0.333471 0.955474
Si Si6 0.181118 0.073577 0.116382
O O1 0.779035 0.750000 0.706903
O O2 0.717396 0.870489 0.670864
O O3 0.777192 0.863142 0.753815
O O4 0.000000 0.844863 0.695750
O O5 0.750000 0.500000 0.456260
O O6 0.750000 0.382483 0.500000
O O7 0.756033 0.386985 0.411830
O O8 0.000000 0.421408 0.458081
O O9 0.000000 0.930549 0.374936
O O10 0.250000 0.000000 0.358512
O O11 0.500000 0.940023 0.213011
O O12 0.740175 0.910781 0.165697
O O13 0.750000 0.000000 0.232958
O O14 0.190497 0.250000 0.952817
O O15 0.262468 0.363411 0.913845
O O16 0.000000 0.358834 0.954639
O O17 0.250000 0.362361 0.000000
O O18 0.000000 0.069200 0.114163
O O19 0.250000 0.000000 0.099255
#
# Coordination Sequence:
#
# PCOD8278107 Si02
#       6
#    16  16  16  16  16  16
#     4  10  21  37  55  77 107 141 177 218 265 316
#     4  10  17  28  47  74 106 137 172 215 264 312
#     4  11  21  34  53  78 107 140 180 221 265 315
#     4   9  19  35  56  80 106 139 176 217 264 316
#     4  10  21  37  56  79 108 142 180 221 265 314
#     4  10  20  35  56  82 111 141 176 218 265 316
#
# _framework density 18.994520999999999
#
# number of rings (size 3 to 8) (size 9 to 14) (size 15 to 20)
#    0.000    2.000    0.000    6.000    0.000    5.000 
#    0.000    3.333    0.000    0.500    0.000    0.000 
#    0.000    0.000    0.000    0.000    0.000    0.000 
#
# Total GULP energy -595208.520562 kJ/mol
# GULP energy per Si atom -12400.177512 kJ/mol
# Density = 1.895129 g / cm^3
# Si number density = 18.994521 Si / 1000 Ang^3
#
#
#
# Elastic Constant Matrix: (Units=GPa)
#
#
# Indices 1 2 3 4 5 6 
#
# 1 119.5133 35.7380 54.0227 0.0000 0.0000 0.0000
# 2 35.7380 69.6389 51.3956 0.0000 0.0000 0.0000
# 3 54.0227 51.3956 129.8353 0.0000 0.0000 0.0000
# 4 0.0000 0.0000 0.0000 4.1195 0.0000 0.0000
# 5 0.0000 0.0000 0.0000 0.0000 30.6441 0.0000
# 6 0.0000 0.0000 0.0000 0.0000 0.0000 25.7519
#
#
#
# Elastic Compliance Matrix: (Units=1/GPa)
#
#
# Indices 1 2 3 4 5 6 
#
# 1 0.010769 -0.003136 -0.003240 0.000000 0.000000 0.000000
# 2 -0.003136 0.021200 -0.007087 0.000000 0.000000 0.000000
# 3 -0.003240 -0.007087 0.011856 0.000000 0.000000 0.000000
# 4 0.000000 0.000000 0.000000 0.242750 0.000000 0.000000
# 5 0.000000 0.000000 0.000000 0.000000 0.032633 0.000000
# 6 0.000000 0.000000 0.000000 0.000000 0.000000 0.038832
#
#
# Mechanical properties :
#
#
# Convention : Reuss Voigt Hill
#
# Bulk Modulus (GPa) = 59.17421 66.81114 62.99267
# Shear Modulus (GPa) = 12.80090 23.95850 18.37970
#
# Velocity S-wave (km/s) = 2.59882 3.55538 3.11405
# Velocity P-wave (km/s) = 6.34241 7.21835 6.79451
#
# Compressibility (1/GPa) = 0.01689926
#
# Stress axis : x y z
#
# Youngs Moduli (GPa) = 92.85606 47.17082 84.34886
#
# Poissons Ratio (x) = 0.14792 0.27326
# Poissons Ratio (y) = 0.29117 0.59779
# Poissons Ratio (z) = 0.30082 0.33431
#
# Static dielectric constant tensor:
#      x y z
#    x 3.566080 0.000000 0.000000 
#    y 0.000000 3.251590 0.000000 
#    z 0.000000 0.000000 4.181770 
# 
# 
# High freq. dielectric constant tensor:
#      x y z
#    x 1.747390 0.000000 0.000000 
#    y 0.000000 1.703840 0.000000 
#    z 0.000000 0.000000 1.758140 
# 
# From -- ./inp_files/43439.got.cif
#   From: 2010.03.12/outbox.cif.g09.slc.cpg/sg67_22_cif.got.tgz:43439.got - 2010.04.10 22:41:39.
