data_PCOD8278444
_publ_section_title
;
Structure prediction by ZEFSAII (Michael W. Deem and Ramdas Pophale) SiO2 
 PCOD8278444
Probable space group: C M M A
;
_chemical_formula_sum "Si O2"
_cell_formula_units_Z 80
_cell_length_a 16.383482
_cell_length_b 17.746165
_cell_length_c 15.118569
_cell_angle_alpha 90.000000
_cell_angle_beta 90.000000
_cell_angle_gamma 90.000000
_cell_volume 4395.632845
_symmetry_space_group_name_H-M "C M M A"
_symmetry_group_IT_number 67
_symmetry_cell_setting 'orthorhombic'
loop_
_space_group_symop_operation_xyz
x,y,z
-x,1/2-y,z
x,-y,-z
-x,1/2+y,-z
-x,-y,-z
x,1/2+y,-z
-x,y,z
x,1/2-y,z
1/2+x,1/2+y,z
1/2-x,-y,z
1/2+x,1/2-y,-z
1/2-x,y,-z
1/2-x,1/2-y,-z
1/2+x,y,-z
1/2-x,1/2+y,z
1/2+x,-y,z
loop_
_atom_site_type_symbol
_atom_site_label
_atom_site_fract_x
_atom_site_fract_y
_atom_site_fract_z
Si Si1 0.500000 0.166787 0.699150
Si Si2 0.907888 0.164115 0.988546
Si Si3 0.637857 0.885202 0.173228
Si Si4 0.839133 0.022399 0.707215
Si Si5 0.815364 0.664814 0.184821
Si Si6 0.000000 0.480992 0.398076
O O1 0.500000 0.250000 0.657182
O O2 0.577947 0.157084 0.760708
O O3 0.500000 0.108809 0.617411
O O4 0.886502 0.250000 0.015691
O O5 0.852196 0.136469 0.907985
O O6 0.000000 0.157347 0.954755
O O7 0.895844 0.110995 0.073634
O O8 0.718917 0.836075 0.174255
O O9 0.650951 0.970770 0.205589
O O10 0.842019 0.109568 0.736107
O O11 0.750000 0.000000 0.663918
O O12 0.915889 0.013599 0.642052
O O13 0.844758 0.750000 0.207111
O O14 0.000000 0.500000 0.500000
#
# Coordination Sequence:
#
# PCOD8278444 Si02
#       6
#     8  16  16  16  16   8
#     4  10  18  32  57  83 105 129 171 223 261 306
#     4  10  19  29  44  72 107 143 181 220 257 292
#     4  10  18  32  52  75 104 141 180 222 260 296
#     4   9  21  38  56  80 106 135 175 216 262 315
#     4  10  20  33  50  73 106 146 182 215 252 301
#     4  10  22  40  61  83 107 135 165 206 272 334
#
# _framework density 18.199881999999999
#
# number of rings (size 3 to 8) (size 9 to 14) (size 15 to 20)
#    0.000    2.200    1.000    2.400    1.400    2.800 
#    0.000    5.000    0.000    0.000    0.000    8.400 
#    0.000    0.000    0.000    0.000    0.000    0.000 
#
# Total GULP energy -495909.143911 kJ/mol
# GULP energy per Si atom -12397.728598 kJ/mol
# Density = 1.815846 g / cm^3
# Si number density = 18.199882 Si / 1000 Ang^3
#
#
#
# Elastic Constant Matrix: (Units=GPa)
#
#
# Indices 1 2 3 4 5 6 
#
# 1 133.4927 38.8219 63.8805 0.0000 0.0000 0.0000
# 2 38.8219 99.0917 48.8450 0.0000 0.0000 0.0000
# 3 63.8805 48.8450 108.0954 0.0000 0.0000 0.0000
# 4 0.0000 0.0000 0.0000 16.7998 0.0000 0.0000
# 5 0.0000 0.0000 0.0000 0.0000 20.3121 0.0000
# 6 0.0000 0.0000 0.0000 0.0000 0.0000 14.7098
#
#
#
# Elastic Compliance Matrix: (Units=1/GPa)
#
#
# Indices 1 2 3 4 5 6 
#
# 1 0.010587 -0.001369 -0.005638 0.000000 0.000000 0.000000
# 2 -0.001369 0.013161 -0.005138 0.000000 0.000000 0.000000
# 3 -0.005638 -0.005138 0.014905 0.000000 0.000000 0.000000
# 4 0.000000 0.000000 0.000000 0.059525 0.000000 0.000000
# 5 0.000000 0.000000 0.000000 0.000000 0.049232 0.000000
# 6 0.000000 0.000000 0.000000 0.000000 0.000000 0.067982
#
#
# Mechanical properties :
#
#
# Convention : Reuss Voigt Hill
#
# Bulk Modulus (GPa) = 69.62442 71.53052 70.57747
# Shear Modulus (GPa) = 20.45259 22.97316 21.71288
#
# Velocity S-wave (km/s) = 3.35591 3.55670 3.45776
# Velocity P-wave (km/s) = 7.30443 7.50032 7.40302
#
# Compressibility (1/GPa) = 0.01436278
#
# Stress axis : x y z
#
# Youngs Moduli (GPa) = 94.45452 75.98482 67.09257
#
# Poissons Ratio (x) = 0.10399 0.37828
# Poissons Ratio (y) = 0.12927 0.34473
# Poissons Ratio (z) = 0.53255 0.39041
#
# Static dielectric constant tensor:
#      x y z
#    x 3.677200 0.000000 0.000000 
#    y 0.000000 3.345820 0.000000 
#    z 0.000000 0.000000 2.931330 
# 
# 
# High freq. dielectric constant tensor:
#      x y z
#    x 1.728120 0.000000 0.000000 
#    y 0.000000 1.702850 0.000000 
#    z 0.000000 0.000000 1.661910 
# 
# From -- ./inp_files/28421.got.cif
#   From: 2010.03.12/outbox.cif.g09.slc.cpg/sg67_15_cif.got.tgz:28421.got - 2010.04.10 22:41:39.
