data_PCOD8278036
_publ_section_title
;
Structure prediction by ZEFSAII (Michael W. Deem and Ramdas Pophale) SiO2 
 PCOD8278036
Probable space group: C M M A
;
_chemical_formula_sum "Si O2"
_cell_formula_units_Z 64
_cell_length_a 8.690305
_cell_length_b 30.886720
_cell_length_c 15.318310
_cell_angle_alpha 90.000000
_cell_angle_beta 90.000000
_cell_angle_gamma 90.000000
_cell_volume 4111.664443
_symmetry_space_group_name_H-M "C M M A"
_symmetry_group_IT_number 67
_symmetry_cell_setting 'orthorhombic'
loop_
_space_group_symop_operation_xyz
x,y,z
-x,1/2-y,z
x,-y,-z
-x,1/2+y,-z
-x,-y,-z
x,1/2+y,-z
-x,y,z
x,1/2-y,z
1/2+x,1/2+y,z
1/2-x,-y,z
1/2+x,1/2-y,-z
1/2-x,y,-z
1/2-x,1/2-y,-z
1/2+x,y,-z
1/2-x,1/2+y,z
1/2+x,-y,z
loop_
_atom_site_type_symbol
_atom_site_label
_atom_site_fract_x
_atom_site_fract_y
_atom_site_fract_z
Si Si1 0.681788 0.452809 0.236865
Si Si2 0.180368 0.203211 0.095639
Si Si3 0.682851 0.048107 0.586824
Si Si4 0.819610 0.617272 0.095426
O O1 0.500000 0.456521 0.250379
O O2 0.750000 0.500000 0.217668
O O3 0.756264 0.430551 0.323456
O O4 0.727512 0.422915 0.155597
O O5 0.214939 0.250000 0.142092
O O6 0.256888 0.161502 0.141947
O O7 0.000000 0.195192 0.089194
O O8 0.250000 0.204870 0.000000
O O9 0.500000 0.048013 0.583641
O O10 0.750000 0.072007 0.500000
O O11 0.750000 0.000000 0.588026
O O12 0.000000 0.621512 0.085800
O O13 0.750000 0.609465 0.000000
#
# Coordination Sequence:
#
# PCOD8278036 Si02
#       4
#    16  16  16  16
#     4  10  20  32  44  61  84 113 148 181 213 249
#     4   9  16  26  42  62  82 105 135 172 214 257
#     4  10  17  27  44  63  83 107 135 172 215 256
#     4  10  20  31  44  61  84 114 147 181 213 250
#
# _framework density 15.565472
#
# number of rings (size 3 to 8) (size 9 to 14) (size 15 to 20)
#    0.000    2.250    0.000    8.250    0.000    6.000 
#    0.000    2.500    0.000    0.000    0.000    0.000 
#    0.000    1.000    0.000    3.250    0.000    5.750 
#
# Total GULP energy -396463.207507 kJ/mol
# GULP energy per Si atom -12389.475235 kJ/mol
# Density = 1.553004 g / cm^3
# Si number density = 15.565472 Si / 1000 Ang^3
#
#
#
# Elastic Constant Matrix: (Units=GPa)
#
#
# Indices 1 2 3 4 5 6 
#
# 1 110.8741 48.7302 52.4706 0.0000 0.0000 0.0000
# 2 48.7302 98.8188 55.5284 0.0000 0.0000 0.0000
# 3 52.4706 55.5284 94.7408 0.0000 0.0000 0.0000
# 4 0.0000 0.0000 0.0000 0.7107 0.0000 0.0000
# 5 0.0000 0.0000 0.0000 0.0000 23.4005 0.0000
# 6 0.0000 0.0000 0.0000 0.0000 0.0000 16.4558
#
#
#
# Elastic Compliance Matrix: (Units=1/GPa)
#
#
# Indices 1 2 3 4 5 6 
#
# 1 0.012997 -0.003526 -0.005132 0.000000 0.000000 0.000000
# 2 -0.003526 0.016045 -0.007452 0.000000 0.000000 0.000000
# 3 -0.005132 -0.007452 0.017765 0.000000 0.000000 0.000000
# 4 0.000000 0.000000 0.000000 1.406990 0.000000 0.000000
# 5 0.000000 0.000000 0.000000 0.000000 0.042734 0.000000
# 6 0.000000 0.000000 0.000000 0.000000 0.000000 0.060769
#
#
# Mechanical properties :
#
#
# Convention : Reuss Voigt Hill
#
# Bulk Modulus (GPa) = 68.54467 68.65468 68.59967
# Shear Modulus (GPa) = 3.13601 17.96037 10.54819
#
# Velocity S-wave (km/s) = 1.42095 3.40054 2.60603
# Velocity P-wave (km/s) = 6.84281 7.72146 7.29538
#
# Compressibility (1/GPa) = 0.01458903
#
# Stress axis : x y z
#
# Youngs Moduli (GPa) = 76.93794 62.32318 56.29053
#
# Poissons Ratio (x) = 0.21973 0.28889
# Poissons Ratio (y) = 0.27125 0.41946
# Poissons Ratio (z) = 0.39485 0.46442
#
# Static dielectric constant tensor:
#      x y z
#    x 3.181450 0.000000 0.000000 
#    y 0.000000 3.335220 0.000000 
#    z 0.000000 0.000000 3.507540 
# 
# 
# High freq. dielectric constant tensor:
#      x y z
#    x 1.622160 0.000000 0.000000 
#    y 0.000000 1.572080 0.000000 
#    z 0.000000 0.000000 1.570800 
# 
# From -- ./inp_files/32022.got.cif
#   From: 2010.03.12/outbox.cif.g09.slc.cpg/sg67_17_cif.got.tgz:32022.got - 2010.04.10 22:41:39.
