data_PCOD8278523
_publ_section_title
;
Structure prediction by ZEFSAII (Michael W. Deem and Ramdas Pophale) SiO2 
 PCOD8278523
Probable space group: C M M A
;
_chemical_formula_sum "Si O2"
_cell_formula_units_Z 112
_cell_length_a 15.449680
_cell_length_b 18.728092
_cell_length_c 21.027780
_cell_angle_alpha 90.000000
_cell_angle_beta 90.000000
_cell_angle_gamma 90.000000
_cell_volume 6084.241546
_symmetry_space_group_name_H-M "C M M A"
_symmetry_group_IT_number 67
_symmetry_cell_setting 'orthorhombic'
loop_
_space_group_symop_operation_xyz
x,y,z
-x,1/2-y,z
x,-y,-z
-x,1/2+y,-z
-x,-y,-z
x,1/2+y,-z
-x,y,z
x,1/2-y,z
1/2+x,1/2+y,z
1/2-x,-y,z
1/2+x,1/2-y,-z
1/2-x,y,-z
1/2-x,1/2-y,-z
1/2+x,y,-z
1/2-x,1/2+y,z
1/2+x,-y,z
loop_
_atom_site_type_symbol
_atom_site_label
_atom_site_fract_x
_atom_site_fract_y
_atom_site_fract_z
Si Si1 0.404016 0.065917 0.960441
Si Si2 0.600017 0.411286 0.371667
Si Si3 0.897853 0.170041 0.502449
Si Si4 0.599926 0.921770 0.382950
Si Si5 0.267560 0.917157 0.143633
Si Si6 0.756297 0.084067 0.284881
Si Si7 0.831066 0.829530 0.047060
O O1 0.500000 0.043345 0.939630
O O2 0.355550 0.090126 0.896507
O O3 0.408574 0.132656 0.008932
O O4 0.359504 0.000000 0.000000
O O5 0.500000 0.396217 0.351626
O O6 0.630840 0.363443 0.430721
O O7 0.611171 0.493562 0.392607
O O8 0.664361 0.389456 0.314078
O O9 0.858412 0.250000 0.495244
O O10 0.866272 0.118435 0.445947
O O11 0.000000 0.174111 0.500206
O O12 0.500000 0.902947 0.366943
O O13 0.660997 0.892971 0.326637
O O14 0.273640 0.884017 0.214531
O O15 0.189930 0.874547 0.110111
O O16 0.250000 0.000000 0.148048
O O17 0.750000 0.000000 0.280331
O O18 0.858772 0.750000 0.066885
O O19 0.750000 0.829693 0.000000
#
# Coordination Sequence:
#
# PCOD8278523 Si02
#       7
#    16  16  16  16  16  16  16
#     4  10  19  31  52  82 105 130 170 212 258 306
#     4   9  17  32  51  70  96 130 170 212 256 307
#     4   9  17  30  50  74  98 127 165 214 270 313
#     4   9  17  31  50  71  98 130 168 210 256 310
#     4  10  18  33  53  72 103 138 168 209 253 301
#     4   9  19  32  49  75 101 134 174 208 252 302
#     4   9  18  32  52  74  98 133 169 203 249 302
#
# _framework density 18.408211000000001
#
# number of rings (size 3 to 8) (size 9 to 14) (size 15 to 20)
#    0.000    2.714    1.429    0.429    0.000    3.143 
#    0.000    7.857    0.000    0.000    0.000    2.000 
#    0.000    0.000    0.000    0.000    0.000    0.000 
#
# Total GULP energy -694009.752890 kJ/mol
# GULP energy per Si atom -12393.031302 kJ/mol
# Density = 1.836631 g / cm^3
# Si number density = 18.408211 Si / 1000 Ang^3
#
#
#
# Elastic Constant Matrix: (Units=GPa)
#
#
# Indices 1 2 3 4 5 6 
#
# 1 81.7315 17.4580 58.4136 0.0000 0.0000 0.0000
# 2 17.4580 81.0138 44.1380 0.0000 0.0000 0.0000
# 3 58.4136 44.1380 160.7977 0.0000 0.0000 0.0000
# 4 0.0000 0.0000 0.0000 -37.3051 0.0000 0.0000
# 5 0.0000 0.0000 0.0000 0.0000 20.9426 0.0000
# 6 0.0000 0.0000 0.0000 0.0000 0.0000 10.3346
#
#
#
# Elastic Compliance Matrix: (Units=1/GPa)
#
#
# Indices 1 2 3 4 5 6 
#
# 1 0.016534 -0.000342 -0.005913 0.000000 0.000000 0.000000
# 2 -0.000342 0.014521 -0.003862 0.000000 0.000000 0.000000
# 3 -0.005913 -0.003862 0.009427 0.000000 0.000000 0.000000
# 4 0.000000 0.000000 0.000000 -0.026806 0.000000 0.000000
# 5 0.000000 0.000000 0.000000 0.000000 0.047750 0.000000
# 6 0.000000 0.000000 0.000000 0.000000 0.000000 0.096762
#
#
# Mechanical properties :
#
#
# Convention : Reuss Voigt Hill
#
# Bulk Modulus (GPa) = 49.38307 62.61804 56.00056
# Shear Modulus (GPa) = 27.00222 12.36332 19.68277
#
# Velocity S-wave (km/s) = 3.83411 2.59437 3.27347
# Velocity P-wave (km/s) = 6.81802 6.56236 6.69141
#
# Compressibility (1/GPa) = 0.02024985
#
# Stress axis : x y z
#
# Youngs Moduli (GPa) = 60.48187 68.86470 106.07910
#
# Poissons Ratio (x) = 0.02353 0.62720
# Poissons Ratio (y) = 0.02067 0.40966
# Poissons Ratio (z) = 0.35760 0.26595
#
# Static dielectric constant tensor:
#      x y z
#    x 3.242410 0.000000 0.000000 
#    y 0.000000 3.442950 0.000000 
#    z 0.000000 0.000000 3.665840 
# 
# 
# High freq. dielectric constant tensor:
#      x y z
#    x 1.700570 0.000000 0.000000 
#    y 0.000000 1.697010 0.000000 
#    z 0.000000 0.000000 1.707080 
# 
# From -- ./inp_files/34401.got.cif
#   From: 2010.03.12/outbox.cif.g09.slc.cpg/sg67_18_cif.got.tgz:34401.got - 2010.04.10 22:41:39.
