data_PCOD8278705
_publ_section_title
;
Structure prediction by ZEFSAII (Michael W. Deem and Ramdas Pophale) SiO2 
 PCOD8278705
Probable space group: C M M A
;
_chemical_formula_sum "Si O2"
_cell_formula_units_Z 72
_cell_length_a 7.559653
_cell_length_b 25.693830
_cell_length_c 22.678835
_cell_angle_alpha 90.000000
_cell_angle_beta 90.000000
_cell_angle_gamma 90.000000
_cell_volume 4405.056152
_symmetry_space_group_name_H-M "C M M A"
_symmetry_group_IT_number 67
_symmetry_cell_setting 'orthorhombic'
loop_
_space_group_symop_operation_xyz
x,y,z
-x,1/2-y,z
x,-y,-z
-x,1/2+y,-z
-x,-y,-z
x,1/2+y,-z
-x,y,z
x,1/2-y,z
1/2+x,1/2+y,z
1/2-x,-y,z
1/2+x,1/2-y,-z
1/2-x,y,-z
1/2-x,1/2-y,-z
1/2+x,y,-z
1/2-x,1/2+y,z
1/2+x,-y,z
loop_
_atom_site_type_symbol
_atom_site_label
_atom_site_fract_x
_atom_site_fract_y
_atom_site_fract_z
Si Si1 0.500000 0.130222 0.273460
Si Si2 0.500000 0.811087 0.607715
Si Si3 0.196481 0.688253 0.936287
Si Si4 0.000000 0.188160 0.849415
Si Si5 0.297470 0.382521 0.563955
Si Si6 0.297064 0.059433 0.680715
O O1 0.500000 0.173981 0.323709
O O2 0.500000 0.159365 0.212094
O O3 0.324900 0.094808 0.277699
O O4 0.500000 0.750000 0.600640
O O5 0.675332 0.832643 0.575999
O O6 0.205596 0.750000 0.940532
O O7 0.328814 0.669047 0.885692
O O8 0.000000 0.669063 0.919596
O O9 0.250000 0.664877 0.000000
O O10 0.000000 0.250000 0.839205
O O11 0.500000 0.363787 0.566875
O O12 0.250000 0.406331 0.500000
O O13 0.258614 0.427134 0.612215
O O14 0.500000 0.070704 0.697569
O O15 0.250000 0.000000 0.691663
#
# Coordination Sequence:
#
# PCOD8278705 Si02
#       6
#     8   8  16   8  16  16
#     4  10  21  36  51  74 102 129 170 206 242 299
#     4  10  21  36  51  67  98 139 170 204 241 281
#     4   9  15  25  43  69 101 137 172 202 236 277
#     4  10  19  30  48  73 106 144 171 198 237 284
#     4  10  20  34  50  75 102 122 161 208 249 306
#     4  10  20  35  56  75  95 127 158 205 267 308
#
# _framework density 16.344853000000001
#
# number of rings (size 3 to 8) (size 9 to 14) (size 15 to 20)
#    0.000    2.222    3.333    0.333    0.000    2.222 
#    0.000    2.222    0.000    4.000    0.000    0.000 
#    0.000    2.667    0.000    0.000    0.000    0.000 
#
# Total GULP energy -446375.543993 kJ/mol
# GULP energy per Si atom -12399.320666 kJ/mol
# Density = 1.630765 g / cm^3
# Si number density = 16.344853 Si / 1000 Ang^3
#
#
#
# Elastic Constant Matrix: (Units=GPa)
#
#
# Indices 1 2 3 4 5 6 
#
# 1 143.7287 27.4658 54.6347 0.0000 0.0000 0.0000
# 2 27.4658 51.1578 26.5193 0.0000 0.0000 0.0000
# 3 54.6347 26.5193 121.2632 0.0000 0.0000 0.0000
# 4 0.0000 0.0000 0.0000 17.0772 0.0000 0.0000
# 5 0.0000 0.0000 0.0000 0.0000 22.3510 0.0000
# 6 0.0000 0.0000 0.0000 0.0000 0.0000 16.3115
#
#
#
# Elastic Compliance Matrix: (Units=1/GPa)
#
#
# Indices 1 2 3 4 5 6 
#
# 1 0.008787 -0.003006 -0.003302 0.000000 0.000000 0.000000
# 2 -0.003006 0.023075 -0.003692 0.000000 0.000000 0.000000
# 3 -0.003302 -0.003692 0.010541 0.000000 0.000000 0.000000
# 4 0.000000 0.000000 0.000000 0.058558 0.000000 0.000000
# 5 0.000000 0.000000 0.000000 0.000000 0.044741 0.000000
# 6 0.000000 0.000000 0.000000 0.000000 0.000000 0.061306
#
#
# Mechanical properties :
#
#
# Convention : Reuss Voigt Hill
#
# Bulk Modulus (GPa) = 44.63426 59.26547 51.94987
# Shear Modulus (GPa) = 21.32415 24.98325 23.15370
#
# Velocity S-wave (km/s) = 3.61590 3.91386 3.76782
# Velocity P-wave (km/s) = 6.69329 7.53409 7.12610
#
# Compressibility (1/GPa) = 0.02240431
#
# Stress axis : x y z
#
# Youngs Moduli (GPa) = 113.80448 43.33670 94.86387
#
# Poissons Ratio (x) = 0.13028 0.31320
# Poissons Ratio (y) = 0.34211 0.35023
# Poissons Ratio (z) = 0.37573 0.16000
#
# Static dielectric constant tensor:
#      x y z
#    x 3.534860 0.000000 0.000000 
#    y 0.000000 2.663040 0.000000 
#    z 0.000000 0.000000 3.003560 
# 
# 
# High freq. dielectric constant tensor:
#      x y z
#    x 1.654140 0.000000 0.000000 
#    y 0.000000 1.583760 0.000000 
#    z 0.000000 0.000000 1.620070 
# 
# From -- ./inp_files/36850.got.cif
#   From: 2010.03.12/outbox.cif.g09.slc.cpg/sg67_19_cif.got.tgz:36850.got - 2010.04.10 22:41:39.
