data_PCOD8278253
_publ_section_title
;
Structure prediction by ZEFSAII (Michael W. Deem and Ramdas Pophale) SiO2 
 PCOD8278253
Probable space group: C M M A
;
_chemical_formula_sum "Si O2"
_cell_formula_units_Z 60
_cell_length_a 14.444793
_cell_length_b 15.876574
_cell_length_c 13.424454
_cell_angle_alpha 90.000000
_cell_angle_beta 90.000000
_cell_angle_gamma 90.000000
_cell_volume 3078.681384
_symmetry_space_group_name_H-M "C M M A"
_symmetry_group_IT_number 67
_symmetry_cell_setting 'orthorhombic'
loop_
_space_group_symop_operation_xyz
x,y,z
-x,1/2-y,z
x,-y,-z
-x,1/2+y,-z
-x,-y,-z
x,1/2+y,-z
-x,y,z
x,1/2-y,z
1/2+x,1/2+y,z
1/2-x,-y,z
1/2+x,1/2-y,-z
1/2-x,y,-z
1/2-x,1/2-y,-z
1/2+x,y,-z
1/2-x,1/2+y,z
1/2+x,-y,z
loop_
_atom_site_type_symbol
_atom_site_label
_atom_site_fract_x
_atom_site_fract_y
_atom_site_fract_z
Si Si1 0.195636 0.750000 0.898293
Si Si2 0.500000 0.408510 0.714289
Si Si3 0.000000 0.650410 0.491476
Si Si4 0.500000 0.250000 0.849777
Si Si5 0.701627 0.920505 0.224682
Si Si6 0.191642 0.155838 0.599299
O O1 0.086797 0.750000 0.924001
O O2 0.215692 0.664529 0.838181
O O3 0.250000 0.750000 0.000000
O O4 0.500000 0.399498 0.595314
O O5 0.500000 0.321220 0.768861
O O6 0.403879 0.450280 0.751808
O O7 0.088430 0.623404 0.426044
O O8 0.000000 0.750000 0.515163
O O9 0.758050 0.907672 0.326689
O O10 0.750000 0.000000 0.168926
O O11 0.187237 0.250000 0.645861
O O12 0.250000 0.159066 0.500000
#
# Coordination Sequence:
#
# PCOD8278253 Si02
#       6
#     8   8   8   4  16  16
#     4  10  22  44  68  91 115 148 198 255 309 363
#     4  10  18  35  57  85 120 158 210 244 273 343
#     4  10  18  29  54  85 121 167 206 247 279 342
#     4   8  18  34  66  92 106 146 202 244 296 354
#     4  11  23  39  62  89 122 160 199 248 300 358
#     4  10  19  32  53  82 121 160 198 238 290 336
#
# _framework density 19.488864
#
# number of rings (size 3 to 8) (size 9 to 14) (size 15 to 20)
#    0.000    1.867    4.667    0.000    0.000    2.133 
#    0.000    4.000    0.000    4.800    0.000    0.000 
#    0.000    0.000    0.000    0.000    0.000    0.000 
#
# Total GULP energy -371711.518586 kJ/mol
# GULP energy per Si atom -12390.383953 kJ/mol
# Density = 1.944451 g / cm^3
# Si number density = 19.488864 Si / 1000 Ang^3
#
#
#
# Elastic Constant Matrix: (Units=GPa)
#
#
# Indices 1 2 3 4 5 6 
#
# 1 179.9839 53.0494 51.2798 0.0000 0.0000 0.0000
# 2 53.0494 98.7245 28.9607 0.0000 0.0000 0.0000
# 3 51.2798 28.9607 73.2228 0.0000 0.0000 0.0000
# 4 0.0000 0.0000 0.0000 7.3863 0.0000 0.0000
# 5 0.0000 0.0000 0.0000 0.0000 29.1982 0.0000
# 6 0.0000 0.0000 0.0000 0.0000 0.0000 31.1744
#
#
#
# Elastic Compliance Matrix: (Units=1/GPa)
#
#
# Indices 1 2 3 4 5 6 
#
# 1 0.007589 -0.002849 -0.004188 0.000000 0.000000 0.000000
# 2 -0.002849 0.012529 -0.002960 0.000000 0.000000 0.000000
# 3 -0.004188 -0.002960 0.017760 0.000000 0.000000 0.000000
# 4 0.000000 0.000000 0.000000 0.135386 0.000000 0.000000
# 5 0.000000 0.000000 0.000000 0.000000 0.034249 0.000000
# 6 0.000000 0.000000 0.000000 0.000000 0.000000 0.032078
#
#
# Mechanical properties :
#
#
# Convention : Reuss Voigt Hill
#
# Bulk Modulus (GPa) = 55.91558 68.72345 62.31951
# Shear Modulus (GPa) = 18.82918 28.12787 23.47852
#
# Velocity S-wave (km/s) = 3.11167 3.80317 3.47467
# Velocity P-wave (km/s) = 6.45471 7.39087 6.93860
#
# Compressibility (1/GPa) = 0.01788410
#
# Stress axis : x y z
#
# Youngs Moduli (GPa) = 131.76802 79.81750 56.30506
#
# Poissons Ratio (x) = 0.22744 0.23580
# Poissons Ratio (y) = 0.37547 0.16664
# Poissons Ratio (z) = 0.55182 0.23623
#
# Static dielectric constant tensor:
#      x y z
#    x 4.613710 0.000000 0.000000 
#    y 0.000000 3.584740 0.000000 
#    z 0.000000 0.000000 3.102420 
# 
# 
# High freq. dielectric constant tensor:
#      x y z
#    x 1.781740 0.000000 0.000000 
#    y 0.000000 1.753530 0.000000 
#    z 0.000000 0.000000 1.716580 
# 
# From -- ./inp_files/17458.got.cif
#   From: 2010.03.12/outbox.cif.g09.slc.cpg/sg67_9_cif.got.tgz:17458.got - 2010.04.10 22:41:39.
