data_PCOD8278219
_publ_section_title
;
Structure prediction by ZEFSAII (Michael W. Deem and Ramdas Pophale) SiO2 
 PCOD8278219
Probable space group: C M M A
;
_chemical_formula_sum "Si O2"
_cell_formula_units_Z 96
_cell_length_a 27.515420
_cell_length_b 8.649054
_cell_length_c 23.905392
_cell_angle_alpha 90.000000
_cell_angle_beta 90.000000
_cell_angle_gamma 90.000000
_cell_volume 5689.061447
_symmetry_space_group_name_H-M "C M M A"
_symmetry_group_IT_number 67
_symmetry_cell_setting 'orthorhombic'
loop_
_space_group_symop_operation_xyz
x,y,z
-x,1/2-y,z
x,-y,-z
-x,1/2+y,-z
-x,-y,-z
x,1/2+y,-z
-x,y,z
x,1/2-y,z
1/2+x,1/2+y,z
1/2-x,-y,z
1/2+x,1/2-y,-z
1/2-x,y,-z
1/2-x,1/2-y,-z
1/2+x,y,-z
1/2-x,1/2+y,z
1/2+x,-y,z
loop_
_atom_site_type_symbol
_atom_site_label
_atom_site_fract_x
_atom_site_fract_y
_atom_site_fract_z
Si Si1 0.943768 0.569087 0.059654
Si Si2 0.698065 0.932827 0.779091
Si Si3 0.303398 0.565705 0.557841
Si Si4 0.146697 0.432213 0.668440
Si Si5 0.445376 0.931092 0.732737
Si Si6 0.607207 0.568502 0.164804
O O1 0.932333 0.750000 0.060610
O O2 0.910943 0.482485 0.104459
O O3 0.000000 0.535672 0.073219
O O4 0.929299 0.500000 0.000000
O O5 0.700504 0.750000 0.780125
O O6 0.681917 0.994623 0.717648
O O7 0.750000 0.000000 0.795417
O O8 0.658856 0.987898 0.824307
O O9 0.325345 0.500000 0.500000
O O10 0.301230 0.750000 0.555038
O O11 0.250000 0.500000 0.568028
O O12 0.337220 0.501719 0.608254
O O13 0.151559 0.250000 0.665889
O O14 0.091140 0.480889 0.682656
O O15 0.500000 0.972349 0.713769
O O16 0.439313 0.750000 0.746024
O O17 0.432725 0.020432 0.789300
O O18 0.614782 0.750000 0.166579
#
# Coordination Sequence:
#
# PCOD8278219 Si02
#       6
#    16  16  16  16  16  16
#     4  10  20  34  52  74 100 130 163 200 241 283
#     4  10  19  33  51  72  97 125 159 197 239 284
#     4  10  18  29  44  64  90 118 151 189 232 281
#     4   8  16  29  46  68  93 121 154 192 233 281
#     4   9  17  31  50  70  93 123 158 196 238 282
#     4  11  21  32  48  72 101 131 161 194 235 282
#
# _framework density 16.874487999999999
#
# number of rings (size 3 to 8) (size 9 to 14) (size 15 to 20)
#    0.000    2.333    0.000    5.500    0.000    3.333 
#    0.000    7.500    0.000    1.000    0.000    3.500 
#    0.000    0.000    0.000    0.000    0.000    0.667 
#
# Total GULP energy -595156.480892 kJ/mol
# GULP energy per Si atom -12399.093352 kJ/mol
# Density = 1.683608 g / cm^3
# Si number density = 16.874488 Si / 1000 Ang^3
#
#
#
# Elastic Constant Matrix: (Units=GPa)
#
#
# Indices 1 2 3 4 5 6 
#
# 1 119.0630 34.5643 64.3179 0.0000 0.0000 0.0000
# 2 34.5643 72.7393 33.4669 0.0000 0.0000 0.0000
# 3 64.3179 33.4669 123.4526 0.0000 0.0000 0.0000
# 4 0.0000 0.0000 0.0000 22.1634 0.0000 0.0000
# 5 0.0000 0.0000 0.0000 0.0000 32.7311 0.0000
# 6 0.0000 0.0000 0.0000 0.0000 0.0000 22.7961
#
#
#
# Elastic Compliance Matrix: (Units=1/GPa)
#
#
# Indices 1 2 3 4 5 6 
#
# 1 0.012354 -0.003324 -0.005535 0.000000 0.000000 0.000000
# 2 -0.003324 0.016601 -0.002769 0.000000 0.000000 0.000000
# 3 -0.005535 -0.002769 0.011735 0.000000 0.000000 0.000000
# 4 0.000000 0.000000 0.000000 0.045119 0.000000 0.000000
# 5 0.000000 0.000000 0.000000 0.000000 0.030552 0.000000
# 6 0.000000 0.000000 0.000000 0.000000 0.000000 0.043867
#
#
# Mechanical properties :
#
#
# Convention : Reuss Voigt Hill
#
# Bulk Modulus (GPa) = 57.35851 64.43922 60.89886
# Shear Modulus (GPa) = 26.41380 27.73183 27.07282
#
# Velocity S-wave (km/s) = 3.96069 4.05831 4.00980
# Velocity P-wave (km/s) = 7.41493 7.76080 7.58984
#
# Compressibility (1/GPa) = 0.01743421
#
# Stress axis : x y z
#
# Youngs Moduli (GPa) = 80.94572 60.23751 85.21711
#
# Poissons Ratio (x) = 0.20021 0.47170
# Poissons Ratio (y) = 0.26903 0.23595
# Poissons Ratio (z) = 0.44806 0.16679
#
# Static dielectric constant tensor:
#      x y z
#    x 3.228190 0.000000 0.000000 
#    y 0.000000 3.120050 0.000000 
#    z 0.000000 0.000000 3.342470 
# 
# 
# High freq. dielectric constant tensor:
#      x y z
#    x 1.642230 0.000000 0.000000 
#    y 0.000000 1.650240 0.000000 
#    z 0.000000 0.000000 1.643650 
# 
# From -- ./inp_files/42700.got.cif
#   From: 2010.03.12/outbox.cif.g09.slc.cpg/sg67_22_cif.got.tgz:42700.got - 2010.04.10 22:41:39.
