data_PCOD8278200
_publ_section_title
;
Structure prediction by ZEFSAII (Michael W. Deem and Ramdas Pophale) SiO2 
 PCOD8278200
Probable space group: C M M A
;
_chemical_formula_sum "Si O2"
_cell_formula_units_Z 112
_cell_length_a 10.157005
_cell_length_b 18.701217
_cell_length_c 34.690868
_cell_angle_alpha 90.000000
_cell_angle_beta 90.000000
_cell_angle_gamma 90.000000
_cell_volume 6589.473295
_symmetry_space_group_name_H-M "C M M A"
_symmetry_group_IT_number 67
_symmetry_cell_setting 'orthorhombic'
loop_
_space_group_symop_operation_xyz
x,y,z
-x,1/2-y,z
x,-y,-z
-x,1/2+y,-z
-x,-y,-z
x,1/2+y,-z
-x,y,z
x,1/2-y,z
1/2+x,1/2+y,z
1/2-x,-y,z
1/2+x,1/2-y,-z
1/2-x,y,-z
1/2-x,1/2-y,-z
1/2+x,y,-z
1/2-x,1/2+y,z
1/2+x,-y,z
loop_
_atom_site_type_symbol
_atom_site_label
_atom_site_fract_x
_atom_site_fract_y
_atom_site_fract_z
Si Si1 0.647465 0.164828 0.743219
Si Si2 0.152241 0.932743 0.394154
Si Si3 0.344933 0.827499 0.173052
Si Si4 0.650536 0.831864 0.534022
Si Si5 0.847514 0.441025 0.111758
Si Si6 0.150887 0.332998 0.678394
Si Si7 0.639938 0.575525 0.022767
O O1 0.500000 0.136605 0.732690
O O2 0.645025 0.250000 0.745108
O O3 0.694168 0.136932 0.785623
O O4 0.752846 0.138182 0.711904
O O5 0.182700 0.885691 0.431605
O O6 0.181345 0.881311 0.358349
O O7 0.000000 0.958989 0.393906
O O8 0.250000 0.000000 0.393038
O O9 0.500000 0.817871 0.174075
O O10 0.276751 0.750000 0.168258
O O11 0.303869 0.871961 0.135676
O O12 0.500000 0.841734 0.519685
O O13 0.672947 0.750000 0.547836
O O14 0.750000 0.852035 0.500000
O O15 0.750000 0.500000 0.128497
O O16 0.817327 0.431388 0.066802
O O17 0.000000 0.462058 0.118660
O O18 0.179749 0.250000 0.668154
O O19 0.000000 0.342029 0.692108
O O20 0.500000 0.615474 0.020556
O O21 0.629846 0.500000 0.000000
O O22 0.750000 0.621948 0.000000
#
# Coordination Sequence:
#
# PCOD8278200 Si02
#       7
#    16  16  16  16  16  16  16
#     4   8  14  27  48  71  92 117 152 193 233 273
#     4  10  21  35  50  71 101 134 164 196 239 290
#     4   8  15  29  48  68  91 120 154 189 226 274
#     4   9  18  34  55  76  98 127 165 207 247 285
#     4  10  18  28  45  68  90 115 149 187 226 268
#     4   9  17  31  52  74  94 120 158 200 237 277
#     4   9  15  24  39  61  84 109 142 182 222 259
#
# _framework density 16.996805999999999
#
# number of rings (size 3 to 8) (size 9 to 14) (size 15 to 20)
#    0.000    3.000    1.429    1.286    0.000    3.143 
#    0.000    2.857    0.000    9.429    0.000    0.000 
#    0.000    0.000    0.000    0.000    0.000    0.000 
#
# Total GULP energy -693741.269088 kJ/mol
# GULP energy per Si atom -12388.236948 kJ/mol
# Density = 1.695812 g / cm^3
# Si number density = 16.996806 Si / 1000 Ang^3
#
#
#
# Elastic Constant Matrix: (Units=GPa)
#
#
# Indices 1 2 3 4 5 6 
#
# 1 98.3665 48.7441 69.0374 0.0000 0.0000 0.0000
# 2 48.7441 70.4584 61.6676 0.0000 0.0000 0.0000
# 3 69.0374 61.6676 144.0459 0.0000 0.0000 0.0000
# 4 0.0000 0.0000 0.0000 32.1331 0.0000 0.0000
# 5 0.0000 0.0000 0.0000 0.0000 -80.0058 0.0000
# 6 0.0000 0.0000 0.0000 0.0000 0.0000 20.8561
#
#
#
# Elastic Compliance Matrix: (Units=1/GPa)
#
#
# Indices 1 2 3 4 5 6 
#
# 1 0.017568 -0.007651 -0.005144 0.000000 0.000000 0.000000
# 2 -0.007651 0.026030 -0.007477 0.000000 0.000000 0.000000
# 3 -0.005144 -0.007477 0.012609 0.000000 0.000000 0.000000
# 4 0.000000 0.000000 0.000000 0.031121 0.000000 0.000000
# 5 0.000000 0.000000 0.000000 0.000000 -0.012499 0.000000
# 6 0.000000 0.000000 0.000000 0.000000 0.000000 0.047948
#
#
# Mechanical properties :
#
#
# Convention : Reuss Voigt Hill
#
# Bulk Modulus (GPa) = 63.84870 74.64100 69.24485
# Shear Modulus (GPa) = 29.66644 3.49146 16.57895
#
# Velocity S-wave (km/s) = 4.18235 1.43480 3.12655
# Velocity P-wave (km/s) = 7.80829 6.83776 7.33908
#
# Compressibility (1/GPa) = 0.01566203
#
# Stress axis : x y z
#
# Youngs Moduli (GPa) = 56.92156 38.41744 79.31135
#
# Poissons Ratio (x) = 0.29395 0.40800
# Poissons Ratio (y) = 0.43553 0.59298
# Poissons Ratio (z) = 0.29282 0.28723
#
# Static dielectric constant tensor:
#      x y z
#    x 3.934610 0.000000 0.000000 
#    y 0.000000 3.689750 0.000000 
#    z 0.000000 0.000000 3.356050 
# 
# 
# High freq. dielectric constant tensor:
#      x y z
#    x 1.654970 0.000000 0.000000 
#    y 0.000000 1.615510 0.000000 
#    z 0.000000 0.000000 1.665220 
# 
# From -- ./inp_files/45596.got.cif
#   From: 2010.03.12/outbox.cif.g09.slc.cpg/sg67_23_cif.got.tgz:45596.got - 2010.04.10 22:41:39.
