data_PCOD8278906
_publ_section_title
;
Structure prediction by ZEFSAII (Michael W. Deem and Ramdas Pophale) SiO2 
 PCOD8278906
Probable space group: C M M A
;
_chemical_formula_sum "Si O2"
_cell_formula_units_Z 104
_cell_length_a 8.796986
_cell_length_b 26.626773
_cell_length_c 24.246485
_cell_angle_alpha 90.000000
_cell_angle_beta 90.000000
_cell_angle_gamma 90.000000
_cell_volume 5679.383883
_symmetry_space_group_name_H-M "C M M A"
_symmetry_group_IT_number 67
_symmetry_cell_setting 'orthorhombic'
loop_
_space_group_symop_operation_xyz
x,y,z
-x,1/2-y,z
x,-y,-z
-x,1/2+y,-z
-x,-y,-z
x,1/2+y,-z
-x,y,z
x,1/2-y,z
1/2+x,1/2+y,z
1/2-x,-y,z
1/2+x,1/2-y,-z
1/2-x,y,-z
1/2-x,1/2-y,-z
1/2+x,y,-z
1/2-x,1/2+y,z
1/2+x,-y,z
loop_
_atom_site_type_symbol
_atom_site_label
_atom_site_fract_x
_atom_site_fract_y
_atom_site_fract_z
Si Si1 0.179236 0.550763 0.231993
Si Si2 0.320110 0.192484 0.056260
Si Si3 0.181756 0.250000 0.560357
Si Si4 0.319666 0.552544 0.640808
Si Si5 0.679659 0.653942 0.379097
Si Si6 0.678427 0.354028 0.167643
Si Si7 0.169145 0.693791 0.736767
O O1 0.250000 0.500000 0.208390
O O2 0.228270 0.559296 0.295231
O O3 0.246206 0.594378 0.192471
O O4 0.000000 0.548060 0.227174
O O5 0.500000 0.188674 0.052474
O O6 0.267817 0.250000 0.064909
O O7 0.254618 0.159886 0.107504
O O8 0.250000 0.170419 0.000000
O O9 0.250000 0.250000 0.500000
O O10 0.238164 0.198905 0.589023
O O11 0.000000 0.250000 0.559318
O O12 0.500000 0.551840 0.632603
O O13 0.250000 0.500000 0.618576
O O14 0.248606 0.599059 0.605703
O O15 0.500000 0.655986 0.391800
O O16 0.716289 0.659110 0.314254
O O17 0.500000 0.357367 0.162002
O O18 0.717728 0.311083 0.211828
O O19 0.176954 0.750000 0.713774
O O20 0.000000 0.680192 0.757401
#
# Coordination Sequence:
#
# PCOD8278906 Si02
#       7
#    16  16   8  16  16  16  16
#     4   9  18  30  46  70 102 135 172 214 261 320
#     4   9  18  32  49  68  93 126 166 212 262 315
#     4  12  26  44  66  90 118 158 201 240 281 332
#     4  10  19  33  53  82 115 153 194 233 283 338
#     4  11  21  37  58  84 119 154 189 235 281 331
#     4  10  19  32  49  72  99 132 172 216 264 322
#     4  10  20  32  47  74 110 143 172 211 267 324
#
# _framework density 18.311845000000002
#
# number of rings (size 3 to 8) (size 9 to 14) (size 15 to 20)
#    0.000    2.000    2.308    2.077    0.000    3.385 
#    0.000    1.538    0.000    0.923    0.000    6.462 
#    0.000    0.000    0.000    0.000    0.000    0.000 
#
# Total GULP energy -644612.231309 kJ/mol
# GULP energy per Si atom -12396.389064 kJ/mol
# Density = 1.827017 g / cm^3
# Si number density = 18.311845 Si / 1000 Ang^3
#
#
#
# Elastic Constant Matrix: (Units=GPa)
#
#
# Indices 1 2 3 4 5 6 
#
# 1 55.6486 47.4769 31.7851 0.0000 0.0000 0.0000
# 2 47.4769 138.1673 48.4388 0.0000 0.0000 0.0000
# 3 31.7851 48.4388 68.5841 0.0000 0.0000 0.0000
# 4 0.0000 0.0000 0.0000 11.6899 0.0000 0.0000
# 5 0.0000 0.0000 0.0000 0.0000 25.0571 0.0000
# 6 0.0000 0.0000 0.0000 0.0000 0.0000 31.8620
#
#
#
# Elastic Compliance Matrix: (Units=1/GPa)
#
#
# Indices 1 2 3 4 5 6 
#
# 1 0.028660 -0.006900 -0.008409 0.000000 0.000000 0.000000
# 2 -0.006900 0.011281 -0.004769 0.000000 0.000000 0.000000
# 3 -0.008409 -0.004769 0.021846 0.000000 0.000000 0.000000
# 4 0.000000 0.000000 0.000000 0.085544 0.000000 0.000000
# 5 0.000000 0.000000 0.000000 0.000000 0.039909 0.000000
# 6 0.000000 0.000000 0.000000 0.000000 0.000000 0.031385
#
#
# Mechanical properties :
#
#
# Convention : Reuss Voigt Hill
#
# Bulk Modulus (GPa) = 46.23251 57.53351 51.88301
# Shear Modulus (GPa) = 18.79762 22.70174 20.74968
#
# Velocity S-wave (km/s) = 3.20742 3.52480 3.36985
# Velocity P-wave (km/s) = 6.24651 6.93200 6.59816
#
# Compressibility (1/GPa) = 0.02162980
#
# Stress axis : x y z
#
# Youngs Moduli (GPa) = 34.89229 88.64771 45.77452
#
# Poissons Ratio (x) = 0.61167 0.38492
# Poissons Ratio (y) = 0.24076 0.21832
# Poissons Ratio (z) = 0.29341 0.42279
#
# Static dielectric constant tensor:
#      x y z
#    x 3.313140 0.000000 0.000000 
#    y 0.000000 3.684450 0.000000 
#    z 0.000000 0.000000 3.410220 
# 
# 
# High freq. dielectric constant tensor:
#      x y z
#    x 1.707730 0.000000 0.000000 
#    y 0.000000 1.714980 0.000000 
#    z 0.000000 0.000000 1.681900 
# 
# From -- ./inp_files/40998.got.cif
#   From: 2010.03.12/outbox.cif.g09.slc.cpg/sg67_21_cif.got.tgz:40998.got - 2010.04.10 22:41:39.
