data_PCOD8278308
_publ_section_title
;
Structure prediction by ZEFSAII (Michael W. Deem and Ramdas Pophale) SiO2 
 PCOD8278308
Probable space group: C M M A
;
_chemical_formula_sum "Si O2"
_cell_formula_units_Z 80
_cell_length_a 8.587402
_cell_length_b 26.032943
_cell_length_c 19.210267
_cell_angle_alpha 90.000000
_cell_angle_beta 90.000000
_cell_angle_gamma 90.000000
_cell_volume 4294.557901
_symmetry_space_group_name_H-M "C M M A"
_symmetry_group_IT_number 67
_symmetry_cell_setting 'orthorhombic'
loop_
_space_group_symop_operation_xyz
x,y,z
-x,1/2-y,z
x,-y,-z
-x,1/2+y,-z
-x,-y,-z
x,1/2+y,-z
-x,y,z
x,1/2-y,z
1/2+x,1/2+y,z
1/2-x,-y,z
1/2+x,1/2-y,-z
1/2-x,y,-z
1/2-x,1/2-y,-z
1/2+x,y,-z
1/2-x,1/2+y,z
1/2+x,-y,z
loop_
_atom_site_type_symbol
_atom_site_label
_atom_site_fract_x
_atom_site_fract_y
_atom_site_fract_z
Si Si1 0.815447 0.554443 0.667899
Si Si2 0.684951 0.645515 0.077084
Si Si3 0.316993 0.946553 0.172910
Si Si4 0.316070 0.854597 0.576977
Si Si5 0.184685 0.250000 0.422557
Si Si6 0.184662 0.750000 0.077424
O O1 0.750000 0.500000 0.641311
O O2 0.764759 0.563137 0.747797
O O3 0.733455 0.598084 0.623787
O O4 0.000000 0.556515 0.657450
O O5 0.500000 0.648347 0.074112
O O6 0.747042 0.599332 0.125071
O O7 0.750220 0.697967 0.112584
O O8 0.750000 0.636962 0.000000
O O9 0.500000 0.949830 0.167419
O O10 0.250000 0.000000 0.144240
O O11 0.500000 0.850365 0.572506
O O12 0.250000 0.862928 0.500000
O O13 0.248456 0.802330 0.612647
O O14 0.250000 0.250000 0.500000
O O15 0.000000 0.250000 0.421142
O O16 0.000000 0.750000 0.078202
O O17 0.250000 0.750000 0.000000
#
# Coordination Sequence:
#
# PCOD8278308 Si02
#       6
#    16  16  16  16   8   8
#     4  10  20  37  56  77 103 137 175 215 261 311
#     4  10  19  33  52  77 104 135 170 210 254 303
#     4   9  20  36  55  75 102 137 173 210 257 307
#     4  11  21  35  55  81 108 138 173 214 257 306
#     4  10  18  32  53  78 107 140 172 210 256 306
#     4  10  18  30  49  74 101 134 168 208 256 304
#
# _framework density 18.628229000000001
#
# number of rings (size 3 to 8) (size 9 to 14) (size 15 to 20)
#    0.000    2.000    0.000    7.200    0.000    3.200 
#    0.000    5.000    0.000    2.400    0.000    0.000 
#    0.000    0.000    0.000    0.000    0.000    0.000 
#
# Total GULP energy -495952.685183 kJ/mol
# GULP energy per Si atom -12398.817130 kJ/mol
# Density = 1.858583 g / cm^3
# Si number density = 18.628229 Si / 1000 Ang^3
#
#
#
# Elastic Constant Matrix: (Units=GPa)
#
#
# Indices 1 2 3 4 5 6 
#
# 1 125.2909 67.5128 33.5767 0.0000 0.0000 0.0000
# 2 67.5128 214.4291 76.7488 0.0000 0.0000 0.0000
# 3 33.5767 76.7488 62.0711 0.0000 0.0000 0.0000
# 4 0.0000 0.0000 0.0000 -21.2033 0.0000 0.0000
# 5 0.0000 0.0000 0.0000 0.0000 22.6032 0.0000
# 6 0.0000 0.0000 0.0000 0.0000 0.0000 38.5331
#
#
#
# Elastic Compliance Matrix: (Units=1/GPa)
#
#
# Indices 1 2 3 4 5 6 
#
# 1 0.009855 -0.002143 -0.002681 0.000000 0.000000 0.000000
# 2 -0.002143 0.008832 -0.009761 0.000000 0.000000 0.000000
# 3 -0.002681 -0.009761 0.029630 0.000000 0.000000 0.000000
# 4 0.000000 0.000000 0.000000 -0.047162 0.000000 0.000000
# 5 0.000000 0.000000 0.000000 0.000000 0.044241 0.000000
# 6 0.000000 0.000000 0.000000 0.000000 0.000000 0.025952
#
#
# Mechanical properties :
#
#
# Convention : Reuss Voigt Hill
#
# Bulk Modulus (GPa) = 52.22894 84.16308 68.19601
# Shear Modulus (GPa) = 46.77259 22.91681 34.84470
#
# Velocity S-wave (km/s) = 5.01627 3.51125 4.32966
# Velocity P-wave (km/s) = 7.85169 7.85602 7.85385
#
# Compressibility (1/GPa) = 0.01914647
#
# Stress axis : x y z
#
# Youngs Moduli (GPa) = 101.47417 113.22337 33.74946
#
# Poissons Ratio (x) = 0.24267 0.09047
# Poissons Ratio (y) = 0.21748 0.32944
# Poissons Ratio (z) = 0.27203 1.10520
#
# Static dielectric constant tensor:
#      x y z
#    x 3.506220 0.000000 0.000000 
#    y 0.000000 4.122940 0.000000 
#    z 0.000000 0.000000 3.259600 
# 
# 
# High freq. dielectric constant tensor:
#      x y z
#    x 1.738250 0.000000 0.000000 
#    y 0.000000 1.748040 0.000000 
#    z 0.000000 0.000000 1.687480 
# 
# From -- ./inp_files/36903.got.cif
#   From: 2010.03.12/outbox.cif.g09.slc.cpg/sg67_19_cif.got.tgz:36903.got - 2010.04.10 22:41:39.
