data_PCOD8278573
_publ_section_title
;
Structure prediction by ZEFSAII (Michael W. Deem and Ramdas Pophale) SiO2 
 PCOD8278573
Probable space group: C M M A
;
_chemical_formula_sum "Si O2"
_cell_formula_units_Z 96
_cell_length_a 27.960640
_cell_length_b 15.275617
_cell_length_c 11.363816
_cell_angle_alpha 90.000000
_cell_angle_beta 90.000000
_cell_angle_gamma 90.000000
_cell_volume 4853.667950
_symmetry_space_group_name_H-M "C M M A"
_symmetry_group_IT_number 67
_symmetry_cell_setting 'orthorhombic'
loop_
_space_group_symop_operation_xyz
x,y,z
-x,1/2-y,z
x,-y,-z
-x,1/2+y,-z
-x,-y,-z
x,1/2+y,-z
-x,y,z
x,1/2-y,z
1/2+x,1/2+y,z
1/2-x,-y,z
1/2+x,1/2-y,-z
1/2-x,y,-z
1/2-x,1/2-y,-z
1/2+x,y,-z
1/2-x,1/2+y,z
1/2+x,-y,z
loop_
_atom_site_type_symbol
_atom_site_label
_atom_site_fract_x
_atom_site_fract_y
_atom_site_fract_z
Si Si1 0.500000 0.516719 0.360175
Si Si2 0.141556 0.649334 0.207815
Si Si3 0.843278 0.848371 0.765280
Si Si4 0.395076 0.993942 0.638327
Si Si5 0.746190 0.103617 0.133093
Si Si6 0.500000 0.854323 0.160939
Si Si7 0.091456 0.350316 0.022270
O O1 0.500000 0.500000 0.500000
O O2 0.550411 0.478272 0.314485
O O3 0.500000 0.613479 0.297837
O O4 0.128823 0.750000 0.233795
O O5 0.133321 0.591998 0.323488
O O6 0.196746 0.640797 0.178902
O O7 0.107522 0.609252 0.103496
O O8 0.855009 0.750000 0.718940
O O9 0.786454 0.860002 0.777744
O O10 0.862546 0.862475 0.896470
O O11 0.869428 0.917587 0.681663
O O12 0.394734 0.000000 0.500000
O O13 0.750000 0.000000 0.136592
O O14 0.750000 0.138880 0.000000
O O15 0.500000 0.750000 0.170340
O O16 0.545345 0.892071 0.086859
O O17 0.079093 0.250000 0.999054
#
# Coordination Sequence:
#
# PCOD8278573 Si02
#       7
#     8  16  16  16  16   8  16
#     4  10  22  41  61  87 123 162 209 262 298 353
#     4  11  23  41  63  90 129 168 202 250 315 372
#     4  11  21  37  62  92 124 159 201 255 309 363
#     4  11  25  44  63  88 123 163 216 262 300 362
#     4  11  21  35  62  96 128 163 203 247 306 379
#     4  10  18  35  61  93 126 162 207 257 315 374
#     4   9  19  33  57  91 124 155 196 250 308 372
#
# _framework density 19.778856000000001
#
# number of rings (size 3 to 8) (size 9 to 14) (size 15 to 20)
#    0.000    1.500    5.000    0.500    0.000    2.667 
#    0.000    6.250    0.000    2.000    0.000    0.000 
#    0.000    0.000    0.000    0.000    0.000    0.000 
#
# Total GULP energy -594657.307621 kJ/mol
# GULP energy per Si atom -12388.693909 kJ/mol
# Density = 1.973384 g / cm^3
# Si number density = 19.778856 Si / 1000 Ang^3
#
#
#
# Elastic Constant Matrix: (Units=GPa)
#
#
# Indices 1 2 3 4 5 6 
#
# 1 142.0244 36.8630 55.0816 0.0000 0.0000 0.0000
# 2 36.8630 101.8731 47.5728 0.0000 0.0000 0.0000
# 3 55.0816 47.5728 87.1702 0.0000 0.0000 0.0000
# 4 0.0000 0.0000 0.0000 19.6180 0.0000 0.0000
# 5 0.0000 0.0000 0.0000 0.0000 13.9383 0.0000
# 6 0.0000 0.0000 0.0000 0.0000 0.0000 17.4757
#
#
#
# Elastic Compliance Matrix: (Units=1/GPa)
#
#
# Indices 1 2 3 4 5 6 
#
# 1 0.009380 -0.000841 -0.005468 0.000000 0.000000 0.000000
# 2 -0.000841 0.013249 -0.006699 0.000000 0.000000 0.000000
# 3 -0.005468 -0.006699 0.018583 0.000000 0.000000 0.000000
# 4 0.000000 0.000000 0.000000 0.050973 0.000000 0.000000
# 5 0.000000 0.000000 0.000000 0.000000 0.071745 0.000000
# 6 0.000000 0.000000 0.000000 0.000000 0.000000 0.057222
#
#
# Mechanical properties :
#
#
# Convention : Reuss Voigt Hill
#
# Bulk Modulus (GPa) = 65.80850 67.78916 66.79883
# Shear Modulus (GPa) = 19.82284 22.97643 21.39963
#
# Velocity S-wave (km/s) = 3.16923 3.41202 3.29286
# Velocity P-wave (km/s) = 6.83640 7.06190 6.95007
#
# Compressibility (1/GPa) = 0.01519560
#
# Stress axis : x y z
#
# Youngs Moduli (GPa) = 106.60963 75.47891 53.81175
#
# Poissons Ratio (x) = 0.06344 0.29426
# Poissons Ratio (y) = 0.08961 0.36050
# Poissons Ratio (z) = 0.58298 0.50566
#
# Static dielectric constant tensor:
#      x y z
#    x 3.989200 0.000000 0.000000 
#    y 0.000000 3.552050 0.000000 
#    z 0.000000 0.000000 3.426980 
# 
# 
# High freq. dielectric constant tensor:
#      x y z
#    x 1.792740 0.000000 0.000000 
#    y 0.000000 1.761700 0.000000 
#    z 0.000000 0.000000 1.746970 
# 
# From -- ./inp_files/23755.got.cif
#   From: 2010.03.12/outbox.cif.g09.slc.cpg/sg67_12_cif.got.tgz:23755.got - 2010.04.10 22:41:39.
