data_PCOD8278558
_publ_section_title
;
Structure prediction by ZEFSAII (Michael W. Deem and Ramdas Pophale) SiO2 
 PCOD8278558
Probable space group: C M M A
;
_chemical_formula_sum "Si O2"
_cell_formula_units_Z 104
_cell_length_a 30.098245
_cell_length_b 9.042337
_cell_length_c 20.113150
_cell_angle_alpha 90.000000
_cell_angle_beta 90.000000
_cell_angle_gamma 90.000000
_cell_volume 5473.964219
_symmetry_space_group_name_H-M "C M M A"
_symmetry_group_IT_number 67
_symmetry_cell_setting 'orthorhombic'
loop_
_space_group_symop_operation_xyz
x,y,z
-x,1/2-y,z
x,-y,-z
-x,1/2+y,-z
-x,-y,-z
x,1/2+y,-z
-x,y,z
x,1/2-y,z
1/2+x,1/2+y,z
1/2-x,-y,z
1/2+x,1/2-y,-z
1/2-x,y,-z
1/2-x,1/2-y,-z
1/2+x,y,-z
1/2-x,1/2+y,z
1/2+x,-y,z
loop_
_atom_site_type_symbol
_atom_site_label
_atom_site_fract_x
_atom_site_fract_y
_atom_site_fract_z
Si Si1 0.670045 0.919699 0.569301
Si Si2 0.500000 0.916173 0.433211
Si Si3 0.450422 0.582066 0.778393
Si Si4 0.705901 0.423794 0.292374
Si Si5 0.204544 0.428248 0.071327
Si Si6 0.858708 0.074423 0.826008
Si Si7 0.074092 0.913939 0.370421
O O1 0.681489 0.750000 0.556530
O O2 0.698036 0.982215 0.631959
O O3 0.619729 0.940923 0.592147
O O4 0.680882 0.000000 0.500000
O O5 0.500000 0.750000 0.453373
O O6 0.500000 0.000000 0.500000
O O7 0.456897 0.953794 0.391876
O O8 0.500000 0.502518 0.781546
O O9 0.460016 0.750000 0.796781
O O10 0.411069 0.522685 0.826681
O O11 0.424826 0.572550 0.708480
O O12 0.713437 0.250000 0.293747
O O13 0.750000 0.500000 0.263554
O O14 0.664535 0.462683 0.244701
O O15 0.208493 0.250000 0.066953
O O16 0.250000 0.500000 0.100143
O O17 0.163998 0.475490 0.117844
O O18 0.195145 0.500000 0.000000
O O19 0.854511 0.250000 0.841186
O O20 0.055816 0.750000 0.389306
#
# Coordination Sequence:
#
# PCOD8278558 Si02
#       7
#    16   8  16  16  16  16  16
#     4  10  21  36  53  73  98 135 180 232 284 337
#     4  12  24  34  46  70 100 132 171 224 287 350
#     4   9  16  30  58  86 108 145 190 229 274 336
#     4  10  21  36  54  77 106 141 184 230 280 335
#     4  11  22  38  61  92 127 161 193 229 273 327
#     4  10  19  35  59  87 119 152 188 231 278 334
#     4  10  18  34  56  74  98 133 177 226 281 342
#
# _framework density 18.999027000000002
#
# number of rings (size 3 to 8) (size 9 to 14) (size 15 to 20)
#    0.000    1.846    2.308    3.462    0.000    4.615 
#    0.000    2.308    0.000    0.462    0.000    0.000 
#    0.000    0.000    0.000    0.000    0.000    0.000 
#
# Total GULP energy -644179.140171 kJ/mol
# GULP energy per Si atom -12388.060388 kJ/mol
# Density = 1.895578 g / cm^3
# Si number density = 18.999027 Si / 1000 Ang^3
#
#
#
# Elastic Constant Matrix: (Units=GPa)
#
#
# Indices 1 2 3 4 5 6 
#
# 1 113.3877 35.9785 46.7776 0.0000 0.0000 0.0000
# 2 35.9785 82.6568 33.9551 0.0000 0.0000 0.0000
# 3 46.7776 33.9551 76.8580 0.0000 0.0000 0.0000
# 4 0.0000 0.0000 0.0000 26.1679 0.0000 0.0000
# 5 0.0000 0.0000 0.0000 0.0000 24.8175 0.0000
# 6 0.0000 0.0000 0.0000 0.0000 0.0000 -28.7972
#
#
#
# Elastic Compliance Matrix: (Units=1/GPa)
#
#
# Indices 1 2 3 4 5 6 
#
# 1 0.012277 -0.002779 -0.006245 0.000000 0.000000 0.000000
# 2 -0.002779 0.015410 -0.005117 0.000000 0.000000 0.000000
# 3 -0.006245 -0.005117 0.019072 0.000000 0.000000 0.000000
# 4 0.000000 0.000000 0.000000 0.038215 0.000000 0.000000
# 5 0.000000 0.000000 0.000000 0.000000 0.040294 0.000000
# 6 0.000000 0.000000 0.000000 0.000000 0.000000 -0.034726
#
#
# Mechanical properties :
#
#
# Convention : Reuss Voigt Hill
#
# Bulk Modulus (GPa) = 54.11535 56.25833 55.18684
# Shear Modulus (GPa) = 40.00587 14.85039 27.42813
#
# Velocity S-wave (km/s) = 4.59375 2.79881 3.80367
# Velocity P-wave (km/s) = 7.52873 6.33403 6.95707
#
# Compressibility (1/GPa) = 0.01847904
#
# Stress axis : x y z
#
# Youngs Moduli (GPa) = 81.45196 64.89453 52.43268
#
# Poissons Ratio (x) = 0.18032 0.32742
# Poissons Ratio (y) = 0.22633 0.26828
# Poissons Ratio (z) = 0.50863 0.33204
#
# Static dielectric constant tensor:
#      x y z
#    x 3.969640 0.000000 0.000000 
#    y 0.000000 3.227700 0.000000 
#    z 0.000000 0.000000 3.727570 
# 
# 
# High freq. dielectric constant tensor:
#      x y z
#    x 1.748060 0.000000 0.000000 
#    y 0.000000 1.712210 0.000000 
#    z 0.000000 0.000000 1.726100 
# 
# From -- ./inp_files/40197.got.cif
#   From: 2010.03.12/outbox.cif.g09.slc.cpg/sg67_21_cif.got.tgz:40197.got - 2010.04.10 22:41:39.
