data_PCOD8278518
_publ_section_title
;
Structure prediction by ZEFSAII (Michael W. Deem and Ramdas Pophale) SiO2 
 PCOD8278518
Probable space group: C M M A
;
_chemical_formula_sum "Si O2"
_cell_formula_units_Z 96
_cell_length_a 17.456533
_cell_length_b 22.157565
_cell_length_c 13.731433
_cell_angle_alpha 90.000000
_cell_angle_beta 90.000000
_cell_angle_gamma 90.000000
_cell_volume 5311.239529
_symmetry_space_group_name_H-M "C M M A"
_symmetry_group_IT_number 67
_symmetry_cell_setting 'orthorhombic'
loop_
_space_group_symop_operation_xyz
x,y,z
-x,1/2-y,z
x,-y,-z
-x,1/2+y,-z
-x,-y,-z
x,1/2+y,-z
-x,y,z
x,1/2-y,z
1/2+x,1/2+y,z
1/2-x,-y,z
1/2+x,1/2-y,-z
1/2-x,y,-z
1/2-x,1/2-y,-z
1/2+x,y,-z
1/2-x,1/2+y,z
1/2+x,-y,z
loop_
_atom_site_type_symbol
_atom_site_label
_atom_site_fract_x
_atom_site_fract_y
_atom_site_fract_z
Si Si1 0.263428 0.430131 0.104934
Si Si2 0.850647 0.440471 0.633174
Si Si3 0.589725 0.750000 0.766422
Si Si4 0.587270 0.119518 0.188327
Si Si5 0.590254 0.873733 0.457184
Si Si6 0.685157 0.573419 0.303846
Si Si7 0.091111 0.250000 0.552012
O O1 0.250000 0.500000 0.092910
O O2 0.352678 0.420183 0.128619
O O3 0.205014 0.409496 0.191054
O O4 0.250000 0.397862 0.000000
O O5 0.906053 0.397845 0.697894
O O6 0.880575 0.430875 0.522917
O O7 0.762869 0.419627 0.635007
O O8 0.852869 0.507479 0.679713
O O9 0.500000 0.750000 0.746918
O O10 0.611775 0.810258 0.825700
O O11 0.628286 0.750000 0.659687
O O12 0.500000 0.108004 0.152478
O O13 0.500000 0.876521 0.448650
O O14 0.624797 0.879428 0.348290
O O15 0.620489 0.810184 0.498377
O O16 0.000000 0.250000 0.554052
#
# Coordination Sequence:
#
# PCOD8278518 Si02
#       7
#    16  16   8  16  16  16   8
#     4  10  20  40  60  76 106 142 174 227 292 324
#     4  10  18  33  51  74 111 141 171 209 264 316
#     4   9  16  30  54  81 113 140 175 229 270 302
#     4  10  18  32  58  86 107 136 181 227 268 319
#     4  11  21  32  50  74 108 147 182 213 251 314
#     4  10  20  35  49  76 105 145 171 213 272 328
#     4   9  18  32  46  70 107 147 178 213 258 300
#
# _framework density 18.074876
#
# number of rings (size 3 to 8) (size 9 to 14) (size 15 to 20)
#    0.000    2.000    5.000    1.500    0.000    3.333 
#    0.000    7.917    0.000    0.000    0.000    3.500 
#    0.000    0.000    0.000    0.000    0.000    0.000 
#
# Total GULP energy -594751.687977 kJ/mol
# GULP energy per Si atom -12390.660166 kJ/mol
# Density = 1.803374 g / cm^3
# Si number density = 18.074876 Si / 1000 Ang^3
#
#
#
# Elastic Constant Matrix: (Units=GPa)
#
#
# Indices 1 2 3 4 5 6 
#
# 1 77.3435 43.8260 45.1963 0.0000 0.0000 0.0000
# 2 43.8260 78.7917 24.1921 0.0000 0.0000 0.0000
# 3 45.1963 24.1921 116.0726 0.0000 0.0000 0.0000
# 4 0.0000 0.0000 0.0000 3.4176 0.0000 0.0000
# 5 0.0000 0.0000 0.0000 0.0000 11.5639 0.0000
# 6 0.0000 0.0000 0.0000 0.0000 0.0000 18.1134
#
#
#
# Elastic Compliance Matrix: (Units=1/GPa)
#
#
# Indices 1 2 3 4 5 6 
#
# 1 0.022887 -0.010677 -0.006686 0.000000 0.000000 0.000000
# 2 -0.010677 0.018541 0.000293 0.000000 0.000000 0.000000
# 3 -0.006686 0.000293 0.011158 0.000000 0.000000 0.000000
# 4 0.000000 0.000000 0.000000 0.292602 0.000000 0.000000
# 5 0.000000 0.000000 0.000000 0.000000 0.086476 0.000000
# 6 0.000000 0.000000 0.000000 0.000000 0.000000 0.055208
#
#
# Mechanical properties :
#
#
# Convention : Reuss Voigt Hill
#
# Bulk Modulus (GPa) = 54.21679 55.40406 54.81042
# Shear Modulus (GPa) = 9.48479 17.21855 13.35167
#
# Velocity S-wave (km/s) = 2.29323 3.08981 2.72083
# Velocity P-wave (km/s) = 6.08873 6.59153 6.34511
#
# Compressibility (1/GPa) = 0.01844447
#
# Stress axis : x y z
#
# Youngs Moduli (GPa) = 43.69368 53.93565 89.62459
#
# Poissons Ratio (x) = 0.57588 0.59925
# Poissons Ratio (y) = 0.46653 -0.02628
# Poissons Ratio (z) = 0.29214 -0.01581
#
# Static dielectric constant tensor:
#      x y z
#    x 3.187580 0.000000 0.000000 
#    y 0.000000 3.452780 0.000000 
#    z 0.000000 0.000000 3.652850 
# 
# 
# High freq. dielectric constant tensor:
#      x y z
#    x 1.687440 0.000000 0.000000 
#    y 0.000000 1.689400 0.000000 
#    z 0.000000 0.000000 1.679330 
# 
# From -- ./inp_files/27278.got.cif
#   From: 2010.03.12/outbox.cif.g09.slc.cpg/sg67_14_cif.got.tgz:27278.got - 2010.04.10 22:41:39.
