data_PCOD8278026
_publ_section_title
;
Structure prediction by ZEFSAII (Michael W. Deem and Ramdas Pophale) SiO2 
 PCOD8278026
Probable space group: C M M A
;
_chemical_formula_sum "Si O2"
_cell_formula_units_Z 56
_cell_length_a 19.556020
_cell_length_b 8.594677
_cell_length_c 19.739116
_cell_angle_alpha 90.000000
_cell_angle_beta 90.000000
_cell_angle_gamma 90.000000
_cell_volume 3317.704730
_symmetry_space_group_name_H-M "C M M A"
_symmetry_group_IT_number 67
_symmetry_cell_setting 'orthorhombic'
loop_
_space_group_symop_operation_xyz
x,y,z
-x,1/2-y,z
x,-y,-z
-x,1/2+y,-z
-x,-y,-z
x,1/2+y,-z
-x,y,z
x,1/2-y,z
1/2+x,1/2+y,z
1/2-x,-y,z
1/2+x,1/2-y,-z
1/2-x,y,-z
1/2-x,1/2-y,-z
1/2+x,y,-z
1/2-x,1/2+y,z
1/2+x,-y,z
loop_
_atom_site_type_symbol
_atom_site_label
_atom_site_fract_x
_atom_site_fract_y
_atom_site_fract_z
Si Si1 0.075541 0.573515 0.189567
Si Si2 0.675160 0.432365 0.704953
Si Si3 0.500000 0.934467 0.074772
Si Si4 0.826204 0.933881 0.432326
O O1 0.103297 0.750000 0.183961
O O2 0.127544 0.469164 0.231612
O O3 0.067579 0.498487 0.114320
O O4 0.000000 0.571532 0.224468
O O5 0.681608 0.250000 0.693949
O O6 0.750000 0.500000 0.719169
O O7 0.639851 0.507299 0.637649
O O8 0.500000 0.750000 0.073781
O O9 0.500000 0.000000 0.000000
O O10 0.826344 0.750000 0.435035
O O11 0.863926 0.000000 0.500000
O O12 0.750000 0.000000 0.431343
#
# Coordination Sequence:
#
# PCOD8278026 Si02
#       4
#    16  16   8  16
#     4   9  19  34  52  75 102 131 165 205 246 291
#     4  11  20  31  49  73 102 133 168 207 252 298
#     4  10  18  32  54  80 103 130 165 202 240 284
#     4  10  17  27  42  63  92 125 165 207 250 293
#
# _framework density 16.87914
#
# number of rings (size 3 to 8) (size 9 to 14) (size 15 to 20)
#    0.857    1.143    0.000    9.429    0.000    0.000 
#    0.000    0.000    0.000    1.714    0.000    6.000 
#    0.000    0.000    0.000    0.000    0.000    0.000 
#
# Total GULP energy -346957.147254 kJ/mol
# GULP energy per Si atom -12391.326688 kJ/mol
# Density = 1.684072 g / cm^3
# Si number density = 16.879140 Si / 1000 Ang^3
#
#
#
# Elastic Constant Matrix: (Units=GPa)
#
#
# Indices 1 2 3 4 5 6 
#
# 1 40.8118 25.3051 40.4757 0.0000 0.0000 0.0000
# 2 25.3051 169.9366 54.4762 0.0000 0.0000 0.0000
# 3 40.4757 54.4762 149.0301 0.0000 0.0000 0.0000
# 4 0.0000 0.0000 0.0000 34.9581 0.0000 0.0000
# 5 0.0000 0.0000 0.0000 0.0000 -109.0797 0.0000
# 6 0.0000 0.0000 0.0000 0.0000 0.0000 21.8120
#
#
#
# Elastic Compliance Matrix: (Units=1/GPa)
#
#
# Indices 1 2 3 4 5 6 
#
# 1 0.034385 -0.002409 -0.008458 0.000000 0.000000 0.000000
# 2 -0.002409 0.006834 -0.001844 0.000000 0.000000 0.000000
# 3 -0.008458 -0.001844 0.009681 0.000000 0.000000 0.000000
# 4 0.000000 0.000000 0.000000 0.028606 0.000000 0.000000
# 5 0.000000 0.000000 0.000000 0.000000 -0.009168 0.000000
# 6 0.000000 0.000000 0.000000 0.000000 0.000000 0.045846
#
#
# Mechanical properties :
#
#
# Convention : Reuss Voigt Hill
#
# Bulk Modulus (GPa) = 39.24876 66.69916 52.97396
# Shear Modulus (GPa) = 33.31118 5.50617 19.40868
#
# Velocity S-wave (km/s) = 4.44724 1.80809 3.39464
# Velocity P-wave (km/s) = 7.04797 6.63027 6.84231
#
# Compressibility (1/GPa) = 0.02547851
#
# Stress axis : x y z
#
# Youngs Moduli (GPa) = 29.08256 146.31926 103.29183
#
# Poissons Ratio (x) = 0.35245 0.87366
# Poissons Ratio (y) = 0.07005 0.19047
# Poissons Ratio (z) = 0.24599 0.26981
#
# Static dielectric constant tensor:
#      x y z
#    x 2.684150 0.000000 0.000000 
#    y 0.000000 3.283300 0.000000 
#    z 0.000000 0.000000 3.707630 
# 
# 
# High freq. dielectric constant tensor:
#      x y z
#    x 1.591840 0.000000 0.000000 
#    y 0.000000 1.678170 0.000000 
#    z 0.000000 0.000000 1.655950 
# 
# From -- ./inp_files/39202.got.cif
#   From: 2010.03.12/outbox.cif.g09.slc.cpg/sg67_20_cif.got.tgz:39202.got - 2010.04.10 22:41:39.
