data_PCOD8278585
_publ_section_title
;
Structure prediction by ZEFSAII (Michael W. Deem and Ramdas Pophale) SiO2 
 PCOD8278585
Probable space group: C M M A
;
_chemical_formula_sum "Si O2"
_cell_formula_units_Z 92
_cell_length_a 22.823622
_cell_length_b 22.226513
_cell_length_c 9.901576
_cell_angle_alpha 90.000000
_cell_angle_beta 90.000000
_cell_angle_gamma 90.000000
_cell_volume 5022.965846
_symmetry_space_group_name_H-M "C M M A"
_symmetry_group_IT_number 67
_symmetry_cell_setting 'orthorhombic'
loop_
_space_group_symop_operation_xyz
x,y,z
-x,1/2-y,z
x,-y,-z
-x,1/2+y,-z
-x,-y,-z
x,1/2+y,-z
-x,y,z
x,1/2-y,z
1/2+x,1/2+y,z
1/2-x,-y,z
1/2+x,1/2-y,-z
1/2-x,y,-z
1/2-x,1/2-y,-z
1/2+x,y,-z
1/2-x,1/2+y,z
1/2+x,-y,z
loop_
_atom_site_type_symbol
_atom_site_label
_atom_site_fract_x
_atom_site_fract_y
_atom_site_fract_z
Si Si1 0.000000 0.250000 0.238853
Si Si2 0.566488 0.750000 0.493876
Si Si3 0.000000 0.563863 0.576210
Si Si4 0.887891 0.569066 0.006846
Si Si5 0.880322 0.873689 0.517715
Si Si6 0.500000 0.382700 0.872173
Si Si7 0.321772 0.064454 0.272992
Si Si8 0.311962 0.074601 0.755707
O O1 0.058229 0.250000 0.331640
O O2 0.000000 0.188188 0.157198
O O3 0.500000 0.750000 0.560253
O O4 0.607038 0.806303 0.532316
O O5 0.000000 0.500000 0.500000
O O6 0.056813 0.596120 0.522407
O O7 0.000000 0.571490 0.741447
O O8 0.866377 0.586067 0.156695
O O9 0.907010 0.500000 0.000000
O O10 0.943730 0.607658 0.965345
O O11 0.833826 0.582452 0.907980
O O12 0.838884 0.905927 0.412348
O O13 0.846854 0.878434 0.660950
O O14 0.256820 0.087475 0.239842
O O15 0.324900 0.992937 0.294781
#
# Coordination Sequence:
#
# PCOD8278585 Si02
#       8
#     4   8   8  16  16   8  16  16
#     4  10  18  40  60  78 108 162 212 232 270 362
#     4  10  20  40  56  80 112 156 197 243 293 349
#     4  12  22  32  59  90 117 139 183 246 307 347
#     4  10  21  36  57  86 122 154 189 239 297 358
#     4  12  21  37  60  85 114 150 201 243 290 348
#     4  12  21  39  59  88 115 157 210 239 290 363
#     4  10  22  35  57  88 124 154 186 240 304 347
#     4  10  19  38  59  85 118 160 196 229 287 368
#
# _framework density 18.315871000000001
#
# number of rings (size 3 to 8) (size 9 to 14) (size 15 to 20)
#    0.261    1.043    4.348    2.870    2.435    4.174 
#    0.000    2.609    0.000    0.000    0.000    4.870 
#    0.000    0.000    0.000    0.000    0.000    0.000 
#
# Total GULP energy -570229.288890 kJ/mol
# GULP energy per Si atom -12396.288889 kJ/mol
# Density = 1.827418 g / cm^3
# Si number density = 18.315871 Si / 1000 Ang^3
#
#
#
# Elastic Constant Matrix: (Units=GPa)
#
#
# Indices 1 2 3 4 5 6 
#
# 1 102.4695 24.7238 13.6999 0.0000 0.0000 0.0000
# 2 24.7238 47.0984 18.9277 0.0000 0.0000 0.0000
# 3 13.6999 18.9277 60.3896 0.0000 0.0000 0.0000
# 4 0.0000 0.0000 0.0000 7.9091 0.0000 0.0000
# 5 0.0000 0.0000 0.0000 0.0000 25.5385 0.0000
# 6 0.0000 0.0000 0.0000 0.0000 0.0000 43.6587
#
#
#
# Elastic Compliance Matrix: (Units=1/GPa)
#
#
# Indices 1 2 3 4 5 6 
#
# 1 0.011208 -0.005562 -0.000799 0.000000 0.000000 0.000000
# 2 -0.005562 0.027052 -0.007217 0.000000 0.000000 0.000000
# 3 -0.000799 -0.007217 0.019002 0.000000 0.000000 0.000000
# 4 0.000000 0.000000 0.000000 0.126436 0.000000 0.000000
# 5 0.000000 0.000000 0.000000 0.000000 0.039157 0.000000
# 6 0.000000 0.000000 0.000000 0.000000 0.000000 0.022905
#
#
# Mechanical properties :
#
#
# Convention : Reuss Voigt Hill
#
# Bulk Modulus (GPa) = 33.21646 36.07337 34.64492
# Shear Modulus (GPa) = 17.67078 25.59500 21.63289
#
# Velocity S-wave (km/s) = 3.10946 3.74227 3.44044
# Velocity P-wave (km/s) = 5.57372 6.19763 5.89394
#
# Compressibility (1/GPa) = 0.03010556
#
# Stress axis : x y z
#
# Youngs Moduli (GPa) = 89.22263 36.96528 52.62470
#
# Poissons Ratio (x) = 0.20561 0.04206
# Poissons Ratio (y) = 0.49628 0.37980
# Poissons Ratio (z) = 0.07131 0.26678
#
# Static dielectric constant tensor:
#      x y z
#    x 3.370010 0.000000 0.000000 
#    y 0.000000 3.421980 0.000000 
#    z 0.000000 0.000000 3.434070 
# 
# 
# High freq. dielectric constant tensor:
#      x y z
#    x 1.725140 0.000000 0.000000 
#    y 0.000000 1.682420 0.000000 
#    z 0.000000 0.000000 1.705210 
# 
# From -- ./inp_files/11342.got.cif
#   From: 2010.03.12/outbox.cif.g09.slc.cpg/sg67_6_cif.got.tgz:11342.got - 2010.04.10 22:41:39.
