data_PCOD8278224
_publ_section_title
;
Structure prediction by ZEFSAII (Michael W. Deem and Ramdas Pophale) SiO2 
 PCOD8278224
Probable space group: C M M A
;
_chemical_formula_sum "Si O2"
_cell_formula_units_Z 104
_cell_length_a 8.764755
_cell_length_b 24.560224
_cell_length_c 26.669948
_cell_angle_alpha 90.000000
_cell_angle_beta 90.000000
_cell_angle_gamma 90.000000
_cell_volume 5741.088917
_symmetry_space_group_name_H-M "C M M A"
_symmetry_group_IT_number 67
_symmetry_cell_setting 'orthorhombic'
loop_
_space_group_symop_operation_xyz
x,y,z
-x,1/2-y,z
x,-y,-z
-x,1/2+y,-z
-x,-y,-z
x,1/2+y,-z
-x,y,z
x,1/2-y,z
1/2+x,1/2+y,z
1/2-x,-y,z
1/2+x,1/2-y,-z
1/2-x,y,-z
1/2-x,1/2-y,-z
1/2+x,y,-z
1/2-x,1/2+y,z
1/2+x,-y,z
loop_
_atom_site_type_symbol
_atom_site_label
_atom_site_fract_x
_atom_site_fract_y
_atom_site_fract_z
Si Si1 0.824146 0.170319 0.128347
Si Si2 0.819223 0.864823 0.358077
Si Si3 0.322081 0.250000 0.054178
Si Si4 0.181059 0.750000 0.323771
Si Si5 0.822006 0.554787 0.834786
Si Si6 0.682444 0.058063 0.446524
Si Si7 0.676194 0.750000 0.215330
Si Si8 0.819149 0.055904 0.727636
O O1 0.725370 0.195786 0.084020
O O2 0.792216 0.105715 0.128682
O O3 0.781863 0.196779 0.182159
O O4 0.000000 0.183415 0.116698
O O5 0.755164 0.803167 0.353232
O O6 0.760928 0.895326 0.407993
O O7 0.761994 0.896646 0.308975
O O8 0.000000 0.864197 0.359249
O O9 0.500000 0.250000 0.047062
O O10 0.250000 0.250000 0.000000
O O11 0.226209 0.750000 0.265608
O O12 0.000000 0.750000 0.324737
O O13 0.750000 0.500000 0.858850
O O14 0.742862 0.568593 0.782503
O O15 0.000000 0.545215 0.825193
O O16 0.500000 0.053453 0.449167
O O17 0.750000 0.075161 0.500000
O O18 0.750000 0.000000 0.429235
O O19 0.500000 0.750000 0.231049
O O20 0.000000 0.051074 0.729212
O O21 0.750000 0.000000 0.706509
#
# Coordination Sequence:
#
# PCOD8278224 Si02
#       8
#    16  16   8   8  16  16   8  16
#     4   9  19  35  53  74 105 140 173 208 253 298
#     4   9  19  32  48  68  93 123 157 195 237 285
#     4  11  22  36  58  83 106 131 166 213 261 301
#     4  10  19  33  49  67  94 131 165 194 230 279
#     4  10  19  31  48  72 104 141 173 207 246 291
#     4  10  19  34  53  74  93 113 145 189 240 290
#     4   9  17  31  49  72 101 132 167 209 247 284
#     4  10  18  29  45  69  98 129 164 202 241 288
#
# _framework density 18.115030999999998
#
# number of rings (size 3 to 8) (size 9 to 14) (size 15 to 20)
#    0.000    2.308    0.000    5.308    0.000    2.462 
#    0.000    5.000    0.000    0.462    0.000    3.231 
#    0.000    0.000    0.000    0.000    0.000    0.000 
#
# Total GULP energy -644688.164856 kJ/mol
# GULP energy per Si atom -12397.849324 kJ/mol
# Density = 1.807380 g / cm^3
# Si number density = 18.115031 Si / 1000 Ang^3
#
#
#
# Elastic Constant Matrix: (Units=GPa)
#
#
# Indices 1 2 3 4 5 6 
#
# 1 83.9809 47.3491 40.4502 0.0000 0.0000 0.0000
# 2 47.3491 159.7970 71.6832 0.0000 0.0000 0.0000
# 3 40.4502 71.6832 103.9202 0.0000 0.0000 0.0000
# 4 0.0000 0.0000 0.0000 13.8048 0.0000 0.0000
# 5 0.0000 0.0000 0.0000 0.0000 25.6689 0.0000
# 6 0.0000 0.0000 0.0000 0.0000 0.0000 23.6536
#
#
#
# Elastic Compliance Matrix: (Units=1/GPa)
#
#
# Indices 1 2 3 4 5 6 
#
# 1 0.015430 -0.002719 -0.004130 0.000000 0.000000 0.000000
# 2 -0.002719 0.009541 -0.005523 0.000000 0.000000 0.000000
# 3 -0.004130 -0.005523 0.015040 0.000000 0.000000 0.000000
# 4 0.000000 0.000000 0.000000 0.072439 0.000000 0.000000
# 5 0.000000 0.000000 0.000000 0.000000 0.038958 0.000000
# 6 0.000000 0.000000 0.000000 0.000000 0.000000 0.042277
#
#
# Mechanical properties :
#
#
# Convention : Reuss Voigt Hill
#
# Bulk Modulus (GPa) = 65.50375 74.07369 69.78872
# Shear Modulus (GPa) = 22.36953 25.17318 23.77135
#
# Velocity S-wave (km/s) = 3.51787 3.73182 3.62642
# Velocity P-wave (km/s) = 7.26216 7.71674 7.49290
#
# Compressibility (1/GPa) = 0.01526630
#
# Stress axis : x y z
#
# Youngs Moduli (GPa) = 64.80889 104.80829 66.48851
#
# Poissons Ratio (x) = 0.28500 0.27462
# Poissons Ratio (y) = 0.17623 0.36722
# Poissons Ratio (z) = 0.26768 0.57886
#
# Static dielectric constant tensor:
#      x y z
#    x 3.260270 0.000000 0.000000 
#    y 0.000000 3.827350 0.000000 
#    z 0.000000 0.000000 3.183150 
# 
# 
# High freq. dielectric constant tensor:
#      x y z
#    x 1.695880 0.000000 0.000000 
#    y 0.000000 1.710730 0.000000 
#    z 0.000000 0.000000 1.679240 
# 
# From -- ./inp_files/41057.got.cif
#   From: 2010.03.12/outbox.cif.g09.slc.cpg/sg67_21_cif.got.tgz:41057.got - 2010.04.10 22:41:39.
