data_PCOD8278128
_publ_section_title
;
Structure prediction by ZEFSAII (Michael W. Deem and Ramdas Pophale) SiO2 
 PCOD8278128
Probable space group: C M M A
;
_chemical_formula_sum "Si O2"
_cell_formula_units_Z 88
_cell_length_a 21.553458
_cell_length_b 10.206386
_cell_length_c 21.445460
_cell_angle_alpha 90.000000
_cell_angle_beta 90.000000
_cell_angle_gamma 90.000000
_cell_volume 4717.634740
_symmetry_space_group_name_H-M "C M M A"
_symmetry_group_IT_number 67
_symmetry_cell_setting 'orthorhombic'
loop_
_space_group_symop_operation_xyz
x,y,z
-x,1/2-y,z
x,-y,-z
-x,1/2+y,-z
-x,-y,-z
x,1/2+y,-z
-x,y,z
x,1/2-y,z
1/2+x,1/2+y,z
1/2-x,-y,z
1/2+x,1/2-y,-z
1/2-x,y,-z
1/2-x,1/2-y,-z
1/2+x,y,-z
1/2-x,1/2+y,z
1/2+x,-y,z
loop_
_atom_site_type_symbol
_atom_site_label
_atom_site_fract_x
_atom_site_fract_y
_atom_site_fract_z
Si Si1 0.365443 0.750000 0.708359
Si Si2 0.327891 0.750000 0.142784
Si Si3 0.428504 0.506062 0.342985
Si Si4 0.823308 0.502695 0.069453
Si Si5 0.661661 0.398824 0.553867
Si Si6 0.381081 0.250000 0.725795
Si Si7 0.680838 0.250000 0.150553
Si Si8 0.235744 0.750000 0.641676
O O1 0.403863 0.622726 0.690970
O O2 0.350050 0.750000 0.781515
O O3 0.304563 0.750000 0.665845
O O4 0.347712 0.625065 0.103477
O O5 0.373312 0.750000 0.200962
O O6 0.255017 0.750000 0.160226
O O7 0.500000 0.485860 0.359342
O O8 0.395079 0.537949 0.408198
O O9 0.419527 0.623805 0.294789
O O10 0.750000 0.500000 0.063150
O O11 0.843218 0.626740 0.110786
O O12 0.852665 0.500000 0.000000
O O13 0.680029 0.500000 0.500000
O O14 0.643350 0.250000 0.529599
O O15 0.721552 0.379597 0.599405
O O16 0.311807 0.250000 0.698717
#
# Coordination Sequence:
#
# PCOD8278128 Si02
#       8
#     8   8  16  16  16   8   8   8
#     4  12  23  38  60  83 123 157 196 232 284 355
#     4  10  17  29  49  80 105 149 194 221 277 350
#     4  11  24  41  60  85 116 152 192 244 296 336
#     4   9  17  28  44  71 114 156 187 225 275 334
#     4   9  21  42  67  93 113 148 191 237 292 344
#     4  10  19  37  60  83 114 147 188 242 284 343
#     4  10  19  31  50  79 114 152 191 235 272 345
#     4   8  20  39  59  89 115 146 181 228 291 335
#
# _framework density 18.653414999999999
#
# number of rings (size 3 to 8) (size 9 to 14) (size 15 to 20)
#    0.545    1.636    1.818    2.182    1.273    5.455 
#    0.000    2.727    2.000    0.000    0.000    0.000 
#    0.000   50.909    0.000    0.000    0.000    0.000 
#
# Total GULP energy -545347.085755 kJ/mol
# GULP energy per Si atom -12394.251949 kJ/mol
# Density = 1.861096 g / cm^3
# Si number density = 18.653415 Si / 1000 Ang^3
#
#
#
# Elastic Constant Matrix: (Units=GPa)
#
#
# Indices 1 2 3 4 5 6 
#
# 1 59.5483 28.5950 31.2817 0.0000 0.0000 0.0000
# 2 28.5950 163.8739 68.9837 0.0000 0.0000 0.0000
# 3 31.2817 68.9837 141.4030 0.0000 0.0000 0.0000
# 4 0.0000 0.0000 0.0000 27.6907 0.0000 0.0000
# 5 0.0000 0.0000 0.0000 0.0000 13.6568 0.0000
# 6 0.0000 0.0000 0.0000 0.0000 0.0000 16.4776
#
#
#
# Elastic Compliance Matrix: (Units=1/GPa)
#
#
# Indices 1 2 3 4 5 6 
#
# 1 0.019507 -0.001998 -0.003341 0.000000 0.000000 0.000000
# 2 -0.001998 0.007884 -0.003404 0.000000 0.000000 0.000000
# 3 -0.003341 -0.003404 0.009472 0.000000 0.000000 0.000000
# 4 0.000000 0.000000 0.000000 0.036113 0.000000 0.000000
# 5 0.000000 0.000000 0.000000 0.000000 0.073224 0.000000
# 6 0.000000 0.000000 0.000000 0.000000 0.000000 0.060688
#
#
# Mechanical properties :
#
#
# Convention : Reuss Voigt Hill
#
# Bulk Modulus (GPa) = 51.60608 69.17178 60.38893
# Shear Modulus (GPa) = 21.66066 27.29600 24.47833
#
# Velocity S-wave (km/s) = 3.41136 3.82949 3.62646
# Velocity P-wave (km/s) = 6.57589 7.53103 7.06961
#
# Compressibility (1/GPa) = 0.01937756
#
# Stress axis : x y z
#
# Youngs Moduli (GPa) = 51.26264 126.84173 105.57586
#
# Poissons Ratio (x) = 0.25337 0.35273
# Poissons Ratio (y) = 0.10240 0.35941
# Poissons Ratio (z) = 0.17127 0.43180
#
# Static dielectric constant tensor:
#      x y z
#    x 2.971510 0.000000 0.000000 
#    y 0.000000 3.652670 0.000000 
#    z 0.000000 0.000000 3.520780 
# 
# 
# High freq. dielectric constant tensor:
#      x y z
#    x 1.676020 0.000000 0.000000 
#    y 0.000000 1.744720 0.000000 
#    z 0.000000 0.000000 1.731090 
# 
# From -- ./inp_files/39652.got.cif
#   From: 2010.03.12/outbox.cif.g09.slc.cpg/sg67_20_cif.got.tgz:39652.got - 2010.04.10 22:41:39.
