data_PCOD8278934
_publ_section_title
;
Structure prediction by ZEFSAII (Michael W. Deem and Ramdas Pophale) SiO2 
 PCOD8278934
Probable space group: C M M A
;
_chemical_formula_sum "Si O2"
_cell_formula_units_Z 80
_cell_length_a 16.490374
_cell_length_b 10.144200
_cell_length_c 24.303050
_cell_angle_alpha 90.000000
_cell_angle_beta 90.000000
_cell_angle_gamma 90.000000
_cell_volume 4065.454351
_symmetry_space_group_name_H-M "C M M A"
_symmetry_group_IT_number 67
_symmetry_cell_setting 'orthorhombic'
loop_
_space_group_symop_operation_xyz
x,y,z
-x,1/2-y,z
x,-y,-z
-x,1/2+y,-z
-x,-y,-z
x,1/2+y,-z
-x,y,z
x,1/2-y,z
1/2+x,1/2+y,z
1/2-x,-y,z
1/2+x,1/2-y,-z
1/2-x,y,-z
1/2-x,1/2-y,-z
1/2+x,y,-z
1/2-x,1/2+y,z
1/2+x,-y,z
loop_
_atom_site_type_symbol
_atom_site_label
_atom_site_fract_x
_atom_site_fract_y
_atom_site_fract_z
Si Si1 0.596537 0.102204 0.666799
Si Si2 0.155093 0.250000 0.943233
Si Si3 0.346115 0.992778 0.871668
Si Si4 0.347745 0.250000 0.933629
Si Si5 0.904590 0.101227 0.756051
Si Si6 0.403510 0.102995 0.543552
O O1 0.500000 0.100503 0.669458
O O2 0.626720 0.250000 0.683162
O O3 0.626170 0.067091 0.605109
O O4 0.632680 0.990921 0.707730
O O5 0.123352 0.122117 0.911709
O O6 0.251794 0.250000 0.941859
O O7 0.117061 0.250000 0.004421
O O8 0.385154 0.971624 0.812601
O O9 0.250000 0.000000 0.864977
O O10 0.379268 0.125690 0.899192
O O11 0.867028 0.250000 0.753822
O O12 0.000000 0.112167 0.748738
O O13 0.500000 0.096604 0.541680
O O14 0.374275 0.250000 0.527534
O O15 0.365397 0.000000 0.500000
#
# Coordination Sequence:
#
# PCOD8278934 Si02
#       6
#    16   8  16   8  16  16
#     4   8  15  27  41  59  85 119 158 194 228 271
#     4   9  16  32  49  71  99 117 148 191 232 280
#     4  10  19  32  50  73  96 119 153 194 233 276
#     4   9  18  28  51  75  91 121 150 187 236 278
#     4  10  20  33  48  66  94 130 161 191 230 277
#     4   8  13  21  34  54  81 112 147 189 231 268
#
# _framework density 19.677996
#
# number of rings (size 3 to 8) (size 9 to 14) (size 15 to 20)
#    0.000    3.000    1.000    1.800    1.400    3.200 
#    0.000    4.000    0.000    3.600    0.000    0.000 
#    0.000    0.800    0.000    6.200    0.000    8.600 
#
# Total GULP energy -495769.224700 kJ/mol
# GULP energy per Si atom -12394.230618 kJ/mol
# Density = 1.963321 g / cm^3
# Si number density = 19.677996 Si / 1000 Ang^3
#
#
#
# Elastic Constant Matrix: (Units=GPa)
#
#
# Indices 1 2 3 4 5 6 
#
# 1 2.4492 5.0781 2.1742 0.0000 0.0000 0.0000
# 2 5.0781 195.3292 124.2873 0.0000 0.0000 0.0000
# 3 2.1742 124.2873 187.0328 0.0000 0.0000 0.0000
# 4 0.0000 0.0000 0.0000 49.9070 0.0000 0.0000
# 5 0.0000 0.0000 0.0000 0.0000 -550.1039 0.0000
# 6 0.0000 0.0000 0.0000 0.0000 0.0000 -7.9707
#
#
#
# Elastic Compliance Matrix: (Units=1/GPa)
#
#
# Indices 1 2 3 4 5 6 
#
# 1 0.433488 -0.013970 0.004244 0.000000 0.000000 0.000000
# 2 -0.013970 0.009320 -0.006031 0.000000 0.000000 0.000000
# 3 0.004244 -0.006031 0.009305 0.000000 0.000000 0.000000
# 4 0.000000 0.000000 0.000000 0.020037 0.000000 0.000000
# 5 0.000000 0.000000 0.000000 0.000000 -0.001818 0.000000
# 6 0.000000 0.000000 0.000000 0.000000 0.000000 -0.125459
#
#
# Mechanical properties :
#
#
# Convention : Reuss Voigt Hill
#
# Bulk Modulus (GPa) = 2.37756 71.98785 37.18270
# Shear Modulus (GPa) = 9.67888 -84.74877 -37.53494
#
# Velocity S-wave (km/s) = 2.22020 -6.56972 -4.37218
# Velocity P-wave (km/s) = 2.78985 4.57012 2.55957
#
# Compressibility (1/GPa) = 0.42059941
#
# Stress axis : x y z
#
# Youngs Moduli (GPa) = 2.30687 107.29167 107.46710
#
# Poissons Ratio (x) = 1.49891 -0.45613
# Poissons Ratio (y) = 0.03223 0.64815
# Poissons Ratio (z) = -0.00979 0.64710
#
# Static dielectric constant tensor:
#      x y z
#    x 2.831180 0.000000 0.000000 
#    y 0.000000 4.051720 0.000000 
#    z 0.000000 0.000000 3.822700 
# 
# 
# High freq. dielectric constant tensor:
#      x y z
#    x 1.693410 0.000000 0.000000 
#    y 0.000000 1.782620 0.000000 
#    z 0.000000 0.000000 1.777930 
# 
# From -- ./inp_files/42309.got.cif
#   From: 2010.03.12/outbox.cif.g09.slc.cpg/sg67_22_cif.got.tgz:42309.got - 2010.04.10 22:41:39.
