data_PCOD8278133
_publ_section_title
;
Structure prediction by ZEFSAII (Michael W. Deem and Ramdas Pophale) SiO2 
 PCOD8278133
Probable space group: C M M A
;
_chemical_formula_sum "Si O2"
_cell_formula_units_Z 80
_cell_length_a 15.383000
_cell_length_b 8.552842
_cell_length_c 29.394687
_cell_angle_alpha 90.000000
_cell_angle_beta 90.000000
_cell_angle_gamma 90.000000
_cell_volume 3867.411011
_symmetry_space_group_name_H-M "C M M A"
_symmetry_group_IT_number 67
_symmetry_cell_setting 'orthorhombic'
loop_
_space_group_symop_operation_xyz
x,y,z
-x,1/2-y,z
x,-y,-z
-x,1/2+y,-z
-x,-y,-z
x,1/2+y,-z
-x,y,z
x,1/2-y,z
1/2+x,1/2+y,z
1/2-x,-y,z
1/2+x,1/2-y,-z
1/2-x,y,-z
1/2-x,1/2-y,-z
1/2+x,y,-z
1/2-x,1/2+y,z
1/2+x,-y,z
loop_
_atom_site_type_symbol
_atom_site_label
_atom_site_fract_x
_atom_site_fract_y
_atom_site_fract_z
Si Si1 0.653016 0.564326 0.045637
Si Si2 0.160916 0.565621 0.639858
Si Si3 0.000000 0.564433 0.696929
Si Si4 0.847167 0.564346 0.139531
Si Si5 0.100413 0.066456 0.547460
Si Si6 0.500000 0.564101 0.199053
O O1 0.650582 0.750000 0.046002
O O2 0.750000 0.500000 0.044786
O O3 0.611347 0.498335 0.091985
O O4 0.604696 0.500000 0.000000
O O5 0.161280 0.750000 0.641864
O O6 0.250000 0.500000 0.660688
O O7 0.153274 0.512015 0.587908
O O8 0.083979 0.495995 0.670990
O O9 0.000000 0.509107 0.748809
O O10 0.000000 0.750000 0.694154
O O11 0.842761 0.750000 0.138464
O O12 0.750000 0.500000 0.148457
O O13 0.912013 0.506363 0.178327
O O14 0.114883 0.250000 0.548905
O O15 0.000000 0.018894 0.553042
O O16 0.136991 0.000000 0.500000
O O17 0.500000 0.750000 0.193149
#
# Coordination Sequence:
#
# PCOD8278133 Si02
#       6
#    16  16   8  16  16   8
#     4  10  17  29  51  82 118 160 201 245 295 353
#     4  11  22  40  63  91 122 158 199 245 297 354
#     4   9  22  43  66  87 118 155 194 246 307 363
#     4  11  22  39  61  90 123 161 204 251 302 360
#     4  10  20  35  58  89 123 162 202 243 291 347
#     4  11  23  43  66  91 120 155 199 252 312 371
#
# _framework density 20.685673000000001
#
# number of rings (size 3 to 8) (size 9 to 14) (size 15 to 20)
#    0.000    1.600    1.000    6.900    0.000    2.000 
#    0.000    8.500    0.000    0.000    0.000    0.000 
#    0.000    0.000    0.000    0.000    0.000    0.000 
#
# Total GULP energy -496013.055525 kJ/mol
# GULP energy per Si atom -12400.326388 kJ/mol
# Density = 2.063859 g / cm^3
# Si number density = 20.685673 Si / 1000 Ang^3
#
#
#
# Elastic Constant Matrix: (Units=GPa)
#
#
# Indices 1 2 3 4 5 6 
#
# 1 125.9658 43.4847 76.3372 0.0000 0.0000 0.0000
# 2 43.4847 139.8226 51.4099 0.0000 0.0000 0.0000
# 3 76.3372 51.4099 172.0766 0.0000 0.0000 0.0000
# 4 0.0000 0.0000 0.0000 24.3523 0.0000 0.0000
# 5 0.0000 0.0000 0.0000 0.0000 8.8854 0.0000
# 6 0.0000 0.0000 0.0000 0.0000 0.0000 29.8963
#
#
#
# Elastic Compliance Matrix: (Units=1/GPa)
#
#
# Indices 1 2 3 4 5 6 
#
# 1 0.011278 -0.001874 -0.004444 0.000000 0.000000 0.000000
# 2 -0.001874 0.008346 -0.001662 0.000000 0.000000 0.000000
# 3 -0.004444 -0.001662 0.008279 0.000000 0.000000 0.000000
# 4 0.000000 0.000000 0.000000 0.041064 0.000000 0.000000
# 5 0.000000 0.000000 0.000000 0.000000 0.112545 0.000000
# 6 0.000000 0.000000 0.000000 0.000000 0.000000 0.033449
#
#
# Mechanical properties :
#
#
# Convention : Reuss Voigt Hill
#
# Bulk Modulus (GPa) = 83.72090 86.70321 85.21206
# Shear Modulus (GPa) = 21.28555 30.40234 25.84394
#
# Velocity S-wave (km/s) = 3.21128 3.83786 3.53847
# Velocity P-wave (km/s) = 7.36957 7.85140 7.61430
#
# Compressibility (1/GPa) = 0.01194445
#
# Stress axis : x y z
#
# Youngs Moduli (GPa) = 88.66543 119.82074 120.78448
#
# Poissons Ratio (x) = 0.22452 0.53671
# Poissons Ratio (y) = 0.16614 0.20076
# Poissons Ratio (z) = 0.39399 0.19916
#
# Static dielectric constant tensor:
#      x y z
#    x 3.870870 0.000000 0.000000 
#    y 0.000000 3.693710 0.000000 
#    z 0.000000 0.000000 3.921290 
# 
# 
# High freq. dielectric constant tensor:
#      x y z
#    x 1.799540 0.000000 0.000000 
#    y 0.000000 1.814700 0.000000 
#    z 0.000000 0.000000 1.816460 
# 
# From -- ./inp_files/45755.got.cif
#   From: 2010.03.12/outbox.cif.g09.slc.cpg/sg67_23_cif.got.tgz:45755.got - 2010.04.10 22:41:39.
