data_PCOD8278382
_publ_section_title
;
Structure prediction by ZEFSAII (Michael W. Deem and Ramdas Pophale) SiO2 
 PCOD8278382
Probable space group: C M M A
;
_chemical_formula_sum "Si O2"
_cell_formula_units_Z 128
_cell_length_a 22.577866
_cell_length_b 16.491895
_cell_length_c 19.264066
_cell_angle_alpha 90.000000
_cell_angle_beta 90.000000
_cell_angle_gamma 90.000000
_cell_volume 7173.009562
_symmetry_space_group_name_H-M "C M M A"
_symmetry_group_IT_number 67
_symmetry_cell_setting 'orthorhombic'
loop_
_space_group_symop_operation_xyz
x,y,z
-x,1/2-y,z
x,-y,-z
-x,1/2+y,-z
-x,-y,-z
x,1/2+y,-z
-x,y,z
x,1/2-y,z
1/2+x,1/2+y,z
1/2-x,-y,z
1/2+x,1/2-y,-z
1/2-x,y,-z
1/2-x,1/2-y,-z
1/2+x,y,-z
1/2-x,1/2+y,z
1/2+x,-y,z
loop_
_atom_site_type_symbol
_atom_site_label
_atom_site_fract_x
_atom_site_fract_y
_atom_site_fract_z
Si Si1 0.319075 0.989962 0.074984
Si Si2 0.737633 0.593206 0.421120
Si Si3 0.211431 0.921321 0.202820
Si Si4 0.434440 0.653629 0.561077
Si Si5 0.564774 0.154466 0.733595
Si Si6 0.161941 0.156952 0.667945
Si Si7 0.389876 0.154398 0.586823
Si Si8 0.829398 0.656479 0.832652
O O1 0.337015 0.900043 0.099848
O O2 0.250000 0.000000 0.062086
O O3 0.330298 0.058123 0.135281
O O4 0.351758 0.000000 0.000000
O O5 0.750000 0.500000 0.405561
O O6 0.750000 0.617806 0.500000
O O7 0.776752 0.651247 0.373232
O O8 0.670822 0.608480 0.400736
O O9 0.165284 0.895477 0.261935
O O10 0.261224 0.851172 0.193508
O O11 0.250000 0.000000 0.223922
O O12 0.500000 0.623667 0.580831
O O13 0.430364 0.750000 0.559775
O O14 0.389729 0.619403 0.619245
O O15 0.418924 0.621092 0.484180
O O16 0.500000 0.121274 0.759547
O O17 0.565265 0.250000 0.741012
O O18 0.569755 0.131031 0.652422
O O19 0.621368 0.123161 0.777671
O O20 0.148836 0.250000 0.687156
O O21 0.378312 0.250000 0.582185
O O22 0.840903 0.750000 0.852633
#
# Coordination Sequence:
#
# PCOD8278382 Si02
#       8
#    16  16  16  16  16  16  16  16
#     4   8  16  32  51  73 102 134 156 182 237 298
#     4  11  22  33  46  66  92 127 161 205 256 303
#     4   9  18  31  49  73 102 132 153 191 244 296
#     4   9  18  31  47  67  91 123 164 208 247 279
#     4   9  17  28  45  71  98 123 156 203 253 292
#     4  11  20  31  49  70  95 124 165 207 239 283
#     4  10  18  31  51  71  92 120 162 209 249 292
#     4   9  16  28  48  75 101 127 161 198 237 287
#
# _framework density 17.844671999999999
#
# number of rings (size 3 to 8) (size 9 to 14) (size 15 to 20)
#    0.000    2.750    1.250    2.250    0.000    4.000 
#    0.000    5.625    0.000    8.625    0.000    0.000 
#    0.000    4.000    0.000    0.000    0.000    0.000 
#
# Total GULP energy -792974.912078 kJ/mol
# GULP energy per Si atom -12390.233001 kJ/mol
# Density = 1.780406 g / cm^3
# Si number density = 17.844672 Si / 1000 Ang^3
#
#
#
# Elastic Constant Matrix: (Units=GPa)
#
#
# Indices 1 2 3 4 5 6 
#
# 1 90.0654 19.8345 43.5848 0.0000 0.0000 0.0000
# 2 19.8345 49.4297 43.7879 0.0000 0.0000 0.0000
# 3 43.5848 43.7879 144.9057 0.0000 0.0000 0.0000
# 4 0.0000 0.0000 0.0000 5.4280 0.0000 0.0000
# 5 0.0000 0.0000 0.0000 0.0000 9.6990 0.0000
# 6 0.0000 0.0000 0.0000 0.0000 0.0000 4.7829
#
#
#
# Elastic Compliance Matrix: (Units=1/GPa)
#
#
# Indices 1 2 3 4 5 6 
#
# 1 0.013205 -0.002431 -0.003237 0.000000 0.000000 0.000000
# 2 -0.002431 0.028074 -0.007752 0.000000 0.000000 0.000000
# 3 -0.003237 -0.007752 0.010217 0.000000 0.000000 0.000000
# 4 0.000000 0.000000 0.000000 0.184230 0.000000 0.000000
# 5 0.000000 0.000000 0.000000 0.000000 0.103104 0.000000
# 6 0.000000 0.000000 0.000000 0.000000 0.000000 0.209078
#
#
# Mechanical properties :
#
#
# Convention : Reuss Voigt Hill
#
# Bulk Modulus (GPa) = 40.55946 55.42389 47.99168
# Shear Modulus (GPa) = 8.57682 15.79488 12.18585
#
# Velocity S-wave (km/s) = 2.19472 2.97834 2.61604
# Velocity P-wave (km/s) = 5.40379 6.55392 6.00645
#
# Compressibility (1/GPa) = 0.02465516
#
# Stress axis : x y z
#
# Youngs Moduli (GPa) = 75.72916 35.62070 97.87347
#
# Poissons Ratio (x) = 0.08659 0.31683
# Poissons Ratio (y) = 0.18410 0.75873
# Poissons Ratio (z) = 0.24515 0.27614
#
# Static dielectric constant tensor:
#      x y z
#    x 3.295550 0.000000 0.000000 
#    y 0.000000 3.067830 0.000000 
#    z 0.000000 0.000000 3.778760 
# 
# 
# High freq. dielectric constant tensor:
#      x y z
#    x 1.668980 0.000000 0.000000 
#    y 0.000000 1.669080 0.000000 
#    z 0.000000 0.000000 1.682480 
# 
# From -- ./inp_files/39433.got.cif
#   From: 2010.03.12/outbox.cif.g09.slc.cpg/sg67_20_cif.got.tgz:39433.got - 2010.04.10 22:41:39.
