data_PCOD8278345
_publ_section_title
;
Structure prediction by ZEFSAII (Michael W. Deem and Ramdas Pophale) SiO2 
 PCOD8278345
Probable space group: C M M A
;
_chemical_formula_sum "Si O2"
_cell_formula_units_Z 88
_cell_length_a 8.934477
_cell_length_b 26.893707
_cell_length_c 19.337030
_cell_angle_alpha 90.000000
_cell_angle_beta 90.000000
_cell_angle_gamma 90.000000
_cell_volume 4646.324901
_symmetry_space_group_name_H-M "C M M A"
_symmetry_group_IT_number 67
_symmetry_cell_setting 'orthorhombic'
loop_
_space_group_symop_operation_xyz
x,y,z
-x,1/2-y,z
x,-y,-z
-x,1/2+y,-z
-x,-y,-z
x,1/2+y,-z
-x,y,z
x,1/2-y,z
1/2+x,1/2+y,z
1/2-x,-y,z
1/2+x,1/2-y,-z
1/2-x,y,-z
1/2-x,1/2-y,-z
1/2+x,y,-z
1/2-x,1/2+y,z
1/2+x,-y,z
loop_
_atom_site_type_symbol
_atom_site_label
_atom_site_fract_x
_atom_site_fract_y
_atom_site_fract_z
Si Si1 0.678641 0.250000 0.925407
Si Si2 0.173116 0.356617 0.573367
Si Si3 0.833384 0.192934 0.309024
Si Si4 0.676216 0.657927 0.165068
Si Si5 0.824231 0.548646 0.335683
Si Si6 0.676727 0.950124 0.187420
O O1 0.500000 0.250000 0.931274
O O2 0.739226 0.300345 0.887518
O O3 0.750000 0.250000 0.000000
O O4 0.250000 0.354155 0.500000
O O5 0.232965 0.313350 0.623089
O O6 0.210286 0.408300 0.610314
O O7 0.000000 0.347963 0.561102
O O8 0.841754 0.250000 0.288661
O O9 0.758909 0.165834 0.242526
O O10 0.000000 0.171907 0.324362
O O11 0.500000 0.666579 0.170095
O O12 0.712945 0.600417 0.143078
O O13 0.750000 0.500000 0.369828
O O14 0.742636 0.558783 0.263334
O O15 0.000000 0.541509 0.322240
O O16 0.500000 0.958680 0.192450
O O17 0.750000 0.000000 0.153459
#
# Coordination Sequence:
#
# PCOD8278345 Si02
#       6
#     8  16  16  16  16  16
#     4  10  20  38  60  90 123 150 183 218 265 324
#     4  11  24  38  52  72 102 139 180 229 281 332
#     4  10  19  35  59  81 100 134 181 225 272 330
#     4   9  17  32  58  84 111 147 183 219 267 326
#     4  10  20  33  50  74 102 135 174 225 278 327
#     4  10  18  30  52  81 110 144 181 226 274 322
#
# _framework density 18.939700999999999
#
# number of rings (size 3 to 8) (size 9 to 14) (size 15 to 20)
#    0.000    2.000    2.727    2.727    0.000    3.273 
#    0.000    4.545    0.000    0.545    0.000    3.818 
#    0.000    0.000    0.000    0.000    0.000    0.000 
#
# Total GULP energy -545330.137752 kJ/mol
# GULP energy per Si atom -12393.866767 kJ/mol
# Density = 1.889659 g / cm^3
# Si number density = 18.939701 Si / 1000 Ang^3
#
#
#
# Elastic Constant Matrix: (Units=GPa)
#
#
# Indices 1 2 3 4 5 6 
#
# 1 68.8594 41.9309 27.1350 0.0000 0.0000 0.0000
# 2 41.9309 143.2699 53.0675 0.0000 0.0000 0.0000
# 3 27.1350 53.0675 79.7182 0.0000 0.0000 0.0000
# 4 0.0000 0.0000 0.0000 18.6947 0.0000 0.0000
# 5 0.0000 0.0000 0.0000 0.0000 24.6023 0.0000
# 6 0.0000 0.0000 0.0000 0.0000 0.0000 25.3866
#
#
#
# Elastic Compliance Matrix: (Units=1/GPa)
#
#
# Indices 1 2 3 4 5 6 
#
# 1 0.018401 -0.004069 -0.003555 0.000000 0.000000 0.000000
# 2 -0.004069 0.010164 -0.005381 0.000000 0.000000 0.000000
# 3 -0.003555 -0.005381 0.017336 0.000000 0.000000 0.000000
# 4 0.000000 0.000000 0.000000 0.053491 0.000000 0.000000
# 5 0.000000 0.000000 0.000000 0.000000 0.040647 0.000000
# 6 0.000000 0.000000 0.000000 0.000000 0.000000 0.039391
#
#
# Mechanical properties :
#
#
# Convention : Reuss Voigt Hill
#
# Bulk Modulus (GPa) = 50.27219 59.56827 54.92023
# Shear Modulus (GPa) = 23.57723 25.05098 24.31411
#
# Velocity S-wave (km/s) = 3.53208 3.64080 3.58685
# Velocity P-wave (km/s) = 6.57534 7.01382 6.79812
#
# Compressibility (1/GPa) = 0.01989171
#
# Stress axis : x y z
#
# Youngs Moduli (GPa) = 54.34566 98.38909 57.68248
#
# Poissons Ratio (x) = 0.40031 0.20506
# Poissons Ratio (y) = 0.22111 0.31039
# Poissons Ratio (z) = 0.19319 0.52943
#
# Static dielectric constant tensor:
#      x y z
#    x 3.397190 0.000000 0.000000 
#    y 0.000000 3.990850 0.000000 
#    z 0.000000 0.000000 3.155520 
# 
# 
# High freq. dielectric constant tensor:
#      x y z
#    x 1.723520 0.000000 0.000000 
#    y 0.000000 1.757470 0.000000 
#    z 0.000000 0.000000 1.698870 
# 
# From -- ./inp_files/32375.got.cif
#   From: 2010.03.12/outbox.cif.g09.slc.cpg/sg67_17_cif.got.tgz:32375.got - 2010.04.10 22:41:39.
