data_PCOD8278883
_publ_section_title
;
Structure prediction by ZEFSAII (Michael W. Deem and Ramdas Pophale) SiO2 
 PCOD8278883
Probable space group: C M M A
;
_chemical_formula_sum "Si O2"
_cell_formula_units_Z 72
_cell_length_a 18.509756
_cell_length_b 24.603468
_cell_length_c 8.609748
_cell_angle_alpha 90.000000
_cell_angle_beta 90.000000
_cell_angle_gamma 90.000000
_cell_volume 3920.915309
_symmetry_space_group_name_H-M "C M M A"
_symmetry_group_IT_number 67
_symmetry_cell_setting 'orthorhombic'
loop_
_space_group_symop_operation_xyz
x,y,z
-x,1/2-y,z
x,-y,-z
-x,1/2+y,-z
-x,-y,-z
x,1/2+y,-z
-x,y,z
x,1/2-y,z
1/2+x,1/2+y,z
1/2-x,-y,z
1/2+x,1/2-y,-z
1/2-x,y,-z
1/2-x,1/2-y,-z
1/2+x,y,-z
1/2-x,1/2+y,z
1/2+x,-y,z
loop_
_atom_site_type_symbol
_atom_site_label
_atom_site_fract_x
_atom_site_fract_y
_atom_site_fract_z
Si Si1 0.600380 0.111941 0.000230
Si Si2 0.000000 0.034962 0.153286
Si Si3 0.241353 0.750000 0.746697
Si Si4 0.000000 0.834357 0.510180
Si Si5 0.000000 0.575775 0.264174
Si Si6 0.124873 0.750000 0.482432
Si Si7 0.500000 0.312627 0.853542
Si Si8 0.250000 0.340991 0.000000
O O1 0.570902 0.092751 0.166906
O O2 0.685384 0.116065 0.011996
O O3 0.572227 0.072387 0.860261
O O4 0.569771 0.172089 0.957186
O O5 0.000000 0.990417 0.293411
O O6 0.000000 0.000000 0.000000
O O7 0.167787 0.750000 0.646136
O O8 0.315355 0.750000 0.650804
O O9 0.241737 0.695614 0.847999
O O10 0.926660 0.802396 0.465316
O O11 0.000000 0.893166 0.427950
O O12 0.000000 0.846292 0.693024
O O13 0.500000 0.250000 0.807577
#
# Coordination Sequence:
#
# PCOD8278883 Si02
#       8
#    16   8   8   8   8   8   8   8
#     4   9  19  33  51  73  99 133 166 212 262 304
#     4   7  15  35  54  69  99 124 157 219 269 291
#     4  10  22  32  44  66 108 144 160 204 246 298
#     4  11  19  30  54  73  97 133 181 206 243 311
#     4   9  18  36  53  75  96 127 171 223 260 298
#     4  10  20  34  44  68 104 140 170 200 254 296
#     4  10  19  32  48  72 105 139 167 209 255 298
#     4  11  20  30  49  74 102 130 179 199 244 314
#
# _framework density 18.363060000000001
#
# number of rings (size 3 to 8) (size 9 to 14) (size 15 to 20)
#    0.000    2.889    1.111    2.667    3.111    0.000 
#    8.000    7.222    0.000    0.000    0.000    0.000 
#    0.000   21.333    0.000    0.000    0.000    0.000 
#
# Total GULP energy -446029.247495 kJ/mol
# GULP energy per Si atom -12389.701319 kJ/mol
# Density = 1.832126 g / cm^3
# Si number density = 18.363060 Si / 1000 Ang^3
#
#
#
# Elastic Constant Matrix: (Units=GPa)
#
#
# Indices 1 2 3 4 5 6 
#
# 1 152.1876 45.6716 23.4037 0.0000 0.0000 0.0000
# 2 45.6716 99.4660 26.5047 0.0000 0.0000 0.0000
# 3 23.4037 26.5047 56.2594 0.0000 0.0000 0.0000
# 4 0.0000 0.0000 0.0000 30.3684 0.0000 0.0000
# 5 0.0000 0.0000 0.0000 0.0000 16.1088 0.0000
# 6 0.0000 0.0000 0.0000 0.0000 0.0000 11.4367
#
#
#
# Elastic Compliance Matrix: (Units=1/GPa)
#
#
# Indices 1 2 3 4 5 6 
#
# 1 0.007773 -0.003096 -0.001775 0.000000 0.000000 0.000000
# 2 -0.003096 0.012730 -0.004709 0.000000 0.000000 0.000000
# 3 -0.001775 -0.004709 0.020732 0.000000 0.000000 0.000000
# 4 0.000000 0.000000 0.000000 0.032929 0.000000 0.000000
# 5 0.000000 0.000000 0.000000 0.000000 0.062078 0.000000
# 6 0.000000 0.000000 0.000000 0.000000 0.000000 0.087438
#
#
# Mechanical properties :
#
#
# Convention : Reuss Voigt Hill
#
# Bulk Modulus (GPa) = 45.30188 55.45255 50.37721
# Shear Modulus (GPa) = 19.98415 25.73833 22.86124
#
# Velocity S-wave (km/s) = 3.30249 3.74791 3.53222
# Velocity P-wave (km/s) = 6.26622 6.99946 6.64297
#
# Compressibility (1/GPa) = 0.02207414
#
# Stress axis : x y z
#
# Youngs Moduli (GPa) = 128.65159 78.55301 48.23495
#
# Poissons Ratio (x) = 0.24321 0.08561
# Poissons Ratio (y) = 0.39832 0.22716
# Poissons Ratio (z) = 0.22834 0.36994
#
# Static dielectric constant tensor:
#      x y z
#    x 3.374390 0.000000 0.000000 
#    y 0.000000 4.002290 0.000000 
#    z 0.000000 0.000000 3.288700 
# 
# 
# High freq. dielectric constant tensor:
#      x y z
#    x 1.707060 0.000000 0.000000 
#    y 0.000000 1.707750 0.000000 
#    z 0.000000 0.000000 1.698310 
# 
# From -- ./inp_files/9880.got.cif
#   From: 2010.03.12/outbox.cif.g09.slc.cpg/sg67_5_cif.got.tgz:9880.got - 2010.04.10 22:41:39.
