data_PCOD8278823
_publ_section_title
;
Structure prediction by ZEFSAII (Michael W. Deem and Ramdas Pophale) SiO2 
 PCOD8278823
Probable space group: C M M A
;
_chemical_formula_sum "Si O2"
_cell_formula_units_Z 80
_cell_length_a 18.579859
_cell_length_b 8.771333
_cell_length_c 26.153231
_cell_angle_alpha 90.000000
_cell_angle_beta 90.000000
_cell_angle_gamma 90.000000
_cell_volume 4262.195466
_symmetry_space_group_name_H-M "C M M A"
_symmetry_group_IT_number 67
_symmetry_cell_setting 'orthorhombic'
loop_
_space_group_symop_operation_xyz
x,y,z
-x,1/2-y,z
x,-y,-z
-x,1/2+y,-z
-x,-y,-z
x,1/2+y,-z
-x,y,z
x,1/2-y,z
1/2+x,1/2+y,z
1/2-x,-y,z
1/2+x,1/2-y,-z
1/2-x,y,-z
1/2-x,1/2-y,-z
1/2+x,y,-z
1/2-x,1/2+y,z
1/2+x,-y,z
loop_
_atom_site_type_symbol
_atom_site_label
_atom_site_fract_x
_atom_site_fract_y
_atom_site_fract_z
Si Si1 0.583809 0.426483 0.859645
Si Si2 0.171409 0.070553 0.239677
Si Si3 0.325483 0.069881 0.054354
Si Si4 0.171359 0.572022 0.450948
Si Si5 0.171547 0.071302 0.659723
O O1 0.500000 0.458769 0.853283
O O2 0.599782 0.250000 0.871948
O O3 0.621726 0.478096 0.807418
O O4 0.612742 0.529420 0.905585
O O5 0.179020 0.250000 0.244375
O O6 0.250000 0.000000 0.231368
O O7 0.132685 0.006591 0.291546
O O8 0.317345 0.250000 0.048964
O O9 0.250000 0.000000 0.073576
O O10 0.347726 0.000000 0.000000
O O11 0.128790 0.500000 0.500000
O O12 0.178600 0.750000 0.460257
O O13 0.250000 0.500000 0.449269
O O14 0.133171 0.539441 0.395627
O O15 0.177607 0.250000 0.669914
O O16 0.250000 0.000000 0.657517
#
# Coordination Sequence:
#
# PCOD8278823 Si02
#       5
#    16  16  16  16  16
#     4  10  22  39  56  77 107 139 172 212 256 302
#     4  10  19  31  50  72  95 128 166 206 250 295
#     4  11  22  38  61  86 111 140 174 210 250 296
#     4   9  15  21  31  49  76 112 149 187 234 286
#     4   9  16  25  38  58  85 117 155 198 241 289
#
# _framework density 18.769670000000001
#
# number of rings (size 3 to 8) (size 9 to 14) (size 15 to 20)
#    0.000    2.200    0.000    6.600    0.000    6.400 
#    0.000    0.000    0.000    0.000    0.000    0.000 
#    0.000    0.800    0.000    1.800    0.000    8.200 
#
# Total GULP energy -495679.547579 kJ/mol
# GULP energy per Si atom -12391.988689 kJ/mol
# Density = 1.872695 g / cm^3
# Si number density = 18.769670 Si / 1000 Ang^3
#
#
#
# Elastic Constant Matrix: (Units=GPa)
#
#
# Indices 1 2 3 4 5 6 
#
# 1 56.0573 32.7420 58.5637 0.0000 0.0000 0.0000
# 2 32.7420 122.5947 73.7712 0.0000 0.0000 0.0000
# 3 58.5637 73.7712 180.2560 0.0000 0.0000 0.0000
# 4 0.0000 0.0000 0.0000 39.4388 0.0000 0.0000
# 5 0.0000 0.0000 0.0000 0.0000 0.7010 0.0000
# 6 0.0000 0.0000 0.0000 0.0000 0.0000 15.2932
#
#
#
# Elastic Compliance Matrix: (Units=1/GPa)
#
#
# Indices 1 2 3 4 5 6 
#
# 1 0.027626 -0.002623 -0.007902 0.000000 0.000000 0.000000
# 2 -0.002623 0.011071 -0.003679 0.000000 0.000000 0.000000
# 3 -0.007902 -0.003679 0.009620 0.000000 0.000000 0.000000
# 4 0.000000 0.000000 0.000000 0.025356 0.000000 0.000000
# 5 0.000000 0.000000 0.000000 0.000000 1.426483 0.000000
# 6 0.000000 0.000000 0.000000 0.000000 0.000000 0.065389
#
#
# Mechanical properties :
#
#
# Convention : Reuss Voigt Hill
#
# Bulk Modulus (GPa) = 50.22566 76.56243 63.39405
# Shear Modulus (GPa) = 3.12385 24.00868 13.56626
#
# Velocity S-wave (km/s) = 1.29148 3.58036 2.69137
# Velocity P-wave (km/s) = 5.38896 7.61387 6.59591
#
# Compressibility (1/GPa) = 0.01991014
#
# Stress axis : x y z
#
# Youngs Moduli (GPa) = 36.19720 90.32422 103.94480
#
# Poissons Ratio (x) = 0.23695 0.82137
# Poissons Ratio (y) = 0.09496 0.38238
# Poissons Ratio (z) = 0.28603 0.33227
#
# Static dielectric constant tensor:
#      x y z
#    x 2.883430 0.000000 0.000000 
#    y 0.000000 3.566690 0.000000 
#    z 0.000000 0.000000 4.508890 
# 
# 
# High freq. dielectric constant tensor:
#      x y z
#    x 1.657030 0.000000 0.000000 
#    y 0.000000 1.742950 0.000000 
#    z 0.000000 0.000000 1.763770 
# 
# From -- ./inp_files/44427.got.cif
#   From: 2010.03.12/outbox.cif.g09.slc.cpg/sg67_23_cif.got.tgz:44427.got - 2010.04.10 22:41:39.
