data_PCOD8278783
_publ_section_title
;
Structure prediction by ZEFSAII (Michael W. Deem and Ramdas Pophale) SiO2 
 PCOD8278783
Probable space group: C M M A
;
_chemical_formula_sum "Si O2"
_cell_formula_units_Z 80
_cell_length_a 30.551866
_cell_length_b 8.748490
_cell_length_c 19.029342
_cell_angle_alpha 90.000000
_cell_angle_beta 90.000000
_cell_angle_gamma 90.000000
_cell_volume 5086.213798
_symmetry_space_group_name_H-M "C M M A"
_symmetry_group_IT_number 67
_symmetry_cell_setting 'orthorhombic'
loop_
_space_group_symop_operation_xyz
x,y,z
-x,1/2-y,z
x,-y,-z
-x,1/2+y,-z
-x,-y,-z
x,1/2+y,-z
-x,y,z
x,1/2-y,z
1/2+x,1/2+y,z
1/2-x,-y,z
1/2+x,1/2-y,-z
1/2-x,y,-z
1/2-x,1/2-y,-z
1/2+x,y,-z
1/2-x,1/2+y,z
1/2+x,-y,z
loop_
_atom_site_type_symbol
_atom_site_label
_atom_site_fract_x
_atom_site_fract_y
_atom_site_fract_z
Si Si1 0.294650 0.078207 0.661474
Si Si2 0.297030 0.931042 0.926601
Si Si3 0.948947 0.427457 0.426657
Si Si4 0.840402 0.577583 0.798358
Si Si5 0.118930 0.430479 0.674474
O O1 0.295857 0.250000 0.631281
O O2 0.297707 0.079721 0.746981
O O3 0.250000 0.000000 0.636331
O O4 0.337152 0.985859 0.632457
O O5 0.293122 0.750000 0.932657
O O6 0.250000 0.000000 0.907175
O O7 0.331524 0.976725 0.866897
O O8 0.313994 0.000000 0.000000
O O9 0.933753 0.500000 0.500000
O O10 0.936846 0.250000 0.427725
O O11 0.924171 0.509836 0.363523
O O12 0.000000 0.456027 0.413730
O O13 0.853128 0.750000 0.820652
O O14 0.880125 0.501034 0.753688
O O15 0.118153 0.250000 0.678953
#
# Coordination Sequence:
#
# PCOD8278783 Si02
#       5
#    16  16  16  16  16
#     4   9  17  27  43  64  89 120 157 196 234 273
#     4  11  20  29  41  59  87 123 163 205 248 290
#     4  10  20  35  55  78 103 129 156 190 237 291
#     4   9  18  30  44  62  88 121 160 201 239 281
#     4  10  19  31  48  71  97 126 161 199 239 284
#
# _framework density 15.728792
#
# number of rings (size 3 to 8) (size 9 to 14) (size 15 to 20)
#    1.200    1.000    0.000    6.000    0.000    2.800 
#    0.000    0.000    0.000    0.600    0.000    4.200 
#    0.000    0.800    0.000    3.000    0.000    4.600 
#
# Total GULP energy -495729.405419 kJ/mol
# GULP energy per Si atom -12393.235135 kJ/mol
# Density = 1.569299 g / cm^3
# Si number density = 15.728792 Si / 1000 Ang^3
#
#
#
# Elastic Constant Matrix: (Units=GPa)
#
#
# Indices 1 2 3 4 5 6 
#
# 1 48.7280 37.5853 36.7334 0.0000 0.0000 0.0000
# 2 37.5853 156.9560 45.8818 0.0000 0.0000 0.0000
# 3 36.7334 45.8818 81.0909 0.0000 0.0000 0.0000
# 4 0.0000 0.0000 0.0000 26.8003 0.0000 0.0000
# 5 0.0000 0.0000 0.0000 0.0000 49.6885 0.0000
# 6 0.0000 0.0000 0.0000 0.0000 0.0000 25.6103
#
#
#
# Elastic Compliance Matrix: (Units=1/GPa)
#
#
# Indices 1 2 3 4 5 6 
#
# 1 0.033408 -0.004285 -0.012709 0.000000 0.000000 0.000000
# 2 -0.004285 0.008183 -0.002689 0.000000 0.000000 0.000000
# 3 -0.012709 -0.002689 0.019610 0.000000 0.000000 0.000000
# 4 0.000000 0.000000 0.000000 0.037313 0.000000 0.000000
# 5 0.000000 0.000000 0.000000 0.000000 0.020125 0.000000
# 6 0.000000 0.000000 0.000000 0.000000 0.000000 0.039047
#
#
# Mechanical properties :
#
#
# Convention : Reuss Voigt Hill
#
# Bulk Modulus (GPa) = 45.79699 58.57509 52.18604
# Shear Modulus (GPa) = 24.47005 31.52478 27.99742
#
# Velocity S-wave (km/s) = 3.94858 4.48177 4.22359
# Velocity P-wave (km/s) = 7.06882 8.00645 7.55220
#
# Compressibility (1/GPa) = 0.02183550
#
# Stress axis : x y z
#
# Youngs Moduli (GPa) = 29.93321 122.19862 50.99315
#
# Poissons Ratio (x) = 0.52360 0.64807
# Poissons Ratio (y) = 0.12826 0.13713
# Poissons Ratio (z) = 0.38042 0.32862
#
# Static dielectric constant tensor:
#      x y z
#    x 2.686080 0.000000 0.000000 
#    y 0.000000 3.115520 0.000000 
#    z 0.000000 0.000000 2.823380 
# 
# 
# High freq. dielectric constant tensor:
#      x y z
#    x 1.565690 0.000000 0.000000 
#    y 0.000000 1.629280 0.000000 
#    z 0.000000 0.000000 1.580280 
# 
# From -- ./inp_files/36076.got.cif
#   From: 2010.03.12/outbox.cif.g09.slc.cpg/sg67_19_cif.got.tgz:36076.got - 2010.04.10 22:41:39.
