data_PCOD8278292
_publ_section_title
;
Structure prediction by ZEFSAII (Michael W. Deem and Ramdas Pophale) SiO2 
 PCOD8278292
Probable space group: C M M A
;
_chemical_formula_sum "Si O2"
_cell_formula_units_Z 128
_cell_length_a 19.484881
_cell_length_b 18.192197
_cell_length_c 20.247983
_cell_angle_alpha 90.000000
_cell_angle_beta 90.000000
_cell_angle_gamma 90.000000
_cell_volume 7177.359100
_symmetry_space_group_name_H-M "C M M A"
_symmetry_group_IT_number 67
_symmetry_cell_setting 'orthorhombic'
loop_
_space_group_symop_operation_xyz
x,y,z
-x,1/2-y,z
x,-y,-z
-x,1/2+y,-z
-x,-y,-z
x,1/2+y,-z
-x,y,z
x,1/2-y,z
1/2+x,1/2+y,z
1/2-x,-y,z
1/2+x,1/2-y,-z
1/2-x,y,-z
1/2-x,1/2-y,-z
1/2+x,y,-z
1/2-x,1/2+y,z
1/2+x,-y,z
loop_
_atom_site_type_symbol
_atom_site_label
_atom_site_fract_x
_atom_site_fract_y
_atom_site_fract_z
Si Si1 0.854751 0.663693 0.380265
Si Si2 0.186425 0.833672 0.152019
Si Si3 0.696731 0.833339 0.369185
Si Si4 0.079169 0.393422 0.748256
Si Si5 0.168847 0.416426 0.492330
Si Si6 0.920722 0.037372 0.176355
Si Si7 0.178241 0.527146 0.074671
Si Si8 0.170210 0.166739 0.219200
O O1 0.871011 0.750000 0.377964
O O2 0.776354 0.645008 0.363359
O O3 0.901946 0.621671 0.327592
O O4 0.870993 0.632171 0.453198
O O5 0.188339 0.750000 0.126940
O O6 0.123996 0.842931 0.203176
O O7 0.176961 0.884526 0.086784
O O8 0.255411 0.855670 0.191325
O O9 0.690620 0.750000 0.395543
O O10 0.653508 0.885324 0.418998
O O11 0.665287 0.842841 0.297470
O O12 0.092387 0.479630 0.764095
O O13 0.000000 0.372903 0.760520
O O14 0.143774 0.500000 0.500000
O O15 0.250000 0.408473 0.500000
O O16 0.888898 0.116135 0.190666
O O17 0.000000 0.048975 0.161500
O O18 0.887012 0.006954 0.110058
O O19 0.250000 0.500000 0.106286
O O20 0.174091 0.500000 0.000000
O O21 0.153480 0.250000 0.198491
#
# Coordination Sequence:
#
# PCOD8278292 Si02
#       8
#    16  16  16  16  16  16  16  16
#     4  10  18  30  48  71 103 138 174 222 279 333
#     4  10  19  35  57  86 116 144 184 229 276 323
#     4   9  17  30  48  73 103 136 175 223 274 323
#     4  10  21  34  53  81 112 144 182 230 285 339
#     4   9  18  29  42  70 102 135 175 219 269 326
#     4  10  22  38  56  82 112 148 185 224 275 324
#     4  10  20  37  59  85 116 150 186 218 264 325
#     4  10  19  33  56  83 109 143 185 230 277 322
#
# _framework density 17.833856999999998
#
# number of rings (size 3 to 8) (size 9 to 14) (size 15 to 20)
#    0.000    2.250    2.500    0.750    1.750    3.000 
#    0.000    1.875    0.000    1.125    0.000    1.750 
#    0.000    0.000    0.000    0.000    0.000    0.000 
#
# Total GULP energy -793462.881406 kJ/mol
# GULP energy per Si atom -12397.857522 kJ/mol
# Density = 1.779327 g / cm^3
# Si number density = 17.833857 Si / 1000 Ang^3
#
#
#
# Elastic Constant Matrix: (Units=GPa)
#
#
# Indices 1 2 3 4 5 6 
#
# 1 97.8752 54.8222 41.5787 0.0000 0.0000 0.0000
# 2 54.8222 118.7501 65.8387 0.0000 0.0000 0.0000
# 3 41.5787 65.8387 103.5746 0.0000 0.0000 0.0000
# 4 0.0000 0.0000 0.0000 24.8153 0.0000 0.0000
# 5 0.0000 0.0000 0.0000 0.0000 19.2029 0.0000
# 6 0.0000 0.0000 0.0000 0.0000 0.0000 17.7875
#
#
#
# Elastic Compliance Matrix: (Units=1/GPa)
#
#
# Indices 1 2 3 4 5 6 
#
# 1 0.014144 -0.005222 -0.002358 0.000000 0.000000 0.000000
# 2 -0.005222 0.014932 -0.007396 0.000000 0.000000 0.000000
# 3 -0.002358 -0.007396 0.015303 0.000000 0.000000 0.000000
# 4 0.000000 0.000000 0.000000 0.040298 0.000000 0.000000
# 5 0.000000 0.000000 0.000000 0.000000 0.052075 0.000000
# 6 0.000000 0.000000 0.000000 0.000000 0.000000 0.056219
#
#
# Mechanical properties :
#
#
# Convention : Reuss Voigt Hill
#
# Bulk Modulus (GPa) = 69.31547 71.63101 70.47324
# Shear Modulus (GPa) = 21.95559 22.89183 22.42371
#
# Velocity S-wave (km/s) = 3.51254 3.58665 3.54978
# Velocity P-wave (km/s) = 7.44327 7.57661 7.51023
#
# Compressibility (1/GPa) = 0.01442679
#
# Stress axis : x y z
#
# Youngs Moduli (GPa) = 70.70127 66.96933 65.34798
#
# Poissons Ratio (x) = 0.34972 0.15412
# Poissons Ratio (y) = 0.36921 0.48328
# Poissons Ratio (z) = 0.16674 0.49527
#
# Static dielectric constant tensor:
#      x y z
#    x 3.131870 0.000000 0.000000 
#    y 0.000000 3.399060 0.000000 
#    z 0.000000 0.000000 3.215010 
# 
# 
# High freq. dielectric constant tensor:
#      x y z
#    x 1.662980 0.000000 0.000000 
#    y 0.000000 1.698130 0.000000 
#    z 0.000000 0.000000 1.681850 
# 
# From -- ./inp_files/39415.got.cif
#   From: 2010.03.12/outbox.cif.g09.slc.cpg/sg67_20_cif.got.tgz:39415.got - 2010.04.10 22:41:39.
