data_PCOD8278002
_publ_section_title
;
Structure prediction by ZEFSAII (Michael W. Deem and Ramdas Pophale) SiO2 
 PCOD8278002
Probable space group: C M M A
;
_chemical_formula_sum "Si O2"
_cell_formula_units_Z 80
_cell_length_a 18.568967
_cell_length_b 8.692960
_cell_length_c 26.560503
_cell_angle_alpha 90.000000
_cell_angle_beta 90.000000
_cell_angle_gamma 90.000000
_cell_volume 4287.377467
_symmetry_space_group_name_H-M "C M M A"
_symmetry_group_IT_number 67
_symmetry_cell_setting 'orthorhombic'
loop_
_space_group_symop_operation_xyz
x,y,z
-x,1/2-y,z
x,-y,-z
-x,1/2+y,-z
-x,-y,-z
x,1/2+y,-z
-x,y,z
x,1/2-y,z
1/2+x,1/2+y,z
1/2-x,-y,z
1/2+x,1/2-y,-z
1/2-x,y,-z
1/2-x,1/2-y,-z
1/2+x,y,-z
1/2-x,1/2+y,z
1/2+x,-y,z
loop_
_atom_site_type_symbol
_atom_site_label
_atom_site_fract_x
_atom_site_fract_y
_atom_site_fract_z
Si Si1 0.671092 0.431558 0.857845
Si Si2 0.414971 0.426606 0.052403
Si Si3 0.670026 0.932107 0.756197
Si Si4 0.171018 0.930186 0.657529
Si Si5 0.671074 0.929107 0.451431
O O1 0.677411 0.250000 0.852528
O O2 0.750000 0.500000 0.867030
O O3 0.620409 0.474841 0.903782
O O4 0.634307 0.500717 0.807006
O O5 0.500000 0.440047 0.058538
O O6 0.389200 0.250000 0.054847
O O7 0.389267 0.500000 0.000000
O O8 0.670141 0.750000 0.758766
O O9 0.750000 0.000000 0.754263
O O10 0.629659 0.989251 0.704808
O O11 0.176502 0.750000 0.668605
O O12 0.132671 0.961824 0.603020
O O13 0.250000 0.000000 0.653945
O O14 0.678240 0.750000 0.460423
O O15 0.628483 0.000000 0.500000
O O16 0.750000 0.000000 0.449979
#
# Coordination Sequence:
#
# PCOD8278002 Si02
#       5
#    16  16  16  16  16
#     4  11  21  34  52  74 101 129 161 200 241 283
#     4  10  21  38  58  79 103 130 161 195 233 280
#     4  10  17  26  40  58  81 109 142 181 227 275
#     4   9  15  22  31  45  65  93 129 170 217 266
#     4   9  15  20  27  38  56  83 120 166 212 258
#
# _framework density 18.659424999999999
#
# number of rings (size 3 to 8) (size 9 to 14) (size 15 to 20)
#    0.000    2.200    0.000    8.400    0.000    4.000 
#    0.000    2.000    0.000    0.000    0.000    0.000 
#    0.000    0.000    0.000    0.000    0.000    1.000 
#
# Total GULP energy -495542.564162 kJ/mol
# GULP energy per Si atom -12388.564104 kJ/mol
# Density = 1.861696 g / cm^3
# Si number density = 18.659425 Si / 1000 Ang^3
#
#
#
# Elastic Constant Matrix: (Units=GPa)
#
#
# Indices 1 2 3 4 5 6 
#
# 1 8.7952 14.0772 21.4072 0.0000 0.0000 0.0000
# 2 14.0772 169.1541 84.7091 0.0000 0.0000 0.0000
# 3 21.4072 84.7091 215.6773 0.0000 0.0000 0.0000
# 4 0.0000 0.0000 0.0000 40.7556 0.0000 0.0000
# 5 0.0000 0.0000 0.0000 0.0000 -3.3367 0.0000
# 6 0.0000 0.0000 0.0000 0.0000 0.0000 12.9399
#
#
#
# Elastic Compliance Matrix: (Units=1/GPa)
#
#
# Indices 1 2 3 4 5 6 
#
# 1 0.155426 -0.006485 -0.012880 0.000000 0.000000 0.000000
# 2 -0.006485 0.007630 -0.002353 0.000000 0.000000 0.000000
# 3 -0.012880 -0.002353 0.006839 0.000000 0.000000 0.000000
# 4 0.000000 0.000000 0.000000 0.024537 0.000000 0.000000
# 5 0.000000 0.000000 0.000000 0.000000 -0.299695 0.000000
# 6 0.000000 0.000000 0.000000 0.000000 0.000000 0.077280
#
#
# Mechanical properties :
#
#
# Convention : Reuss Voigt Hill
#
# Bulk Modulus (GPa) = 7.90765 70.44597 39.17681
# Shear Modulus (GPa) = 86.79705 28.30062 57.54884
#
# Velocity S-wave (km/s) = 6.82770 3.89870 5.55956
# Velocity P-wave (km/s) = 8.14885 7.62247 7.89005
#
# Compressibility (1/GPa) = 0.12645981
#
# Stress axis : x y z
#
# Youngs Moduli (GPa) = 6.43392 131.06533 146.21732
#
# Poissons Ratio (x) = 0.84992 1.88328
# Poissons Ratio (y) = 0.04172 0.34405
# Poissons Ratio (z) = 0.08287 0.30840
#
# Static dielectric constant tensor:
#      x y z
#    x 2.593660 0.000000 0.000000 
#    y 0.000000 3.627160 0.000000 
#    z 0.000000 0.000000 5.152080 
# 
# 
# High freq. dielectric constant tensor:
#      x y z
#    x 1.620460 0.000000 0.000000 
#    y 0.000000 1.748050 0.000000 
#    z 0.000000 0.000000 1.769470 
# 
# From -- ./inp_files/44415.got.cif
#   From: 2010.03.12/outbox.cif.g09.slc.cpg/sg67_23_cif.got.tgz:44415.got - 2010.04.10 22:41:39.
