data_PCOD8278203
_publ_section_title
;
Structure prediction by ZEFSAII (Michael W. Deem and Ramdas Pophale) SiO2 
 PCOD8278203
Probable space group: C M M A
;
_chemical_formula_sum "Si O2"
_cell_formula_units_Z 120
_cell_length_a 14.634576
_cell_length_b 20.260432
_cell_length_c 20.229907
_cell_angle_alpha 90.000000
_cell_angle_beta 90.000000
_cell_angle_gamma 90.000000
_cell_volume 5998.224715
_symmetry_space_group_name_H-M "C M M A"
_symmetry_group_IT_number 67
_symmetry_cell_setting 'orthorhombic'
loop_
_space_group_symop_operation_xyz
x,y,z
-x,1/2-y,z
x,-y,-z
-x,1/2+y,-z
-x,-y,-z
x,1/2+y,-z
-x,y,z
x,1/2-y,z
1/2+x,1/2+y,z
1/2-x,-y,z
1/2+x,1/2-y,-z
1/2-x,y,-z
1/2-x,1/2-y,-z
1/2+x,y,-z
1/2-x,1/2+y,z
1/2+x,-y,z
loop_
_atom_site_type_symbol
_atom_site_label
_atom_site_fract_x
_atom_site_fract_y
_atom_site_fract_z
Si Si1 0.103818 0.088819 0.039009
Si Si2 0.605277 0.174343 0.455513
Si Si3 0.782737 0.328658 0.666925
Si Si4 0.399756 0.328082 0.600748
Si Si5 0.250000 0.500000 0.111403
Si Si6 0.899615 0.326429 0.163050
Si Si7 0.714800 0.878785 0.804645
Si Si8 0.394556 0.323584 0.081485
O O1 0.104437 0.151225 0.087245
O O2 0.000000 0.060362 0.033507
O O3 0.171868 0.031547 0.064300
O O4 0.138942 0.119352 0.969475
O O5 0.500000 0.166021 0.436920
O O6 0.635884 0.250000 0.457362
O O7 0.663558 0.142225 0.396337
O O8 0.625684 0.142632 0.527753
O O9 0.796728 0.250000 0.678402
O O10 0.675874 0.346200 0.655062
O O11 0.821731 0.369500 0.730003
O O12 0.500000 0.354588 0.623302
O O13 0.405784 0.250000 0.591474
O O14 0.300392 0.449798 0.161620
O O15 0.877254 0.250000 0.166350
O O16 0.822962 0.364951 0.203469
O O17 0.000000 0.341740 0.193303
O O18 0.665157 0.826519 0.852160
O O19 0.500000 0.336307 0.099388
O O20 0.381940 0.250000 0.051398
#
# Coordination Sequence:
#
# PCOD8278203 Si02
#       8
#    16  16  16  16   8  16  16  16
#     4   9  19  37  60  80  99 130 171 215 261 305
#     4   8  14  25  42  67 100 134 166 202 246 301
#     4  10  18  28  45  70 101 135 168 203 252 312
#     4   8  14  25  43  70 102 132 163 202 248 300
#     4  10  24  41  56  76 103 138 186 230 259 292
#     4   9  17  31  52  76 100 125 158 205 261 316
#     4  11  23  36  50  73 106 143 177 211 255 310
#     4  10  21  37  58  84 109 129 157 206 268 328
#
# _framework density 20.005918999999999
#
# number of rings (size 3 to 8) (size 9 to 14) (size 15 to 20)
#    0.000    2.667    0.000    2.800    0.000    8.000 
#    0.000    7.333    0.000    0.800    0.000    1.867 
#    0.000    2.133    0.000    0.000    0.000    0.000 
#
# Total GULP energy -743486.819220 kJ/mol
# GULP energy per Si atom -12391.446987 kJ/mol
# Density = 1.996038 g / cm^3
# Si number density = 20.005919 Si / 1000 Ang^3
#
#
#
# Elastic Constant Matrix: (Units=GPa)
#
#
# Indices 1 2 3 4 5 6 
#
# 1 62.1155 25.9252 33.6424 0.0000 0.0000 0.0000
# 2 25.9252 62.3178 30.9908 0.0000 0.0000 0.0000
# 3 33.6424 30.9908 111.6186 0.0000 0.0000 0.0000
# 4 0.0000 0.0000 0.0000 17.7363 0.0000 0.0000
# 5 0.0000 0.0000 0.0000 0.0000 20.8021 0.0000
# 6 0.0000 0.0000 0.0000 0.0000 0.0000 19.3441
#
#
#
# Elastic Compliance Matrix: (Units=1/GPa)
#
#
# Indices 1 2 3 4 5 6 
#
# 1 0.021342 -0.006590 -0.004603 0.000000 0.000000 0.000000
# 2 -0.006590 0.020652 -0.003748 0.000000 0.000000 0.000000
# 3 -0.004603 -0.003748 0.011387 0.000000 0.000000 0.000000
# 4 0.000000 0.000000 0.000000 0.056381 0.000000 0.000000
# 5 0.000000 0.000000 0.000000 0.000000 0.048072 0.000000
# 6 0.000000 0.000000 0.000000 0.000000 0.000000 0.051695
#
#
# Mechanical properties :
#
#
# Convention : Reuss Voigt Hill
#
# Bulk Modulus (GPa) = 42.55266 46.35206 44.45236
# Shear Modulus (GPa) = 20.22284 21.27607 20.74945
#
# Velocity S-wave (km/s) = 3.18282 3.26466 3.22400
# Velocity P-wave (km/s) = 5.90113 6.11801 6.01055
#
# Compressibility (1/GPa) = 0.02350029
#
# Stress axis : x y z
#
# Youngs Moduli (GPa) = 46.85493 48.42143 87.81887
#
# Poissons Ratio (x) = 0.31908 0.40424
# Poissons Ratio (y) = 0.30876 0.32913
# Poissons Ratio (z) = 0.21568 0.18148
#
# Static dielectric constant tensor:
#      x y z
#    x 3.893010 0.000000 0.000000 
#    y 0.000000 3.197680 0.000000 
#    z 0.000000 0.000000 3.746630 
# 
# 
# High freq. dielectric constant tensor:
#      x y z
#    x 1.791050 0.000000 0.000000 
#    y 0.000000 1.722450 0.000000 
#    z 0.000000 0.000000 1.778690 
# 
# From -- ./inp_files/38721.got.cif
#   From: 2010.03.12/outbox.cif.g09.slc.cpg/sg67_20_cif.got.tgz:38721.got - 2010.04.10 22:41:39.
