data_PCOD8278477
_publ_section_title
;
Structure prediction by ZEFSAII (Michael W. Deem and Ramdas Pophale) SiO2 
 PCOD8278477
Probable space group: C M M A
;
_chemical_formula_sum "Si O2"
_cell_formula_units_Z 120
_cell_length_a 8.702755
_cell_length_b 26.744806
_cell_length_c 27.938832
_cell_angle_alpha 90.000000
_cell_angle_beta 90.000000
_cell_angle_gamma 90.000000
_cell_volume 6502.860770
_symmetry_space_group_name_H-M "C M M A"
_symmetry_group_IT_number 67
_symmetry_cell_setting 'orthorhombic'
loop_
_space_group_symop_operation_xyz
x,y,z
-x,1/2-y,z
x,-y,-z
-x,1/2+y,-z
-x,-y,-z
x,1/2+y,-z
-x,y,z
x,1/2-y,z
1/2+x,1/2+y,z
1/2-x,-y,z
1/2+x,1/2-y,-z
1/2-x,y,-z
1/2-x,1/2-y,-z
1/2+x,y,-z
1/2-x,1/2+y,z
1/2+x,-y,z
loop_
_atom_site_type_symbol
_atom_site_label
_atom_site_fract_x
_atom_site_fract_y
_atom_site_fract_z
Si Si1 0.320456 0.642574 0.549074
Si Si2 0.317456 0.553452 0.890679
Si Si3 0.315734 0.250000 0.053205
Si Si4 0.675808 0.307215 0.353944
Si Si5 0.683731 0.852782 0.052981
Si Si6 0.820968 0.448605 0.780988
Si Si7 0.678308 0.392875 0.697906
Si Si8 0.318387 0.053403 0.602343
O O1 0.500000 0.634990 0.542402
O O2 0.250000 0.663822 0.500000
O O3 0.280470 0.681813 0.590987
O O4 0.244942 0.589540 0.561394
O O5 0.500000 0.553972 0.899263
O O6 0.250000 0.500000 0.908355
O O7 0.237845 0.598628 0.918406
O O8 0.271763 0.562002 0.835435
O O9 0.500000 0.250000 0.054257
O O10 0.251220 0.301433 0.077237
O O11 0.250000 0.250000 0.000000
O O12 0.500000 0.323155 0.344699
O O13 0.705227 0.250000 0.342914
O O14 0.784304 0.336367 0.317138
O O15 0.500000 0.850015 0.051866
O O16 0.750000 0.858258 0.000000
O O17 0.750000 0.500000 0.761764
O O18 0.764802 0.404022 0.747269
O O19 0.000000 0.454272 0.776600
O O20 0.500000 0.399387 0.707583
O O21 0.736536 0.428720 0.654975
O O22 0.500000 0.052385 0.599403
O O23 0.250000 0.000000 0.591273
#
# Coordination Sequence:
#
# PCOD8278477 Si02
#       8
#    16  16   8  16  16  16  16  16
#     4  10  20  34  51  72  99 130 165 204 247 298
#     4  10  21  37  55  80 112 148 187 228 276 330
#     4  10  18  32  54  80 108 140 182 230 276 324
#     4   9  19  36  56  76 100 132 168 208 256 307
#     4  11  21  35  56  82 112 148 189 235 282 330
#     4  10  20  34  55  80 109 142 176 214 259 311
#     4  10  20  33  53  79 105 132 167 211 256 305
#     4  10  20  33  49  72 100 130 164 203 247 296
#
# _framework density 18.453417999999999
#
# number of rings (size 3 to 8) (size 9 to 14) (size 15 to 20)
#    0.000    2.000    0.000    5.000    0.000    5.867 
#    0.000    2.667    1.467    0.000    0.000    0.000 
#    0.000    0.000    0.000    0.000    0.000    0.000 
#
# Total GULP energy -744043.618461 kJ/mol
# GULP energy per Si atom -12400.726974 kJ/mol
# Density = 1.841142 g / cm^3
# Si number density = 18.453418 Si / 1000 Ang^3
#
#
#
# Elastic Constant Matrix: (Units=GPa)
#
#
# Indices 1 2 3 4 5 6 
#
# 1 91.6892 41.2936 36.3719 0.0000 0.0000 0.0000
# 2 41.2936 103.6420 43.1423 0.0000 0.0000 0.0000
# 3 36.3719 43.1423 76.1736 0.0000 0.0000 0.0000
# 4 0.0000 0.0000 0.0000 26.3758 0.0000 0.0000
# 5 0.0000 0.0000 0.0000 0.0000 29.9653 0.0000
# 6 0.0000 0.0000 0.0000 0.0000 0.0000 33.5289
#
#
#
# Elastic Compliance Matrix: (Units=1/GPa)
#
#
# Indices 1 2 3 4 5 6 
#
# 1 0.014510 -0.003791 -0.004781 0.000000 0.000000 0.000000
# 2 -0.003791 0.013615 -0.005901 0.000000 0.000000 0.000000
# 3 -0.004781 -0.005901 0.018753 0.000000 0.000000 0.000000
# 4 0.000000 0.000000 0.000000 0.037914 0.000000 0.000000
# 5 0.000000 0.000000 0.000000 0.000000 0.033372 0.000000
# 6 0.000000 0.000000 0.000000 0.000000 0.000000 0.029825
#
#
# Mechanical properties :
#
#
# Convention : Reuss Voigt Hill
#
# Bulk Modulus (GPa) = 55.76668 57.01337 56.39002
# Shear Modulus (GPa) = 27.33519 28.02047 27.67783
#
# Velocity S-wave (km/s) = 3.85295 3.90095 3.87702
# Velocity P-wave (km/s) = 7.07669 7.15910 7.11801
#
# Compressibility (1/GPa) = 0.01793185
#
# Stress axis : x y z
#
# Youngs Moduli (GPa) = 68.91569 73.44581 53.32408
#
# Poissons Ratio (x) = 0.27843 0.25497
# Poissons Ratio (y) = 0.26126 0.31468
# Poissons Ratio (z) = 0.32952 0.43342
#
# Static dielectric constant tensor:
#      x y z
#    x 3.504360 0.000000 0.000000 
#    y 0.000000 3.569090 0.000000 
#    z 0.000000 0.000000 3.335620 
# 
# 
# High freq. dielectric constant tensor:
#      x y z
#    x 1.731470 0.000000 0.000000 
#    y 0.000000 1.717080 0.000000 
#    z 0.000000 0.000000 1.697030 
# 
# From -- ./inp_files/43889.got.cif
#   From: 2010.03.12/outbox.cif.g09.slc.cpg/sg67_22_cif.got.tgz:43889.got - 2010.04.10 22:41:39.
