data_PCOD8278704
_publ_section_title
;
Structure prediction by ZEFSAII (Michael W. Deem and Ramdas Pophale) SiO2 
 PCOD8278704
Probable space group: C M M A
;
_chemical_formula_sum "Si O2"
_cell_formula_units_Z 88
_cell_length_a 8.768301
_cell_length_b 33.009786
_cell_length_c 15.950647
_cell_angle_alpha 90.000000
_cell_angle_beta 90.000000
_cell_angle_gamma 90.000000
_cell_volume 4616.751114
_symmetry_space_group_name_H-M "C M M A"
_symmetry_group_IT_number 67
_symmetry_cell_setting 'orthorhombic'
loop_
_space_group_symop_operation_xyz
x,y,z
-x,1/2-y,z
x,-y,-z
-x,1/2+y,-z
-x,-y,-z
x,1/2+y,-z
-x,y,z
x,1/2-y,z
1/2+x,1/2+y,z
1/2-x,-y,z
1/2+x,1/2-y,-z
1/2-x,y,-z
1/2-x,1/2-y,-z
1/2+x,y,-z
1/2-x,1/2+y,z
1/2+x,-y,z
loop_
_atom_site_type_symbol
_atom_site_label
_atom_site_fract_x
_atom_site_fract_y
_atom_site_fract_z
Si Si1 0.826666 0.313171 0.783872
Si Si2 0.174815 0.750000 0.086204
Si Si3 0.673810 0.404895 0.233784
Si Si4 0.318490 0.044347 0.913047
Si Si5 0.823638 0.795495 0.617946
Si Si6 0.320390 0.120889 0.416771
O O1 0.775793 0.290701 0.867134
O O2 0.816751 0.360302 0.804040
O O3 0.706735 0.297365 0.716424
O O4 0.000000 0.301788 0.755361
O O5 0.000000 0.750000 0.069064
O O6 0.250000 0.750000 0.000000
O O7 0.500000 0.421329 0.233255
O O8 0.776106 0.432068 0.172569
O O9 0.735644 0.401689 0.330988
O O10 0.500000 0.042796 0.921288
O O11 0.250000 0.000000 0.902460
O O12 0.250000 0.063538 0.000000
O O13 0.779788 0.750000 0.584989
O O14 0.722926 0.831387 0.577989
O O15 0.000000 0.804609 0.599462
O O16 0.500000 0.117717 0.420045
O O17 0.250000 0.099472 0.500000
#
# Coordination Sequence:
#
# PCOD8278704 Si02
#       6
#    16   8  16  16  16  16
#     4   9  18  33  51  69  97 137 181 226 273 326
#     4  10  20  32  46  66  95 134 179 226 276 324
#     4   9  19  36  57  83 112 146 185 227 278 333
#     4  11  22  38  62  90 120 150 179 222 272 330
#     4  10  19  30  48  72  98 132 178 231 282 332
#     4  10  21  36  55  78 109 147 187 233 280 331
#
# _framework density 19.061022999999999
#
# number of rings (size 3 to 8) (size 9 to 14) (size 15 to 20)
#    0.000    2.182    0.909    4.364    0.000    6.545 
#    0.000    1.818    0.000    0.545    0.000    3.818 
#    0.000    0.000    0.000    0.000    0.000    0.000 
#
# Total GULP energy -545118.679135 kJ/mol
# GULP energy per Si atom -12389.060889 kJ/mol
# Density = 1.901764 g / cm^3
# Si number density = 19.061023 Si / 1000 Ang^3
#
#
#
# Elastic Constant Matrix: (Units=GPa)
#
#
# Indices 1 2 3 4 5 6 
#
# 1 85.3296 30.0718 52.3346 0.0000 0.0000 0.0000
# 2 30.0718 55.8294 48.2597 0.0000 0.0000 0.0000
# 3 52.3346 48.2597 170.0586 0.0000 0.0000 0.0000
# 4 0.0000 0.0000 0.0000 18.4946 0.0000 0.0000
# 5 0.0000 0.0000 0.0000 0.0000 35.8687 0.0000
# 6 0.0000 0.0000 0.0000 0.0000 0.0000 24.9381
#
#
#
# Elastic Compliance Matrix: (Units=1/GPa)
#
#
# Indices 1 2 3 4 5 6 
#
# 1 0.015692 -0.005668 -0.003221 0.000000 0.000000 0.000000
# 2 -0.005668 0.025781 -0.005572 0.000000 0.000000 0.000000
# 3 -0.003221 -0.005572 0.008453 0.000000 0.000000 0.000000
# 4 0.000000 0.000000 0.000000 0.054070 0.000000 0.000000
# 5 0.000000 0.000000 0.000000 0.000000 0.027879 0.000000
# 6 0.000000 0.000000 0.000000 0.000000 0.000000 0.040099
#
#
# Mechanical properties :
#
#
# Convention : Reuss Voigt Hill
#
# Bulk Modulus (GPa) = 47.60918 63.61662 55.61290
# Shear Modulus (GPa) = 24.05025 27.89705 25.97365
#
# Velocity S-wave (km/s) = 3.55597 3.82981 3.69542
# Velocity P-wave (km/s) = 6.47235 7.28040 6.88824
#
# Compressibility (1/GPa) = 0.02100435
#
# Stress axis : x y z
#
# Youngs Moduli (GPa) = 63.72593 38.78775 118.30635
#
# Poissons Ratio (x) = 0.21987 0.38101
# Poissons Ratio (y) = 0.36123 0.65919
# Poissons Ratio (z) = 0.20523 0.21612
#
# Static dielectric constant tensor:
#      x y z
#    x 3.328040 0.000000 0.000000 
#    y 0.000000 3.473290 0.000000 
#    z 0.000000 0.000000 3.783990 
# 
# 
# High freq. dielectric constant tensor:
#      x y z
#    x 1.739830 0.000000 0.000000 
#    y 0.000000 1.710790 0.000000 
#    z 0.000000 0.000000 1.752150 
# 
# From -- ./inp_files/32452.got.cif
#   From: 2010.03.12/outbox.cif.g09.slc.cpg/sg67_17_cif.got.tgz:32452.got - 2010.04.10 22:41:39.
