data_PCOD8278431
_publ_section_title
;
Structure prediction by ZEFSAII (Michael W. Deem and Ramdas Pophale) SiO2 
 PCOD8278431
Probable space group: C M M A
;
_chemical_formula_sum "Si O2"
_cell_formula_units_Z 112
_cell_length_a 16.421470
_cell_length_b 19.952398
_cell_length_c 17.501948
_cell_angle_alpha 90.000000
_cell_angle_beta 90.000000
_cell_angle_gamma 90.000000
_cell_volume 5734.473098
_symmetry_space_group_name_H-M "C M M A"
_symmetry_group_IT_number 67
_symmetry_cell_setting 'orthorhombic'
loop_
_space_group_symop_operation_xyz
x,y,z
-x,1/2-y,z
x,-y,-z
-x,1/2+y,-z
-x,-y,-z
x,1/2+y,-z
-x,y,z
x,1/2-y,z
1/2+x,1/2+y,z
1/2-x,-y,z
1/2+x,1/2-y,-z
1/2-x,y,-z
1/2-x,1/2-y,-z
1/2+x,y,-z
1/2-x,1/2+y,z
1/2+x,-y,z
loop_
_atom_site_type_symbol
_atom_site_label
_atom_site_fract_x
_atom_site_fract_y
_atom_site_fract_z
Si Si1 0.160764 0.406201 0.033919
Si Si2 0.097109 0.088138 0.309692
Si Si3 0.592952 0.535789 0.894278
Si Si4 0.905205 0.673375 0.833904
Si Si5 0.903159 0.324880 0.447878
Si Si6 0.096423 0.059034 0.725447
Si Si7 0.902934 0.175037 0.618493
O O1 0.150332 0.473215 0.084729
O O2 0.141427 0.342967 0.087269
O O3 0.250000 0.400357 0.000000
O O4 0.099924 0.408546 0.960885
O O5 0.128562 0.127684 0.235028
O O6 0.132995 0.123111 0.386009
O O7 0.000000 0.090560 0.310868
O O8 0.129417 0.011877 0.306770
O O9 0.500000 0.510108 0.887291
O O10 0.622134 0.567114 0.813978
O O11 0.888588 0.750000 0.811810
O O12 0.000000 0.659226 0.847679
O O13 0.873057 0.250000 0.426925
O O14 0.872956 0.344056 0.533027
O O15 0.000000 0.326787 0.445507
O O16 0.134688 0.120675 0.677344
O O17 0.000000 0.060904 0.716765
O O18 0.872511 0.250000 0.640342
O O19 0.000000 0.173698 0.621210
#
# Coordination Sequence:
#
# PCOD8278431 Si02
#       7
#    16  16  16  16  16  16  16
#     4  11  21  33  50  72  97 127 163 202 256 307
#     4   9  15  24  39  63  90 121 166 207 243 287
#     4  10  18  32  52  71  94 124 165 208 248 297
#     4  10  19  32  50  71  98 133 170 209 253 297
#     4   8  13  21  34  54  86 127 163 195 237 292
#     4   9  16  25  41  63  88 121 161 206 246 284
#     4   8  14  24  36  55  88 128 162 193 240 296
#
# _framework density 19.531001
#
# number of rings (size 3 to 8) (size 9 to 14) (size 15 to 20)
#    0.000    2.714    1.429    3.857    0.000    2.571 
#    0.000    3.571    0.000    2.571    0.000    0.000 
#    0.000    1.143    0.857    4.571    1.714    4.286 
#
# Total GULP energy -694096.819672 kJ/mol
# GULP energy per Si atom -12394.586066 kJ/mol
# Density = 1.948655 g / cm^3
# Si number density = 19.531001 Si / 1000 Ang^3
#
#
#
# Elastic Constant Matrix: (Units=GPa)
#
#
# Indices 1 2 3 4 5 6 
#
# 1 28.4574 14.6006 15.5739 0.0000 0.0000 0.0000
# 2 14.6006 140.8894 102.5232 0.0000 0.0000 0.0000
# 3 15.5739 102.5232 178.3651 0.0000 0.0000 0.0000
# 4 0.0000 0.0000 0.0000 41.3924 0.0000 0.0000
# 5 0.0000 0.0000 0.0000 0.0000 3.8838 0.0000
# 6 0.0000 0.0000 0.0000 0.0000 0.0000 6.5274
#
#
#
# Elastic Compliance Matrix: (Units=1/GPa)
#
#
# Indices 1 2 3 4 5 6 
#
# 1 0.037442 -0.002581 -0.001786 0.000000 0.000000 0.000000
# 2 -0.002581 0.012379 -0.006890 0.000000 0.000000 0.000000
# 3 -0.001786 -0.006890 0.009723 0.000000 0.000000 0.000000
# 4 0.000000 0.000000 0.000000 0.024159 0.000000 0.000000
# 5 0.000000 0.000000 0.000000 0.000000 0.257482 0.000000
# 6 0.000000 0.000000 0.000000 0.000000 0.000000 0.153201
#
#
# Mechanical properties :
#
#
# Convention : Reuss Voigt Hill
#
# Bulk Modulus (GPa) = 27.00484 68.12303 47.56393
# Shear Modulus (GPa) = 9.44747 24.69499 17.07123
#
# Velocity S-wave (km/s) = 2.20174 3.55970 2.95965
# Velocity P-wave (km/s) = 4.50780 7.20072 6.00711
#
# Compressibility (1/GPa) = 0.03703040
#
# Stress axis : x y z
#
# Youngs Moduli (GPa) = 26.70819 80.78205 102.85135
#
# Poissons Ratio (x) = 0.20847 0.18368
# Poissons Ratio (y) = 0.06892 0.70865
# Poissons Ratio (z) = 0.04770 0.55659
#
# Static dielectric constant tensor:
#      x y z
#    x 2.949590 0.000000 0.000000 
#    y 0.000000 3.685960 0.000000 
#    z 0.000000 0.000000 3.998080 
# 
# 
# High freq. dielectric constant tensor:
#      x y z
#    x 1.699780 0.000000 0.000000 
#    y 0.000000 1.747600 0.000000 
#    z 0.000000 0.000000 1.775490 
# 
# From -- ./inp_files/34453.got.cif
#   From: 2010.03.12/outbox.cif.g09.slc.cpg/sg67_18_cif.got.tgz:34453.got - 2010.04.10 22:41:39.
