data_PCOD8278648
_publ_section_title
;
Structure prediction by ZEFSAII (Michael W. Deem and Ramdas Pophale) SiO2 
 PCOD8278648
Probable space group: C M M A
;
_chemical_formula_sum "Si O2"
_cell_formula_units_Z 80
_cell_length_a 28.144877
_cell_length_b 10.493423
_cell_length_c 18.960753
_cell_angle_alpha 90.000000
_cell_angle_beta 90.000000
_cell_angle_gamma 90.000000
_cell_volume 5599.794837
_symmetry_space_group_name_H-M "C M M A"
_symmetry_group_IT_number 67
_symmetry_cell_setting 'orthorhombic'
loop_
_space_group_symop_operation_xyz
x,y,z
-x,1/2-y,z
x,-y,-z
-x,1/2+y,-z
-x,-y,-z
x,1/2+y,-z
-x,y,z
x,1/2-y,z
1/2+x,1/2+y,z
1/2-x,-y,z
1/2+x,1/2-y,-z
1/2-x,y,-z
1/2-x,1/2-y,-z
1/2+x,y,-z
1/2-x,1/2+y,z
1/2+x,-y,z
loop_
_atom_site_type_symbol
_atom_site_label
_atom_site_fract_x
_atom_site_fract_y
_atom_site_fract_z
Si Si1 0.386570 0.602953 0.056341
Si Si2 0.556674 0.250000 0.411891
Si Si3 0.056700 0.250000 0.428156
Si Si4 0.443538 0.508088 0.342783
Si Si5 0.223874 0.886454 0.924958
Si Si6 0.946023 0.102398 0.193758
O O1 0.397391 0.750000 0.033222
O O2 0.330939 0.580680 0.065987
O O3 0.412320 0.568889 0.128926
O O4 0.405911 0.500000 0.000000
O O5 0.500000 0.250000 0.410614
O O6 0.575520 0.250000 0.491830
O O7 0.576722 0.374975 0.372319
O O8 0.076952 0.375741 0.389484
O O9 0.000000 0.250000 0.426468
O O10 0.500000 0.511365 0.347882
O O11 0.428046 0.522519 0.261259
O O12 0.229527 0.750000 0.885735
O O13 0.250000 0.000000 0.881124
O O14 0.250000 0.877901 0.000000
O O15 0.942923 0.250000 0.214885
O O16 0.000000 0.066168 0.173129
#
# Coordination Sequence:
#
# PCOD8278648 Si02
#       6
#    16   8   8  16  16  16
#     4  10  19  30  44  62  78  98 136 175 200 240
#     4   9  16  22  34  58  79  91 121 172 203 221
#     4   9  14  22  38  56  71  95 129 162 195 233
#     4   9  15  25  38  51  73 102 130 160 198 237
#     4   9  15  25  43  62  80  97 115 154 199 252
#     4   9  17  30  44  54  73 110 145 169 198 234
#
# _framework density 14.286238000000001
#
# number of rings (size 3 to 8) (size 9 to 14) (size 15 to 20)
#    0.000    2.800    3.000    0.600    0.000    2.800 
#    1.800    0.000    0.000    0.000    0.000    0.000 
#    0.000    0.000    0.000    0.000    0.000    6.000 
#
# Total GULP energy -495659.124991 kJ/mol
# GULP energy per Si atom -12391.478125 kJ/mol
# Density = 1.425372 g / cm^3
# Si number density = 14.286238 Si / 1000 Ang^3
#
#
#
# Elastic Constant Matrix: (Units=GPa)
#
#
# Indices 1 2 3 4 5 6 
#
# 1 41.3344 19.7166 37.6399 0.0000 0.0000 0.0000
# 2 19.7166 129.8583 66.0867 0.0000 0.0000 0.0000
# 3 37.6399 66.0867 105.5350 0.0000 0.0000 0.0000
# 4 0.0000 0.0000 0.0000 21.8519 0.0000 0.0000
# 5 0.0000 0.0000 0.0000 0.0000 -0.0819 0.0000
# 6 0.0000 0.0000 0.0000 0.0000 0.0000 14.6343
#
#
#
# Elastic Compliance Matrix: (Units=1/GPa)
#
#
# Indices 1 2 3 4 5 6 
#
# 1 0.036046 0.001570 -0.013839 0.000000 0.000000 0.000000
# 2 0.001570 0.011371 -0.007681 0.000000 0.000000 0.000000
# 3 -0.013839 -0.007681 0.019221 0.000000 0.000000 0.000000
# 4 0.000000 0.000000 0.000000 0.045763 0.000000 0.000000
# 5 0.000000 0.000000 0.000000 0.000000-12.205457 0.000000
# 6 0.000000 0.000000 0.000000 0.000000 0.000000 0.068333
#
#
# Mechanical properties :
#
#
# Convention : Reuss Voigt Hill
#
# Bulk Modulus (GPa) = 37.39900 58.17935 47.78918
# Shear Modulus (GPa) = -0.41750 17.49982 8.54116
#
# Velocity S-wave (km/s) = -0.54118 3.50372 2.44777
# Velocity P-wave (km/s) = 5.08377 7.56178 6.44303
#
# Compressibility (1/GPa) = 0.02673868
#
# Stress axis : x y z
#
# Youngs Moduli (GPa) = 27.74196 87.94227 52.02596
#
# Poissons Ratio (x) = -0.13808 0.72001
# Poissons Ratio (y) = -0.04356 0.39959
# Poissons Ratio (z) = 0.38393 0.67545
#
# Static dielectric constant tensor:
#      x y z
#    x 2.448690 0.000000 0.000000 
#    y 0.000000 3.657660 0.000000 
#    z 0.000000 0.000000 2.696230 
# 
# 
# High freq. dielectric constant tensor:
#      x y z
#    x 1.489950 0.000000 0.000000 
#    y 0.000000 1.563660 0.000000 
#    z 0.000000 0.000000 1.525350 
# 
# From -- ./inp_files/35856.got.cif
#   From: 2010.03.12/outbox.cif.g09.slc.cpg/sg67_18_cif.got.tgz:35856.got - 2010.04.10 22:41:39.
