data_PCOD8278273
_publ_section_title
;
Structure prediction by ZEFSAII (Michael W. Deem and Ramdas Pophale) SiO2 
 PCOD8278273
Probable space group: C M M A
;
_chemical_formula_sum "Si O2"
_cell_formula_units_Z 88
_cell_length_a 8.848127
_cell_length_b 27.569470
_cell_length_c 22.773905
_cell_angle_alpha 90.000000
_cell_angle_beta 90.000000
_cell_angle_gamma 90.000000
_cell_volume 5555.424752
_symmetry_space_group_name_H-M "C M M A"
_symmetry_group_IT_number 67
_symmetry_cell_setting 'orthorhombic'
loop_
_space_group_symop_operation_xyz
x,y,z
-x,1/2-y,z
x,-y,-z
-x,1/2+y,-z
-x,-y,-z
x,1/2+y,-z
-x,y,z
x,1/2-y,z
1/2+x,1/2+y,z
1/2-x,-y,z
1/2+x,1/2-y,-z
1/2-x,y,-z
1/2-x,1/2-y,-z
1/2+x,y,-z
1/2-x,1/2+y,z
1/2+x,-y,z
loop_
_atom_site_type_symbol
_atom_site_label
_atom_site_fract_x
_atom_site_fract_y
_atom_site_fract_z
Si Si1 0.821456 0.052133 0.325062
Si Si2 0.320182 0.750000 0.936162
Si Si3 0.328130 0.303420 0.839094
Si Si4 0.323485 0.194802 0.376761
Si Si5 0.822672 0.390221 0.439878
Si Si6 0.822876 0.137632 0.739273
O O1 0.773281 0.072858 0.388642
O O2 0.756588 0.086659 0.274383
O O3 0.000000 0.049079 0.318549
O O4 0.750000 0.000000 0.316550
O O5 0.500000 0.750000 0.939166
O O6 0.259792 0.701998 0.901476
O O7 0.250000 0.750000 0.000000
O O8 0.500000 0.320743 0.850095
O O9 0.326636 0.250000 0.808158
O O10 0.242448 0.342476 0.799880
O O11 0.500000 0.189690 0.389996
O O12 0.268067 0.250000 0.381843
O O13 0.235110 0.163731 0.425184
O O14 0.284775 0.176081 0.311691
O O15 0.750000 0.409371 0.500000
O O16 0.000000 0.388365 0.447854
O O17 0.000000 0.128943 0.745967
#
# Coordination Sequence:
#
# PCOD8278273 Si02
#       6
#    16   8  16  16  16  16
#     4  10  21  36  52  70  91 116 148 191 244 296
#     4  10  18  30  46  68 102 142 179 210 239 272
#     4   9  18  29  44  69 100 135 169 201 234 273
#     4   9  18  31  47  67  91 119 150 186 228 277
#     4  10  21  35  50  67  87 113 147 188 233 287
#     4  10  18  30  49  71  95 123 157 195 237 285
#
# _framework density 15.840374000000001
#
# number of rings (size 3 to 8) (size 9 to 14) (size 15 to 20)
#    0.545    1.818    0.000    3.273    0.000    4.727 
#    0.000    1.818    0.000    0.000    0.000    0.000 
#    0.000    0.727    0.000    7.273    0.000    4.364 
#
# Total GULP energy -545545.865638 kJ/mol
# GULP energy per Si atom -12398.769674 kJ/mol
# Density = 1.580432 g / cm^3
# Si number density = 15.840374 Si / 1000 Ang^3
#
#
#
# Elastic Constant Matrix: (Units=GPa)
#
#
# Indices 1 2 3 4 5 6 
#
# 1 87.7263 39.8301 47.5209 0.0000 0.0000 0.0000
# 2 39.8301 102.4100 44.6620 0.0000 0.0000 0.0000
# 3 47.5209 44.6620 107.3283 0.0000 0.0000 0.0000
# 4 0.0000 0.0000 0.0000 18.1003 0.0000 0.0000
# 5 0.0000 0.0000 0.0000 0.0000 28.8044 0.0000
# 6 0.0000 0.0000 0.0000 0.0000 0.0000 26.6420
#
#
#
# Elastic Compliance Matrix: (Units=1/GPa)
#
#
# Indices 1 2 3 4 5 6 
#
# 1 0.016158 -0.003866 -0.005546 0.000000 0.000000 0.000000
# 2 -0.003866 0.012855 -0.003637 0.000000 0.000000 0.000000
# 3 -0.005546 -0.003637 0.013286 0.000000 0.000000 0.000000
# 4 0.000000 0.000000 0.000000 0.055248 0.000000 0.000000
# 5 0.000000 0.000000 0.000000 0.000000 0.034717 0.000000
# 6 0.000000 0.000000 0.000000 0.000000 0.000000 0.037535
#
#
# Mechanical properties :
#
#
# Convention : Reuss Voigt Hill
#
# Bulk Modulus (GPa) = 61.72373 62.38783 62.05578
# Shear Modulus (GPa) = 24.83896 25.73946 25.28921
#
# Velocity S-wave (km/s) = 3.96419 4.03541 3.99996
# Velocity P-wave (km/s) = 7.74621 7.82199 7.78419
#
# Compressibility (1/GPa) = 0.01620122
#
# Stress axis : x y z
#
# Youngs Moduli (GPa) = 61.88751 77.79349 75.26613
#
# Poissons Ratio (x) = 0.30075 0.41739
# Poissons Ratio (y) = 0.23925 0.27377
# Poissons Ratio (z) = 0.34320 0.28297
#
# Static dielectric constant tensor:
#      x y z
#    x 3.099790 0.000000 0.000000 
#    y 0.000000 2.884010 0.000000 
#    z 0.000000 0.000000 2.845180 
# 
# 
# High freq. dielectric constant tensor:
#      x y z
#    x 1.626370 0.000000 0.000000 
#    y 0.000000 1.588540 0.000000 
#    z 0.000000 0.000000 1.585710 
# 
# From -- ./inp_files/37442.got.cif
#   From: 2010.03.12/outbox.cif.g09.slc.cpg/sg67_19_cif.got.tgz:37442.got - 2010.04.10 22:41:39.
