data_PCOD8278160
_publ_section_title
;
Structure prediction by ZEFSAII (Michael W. Deem and Ramdas Pophale) SiO2 
 PCOD8278160
Probable space group: C M M A
;
_chemical_formula_sum "Si O2"
_cell_formula_units_Z 112
_cell_length_a 14.576047
_cell_length_b 31.173493
_cell_length_c 17.006583
_cell_angle_alpha 90.000000
_cell_angle_beta 90.000000
_cell_angle_gamma 90.000000
_cell_volume 7727.558310
_symmetry_space_group_name_H-M "C M M A"
_symmetry_group_IT_number 67
_symmetry_cell_setting 'orthorhombic'
loop_
_space_group_symop_operation_xyz
x,y,z
-x,1/2-y,z
x,-y,-z
-x,1/2+y,-z
-x,-y,-z
x,1/2+y,-z
-x,y,z
x,1/2-y,z
1/2+x,1/2+y,z
1/2-x,-y,z
1/2+x,1/2-y,-z
1/2-x,y,-z
1/2-x,1/2-y,-z
1/2+x,y,-z
1/2-x,1/2+y,z
1/2+x,-y,z
loop_
_atom_site_type_symbol
_atom_site_label
_atom_site_fract_x
_atom_site_fract_y
_atom_site_fract_z
Si Si1 0.750000 0.949108 0.295336
Si Si2 0.398437 0.551024 0.586554
Si Si3 0.250000 0.182101 0.906869
Si Si4 0.602933 0.250000 0.906685
Si Si5 0.107410 0.449034 0.000000
Si Si6 0.750000 0.414893 0.878911
Si Si7 0.898437 0.448976 0.413446
Si Si8 0.397067 0.750000 0.906685
O O1 0.837119 0.930504 0.342816
O O2 0.750000 0.934538 0.206601
O O3 0.662881 0.930504 0.342816
O O4 0.750000 0.000000 0.296664
O O5 0.500000 0.569461 0.599793
O O6 0.399177 0.500000 0.589882
O O7 0.361877 0.565221 0.500000
O O8 0.341114 0.207780 0.879534
O O9 0.250000 0.135970 0.866843
O O10 0.158886 0.207780 0.879534
O O11 0.250000 0.175629 0.000000
O O12 0.500000 0.250000 0.870320
O O13 0.597508 0.250000 1.000000
O O14 0.157703 0.430027 0.923371
O O15 0.000000 0.435532 0.000000
O O16 0.118204 0.500000 0.000000
O O17 0.157703 0.430027 0.076629
O O18 0.000000 0.430539 0.400207
O O19 0.500000 0.750000 0.870320
#
# Coordination Sequence:
#
# PCOD8278160 Si02
#       8
#    16  16  16   8  16  16  16   8
#     4  10  18  26  40  59  81 109 141 177 212 239
#     4   8  14  25  40  57  77 102 134 170 207 250
#     4   9  16  29  43  62  83 102 130 166 208 255
#     4   8  15  27  46  65  81  98 121 157 205 262
#     4  10  21  35  46  53  71 113 160 191 215 237
#     4  11  20  32  44  61  84 107 141 186 218 246
#     4   8  14  25  40  57  77 102 134 170 207 250
#     4   8  15  27  46  65  81  98 121 157 205 262
#
# _framework density 14.493582
#
# number of rings (size 3 to 8) (size 9 to 14) (size 15 to 20)
#    0.000    2.857    1.429    3.857    0.000    4.000 
#    0.000    2.857    0.000    0.000    0.000    0.000 
#    0.000    0.000    0.000   10.286    0.000   26.286 
#
# Total GULP energy -693926.001831 kJ/mol
# GULP energy per Si atom -12391.535747 kJ/mol
# Density = 1.446059 g / cm^3
# Si number density = 14.493582 Si / 1000 Ang^3
#
#
#
# Elastic Constant Matrix: (Units=GPa)
#
#
# Indices 1 2 3 4 5 6 
#
# 1 128.6015 32.0732 53.8257 0.0000 0.0000 0.0000
# 2 32.0732 52.8936 9.2657 0.0000 0.0000 0.0000
# 3 53.8257 9.2657 104.9605 0.0000 0.0000 0.0000
# 4 0.0000 0.0000 0.0000 -3.5167 0.0000 0.0000
# 5 0.0000 0.0000 0.0000 0.0000 17.9761 0.0000
# 6 0.0000 0.0000 0.0000 0.0000 0.0000 9.7387
#
#
#
# Elastic Compliance Matrix: (Units=1/GPa)
#
#
# Indices 1 2 3 4 5 6 
#
# 1 0.011539 -0.006054 -0.005383 0.000000 0.000000 0.000000
# 2 -0.006054 0.022379 0.001129 0.000000 0.000000 0.000000
# 3 -0.005383 0.001129 0.012188 0.000000 0.000000 0.000000
# 4 0.000000 0.000000 0.000000 -0.284361 0.000000 0.000000
# 5 0.000000 0.000000 0.000000 0.000000 0.055629 0.000000
# 6 0.000000 0.000000 0.000000 0.000000 0.000000 0.102683
#
#
# Mechanical properties :
#
#
# Convention : Reuss Voigt Hill
#
# Bulk Modulus (GPa) = 39.23043 52.97608 46.10325
# Shear Modulus (GPa) = -98.36689 17.59235 -40.38727
#
# Velocity S-wave (km/s) = -8.24722 3.48775 -5.28452
# Velocity P-wave (km/s) = 7.97262 7.26980 2.31438
#
# Compressibility (1/GPa) = 0.02549042
#
# Stress axis : x y z
#
# Youngs Moduli (GPa) = 86.66434 44.68477 82.04673
#
# Poissons Ratio (x) = 0.27051 0.44165
# Poissons Ratio (y) = 0.52465 -0.09263
# Poissons Ratio (z) = 0.46650 -0.05045
#
# Static dielectric constant tensor:
#      x y z
#    x 3.260050 0.000000 0.000000 
#    y 0.000000 2.596330 0.000000 
#    z 0.000000 0.000000 2.765730 
# 
# 
# High freq. dielectric constant tensor:
#      x y z
#    x 1.570480 0.000000 0.000000 
#    y 0.000000 1.509390 0.000000 
#    z 0.000000 0.000000 1.527850 
# 
# From -- ./inp_files/33871.got.cif
#   From: 2010.03.12/outbox.cif.g09.slc.cpg/sg67_17_cif.got.tgz:33871.got - 2010.04.10 22:41:39.
