data_PCOD8278866
_publ_section_title
;
Structure prediction by ZEFSAII (Michael W. Deem and Ramdas Pophale) SiO2 
 PCOD8278866
Probable space group: C M M A
;
_chemical_formula_sum "Si O2"
_cell_formula_units_Z 88
_cell_length_a 26.981175
_cell_length_b 9.050999
_cell_length_c 19.217066
_cell_angle_alpha 90.000000
_cell_angle_beta 90.000000
_cell_angle_gamma 90.000000
_cell_volume 4692.934118
_symmetry_space_group_name_H-M "C M M A"
_symmetry_group_IT_number 67
_symmetry_cell_setting 'orthorhombic'
loop_
_space_group_symop_operation_xyz
x,y,z
-x,1/2-y,z
x,-y,-z
-x,1/2+y,-z
-x,-y,-z
x,1/2+y,-z
-x,y,z
x,1/2-y,z
1/2+x,1/2+y,z
1/2-x,-y,z
1/2+x,1/2-y,-z
1/2-x,y,-z
1/2-x,1/2-y,-z
1/2+x,y,-z
1/2-x,1/2+y,z
1/2+x,-y,z
loop_
_atom_site_type_symbol
_atom_site_label
_atom_site_fract_x
_atom_site_fract_y
_atom_site_fract_z
Si Si1 0.298306 0.924594 0.836617
Si Si2 0.392196 0.920406 0.927966
Si Si3 0.000000 0.573928 0.574322
Si Si4 0.907022 0.921156 0.664369
Si Si5 0.943552 0.419177 0.793760
Si Si6 0.700820 0.924344 0.311733
O O1 0.291615 0.750000 0.824552
O O2 0.340409 0.960579 0.892218
O O3 0.250000 0.000000 0.870008
O O4 0.308875 0.002250 0.762967
O O5 0.396227 0.750000 0.945752
O O6 0.434507 0.970749 0.873078
O O7 0.400585 0.000000 0.000000
O O8 0.000000 0.500000 0.500000
O O9 0.050479 0.516032 0.612550
O O10 0.000000 0.750000 0.566356
O O11 0.917798 0.750000 0.672607
O O12 0.849374 0.950213 0.641314
O O13 0.910901 0.989385 0.740610
O O14 0.925936 0.250000 0.787101
O O15 0.000000 0.441720 0.773231
O O16 0.710693 0.750000 0.302988
O O17 0.750000 0.000000 0.346366
#
# Coordination Sequence:
#
# PCOD8278866 Si02
#       6
#    16  16   8  16  16  16
#     4  10  19  32  49  71 100 133 173 225 276 327
#     4  10  22  36  49  69  99 136 179 229 278 329
#     4  10  22  40  60  90 125 150 181 220 263 320
#     4  10  20  35  58  85 115 148 183 224 270 322
#     4  10  20  35  55  78 104 136 180 227 274 330
#     4  10  19  31  52  82 111 144 182 226 275 322
#
# _framework density 18.751594999999998
#
# number of rings (size 3 to 8) (size 9 to 14) (size 15 to 20)
#    0.000    2.000    2.727    2.182    0.000    4.364 
#    0.000    1.818    0.000    0.545    0.000    3.818 
#    0.000    0.000    0.000    0.000    0.000    0.000 
#
# Total GULP energy -545227.538858 kJ/mol
# GULP energy per Si atom -12391.534974 kJ/mol
# Density = 1.870892 g / cm^3
# Si number density = 18.751595 Si / 1000 Ang^3
#
#
#
# Elastic Constant Matrix: (Units=GPa)
#
#
# Indices 1 2 3 4 5 6 
#
# 1 114.2217 44.5298 57.5185 0.0000 0.0000 0.0000
# 2 44.5298 60.6600 24.7346 0.0000 0.0000 0.0000
# 3 57.5185 24.7346 64.0154 0.0000 0.0000 0.0000
# 4 0.0000 0.0000 0.0000 27.2552 0.0000 0.0000
# 5 0.0000 0.0000 0.0000 0.0000 14.2880 0.0000
# 6 0.0000 0.0000 0.0000 0.0000 0.0000 24.9966
#
#
#
# Elastic Compliance Matrix: (Units=1/GPa)
#
#
# Indices 1 2 3 4 5 6 
#
# 1 0.018938 -0.008266 -0.013822 0.000000 0.000000 0.000000
# 2 -0.008266 0.023176 -0.001528 0.000000 0.000000 0.000000
# 3 -0.013822 -0.001528 0.028631 0.000000 0.000000 0.000000
# 4 0.000000 0.000000 0.000000 0.036690 0.000000 0.000000
# 5 0.000000 0.000000 0.000000 0.000000 0.069989 0.000000
# 6 0.000000 0.000000 0.000000 0.000000 0.000000 0.040005
#
#
# Mechanical properties :
#
#
# Convention : Reuss Voigt Hill
#
# Bulk Modulus (GPa) = 42.52935 54.71811 48.62373
# Shear Modulus (GPa) = 18.34874 20.78225 19.56549
#
# Velocity S-wave (km/s) = 3.13152 3.33271 3.23368
# Velocity P-wave (km/s) = 5.98371 6.63726 6.31894
#
# Compressibility (1/GPa) = 0.02351318
#
# Stress axis : x y z
#
# Youngs Moduli (GPa) = 52.80469 43.14753 34.92748
#
# Poissons Ratio (x) = 0.35666 0.48276
# Poissons Ratio (y) = 0.43648 0.05337
# Poissons Ratio (z) = 0.72986 0.06593
#
# Static dielectric constant tensor:
#      x y z
#    x 4.094800 0.000000 0.000000 
#    y 0.000000 3.424590 0.000000 
#    z 0.000000 0.000000 3.114540 
# 
# 
# High freq. dielectric constant tensor:
#      x y z
#    x 1.752660 0.000000 0.000000 
#    y 0.000000 1.727330 0.000000 
#    z 0.000000 0.000000 1.687790 
# 
# From -- ./inp_files/32417.got.cif
#   From: 2010.03.12/outbox.cif.g09.slc.cpg/sg67_17_cif.got.tgz:32417.got - 2010.04.10 22:41:39.
