data_PCOD8278159
_publ_section_title
;
Structure prediction by ZEFSAII (Michael W. Deem and Ramdas Pophale) SiO2 
 PCOD8278159
Probable space group: C M M A
;
_chemical_formula_sum "Si O2"
_cell_formula_units_Z 104
_cell_length_a 32.064882
_cell_length_b 8.841514
_cell_length_c 21.225827
_cell_angle_alpha 90.000000
_cell_angle_beta 90.000000
_cell_angle_gamma 90.000000
_cell_volume 6017.566595
_symmetry_space_group_name_H-M "C M M A"
_symmetry_group_IT_number 67
_symmetry_cell_setting 'orthorhombic'
loop_
_space_group_symop_operation_xyz
x,y,z
-x,1/2-y,z
x,-y,-z
-x,1/2+y,-z
-x,-y,-z
x,1/2+y,-z
-x,y,z
x,1/2-y,z
1/2+x,1/2+y,z
1/2-x,-y,z
1/2+x,1/2-y,-z
1/2-x,y,-z
1/2-x,1/2-y,-z
1/2+x,y,-z
1/2-x,1/2+y,z
1/2+x,-y,z
loop_
_atom_site_type_symbol
_atom_site_label
_atom_site_fract_x
_atom_site_fract_y
_atom_site_fract_z
Si Si1 0.833859 0.071066 0.563131
Si Si2 0.500000 0.582916 0.609015
Si Si3 0.086111 0.571677 0.615901
Si Si4 0.706626 0.572838 0.692922
Si Si5 0.128718 0.924931 0.745071
Si Si6 0.438871 0.574645 0.162392
Si Si7 0.000000 0.583136 0.245111
Si Si8 0.000000 0.928235 0.068037
O O1 0.836754 0.250000 0.557318
O O2 0.805267 0.021659 0.622123
O O3 0.813641 0.000000 0.500000
O O4 0.879868 0.003045 0.570573
O O5 0.500000 0.750000 0.576557
O O6 0.458428 0.490826 0.592099
O O7 0.500000 0.610146 0.682434
O O8 0.085969 0.750000 0.606085
O O9 0.097191 0.527211 0.688350
O O10 0.711239 0.750000 0.698246
O O11 0.750000 0.500000 0.713291
O O12 0.670969 0.520844 0.741691
O O13 0.140236 0.750000 0.736224
O O14 0.109147 0.951452 0.815742
O O15 0.448075 0.750000 0.148638
O O16 0.460943 0.517758 0.225486
O O17 0.457399 0.480258 0.103646
O O18 0.000000 0.750000 0.211228
O O19 0.000000 0.750000 0.060937
O O20 0.000000 0.000000 0.000000
#
# Coordination Sequence:
#
# PCOD8278159 Si02
#       8
#    16   8  16  16  16  16   8   8
#     4  10  21  37  54  72  92 121 157 198 244 299
#     4  11  20  28  42  66  95 122 153 194 236 284
#     4  10  19  32  49  69  93 124 158 199 246 293
#     4  10  21  35  53  75 101 127 156 196 247 302
#     4   9  18  31  49  72  99 128 161 199 246 298
#     4  10  18  30  48  71  99 134 173 211 247 290
#     4  10  18  25  39  65  96 126 158 198 234 275
#     4  11  22  35  49  71 105 148 188 224 255 283
#
# _framework density 17.282733
#
# number of rings (size 3 to 8) (size 9 to 14) (size 15 to 20)
#    0.000    2.000    1.538    3.923    0.000    4.615 
#    0.000    1.923    0.000    0.000    0.000    0.000 
#    0.000    0.615    0.000    6.462    0.000    2.769 
#
# Total GULP energy -644392.897899 kJ/mol
# GULP energy per Si atom -12392.171113 kJ/mol
# Density = 1.724340 g / cm^3
# Si number density = 17.282733 Si / 1000 Ang^3
#
#
#
# Elastic Constant Matrix: (Units=GPa)
#
#
# Indices 1 2 3 4 5 6 
#
# 1 101.0105 42.2543 22.2947 0.0000 0.0000 0.0000
# 2 42.2543 92.8260 30.6190 0.0000 0.0000 0.0000
# 3 22.2947 30.6190 67.2272 0.0000 0.0000 0.0000
# 4 0.0000 0.0000 0.0000 22.9073 0.0000 0.0000
# 5 0.0000 0.0000 0.0000 0.0000 15.9215 0.0000
# 6 0.0000 0.0000 0.0000 0.0000 0.0000 26.9927
#
#
#
# Elastic Compliance Matrix: (Units=1/GPa)
#
#
# Indices 1 2 3 4 5 6 
#
# 1 0.012414 -0.005052 -0.001816 0.000000 0.000000 0.000000
# 2 -0.005052 0.014733 -0.005035 0.000000 0.000000 0.000000
# 3 -0.001816 -0.005035 0.017770 0.000000 0.000000 0.000000
# 4 0.000000 0.000000 0.000000 0.043654 0.000000 0.000000
# 5 0.000000 0.000000 0.000000 0.000000 0.062808 0.000000
# 6 0.000000 0.000000 0.000000 0.000000 0.000000 0.037047
#
#
# Mechanical properties :
#
#
# Convention : Reuss Voigt Hill
#
# Bulk Modulus (GPa) = 47.36642 50.15553 48.76098
# Shear Modulus (GPa) = 22.80293 24.22402 23.51347
#
# Velocity S-wave (km/s) = 3.63630 3.74790 3.69252
# Velocity P-wave (km/s) = 6.71540 6.91466 6.81576
#
# Compressibility (1/GPa) = 0.02111200
#
# Stress axis : x y z
#
# Youngs Moduli (GPa) = 80.55384 67.87367 56.27340
#
# Poissons Ratio (x) = 0.34289 0.10219
# Poissons Ratio (y) = 0.40695 0.28334
# Poissons Ratio (z) = 0.14629 0.34174
#
# Static dielectric constant tensor:
#      x y z
#    x 3.170370 0.000000 0.000000 
#    y 0.000000 3.346140 0.000000 
#    z 0.000000 0.000000 2.964340 
# 
# 
# High freq. dielectric constant tensor:
#      x y z
#    x 1.653960 0.000000 0.000000 
#    y 0.000000 1.685340 0.000000 
#    z 0.000000 0.000000 1.625930 
# 
# From -- ./inp_files/42958.got.cif
#   From: 2010.03.12/outbox.cif.g09.slc.cpg/sg67_22_cif.got.tgz:42958.got - 2010.04.10 22:41:39.
