data_PCOD8278225
_publ_section_title
;
Structure prediction by ZEFSAII (Michael W. Deem and Ramdas Pophale) SiO2 
 PCOD8278225
Probable space group: C M M A
;
_chemical_formula_sum "Si O2"
_cell_formula_units_Z 96
_cell_length_a 26.072720
_cell_length_b 9.570383
_cell_length_c 22.548326
_cell_angle_alpha 90.000000
_cell_angle_beta 90.000000
_cell_angle_gamma 90.000000
_cell_volume 5626.391705
_symmetry_space_group_name_H-M "C M M A"
_symmetry_group_IT_number 67
_symmetry_cell_setting 'orthorhombic'
loop_
_space_group_symop_operation_xyz
x,y,z
-x,1/2-y,z
x,-y,-z
-x,1/2+y,-z
-x,-y,-z
x,1/2+y,-z
-x,y,z
x,1/2-y,z
1/2+x,1/2+y,z
1/2-x,-y,z
1/2+x,1/2-y,-z
1/2-x,y,-z
1/2-x,1/2-y,-z
1/2+x,y,-z
1/2-x,1/2+y,z
1/2+x,-y,z
loop_
_atom_site_type_symbol
_atom_site_label
_atom_site_fract_x
_atom_site_fract_y
_atom_site_fract_z
Si Si1 0.558959 0.911868 0.168539
Si Si2 0.310367 0.511716 0.644319
Si Si3 0.202259 0.592660 0.118454
Si Si4 0.686849 0.250000 0.573225
Si Si5 0.861012 0.413558 0.767642
Si Si6 0.808027 0.750000 0.442164
Si Si7 0.596611 0.414743 0.058734
O O1 0.500000 0.913754 0.187745
O O2 0.576971 0.750000 0.158289
O O3 0.590568 0.985325 0.221557
O O4 0.565765 0.006849 0.110306
O O5 0.250000 0.500000 0.657742
O O6 0.331956 0.373055 0.615123
O O7 0.338685 0.552103 0.704000
O O8 0.326545 0.617349 0.593473
O O9 0.222567 0.750000 0.119292
O O10 0.250000 0.500000 0.098892
O O11 0.181987 0.549935 0.183465
O O12 0.157233 0.573504 0.070607
O O13 0.746696 0.250000 0.557985
O O14 0.663953 0.250000 0.506564
O O15 0.876875 0.250000 0.773121
O O16 0.580523 0.250000 0.054623
O O17 0.582440 0.500000 0.000000
#
# Coordination Sequence:
#
# PCOD8278225 Si02
#       7
#    16  16  16   8  16   8  16
#     4  10  22  39  58  79 101 125 157 205 261 310
#     4  10  18  29  45  70 103 141 178 212 246 290
#     4   9  19  33  48  70 100 136 172 208 245 284
#     4   9  18  26  44  66  97 143 182 211 247 285
#     4  10  20  34  50  72 102 133 170 210 252 304
#     4   9  16  30  42  64 101 141 180 213 245 289
#     4  10  21  37  56  79 105 134 169 204 243 296
#
# _framework density 17.062443999999999
#
# number of rings (size 3 to 8) (size 9 to 14) (size 15 to 20)
#    0.000    2.333    0.833    3.000    1.167    7.333 
#    0.000    1.667    0.000    0.000    0.000    0.000 
#    0.000    4.000    0.000    0.000    0.000    0.000 
#
# Total GULP energy -594867.092327 kJ/mol
# GULP energy per Si atom -12393.064423 kJ/mol
# Density = 1.702361 g / cm^3
# Si number density = 17.062444 Si / 1000 Ang^3
#
#
#
# Elastic Constant Matrix: (Units=GPa)
#
#
# Indices 1 2 3 4 5 6 
#
# 1 54.5763 34.2514 10.9373 0.0000 0.0000 0.0000
# 2 34.2514 136.2971 35.7231 0.0000 0.0000 0.0000
# 3 10.9373 35.7231 83.8239 0.0000 0.0000 0.0000
# 4 0.0000 0.0000 0.0000 37.0365 0.0000 0.0000
# 5 0.0000 0.0000 0.0000 0.0000 12.9440 0.0000
# 6 0.0000 0.0000 0.0000 0.0000 0.0000 24.9008
#
#
#
# Elastic Compliance Matrix: (Units=1/GPa)
#
#
# Indices 1 2 3 4 5 6 
#
# 1 0.021778 -0.005323 -0.000573 0.000000 0.000000 0.000000
# 2 -0.005323 0.009560 -0.003380 0.000000 0.000000 0.000000
# 3 -0.000573 -0.003380 0.013445 0.000000 0.000000 0.000000
# 4 0.000000 0.000000 0.000000 0.027000 0.000000 0.000000
# 5 0.000000 0.000000 0.000000 0.000000 0.077256 0.000000
# 6 0.000000 0.000000 0.000000 0.000000 0.000000 0.040159
#
#
# Mechanical properties :
#
#
# Convention : Reuss Voigt Hill
#
# Bulk Modulus (GPa) = 38.12121 48.50232 43.31177
# Shear Modulus (GPa) = 23.09528 27.89529 25.49529
#
# Velocity S-wave (km/s) = 3.68309 4.04777 3.86973
# Velocity P-wave (km/s) = 6.36219 7.09464 6.73838
#
# Compressibility (1/GPa) = 0.02623211
#
# Stress axis : x y z
#
# Youngs Moduli (GPa) = 45.91731 104.59897 74.37742
#
# Poissons Ratio (x) = 0.55674 0.04264
# Poissons Ratio (y) = 0.24440 0.25138
# Poissons Ratio (z) = 0.02632 0.35353
#
# Static dielectric constant tensor:
#      x y z
#    x 2.851150 0.000000 0.000000 
#    y 0.000000 3.597330 0.000000 
#    z 0.000000 0.000000 3.216330 
# 
# 
# High freq. dielectric constant tensor:
#      x y z
#    x 1.613040 0.000000 0.000000 
#    y 0.000000 1.681380 0.000000 
#    z 0.000000 0.000000 1.660060 
# 
# From -- ./inp_files/42708.got.cif
#   From: 2010.03.12/outbox.cif.g09.slc.cpg/sg67_22_cif.got.tgz:42708.got - 2010.04.10 22:41:39.
