data_PCOD8278374
_publ_section_title
;
Structure prediction by ZEFSAII (Michael W. Deem and Ramdas Pophale) SiO2 
 PCOD8278374
Probable space group: C M M A
;
_chemical_formula_sum "Si O2"
_cell_formula_units_Z 112
_cell_length_a 19.858067
_cell_length_b 16.198484
_cell_length_c 18.810554
_cell_angle_alpha 90.000000
_cell_angle_beta 90.000000
_cell_angle_gamma 90.000000
_cell_volume 6050.801826
_symmetry_space_group_name_H-M "C M M A"
_symmetry_group_IT_number 67
_symmetry_cell_setting 'orthorhombic'
loop_
_space_group_symop_operation_xyz
x,y,z
-x,1/2-y,z
x,-y,-z
-x,1/2+y,-z
-x,-y,-z
x,1/2+y,-z
-x,y,z
x,1/2-y,z
1/2+x,1/2+y,z
1/2-x,-y,z
1/2+x,1/2-y,-z
1/2-x,y,-z
1/2-x,1/2-y,-z
1/2+x,y,-z
1/2-x,1/2+y,z
1/2+x,-y,z
loop_
_atom_site_type_symbol
_atom_site_label
_atom_site_fract_x
_atom_site_fract_y
_atom_site_fract_z
Si Si1 0.669669 0.499558 0.580808
Si Si2 0.821412 0.593922 0.189641
Si Si3 0.075216 0.158196 0.913219
Si Si4 0.326286 0.659070 0.663299
Si Si5 0.576212 0.423964 0.949154
Si Si6 0.328324 0.408342 0.814859
Si Si7 0.166250 0.341807 0.332845
O O1 0.644187 0.500000 0.500000
O O2 0.750000 0.500000 0.585124
O O3 0.642416 0.584794 0.616371
O O4 0.638577 0.416925 0.618058
O O5 0.872223 0.597364 0.123667
O O6 0.848508 0.649135 0.254630
O O7 0.746930 0.621998 0.163640
O O8 0.821260 0.500097 0.216592
O O9 0.091779 0.250000 0.887873
O O10 0.000000 0.131360 0.889944
O O11 0.080834 0.154768 0.998778
O O12 0.350704 0.750000 0.636328
O O13 0.246172 0.654221 0.661388
O O14 0.500000 0.438461 0.920975
O O15 0.624072 0.404929 0.883080
O O16 0.598808 0.500000 0.000000
O O17 0.356629 0.353921 0.749424
O O18 0.140861 0.250000 0.357422
#
# Coordination Sequence:
#
# PCOD8278374 Si02
#       7
#    16  16  16  16  16  16  16
#     4   9  16  26  41  64  96 130 164 200 240 293
#     4  10  18  31  49  72  98 129 168 210 253 302
#     4  10  21  36  52  72 100 131 164 208 261 313
#     4   9  16  27  44  65  93 127 163 203 250 298
#     4  10  20  35  52  70  96 131 169 208 257 310
#     4  10  19  31  50  72  96 130 171 213 251 298
#     4   9  17  29  44  64  94 131 166 202 248 298
#
# _framework density 18.509943
#
# number of rings (size 3 to 8) (size 9 to 14) (size 15 to 20)
#    0.000    2.429    2.857    0.429    0.000    2.286 
#    0.000    3.571    0.000    0.000    0.000    0.000 
#    0.000    2.286    0.000    2.714    0.000    3.143 
#
# Total GULP energy -693874.417770 kJ/mol
# GULP energy per Si atom -12390.614603 kJ/mol
# Density = 1.846781 g / cm^3
# Si number density = 18.509943 Si / 1000 Ang^3
#
#
#
# Elastic Constant Matrix: (Units=GPa)
#
#
# Indices 1 2 3 4 5 6 
#
# 1 46.0713 24.5319 39.2040 0.0000 0.0000 0.0000
# 2 24.5319 123.5234 61.7188 0.0000 0.0000 0.0000
# 3 39.2040 61.7188 116.2894 0.0000 0.0000 0.0000
# 4 0.0000 0.0000 0.0000 21.4121 0.0000 0.0000
# 5 0.0000 0.0000 0.0000 0.0000 0.4168 0.0000
# 6 0.0000 0.0000 0.0000 0.0000 0.0000 12.9452
#
#
#
# Elastic Compliance Matrix: (Units=1/GPa)
#
#
# Indices 1 2 3 4 5 6 
#
# 1 0.030579 -0.001255 -0.009643 0.000000 0.000000 0.000000
# 2 -0.001255 0.011069 -0.005451 0.000000 0.000000 0.000000
# 3 -0.009643 -0.005451 0.014743 0.000000 0.000000 0.000000
# 4 0.000000 0.000000 0.000000 0.046703 0.000000 0.000000
# 5 0.000000 0.000000 0.000000 0.000000 2.398984 0.000000
# 6 0.000000 0.000000 0.000000 0.000000 0.000000 0.077249
#
#
# Mechanical properties :
#
#
# Convention : Reuss Voigt Hill
#
# Bulk Modulus (GPa) = 42.20722 59.64373 50.92548
# Shear Modulus (GPa) = 1.90845 17.65011 9.77928
#
# Velocity S-wave (km/s) = 1.01650 3.09131 2.30103
# Velocity P-wave (km/s) = 4.92236 6.71074 5.88488
#
# Compressibility (1/GPa) = 0.02369263
#
# Stress axis : x y z
#
# Youngs Moduli (GPa) = 32.70179 90.34478 67.82680
#
# Poissons Ratio (x) = 0.11338 0.65406
# Poissons Ratio (y) = 0.04104 0.36976
# Poissons Ratio (z) = 0.31534 0.49251
#
# Static dielectric constant tensor:
#      x y z
#    x 2.864770 0.000000 0.000000 
#    y 0.000000 3.707990 0.000000 
#    z 0.000000 0.000000 3.310780 
# 
# 
# High freq. dielectric constant tensor:
#      x y z
#    x 1.653460 0.000000 0.000000 
#    y 0.000000 1.733750 0.000000 
#    z 0.000000 0.000000 1.709160 
# 
# From -- ./inp_files/35141.got.cif
#   From: 2010.03.12/outbox.cif.g09.slc.cpg/sg67_18_cif.got.tgz:35141.got - 2010.04.10 22:41:39.
