data_PCOD8278352
_publ_section_title
;
Structure prediction by ZEFSAII (Michael W. Deem and Ramdas Pophale) SiO2 
 PCOD8278352
Probable space group: C M M A
;
_chemical_formula_sum "Si O2"
_cell_formula_units_Z 80
_cell_length_a 16.691595
_cell_length_b 15.009113
_cell_length_c 13.824796
_cell_angle_alpha 90.000000
_cell_angle_beta 90.000000
_cell_angle_gamma 90.000000
_cell_volume 3463.471334
_symmetry_space_group_name_H-M "C M M A"
_symmetry_group_IT_number 67
_symmetry_cell_setting 'orthorhombic'
loop_
_space_group_symop_operation_xyz
x,y,z
-x,1/2-y,z
x,-y,-z
-x,1/2+y,-z
-x,-y,-z
x,1/2+y,-z
-x,y,z
x,1/2-y,z
1/2+x,1/2+y,z
1/2-x,-y,z
1/2+x,1/2-y,-z
1/2-x,y,-z
1/2-x,1/2-y,-z
1/2+x,y,-z
1/2-x,1/2+y,z
1/2+x,-y,z
loop_
_atom_site_type_symbol
_atom_site_label
_atom_site_fract_x
_atom_site_fract_y
_atom_site_fract_z
Si Si1 0.331553 0.901430 0.042675
Si Si2 0.500000 0.101883 0.027053
Si Si3 0.188732 0.644010 0.740726
Si Si4 0.910962 0.643955 0.561046
Si Si5 0.152369 0.855923 0.361995
Si Si6 0.000000 0.144361 0.753681
O O1 0.326292 0.904768 0.158275
O O2 0.250000 0.853950 0.000000
O O3 0.416467 0.853289 0.013044
O O4 0.333812 0.000000 0.000000
O O5 0.500000 0.104376 0.141024
O O6 0.500000 0.000000 0.000000
O O7 0.190256 0.750000 0.758227
O O8 0.120274 0.613639 0.665755
O O9 0.269963 0.607300 0.692461
O O10 0.911574 0.750000 0.556419
O O11 0.855100 0.608711 0.472753
O O12 0.000000 0.605736 0.546978
O O13 0.156090 0.750000 0.363322
O O14 0.076915 0.891605 0.302559
O O15 0.000000 0.250000 0.759781
#
# Coordination Sequence:
#
# PCOD8278352 Si02
#       6
#    16   8  16  16  16   8
#     4  10  22  40  57  76 105 146 194 232 280 329
#     4  10  22  38  55  76 102 144 189 235 280 327
#     4  10  20  31  52  83 114 145 183 229 272 318
#     4   9  16  28  47  77 119 153 174 208 267 335
#     4   9  16  29  48  78 116 148 175 214 269 332
#     4  10  18  30  53  80 107 142 184 225 267 319
#
# _framework density 23.098213999999999
#
# number of rings (size 3 to 8) (size 9 to 14) (size 15 to 20)
#    0.000    2.400    1.000    1.800    1.400    3.600 
#    0.000    0.000    0.000    0.000    0.000   44.800 
#    0.000    0.000    0.000    0.000    0.000    1.200 
#
# Total GULP energy -495721.076786 kJ/mol
# GULP energy per Si atom -12393.026920 kJ/mol
# Density = 2.304564 g / cm^3
# Si number density = 23.098214 Si / 1000 Ang^3
#
#
#
# Elastic Constant Matrix: (Units=GPa)
#
#
# Indices 1 2 3 4 5 6 
#
# 1 179.3167 11.8357 78.1610 0.0000 0.0000 0.0000
# 2 11.8357 18.0202 25.6796 0.0000 0.0000 0.0000
# 3 78.1610 25.6796 239.9993 0.0000 0.0000 0.0000
# 4 0.0000 0.0000 0.0000 -21.4045 0.0000 0.0000
# 5 0.0000 0.0000 0.0000 0.0000 40.6728 0.0000
# 6 0.0000 0.0000 0.0000 0.0000 0.0000 2.9866
#
#
#
# Elastic Compliance Matrix: (Units=1/GPa)
#
#
# Indices 1 2 3 4 5 6 
#
# 1 0.006533 -0.001485 -0.001969 0.000000 0.000000 0.000000
# 2 -0.001485 0.065815 -0.006558 0.000000 0.000000 0.000000
# 3 -0.001969 -0.006558 0.005510 0.000000 0.000000 0.000000
# 4 0.000000 0.000000 0.000000 -0.046719 0.000000 0.000000
# 5 0.000000 0.000000 0.000000 0.000000 0.024586 0.000000
# 6 0.000000 0.000000 0.000000 0.000000 0.000000 0.334830
#
#
# Mechanical properties :
#
#
# Convention : Reuss Voigt Hill
#
# Bulk Modulus (GPa) = 17.29131 74.29875 45.79503
# Shear Modulus (GPa) = 11.63179 25.89497 18.76338
#
# Velocity S-wave (km/s) = 2.24649 3.35189 2.85323
# Velocity P-wave (km/s) = 3.77243 6.87142 5.54291
#
# Compressibility (1/GPa) = 0.05783252
#
# Stress axis : x y z
#
# Youngs Moduli (GPa) = 153.07234 15.19413 181.50341
#
# Poissons Ratio (x) = 0.02257 0.35731
# Poissons Ratio (y) = 0.22738 1.19036
# Poissons Ratio (z) = 0.30134 0.09965
#
# Static dielectric constant tensor:
#      x y z
#    x 5.584460 0.000000 0.000000 
#    y 0.000000 3.445900 0.000000 
#    z 0.000000 0.000000 4.132670 
# 
# 
# High freq. dielectric constant tensor:
#      x y z
#    x 1.932610 0.000000 0.000000 
#    y 0.000000 1.857720 0.000000 
#    z 0.000000 0.000000 1.927280 
# 
# From -- ./inp_files/19370.got.cif
#   From: 2010.03.12/outbox.cif.g09.slc.cpg/sg67_10_cif.got.tgz:19370.got - 2010.04.10 22:41:39.
