data_PCOD8278612
_publ_section_title
;
Structure prediction by ZEFSAII (Michael W. Deem and Ramdas Pophale) SiO2 
 PCOD8278612
Probable space group: C M M A
;
_chemical_formula_sum "Si O2"
_cell_formula_units_Z 104
_cell_length_a 9.324954
_cell_length_b 24.614699
_cell_length_c 27.262721
_cell_angle_alpha 90.000000
_cell_angle_beta 90.000000
_cell_angle_gamma 90.000000
_cell_volume 6257.637866
_symmetry_space_group_name_H-M "C M M A"
_symmetry_group_IT_number 67
_symmetry_cell_setting 'orthorhombic'
loop_
_space_group_symop_operation_xyz
x,y,z
-x,1/2-y,z
x,-y,-z
-x,1/2+y,-z
-x,-y,-z
x,1/2+y,-z
-x,y,z
x,1/2-y,z
1/2+x,1/2+y,z
1/2-x,-y,z
1/2+x,1/2-y,-z
1/2-x,y,-z
1/2-x,1/2-y,-z
1/2+x,y,-z
1/2-x,1/2+y,z
1/2+x,-y,z
loop_
_atom_site_type_symbol
_atom_site_label
_atom_site_fract_x
_atom_site_fract_y
_atom_site_fract_z
Si Si1 0.668027 0.188040 0.452017
Si Si2 0.837983 0.638188 0.351859
Si Si3 0.668590 0.054964 0.713440
Si Si4 0.329899 0.250000 0.949031
Si Si5 0.844706 0.250000 0.702093
Si Si6 0.330091 0.663996 0.129719
Si Si7 0.332468 0.445966 0.826550
Si Si8 0.330720 0.750000 0.204429
O O1 0.500000 0.186316 0.462649
O O2 0.715234 0.250000 0.439146
O O3 0.750000 0.166920 0.500000
O O4 0.707186 0.145442 0.408655
O O5 0.726651 0.601155 0.322553
O O6 0.830261 0.698441 0.331739
O O7 0.000000 0.614641 0.346715
O O8 0.500000 0.047358 0.704436
O O9 0.700219 0.070601 0.770174
O O10 0.750000 0.000000 0.699684
O O11 0.500000 0.250000 0.957384
O O12 0.281088 0.304863 0.919880
O O13 0.250000 0.250000 0.000000
O O14 0.717847 0.250000 0.740415
O O15 0.000000 0.250000 0.728928
O O16 0.500000 0.664606 0.131251
O O17 0.277095 0.601870 0.136645
O O18 0.270960 0.697029 0.176460
O O19 0.500000 0.457236 0.833590
O O20 0.250000 0.500000 0.842342
O O21 0.500000 0.750000 0.203846
#
# Coordination Sequence:
#
# PCOD8278612 Si02
#       8
#    16  16  16   8   8  16  16   8
#     4   9  17  31  49  68  92 122 155 192 236 286
#     4  10  19  32  48  67  96 129 157 188 234 288
#     4  10  20  33  50  72  97 127 163 199 233 274
#     4   9  17  31  51  72  94 123 156 193 238 282
#     4  10  19  29  42  66 100 131 152 182 236 286
#     4   8  15  29  48  67  91 124 156 189 235 281
#     4   9  17  30  47  68  94 124 158 193 228 271
#     4   9  16  28  45  64  88 120 158 193 225 274
#
# _framework density 16.619689000000001
#
# number of rings (size 3 to 8) (size 9 to 14) (size 15 to 20)
#    0.000    2.769    0.769    2.308    0.000    3.077 
#    0.000    3.077    0.000    0.923    0.000    6.462 
#    0.000    0.000    0.000    0.000    0.000    0.000 
#
# Total GULP energy -644431.800412 kJ/mol
# GULP energy per Si atom -12392.919239 kJ/mol
# Density = 1.658186 g / cm^3
# Si number density = 16.619689 Si / 1000 Ang^3
#
#
#
# Elastic Constant Matrix: (Units=GPa)
#
#
# Indices 1 2 3 4 5 6 
#
# 1 52.5014 45.7213 38.5963 0.0000 0.0000 0.0000
# 2 45.7213 118.6742 57.2495 0.0000 0.0000 0.0000
# 3 38.5963 57.2495 100.2055 0.0000 0.0000 0.0000
# 4 0.0000 0.0000 0.0000 26.4682 0.0000 0.0000
# 5 0.0000 0.0000 0.0000 0.0000 27.3179 0.0000
# 6 0.0000 0.0000 0.0000 0.0000 0.0000 22.9337
#
#
#
# Elastic Compliance Matrix: (Units=1/GPa)
#
#
# Indices 1 2 3 4 5 6 
#
# 1 0.032136 -0.008849 -0.007323 0.000000 0.000000 0.000000
# 2 -0.008849 0.014069 -0.004630 0.000000 0.000000 0.000000
# 3 -0.007323 -0.004630 0.015445 0.000000 0.000000 0.000000
# 4 0.000000 0.000000 0.000000 0.037781 0.000000 0.000000
# 5 0.000000 0.000000 0.000000 0.000000 0.036606 0.000000
# 6 0.000000 0.000000 0.000000 0.000000 0.000000 0.043604
#
#
# Mechanical properties :
#
#
# Convention : Reuss Voigt Hill
#
# Bulk Modulus (GPa) = 49.87916 61.61282 55.74599
# Shear Modulus (GPa) = 21.93703 23.99824 22.96764
#
# Velocity S-wave (km/s) = 3.63704 3.80408 3.72150
# Velocity P-wave (km/s) = 6.90758 7.51314 7.21672
#
# Compressibility (1/GPa) = 0.02004845
#
# Stress axis : x y z
#
# Youngs Moduli (GPa) = 31.11770 71.07898 64.74620
#
# Poissons Ratio (x) = 0.62894 0.47411
# Poissons Ratio (y) = 0.27535 0.29975
# Poissons Ratio (z) = 0.22786 0.32907
#
# Static dielectric constant tensor:
#      x y z
#    x 3.004080 0.000000 0.000000 
#    y 0.000000 3.192100 0.000000 
#    z 0.000000 0.000000 3.068050 
# 
# 
# High freq. dielectric constant tensor:
#      x y z
#    x 1.626000 0.000000 0.000000 
#    y 0.000000 1.634100 0.000000 
#    z 0.000000 0.000000 1.626170 
# 
# From -- ./inp_files/43760.got.cif
#   From: 2010.03.12/outbox.cif.g09.slc.cpg/sg67_22_cif.got.tgz:43760.got - 2010.04.10 22:41:39.
