data_PCOD8278311
_publ_section_title
;
Structure prediction by ZEFSAII (Michael W. Deem and Ramdas Pophale) SiO2 
 PCOD8278311
Probable space group: C M M A
;
_chemical_formula_sum "Si O2"
_cell_formula_units_Z 120
_cell_length_a 27.054330
_cell_length_b 8.814664
_cell_length_c 28.164319
_cell_angle_alpha 90.000000
_cell_angle_beta 90.000000
_cell_angle_gamma 90.000000
_cell_volume 6716.481149
_symmetry_space_group_name_H-M "C M M A"
_symmetry_group_IT_number 67
_symmetry_cell_setting 'orthorhombic'
loop_
_space_group_symop_operation_xyz
x,y,z
-x,1/2-y,z
x,-y,-z
-x,1/2+y,-z
-x,-y,-z
x,1/2+y,-z
-x,y,z
x,1/2-y,z
1/2+x,1/2+y,z
1/2-x,-y,z
1/2+x,1/2-y,-z
1/2-x,y,-z
1/2-x,1/2-y,-z
1/2+x,y,-z
1/2-x,1/2+y,z
1/2+x,-y,z
loop_
_atom_site_type_symbol
_atom_site_label
_atom_site_fract_x
_atom_site_fract_y
_atom_site_fract_z
Si Si1 0.801864 0.071304 0.610111
Si Si2 0.302910 0.927877 0.896869
Si Si3 0.601013 0.431481 0.448012
Si Si4 0.387509 0.570302 0.048956
Si Si5 0.699359 0.428694 0.282336
Si Si6 0.554498 0.429011 0.859098
Si Si7 0.000000 0.567412 0.552602
Si Si8 0.136222 0.573357 0.195792
O O1 0.795210 0.250000 0.606320
O O2 0.849785 0.017993 0.580492
O O3 0.812384 0.018021 0.664099
O O4 0.750000 0.000000 0.591341
O O5 0.300628 0.750000 0.906223
O O6 0.324946 0.967459 0.845339
O O7 0.250000 0.000000 0.899045
O O8 0.333681 0.004826 0.939144
O O9 0.607793 0.500000 0.500000
O O10 0.595449 0.250000 0.449884
O O11 0.551028 0.503087 0.423754
O O12 0.385386 0.750000 0.044654
O O13 0.423836 0.514392 0.090745
O O14 0.407329 0.500000 0.000000
O O15 0.705416 0.250000 0.279339
O O16 0.750000 0.500000 0.263971
O O17 0.656448 0.483818 0.246681
O O18 0.500000 0.497330 0.854206
O O19 0.554311 0.250000 0.857646
O O20 0.585303 0.487647 0.814183
O O21 0.000000 0.500000 0.500000
O O22 0.000000 0.750000 0.553090
O O23 0.124645 0.750000 0.196841
#
# Coordination Sequence:
#
# PCOD8278311 Si02
#       8
#    16  16  16  16  16  16   8  16
#     4   9  19  33  50  72 102 137 171 207 251 303
#     4  10  19  31  47  70  97 124 154 189 230 277
#     4  10  19  32  50  73 100 134 173 214 258 304
#     4  10  20  34  50  69  94 123 156 192 231 276
#     4   9  17  31  50  74 101 129 162 198 238 286
#     4   9  19  35  53  72  95 124 156 192 236 283
#     4  10  18  30  50  74  96 124 164 212 258 300
#     4   9  18  31  50  74  98 122 154 196 236 280
#
# _framework density 17.866499000000001
#
# number of rings (size 3 to 8) (size 9 to 14) (size 15 to 20)
#    0.000    2.533    0.000    3.000    0.000    3.733 
#    0.000    2.667    1.467    0.000    0.000    0.000 
#    0.000    0.000    0.000    0.000    0.000    0.000 
#
# Total GULP energy -743829.956812 kJ/mol
# GULP energy per Si atom -12397.165947 kJ/mol
# Density = 1.782583 g / cm^3
# Si number density = 17.866499 Si / 1000 Ang^3
#
#
#
# Elastic Constant Matrix: (Units=GPa)
#
#
# Indices 1 2 3 4 5 6 
#
# 1 172.5860 45.6040 63.8993 0.0000 0.0000 0.0000
# 2 45.6040 53.5413 28.1921 0.0000 0.0000 0.0000
# 3 63.8993 28.1921 81.4501 0.0000 0.0000 0.0000
# 4 0.0000 0.0000 0.0000 23.0212 0.0000 0.0000
# 5 0.0000 0.0000 0.0000 0.0000 12.2541 0.0000
# 6 0.0000 0.0000 0.0000 0.0000 0.0000 29.3302
#
#
#
# Elastic Compliance Matrix: (Units=1/GPa)
#
#
# Indices 1 2 3 4 5 6 
#
# 1 0.009103 -0.004883 -0.005451 0.000000 0.000000 0.000000
# 2 -0.004883 0.025459 -0.004981 0.000000 0.000000 0.000000
# 3 -0.005451 -0.004981 0.018278 0.000000 0.000000 0.000000
# 4 0.000000 0.000000 0.000000 0.043438 0.000000 0.000000
# 5 0.000000 0.000000 0.000000 0.000000 0.081605 0.000000
# 6 0.000000 0.000000 0.000000 0.000000 0.000000 0.034095
#
#
# Mechanical properties :
#
#
# Convention : Reuss Voigt Hill
#
# Bulk Modulus (GPa) = 45.02643 64.77425 54.90034
# Shear Modulus (GPa) = 19.99901 24.24656 22.12279
#
# Velocity S-wave (km/s) = 3.34931 3.68788 3.52266
# Velocity P-wave (km/s) = 6.34141 7.38019 6.88043
#
# Compressibility (1/GPa) = 0.02220918
#
# Stress axis : x y z
#
# Youngs Moduli (GPa) = 109.85666 39.27849 54.71011
#
# Poissons Ratio (x) = 0.19180 0.29823
# Poissons Ratio (y) = 0.53643 0.27253
# Poissons Ratio (z) = 0.59885 0.19566
#
# Static dielectric constant tensor:
#      x y z
#    x 3.702300 0.000000 0.000000 
#    y 0.000000 3.284880 0.000000 
#    z 0.000000 0.000000 3.369320 
# 
# 
# High freq. dielectric constant tensor:
#      x y z
#    x 1.695590 0.000000 0.000000 
#    y 0.000000 1.693520 0.000000 
#    z 0.000000 0.000000 1.672940 
# 
# From -- ./inp_files/45005.got.cif
#   From: 2010.03.12/outbox.cif.g09.slc.cpg/sg67_23_cif.got.tgz:45005.got - 2010.04.10 22:41:39.
