data_PCOD8278947
_publ_section_title
;
Structure prediction by ZEFSAII (Michael W. Deem and Ramdas Pophale) SiO2 
 PCOD8278947
Probable space group: C M M A
;
_chemical_formula_sum "Si O2"
_cell_formula_units_Z 80
_cell_length_a 21.495048
_cell_length_b 17.051428
_cell_length_c 11.630454
_cell_angle_alpha 90.000000
_cell_angle_beta 90.000000
_cell_angle_gamma 90.000000
_cell_volume 4262.808693
_symmetry_space_group_name_H-M "C M M A"
_symmetry_group_IT_number 67
_symmetry_cell_setting 'orthorhombic'
loop_
_space_group_symop_operation_xyz
x,y,z
-x,1/2-y,z
x,-y,-z
-x,1/2+y,-z
-x,-y,-z
x,1/2+y,-z
-x,y,z
x,1/2-y,z
1/2+x,1/2+y,z
1/2-x,-y,z
1/2+x,1/2-y,-z
1/2-x,y,-z
1/2-x,1/2-y,-z
1/2+x,y,-z
1/2-x,1/2+y,z
1/2+x,-y,z
loop_
_atom_site_type_symbol
_atom_site_label
_atom_site_fract_x
_atom_site_fract_y
_atom_site_fract_z
Si Si1 0.069025 0.656578 0.454953
Si Si2 0.307578 0.843213 0.423563
Si Si3 0.664188 0.911110 0.961943
Si Si4 0.777650 0.841217 0.832133
Si Si5 0.928182 0.837170 0.196720
O O1 0.067479 0.750000 0.457807
O O2 0.125431 0.623323 0.533240
O O3 0.082895 0.629202 0.324702
O O4 0.000000 0.625782 0.494727
O O5 0.309067 0.750000 0.432493
O O6 0.250000 0.875748 0.500000
O O7 0.298829 0.871243 0.292823
O O8 0.718680 0.891518 0.871874
O O9 0.600041 0.895778 0.896967
O O10 0.667610 0.856216 0.075430
O O11 0.669511 0.000000 0.000000
O O12 0.759793 0.750000 0.828530
O O13 0.898139 0.750000 0.186152
O O14 0.000000 0.831899 0.168197
#
# Coordination Sequence:
#
# PCOD8278947 Si02
#       5
#    16  16  16  16  16
#     4   8  14  26  46  73 102 128 158 203 255 301
#     4   9  16  26  45  73  98 121 158 208 257 304
#     4  11  21  33  49  69 100 133 165 207 254 299
#     4  10  19  32  51  72  95 126 164 206 253 303
#     4   9  17  31  53  77  99 129 170 208 242 291
#
# _framework density 18.766969
#
# number of rings (size 3 to 8) (size 9 to 14) (size 15 to 20)
#    0.000    2.600    0.000    6.000    0.000    3.600 
#    0.000    1.000    0.000   12.000    0.000    2.800 
#    0.000    0.000    0.000    0.000    0.000    0.000 
#
# Total GULP energy -495794.869175 kJ/mol
# GULP energy per Si atom -12394.871729 kJ/mol
# Density = 1.872425 g / cm^3
# Si number density = 18.766969 Si / 1000 Ang^3
#
#
#
# Elastic Constant Matrix: (Units=GPa)
#
#
# Indices 1 2 3 4 5 6 
#
# 1 122.2297 28.8465 91.3139 0.0000 0.0000 0.0000
# 2 28.8465 56.0648 29.4090 0.0000 0.0000 0.0000
# 3 91.3139 29.4090 156.5008 0.0000 0.0000 0.0000
# 4 0.0000 0.0000 0.0000 6.8761 0.0000 0.0000
# 5 0.0000 0.0000 0.0000 0.0000 40.1377 0.0000
# 6 0.0000 0.0000 0.0000 0.0000 0.0000 7.8227
#
#
#
# Elastic Compliance Matrix: (Units=1/GPa)
#
#
# Indices 1 2 3 4 5 6 
#
# 1 0.015095 -0.003491 -0.008151 0.000000 0.000000 0.000000
# 2 -0.003491 0.020594 -0.001833 0.000000 0.000000 0.000000
# 3 -0.008151 -0.001833 0.011490 0.000000 0.000000 0.000000
# 4 0.000000 0.000000 0.000000 0.145432 0.000000 0.000000
# 5 0.000000 0.000000 0.000000 0.000000 0.024914 0.000000
# 6 0.000000 0.000000 0.000000 0.000000 0.000000 0.127833
#
#
# Mechanical properties :
#
#
# Convention : Reuss Voigt Hill
#
# Bulk Modulus (GPa) = 49.43500 70.43711 59.93605
# Shear Modulus (GPa) = 13.19080 23.31569 18.25324
#
# Velocity S-wave (km/s) = 2.65405 3.52856 3.12208
# Velocity P-wave (km/s) = 5.98253 7.36308 6.70841
#
# Compressibility (1/GPa) = 0.02022858
#
# Stress axis : x y z
#
# Youngs Moduli (GPa) = 66.24790 48.55735 87.02937
#
# Poissons Ratio (x) = 0.16950 0.70941
# Poissons Ratio (y) = 0.23125 0.15955
# Poissons Ratio (z) = 0.54002 0.08902
#
# Static dielectric constant tensor:
#      x y z
#    x 3.639590 0.000000 0.000000 
#    y 0.000000 3.133000 0.000000 
#    z 0.000000 0.000000 3.693990 
# 
# 
# High freq. dielectric constant tensor:
#      x y z
#    x 1.728170 0.000000 0.000000 
#    y 0.000000 1.682230 0.000000 
#    z 0.000000 0.000000 1.733270 
# 
# From -- ./inp_files/17907.got.cif
#   From: 2010.03.12/outbox.cif.g09.slc.cpg/sg67_9_cif.got.tgz:17907.got - 2010.04.10 22:41:39.
