data_PCOD8278399
_publ_section_title
;
Structure prediction by ZEFSAII (Michael W. Deem and Ramdas Pophale) SiO2 
 PCOD8278399
Probable space group: C M M A
;
_chemical_formula_sum "Si O2"
_cell_formula_units_Z 84
_cell_length_a 20.990946
_cell_length_b 19.034588
_cell_length_c 12.311818
_cell_angle_alpha 90.000000
_cell_angle_beta 90.000000
_cell_angle_gamma 90.000000
_cell_volume 4919.236238
_symmetry_space_group_name_H-M "C M M A"
_symmetry_group_IT_number 67
_symmetry_cell_setting 'orthorhombic'
loop_
_space_group_symop_operation_xyz
x,y,z
-x,1/2-y,z
x,-y,-z
-x,1/2+y,-z
-x,-y,-z
x,1/2+y,-z
-x,y,z
x,1/2-y,z
1/2+x,1/2+y,z
1/2-x,-y,z
1/2+x,1/2-y,-z
1/2-x,y,-z
1/2-x,1/2-y,-z
1/2+x,y,-z
1/2-x,1/2+y,z
1/2+x,-y,z
loop_
_atom_site_type_symbol
_atom_site_label
_atom_site_fract_x
_atom_site_fract_y
_atom_site_fract_z
Si Si1 0.689118 0.417795 0.129551
Si Si2 0.926344 0.075978 0.288733
Si Si3 0.426847 0.171793 0.510282
Si Si4 0.642133 0.435122 0.357294
Si Si5 0.250000 0.500000 0.500000
Si Si6 0.671407 0.917666 0.105306
O O1 0.652982 0.398705 0.240215
O O2 0.687085 0.500903 0.115877
O O3 0.760264 0.384560 0.139375
O O4 0.655219 0.391056 0.017706
O O5 0.918261 0.140199 0.370410
O O6 0.887617 0.100979 0.182519
O O7 0.000000 0.062850 0.257063
O O8 0.898958 0.006081 0.345565
O O9 0.500000 0.175356 0.477677
O O10 0.396783 0.250000 0.509456
O O11 0.394543 0.123295 0.422276
O O12 0.707674 0.452038 0.420164
#
# Coordination Sequence:
#
# PCOD8278399 Si02
#       6
#    16  16  16  16   4  16
#     4   8  15  26  47  68 100 128 158 197 247 299
#     4  10  18  31  52  75  99 127 167 211 250 294
#     4  10  21  36  51  69  99 136 169 205 250 297
#     4  11  19  31  50  76 102 131 167 205 250 297
#     4  12  20  28  52  78 104 132 170 206 242 296
#     4   8  14  28  45  71  96 129 160 197 248 297
#
# _framework density 17.075821999999999
#
# number of rings (size 3 to 8) (size 9 to 14) (size 15 to 20)
#    0.000    2.476    1.905    4.000    0.000    1.524 
#    0.000    9.048    0.000    1.143    0.000    5.333 
#    0.000    0.000    0.000    0.000    0.000    0.000 
#
# Total GULP energy -520313.665900 kJ/mol
# GULP energy per Si atom -12388.420617 kJ/mol
# Density = 1.703696 g / cm^3
# Si number density = 17.075822 Si / 1000 Ang^3
#
#
#
# Elastic Constant Matrix: (Units=GPa)
#
#
# Indices 1 2 3 4 5 6 
#
# 1 92.5410 35.0448 75.0026 0.0000 0.0000 0.0000
# 2 35.0448 67.2883 41.4877 0.0000 0.0000 0.0000
# 3 75.0026 41.4877 138.4239 0.0000 0.0000 0.0000
# 4 0.0000 0.0000 0.0000 3.0474 0.0000 0.0000
# 5 0.0000 0.0000 0.0000 0.0000 -58.6798 0.0000
# 6 0.0000 0.0000 0.0000 0.0000 0.0000 7.1306
#
#
#
# Elastic Compliance Matrix: (Units=1/GPa)
#
#
# Indices 1 2 3 4 5 6 
#
# 1 0.020398 -0.004673 -0.009652 0.000000 0.000000 0.000000
# 2 -0.004673 0.019301 -0.003253 0.000000 0.000000 0.000000
# 3 -0.009652 -0.003253 0.013429 0.000000 0.000000 0.000000
# 4 0.000000 0.000000 0.000000 0.328145 0.000000 0.000000
# 5 0.000000 0.000000 0.000000 0.000000 -0.017042 0.000000
# 6 0.000000 0.000000 0.000000 0.000000 0.000000 0.140241
#
#
# Mechanical properties :
#
#
# Convention : Reuss Voigt Hill
#
# Bulk Modulus (GPa) = 55.63985 66.81373 61.22679
# Shear Modulus (GPa) = 9.16390 0.08084 4.62237
#
# Velocity S-wave (km/s) = 2.31910 0.21781 1.64707
# Velocity P-wave (km/s) = 6.31076 6.26705 6.28894
#
# Compressibility (1/GPa) = 0.01797273
#
# Stress axis : x y z
#
# Youngs Moduli (GPa) = 49.02378 51.81173 74.46635
#
# Poissons Ratio (x) = 0.24210 0.71875
# Poissons Ratio (y) = 0.22907 0.24223
# Poissons Ratio (z) = 0.47318 0.16854
#
# Static dielectric constant tensor:
#      x y z
#    x 3.410330 0.000000 0.000000 
#    y 0.000000 2.888810 0.000000 
#    z 0.000000 0.000000 3.713050 
# 
# 
# High freq. dielectric constant tensor:
#      x y z
#    x 1.656830 0.000000 0.000000 
#    y 0.000000 1.605080 0.000000 
#    z 0.000000 0.000000 1.676850 
# 
# From -- ./inp_files/20795.got.cif
#   From: 2010.03.12/outbox.cif.g09.slc.cpg/sg67_11_cif.got.tgz:20795.got - 2010.04.10 22:41:39.
