data_PCOD8278031
_publ_section_title
;
Structure prediction by ZEFSAII (Michael W. Deem and Ramdas Pophale) SiO2 
 PCOD8278031
Probable space group: C M M A
;
_chemical_formula_sum "Si O2"
_cell_formula_units_Z 64
_cell_length_a 8.784814
_cell_length_b 30.658743
_cell_length_c 15.297862
_cell_angle_alpha 90.000000
_cell_angle_beta 90.000000
_cell_angle_gamma 90.000000
_cell_volume 4120.193897
_symmetry_space_group_name_H-M "C M M A"
_symmetry_group_IT_number 67
_symmetry_cell_setting 'orthorhombic'
loop_
_space_group_symop_operation_xyz
x,y,z
-x,1/2-y,z
x,-y,-z
-x,1/2+y,-z
-x,-y,-z
x,1/2+y,-z
-x,y,z
x,1/2-y,z
1/2+x,1/2+y,z
1/2-x,-y,z
1/2+x,1/2-y,-z
1/2-x,y,-z
1/2-x,1/2-y,-z
1/2+x,y,-z
1/2-x,1/2+y,z
1/2+x,-y,z
loop_
_atom_site_type_symbol
_atom_site_label
_atom_site_fract_x
_atom_site_fract_y
_atom_site_fract_z
Si Si1 0.671044 0.198077 0.586542
Si Si2 0.681841 0.956802 0.096874
Si Si3 0.680576 0.369175 0.094845
Si Si4 0.821449 0.799131 0.237148
O O1 0.500000 0.180850 0.586971
O O2 0.680905 0.250000 0.584316
O O3 0.750000 0.178476 0.500000
O O4 0.750648 0.180877 0.674513
O O5 0.500000 0.958271 0.096366
O O6 0.743916 0.912146 0.139965
O O7 0.750000 0.000000 0.145018
O O8 0.750000 0.956125 0.000000
O O9 0.500000 0.375760 0.086952
O O10 0.726029 0.328472 0.155108
O O11 0.750000 0.359574 0.000000
O O12 0.761494 0.750000 0.219070
O O13 0.000000 0.799118 0.251471
#
# Coordination Sequence:
#
# PCOD8278031 Si02
#       4
#    16  16  16  16
#     4   9  16  26  42  62  82 105 135 173 216 258
#     4  10  17  27  43  61  81 104 134 172 215 258
#     4  10  19  30  43  60  84 114 147 180 213 249
#     4   9  18  31  44  59  83 115 148 180 212 247
#
# _framework density 15.533250000000001
#
# number of rings (size 3 to 8) (size 9 to 14) (size 15 to 20)
#    0.000    2.500    0.000    6.000    0.000    5.500 
#    0.000    0.000    0.000    0.000    0.000    0.000 
#    0.000    1.000    0.000   10.500    0.000    5.000 
#
# Total GULP energy -396625.574321 kJ/mol
# GULP energy per Si atom -12394.549198 kJ/mol
# Density = 1.549790 g / cm^3
# Si number density = 15.533250 Si / 1000 Ang^3
#
#
#
# Elastic Constant Matrix: (Units=GPa)
#
#
# Indices 1 2 3 4 5 6 
#
# 1 93.6800 47.9523 45.8041 0.0000 0.0000 0.0000
# 2 47.9523 90.5331 53.4421 0.0000 0.0000 0.0000
# 3 45.8041 53.4421 94.0925 0.0000 0.0000 0.0000
# 4 0.0000 0.0000 0.0000 0.8678 0.0000 0.0000
# 5 0.0000 0.0000 0.0000 0.0000 23.6906 0.0000
# 6 0.0000 0.0000 0.0000 0.0000 0.0000 19.9875
#
#
#
# Elastic Compliance Matrix: (Units=1/GPa)
#
#
# Indices 1 2 3 4 5 6 
#
# 1 0.015776 -0.005751 -0.004414 0.000000 0.000000 0.000000
# 2 -0.005751 0.018713 -0.007829 0.000000 0.000000 0.000000
# 3 -0.004414 -0.007829 0.017223 0.000000 0.000000 0.000000
# 4 0.000000 0.000000 0.000000 1.152311 0.000000 0.000000
# 5 0.000000 0.000000 0.000000 0.000000 0.042211 0.000000
# 6 0.000000 0.000000 0.000000 0.000000 0.000000 0.050031
#
#
# Mechanical properties :
#
#
# Convention : Reuss Voigt Hill
#
# Bulk Modulus (GPa) = 63.59058 63.63363 63.61210
# Shear Modulus (GPa) = 3.73833 17.64966 10.69400
#
# Velocity S-wave (km/s) = 1.55303 3.37449 2.62670
# Velocity P-wave (km/s) = 6.65155 7.49919 7.08805
#
# Compressibility (1/GPa) = 0.01572560
#
# Stress axis : x y z
#
# Youngs Moduli (GPa) = 63.38619 53.43796 58.06157
#
# Poissons Ratio (x) = 0.30731 0.25626
# Poissons Ratio (y) = 0.36452 0.45457
# Poissons Ratio (z) = 0.27976 0.41837
#
# Static dielectric constant tensor:
#      x y z
#    x 3.076360 0.000000 0.000000 
#    y 0.000000 3.579200 0.000000 
#    z 0.000000 0.000000 2.804650 
# 
# 
# High freq. dielectric constant tensor:
#      x y z
#    x 1.613080 0.000000 0.000000 
#    y 0.000000 1.574230 0.000000 
#    z 0.000000 0.000000 1.562780 
# 
# From -- ./inp_files/25201.got.cif
#   From: 2010.03.12/outbox.cif.g09.slc.cpg/sg67_13_cif.got.tgz:25201.got - 2010.04.10 22:41:39.
