data_PCOD8278799
_publ_section_title
;
Structure prediction by ZEFSAII (Michael W. Deem and Ramdas Pophale) SiO2 
 PCOD8278799
Probable space group: C M M A
;
_chemical_formula_sum "Si O2"
_cell_formula_units_Z 96
_cell_length_a 9.008009
_cell_length_b 19.299901
_cell_length_c 31.262379
_cell_angle_alpha 90.000000
_cell_angle_beta 90.000000
_cell_angle_gamma 90.000000
_cell_volume 5435.079694
_symmetry_space_group_name_H-M "C M M A"
_symmetry_group_IT_number 67
_symmetry_cell_setting 'orthorhombic'
loop_
_space_group_symop_operation_xyz
x,y,z
-x,1/2-y,z
x,-y,-z
-x,1/2+y,-z
-x,-y,-z
x,1/2+y,-z
-x,y,z
x,1/2-y,z
1/2+x,1/2+y,z
1/2-x,-y,z
1/2+x,1/2-y,-z
1/2-x,y,-z
1/2-x,1/2-y,-z
1/2+x,y,-z
1/2-x,1/2+y,z
1/2+x,-y,z
loop_
_atom_site_type_symbol
_atom_site_label
_atom_site_fract_x
_atom_site_fract_y
_atom_site_fract_z
Si Si1 0.666977 0.332514 0.458445
Si Si2 0.826078 0.926056 0.212283
Si Si3 0.324804 0.671059 0.956924
Si Si4 0.323788 0.925006 0.294689
Si Si5 0.173594 0.670874 0.626581
Si Si6 0.827111 0.926645 0.118259
O O1 0.500000 0.360921 0.458888
O O2 0.671538 0.250000 0.459804
O O3 0.750000 0.363067 0.500000
O O4 0.745500 0.358929 0.415346
O O5 0.743181 0.887837 0.251749
O O6 0.799480 0.892325 0.165395
O O7 0.000000 0.932524 0.222741
O O8 0.750000 0.000000 0.209898
O O9 0.500000 0.664734 0.962088
O O10 0.275216 0.750000 0.948770
O O11 0.265366 0.626667 0.916895
O O12 0.250000 0.641931 0.000000
O O13 0.500000 0.932776 0.290383
O O14 0.277764 0.875923 0.333663
O O15 0.250000 0.000000 0.301782
O O16 0.221161 0.750000 0.636303
O O17 0.000000 0.666048 0.617540
O O18 0.000000 0.940369 0.111595
O O19 0.750000 0.000000 0.112251
#
# Coordination Sequence:
#
# PCOD8278799 Si02
#       6
#    16  16  16  16  16  16
#     4   9  16  26  43  67  93 121 153 189 229 273
#     4   9  16  28  46  67  91 119 152 187 225 270
#     4   9  18  33  50  67  91 123 156 187 223 271
#     4  10  19  31  49  70  93 123 156 190 228 272
#     4   9  18  32  48  67  93 123 154 189 229 271
#     4   9  18  31  48  70  93 118 149 189 232 269
#
# _framework density 17.663032999999999
#
# number of rings (size 3 to 8) (size 9 to 14) (size 15 to 20)
#    0.000    2.833    0.000    2.500    0.000    5.000 
#    0.000    2.500    0.000    1.500    0.000    3.500 
#    0.000    0.000    0.000    0.000    0.000    0.000 
#
# Total GULP energy -594911.131309 kJ/mol
# GULP energy per Si atom -12393.981902 kJ/mol
# Density = 1.762283 g / cm^3
# Si number density = 17.663033 Si / 1000 Ang^3
#
#
#
# Elastic Constant Matrix: (Units=GPa)
#
#
# Indices 1 2 3 4 5 6 
#
# 1 74.4414 28.6000 69.9061 0.0000 0.0000 0.0000
# 2 28.6000 51.5443 64.7572 0.0000 0.0000 0.0000
# 3 69.9061 64.7572 204.8647 0.0000 0.0000 0.0000
# 4 0.0000 0.0000 0.0000 31.2639 0.0000 0.0000
# 5 0.0000 0.0000 0.0000 0.0000 34.9210 0.0000
# 6 0.0000 0.0000 0.0000 0.0000 0.0000 16.2675
#
#
#
# Elastic Compliance Matrix: (Units=1/GPa)
#
#
# Indices 1 2 3 4 5 6 
#
# 1 0.020314 -0.004251 -0.005588 0.000000 0.000000 0.000000
# 2 -0.004251 0.033070 -0.009003 0.000000 0.000000 0.000000
# 3 -0.005588 -0.009003 0.009634 0.000000 0.000000 0.000000
# 4 0.000000 0.000000 0.000000 0.031986 0.000000 0.000000
# 5 0.000000 0.000000 0.000000 0.000000 0.028636 0.000000
# 6 0.000000 0.000000 0.000000 0.000000 0.000000 0.061472
#
#
# Mechanical properties :
#
#
# Convention : Reuss Voigt Hill
#
# Bulk Modulus (GPa) = 39.47210 73.04189 56.25699
# Shear Modulus (GPa) = 21.62246 27.66295 24.64270
#
# Velocity S-wave (km/s) = 3.50260 3.96175 3.73923
# Velocity P-wave (km/s) = 6.22523 7.89747 7.11068
#
# Compressibility (1/GPa) = 0.02533435
#
# Stress axis : x y z
#
# Youngs Moduli (GPa) = 49.22653 30.23878 103.80051
#
# Poissons Ratio (x) = 0.12855 0.58005
# Poissons Ratio (y) = 0.20926 0.93450
# Poissons Ratio (z) = 0.27508 0.27223
#
# Static dielectric constant tensor:
#      x y z
#    x 3.339690 0.000000 0.000000 
#    y 0.000000 2.911620 0.000000 
#    z 0.000000 0.000000 3.964340 
# 
# 
# High freq. dielectric constant tensor:
#      x y z
#    x 1.688740 0.000000 0.000000 
#    y 0.000000 1.631970 0.000000 
#    z 0.000000 0.000000 1.706070 
# 
# From -- ./inp_files/43655.got.cif
#   From: 2010.03.12/outbox.cif.g09.slc.cpg/sg67_22_cif.got.tgz:43655.got - 2010.04.10 22:41:39.
