data_PCOD8278927
_publ_section_title
;
Structure prediction by ZEFSAII (Michael W. Deem and Ramdas Pophale) SiO2 
 PCOD8278927
Probable space group: C M M A
;
_chemical_formula_sum "Si O2"
_cell_formula_units_Z 96
_cell_length_a 27.824272
_cell_length_b 20.111790
_cell_length_c 9.511541
_cell_angle_alpha 90.000000
_cell_angle_beta 90.000000
_cell_angle_gamma 90.000000
_cell_volume 5322.619492
_symmetry_space_group_name_H-M "C M M A"
_symmetry_group_IT_number 67
_symmetry_cell_setting 'orthorhombic'
loop_
_space_group_symop_operation_xyz
x,y,z
-x,1/2-y,z
x,-y,-z
-x,1/2+y,-z
-x,-y,-z
x,1/2+y,-z
-x,y,z
x,1/2-y,z
1/2+x,1/2+y,z
1/2-x,-y,z
1/2+x,1/2-y,-z
1/2-x,y,-z
1/2-x,1/2-y,-z
1/2+x,y,-z
1/2-x,1/2+y,z
1/2+x,-y,z
loop_
_atom_site_type_symbol
_atom_site_label
_atom_site_fract_x
_atom_site_fract_y
_atom_site_fract_z
Si Si1 0.888187 0.174272 0.874370
Si Si2 0.302894 0.894025 0.009696
Si Si3 0.943469 0.430675 0.358186
Si Si4 0.105172 0.940940 0.348760
Si Si5 0.803390 0.997964 0.767569
Si Si6 0.943765 0.677140 0.859143
O O1 0.888017 0.250000 0.817609
O O2 0.894290 0.125260 0.743656
O O3 0.840685 0.162631 0.968242
O O4 0.932253 0.160050 0.979287
O O5 0.313679 0.924560 0.165612
O O6 0.250000 0.861407 0.000000
O O7 0.305573 0.952495 0.897568
O O8 0.934032 0.504645 0.295171
O O9 0.910127 0.420040 0.494834
O O10 0.923296 0.377723 0.246820
O O11 0.000000 0.422360 0.393699
O O12 0.157036 0.978569 0.346379
O O13 0.750000 0.000000 0.698128
O O14 0.922319 0.750000 0.820655
O O15 0.000000 0.677709 0.842190
#
# Coordination Sequence:
#
# PCOD8278927 Si02
#       6
#    16  16  16  16  16  16
#     4  10  20  32  49  75 101 125 160 205 245 280
#     4   8  14  26  45  70  99 128 158 193 237 289
#     4  10  21  36  52  70  96 130 164 197 239 295
#     4  10  19  32  50  73 100 127 160 204 243 281
#     4   8  14  26  46  71  97 125 158 198 241 284
#     4   9  19  35  52  71  97 129 163 197 238 291
#
# _framework density 18.036231000000001
#
# number of rings (size 3 to 8) (size 9 to 14) (size 15 to 20)
#    0.000    2.833    0.000    3.000    0.000    4.333 
#    0.000    3.333    0.000    0.000    0.000    0.000 
#    0.000   26.667    0.000    0.000    0.000    0.000 
#
# Total GULP energy -594707.796058 kJ/mol
# GULP energy per Si atom -12389.745751 kJ/mol
# Density = 1.799518 g / cm^3
# Si number density = 18.036231 Si / 1000 Ang^3
#
#
#
# Elastic Constant Matrix: (Units=GPa)
#
#
# Indices 1 2 3 4 5 6 
#
# 1 67.3366 30.5193 39.5015 0.0000 0.0000 0.0000
# 2 30.5193 115.5512 61.0572 0.0000 0.0000 0.0000
# 3 39.5015 61.0572 64.9240 0.0000 0.0000 0.0000
# 4 0.0000 0.0000 0.0000 30.0141 0.0000 0.0000
# 5 0.0000 0.0000 0.0000 0.0000 27.5006 0.0000
# 6 0.0000 0.0000 0.0000 0.0000 0.0000 22.0898
#
#
#
# Elastic Compliance Matrix: (Units=1/GPa)
#
#
# Indices 1 2 3 4 5 6 
#
# 1 0.023504 0.002680 -0.016821 0.000000 0.000000 0.000000
# 2 0.002680 0.017508 -0.018096 0.000000 0.000000 0.000000
# 3 -0.016821 -0.018096 0.042656 0.000000 0.000000 0.000000
# 4 0.000000 0.000000 0.000000 0.033318 0.000000 0.000000
# 5 0.000000 0.000000 0.000000 0.000000 0.036363 0.000000
# 6 0.000000 0.000000 0.000000 0.000000 0.000000 0.045270
#
#
# Mechanical properties :
#
#
# Convention : Reuss Voigt Hill
#
# Bulk Modulus (GPa) = 52.10085 56.66310 54.38197
# Shear Modulus (GPa) = 18.55358 23.70315 21.12836
#
# Velocity S-wave (km/s) = 3.21079 3.62912 3.42634
# Velocity P-wave (km/s) = 6.53414 7.00322 6.77275
#
# Compressibility (1/GPa) = 0.01919355
#
# Stress axis : x y z
#
# Youngs Moduli (GPa) = 42.54684 57.11548 23.44355
#
# Poissons Ratio (x) = -0.15310 0.39434
# Poissons Ratio (y) = -0.11405 0.42425
# Poissons Ratio (z) = 0.71568 1.03359
#
# Static dielectric constant tensor:
#      x y z
#    x 3.701340 0.000000 0.000000 
#    y 0.000000 3.542570 0.000000 
#    z 0.000000 0.000000 3.134840 
# 
# 
# High freq. dielectric constant tensor:
#      x y z
#    x 1.704240 0.000000 0.000000 
#    y 0.000000 1.689410 0.000000 
#    z 0.000000 0.000000 1.675200 
# 
# From -- ./inp_files/13738.got.cif
#   From: 2010.03.12/outbox.cif.g09.slc.cpg/sg67_7_cif.got.tgz:13738.got - 2010.04.10 22:41:39.
