data_PCOD8278827
_publ_section_title
;
Structure prediction by ZEFSAII (Michael W. Deem and Ramdas Pophale) SiO2 
 PCOD8278827
Probable space group: C M M A
;
_chemical_formula_sum "Si O2"
_cell_formula_units_Z 96
_cell_length_a 16.972078
_cell_length_b 14.348746
_cell_length_c 21.540856
_cell_angle_alpha 90.000000
_cell_angle_beta 90.000000
_cell_angle_gamma 90.000000
_cell_volume 5245.802362
_symmetry_space_group_name_H-M "C M M A"
_symmetry_group_IT_number 67
_symmetry_cell_setting 'orthorhombic'
loop_
_space_group_symop_operation_xyz
x,y,z
-x,1/2-y,z
x,-y,-z
-x,1/2+y,-z
-x,-y,-z
x,1/2+y,-z
-x,y,z
x,1/2-y,z
1/2+x,1/2+y,z
1/2-x,-y,z
1/2+x,1/2-y,-z
1/2-x,y,-z
1/2-x,1/2-y,-z
1/2+x,y,-z
1/2-x,1/2+y,z
1/2+x,-y,z
loop_
_atom_site_type_symbol
_atom_site_label
_atom_site_fract_x
_atom_site_fract_y
_atom_site_fract_z
Si Si1 0.406173 0.146406 0.667730
Si Si2 0.093758 0.000000 0.430870
Si Si3 0.093561 0.500000 0.094538
Si Si4 0.906375 1.000000 0.233962
Si Si5 0.406173 0.353594 0.332271
Si Si6 0.656776 0.856783 0.000000
O O1 0.500000 0.150842 0.667916
O O2 0.369449 0.250000 0.667679
O O3 0.376821 0.091861 0.729234
O O4 0.377324 0.091875 0.606114
O O5 0.122676 0.908125 0.393887
O O6 0.000000 0.000000 0.434412
O O7 0.130563 0.000000 0.500000
O O8 0.127821 0.500000 0.164424
O O9 0.123928 0.406843 0.061245
O O10 0.000000 0.500000 0.093036
O O11 0.123928 0.593157 0.061245
O O12 0.000000 1.000000 0.231658
O O13 0.876821 0.908139 0.270766
O O14 0.500000 0.349158 0.332084
O O15 0.369449 0.250000 0.332321
O O16 0.628070 0.750000 0.000000
O O17 0.750000 0.864697 0.000000
#
# Coordination Sequence:
#
# PCOD8278827 Si02
#       6
#    16  16  16  16  16  16
#     4   8  13  21  31  43  65  97 128 162 209 258
#     4   8  13  19  26  39  59  86 129 178 211 241
#     4  10  19  31  50  73  93 114 147 192 231 263
#     4   8  15  25  36  55  79 100 127 168 217 261
#     4   8  13  21  31  43  65  97 128 162 209 258
#     4  10  21  36  51  67  92 124 151 177 218 273
#
# _framework density 18.300345
#
# number of rings (size 3 to 8) (size 9 to 14) (size 15 to 20)
#    0.000    3.333    0.000    4.000    0.000    3.333 
#    0.000    6.667    0.000    0.000    0.000    0.000 
#    0.000    0.000    0.000    0.000    0.000   53.333 
#
# Total GULP energy -594887.610874 kJ/mol
# GULP energy per Si atom -12393.491893 kJ/mol
# Density = 1.825869 g / cm^3
# Si number density = 18.300345 Si / 1000 Ang^3
#
#
#
# Elastic Constant Matrix: (Units=GPa)
#
#
# Indices 1 2 3 4 5 6 
#
# 1 25.6353 17.0199 14.6144 0.0000 0.0000 0.0000
# 2 17.0199 202.4138 104.3177 0.0000 0.0000 0.0000
# 3 14.6144 104.3177 204.7559 0.0000 0.0000 0.0000
# 4 0.0000 0.0000 0.0000 15.1925 0.0000 0.0000
# 5 0.0000 0.0000 0.0000 0.0000 -2.3941 0.0000
# 6 0.0000 0.0000 0.0000 0.0000 0.0000 12.9539
#
#
#
# Elastic Compliance Matrix: (Units=1/GPa)
#
#
# Indices 1 2 3 4 5 6 
#
# 1 0.041705 -0.002675 -0.001614 0.000000 0.000000 0.000000
# 2 -0.002675 0.006871 -0.003310 0.000000 0.000000 0.000000
# 3 -0.001614 -0.003310 0.006685 0.000000 0.000000 0.000000
# 4 0.000000 0.000000 0.000000 0.065822 0.000000 0.000000
# 5 0.000000 0.000000 0.000000 0.000000 -0.417700 0.000000
# 6 0.000000 0.000000 0.000000 0.000000 0.000000 0.077197
#
#
# Mechanical properties :
#
#
# Convention : Reuss Voigt Hill
#
# Bulk Modulus (GPa) = 24.96006 78.30101 51.63053
# Shear Modulus (GPa) = -26.19605 24.94066 -0.62769
#
# Velocity S-wave (km/s) = -3.78756 3.69569 -0.58629
# Velocity P-wave (km/s) = 2.33639 7.81603 5.27407
#
# Compressibility (1/GPa) = 0.04006400
#
# Stress axis : x y z
#
# Youngs Moduli (GPa) = 23.97806 145.53922 149.58339
#
# Poissons Ratio (x) = 0.38932 0.24140
# Poissons Ratio (y) = 0.06414 0.49507
# Poissons Ratio (z) = 0.03870 0.48169
#
# Static dielectric constant tensor:
#      x y z
#    x 2.735190 0.000000 0.000000 
#    y 0.000000 3.721930 0.000000 
#    z 0.000000 0.000000 3.757160 
# 
# 
# High freq. dielectric constant tensor:
#      x y z
#    x 1.648840 0.000000 0.000000 
#    y 0.000000 1.715660 0.000000 
#    z 0.000000 0.000000 1.716040 
# 
# From -- ./inp_files/38434.got.cif
#   From: 2010.03.12/outbox.cif.g09.slc.cpg/sg67_20_cif.got.tgz:38434.got - 2010.04.10 22:41:39.
