data_PCOD8278338
_publ_section_title
;
Structure prediction by ZEFSAII (Michael W. Deem and Ramdas Pophale) SiO2 
 PCOD8278338
Probable space group: C M M A
;
_chemical_formula_sum "Si O2"
_cell_formula_units_Z 88
_cell_length_a 20.901594
_cell_length_b 17.615610
_cell_length_c 11.970450
_cell_angle_alpha 90.000000
_cell_angle_beta 90.000000
_cell_angle_gamma 90.000000
_cell_volume 4407.451797
_symmetry_space_group_name_H-M "C M M A"
_symmetry_group_IT_number 67
_symmetry_cell_setting 'orthorhombic'
loop_
_space_group_symop_operation_xyz
x,y,z
-x,1/2-y,z
x,-y,-z
-x,1/2+y,-z
-x,-y,-z
x,1/2+y,-z
-x,y,z
x,1/2-y,z
1/2+x,1/2+y,z
1/2-x,-y,z
1/2+x,1/2-y,-z
1/2-x,y,-z
1/2-x,1/2-y,-z
1/2+x,y,-z
1/2-x,1/2+y,z
1/2+x,-y,z
loop_
_atom_site_type_symbol
_atom_site_label
_atom_site_fract_x
_atom_site_fract_y
_atom_site_fract_z
Si Si1 0.750000 0.337111 0.368066
Si Si2 0.500000 0.918295 0.759429
Si Si3 0.639051 0.590986 0.768092
Si Si4 0.000000 0.878281 0.000000
Si Si5 0.860949 0.090987 0.231908
Si Si6 0.638385 0.665757 1.000000
Si Si7 0.500000 0.918295 0.240570
O O1 0.750000 0.250000 0.327967
O O2 0.750000 0.343639 0.500000
O O3 0.687181 0.379223 0.324465
O O4 0.812819 0.379223 0.324465
O O5 0.432195 0.877064 0.731644
O O6 0.500000 0.932535 0.892803
O O7 0.500000 0.000000 0.698989
O O8 0.638306 0.500000 0.771927
O O9 0.661246 0.621064 0.889402
O O10 0.938030 0.824670 0.000000
O O11 0.000000 0.932535 0.892803
O O12 0.932195 0.122936 0.268356
O O13 0.838754 0.121065 0.110597
O O14 0.668913 0.750000 0.999999
#
# Coordination Sequence:
#
# PCOD8278338 Si02
#       7
#    16   8  16   8  16  16   8
#     4  11  25  44  61  78 105 143 187 235 286 335
#     4   8  15  29  52  83 115 144 178 223 270 320
#     4  10  20  36  59  86 115 148 186 226 272 327
#     4   8  14  24  44  76 115 156 185 210 257 324
#     4  10  20  36  59  86 115 148 186 226 272 327
#     4  10  18  30  51  83 121 153 182 220 270 325
#     4   8  15  29  52  83 115 144 178 223 270 320
#
# _framework density 19.966186
#
# number of rings (size 3 to 8) (size 9 to 14) (size 15 to 20)
#    0.000    2.364    0.000    2.727    0.000    6.545 
#    0.000    7.273    0.000    5.455    0.000    0.000 
#    0.000    0.000    0.000    0.000    0.000    0.000 
#
# Total GULP energy -545087.718792 kJ/mol
# GULP energy per Si atom -12388.357245 kJ/mol
# Density = 1.992074 g / cm^3
# Si number density = 19.966186 Si / 1000 Ang^3
#
#
#
# Elastic Constant Matrix: (Units=GPa)
#
#
# Indices 1 2 3 4 5 6 
#
# 1 140.3419 35.7363 47.3752 0.0000 0.0000 0.0000
# 2 35.7363 110.1077 34.0995 0.0000 0.0000 0.0000
# 3 47.3752 34.0995 72.1479 0.0000 0.0000 0.0000
# 4 0.0000 0.0000 0.0000 26.4409 0.0000 0.0000
# 5 0.0000 0.0000 0.0000 0.0000 -20.2844 0.0000
# 6 0.0000 0.0000 0.0000 0.0000 0.0000 16.9545
#
#
#
# Elastic Compliance Matrix: (Units=1/GPa)
#
#
# Indices 1 2 3 4 5 6 
#
# 1 0.009316 -0.001323 -0.005492 0.000000 0.000000 0.000000
# 2 -0.001323 0.010827 -0.004249 0.000000 0.000000 0.000000
# 3 -0.005492 -0.004249 0.019475 0.000000 0.000000 0.000000
# 4 0.000000 0.000000 0.000000 0.037820 0.000000 0.000000
# 5 0.000000 0.000000 0.000000 0.000000 -0.049299 0.000000
# 6 0.000000 0.000000 0.000000 0.000000 0.000000 0.058981
#
#
# Mechanical properties :
#
#
# Convention : Reuss Voigt Hill
#
# Bulk Modulus (GPa) = 57.17252 61.89107 59.53179
# Shear Modulus (GPa) = 43.44854 18.31463 30.88158
#
# Velocity S-wave (km/s) = 4.66994 3.03195 3.93707
# Velocity P-wave (km/s) = 7.60096 6.58196 7.10974
#
# Compressibility (1/GPa) = 0.01749092
#
# Stress axis : x y z
#
# Youngs Moduli (GPa) = 107.33866 92.36072 51.34803
#
# Poissons Ratio (x) = 0.12217 0.28202
# Poissons Ratio (y) = 0.14198 0.21816
# Poissons Ratio (z) = 0.58953 0.39241
#
# Static dielectric constant tensor:
#      x y z
#    x 3.909440 0.000000 0.000000 
#    y 0.000000 3.447740 0.000000 
#    z 0.000000 0.000000 3.298060 
# 
# 
# High freq. dielectric constant tensor:
#      x y z
#    x 1.791290 0.000000 0.000000 
#    y 0.000000 1.767680 0.000000 
#    z 0.000000 0.000000 1.745090 
# 
# From -- ./inp_files/20682.got.cif
#   From: 2010.03.12/outbox.cif.g09.slc.cpg/sg67_11_cif.got.tgz:20682.got - 2010.04.10 22:41:39.
