data_PCOD8278513
_publ_section_title
;
Structure prediction by ZEFSAII (Michael W. Deem and Ramdas Pophale) SiO2 
 PCOD8278513
Probable space group: C M M A
;
_chemical_formula_sum "Si O2"
_cell_formula_units_Z 64
_cell_length_a 8.526734
_cell_length_b 14.915476
_cell_length_c 24.633101
_cell_angle_alpha 90.000000
_cell_angle_beta 90.000000
_cell_angle_gamma 90.000000
_cell_volume 3132.845085
_symmetry_space_group_name_H-M "C M M A"
_symmetry_group_IT_number 67
_symmetry_cell_setting 'orthorhombic'
loop_
_space_group_symop_operation_xyz
x,y,z
-x,1/2-y,z
x,-y,-z
-x,1/2+y,-z
-x,-y,-z
x,1/2+y,-z
-x,y,z
x,1/2-y,z
1/2+x,1/2+y,z
1/2-x,-y,z
1/2+x,1/2-y,-z
1/2-x,y,-z
1/2-x,1/2-y,-z
1/2+x,y,-z
1/2-x,1/2+y,z
1/2+x,-y,z
loop_
_atom_site_type_symbol
_atom_site_label
_atom_site_fract_x
_atom_site_fract_y
_atom_site_fract_z
Si Si1 0.185763 0.600217 0.363481
Si Si2 0.185852 0.099720 0.252057
Si Si3 0.314238 0.901054 0.858922
Si Si4 0.184393 0.750000 0.059822
Si Si5 0.814063 0.250000 0.439789
O O1 0.250000 0.500000 0.370601
O O2 0.241973 0.644205 0.306226
O O3 0.251440 0.660475 0.411532
O O4 0.000000 0.598494 0.365598
O O5 0.243805 0.144468 0.196010
O O6 0.000000 0.103094 0.256279
O O7 0.250000 0.000000 0.249290
O O8 0.500000 0.905005 0.852684
O O9 0.258783 0.838833 0.908599
O O10 0.250000 0.000000 0.870422
O O11 0.000000 0.750000 0.056333
O O12 0.250000 0.750000 0.000000
O O13 0.750000 0.250000 0.500000
O O14 0.000000 0.250000 0.439319
#
# Coordination Sequence:
#
# PCOD8278513 Si02
#       5
#    16  16  16   8   8
#     4  11  22  40  64  92 124 161 198 244 298 353
#     4  10  18  32  56  88 120 153 190 236 288 349
#     4  10  20  37  58  84 114 149 187 233 287 344
#     4  10  24  41  58  79 110 147 191 237 283 338
#     4  12  26  45  64  89 120 157 205 253 297 352
#
# _framework density 20.428716000000001
#
# number of rings (size 3 to 8) (size 9 to 14) (size 15 to 20)
#    0.000    1.500    0.000    9.375    0.000    4.000 
#    0.000    8.750    0.000    0.000    0.000    0.000 
#    0.000    0.000    0.000    0.000    0.000    0.000 
#
# Total GULP energy -396748.449144 kJ/mol
# GULP energy per Si atom -12398.389036 kJ/mol
# Density = 2.038222 g / cm^3
# Si number density = 20.428716 Si / 1000 Ang^3
#
#
#
# Elastic Constant Matrix: (Units=GPa)
#
#
# Indices 1 2 3 4 5 6 
#
# 1 181.7432 50.0642 75.9117 0.0000 0.0000 0.0000
# 2 50.0642 108.1957 84.1956 0.0000 0.0000 0.0000
# 3 75.9117 84.1956 217.4563 0.0000 0.0000 0.0000
# 4 0.0000 0.0000 0.0000 41.7232 0.0000 0.0000
# 5 0.0000 0.0000 0.0000 0.0000 40.9876 0.0000
# 6 0.0000 0.0000 0.0000 0.0000 0.0000 27.8056
#
#
#
# Elastic Compliance Matrix: (Units=1/GPa)
#
#
# Indices 1 2 3 4 5 6 
#
# 1 0.006685 -0.001828 -0.001626 0.000000 0.000000 0.000000
# 2 -0.001828 0.013728 -0.004677 0.000000 0.000000 0.000000
# 3 -0.001626 -0.004677 0.006977 0.000000 0.000000 0.000000
# 4 0.000000 0.000000 0.000000 0.023967 0.000000 0.000000
# 5 0.000000 0.000000 0.000000 0.000000 0.024398 0.000000
# 6 0.000000 0.000000 0.000000 0.000000 0.000000 0.035964
#
#
# Mechanical properties :
#
#
# Convention : Reuss Voigt Hill
#
# Bulk Modulus (GPa) = 89.86321 103.08201 96.47261
# Shear Modulus (GPa) = 37.96781 41.91819 39.94300
#
# Velocity S-wave (km/s) = 4.31577 4.53473 4.42660
# Velocity P-wave (km/s) = 8.30173 8.83104 8.57047
#
# Compressibility (1/GPa) = 0.01112802
#
# Stress axis : x y z
#
# Youngs Moduli (GPa) = 149.59024 72.84378 143.32609
#
# Poissons Ratio (x) = 0.13316 0.23303
# Poissons Ratio (y) = 0.27346 0.67035
# Poissons Ratio (z) = 0.24321 0.34070
#
# Static dielectric constant tensor:
#      x y z
#    x 3.823930 0.000000 0.000000 
#    y 0.000000 3.661130 0.000000 
#    z 0.000000 0.000000 3.947900 
# 
# 
# High freq. dielectric constant tensor:
#      x y z
#    x 1.815530 0.000000 0.000000 
#    y 0.000000 1.790460 0.000000 
#    z 0.000000 0.000000 1.809970 
# 
# From -- ./inp_files/36605.got.cif
#   From: 2010.03.12/outbox.cif.g09.slc.cpg/sg67_19_cif.got.tgz:36605.got - 2010.04.10 22:41:39.
