data_PCOD8278027
_publ_section_title
;
Structure prediction by ZEFSAII (Michael W. Deem and Ramdas Pophale) SiO2 
 PCOD8278027
Probable space group: C M M A
;
_chemical_formula_sum "Si O2"
_cell_formula_units_Z 88
_cell_length_a 26.206264
_cell_length_b 8.850987
_cell_length_c 21.477103
_cell_angle_alpha 90.000000
_cell_angle_beta 90.000000
_cell_angle_gamma 90.000000
_cell_volume 4981.642004
_symmetry_space_group_name_H-M "C M M A"
_symmetry_group_IT_number 67
_symmetry_cell_setting 'orthorhombic'
loop_
_space_group_symop_operation_xyz
x,y,z
-x,1/2-y,z
x,-y,-z
-x,1/2+y,-z
-x,-y,-z
x,1/2+y,-z
-x,y,z
x,1/2-y,z
1/2+x,1/2+y,z
1/2-x,-y,z
1/2+x,1/2-y,-z
1/2-x,y,-z
1/2-x,1/2-y,-z
1/2+x,y,-z
1/2-x,1/2+y,z
1/2+x,-y,z
loop_
_atom_site_type_symbol
_atom_site_label
_atom_site_fract_x
_atom_site_fract_y
_atom_site_fract_z
Si Si1 0.306389 0.931706 0.561501
Si Si2 0.057869 0.920722 0.878922
Si Si3 0.858395 0.429541 0.802427
Si Si4 0.116318 0.500000 0.000000
Si Si5 0.694064 0.069297 0.687361
Si Si6 0.297483 0.411628 0.081941
O O1 0.306356 0.750000 0.560549
O O2 0.334740 0.000000 0.500000
O O3 0.250000 0.000000 0.561350
O O4 0.331004 0.997007 0.624780
O O5 0.060377 0.750000 0.854024
O O6 0.000000 0.979690 0.883490
O O7 0.085946 0.026921 0.828768
O O8 0.081376 0.920966 0.948443
O O9 0.856373 0.250000 0.790671
O O10 0.845522 0.522140 0.740645
O O11 0.817599 0.485814 0.854044
O O12 0.155369 0.386567 0.965480
O O13 0.698458 0.250000 0.681814
O O14 0.750000 0.000000 0.700952
O O15 0.274698 0.250000 0.098530
O O16 0.250000 0.500000 0.052687
#
# Coordination Sequence:
#
# PCOD8278027 Si02
#       6
#    16  16  16   8  16  16
#     4  10  17  27  42  64  96 134 174 210 243 279
#     4  10  21  37  56  75  94 119 154 199 252 305
#     4  10  21  36  51  70  95 125 162 203 248 296
#     4  10  20  34  52  72  96 122 156 194 238 294
#     4  11  20  31  48  71 100 135 172 207 244 286
#     4  10  21  33  47  67  93 124 157 193 234 282
#
# _framework density 17.664859
#
# number of rings (size 3 to 8) (size 9 to 14) (size 15 to 20)
#    0.000    1.818    0.000    7.091    0.000    7.636 
#    0.000    0.000    0.000    0.000    0.000    0.000 
#    0.000    0.727    0.000    2.727    0.000    4.545 
#
# Total GULP energy -545165.507387 kJ/mol
# GULP energy per Si atom -12390.125168 kJ/mol
# Density = 1.762465 g / cm^3
# Si number density = 17.664859 Si / 1000 Ang^3
#
#
#
# Elastic Constant Matrix: (Units=GPa)
#
#
# Indices 1 2 3 4 5 6 
#
# 1 94.5080 35.2623 44.4301 0.0000 0.0000 0.0000
# 2 35.2623 123.6595 47.8128 0.0000 0.0000 0.0000
# 3 44.4301 47.8128 139.3820 0.0000 0.0000 0.0000
# 4 0.0000 0.0000 0.0000 24.5606 0.0000 0.0000
# 5 0.0000 0.0000 0.0000 0.0000 13.5000 0.0000
# 6 0.0000 0.0000 0.0000 0.0000 0.0000 20.2731
#
#
#
# Elastic Compliance Matrix: (Units=1/GPa)
#
#
# Indices 1 2 3 4 5 6 
#
# 1 0.013053 -0.002437 -0.003325 0.000000 0.000000 0.000000
# 2 -0.002437 0.009778 -0.002578 0.000000 0.000000 0.000000
# 3 -0.003325 -0.002578 0.009119 0.000000 0.000000 0.000000
# 4 0.000000 0.000000 0.000000 0.040716 0.000000 0.000000
# 5 0.000000 0.000000 0.000000 0.000000 0.074074 0.000000
# 6 0.000000 0.000000 0.000000 0.000000 0.000000 0.049326
#
#
# Mechanical properties :
#
#
# Convention : Reuss Voigt Hill
#
# Bulk Modulus (GPa) = 65.48071 68.06222 66.77146
# Shear Modulus (GPa) = 22.95310 27.00302 24.97806
#
# Velocity S-wave (km/s) = 3.60858 3.91401 3.76439
# Velocity P-wave (km/s) = 7.38318 7.68371 7.53494
#
# Compressibility (1/GPa) = 0.01527167
#
# Stress axis : x y z
#
# Youngs Moduli (GPa) = 76.60793 102.26888 109.66535
#
# Poissons Ratio (x) = 0.24919 0.36465
# Poissons Ratio (y) = 0.18666 0.28267
# Poissons Ratio (z) = 0.25473 0.26360
#
# Static dielectric constant tensor:
#      x y z
#    x 2.999110 0.000000 0.000000 
#    y 0.000000 3.330190 0.000000 
#    z 0.000000 0.000000 3.947510 
# 
# 
# High freq. dielectric constant tensor:
#      x y z
#    x 1.636520 0.000000 0.000000 
#    y 0.000000 1.694920 0.000000 
#    z 0.000000 0.000000 1.689090 
# 
# From -- ./inp_files/40142.got.cif
#   From: 2010.03.12/outbox.cif.g09.slc.cpg/sg67_21_cif.got.tgz:40142.got - 2010.04.10 22:41:39.
