data_PCOD8278385
_publ_section_title
;
Structure prediction by ZEFSAII (Michael W. Deem and Ramdas Pophale) SiO2 
 PCOD8278385
Probable space group: C M M A
;
_chemical_formula_sum "Si O2"
_cell_formula_units_Z 112
_cell_length_a 29.330737
_cell_length_b 16.985129
_cell_length_c 12.569528
_cell_angle_alpha 90.000000
_cell_angle_beta 90.000000
_cell_angle_gamma 90.000000
_cell_volume 6261.967296
_symmetry_space_group_name_H-M "C M M A"
_symmetry_group_IT_number 67
_symmetry_cell_setting 'orthorhombic'
loop_
_space_group_symop_operation_xyz
x,y,z
-x,1/2-y,z
x,-y,-z
-x,1/2+y,-z
-x,-y,-z
x,1/2+y,-z
-x,y,z
x,1/2-y,z
1/2+x,1/2+y,z
1/2-x,-y,z
1/2+x,1/2-y,-z
1/2-x,y,-z
1/2-x,1/2-y,-z
1/2+x,y,-z
1/2-x,1/2+y,z
1/2+x,-y,z
loop_
_atom_site_type_symbol
_atom_site_label
_atom_site_fract_x
_atom_site_fract_y
_atom_site_fract_z
Si Si1 0.702066 0.343685 0.295049
Si Si2 0.858243 0.656039 0.868745
Si Si3 0.303255 0.342137 0.668407
Si Si4 0.295830 0.343456 0.053510
Si Si5 0.551374 0.342400 0.539729
Si Si6 0.549207 0.656519 0.217406
Si Si7 0.142508 0.409609 0.525625
O O1 0.695268 0.250000 0.305807
O O2 0.751201 0.372153 0.339665
O O3 0.697641 0.373300 0.173417
O O4 0.663035 0.388805 0.359667
O O5 0.857940 0.750000 0.862248
O O6 0.827972 0.620992 0.771992
O O7 0.910080 0.623908 0.856740
O O8 0.838416 0.627454 0.981749
O O9 0.301134 0.250000 0.686415
O O10 0.331151 0.358982 0.562288
O O11 0.292245 0.250000 0.054677
O O12 0.250000 0.378092 0.000000
O O13 0.500000 0.363659 0.501026
O O14 0.560241 0.250000 0.526885
O O15 0.558088 0.369464 0.661412
O O16 0.588752 0.388888 0.470558
O O17 0.500000 0.623425 0.177996
O O18 0.547825 0.750000 0.214329
O O19 0.150223 0.500000 0.500000
#
# Coordination Sequence:
#
# PCOD8278385 Si02
#       7
#    16  16  16  16  16  16  16
#     4  10  20  33  51  73 101 135 175 215 253 305
#     4   9  14  23  45  73  99 120 150 207 263 300
#     4  10  18  31  51  73  95 127 170 215 258 297
#     4   9  15  26  46  75 100 122 160 211 261 299
#     4   9  17  32  55  78  98 123 162 213 261 303
#     4   8  13  22  41  71  99 120 148 195 252 295
#     4  12  24  34  47  71 105 142 169 204 251 309
#
# _framework density 17.885752
#
# number of rings (size 3 to 8) (size 9 to 14) (size 15 to 20)
#    0.000    2.429    2.857    2.571    0.000    2.571 
#    0.000    0.000    0.000    1.714    0.000    4.000 
#    0.000    2.286    0.000    0.000    0.000    0.000 
#
# Total GULP energy -694106.725150 kJ/mol
# GULP energy per Si atom -12394.762949 kJ/mol
# Density = 1.784504 g / cm^3
# Si number density = 17.885752 Si / 1000 Ang^3
#
#
#
# Elastic Constant Matrix: (Units=GPa)
#
#
# Indices 1 2 3 4 5 6 
#
# 1 167.7687 23.2191 71.2888 0.0000 0.0000 0.0000
# 2 23.2191 21.8419 15.0230 0.0000 0.0000 0.0000
# 3 71.2888 15.0230 114.2143 0.0000 0.0000 0.0000
# 4 0.0000 0.0000 0.0000 3.7004 0.0000 0.0000
# 5 0.0000 0.0000 0.0000 0.0000 29.6227 0.0000
# 6 0.0000 0.0000 0.0000 0.0000 0.0000 7.0664
#
#
#
# Elastic Compliance Matrix: (Units=1/GPa)
#
#
# Indices 1 2 3 4 5 6 
#
# 1 0.008801 -0.006132 -0.004687 0.000000 0.000000 0.000000
# 2 -0.006132 0.054610 -0.003356 0.000000 0.000000 0.000000
# 3 -0.004687 -0.003356 0.012122 0.000000 0.000000 0.000000
# 4 0.000000 0.000000 0.000000 0.270243 0.000000 0.000000
# 5 0.000000 0.000000 0.000000 0.000000 0.033758 0.000000
# 6 0.000000 0.000000 0.000000 0.000000 0.000000 0.141514
#
#
# Mechanical properties :
#
#
# Convention : Reuss Voigt Hill
#
# Bulk Modulus (GPa) = 21.19336 58.09852 39.64594
# Shear Modulus (GPa) = 8.84760 21.03085 14.93923
#
# Velocity S-wave (km/s) = 2.22654 3.43278 2.89322
# Velocity P-wave (km/s) = 4.29942 6.94734 5.77714
#
# Compressibility (1/GPa) = 0.04718459
#
# Stress axis : x y z
#
# Youngs Moduli (GPa) = 113.62762 18.31150 82.49464
#
# Poissons Ratio (x) = 0.11229 0.38661
# Poissons Ratio (y) = 0.69678 0.27682
# Poissons Ratio (z) = 0.53252 0.06145
#
# Static dielectric constant tensor:
#      x y z
#    x 3.745470 0.000000 0.000000 
#    y 0.000000 2.730840 0.000000 
#    z 0.000000 0.000000 3.314560 
# 
# 
# High freq. dielectric constant tensor:
#      x y z
#    x 1.704960 0.000000 0.000000 
#    y 0.000000 1.633260 0.000000 
#    z 0.000000 0.000000 1.676950 
# 
# From -- ./inp_files/23828.got.cif
#   From: 2010.03.12/outbox.cif.g09.slc.cpg/sg67_12_cif.got.tgz:23828.got - 2010.04.10 22:41:39.
