data_PCOD8278165
_publ_section_title
;
Structure prediction by ZEFSAII (Michael W. Deem and Ramdas Pophale) SiO2 
 PCOD8278165
Probable space group: C M M A
;
_chemical_formula_sum "Si O2"
_cell_formula_units_Z 120
_cell_length_a 25.336291
_cell_length_b 18.284604
_cell_length_c 15.430251
_cell_angle_alpha 90.000000
_cell_angle_beta 90.000000
_cell_angle_gamma 90.000000
_cell_volume 7148.280536
_symmetry_space_group_name_H-M "C M M A"
_symmetry_group_IT_number 67
_symmetry_cell_setting 'orthorhombic'
loop_
_space_group_symop_operation_xyz
x,y,z
-x,1/2-y,z
x,-y,-z
-x,1/2+y,-z
-x,-y,-z
x,1/2+y,-z
-x,y,z
x,1/2-y,z
1/2+x,1/2+y,z
1/2-x,-y,z
1/2+x,1/2-y,-z
1/2-x,y,-z
1/2-x,1/2-y,-z
1/2+x,y,-z
1/2-x,1/2+y,z
1/2+x,-y,z
loop_
_atom_site_type_symbol
_atom_site_label
_atom_site_fract_x
_atom_site_fract_y
_atom_site_fract_z
Si Si1 0.939257 0.335282 0.669158
Si Si2 0.250000 0.371574 0.000000
Si Si3 0.750000 0.170972 0.185833
Si Si4 0.060744 0.164718 0.330842
Si Si5 0.136213 0.417810 1.000000
Si Si6 0.562759 0.082484 0.500000
Si Si7 0.635658 0.837427 0.824827
Si Si8 0.364343 0.662573 0.175173
O O1 0.932543 0.250000 0.650045
O O2 0.916099 0.377380 0.585890
O O3 0.906564 0.360132 0.752830
O O4 0.000000 0.355878 0.686949
O O5 0.250000 0.318271 0.082078
O O6 0.300637 0.424104 0.000000
O O7 0.750000 0.250000 0.231735
O O8 0.693725 0.132181 0.207905
O O9 0.806275 0.132181 0.207905
O O10 0.067458 0.250000 0.349954
O O11 0.083901 0.122620 0.414110
O O12 0.093436 0.139867 0.247170
O O13 0.000000 0.144123 0.313052
O O14 0.116941 0.374683 0.914239
O O15 0.112646 0.500000 0.000000
O O16 0.116941 0.374683 0.085761
O O17 0.500000 0.085939 0.500000
O O18 0.584134 0.000000 0.500000
O O19 0.638582 0.750000 0.838806
O O20 0.361419 0.750000 0.161194
#
# Coordination Sequence:
#
# PCOD8278165 Si02
#       8
#    16   8  16  16  16  16  16  16
#     4   9  17  30  48  68  88 111 141 177 215 255
#     4   8  14  24  38  58  83 110 143 182 219 250
#     4   8  13  23  41  63  84 108 141 179 215 249
#     4   9  17  30  48  68  88 111 141 177 215 255
#     4  10  18  27  41  62  88 117 148 181 215 251
#     4   9  17  29  47  70  91 110 136 175 220 259
#     4   9  17  29  45  64  87 115 146 179 214 252
#     4   9  17  29  45  64  87 115 146 179 214 252
#
# _framework density 16.787254000000001
#
# number of rings (size 3 to 8) (size 9 to 14) (size 15 to 20)
#    0.000    3.067    0.000    1.200    0.000    5.867 
#    0.000    0.667    0.000    4.800    0.000    5.600 
#    0.000    0.000    0.000    0.000    0.000    0.000 
#
# Total GULP energy -743357.113779 kJ/mol
# GULP energy per Si atom -12389.285230 kJ/mol
# Density = 1.674905 g / cm^3
# Si number density = 16.787254 Si / 1000 Ang^3
#
#
#
# Elastic Constant Matrix: (Units=GPa)
#
#
# Indices 1 2 3 4 5 6 
#
# 1 71.0769 26.1145 62.2367 0.0000 0.0000 0.0000
# 2 26.1145 66.0889 55.6043 0.0000 0.0000 0.0000
# 3 62.2367 55.6043 144.6149 0.0000 0.0000 0.0000
# 4 0.0000 0.0000 0.0000 14.8302 0.0000 0.0000
# 5 0.0000 0.0000 0.0000 0.0000 6.2621 0.0000
# 6 0.0000 0.0000 0.0000 0.0000 0.0000 10.8333
#
#
#
# Elastic Compliance Matrix: (Units=1/GPa)
#
#
# Indices 1 2 3 4 5 6 
#
# 1 0.022632 -0.001106 -0.009315 0.000000 0.000000 0.000000
# 2 -0.001106 0.022421 -0.008145 0.000000 0.000000 0.000000
# 3 -0.009315 -0.008145 0.014055 0.000000 0.000000 0.000000
# 4 0.000000 0.000000 0.000000 0.067430 0.000000 0.000000
# 5 0.000000 0.000000 0.000000 0.000000 0.159692 0.000000
# 6 0.000000 0.000000 0.000000 0.000000 0.000000 0.092308
#
#
# Mechanical properties :
#
#
# Convention : Reuss Voigt Hill
#
# Bulk Modulus (GPa) = 45.50185 63.29909 54.40047
# Shear Modulus (GPa) = 11.82050 15.57347 13.69698
#
# Velocity S-wave (km/s) = 2.65643 3.04911 2.85952
# Velocity P-wave (km/s) = 6.04754 7.08411 6.58625
#
# Compressibility (1/GPa) = 0.02197713
#
# Stress axis : x y z
#
# Youngs Moduli (GPa) = 44.18591 44.60135 71.14771
#
# Poissons Ratio (x) = 0.04932 0.66271
# Poissons Ratio (y) = 0.04886 0.57949
# Poissons Ratio (z) = 0.41157 0.36327
#
# Static dielectric constant tensor:
#      x y z
#    x 3.122640 0.000000 0.000000 
#    y 0.000000 2.939650 0.000000 
#    z 0.000000 0.000000 3.098660 
# 
# 
# High freq. dielectric constant tensor:
#      x y z
#    x 1.623200 0.000000 0.000000 
#    y 0.000000 1.630260 0.000000 
#    z 0.000000 0.000000 1.635780 
# 
# From -- ./inp_files/30914.got.cif
#   From: 2010.03.12/outbox.cif.g09.slc.cpg/sg67_16_cif.got.tgz:30914.got - 2010.04.10 22:41:39.
