data_PCOD8278475
_publ_section_title
;
Structure prediction by ZEFSAII (Michael W. Deem and Ramdas Pophale) SiO2 
 PCOD8278475
Probable space group: C M M A
;
_chemical_formula_sum "Si O2"
_cell_formula_units_Z 88
_cell_length_a 8.916780
_cell_length_b 20.105930
_cell_length_c 29.306449
_cell_angle_alpha 90.000000
_cell_angle_beta 90.000000
_cell_angle_gamma 90.000000
_cell_volume 5254.064705
_symmetry_space_group_name_H-M "C M M A"
_symmetry_group_IT_number 67
_symmetry_cell_setting 'orthorhombic'
loop_
_space_group_symop_operation_xyz
x,y,z
-x,1/2-y,z
x,-y,-z
-x,1/2+y,-z
-x,-y,-z
x,1/2+y,-z
-x,y,z
x,1/2-y,z
1/2+x,1/2+y,z
1/2-x,-y,z
1/2+x,1/2-y,-z
1/2-x,y,-z
1/2-x,1/2-y,-z
1/2+x,y,-z
1/2-x,1/2+y,z
1/2+x,-y,z
loop_
_atom_site_type_symbol
_atom_site_label
_atom_site_fract_x
_atom_site_fract_y
_atom_site_fract_z
Si Si1 0.322861 0.068575 0.686568
Si Si2 0.177018 0.174555 0.136568
Si Si3 0.679252 0.250000 0.549500
Si Si4 0.676046 0.932202 0.209229
Si Si5 0.169927 0.823247 0.375587
Si Si6 0.668512 0.329173 0.044694
O O1 0.500000 0.064237 0.680309
O O2 0.276188 0.082701 0.738810
O O3 0.259138 0.127913 0.656823
O O4 0.250000 0.000000 0.669485
O O5 0.230406 0.250000 0.146576
O O6 0.232529 0.129127 0.178455
O O7 0.248513 0.146073 0.090207
O O8 0.000000 0.171677 0.130400
O O9 0.500000 0.250000 0.547252
O O10 0.750000 0.250000 0.500000
O O11 0.740685 0.315805 0.576207
O O12 0.500000 0.941593 0.205059
O O13 0.750000 0.000000 0.191348
O O14 0.166006 0.750000 0.352012
O O15 0.000000 0.848880 0.384322
O O16 0.500000 0.356707 0.045349
O O17 0.671882 0.250000 0.042810
O O18 0.750000 0.358700 0.000000
#
# Coordination Sequence:
#
# PCOD8278475 Si02
#       6
#    16  16   8  16  16  16
#     4  10  19  32  51  73 100 135 174 213 255 302
#     4   9  17  30  47  68  94 122 155 196 239 284
#     4  10  18  32  54  80 108 140 174 210 253 300
#     4   9  19  33  49  69  94 129 166 199 241 293
#     4   9  19  33  50  76 106 135 171 213 254 296
#     4   9  16  26  42  65  91 118 149 186 233 286
#
# _framework density 16.748936
#
# number of rings (size 3 to 8) (size 9 to 14) (size 15 to 20)
#    0.545    2.182    0.000    2.182    0.000    4.364 
#    0.000    1.818    0.000    3.273    0.000    7.636 
#    0.000    0.000    0.000    0.000    0.000    0.000 
#
# Total GULP energy -545417.529756 kJ/mol
# GULP energy per Si atom -12395.852949 kJ/mol
# Density = 1.671082 g / cm^3
# Si number density = 16.748936 Si / 1000 Ang^3
#
#
#
# Elastic Constant Matrix: (Units=GPa)
#
#
# Indices 1 2 3 4 5 6 
#
# 1 87.9280 38.7991 51.8520 0.0000 0.0000 0.0000
# 2 38.7991 80.8288 65.2643 0.0000 0.0000 0.0000
# 3 51.8520 65.2643 120.0192 0.0000 0.0000 0.0000
# 4 0.0000 0.0000 0.0000 0.5691 0.0000 0.0000
# 5 0.0000 0.0000 0.0000 0.0000 30.1103 0.0000
# 6 0.0000 0.0000 0.0000 0.0000 0.0000 26.0758
#
#
#
# Elastic Compliance Matrix: (Units=1/GPa)
#
#
# Indices 1 2 3 4 5 6 
#
# 1 0.015861 -0.003709 -0.004836 0.000000 0.000000 0.000000
# 2 -0.003709 0.022923 -0.010863 0.000000 0.000000 0.000000
# 3 -0.004836 -0.010863 0.016328 0.000000 0.000000 0.000000
# 4 0.000000 0.000000 0.000000 1.757226 0.000000 0.000000
# 5 0.000000 0.000000 0.000000 0.000000 0.033211 0.000000
# 6 0.000000 0.000000 0.000000 0.000000 0.000000 0.038350
#
#
# Mechanical properties :
#
#
# Convention : Reuss Voigt Hill
#
# Bulk Modulus (GPa) = 61.35896 66.73410 64.04653
# Shear Modulus (GPa) = 2.59316 20.20840 11.40078
#
# Velocity S-wave (km/s) = 1.24564 3.47731 2.61183
# Velocity P-wave (km/s) = 6.22759 7.48682 6.88605
#
# Compressibility (1/GPa) = 0.01629754
#
# Stress axis : x y z
#
# Youngs Moduli (GPa) = 63.04670 43.62363 61.24416
#
# Poissons Ratio (x) = 0.16181 0.29615
# Poissons Ratio (y) = 0.23386 0.66528
# Poissons Ratio (z) = 0.30486 0.47387
#
# Static dielectric constant tensor:
#      x y z
#    x 3.234810 0.000000 0.000000 
#    y 0.000000 2.974580 0.000000 
#    z 0.000000 0.000000 3.155710 
# 
# 
# High freq. dielectric constant tensor:
#      x y z
#    x 1.657230 0.000000 0.000000 
#    y 0.000000 1.614940 0.000000 
#    z 0.000000 0.000000 1.640990 
# 
# From -- ./inp_files/45282.got.cif
#   From: 2010.03.12/outbox.cif.g09.slc.cpg/sg67_23_cif.got.tgz:45282.got - 2010.04.10 22:41:39.
