data_PCOD8278369
_publ_section_title
;
Structure prediction by ZEFSAII (Michael W. Deem and Ramdas Pophale) SiO2 
 PCOD8278369
Probable space group: C M M A
;
_chemical_formula_sum "Si O2"
_cell_formula_units_Z 128
_cell_length_a 18.204630
_cell_length_b 25.163027
_cell_length_c 17.469983
_cell_angle_alpha 90.000000
_cell_angle_beta 90.000000
_cell_angle_gamma 90.000000
_cell_volume 8002.712638
_symmetry_space_group_name_H-M "C M M A"
_symmetry_group_IT_number 67
_symmetry_cell_setting 'orthorhombic'
loop_
_space_group_symop_operation_xyz
x,y,z
-x,1/2-y,z
x,-y,-z
-x,1/2+y,-z
-x,-y,-z
x,1/2+y,-z
-x,y,z
x,1/2-y,z
1/2+x,1/2+y,z
1/2-x,-y,z
1/2+x,1/2-y,-z
1/2-x,y,-z
1/2-x,1/2-y,-z
1/2+x,y,-z
1/2-x,1/2+y,z
1/2+x,-y,z
loop_
_atom_site_type_symbol
_atom_site_label
_atom_site_fract_x
_atom_site_fract_y
_atom_site_fract_z
Si Si1 0.860540 0.810522 0.707544
Si Si2 0.797457 0.346284 0.675741
Si Si3 0.917608 0.115579 0.414388
Si Si4 0.230291 0.439750 0.413760
Si Si5 0.664578 0.311129 0.875326
Si Si6 0.917408 0.313277 0.979098
Si Si7 0.083554 0.689744 0.443184
Si Si8 0.827263 0.688403 0.162183
O O1 0.887816 0.750000 0.705496
O O2 0.777415 0.812030 0.674095
O O3 0.916055 0.845547 0.658344
O O4 0.861962 0.834772 0.793717
O O5 0.778144 0.404981 0.645131
O O6 0.860042 0.319120 0.625332
O O7 0.828826 0.348323 0.762263
O O8 0.857558 0.069004 0.403792
O O9 0.896754 0.149935 0.488573
O O10 0.000000 0.091314 0.420758
O O11 0.250000 0.500000 0.394985
O O12 0.250000 0.423811 0.500000
O O13 0.641345 0.250000 0.874339
O O14 0.751440 0.317603 0.883806
O O15 0.626179 0.338635 0.948631
O O16 0.909333 0.250000 0.979735
O O17 0.887749 0.333391 0.897127
O O18 0.000000 0.333056 0.987019
O O19 0.092108 0.750000 0.473511
O O20 0.000000 0.679894 0.414202
O O21 0.839627 0.750000 0.186644
#
# Coordination Sequence:
#
# PCOD8278369 Si02
#       8
#    16  16  16  16  16  16  16  16
#     4   9  17  27  44  67  93 126 158 189 226 269
#     4  10  18  31  47  66  89 119 158 195 227 274
#     4  10  20  33  47  69  96 120 150 188 232 278
#     4  10  20  37  55  70  86 112 153 199 241 280
#     4   8  14  25  38  56  83 119 158 188 216 255
#     4   9  16  24  36  56  84 121 158 186 215 254
#     4  10  19  29  42  64  96 129 155 182 218 264
#     4   9  16  26  41  60  87 119 152 185 221 263
#
# _framework density 15.994577
#
# number of rings (size 3 to 8) (size 9 to 14) (size 15 to 20)
#    0.000    2.625    1.250    2.625    0.000    3.250 
#    0.000    6.250    0.000    0.000    0.000    0.000 
#    0.000   18.000    0.000   11.250    0.000    1.125 
#
# Total GULP energy -793289.257777 kJ/mol
# GULP energy per Si atom -12395.144653 kJ/mol
# Density = 1.595817 g / cm^3
# Si number density = 15.994577 Si / 1000 Ang^3
#
#
#
# Elastic Constant Matrix: (Units=GPa)
#
#
# Indices 1 2 3 4 5 6 
#
# 1 78.3315 32.9161 42.8980 0.0000 0.0000 0.0000
# 2 32.9161 60.7955 32.5071 0.0000 0.0000 0.0000
# 3 42.8980 32.5071 108.3976 0.0000 0.0000 0.0000
# 4 0.0000 0.0000 0.0000 10.0744 0.0000 0.0000
# 5 0.0000 0.0000 0.0000 0.0000 24.3827 0.0000
# 6 0.0000 0.0000 0.0000 0.0000 0.0000 13.8825
#
#
#
# Elastic Compliance Matrix: (Units=1/GPa)
#
#
# Indices 1 2 3 4 5 6 
#
# 1 0.018699 -0.007345 -0.005197 0.000000 0.000000 0.000000
# 2 -0.007345 0.022475 -0.003833 0.000000 0.000000 0.000000
# 3 -0.005197 -0.003833 0.012432 0.000000 0.000000 0.000000
# 4 0.000000 0.000000 0.000000 0.099262 0.000000 0.000000
# 5 0.000000 0.000000 0.000000 0.000000 0.041013 0.000000
# 6 0.000000 0.000000 0.000000 0.000000 0.000000 0.072033
#
#
# Mechanical properties :
#
#
# Convention : Reuss Voigt Hill
#
# Bulk Modulus (GPa) = 47.95151 51.57412 49.76282
# Shear Modulus (GPa) = 16.36038 18.94813 17.65425
#
# Velocity S-wave (km/s) = 3.20170 3.44562 3.32590
# Velocity P-wave (km/s) = 6.61157 6.93862 6.77707
#
# Compressibility (1/GPa) = 0.02085440
#
# Stress axis : x y z
#
# Youngs Moduli (GPa) = 53.47838 44.49393 80.43964
#
# Poissons Ratio (x) = 0.32681 0.41808
# Poissons Ratio (y) = 0.39281 0.30834
# Poissons Ratio (z) = 0.27795 0.17055
#
# Static dielectric constant tensor:
#      x y z
#    x 3.074560 0.000000 0.000000 
#    y 0.000000 2.544120 0.000000 
#    z 0.000000 0.000000 3.228220 
# 
# 
# High freq. dielectric constant tensor:
#      x y z
#    x 1.621490 0.000000 0.000000 
#    y 0.000000 1.547770 0.000000 
#    z 0.000000 0.000000 1.624350 
# 
# From -- ./inp_files/34563.got.cif
#   From: 2010.03.12/outbox.cif.g09.slc.cpg/sg67_18_cif.got.tgz:34563.got - 2010.04.10 22:41:39.
