data_PCOD8278797
_publ_section_title
;
Structure prediction by ZEFSAII (Michael W. Deem and Ramdas Pophale) SiO2 
 PCOD8278797
Probable space group: C M M A
;
_chemical_formula_sum "Si O2"
_cell_formula_units_Z 96
_cell_length_a 23.991587
_cell_length_b 18.732911
_cell_length_c 12.175340
_cell_angle_alpha 90.000000
_cell_angle_beta 90.000000
_cell_angle_gamma 90.000000
_cell_volume 5471.990621
_symmetry_space_group_name_H-M "C M M A"
_symmetry_group_IT_number 67
_symmetry_cell_setting 'orthorhombic'
loop_
_space_group_symop_operation_xyz
x,y,z
-x,1/2-y,z
x,-y,-z
-x,1/2+y,-z
-x,-y,-z
x,1/2+y,-z
-x,y,z
x,1/2-y,z
1/2+x,1/2+y,z
1/2-x,-y,z
1/2+x,1/2-y,-z
1/2-x,y,-z
1/2-x,1/2-y,-z
1/2+x,y,-z
1/2-x,1/2+y,z
1/2+x,-y,z
loop_
_atom_site_type_symbol
_atom_site_label
_atom_site_fract_x
_atom_site_fract_y
_atom_site_fract_z
Si Si1 0.394936 0.074814 0.200116
Si Si2 0.000000 0.672836 0.161252
Si Si3 0.564505 0.167523 0.628837
Si Si4 0.397422 0.909981 0.168407
Si Si5 0.188542 0.416123 0.989503
Si Si6 0.435875 0.070450 0.429780
Si Si7 0.500000 0.673502 0.086465
O O1 0.445363 0.127944 0.184028
O O2 0.341662 0.102231 0.128155
O O3 0.389085 0.073574 0.333229
O O4 0.408632 0.994358 0.163730
O O5 0.000000 0.750000 0.226337
O O6 0.000000 0.695465 0.037445
O O7 0.500000 0.155683 0.667226
O O8 0.581786 0.250000 0.631943
O O9 0.605182 0.121679 0.708152
O O10 0.572547 0.139853 0.505366
O O11 0.447120 0.873471 0.106997
O O12 0.343808 0.887715 0.096923
O O13 0.194096 0.500000 0.000000
O O14 0.250000 0.380963 0.000000
O O15 0.500000 0.069421 0.383295
O O16 0.424900 0.000000 0.500000
O O17 0.500000 0.750000 0.153139
#
# Coordination Sequence:
#
# PCOD8278797 Si02
#       7
#    16   8  16  16  16  16   8
#     4  11  20  34  56  77 108 146 179 222 269 327
#     4  11  23  33  45  77 116 145 178 216 270 335
#     4  10  20  32  49  77 113 149 177 212 259 315
#     4  11  19  31  56  80 106 139 179 224 269 331
#     4   9  20  36  55  82 106 135 179 233 280 320
#     4  10  19  31  48  76 114 145 179 216 256 323
#     4  11  21  31  46  76 118 143 169 218 270 330
#
# _framework density 17.543890000000001
#
# number of rings (size 3 to 8) (size 9 to 14) (size 15 to 20)
#    0.000    1.667    5.000    1.000    0.000    1.333 
#    0.000    0.000    0.000    5.500    0.000    1.167 
#    0.000    0.000    0.000    0.000    0.000    0.000 
#
# Total GULP energy -594632.709207 kJ/mol
# GULP energy per Si atom -12388.181442 kJ/mol
# Density = 1.750396 g / cm^3
# Si number density = 17.543890 Si / 1000 Ang^3
#
#
#
# Elastic Constant Matrix: (Units=GPa)
#
#
# Indices 1 2 3 4 5 6 
#
# 1 112.1082 40.1842 55.2595 0.0000 0.0000 0.0000
# 2 40.1842 97.3193 26.6305 0.0000 0.0000 0.0000
# 3 55.2595 26.6305 116.9340 0.0000 0.0000 0.0000
# 4 0.0000 0.0000 0.0000 20.1803 0.0000 0.0000
# 5 0.0000 0.0000 0.0000 0.0000 12.2562 0.0000
# 6 0.0000 0.0000 0.0000 0.0000 0.0000 7.2249
#
#
#
# Elastic Compliance Matrix: (Units=1/GPa)
#
#
# Indices 1 2 3 4 5 6 
#
# 1 0.012879 -0.003895 -0.005199 0.000000 0.000000 0.000000
# 2 -0.003895 0.012136 -0.000923 0.000000 0.000000 0.000000
# 3 -0.005199 -0.000923 0.011219 0.000000 0.000000 0.000000
# 4 0.000000 0.000000 0.000000 0.049553 0.000000 0.000000
# 5 0.000000 0.000000 0.000000 0.000000 0.081591 0.000000
# 6 0.000000 0.000000 0.000000 0.000000 0.000000 0.138411
#
#
# Mechanical properties :
#
#
# Convention : Reuss Voigt Hill
#
# Bulk Modulus (GPa) = 61.73065 63.39002 62.56034
# Shear Modulus (GPa) = 15.09550 21.55142 18.32346
#
# Velocity S-wave (km/s) = 2.93651 3.50870 3.23528
# Velocity P-wave (km/s) = 6.83815 7.25433 7.04931
#
# Compressibility (1/GPa) = 0.01619941
#
# Stress axis : x y z
#
# Youngs Moduli (GPa) = 77.64690 82.39655 89.13443
#
# Poissons Ratio (x) = 0.32095 0.46342
# Poissons Ratio (y) = 0.30244 0.08229
# Poissons Ratio (z) = 0.40369 0.07607
#
# Static dielectric constant tensor:
#      x y z
#    x 3.112760 0.000000 0.000000 
#    y 0.000000 3.329810 0.000000 
#    z 0.000000 0.000000 3.678290 
# 
# 
# High freq. dielectric constant tensor:
#      x y z
#    x 1.627040 0.000000 0.000000 
#    y 0.000000 1.680710 0.000000 
#    z 0.000000 0.000000 1.693490 
# 
# From -- ./inp_files/21973.got.cif
#   From: 2010.03.12/outbox.cif.g09.slc.cpg/sg67_11_cif.got.tgz:21973.got - 2010.04.10 22:41:39.
