data_PCOD8278478
_publ_section_title
;
Structure prediction by ZEFSAII (Michael W. Deem and Ramdas Pophale) SiO2 
 PCOD8278478
Probable space group: C M M A
;
_chemical_formula_sum "Si O2"
_cell_formula_units_Z 120
_cell_length_a 26.644491
_cell_length_b 8.701173
_cell_length_c 27.954993
_cell_angle_alpha 90.000000
_cell_angle_beta 90.000000
_cell_angle_gamma 90.000000
_cell_volume 6481.038772
_symmetry_space_group_name_H-M "C M M A"
_symmetry_group_IT_number 67
_symmetry_cell_setting 'orthorhombic'
loop_
_space_group_symop_operation_xyz
x,y,z
-x,1/2-y,z
x,-y,-z
-x,1/2+y,-z
-x,-y,-z
x,1/2+y,-z
-x,y,z
x,1/2-y,z
1/2+x,1/2+y,z
1/2-x,-y,z
1/2+x,1/2-y,-z
1/2-x,y,-z
1/2-x,1/2-y,-z
1/2+x,y,-z
1/2-x,1/2+y,z
1/2+x,-y,z
loop_
_atom_site_type_symbol
_atom_site_label
_atom_site_fract_x
_atom_site_fract_y
_atom_site_fract_z
Si Si1 0.196190 0.430797 0.109386
Si Si2 0.000000 0.565961 0.946854
Si Si3 0.302547 0.070994 0.779845
Si Si4 0.352950 0.929187 0.694518
Si Si5 0.056620 0.573825 0.647052
Si Si6 0.602928 0.933361 0.947133
Si Si7 0.601895 0.928067 0.450295
Si Si8 0.698079 0.068444 0.605299
O O1 0.195899 0.250000 0.097734
O O2 0.250000 0.500000 0.093440
O O3 0.186341 0.464778 0.164980
O O4 0.151610 0.515710 0.082107
O O5 0.051599 0.501818 0.922831
O O6 0.000000 0.750000 0.945875
O O7 0.000000 0.500000 0.000000
O O8 0.301206 0.250000 0.769313
O O9 0.250000 0.000000 0.763715
O O10 0.345572 0.992880 0.748014
O O11 0.342753 0.750000 0.693388
O O12 0.410059 0.964486 0.679925
O O13 0.314233 0.009239 0.658365
O O14 0.074710 0.750000 0.653934
O O15 0.061647 0.530872 0.590934
O O16 0.000000 0.550056 0.663759
O O17 0.599351 0.750000 0.948737
O O18 0.609069 0.000000 0.000000
O O19 0.604916 0.750000 0.460092
O O20 0.655971 0.989011 0.432120
O O21 0.584740 0.000000 0.500000
O O22 0.701044 0.250000 0.607413
O O23 0.750000 0.000000 0.586660
#
# Coordination Sequence:
#
# PCOD8278478 Si02
#       8
#    16   8  16  16  16  16  16  16
#     4  10  21  37  56  81 112 148 187 228 275 331
#     4  10  18  32  54  80 108 140 184 232 278 326
#     4  10  20  35  56  80 109 142 176 213 259 312
#     4  11  21  33  53  79 105 131 166 211 256 305
#     4   9  19  37  57  75  99 132 168 208 256 307
#     4  11  21  35  56  82 113 149 190 236 283 330
#     4   9  19  33  49  71  99 131 166 204 247 299
#     4  10  20  34  50  71 100 132 168 206 250 301
#
# _framework density 18.515549
#
# number of rings (size 3 to 8) (size 9 to 14) (size 15 to 20)
#    0.000    2.000    0.000    6.200    0.000    5.333 
#    0.000    2.667    1.467    0.000    0.000    0.000 
#    0.000    0.000    0.000    0.000    0.000    0.000 
#
# Total GULP energy -743981.274901 kJ/mol
# GULP energy per Si atom -12399.687915 kJ/mol
# Density = 1.847341 g / cm^3
# Si number density = 18.515549 Si / 1000 Ang^3
#
#
#
# Elastic Constant Matrix: (Units=GPa)
#
#
# Indices 1 2 3 4 5 6 
#
# 1 107.0970 43.5994 38.8080 0.0000 0.0000 0.0000
# 2 43.5994 110.7448 36.4286 0.0000 0.0000 0.0000
# 3 38.8080 36.4286 70.1054 0.0000 0.0000 0.0000
# 4 0.0000 0.0000 0.0000 28.6627 0.0000 0.0000
# 5 0.0000 0.0000 0.0000 0.0000 16.8618 0.0000
# 6 0.0000 0.0000 0.0000 0.0000 0.0000 30.7716
#
#
#
# Elastic Compliance Matrix: (Units=1/GPa)
#
#
# Indices 1 2 3 4 5 6 
#
# 1 0.012558 -0.003205 -0.005286 0.000000 0.000000 0.000000
# 2 -0.003205 0.011709 -0.004310 0.000000 0.000000 0.000000
# 3 -0.005286 -0.004310 0.019430 0.000000 0.000000 0.000000
# 4 0.000000 0.000000 0.000000 0.034889 0.000000 0.000000
# 5 0.000000 0.000000 0.000000 0.000000 0.059306 0.000000
# 6 0.000000 0.000000 0.000000 0.000000 0.000000 0.032498
#
#
# Mechanical properties :
#
#
# Convention : Reuss Voigt Hill
#
# Bulk Modulus (GPa) = 55.26577 58.40213 56.83395
# Shear Modulus (GPa) = 24.74965 26.53330 25.64147
#
# Velocity S-wave (km/s) = 3.66005 3.78964 3.72541
# Velocity P-wave (km/s) = 6.91190 7.12455 7.01903
#
# Compressibility (1/GPa) = 0.01809438
#
# Stress axis : x y z
#
# Youngs Moduli (GPa) = 79.63324 85.40147 51.46640
#
# Poissons Ratio (x) = 0.27371 0.27205
# Poissons Ratio (y) = 0.25523 0.22184
# Poissons Ratio (z) = 0.42094 0.36811
#
# Static dielectric constant tensor:
#      x y z
#    x 3.626230 0.000000 0.000000 
#    y 0.000000 3.466620 0.000000 
#    z 0.000000 0.000000 3.299780 
# 
# 
# High freq. dielectric constant tensor:
#      x y z
#    x 1.722290 0.000000 0.000000 
#    y 0.000000 1.729810 0.000000 
#    z 0.000000 0.000000 1.697480 
# 
# From -- ./inp_files/44993.got.cif
#   From: 2010.03.12/outbox.cif.g09.slc.cpg/sg67_23_cif.got.tgz:44993.got - 2010.04.10 22:41:39.
