data_PCOD8278383
_publ_section_title
;
Structure prediction by ZEFSAII (Michael W. Deem and Ramdas Pophale) SiO2 
 PCOD8278383
Probable space group: C M M A
;
_chemical_formula_sum "Si O2"
_cell_formula_units_Z 80
_cell_length_a 16.733524
_cell_length_b 20.303593
_cell_length_c 12.672751
_cell_angle_alpha 90.000000
_cell_angle_beta 90.000000
_cell_angle_gamma 90.000000
_cell_volume 4305.575526
_symmetry_space_group_name_H-M "C M M A"
_symmetry_group_IT_number 67
_symmetry_cell_setting 'orthorhombic'
loop_
_space_group_symop_operation_xyz
x,y,z
-x,1/2-y,z
x,-y,-z
-x,1/2+y,-z
-x,-y,-z
x,1/2+y,-z
-x,y,z
x,1/2-y,z
1/2+x,1/2+y,z
1/2-x,-y,z
1/2+x,1/2-y,-z
1/2-x,y,-z
1/2-x,1/2-y,-z
1/2+x,y,-z
1/2-x,1/2+y,z
1/2+x,-y,z
loop_
_atom_site_type_symbol
_atom_site_label
_atom_site_fract_x
_atom_site_fract_y
_atom_site_fract_z
Si Si1 0.904687 0.823837 0.888804
Si Si2 0.907648 0.896116 0.688355
Si Si3 0.837382 0.469269 0.734001
Si Si4 0.907346 0.430585 0.944003
Si Si5 0.410823 0.424926 0.465767
O O1 0.874721 0.750000 0.912782
O O2 0.868865 0.846937 0.774961
O O3 0.000000 0.827882 0.883445
O O4 0.874623 0.872483 0.980642
O O5 0.872821 0.887177 0.568729
O O6 0.000000 0.880167 0.678425
O O7 0.899720 0.970662 0.730802
O O8 0.750000 0.500000 0.728100
O O9 0.852608 0.427721 0.839826
O O10 0.852378 0.419488 0.635312
O O11 0.000000 0.419717 0.914179
O O12 0.894270 0.500000 0.000000
O O13 0.418241 0.500000 0.500000
O O14 0.500000 0.398303 0.437409
#
# Coordination Sequence:
#
# PCOD8278383 Si02
#       5
#    16  16  16  16  16
#     4   9  17  30  51  76  98 126 169 214 251 294
#     4   9  16  30  49  70  97 126 160 202 252 300
#     4  11  20  28  44  71 103 131 163 202 246 293
#     4  10  18  31  51  71  97 131 165 205 255 299
#     4   8  15  27  45  67  93 124 157 196 247 300
#
# _framework density 18.580559999999998
#
# number of rings (size 3 to 8) (size 9 to 14) (size 15 to 20)
#    0.000    2.600    2.000    3.000    0.000    4.000 
#    0.000    0.000    0.000    3.600    0.000    7.000 
#    0.000    0.000    0.000    0.000    0.000    0.000 
#
# Total GULP energy -495608.901841 kJ/mol
# GULP energy per Si atom -12390.222546 kJ/mol
# Density = 1.853827 g / cm^3
# Si number density = 18.580560 Si / 1000 Ang^3
#
#
#
# Elastic Constant Matrix: (Units=GPa)
#
#
# Indices 1 2 3 4 5 6 
#
# 1 44.9235 9.5838 53.8095 0.0000 0.0000 0.0000
# 2 9.5838 89.2693 67.5966 0.0000 0.0000 0.0000
# 3 53.8095 67.5966 203.4652 0.0000 0.0000 0.0000
# 4 0.0000 0.0000 0.0000 24.0812 0.0000 0.0000
# 5 0.0000 0.0000 0.0000 0.0000 8.0892 0.0000
# 6 0.0000 0.0000 0.0000 0.0000 0.0000 5.2043
#
#
#
# Elastic Compliance Matrix: (Units=1/GPa)
#
#
# Indices 1 2 3 4 5 6 
#
# 1 0.033712 0.004185 -0.010306 0.000000 0.000000 0.000000
# 2 0.004185 0.015487 -0.006252 0.000000 0.000000 0.000000
# 3 -0.010306 -0.006252 0.009717 0.000000 0.000000 0.000000
# 4 0.000000 0.000000 0.000000 0.041526 0.000000 0.000000
# 5 0.000000 0.000000 0.000000 0.000000 0.123622 0.000000
# 6 0.000000 0.000000 0.000000 0.000000 0.000000 0.192148
#
#
# Mechanical properties :
#
#
# Convention : Reuss Voigt Hill
#
# Bulk Modulus (GPa) = 29.26567 66.62641 47.94604
# Shear Modulus (GPa) = 11.05343 21.25280 16.15312
#
# Velocity S-wave (km/s) = 2.44169 3.38571 2.95168
# Velocity P-wave (km/s) = 4.87176 7.15682 6.12185
#
# Compressibility (1/GPa) = 0.03416972
#
# Stress axis : x y z
#
# Youngs Moduli (GPa) = 29.66333 64.57115 102.90845
#
# Poissons Ratio (x) = -0.27020 1.06055
# Poissons Ratio (y) = -0.12413 0.64336
# Poissons Ratio (z) = 0.30570 0.40368
#
# Static dielectric constant tensor:
#      x y z
#    x 3.022790 0.000000 0.000000 
#    y 0.000000 3.170450 0.000000 
#    z 0.000000 0.000000 4.054130 
# 
# 
# High freq. dielectric constant tensor:
#      x y z
#    x 1.681600 0.000000 0.000000 
#    y 0.000000 1.661830 0.000000 
#    z 0.000000 0.000000 1.744680 
# 
# From -- ./inp_files/17960.got.cif
#   From: 2010.03.12/outbox.cif.g09.slc.cpg/sg67_9_cif.got.tgz:17960.got - 2010.04.10 22:41:39.
