data_PCOD8278025
_publ_section_title
;
Structure prediction by ZEFSAII (Michael W. Deem and Ramdas Pophale) SiO2 
 PCOD8278025
Probable space group: C M M A
;
_chemical_formula_sum "Si O2"
_cell_formula_units_Z 80
_cell_length_a 8.850269
_cell_length_b 31.018768
_cell_length_c 20.654315
_cell_angle_alpha 90.000000
_cell_angle_beta 90.000000
_cell_angle_gamma 90.000000
_cell_volume 5670.114276
_symmetry_space_group_name_H-M "C M M A"
_symmetry_group_IT_number 67
_symmetry_cell_setting 'orthorhombic'
loop_
_space_group_symop_operation_xyz
x,y,z
-x,1/2-y,z
x,-y,-z
-x,1/2+y,-z
-x,-y,-z
x,1/2+y,-z
-x,y,z
x,1/2-y,z
1/2+x,1/2+y,z
1/2-x,-y,z
1/2+x,1/2-y,-z
1/2-x,y,-z
1/2-x,1/2-y,-z
1/2+x,y,-z
1/2-x,1/2+y,z
1/2+x,-y,z
loop_
_atom_site_type_symbol
_atom_site_label
_atom_site_fract_x
_atom_site_fract_y
_atom_site_fract_z
Si Si1 0.320256 0.297899 0.169109
Si Si2 0.331549 0.301421 0.563754
Si Si3 0.818587 0.542613 0.928355
Si Si4 0.819222 0.629126 0.070436
Si Si5 0.167074 0.801182 0.310437
O O1 0.500000 0.296392 0.173476
O O2 0.258796 0.250000 0.151491
O O3 0.266359 0.331035 0.114595
O O4 0.259996 0.312743 0.240231
O O5 0.500000 0.318765 0.560131
O O6 0.323401 0.250000 0.564537
O O7 0.250000 0.319741 0.500000
O O8 0.262082 0.320537 0.629996
O O9 0.750000 0.500000 0.892766
O O10 0.754487 0.586452 0.896296
O O11 0.000000 0.541549 0.928852
O O12 0.750000 0.543155 0.000000
O O13 0.000000 0.624304 0.065956
O O14 0.750000 0.637678 0.000000
O O15 0.158382 0.750000 0.316200
O O16 0.000000 0.821169 0.316268
#
# Coordination Sequence:
#
# PCOD8278025 Si02
#       5
#    16  16  16  16  16
#     4   8  15  27  41  54  70  97 131 162 191 224
#     4   9  15  21  30  46  66  86 109 141 180 218
#     4  10  17  27  42  59  77  94 114 142 182 229
#     4  10  18  28  41  57  76  97 124 157 192 228
#     4   8  13  23  37  49  62  85 118 152 183 215
#
# _framework density 14.109063000000001
#
# number of rings (size 3 to 8) (size 9 to 14) (size 15 to 20)
#    0.000    3.000    0.000    6.000    0.000    2.800 
#    0.000    2.000    0.000    4.200    0.000    0.000 
#    0.000    0.000    0.000    0.000    0.000    1.000 
#
# Total GULP energy -495554.878124 kJ/mol
# GULP energy per Si atom -12388.871953 kJ/mol
# Density = 1.407695 g / cm^3
# Si number density = 14.109063 Si / 1000 Ang^3
#
#
#
# Elastic Constant Matrix: (Units=GPa)
#
#
# Indices 1 2 3 4 5 6 
#
# 1 91.1237 32.5930 40.2889 0.0000 0.0000 0.0000
# 2 32.5930 77.4188 49.7158 0.0000 0.0000 0.0000
# 3 40.2889 49.7158 97.0760 0.0000 0.0000 0.0000
# 4 0.0000 0.0000 0.0000 0.6127 0.0000 0.0000
# 5 0.0000 0.0000 0.0000 0.0000 17.1870 0.0000
# 6 0.0000 0.0000 0.0000 0.0000 0.0000 12.1056
#
#
#
# Elastic Compliance Matrix: (Units=1/GPa)
#
#
# Indices 1 2 3 4 5 6 
#
# 1 0.013957 -0.003213 -0.004147 0.000000 0.000000 0.000000
# 2 -0.003213 0.019986 -0.008902 0.000000 0.000000 0.000000
# 3 -0.004147 -0.008902 0.016581 0.000000 0.000000 0.000000
# 4 0.000000 0.000000 0.000000 1.632218 0.000000 0.000000
# 5 0.000000 0.000000 0.000000 0.000000 0.058184 0.000000
# 6 0.000000 0.000000 0.000000 0.000000 0.000000 0.082606
#
#
# Mechanical properties :
#
#
# Convention : Reuss Voigt Hill
#
# Bulk Modulus (GPa) = 55.55430 56.75709 56.15569
# Shear Modulus (GPa) = 2.68520 15.51577 9.10049
#
# Velocity S-wave (km/s) = 1.38105 3.31977 2.54246
# Velocity P-wave (km/s) = 6.48101 7.41682 6.96465
#
# Compressibility (1/GPa) = 0.01800041
#
# Stress axis : x y z
#
# Youngs Moduli (GPa) = 71.64993 50.03528 60.30836
#
# Poissons Ratio (x) = 0.16074 0.25011
# Poissons Ratio (y) = 0.23018 0.53687
# Poissons Ratio (z) = 0.29714 0.44542
#
# Static dielectric constant tensor:
#      x y z
#    x 2.804430 0.000000 0.000000 
#    y 0.000000 3.032790 0.000000 
#    z 0.000000 0.000000 2.834020 
# 
# 
# High freq. dielectric constant tensor:
#      x y z
#    x 1.539260 0.000000 0.000000 
#    y 0.000000 1.491720 0.000000 
#    z 0.000000 0.000000 1.521530 
# 
# From -- ./inp_files/37386.got.cif
#   From: 2010.03.12/outbox.cif.g09.slc.cpg/sg67_19_cif.got.tgz:37386.got - 2010.04.10 22:41:39.
