data_PCOD8278474
_publ_section_title
;
Structure prediction by ZEFSAII (Michael W. Deem and Ramdas Pophale) SiO2 
 PCOD8278474
Probable space group: C M M A
;
_chemical_formula_sum "Si O2"
_cell_formula_units_Z 120
_cell_length_a 26.701091
_cell_length_b 8.727030
_cell_length_c 28.260255
_cell_angle_alpha 90.000000
_cell_angle_beta 90.000000
_cell_angle_gamma 90.000000
_cell_volume 6585.239159
_symmetry_space_group_name_H-M "C M M A"
_symmetry_group_IT_number 67
_symmetry_cell_setting 'orthorhombic'
loop_
_space_group_symop_operation_xyz
x,y,z
-x,1/2-y,z
x,-y,-z
-x,1/2+y,-z
-x,-y,-z
x,1/2+y,-z
-x,y,z
x,1/2-y,z
1/2+x,1/2+y,z
1/2-x,-y,z
1/2+x,1/2-y,-z
1/2-x,y,-z
1/2-x,1/2-y,-z
1/2+x,y,-z
1/2-x,1/2+y,z
1/2+x,-y,z
loop_
_atom_site_type_symbol
_atom_site_label
_atom_site_fract_x
_atom_site_fract_y
_atom_site_fract_z
Si Si1 0.804211 0.066924 0.609613
Si Si2 0.301836 0.069736 0.896518
Si Si3 0.602874 0.566381 0.447625
Si Si4 0.398259 0.571628 0.049194
Si Si5 0.698663 0.428475 0.283706
Si Si6 0.556493 0.425969 0.854617
Si Si7 0.000000 0.934104 0.447420
Si Si8 0.146609 0.571816 0.190739
O O1 0.804364 0.250000 0.602334
O O2 0.815702 0.015870 0.663693
O O3 0.750000 0.000000 0.593890
O O4 0.848198 0.989484 0.579955
O O5 0.297491 0.250000 0.895739
O O6 0.343630 0.013557 0.933933
O O7 0.250000 0.000000 0.913976
O O8 0.315624 0.016557 0.843751
O O9 0.607782 0.500000 0.500000
O O10 0.600461 0.750000 0.448473
O O11 0.551451 0.498971 0.423580
O O12 0.397747 0.750000 0.040509
O O13 0.437281 0.525139 0.090471
O O14 0.415372 0.500000 0.000000
O O15 0.707646 0.250000 0.285371
O O16 0.750000 0.500000 0.265673
O O17 0.656492 0.474263 0.245375
O O18 0.500000 0.450294 0.838472
O O19 0.574137 0.250000 0.849457
O O20 0.589370 0.529093 0.819925
O O21 0.000000 0.750000 0.446393
O O22 0.000000 0.000000 0.500000
O O23 0.155646 0.750000 0.182207
#
# Coordination Sequence:
#
# PCOD8278474 Si02
#       8
#    16  16  16  16  16  16   8  16
#     4  10  20  36  54  77 109 145 182 221 270 323
#     4  10  20  33  48  70  99 130 162 199 243 291
#     4  11  21  35  55  81 110 144 185 230 273 320
#     4   9  19  33  48  68  95 126 161 200 242 293
#     4   9  19  33  52  77 106 136 169 207 252 302
#     4   9  19  36  54  72  97 129 163 202 251 300
#     4  10  18  32  54  80 106 138 178 224 272 316
#     4  10  19  32  52  78 102 127 163 206 249 298
#
# _framework density 18.222572
#
# number of rings (size 3 to 8) (size 9 to 14) (size 15 to 20)
#    0.000    2.267    0.000    5.000    0.000    6.400 
#    0.000    2.667    1.467    0.000    0.000    0.000 
#    0.000    0.000    0.000    0.000    0.000    0.000 
#
# Total GULP energy -743789.034380 kJ/mol
# GULP energy per Si atom -12396.483906 kJ/mol
# Density = 1.818110 g / cm^3
# Si number density = 18.222572 Si / 1000 Ang^3
#
#
#
# Elastic Constant Matrix: (Units=GPa)
#
#
# Indices 1 2 3 4 5 6 
#
# 1 105.7716 36.0897 43.1891 0.0000 0.0000 0.0000
# 2 36.0897 76.3590 29.0970 0.0000 0.0000 0.0000
# 3 43.1891 29.0970 80.9070 0.0000 0.0000 0.0000
# 4 0.0000 0.0000 0.0000 24.2413 0.0000 0.0000
# 5 0.0000 0.0000 0.0000 0.0000 14.8409 0.0000
# 6 0.0000 0.0000 0.0000 0.0000 0.0000 29.5153
#
#
#
# Elastic Compliance Matrix: (Units=1/GPa)
#
#
# Indices 1 2 3 4 5 6 
#
# 1 0.013106 -0.004089 -0.005526 0.000000 0.000000 0.000000
# 2 -0.004089 0.016451 -0.003734 0.000000 0.000000 0.000000
# 3 -0.005526 -0.003734 0.016652 0.000000 0.000000 0.000000
# 4 0.000000 0.000000 0.000000 0.041252 0.000000 0.000000
# 5 0.000000 0.000000 0.000000 0.000000 0.067382 0.000000
# 6 0.000000 0.000000 0.000000 0.000000 0.000000 0.033881
#
#
# Mechanical properties :
#
#
# Convention : Reuss Voigt Hill
#
# Bulk Modulus (GPa) = 51.24761 53.30992 52.27876
# Shear Modulus (GPa) = 22.53027 24.03028 23.28028
#
# Velocity S-wave (km/s) = 3.52005 3.63534 3.57816
# Velocity P-wave (km/s) = 6.68620 6.85123 6.76922
#
# Compressibility (1/GPa) = 0.01951311
#
# Stress axis : x y z
#
# Youngs Moduli (GPa) = 76.30344 60.78562 60.05178
#
# Poissons Ratio (x) = 0.24853 0.33182
# Poissons Ratio (y) = 0.31197 0.22423
# Poissons Ratio (z) = 0.42162 0.22697
#
# Static dielectric constant tensor:
#      x y z
#    x 3.618890 0.000000 0.000000 
#    y 0.000000 3.411310 0.000000 
#    z 0.000000 0.000000 3.372250 
# 
# 
# High freq. dielectric constant tensor:
#      x y z
#    x 1.709480 0.000000 0.000000 
#    y 0.000000 1.714110 0.000000 
#    z 0.000000 0.000000 1.686980 
# 
# From -- ./inp_files/45006.got.cif
#   From: 2010.03.12/outbox.cif.g09.slc.cpg/sg67_23_cif.got.tgz:45006.got - 2010.04.10 22:41:39.
