data_PCOD8278753
_publ_section_title
;
Structure prediction by ZEFSAII (Michael W. Deem and Ramdas Pophale) SiO2 
 PCOD8278753
Probable space group: C M M A
;
_chemical_formula_sum "Si O2"
_cell_formula_units_Z 88
_cell_length_a 9.531016
_cell_length_b 32.465555
_cell_length_c 18.028541
_cell_angle_alpha 90.000000
_cell_angle_beta 90.000000
_cell_angle_gamma 90.000000
_cell_volume 5578.566469
_symmetry_space_group_name_H-M "C M M A"
_symmetry_group_IT_number 67
_symmetry_cell_setting 'orthorhombic'
loop_
_space_group_symop_operation_xyz
x,y,z
-x,1/2-y,z
x,-y,-z
-x,1/2+y,-z
-x,-y,-z
x,1/2+y,-z
-x,y,z
x,1/2-y,z
1/2+x,1/2+y,z
1/2-x,-y,z
1/2+x,1/2-y,-z
1/2-x,y,-z
1/2-x,1/2-y,-z
1/2+x,y,-z
1/2-x,1/2+y,z
1/2+x,-y,z
loop_
_atom_site_type_symbol
_atom_site_label
_atom_site_fract_x
_atom_site_fract_y
_atom_site_fract_z
Si Si1 0.657482 0.578419 0.725344
Si Si2 0.337204 0.703278 0.072178
Si Si3 0.152841 0.444785 0.065952
Si Si4 0.336233 0.127778 0.833124
Si Si5 0.750000 0.000000 0.187599
Si Si6 0.668168 0.542384 0.570588
O O1 0.500000 0.593728 0.738155
O O2 0.755762 0.614080 0.758877
O O3 0.672473 0.533446 0.762067
O O4 0.690621 0.573844 0.638290
O O5 0.500000 0.697672 0.051501
O O6 0.302585 0.750000 0.096278
O O7 0.297381 0.674181 0.141939
O O8 0.250000 0.690370 0.000000
O O9 0.209424 0.401621 0.098660
O O10 0.140559 0.477184 0.133407
O O11 0.000000 0.439059 0.030716
O O12 0.250000 0.460769 0.000000
O O13 0.500000 0.122624 0.815751
O O14 0.500000 0.534990 0.556696
O O15 0.750000 0.500000 0.588476
O O16 0.750000 0.562099 0.500000
#
# Coordination Sequence:
#
# PCOD8278753 Si02
#       6
#    16  16  16  16   8  16
#     4  10  20  32  47  65  87 116 150 185 220 262
#     4   9  17  30  48  69  92 119 152 189 229 275
#     4  10  20  30  41  55  75 105 142 183 221 257
#     4   9  19  32  45  63  87 116 146 182 228 270
#     4  10  19  32  43  56  80 108 148 184 221 256
#     4  10  19  31  47  68  90 117 150 184 222 262
#
# _framework density 15.774661999999999
#
# number of rings (size 3 to 8) (size 9 to 14) (size 15 to 20)
#    0.000    2.364    0.909    2.455    0.000    7.273 
#    0.000    0.000    0.000    0.000    0.000    0.000 
#    0.000    0.727    0.000    1.636    0.000    2.545 
#
# Total GULP energy -545327.346625 kJ/mol
# GULP energy per Si atom -12393.803332 kJ/mol
# Density = 1.573876 g / cm^3
# Si number density = 15.774662 Si / 1000 Ang^3
#
#
#
# Elastic Constant Matrix: (Units=GPa)
#
#
# Indices 1 2 3 4 5 6 
#
# 1 84.1001 33.4602 54.6527 0.0000 0.0000 0.0000
# 2 33.4602 79.7268 45.4271 0.0000 0.0000 0.0000
# 3 54.6527 45.4271 106.4326 0.0000 0.0000 0.0000
# 4 0.0000 0.0000 0.0000 19.7471 0.0000 0.0000
# 5 0.0000 0.0000 0.0000 0.0000 26.5224 0.0000
# 6 0.0000 0.0000 0.0000 0.0000 0.0000 17.7798
#
#
#
# Elastic Compliance Matrix: (Units=1/GPa)
#
#
# Indices 1 2 3 4 5 6 
#
# 1 0.018405 -0.003091 -0.008131 0.000000 0.000000 0.000000
# 2 -0.003091 0.017092 -0.005708 0.000000 0.000000 0.000000
# 3 -0.008131 -0.005708 0.016007 0.000000 0.000000 0.000000
# 4 0.000000 0.000000 0.000000 0.050640 0.000000 0.000000
# 5 0.000000 0.000000 0.000000 0.000000 0.037704 0.000000
# 6 0.000000 0.000000 0.000000 0.000000 0.000000 0.056244
#
#
# Mechanical properties :
#
#
# Convention : Reuss Voigt Hill
#
# Bulk Modulus (GPa) = 56.67838 59.70438 58.19138
# Shear Modulus (GPa) = 21.20130 21.92449 21.56290
#
# Velocity S-wave (km/s) = 3.67005 3.73212 3.70122
# Velocity P-wave (km/s) = 7.34623 7.51679 7.43200
#
# Compressibility (1/GPa) = 0.01764341
#
# Stress axis : x y z
#
# Youngs Moduli (GPa) = 54.33431 58.50523 62.47123
#
# Poissons Ratio (x) = 0.18084 0.50798
# Poissons Ratio (y) = 0.16795 0.35659
# Poissons Ratio (z) = 0.44181 0.33396
#
# Static dielectric constant tensor:
#      x y z
#    x 3.045920 0.000000 0.000000 
#    y 0.000000 2.915730 0.000000 
#    z 0.000000 0.000000 2.972790 
# 
# 
# High freq. dielectric constant tensor:
#      x y z
#    x 1.613960 0.000000 0.000000 
#    y 0.000000 1.576210 0.000000 
#    z 0.000000 0.000000 1.591380 
# 
# From -- ./inp_files/32365.got.cif
#   From: 2010.03.12/outbox.cif.g09.slc.cpg/sg67_17_cif.got.tgz:32365.got - 2010.04.10 22:41:39.
