data_PCOD8279024
_publ_section_title
;
Structure prediction by ZEFSAII (Michael W. Deem and Ramdas Pophale) SiO2 
 PCOD8279024
Probable space group: C M M A
;
_chemical_formula_sum "Si O2"
_cell_formula_units_Z 112
_cell_length_a 13.638649
_cell_length_b 14.378270
_cell_length_c 28.738620
_cell_angle_alpha 90.000000
_cell_angle_beta 90.000000
_cell_angle_gamma 90.000000
_cell_volume 5635.648490
_symmetry_space_group_name_H-M "C M M A"
_symmetry_group_IT_number 67
_symmetry_cell_setting 'orthorhombic'
loop_
_space_group_symop_operation_xyz
x,y,z
-x,1/2-y,z
x,-y,-z
-x,1/2+y,-z
-x,-y,-z
x,1/2+y,-z
-x,y,z
x,1/2-y,z
1/2+x,1/2+y,z
1/2-x,-y,z
1/2+x,1/2-y,-z
1/2-x,y,-z
1/2-x,1/2-y,-z
1/2+x,y,-z
1/2-x,1/2+y,z
1/2+x,-y,z
loop_
_atom_site_type_symbol
_atom_site_label
_atom_site_fract_x
_atom_site_fract_y
_atom_site_fract_z
Si Si1 0.260571 0.143790 0.445090
Si Si2 0.887947 0.477924 0.703483
Si Si3 0.109478 0.359066 0.161061
Si Si4 0.888004 0.000231 0.596747
Si Si5 0.214387 0.852373 0.928327
Si Si6 0.717145 0.640150 0.255232
Si Si7 0.393928 0.101982 0.017524
O O1 0.263280 0.250000 0.427129
O O2 0.250000 0.140053 0.500000
O O3 0.173834 0.089831 0.418443
O O4 0.361912 0.090719 0.433995
O O5 0.865265 0.467395 0.649129
O O6 0.822885 0.405614 0.733613
O O7 0.864174 0.585901 0.714561
O O8 0.000000 0.455394 0.715598
O O9 0.095310 0.250000 0.154520
O O10 0.155198 0.402656 0.113575
O O11 0.186688 0.379562 0.202034
O O12 0.000000 0.402036 0.170211
O O13 0.000000 0.972614 0.589254
O O14 0.244484 0.750000 0.911201
O O15 0.316886 0.903764 0.939856
O O16 0.148298 0.839847 0.974391
O O17 0.717045 0.750000 0.267294
O O18 0.500000 0.143314 0.033226
O O19 0.410196 0.000000 0.000000
#
# Coordination Sequence:
#
# PCOD8279024 Si02
#       7
#    16  16  16  16  16  16  16
#     4  10  21  36  55  82 115 150 192 239 284 332
#     4  10  22  38  56  86 116 143 188 238 284 339
#     4   9  18  33  54  80 106 134 173 218 266 322
#     4  10  21  37  57  80 113 151 189 235 286 339
#     4  10  19  32  53  77  99 129 172 218 261 309
#     4  10  20  37  60  82 110 148 185 228 283 341
#     4  10  20  34  49  70 104 138 170 210 257 313
#
# _framework density 19.87349
#
# number of rings (size 3 to 8) (size 9 to 14) (size 15 to 20)
#    0.000    2.143    0.000    5.143    0.000    6.857 
#    5.143    5.000    0.000    2.571    0.000    0.000 
#    0.000    0.000    0.000    0.000    0.000    0.000 
#
# Total GULP energy -693977.643156 kJ/mol
# GULP energy per Si atom -12392.457913 kJ/mol
# Density = 1.982826 g / cm^3
# Si number density = 19.873490 Si / 1000 Ang^3
#
#
#
# Elastic Constant Matrix: (Units=GPa)
#
#
# Indices 1 2 3 4 5 6 
#
# 1 148.5215 29.2531 48.7882 0.0000 0.0000 0.0000
# 2 29.2531 101.6621 26.5775 0.0000 0.0000 0.0000
# 3 48.7882 26.5775 87.6094 0.0000 0.0000 0.0000
# 4 0.0000 0.0000 0.0000 23.3136 0.0000 0.0000
# 5 0.0000 0.0000 0.0000 0.0000 31.6762 0.0000
# 6 0.0000 0.0000 0.0000 0.0000 0.0000 18.1767
#
#
#
# Elastic Compliance Matrix: (Units=1/GPa)
#
#
# Indices 1 2 3 4 5 6 
#
# 1 0.008395 -0.001296 -0.004282 0.000000 0.000000 0.000000
# 2 -0.001296 0.010884 -0.002580 0.000000 0.000000 0.000000
# 3 -0.004282 -0.002580 0.014581 0.000000 0.000000 0.000000
# 4 0.000000 0.000000 0.000000 0.042893 0.000000 0.000000
# 5 0.000000 0.000000 0.000000 0.000000 0.031569 0.000000
# 6 0.000000 0.000000 0.000000 0.000000 0.000000 0.055016
#
#
# Mechanical properties :
#
#
# Convention : Reuss Voigt Hill
#
# Bulk Modulus (GPa) = 56.99825 60.78117 58.88971
# Shear Modulus (GPa) = 26.95381 30.17824 28.56602
#
# Velocity S-wave (km/s) = 3.68675 3.90104 3.79541
# Velocity P-wave (km/s) = 6.84585 7.13732 6.99310
#
# Compressibility (1/GPa) = 0.01754440
#
# Stress axis : x y z
#
# Youngs Moduli (GPa) = 119.12062 91.87826 68.58063
#
# Poissons Ratio (x) = 0.11910 0.29364
# Poissons Ratio (y) = 0.15441 0.17693
# Poissons Ratio (z) = 0.51004 0.23704
#
# Static dielectric constant tensor:
#      x y z
#    x 4.000540 0.000000 0.000000 
#    y 0.000000 3.625630 0.000000 
#    z 0.000000 0.000000 3.716940 
# 
# 
# High freq. dielectric constant tensor:
#      x y z
#    x 1.781600 0.000000 0.000000 
#    y 0.000000 1.763420 0.000000 
#    z 0.000000 0.000000 1.771150 
# 
# From -- ./inp_files/42023.got.cif
#   From: 2010.03.12/outbox.cif.g09.slc.cpg/sg67_22_cif.got.tgz:42023.got - 2010.04.10 22:41:39.
