data_PCOD8279258
_publ_section_title
;
Structure prediction by ZEFSAII (Michael W. Deem and Ramdas Pophale) SiO2 
 PCOD8279258
Probable space group: C M M A
;
_chemical_formula_sum "Si O2"
_cell_formula_units_Z 96
_cell_length_a 22.426642
_cell_length_b 14.000546
_cell_length_c 13.760047
_cell_angle_alpha 90.000000
_cell_angle_beta 90.000000
_cell_angle_gamma 90.000000
_cell_volume 4320.451563
_symmetry_space_group_name_H-M "C M M A"
_symmetry_group_IT_number 67
_symmetry_cell_setting 'orthorhombic'
loop_
_space_group_symop_operation_xyz
x,y,z
-x,1/2-y,z
x,-y,-z
-x,1/2+y,-z
-x,-y,-z
x,1/2+y,-z
-x,y,z
x,1/2-y,z
1/2+x,1/2+y,z
1/2-x,-y,z
1/2+x,1/2-y,-z
1/2-x,y,-z
1/2-x,1/2-y,-z
1/2+x,y,-z
1/2-x,1/2+y,z
1/2+x,-y,z
loop_
_atom_site_type_symbol
_atom_site_label
_atom_site_fract_x
_atom_site_fract_y
_atom_site_fract_z
Si Si1 0.933137 0.137853 0.599380
Si Si2 0.696684 0.137111 0.432477
Si Si3 0.878863 0.638652 0.069545
Si Si4 0.278265 0.136914 0.217578
Si Si5 0.349663 0.138085 0.847788
Si Si6 0.565015 0.984908 0.788333
O O1 0.932464 0.250000 0.620067
O O2 0.873010 0.111884 0.535014
O O3 0.921707 0.088562 0.701990
O O4 0.000000 0.109761 0.555703
O O5 0.704240 0.250000 0.432966
O O6 0.750000 0.093242 0.500000
O O7 0.707406 0.096293 0.324367
O O8 0.893753 0.750000 0.081549
O O9 0.826159 0.601440 0.139784
O O10 0.932739 0.573684 0.109194
O O11 0.862054 0.614380 0.959936
O O12 0.277300 0.250000 0.217938
O O13 0.214985 0.098819 0.180690
O O14 0.357621 0.250000 0.825206
O O15 0.394300 0.078603 0.781038
O O16 0.500000 0.028924 0.778158
#
# Coordination Sequence:
#
# PCOD8279258 Si02
#       6
#    16  16  16  16  16  16
#     4   9  17  32  55  84 119 157 191 231 291 354
#     4   9  16  29  55  89 119 145 178 230 290 345
#     4  10  19  34  55  80 110 144 183 231 291 347
#     4   9  17  33  54  78 110 144 182 229 284 344
#     4  10  22  36  52  74 107 152 195 238 284 333
#     4  11  22  35  53  78 111 150 195 238 277 331
#
# _framework density 22.219899999999999
#
# number of rings (size 3 to 8) (size 9 to 14) (size 15 to 20)
#    0.000    2.333    1.667    1.500    0.000    5.333 
#    0.000    3.333    0.000    3.000    0.000    7.000 
#    0.000    0.000    0.000    0.000    0.000    0.000 
#
# Total GULP energy -594640.019777 kJ/mol
# GULP energy per Si atom -12388.333745 kJ/mol
# Density = 2.216933 g / cm^3
# Si number density = 22.219900 Si / 1000 Ang^3
#
#
#
# Elastic Constant Matrix: (Units=GPa)
#
#
# Indices 1 2 3 4 5 6 
#
# 1 157.3887 21.1848 43.3698 0.0000 0.0000 0.0000
# 2 21.1848 33.6769 8.8319 0.0000 0.0000 0.0000
# 3 43.3698 8.8319 45.8482 0.0000 0.0000 0.0000
# 4 0.0000 0.0000 0.0000 15.9672 0.0000 0.0000
# 5 0.0000 0.0000 0.0000 0.0000 32.3325 0.0000
# 6 0.0000 0.0000 0.0000 0.0000 0.0000 27.7884
#
#
#
# Elastic Compliance Matrix: (Units=1/GPa)
#
#
# Indices 1 2 3 4 5 6 
#
# 1 0.008992 -0.003608 -0.007811 0.000000 0.000000 0.000000
# 2 -0.003608 0.032722 -0.002890 0.000000 0.000000 0.000000
# 3 -0.007811 -0.002890 0.029756 0.000000 0.000000 0.000000
# 4 0.000000 0.000000 0.000000 0.062628 0.000000 0.000000
# 5 0.000000 0.000000 0.000000 0.000000 0.030929 0.000000
# 6 0.000000 0.000000 0.000000 0.000000 0.000000 0.035986
#
#
# Mechanical properties :
#
#
# Convention : Reuss Voigt Hill
#
# Bulk Modulus (GPa) = 23.33633 42.63188 32.98410
# Shear Modulus (GPa) = 20.49903 26.11944 23.30924
#
# Velocity S-wave (km/s) = 3.04065 3.43227 3.24238
# Velocity P-wave (km/s) = 4.78044 5.91061 5.37531
#
# Compressibility (1/GPa) = 0.04285164
#
# Stress axis : x y z
#
# Youngs Moduli (GPa) = 111.21511 30.56093 33.60642
#
# Poissons Ratio (x) = 0.11026 0.26248
# Poissons Ratio (y) = 0.40125 0.09714
# Poissons Ratio (z) = 0.86865 0.08833
#
# Static dielectric constant tensor:
#      x y z
#    x 4.618550 0.000000 0.000000 
#    y 0.000000 3.718910 0.000000 
#    z 0.000000 0.000000 3.793950 
# 
# 
# High freq. dielectric constant tensor:
#      x y z
#    x 1.889890 0.000000 0.000000 
#    y 0.000000 1.870470 0.000000 
#    z 0.000000 0.000000 1.841840 
# 
# From -- ./inp_files/27220.got.cif
#   From: 2010.03.12/outbox.cif.g09.slc.cpg/sg67_14_cif.got.tgz:27220.got - 2010.04.10 22:41:39.
