data_PCOD8279835
_publ_section_title
;
Structure prediction by ZEFSAII (Michael W. Deem and Ramdas Pophale) SiO2 
 PCOD8279835
Probable space group: C M M A
;
_chemical_formula_sum "Si O2"
_cell_formula_units_Z 116
_cell_length_a 20.847751
_cell_length_b 9.503526
_cell_length_c 30.823138
_cell_angle_alpha 90.000000
_cell_angle_beta 90.000000
_cell_angle_gamma 90.000000
_cell_volume 6106.900291
_symmetry_space_group_name_H-M "C M M A"
_symmetry_group_IT_number 67
_symmetry_cell_setting 'orthorhombic'
loop_
_space_group_symop_operation_xyz
x,y,z
-x,1/2-y,z
x,-y,-z
-x,1/2+y,-z
-x,-y,-z
x,1/2+y,-z
-x,y,z
x,1/2-y,z
1/2+x,1/2+y,z
1/2-x,-y,z
1/2+x,1/2-y,-z
1/2-x,y,-z
1/2-x,1/2-y,-z
1/2+x,y,-z
1/2-x,1/2+y,z
1/2+x,-y,z
loop_
_atom_site_type_symbol
_atom_site_label
_atom_site_fract_x
_atom_site_fract_y
_atom_site_fract_z
Si Si1 0.575779 0.408238 0.192753
Si Si2 0.665527 0.901117 0.423847
Si Si3 0.428823 0.094931 0.458020
Si Si4 0.805501 0.094040 0.327901
Si Si5 0.188330 0.081276 0.044925
Si Si6 0.073108 0.085946 0.275292
Si Si7 0.250000 0.500000 0.500000
Si Si8 0.073964 0.911829 0.889365
O O1 0.500000 0.400103 0.193095
O O2 0.605070 0.250000 0.193328
O O3 0.598256 0.495100 0.234748
O O4 0.598055 0.490254 0.149867
O O5 0.629694 0.750000 0.424525
O O6 0.705353 0.913195 0.379750
O O7 0.615068 0.027969 0.421188
O O8 0.707965 0.905176 0.467605
O O9 0.500000 0.099689 0.439247
O O10 0.403813 0.250000 0.469829
O O11 0.423444 0.000000 0.500000
O O12 0.792976 0.250000 0.310352
O O13 0.877934 0.048985 0.314553
O O14 0.750000 0.000000 0.306080
O O15 0.201871 0.250000 0.039076
O O16 0.123060 0.058224 0.071714
O O17 0.250000 0.000000 0.066615
O O18 0.176300 0.000000 0.000000
O O19 0.075807 0.250000 0.262533
O O20 0.000000 0.045510 0.289059
O O21 0.078311 0.750000 0.874135
O O22 0.000000 0.946662 0.903277
#
# Coordination Sequence:
#
# PCOD8279835 Si02
#       8
#    16  16  16  16  16  16   4  16
#     4   9  17  30  52  83 113 139 173 221 276 328
#     4  11  23  37  57  82 107 138 176 216 257 307
#     4  10  21  36  54  77 104 132 163 202 249 297
#     4  10  22  39  57  82 111 143 177 216 266 314
#     4  10  20  34  52  73 103 146 192 237 284 336
#     4   9  18  35  59  82 107 142 182 219 261 321
#     4  12  22  36  58  82 106 136 178 218 258 304
#     4   9  18  33  53  78 108 142 182 228 279 333
#
# _framework density 18.994907000000001
#
# number of rings (size 3 to 8) (size 9 to 14) (size 15 to 20)
#    0.000    2.207    1.379    1.862    0.000    6.069 
#    0.000    2.069    0.000    1.655    0.000    0.000 
#    0.000    0.000    0.000    0.000    0.000    0.000 
#
# Total GULP energy -718606.611746 kJ/mol
# GULP energy per Si atom -12389.769168 kJ/mol
# Density = 1.895167 g / cm^3
# Si number density = 18.994907 Si / 1000 Ang^3
#
#
#
# Elastic Constant Matrix: (Units=GPa)
#
#
# Indices 1 2 3 4 5 6 
#
# 1 110.4542 58.9737 45.0897 0.0000 0.0000 0.0000
# 2 58.9737 135.8869 43.4613 0.0000 0.0000 0.0000
# 3 45.0897 43.4613 82.8771 0.0000 0.0000 0.0000
# 4 0.0000 0.0000 0.0000 25.0648 0.0000 0.0000
# 5 0.0000 0.0000 0.0000 0.0000 9.7323 0.0000
# 6 0.0000 0.0000 0.0000 0.0000 0.0000 49.7904
#
#
#
# Elastic Compliance Matrix: (Units=1/GPa)
#
#
# Indices 1 2 3 4 5 6 
#
# 1 0.013353 -0.004171 -0.005078 0.000000 0.000000 0.000000
# 2 -0.004171 0.010145 -0.003051 0.000000 0.000000 0.000000
# 3 -0.005078 -0.003051 0.016428 0.000000 0.000000 0.000000
# 4 0.000000 0.000000 0.000000 0.039897 0.000000 0.000000
# 5 0.000000 0.000000 0.000000 0.000000 0.102750 0.000000
# 6 0.000000 0.000000 0.000000 0.000000 0.000000 0.020084
#
#
# Mechanical properties :
#
#
# Convention : Reuss Voigt Hill
#
# Bulk Modulus (GPa) = 65.24129 69.36306 67.30217
# Shear Modulus (GPa) = 21.51776 29.03042 25.27409
#
# Velocity S-wave (km/s) = 3.36939 3.91362 3.65166
# Velocity P-wave (km/s) = 7.03977 7.55102 7.29987
#
# Compressibility (1/GPa) = 0.01532772
#
# Stress axis : x y z
#
# Youngs Moduli (GPa) = 74.88726 98.56983 60.87038
#
# Poissons Ratio (x) = 0.41116 0.30907
# Poissons Ratio (y) = 0.31238 0.18570
# Poissons Ratio (z) = 0.38024 0.30071
#
# Static dielectric constant tensor:
#      x y z
#    x 3.613350 0.000000 0.000000 
#    y 0.000000 4.035740 0.000000 
#    z 0.000000 0.000000 3.266620 
# 
# 
# High freq. dielectric constant tensor:
#      x y z
#    x 1.728590 0.000000 0.000000 
#    y 0.000000 1.752000 0.000000 
#    z 0.000000 0.000000 1.713730 
# 
# From -- ./inp_files/46011.got.cif
#   From: 2010.03.12/outbox.cif.g09.slc.cpg/sg67_24_cif.got.tgz:46011.got - 2010.04.10 22:41:39.
