data_PCOD8279123
_publ_section_title
;
Structure prediction by ZEFSAII (Michael W. Deem and Ramdas Pophale) SiO2 
 PCOD8279123
Probable space group: C M M A
;
_chemical_formula_sum "Si O2"
_cell_formula_units_Z 120
_cell_length_a 26.328745
_cell_length_b 8.677076
_cell_length_c 28.311337
_cell_angle_alpha 90.000000
_cell_angle_beta 90.000000
_cell_angle_gamma 90.000000
_cell_volume 6467.909566
_symmetry_space_group_name_H-M "C M M A"
_symmetry_group_IT_number 67
_symmetry_cell_setting 'orthorhombic'
loop_
_space_group_symop_operation_xyz
x,y,z
-x,1/2-y,z
x,-y,-z
-x,1/2+y,-z
-x,-y,-z
x,1/2+y,-z
-x,y,z
x,1/2-y,z
1/2+x,1/2+y,z
1/2-x,-y,z
1/2+x,1/2-y,-z
1/2-x,y,-z
1/2-x,1/2-y,-z
1/2+x,y,-z
1/2-x,1/2+y,z
1/2+x,-y,z
loop_
_atom_site_type_symbol
_atom_site_label
_atom_site_fract_x
_atom_site_fract_y
_atom_site_fract_z
Si Si1 0.597479 0.926366 0.144748
Si Si2 0.059285 0.428471 0.047581
Si Si3 0.800955 0.572659 0.806660
Si Si4 0.695338 0.932118 0.379988
Si Si5 0.652866 0.430962 0.285391
Si Si6 0.557738 0.068847 0.756800
Si Si7 0.500000 0.070945 0.449292
Si Si8 0.110507 0.067290 0.552345
O O1 0.579698 0.750000 0.140940
O O2 0.582981 0.006644 0.095003
O O3 0.657613 0.943079 0.152123
O O4 0.567973 0.996763 0.190202
O O5 0.072511 0.250000 0.045787
O O6 0.000000 0.463234 0.049502
O O7 0.083231 0.500000 0.000000
O O8 0.793977 0.750000 0.791490
O O9 0.750000 0.500000 0.827944
O O10 0.816591 0.473563 0.761446
O O11 0.698780 0.750000 0.382632
O O12 0.750000 0.000000 0.394069
O O13 0.680027 0.982226 0.327743
O O14 0.653191 0.990732 0.416040
O O15 0.655029 0.250000 0.295031
O O16 0.594104 0.483432 0.280461
O O17 0.500000 0.035616 0.741881
O O18 0.571134 0.250000 0.755738
O O19 0.500000 0.250000 0.457781
O O20 0.445792 0.025710 0.424987
O O21 0.500000 0.000000 0.500000
O O22 0.119139 0.250000 0.551055
O O23 0.115183 0.000000 0.500000
#
# Coordination Sequence:
#
# PCOD8279123 Si02
#       8
#    16  16  16  16  16  16   8  16
#     4   8  15  28  48  71  96 130 169 208 253 308
#     4   9  16  27  44  67  95 127 163 202 247 300
#     4  10  19  33  53  76  99 127 167 214 260 310
#     4  12  25  42  61  83 111 147 187 232 277 327
#     4  11  22  37  55  78 108 142 177 216 264 319
#     4   9  17  32  54  78 105 138 177 219 263 315
#     4   8  16  32  58  86 116 146 178 218 262 310
#     4  10  20  38  62  91 120 151 186 227 273 324
#
# _framework density 18.553135999999999
#
# number of rings (size 3 to 8) (size 9 to 14) (size 15 to 20)
#    0.000    2.267    0.000    4.800    0.000    2.667 
#    1.200    4.667    0.000    3.600    0.000    2.800 
#    0.000    0.000    0.000    0.000    0.000    0.000 
#
# Total GULP energy -743668.466249 kJ/mol
# GULP energy per Si atom -12394.474437 kJ/mol
# Density = 1.851091 g / cm^3
# Si number density = 18.553136 Si / 1000 Ang^3
#
#
#
# Elastic Constant Matrix: (Units=GPa)
#
#
# Indices 1 2 3 4 5 6 
#
# 1 121.2195 55.5732 38.8237 0.0000 0.0000 0.0000
# 2 55.5732 86.7770 32.5491 0.0000 0.0000 0.0000
# 3 38.8237 32.5491 76.1182 0.0000 0.0000 0.0000
# 4 0.0000 0.0000 0.0000 25.1969 0.0000 0.0000
# 5 0.0000 0.0000 0.0000 0.0000 25.0222 0.0000
# 6 0.0000 0.0000 0.0000 0.0000 0.0000 26.9223
#
#
#
# Elastic Compliance Matrix: (Units=1/GPa)
#
#
# Indices 1 2 3 4 5 6 
#
# 1 0.012411 -0.006639 -0.003492 0.000000 0.000000 0.000000
# 2 -0.006639 0.017276 -0.004002 0.000000 0.000000 0.000000
# 3 -0.003492 -0.004002 0.016629 0.000000 0.000000 0.000000
# 4 0.000000 0.000000 0.000000 0.039687 0.000000 0.000000
# 5 0.000000 0.000000 0.000000 0.000000 0.039965 0.000000
# 6 0.000000 0.000000 0.000000 0.000000 0.000000 0.037144
#
#
# Mechanical properties :
#
#
# Convention : Reuss Voigt Hill
#
# Bulk Modulus (GPa) = 55.39109 59.77852 57.58481
# Shear Modulus (GPa) = 25.33004 25.90619 25.61812
#
# Velocity S-wave (km/s) = 3.69896 3.74080 3.71994
# Velocity P-wave (km/s) = 6.93998 7.13780 7.03958
#
# Compressibility (1/GPa) = 0.01805345
#
# Stress axis : x y z
#
# Youngs Moduli (GPa) = 80.57191 57.88294 60.13449
#
# Poissons Ratio (x) = 0.38427 0.20996
# Poissons Ratio (y) = 0.53489 0.24063
# Poissons Ratio (z) = 0.28132 0.23162
#
# Static dielectric constant tensor:
#      x y z
#    x 3.725200 0.000000 0.000000 
#    y 0.000000 3.350300 0.000000 
#    z 0.000000 0.000000 3.427980 
# 
# 
# High freq. dielectric constant tensor:
#      x y z
#    x 1.728040 0.000000 0.000000 
#    y 0.000000 1.711460 0.000000 
#    z 0.000000 0.000000 1.704380 
# 
# From -- ./inp_files/44989.got.cif
#   From: 2010.03.12/outbox.cif.g09.slc.cpg/sg67_23_cif.got.tgz:44989.got - 2010.04.10 22:41:39.
