data_PCOD8279596
_publ_section_title
;
Structure prediction by ZEFSAII (Michael W. Deem and Ramdas Pophale) SiO2 
 PCOD8279596
Probable space group: C M M A
;
_chemical_formula_sum "Si O2"
_cell_formula_units_Z 104
_cell_length_a 30.238502
_cell_length_b 9.324741
_cell_length_c 23.208564
_cell_angle_alpha 90.000000
_cell_angle_beta 90.000000
_cell_angle_gamma 90.000000
_cell_volume 6544.030584
_symmetry_space_group_name_H-M "C M M A"
_symmetry_group_IT_number 67
_symmetry_cell_setting 'orthorhombic'
loop_
_space_group_symop_operation_xyz
x,y,z
-x,1/2-y,z
x,-y,-z
-x,1/2+y,-z
-x,-y,-z
x,1/2+y,-z
-x,y,z
x,1/2-y,z
1/2+x,1/2+y,z
1/2-x,-y,z
1/2+x,1/2-y,-z
1/2-x,y,-z
1/2-x,1/2-y,-z
1/2+x,y,-z
1/2-x,1/2+y,z
1/2+x,-y,z
loop_
_atom_site_type_symbol
_atom_site_label
_atom_site_fract_x
_atom_site_fract_y
_atom_site_fract_z
Si Si1 0.049321 0.919986 0.321779
Si Si2 0.613668 0.416633 0.220399
Si Si3 0.907437 0.582561 0.891478
Si Si4 0.000000 0.410853 0.056425
Si Si5 0.291793 0.412902 0.179479
Si Si6 0.947756 0.908077 0.448119
Si Si7 0.330135 0.920935 0.944212
O O1 0.046668 0.750000 0.326417
O O2 0.088340 0.965924 0.278212
O O3 0.062145 0.979230 0.385392
O O4 0.000000 0.976309 0.303042
O O5 0.603098 0.250000 0.204969
O O6 0.596630 0.523600 0.172445
O O7 0.666929 0.436570 0.223117
O O8 0.893706 0.750000 0.894685
O O9 0.878591 0.490064 0.936412
O O10 0.958027 0.554671 0.905117
O O11 0.000000 0.250000 0.034323
O O12 0.000000 0.500000 0.000000
O O13 0.276724 0.250000 0.179261
O O14 0.250000 0.500000 0.202860
O O15 0.303261 0.459174 0.113783
O O16 0.926451 0.750000 0.451935
O O17 0.000000 0.896975 0.456389
O O18 0.926462 0.000000 0.500000
O O19 0.333462 0.750000 0.954121
O O20 0.308220 0.000000 0.000000
#
# Coordination Sequence:
#
# PCOD8279596 Si02
#       7
#    16  16  16   8  16  16  16
#     4   8  14  25  43  66  91 121 155 185 215 253
#     4   9  18  32  48  68  89 112 148 186 217 256
#     4  10  20  33  46  62  86 115 143 178 220 260
#     4  10  22  34  44  60  82 108 143 180 213 254
#     4   9  19  33  48  66  88 111 139 176 218 268
#     4   8  13  22  37  58  86 120 154 184 212 247
#     4  10  20  34  50  69  88 107 135 173 216 267
#
# _framework density 15.892346
#
# number of rings (size 3 to 8) (size 9 to 14) (size 15 to 20)
#    0.000    2.923    0.000    3.231    1.077    5.846 
#    0.000    2.308    0.000    0.923    0.000    0.000 
#    0.000    0.615    0.000    7.692    0.000    0.308 
#
# Total GULP energy -644365.582510 kJ/mol
# GULP energy per Si atom -12391.645818 kJ/mol
# Density = 1.585617 g / cm^3
# Si number density = 15.892346 Si / 1000 Ang^3
#
#
#
# Elastic Constant Matrix: (Units=GPa)
#
#
# Indices 1 2 3 4 5 6 
#
# 1 83.8222 32.7147 37.4888 0.0000 0.0000 0.0000
# 2 32.7147 54.7724 27.5749 0.0000 0.0000 0.0000
# 3 37.4888 27.5749 92.6826 0.0000 0.0000 0.0000
# 4 0.0000 0.0000 0.0000 21.9753 0.0000 0.0000
# 5 0.0000 0.0000 0.0000 0.0000 13.6214 0.0000
# 6 0.0000 0.0000 0.0000 0.0000 0.0000 22.1411
#
#
#
# Elastic Compliance Matrix: (Units=1/GPa)
#
#
# Indices 1 2 3 4 5 6 
#
# 1 0.017043 -0.007891 -0.004546 0.000000 0.000000 0.000000
# 2 -0.007891 0.025127 -0.004284 0.000000 0.000000 0.000000
# 3 -0.004546 -0.004284 0.013903 0.000000 0.000000 0.000000
# 4 0.000000 0.000000 0.000000 0.045506 0.000000 0.000000
# 5 0.000000 0.000000 0.000000 0.000000 0.073414 0.000000
# 6 0.000000 0.000000 0.000000 0.000000 0.000000 0.045165
#
#
# Mechanical properties :
#
#
# Convention : Reuss Voigt Hill
#
# Bulk Modulus (GPa) = 44.18668 47.42601 45.80634
# Shear Modulus (GPa) = 19.14661 20.44747 19.79704
#
# Velocity S-wave (km/s) = 3.47474 3.59085 3.53327
# Velocity P-wave (km/s) = 6.63043 6.86288 6.74765
#
# Compressibility (1/GPa) = 0.02263126
#
# Stress axis : x y z
#
# Youngs Moduli (GPa) = 58.67581 39.79744 71.92751
#
# Poissons Ratio (x) = 0.31403 0.32698
# Poissons Ratio (y) = 0.46300 0.30815
# Poissons Ratio (z) = 0.26673 0.17050
#
# Static dielectric constant tensor:
#      x y z
#    x 2.953190 0.000000 0.000000 
#    y 0.000000 3.038130 0.000000 
#    z 0.000000 0.000000 3.061960 
# 
# 
# High freq. dielectric constant tensor:
#      x y z
#    x 1.586390 0.000000 0.000000 
#    y 0.000000 1.604330 0.000000 
#    z 0.000000 0.000000 1.595120 
# 
# From -- ./inp_files/42946.got.cif
#   From: 2010.03.12/outbox.cif.g09.slc.cpg/sg67_22_cif.got.tgz:42946.got - 2010.04.10 22:41:39.
