data_PCOD8279356
_publ_section_title
;
Structure prediction by ZEFSAII (Michael W. Deem and Ramdas Pophale) SiO2 
 PCOD8279356
Probable space group: C M M A
;
_chemical_formula_sum "Si O2"
_cell_formula_units_Z 68
_cell_length_a 18.887796
_cell_length_b 19.726965
_cell_length_c 9.799655
_cell_angle_alpha 90.000000
_cell_angle_beta 90.000000
_cell_angle_gamma 90.000000
_cell_volume 3651.340581
_symmetry_space_group_name_H-M "C M M A"
_symmetry_group_IT_number 67
_symmetry_cell_setting 'orthorhombic'
loop_
_space_group_symop_operation_xyz
x,y,z
-x,1/2-y,z
x,-y,-z
-x,1/2+y,-z
-x,-y,-z
x,1/2+y,-z
-x,y,z
x,1/2-y,z
1/2+x,1/2+y,z
1/2-x,-y,z
1/2+x,1/2-y,-z
1/2-x,y,-z
1/2-x,1/2-y,-z
1/2+x,y,-z
1/2-x,1/2+y,z
1/2+x,-y,z
loop_
_atom_site_type_symbol
_atom_site_label
_atom_site_fract_x
_atom_site_fract_y
_atom_site_fract_z
Si Si1 0.333092 0.926119 0.981457
Si Si2 0.922188 0.170859 0.483360
Si Si3 0.813665 0.887448 0.312972
Si Si4 0.335749 0.329846 0.773359
Si Si5 0.750000 0.000000 0.500000
O O1 0.352061 0.904021 0.828881
O O2 0.250000 0.933885 0.000000
O O3 0.358769 0.870445 0.090873
O O4 0.369113 0.000000 0.000000
O O5 0.931051 0.250000 0.469337
O O6 0.869647 0.157714 0.607529
O O7 0.889689 0.143956 0.341720
O O8 0.000000 0.137503 0.506484
O O9 0.742439 0.845736 0.283186
O O10 0.798635 0.954899 0.400841
O O11 0.340794 0.250000 0.805360
#
# Coordination Sequence:
#
# PCOD8279356 Si02
#       5
#    16  16  16  16   4
#     4   9  19  33  53  81 112 145 180 228 281 332
#     4  10  21  37  56  81 112 145 183 231 283 334
#     4  11  20  33  58  82 112 144 187 229 278 326
#     4  10  19  35  58  84 110 144 187 233 280 331
#     4  12  20  32  58  84 112 152 180 226 280 344
#
# _framework density 18.623296
#
# number of rings (size 3 to 8) (size 9 to 14) (size 15 to 20)
#    0.000    1.882    2.353    3.529    0.000    7.059 
#    0.000    1.765    0.000    4.235    0.000    0.000 
#    0.000    0.000    0.000    0.000    0.000    0.000 
#
# Total GULP energy -421460.448839 kJ/mol
# GULP energy per Si atom -12395.895554 kJ/mol
# Density = 1.858091 g / cm^3
# Si number density = 18.623296 Si / 1000 Ang^3
#
#
#
# Elastic Constant Matrix: (Units=GPa)
#
#
# Indices 1 2 3 4 5 6 
#
# 1 72.8660 16.8168 47.4139 0.0000 0.0000 0.0000
# 2 16.8168 77.3277 53.3424 0.0000 0.0000 0.0000
# 3 47.4139 53.3424 174.5751 0.0000 0.0000 0.0000
# 4 0.0000 0.0000 0.0000 32.0279 0.0000 0.0000
# 5 0.0000 0.0000 0.0000 0.0000 2.8672 0.0000
# 6 0.0000 0.0000 0.0000 0.0000 0.0000 7.3870
#
#
#
# Elastic Compliance Matrix: (Units=1/GPa)
#
#
# Indices 1 2 3 4 5 6 
#
# 1 0.016695 -0.000637 -0.004339 0.000000 0.000000 0.000000
# 2 -0.000637 0.016410 -0.004841 0.000000 0.000000 0.000000
# 3 -0.004339 -0.004841 0.008386 0.000000 0.000000 0.000000
# 4 0.000000 0.000000 0.000000 0.031223 0.000000 0.000000
# 5 0.000000 0.000000 0.000000 0.000000 0.348773 0.000000
# 6 0.000000 0.000000 0.000000 0.000000 0.000000 0.135373
#
#
# Mechanical properties :
#
#
# Convention : Reuss Voigt Hill
#
# Bulk Modulus (GPa) = 45.75595 62.21278 53.98437
# Shear Modulus (GPa) = 8.56488 22.26947 15.41718
#
# Velocity S-wave (km/s) = 2.14686 3.46177 2.88035
# Velocity P-wave (km/s) = 5.54688 7.03256 6.33343
#
# Compressibility (1/GPa) = 0.02185508
#
# Stress axis : x y z
#
# Youngs Moduli (GPa) = 59.89966 60.93821 119.24614
#
# Poissons Ratio (x) = 0.03883 0.51747
# Poissons Ratio (y) = 0.03817 0.57729
# Poissons Ratio (z) = 0.25993 0.29501
#
# Static dielectric constant tensor:
#      x y z
#    x 3.388780 0.000000 0.000000 
#    y 0.000000 3.522290 0.000000 
#    z 0.000000 0.000000 3.744220 
# 
# 
# High freq. dielectric constant tensor:
#      x y z
#    x 1.682110 0.000000 0.000000 
#    y 0.000000 1.725150 0.000000 
#    z 0.000000 0.000000 1.741450 
# 
# From -- ./inp_files/9483.got.cif
#   From: 2010.03.12/outbox.cif.g09.slc.cpg/sg67_5_cif.got.tgz:9483.got - 2010.04.10 22:41:39.
