data_PCOD8279641
_publ_section_title
;
Structure prediction by ZEFSAII (Michael W. Deem and Ramdas Pophale) SiO2 
 PCOD8279641
Probable space group: C M M A
;
_chemical_formula_sum "Si O2"
_cell_formula_units_Z 80
_cell_length_a 8.900154
_cell_length_b 27.034363
_cell_length_c 18.757030
_cell_angle_alpha 90.000000
_cell_angle_beta 90.000000
_cell_angle_gamma 90.000000
_cell_volume 4513.128876
_symmetry_space_group_name_H-M "C M M A"
_symmetry_group_IT_number 67
_symmetry_cell_setting 'orthorhombic'
loop_
_space_group_symop_operation_xyz
x,y,z
-x,1/2-y,z
x,-y,-z
-x,1/2+y,-z
-x,-y,-z
x,1/2+y,-z
-x,y,z
x,1/2-y,z
1/2+x,1/2+y,z
1/2-x,-y,z
1/2+x,1/2-y,-z
1/2-x,y,-z
1/2-x,1/2-y,-z
1/2+x,y,-z
1/2-x,1/2+y,z
1/2+x,-y,z
loop_
_atom_site_type_symbol
_atom_site_label
_atom_site_fract_x
_atom_site_fract_y
_atom_site_fract_z
Si Si1 0.326347 0.050630 0.711751
Si Si2 0.821618 0.391797 0.426338
Si Si3 0.675621 0.807262 0.925528
Si Si4 0.326689 0.306858 0.345043
Si Si5 0.676721 0.649500 0.210442
O O1 0.500000 0.039324 0.708271
O O2 0.271444 0.069091 0.634054
O O3 0.289323 0.092541 0.769958
O O4 0.250000 0.000000 0.735132
O O5 0.750000 0.410169 0.500000
O O6 0.758001 0.338039 0.405667
O O7 0.000000 0.387824 0.432884
O O8 0.500000 0.819061 0.929047
O O9 0.706034 0.750000 0.907440
O O10 0.752857 0.840946 0.866282
O O11 0.750000 0.822028 0.000000
O O12 0.500000 0.323301 0.341003
O O13 0.310842 0.250000 0.367109
O O14 0.252460 0.314537 0.267907
O O15 0.500000 0.660585 0.209931
#
# Coordination Sequence:
#
# PCOD8279641 Si02
#       5
#    16  16  16  16  16
#     4   9  20  36  54  76  99 127 165 208 255 305
#     4  10  21  36  52  73 100 130 166 207 254 306
#     4  10  20  33  51  78 110 143 176 207 244 291
#     4  10  20  33  50  73 100 133 172 209 248 297
#     4  10  20  34  52  76 105 135 169 209 252 298
#
# _framework density 17.726061000000001
#
# number of rings (size 3 to 8) (size 9 to 14) (size 15 to 20)
#    0.000    2.200    0.000    4.200    0.000   10.800 
#    0.000    2.000    0.000    0.600    0.000    4.200 
#    0.000    0.000    0.000    0.000    0.000    0.000 
#
# Total GULP energy -496116.841696 kJ/mol
# GULP energy per Si atom -12402.921042 kJ/mol
# Density = 1.768572 g / cm^3
# Si number density = 17.726061 Si / 1000 Ang^3
#
#
#
# Elastic Constant Matrix: (Units=GPa)
#
#
# Indices 1 2 3 4 5 6 
#
# 1 100.0314 43.1327 48.3660 0.0000 0.0000 0.0000
# 2 43.1327 83.9621 38.0014 0.0000 0.0000 0.0000
# 3 48.3660 38.0014 114.6928 0.0000 0.0000 0.0000
# 4 0.0000 0.0000 0.0000 16.1481 0.0000 0.0000
# 5 0.0000 0.0000 0.0000 0.0000 37.3839 0.0000
# 6 0.0000 0.0000 0.0000 0.0000 0.0000 30.2766
#
#
#
# Elastic Compliance Matrix: (Units=1/GPa)
#
#
# Indices 1 2 3 4 5 6 
#
# 1 0.014422 -0.005478 -0.004267 0.000000 0.000000 0.000000
# 2 -0.005478 0.016092 -0.003022 0.000000 0.000000 0.000000
# 3 -0.004267 -0.003022 0.011519 0.000000 0.000000 0.000000
# 4 0.000000 0.000000 0.000000 0.061927 0.000000 0.000000
# 5 0.000000 0.000000 0.000000 0.000000 0.026750 0.000000
# 6 0.000000 0.000000 0.000000 0.000000 0.000000 0.033029
#
#
# Mechanical properties :
#
#
# Convention : Reuss Voigt Hill
#
# Bulk Modulus (GPa) = 60.60361 61.96518 61.28440
# Shear Modulus (GPa) = 25.67123 28.04079 26.85601
#
# Velocity S-wave (km/s) = 3.80968 3.98162 3.89660
# Velocity P-wave (km/s) = 7.32221 7.49471 7.40896
#
# Compressibility (1/GPa) = 0.01650067
#
# Stress axis : x y z
#
# Youngs Moduli (GPa) = 69.33972 62.14372 86.80950
#
# Poissons Ratio (x) = 0.34039 0.37040
# Poissons Ratio (y) = 0.37981 0.26232
# Poissons Ratio (z) = 0.29586 0.18779
#
# Static dielectric constant tensor:
#      x y z
#    x 3.407150 0.000000 0.000000 
#    y 0.000000 3.183190 0.000000 
#    z 0.000000 0.000000 3.253640 
# 
# 
# High freq. dielectric constant tensor:
#      x y z
#    x 1.702630 0.000000 0.000000 
#    y 0.000000 1.671930 0.000000 
#    z 0.000000 0.000000 1.680590 
# 
# From -- ./inp_files/32108.got.cif
#   From: 2010.03.12/outbox.cif.g09.slc.cpg/sg67_17_cif.got.tgz:32108.got - 2010.04.10 22:41:39.
