data_PCOD8279964
_publ_section_title
;
Structure prediction by ZEFSAII (Michael W. Deem and Ramdas Pophale) SiO2 
 PCOD8279964
Probable space group: C M M A
;
_chemical_formula_sum "Si O2"
_cell_formula_units_Z 112
_cell_length_a 13.381862
_cell_length_b 23.658564
_cell_length_c 17.151341
_cell_angle_alpha 90.000000
_cell_angle_beta 90.000000
_cell_angle_gamma 90.000000
_cell_volume 5430.039756
_symmetry_space_group_name_H-M "C M M A"
_symmetry_group_IT_number 67
_symmetry_cell_setting 'orthorhombic'
loop_
_space_group_symop_operation_xyz
x,y,z
-x,1/2-y,z
x,-y,-z
-x,1/2+y,-z
-x,-y,-z
x,1/2+y,-z
-x,y,z
x,1/2-y,z
1/2+x,1/2+y,z
1/2-x,-y,z
1/2+x,1/2-y,-z
1/2-x,y,-z
1/2-x,1/2-y,-z
1/2+x,y,-z
1/2-x,1/2+y,z
1/2+x,-y,z
loop_
_atom_site_type_symbol
_atom_site_label
_atom_site_fract_x
_atom_site_fract_y
_atom_site_fract_z
Si Si1 0.263416 0.813559 0.832329
Si Si2 0.117047 0.879215 0.061043
Si Si3 0.883413 0.521319 0.172121
Si Si4 0.616465 0.684585 0.677588
Si Si5 0.385616 0.989576 0.345493
Si Si6 0.382121 0.597744 0.116121
Si Si7 0.721812 0.412994 0.411607
O O1 0.223002 0.750000 0.828636
O O2 0.326304 0.822418 0.912355
O O3 0.339711 0.826990 0.762707
O O4 0.166385 0.853732 0.830304
O O5 0.159696 0.925910 0.122899
O O6 0.000000 0.869721 0.067367
O O7 0.148074 0.894667 0.973776
O O8 0.860774 0.522397 0.264349
O O9 0.837100 0.462720 0.141171
O O10 0.000000 0.520860 0.153677
O O11 0.500000 0.666930 0.678327
O O12 0.629214 0.750000 0.652705
O O13 0.678232 0.646213 0.617920
O O14 0.500000 0.969451 0.348764
O O15 0.317282 0.934268 0.360262
O O16 0.361879 0.037399 0.409942
O O17 0.500000 0.600968 0.130325
O O18 0.750000 0.402038 0.500000
#
# Coordination Sequence:
#
# PCOD8279964 Si02
#       7
#    16  16  16  16  16  16  16
#     4  11  23  38  56  80 110 146 195 245 284 338
#     4  10  20  34  54  80 111 148 191 244 301 344
#     4   9  18  34  56  80 108 145 192 240 279 325
#     4  10  22  42  67  89 110 145 194 245 293 341
#     4  10  20  35  57  86 122 162 199 234 280 341
#     4  10  21  36  54  79 114 153 191 238 297 350
#     4  11  23  37  58  89 122 152 185 231 286 348
#
# _framework density 20.626000000000001
#
# number of rings (size 3 to 8) (size 9 to 14) (size 15 to 20)
#    0.000    1.857    0.000    4.286    0.000    8.857 
#    0.000    2.857    0.000    1.286    0.000    0.000 
#    0.000    0.000    0.000    0.000    0.000    0.000 
#
# Total GULP energy -694318.065245 kJ/mol
# GULP energy per Si atom -12398.536879 kJ/mol
# Density = 2.057905 g / cm^3
# Si number density = 20.626000 Si / 1000 Ang^3
#
#
#
# Elastic Constant Matrix: (Units=GPa)
#
#
# Indices 1 2 3 4 5 6 
#
# 1 75.2103 36.8419 31.7827 0.0000 0.0000 0.0000
# 2 36.8419 101.2926 48.2559 0.0000 0.0000 0.0000
# 3 31.7827 48.2559 96.9987 0.0000 0.0000 0.0000
# 4 0.0000 0.0000 0.0000 26.9134 0.0000 0.0000
# 5 0.0000 0.0000 0.0000 0.0000 30.4261 0.0000
# 6 0.0000 0.0000 0.0000 0.0000 0.0000 31.8246
#
#
#
# Elastic Compliance Matrix: (Units=1/GPa)
#
#
# Indices 1 2 3 4 5 6 
#
# 1 0.016928 -0.004606 -0.003255 0.000000 0.000000 0.000000
# 2 -0.004606 0.014192 -0.005551 0.000000 0.000000 0.000000
# 3 -0.003255 -0.005551 0.014138 0.000000 0.000000 0.000000
# 4 0.000000 0.000000 0.000000 0.037156 0.000000 0.000000
# 5 0.000000 0.000000 0.000000 0.000000 0.032867 0.000000
# 6 0.000000 0.000000 0.000000 0.000000 0.000000 0.031422
#
#
# Mechanical properties :
#
#
# Convention : Reuss Voigt Hill
#
# Bulk Modulus (GPa) = 54.25105 56.36249 55.30677
# Shear Modulus (GPa) = 27.82838 28.27421 28.05130
#
# Velocity S-wave (km/s) = 3.67712 3.70645 3.69181
# Velocity P-wave (km/s) = 6.66240 6.76035 6.71156
#
# Compressibility (1/GPa) = 0.01843282
#
# Stress axis : x y z
#
# Youngs Moduli (GPa) = 59.07372 70.46017 70.73293
#
# Poissons Ratio (x) = 0.32456 0.23024
# Poissons Ratio (y) = 0.27211 0.39266
# Poissons Ratio (z) = 0.19229 0.39114
#
# Static dielectric constant tensor:
#      x y z
#    x 3.804060 0.000000 0.000000 
#    y 0.000000 3.743860 0.000000 
#    z 0.000000 0.000000 3.669760 
# 
# 
# High freq. dielectric constant tensor:
#      x y z
#    x 1.824440 0.000000 0.000000 
#    y 0.000000 1.798370 0.000000 
#    z 0.000000 0.000000 1.797900 
# 
# From -- ./inp_files/27482.got.cif
#   From: 2010.03.12/outbox.cif.g09.slc.cpg/sg67_14_cif.got.tgz:27482.got - 2010.04.10 22:41:39.
