data_PCOD8279923
_publ_section_title
;
Structure prediction by ZEFSAII (Michael W. Deem and Ramdas Pophale) SiO2 
 PCOD8279923
Probable space group: C M M A
;
_chemical_formula_sum "Si O2"
_cell_formula_units_Z 80
_cell_length_a 18.210017
_cell_length_b 8.983912
_cell_length_c 26.086042
_cell_angle_alpha 90.000000
_cell_angle_beta 90.000000
_cell_angle_gamma 90.000000
_cell_volume 4267.603176
_symmetry_space_group_name_H-M "C M M A"
_symmetry_group_IT_number 67
_symmetry_cell_setting 'orthorhombic'
loop_
_space_group_symop_operation_xyz
x,y,z
-x,1/2-y,z
x,-y,-z
-x,1/2+y,-z
-x,-y,-z
x,1/2+y,-z
-x,y,z
x,1/2-y,z
1/2+x,1/2+y,z
1/2-x,-y,z
1/2+x,1/2-y,-z
1/2-x,y,-z
1/2-x,1/2-y,-z
1/2+x,y,-z
1/2-x,1/2+y,z
1/2+x,-y,z
loop_
_atom_site_type_symbol
_atom_site_label
_atom_site_fract_x
_atom_site_fract_y
_atom_site_fract_z
Si Si1 0.081884 0.572530 0.340048
Si Si2 0.087456 0.581539 0.050557
Si Si3 0.587148 0.920011 0.152744
Si Si4 0.912581 0.414204 0.548481
Si Si5 0.828391 0.072993 0.757232
O O1 0.078932 0.750000 0.342440
O O2 0.107959 0.512581 0.396177
O O3 0.138215 0.517179 0.296855
O O4 0.000000 0.512214 0.327097
O O5 0.118020 0.750000 0.052659
O O6 0.115975 0.490103 0.099626
O O7 0.000000 0.583425 0.049355
O O8 0.118379 0.500000 0.000000
O O9 0.500000 0.927440 0.155693
O O10 0.615110 0.750000 0.156505
O O11 0.618048 0.018730 0.198433
O O12 0.878155 0.500000 0.500000
O O13 0.878895 0.250000 0.545459
O O14 0.000000 0.408724 0.544286
O O15 0.821901 0.250000 0.759501
O O16 0.750000 0.000000 0.764970
#
# Coordination Sequence:
#
# PCOD8279923 Si02
#       5
#    16  16  16  16  16
#     4   8  15  29  50  73  96 126 164 203 245 298
#     4   9  16  27  46  74 106 137 168 204 248 295
#     4  10  20  34  53  78 106 134 168 211 254 298
#     4   8  13  23  41  67  96 122 151 191 240 292
#     4  11  22  36  53  72  98 133 172 212 257 306
#
# _framework density 18.745884
#
# number of rings (size 3 to 8) (size 9 to 14) (size 15 to 20)
#    0.000    2.800    0.000    3.600    0.000    4.400 
#    0.000    2.000    0.000    6.000    0.000    8.400 
#    0.000    0.000    0.000    0.000    0.000    0.000 
#
# Total GULP energy -495810.155609 kJ/mol
# GULP energy per Si atom -12395.253890 kJ/mol
# Density = 1.870322 g / cm^3
# Si number density = 18.745884 Si / 1000 Ang^3
#
#
#
# Elastic Constant Matrix: (Units=GPa)
#
#
# Indices 1 2 3 4 5 6 
#
# 1 21.3297 20.6419 23.8706 0.0000 0.0000 0.0000
# 2 20.6419 94.9087 56.7436 0.0000 0.0000 0.0000
# 3 23.8706 56.7436 169.2807 0.0000 0.0000 0.0000
# 4 0.0000 0.0000 0.0000 33.9777 0.0000 0.0000
# 5 0.0000 0.0000 0.0000 0.0000 0.4376 0.0000
# 6 0.0000 0.0000 0.0000 0.0000 0.0000 17.0708
#
#
#
# Elastic Compliance Matrix: (Units=1/GPa)
#
#
# Indices 1 2 3 4 5 6 
#
# 1 0.063059 -0.010504 -0.005371 0.000000 0.000000 0.000000
# 2 -0.010504 0.014927 -0.003522 0.000000 0.000000 0.000000
# 3 -0.005371 -0.003522 0.007845 0.000000 0.000000 0.000000
# 4 0.000000 0.000000 0.000000 0.029431 0.000000 0.000000
# 5 0.000000 0.000000 0.000000 0.000000 2.285271 0.000000
# 6 0.000000 0.000000 0.000000 0.000000 0.000000 0.058580
#
#
# Mechanical properties :
#
#
# Convention : Reuss Voigt Hill
#
# Bulk Modulus (GPa) = 21.25993 54.22571 37.74282
# Shear Modulus (GPa) = 1.98919 22.58142 12.28531
#
# Velocity S-wave (km/s) = 1.03123 3.47451 2.56278
# Velocity P-wave (km/s) = 3.57542 6.71460 5.37910
#
# Compressibility (1/GPa) = 0.04703684
#
# Stress axis : x y z
#
# Youngs Moduli (GPa) = 15.85821 66.99335 127.46189
#
# Poissons Ratio (x) = 0.70367 0.68463
# Poissons Ratio (y) = 0.16657 0.44897
# Poissons Ratio (z) = 0.08518 0.23598
#
# Static dielectric constant tensor:
#      x y z
#    x 2.947430 0.000000 0.000000 
#    y 0.000000 3.471130 0.000000 
#    z 0.000000 0.000000 3.875160 
# 
# 
# High freq. dielectric constant tensor:
#      x y z
#    x 1.672380 0.000000 0.000000 
#    y 0.000000 1.717090 0.000000 
#    z 0.000000 0.000000 1.751670 
# 
# From -- ./inp_files/43245.got.cif
#   From: 2010.03.12/outbox.cif.g09.slc.cpg/sg67_22_cif.got.tgz:43245.got - 2010.04.10 22:41:39.
