data_PCOD8279893
_publ_section_title
;
Structure prediction by ZEFSAII (Michael W. Deem and Ramdas Pophale) SiO2 
 PCOD8279893
Probable space group: C M M A
;
_chemical_formula_sum "Si O2"
_cell_formula_units_Z 80
_cell_length_a 18.036890
_cell_length_b 8.956577
_cell_length_c 25.936298
_cell_angle_alpha 90.000000
_cell_angle_beta 90.000000
_cell_angle_gamma 90.000000
_cell_volume 4189.977666
_symmetry_space_group_name_H-M "C M M A"
_symmetry_group_IT_number 67
_symmetry_cell_setting 'orthorhombic'
loop_
_space_group_symop_operation_xyz
x,y,z
-x,1/2-y,z
x,-y,-z
-x,1/2+y,-z
-x,-y,-z
x,1/2+y,-z
-x,y,z
x,1/2-y,z
1/2+x,1/2+y,z
1/2-x,-y,z
1/2+x,1/2-y,-z
1/2-x,y,-z
1/2-x,1/2-y,-z
1/2+x,y,-z
1/2-x,1/2+y,z
1/2+x,-y,z
loop_
_atom_site_type_symbol
_atom_site_label
_atom_site_fract_x
_atom_site_fract_y
_atom_site_fract_z
Si Si1 0.911997 0.580181 0.244685
Si Si2 0.911573 0.081367 0.551002
Si Si3 0.411686 0.581470 0.347194
Si Si4 0.329400 0.572993 0.152974
Si Si5 0.084445 0.425716 0.052046
O O1 0.883225 0.750000 0.240122
O O2 0.882404 0.511835 0.298311
O O3 0.881843 0.480554 0.198612
O O4 0.000000 0.573676 0.242480
O O5 0.881356 0.250000 0.551826
O O6 0.000000 0.080331 0.551129
O O7 0.880983 0.000000 0.500000
O O8 0.880649 0.995357 0.601046
O O9 0.500000 0.581900 0.348095
O O10 0.380994 0.750000 0.343958
O O11 0.322427 0.750000 0.155410
O O12 0.250000 0.500000 0.159138
O O13 0.365371 0.519133 0.099311
O O14 0.089090 0.250000 0.045097
O O15 0.000000 0.477595 0.062448
O O16 0.115644 0.500000 0.000000
#
# Coordination Sequence:
#
# PCOD8279893 Si02
#       5
#    16  16  16  16  16
#     4  10  20  34  53  76 101 132 172 216 261 311
#     4   9  15  22  33  52  82 120 160 202 250 305
#     4   9  16  26  41  62  89 123 163 206 253 305
#     4  11  23  38  55  77 107 140 175 215 260 309
#     4   9  19  36  58  82 107 137 173 212 254 302
#
# _framework density 19.093181000000001
#
# number of rings (size 3 to 8) (size 9 to 14) (size 15 to 20)
#    0.000    2.400    0.000    3.000    0.000    8.800 
#    0.000    4.000    0.000    0.000    0.000    0.000 
#    0.000    0.800    0.000    8.000    0.000   12.400 
#
# Total GULP energy -496063.192164 kJ/mol
# GULP energy per Si atom -12401.579804 kJ/mol
# Density = 1.904972 g / cm^3
# Si number density = 19.093181 Si / 1000 Ang^3
#
#
#
# Elastic Constant Matrix: (Units=GPa)
#
#
# Indices 1 2 3 4 5 6 
#
# 1 17.1196 21.5205 21.1771 0.0000 0.0000 0.0000
# 2 21.5205 114.5344 66.4313 0.0000 0.0000 0.0000
# 3 21.1771 66.4313 170.5993 0.0000 0.0000 0.0000
# 4 0.0000 0.0000 0.0000 42.7470 0.0000 0.0000
# 5 0.0000 0.0000 0.0000 0.0000 -0.9842 0.0000
# 6 0.0000 0.0000 0.0000 0.0000 0.0000 19.2425
#
#
#
# Elastic Compliance Matrix: (Units=1/GPa)
#
#
# Indices 1 2 3 4 5 6 
#
# 1 0.079977 -0.011973 -0.005265 0.000000 0.000000 0.000000
# 2 -0.011973 0.013071 -0.003603 0.000000 0.000000 0.000000
# 3 -0.005265 -0.003603 0.007918 0.000000 0.000000 0.000000
# 4 0.000000 0.000000 0.000000 0.023393 0.000000 0.000000
# 5 0.000000 0.000000 0.000000 0.000000 -1.016066 0.000000
# 6 0.000000 0.000000 0.000000 0.000000 0.000000 0.051968
#
#
# Mechanical properties :
#
#
# Convention : Reuss Voigt Hill
#
# Bulk Modulus (GPa) = 16.86848 57.83456 37.35152
# Shear Modulus (GPa) = -6.42432 25.07602 9.32585
#
# Velocity S-wave (km/s) = -1.83631 3.62795 2.21246
# Velocity P-wave (km/s) = 2.08757 6.92140 5.11193
#
# Compressibility (1/GPa) = 0.05928216
#
# Stress axis : x y z
#
# Youngs Moduli (GPa) = 12.50353 76.50650 126.28657
#
# Poissons Ratio (x) = 0.91604 0.66496
# Poissons Ratio (y) = 0.14971 0.45507
# Poissons Ratio (z) = 0.06584 0.27569
#
# Static dielectric constant tensor:
#      x y z
#    x 2.989490 0.000000 0.000000 
#    y 0.000000 3.685890 0.000000 
#    z 0.000000 0.000000 3.738560 
# 
# 
# High freq. dielectric constant tensor:
#      x y z
#    x 1.685240 0.000000 0.000000 
#    y 0.000000 1.756140 0.000000 
#    z 0.000000 0.000000 1.761880 
# 
# From -- ./inp_files/43271.got.cif
#   From: 2010.03.12/outbox.cif.g09.slc.cpg/sg67_22_cif.got.tgz:43271.got - 2010.04.10 22:41:39.
