data_PCOD8279169
_publ_section_title
;
Structure prediction by ZEFSAII (Michael W. Deem and Ramdas Pophale) SiO2 
 PCOD8279169
Probable space group: C M M A
;
_chemical_formula_sum "Si O2"
_cell_formula_units_Z 112
_cell_length_a 14.700312
_cell_length_b 22.559919
_cell_length_c 15.753912
_cell_angle_alpha 90.000000
_cell_angle_beta 90.000000
_cell_angle_gamma 90.000000
_cell_volume 5224.593473
_symmetry_space_group_name_H-M "C M M A"
_symmetry_group_IT_number 67
_symmetry_cell_setting 'orthorhombic'
loop_
_space_group_symop_operation_xyz
x,y,z
-x,1/2-y,z
x,-y,-z
-x,1/2+y,-z
-x,-y,-z
x,1/2+y,-z
-x,y,z
x,1/2-y,z
1/2+x,1/2+y,z
1/2-x,-y,z
1/2+x,1/2-y,-z
1/2-x,y,-z
1/2-x,1/2-y,-z
1/2+x,y,-z
1/2-x,1/2+y,z
1/2+x,-y,z
loop_
_atom_site_type_symbol
_atom_site_label
_atom_site_fract_x
_atom_site_fract_y
_atom_site_fract_z
Si Si1 0.393297 0.318901 0.146252
Si Si2 0.598964 0.987365 0.687292
Si Si3 0.601713 0.590027 0.988343
Si Si4 0.103506 0.888613 0.628119
Si Si5 0.396678 0.817010 0.539141
Si Si6 0.149689 0.985347 0.866662
Si Si7 0.206753 0.130230 0.692335
O O1 0.500000 0.331274 0.166032
O O2 0.372608 0.250000 0.137101
O O3 0.364089 0.350094 0.057687
O O4 0.331230 0.346404 0.219217
O O5 0.500000 0.956947 0.673645
O O6 0.676459 0.938006 0.678577
O O7 0.611597 0.040049 0.618982
O O8 0.595978 0.021117 0.778836
O O9 0.500000 0.598951 0.020763
O O10 0.603715 0.537026 0.920708
O O11 0.656903 0.573909 0.074267
O O12 0.126017 0.861836 0.536427
O O13 0.182781 0.866276 0.692749
O O14 0.000000 0.870197 0.657114
O O15 0.500000 0.825317 0.570721
O O16 0.380173 0.750000 0.506931
O O17 0.330700 0.829013 0.617422
O O18 0.250000 0.000000 0.837442
#
# Coordination Sequence:
#
# PCOD8279169 Si02
#       7
#    16  16  16  16  16  16  16
#     4  10  21  36  57  89 124 154 192 248 306 352
#     4  11  22  38  60  91 124 155 194 247 304 356
#     4  10  19  33  54  83 117 154 192 238 294 351
#     4  10  24  41  57  84 122 161 199 242 293 352
#     4  10  22  41  64  89 118 155 201 250 296 349
#     4  11  20  33  56  87 118 152 195 240 287 354
#     4  12  21  36  63  92 120 153 197 245 301 357
#
# _framework density 21.437075
#
# number of rings (size 3 to 8) (size 9 to 14) (size 15 to 20)
#    0.000    1.429    1.429    6.000    0.000    3.429 
#    0.000    3.571    0.000    2.571    0.000    4.000 
#    0.000    0.000    0.000    0.000    0.000    0.000 
#
# Total GULP energy -694163.899942 kJ/mol
# GULP energy per Si atom -12395.783928 kJ/mol
# Density = 2.138828 g / cm^3
# Si number density = 21.437075 Si / 1000 Ang^3
#
#
#
# Elastic Constant Matrix: (Units=GPa)
#
#
# Indices 1 2 3 4 5 6 
#
# 1 118.9911 26.1734 20.7682 0.0000 0.0000 0.0000
# 2 26.1734 112.4090 39.5763 0.0000 0.0000 0.0000
# 3 20.7682 39.5763 51.7550 0.0000 0.0000 0.0000
# 4 0.0000 0.0000 0.0000 35.0984 0.0000 0.0000
# 5 0.0000 0.0000 0.0000 0.0000 49.1487 0.0000
# 6 0.0000 0.0000 0.0000 0.0000 0.0000 14.3819
#
#
#
# Elastic Compliance Matrix: (Units=1/GPa)
#
#
# Indices 1 2 3 4 5 6 
#
# 1 0.009143 -0.001146 -0.002793 0.000000 0.000000 0.000000
# 2 -0.001146 0.012317 -0.008959 0.000000 0.000000 0.000000
# 3 -0.002793 -0.008959 0.027293 0.000000 0.000000 0.000000
# 4 0.000000 0.000000 0.000000 0.028491 0.000000 0.000000
# 5 0.000000 0.000000 0.000000 0.000000 0.020346 0.000000
# 6 0.000000 0.000000 0.000000 0.000000 0.000000 0.069532
#
#
# Mechanical properties :
#
#
# Convention : Reuss Voigt Hill
#
# Bulk Modulus (GPa) = 43.55654 50.68789 47.12221
# Shear Modulus (GPa) = 24.92877 32.83495 28.88186
#
# Velocity S-wave (km/s) = 3.41380 3.91793 3.67452
# Velocity P-wave (km/s) = 5.99176 6.64554 6.32710
#
# Compressibility (1/GPa) = 0.02295866
#
# Stress axis : x y z
#
# Youngs Moduli (GPa) = 109.36774 81.18833 36.63891
#
# Poissons Ratio (x) = 0.09301 0.10233
# Poissons Ratio (y) = 0.12529 0.32825
# Poissons Ratio (z) = 0.30547 0.72736
#
# Static dielectric constant tensor:
#      x y z
#    x 4.091920 0.000000 0.000000 
#    y 0.000000 3.922610 0.000000 
#    z 0.000000 0.000000 3.792690 
# 
# 
# High freq. dielectric constant tensor:
#      x y z
#    x 1.851880 0.000000 0.000000 
#    y 0.000000 1.826170 0.000000 
#    z 0.000000 0.000000 1.826540 
# 
# From -- ./inp_files/27594.got.cif
#   From: 2010.03.12/outbox.cif.g09.slc.cpg/sg67_14_cif.got.tgz:27594.got - 2010.04.10 22:41:39.
