data_PCOD8279441
_publ_section_title
;
Structure prediction by ZEFSAII (Michael W. Deem and Ramdas Pophale) SiO2 
 PCOD8279441
Probable space group: C M M A
;
_chemical_formula_sum "Si O2"
_cell_formula_units_Z 104
_cell_length_a 9.080873
_cell_length_b 30.321106
_cell_length_c 22.793942
_cell_angle_alpha 90.000000
_cell_angle_beta 90.000000
_cell_angle_gamma 90.000000
_cell_volume 6276.132149
_symmetry_space_group_name_H-M "C M M A"
_symmetry_group_IT_number 67
_symmetry_cell_setting 'orthorhombic'
loop_
_space_group_symop_operation_xyz
x,y,z
-x,1/2-y,z
x,-y,-z
-x,1/2+y,-z
-x,-y,-z
x,1/2+y,-z
-x,y,z
x,1/2-y,z
1/2+x,1/2+y,z
1/2-x,-y,z
1/2+x,1/2-y,-z
1/2-x,y,-z
1/2-x,1/2-y,-z
1/2+x,y,-z
1/2-x,1/2+y,z
1/2+x,-y,z
loop_
_atom_site_type_symbol
_atom_site_label
_atom_site_fract_x
_atom_site_fract_y
_atom_site_fract_z
Si Si1 0.327155 0.923572 0.942228
Si Si2 0.825967 0.699579 0.674658
Si Si3 0.166996 0.373243 0.232325
Si Si4 0.828312 0.250000 0.060560
Si Si5 0.825671 0.044842 0.813619
Si Si6 0.664955 0.197764 0.443817
Si Si7 0.333831 0.342847 0.898556
O O1 0.500000 0.925835 0.952004
O O2 0.279337 0.947672 0.881850
O O3 0.274639 0.873105 0.936694
O O4 0.250000 0.945152 0.000000
O O5 0.779161 0.750000 0.691893
O O6 0.773271 0.664065 0.723052
O O7 0.750444 0.684056 0.614725
O O8 0.000000 0.697746 0.665851
O O9 0.268890 0.416760 0.230084
O O10 0.174295 0.351394 0.169563
O O11 0.000000 0.387221 0.248462
O O12 0.779074 0.207094 0.096145
O O13 0.000000 0.250000 0.049055
O O14 0.750000 0.250000 0.000000
O O15 0.000000 0.041540 0.807350
O O16 0.750000 0.000000 0.792278
O O17 0.500000 0.178098 0.441961
O O18 0.658512 0.250000 0.449549
O O19 0.750000 0.177703 0.500000
O O20 0.500000 0.350291 0.922347
#
# Coordination Sequence:
#
# PCOD8279441 Si02
#       7
#    16  16  16   8  16  16  16
#     4  10  20  33  49  68  89 112 140 179 228 284
#     4   9  17  28  45  70  99 132 167 200 232 273
#     4   9  18  32  50  70  94 123 156 193 233 277
#     4  10  20  30  42  60  82 110 149 190 227 268
#     4  10  21  36  53  71  92 117 148 188 236 289
#     4   9  16  26  41  62  92 130 169 206 240 274
#     4   9  18  31  46  63  85 116 150 188 229 272
#
# _framework density 16.570715
#
# number of rings (size 3 to 8) (size 9 to 14) (size 15 to 20)
#    0.000    2.615    0.000    1.846    1.077    6.462 
#    0.000    1.538    0.000    0.000    0.000    0.000 
#    0.000    0.615    0.000    6.462    0.000    3.077 
#
# Total GULP energy -644607.597761 kJ/mol
# GULP energy per Si atom -12396.299957 kJ/mol
# Density = 1.653300 g / cm^3
# Si number density = 16.570715 Si / 1000 Ang^3
#
#
#
# Elastic Constant Matrix: (Units=GPa)
#
#
# Indices 1 2 3 4 5 6 
#
# 1 60.5926 37.7924 34.5841 0.0000 0.0000 0.0000
# 2 37.7924 97.9499 34.7431 0.0000 0.0000 0.0000
# 3 34.5841 34.7431 77.6994 0.0000 0.0000 0.0000
# 4 0.0000 0.0000 0.0000 11.1500 0.0000 0.0000
# 5 0.0000 0.0000 0.0000 0.0000 27.0236 0.0000
# 6 0.0000 0.0000 0.0000 0.0000 0.0000 20.9435
#
#
#
# Elastic Compliance Matrix: (Units=1/GPa)
#
#
# Indices 1 2 3 4 5 6 
#
# 1 0.025543 -0.006920 -0.008275 0.000000 0.000000 0.000000
# 2 -0.006920 0.014009 -0.003184 0.000000 0.000000 0.000000
# 3 -0.008275 -0.003184 0.017977 0.000000 0.000000 0.000000
# 4 0.000000 0.000000 0.000000 0.089686 0.000000 0.000000
# 5 0.000000 0.000000 0.000000 0.000000 0.037005 0.000000
# 6 0.000000 0.000000 0.000000 0.000000 0.000000 0.047748
#
#
# Mechanical properties :
#
#
# Convention : Reuss Voigt Hill
#
# Bulk Modulus (GPa) = 48.14442 50.05346 49.09894
# Shear Modulus (GPa) = 18.13911 20.43157 19.28534
#
# Velocity S-wave (km/s) = 3.31214 3.51521 3.41518
# Velocity P-wave (km/s) = 6.61392 6.83719 6.72648
#
# Compressibility (1/GPa) = 0.02077084
#
# Stress axis : x y z
#
# Youngs Moduli (GPa) = 39.14995 71.38454 55.62715
#
# Poissons Ratio (x) = 0.49400 0.46030
# Poissons Ratio (y) = 0.27093 0.17710
# Poissons Ratio (z) = 0.32396 0.22727
#
# Static dielectric constant tensor:
#      x y z
#    x 3.149120 0.000000 0.000000 
#    y 0.000000 3.049660 0.000000 
#    z 0.000000 0.000000 3.047390 
# 
# 
# High freq. dielectric constant tensor:
#      x y z
#    x 1.642160 0.000000 0.000000 
#    y 0.000000 1.615160 0.000000 
#    z 0.000000 0.000000 1.620500 
# 
# From -- ./inp_files/40192.got.cif
#   From: 2010.03.12/outbox.cif.g09.slc.cpg/sg67_21_cif.got.tgz:40192.got - 2010.04.10 22:41:39.
