data_PCOD8279604
_publ_section_title
;
Structure prediction by ZEFSAII (Michael W. Deem and Ramdas Pophale) SiO2 
 PCOD8279604
Probable space group: C M M A
;
_chemical_formula_sum "Si O2"
_cell_formula_units_Z 112
_cell_length_a 25.336970
_cell_length_b 14.196356
_cell_length_c 18.088836
_cell_angle_alpha 90.000000
_cell_angle_beta 90.000000
_cell_angle_gamma 90.000000
_cell_volume 6506.421285
_symmetry_space_group_name_H-M "C M M A"
_symmetry_group_IT_number 67
_symmetry_cell_setting 'orthorhombic'
loop_
_space_group_symop_operation_xyz
x,y,z
-x,1/2-y,z
x,-y,-z
-x,1/2+y,-z
-x,-y,-z
x,1/2+y,-z
-x,y,z
x,1/2-y,z
1/2+x,1/2+y,z
1/2-x,-y,z
1/2+x,1/2-y,-z
1/2-x,y,-z
1/2-x,1/2-y,-z
1/2+x,y,-z
1/2-x,1/2+y,z
1/2+x,-y,z
loop_
_atom_site_type_symbol
_atom_site_label
_atom_site_fract_x
_atom_site_fract_y
_atom_site_fract_z
Si Si1 0.709691 0.859503 0.164022
Si Si2 0.157232 0.857951 0.983574
Si Si3 0.829885 0.639889 0.146743
Si Si4 0.380107 0.975402 0.225517
Si Si5 0.062281 0.146230 0.509155
Si Si6 0.937576 0.988723 0.620882
Si Si7 0.440762 0.857877 0.109351
O O1 0.694041 0.750000 0.170787
O O2 0.771184 0.876150 0.178446
O O3 0.675086 0.917562 0.223162
O O4 0.694481 0.897784 0.081874
O O5 0.172606 0.750000 0.994238
O O6 0.167230 0.904372 0.063569
O O7 0.096140 0.873915 0.961958
O O8 0.845966 0.750000 0.149220
O O9 0.870517 0.582006 0.197176
O O10 0.424230 0.924596 0.176393
O O11 0.401780 0.979793 0.307593
O O12 0.088421 0.250000 0.513981
O O13 0.079776 0.084660 0.579575
O O14 0.000000 0.153816 0.511067
O O15 0.078211 0.098028 0.431973
O O16 0.000000 0.988361 0.640055
O O17 0.500000 0.882356 0.084762
O O18 0.435677 0.750000 0.136910
#
# Coordination Sequence:
#
# PCOD8279604 Si02
#       7
#    16  16  16  16  16  16  16
#     4   9  18  32  49  69  92 120 160 213 261 289
#     4   8  15  30  50  68  88 120 164 210 251 289
#     4  10  20  33  47  65  92 126 165 208 252 292
#     4  11  20  30  46  72 101 128 157 190 235 292
#     4   8  15  30  52  74  95 123 156 186 219 261
#     4   9  18  31  47  72 104 129 151 183 221 270
#     4   9  18  32  48  67  94 127 161 200 244 286
#
# _framework density 17.213764000000001
#
# number of rings (size 3 to 8) (size 9 to 14) (size 15 to 20)
#    0.000    2.857    0.000    3.429    0.000    5.714 
#    0.000    6.429    0.000    3.000    0.000    8.000 
#    0.000   13.714    0.000    0.000    0.000    0.000 
#
# Total GULP energy -694125.072129 kJ/mol
# GULP energy per Si atom -12395.090574 kJ/mol
# Density = 1.717458 g / cm^3
# Si number density = 17.213764 Si / 1000 Ang^3
#
#
#
# Elastic Constant Matrix: (Units=GPa)
#
#
# Indices 1 2 3 4 5 6 
#
# 1 69.3238 33.6028 38.4530 0.0000 0.0000 0.0000
# 2 33.6028 104.9151 51.4875 0.0000 0.0000 0.0000
# 3 38.4530 51.4875 116.0107 0.0000 0.0000 0.0000
# 4 0.0000 0.0000 0.0000 16.9288 0.0000 0.0000
# 5 0.0000 0.0000 0.0000 0.0000 23.9308 0.0000
# 6 0.0000 0.0000 0.0000 0.0000 0.0000 21.7377
#
#
#
# Elastic Compliance Matrix: (Units=1/GPa)
#
#
# Indices 1 2 3 4 5 6 
#
# 1 0.018781 -0.003785 -0.004545 0.000000 0.000000 0.000000
# 2 -0.003785 0.012948 -0.004492 0.000000 0.000000 0.000000
# 3 -0.004545 -0.004492 0.012120 0.000000 0.000000 0.000000
# 4 0.000000 0.000000 0.000000 0.059071 0.000000 0.000000
# 5 0.000000 0.000000 0.000000 0.000000 0.041787 0.000000
# 6 0.000000 0.000000 0.000000 0.000000 0.000000 0.046003
#
#
# Mechanical properties :
#
#
# Convention : Reuss Voigt Hill
#
# Bulk Modulus (GPa) = 54.93032 59.70401 57.31717
# Shear Modulus (GPa) = 22.47968 23.63323 23.05645
#
# Velocity S-wave (km/s) = 3.61766 3.70932 3.66378
# Velocity P-wave (km/s) = 7.03064 7.28729 7.16012
#
# Compressibility (1/GPa) = 0.01820488
#
# Stress axis : x y z
#
# Youngs Moduli (GPa) = 53.24588 77.23078 82.50658
#
# Poissons Ratio (x) = 0.29228 0.37503
# Poissons Ratio (y) = 0.20151 0.37064
# Poissons Ratio (z) = 0.24203 0.34694
#
# Static dielectric constant tensor:
#      x y z
#    x 3.093260 0.000000 0.000000 
#    y 0.000000 3.659840 0.000000 
#    z 0.000000 0.000000 2.977240 
# 
# 
# High freq. dielectric constant tensor:
#      x y z
#    x 1.642900 0.000000 0.000000 
#    y 0.000000 1.676330 0.000000 
#    z 0.000000 0.000000 1.635740 
# 
# From -- ./inp_files/30793.got.cif
#   From: 2010.03.12/outbox.cif.g09.slc.cpg/sg67_16_cif.got.tgz:30793.got - 2010.04.10 22:41:39.
