data_PCOD8279383
_publ_section_title
;
Structure prediction by ZEFSAII (Michael W. Deem and Ramdas Pophale) SiO2 
 PCOD8279383
Probable space group: C M M A
;
_chemical_formula_sum "Si O2"
_cell_formula_units_Z 88
_cell_length_a 29.193781
_cell_length_b 13.941177
_cell_length_c 11.626015
_cell_angle_alpha 90.000000
_cell_angle_beta 90.000000
_cell_angle_gamma 90.000000
_cell_volume 4731.737744
_symmetry_space_group_name_H-M "C M M A"
_symmetry_group_IT_number 67
_symmetry_cell_setting 'orthorhombic'
loop_
_space_group_symop_operation_xyz
x,y,z
-x,1/2-y,z
x,-y,-z
-x,1/2+y,-z
-x,-y,-z
x,1/2+y,-z
-x,y,z
x,1/2-y,z
1/2+x,1/2+y,z
1/2-x,-y,z
1/2+x,1/2-y,-z
1/2-x,y,-z
1/2-x,1/2-y,-z
1/2+x,y,-z
1/2-x,1/2+y,z
1/2+x,-y,z
loop_
_atom_site_type_symbol
_atom_site_label
_atom_site_fract_x
_atom_site_fract_y
_atom_site_fract_z
Si Si1 0.800315 0.043121 0.612414
Si Si2 0.606616 0.105114 0.974861
Si Si3 0.946344 0.250000 0.175357
Si Si4 0.637887 0.250000 0.156750
Si Si5 0.161744 0.750000 0.397381
Si Si6 0.754180 0.250000 0.864469
Si Si7 0.681529 0.397605 0.789414
Si Si8 0.371931 0.750000 0.353810
O O1 0.804438 0.158111 0.608604
O O2 0.827191 0.000000 0.500000
O O3 0.750000 0.000000 0.601443
O O4 0.816913 0.005062 0.737649
O O5 0.568769 0.157291 0.897556
O O6 0.655173 0.102044 0.909897
O O7 0.616628 0.157337 0.095120
O O8 0.587224 0.000000 0.000000
O O9 0.923449 0.250000 0.302002
O O10 0.000000 0.250000 0.194194
O O11 0.624939 0.250000 0.292016
O O12 0.692811 0.250000 0.165086
O O13 0.128851 0.750000 0.508377
O O14 0.730449 0.346116 0.811782
O O15 0.750000 0.250000 0.000000
O O16 0.654232 0.342406 0.691305
#
# Coordination Sequence:
#
# PCOD8279383 Si02
#       8
#    16  16   8   8   8   8  16   8
#     4  11  23  35  51  78 108 153 201 244 285 325
#     4  10  20  35  57  83 118 149 183 228 286 348
#     4   9  20  39  64  89 109 136 181 229 286 363
#     4  11  21  35  51  85 115 156 201 240 279 334
#     4  12  22  37  57  77 113 147 197 247 290 333
#     4  11  18  34  56  80 114 162 213 255 283 315
#     4  10  19  36  53  78 115 152 200 242 284 323
#     4   9  19  36  59  80 105 143 179 241 281 340
#
# _framework density 18.597819000000001
#
# number of rings (size 3 to 8) (size 9 to 14) (size 15 to 20)
#    0.000    1.636    3.636    3.273    0.000    2.545 
#    0.000    0.909    0.000    2.182    0.000   16.545 
#    0.000    0.000    0.000    0.000    0.000    0.000 
#
# Total GULP energy -545276.169564 kJ/mol
# GULP energy per Si atom -12392.640217 kJ/mol
# Density = 1.855549 g / cm^3
# Si number density = 18.597819 Si / 1000 Ang^3
#
#
#
# Elastic Constant Matrix: (Units=GPa)
#
#
# Indices 1 2 3 4 5 6 
#
# 1 94.0912 32.2128 35.8099 0.0000 0.0000 0.0000
# 2 32.2128 154.3763 49.8693 0.0000 0.0000 0.0000
# 3 35.8099 49.8693 143.7777 0.0000 0.0000 0.0000
# 4 0.0000 0.0000 0.0000 28.0214 0.0000 0.0000
# 5 0.0000 0.0000 0.0000 0.0000 13.0642 0.0000
# 6 0.0000 0.0000 0.0000 0.0000 0.0000 2.8330
#
#
#
# Elastic Compliance Matrix: (Units=1/GPa)
#
#
# Indices 1 2 3 4 5 6 
#
# 1 0.012149 -0.001754 -0.002417 0.000000 0.000000 0.000000
# 2 -0.001754 0.007548 -0.002181 0.000000 0.000000 0.000000
# 3 -0.002417 -0.002181 0.008314 0.000000 0.000000 0.000000
# 4 0.000000 0.000000 0.000000 0.035687 0.000000 0.000000
# 5 0.000000 0.000000 0.000000 0.000000 0.076545 0.000000
# 6 0.000000 0.000000 0.000000 0.000000 0.000000 0.352984
#
#
# Mechanical properties :
#
#
# Convention : Reuss Voigt Hill
#
# Bulk Modulus (GPa) = 65.33688 69.78103 67.55896
# Shear Modulus (GPa) = 9.78410 27.07394 18.42902
#
# Velocity S-wave (km/s) = 2.29615 3.81958 3.15131
# Velocity P-wave (km/s) = 6.49904 7.55346 7.04600
#
# Compressibility (1/GPa) = 0.01530529
#
# Stress axis : x y z
#
# Youngs Moduli (GPa) = 82.31461 132.47986 120.28152
#
# Poissons Ratio (x) = 0.23238 0.29076
# Poissons Ratio (y) = 0.14438 0.26237
# Poissons Ratio (z) = 0.19898 0.28897
#
# Static dielectric constant tensor:
#      x y z
#    x 2.911150 0.000000 0.000000 
#    y 0.000000 3.790570 0.000000 
#    z 0.000000 0.000000 4.140520 
# 
# 
# High freq. dielectric constant tensor:
#      x y z
#    x 1.656290 0.000000 0.000000 
#    y 0.000000 1.732450 0.000000 
#    z 0.000000 0.000000 1.743590 
# 
# From -- ./inp_files/18472.got.cif
#   From: 2010.03.12/outbox.cif.g09.slc.cpg/sg67_10_cif.got.tgz:18472.got - 2010.04.10 22:41:39.
