data_PCOD8279694
_publ_section_title
;
Structure prediction by ZEFSAII (Michael W. Deem and Ramdas Pophale) SiO2 
 PCOD8279694
Probable space group: C M M A
;
_chemical_formula_sum "Si O2"
_cell_formula_units_Z 80
_cell_length_a 17.888650
_cell_length_b 9.203111
_cell_length_c 25.967311
_cell_angle_alpha 90.000000
_cell_angle_beta 90.000000
_cell_angle_gamma 90.000000
_cell_volume 4275.030391
_symmetry_space_group_name_H-M "C M M A"
_symmetry_group_IT_number 67
_symmetry_cell_setting 'orthorhombic'
loop_
_space_group_symop_operation_xyz
x,y,z
-x,1/2-y,z
x,-y,-z
-x,1/2+y,-z
-x,-y,-z
x,1/2+y,-z
-x,y,z
x,1/2-y,z
1/2+x,1/2+y,z
1/2-x,-y,z
1/2+x,1/2-y,-z
1/2-x,y,-z
1/2-x,1/2-y,-z
1/2+x,y,-z
1/2-x,1/2+y,z
1/2+x,-y,z
loop_
_atom_site_type_symbol
_atom_site_label
_atom_site_fract_x
_atom_site_fract_y
_atom_site_fract_z
Si Si1 0.088791 0.914442 0.758400
Si Si2 0.914708 0.419630 0.949378
Si Si3 0.671339 0.077455 0.152984
Si Si4 0.086305 0.918794 0.451983
Si Si5 0.089184 0.913056 0.339375
O O1 0.118791 0.750000 0.765298
O O2 0.000000 0.917954 0.759716
O O3 0.116947 0.018765 0.803206
O O4 0.119025 0.975980 0.703864
O O5 0.909091 0.250000 0.960173
O O6 0.863804 0.466744 0.901679
O O7 0.000000 0.466422 0.937525
O O8 0.884040 0.500000 0.000000
O O9 0.679793 0.250000 0.158704
O O10 0.750000 0.000000 0.158761
O O11 0.096597 0.750000 0.461840
O O12 0.120320 0.961310 0.395823
O O13 0.000000 0.964844 0.451088
O O14 0.126657 0.000000 0.500000
O O15 0.117123 0.750000 0.326155
O O16 0.000000 0.912711 0.341180
#
# Coordination Sequence:
#
# PCOD8279694 Si02
#       5
#    16  16  16  16  16
#     4  10  20  33  51  75 100 129 169 214 257 303
#     4   9  19  36  58  82 106 135 170 206 246 293
#     4  11  23  38  55  76 105 138 172 210 254 303
#     4   8  13  20  31  50  79 116 155 194 240 294
#     4   8  14  25  40  59  86 122 162 202 247 299
#
# _framework density 18.713317
#
# number of rings (size 3 to 8) (size 9 to 14) (size 15 to 20)
#    0.000    2.800    0.000    3.000    0.000    4.800 
#    0.000    8.000    0.000    0.000    0.000    0.000 
#    0.000    0.800    0.000    8.400    0.000   12.200 
#
# Total GULP energy -495811.282216 kJ/mol
# GULP energy per Si atom -12395.282055 kJ/mol
# Density = 1.867072 g / cm^3
# Si number density = 18.713317 Si / 1000 Ang^3
#
#
#
# Elastic Constant Matrix: (Units=GPa)
#
#
# Indices 1 2 3 4 5 6 
#
# 1 19.5585 21.9871 21.3980 0.0000 0.0000 0.0000
# 2 21.9871 83.0094 70.9974 0.0000 0.0000 0.0000
# 3 21.3980 70.9974 160.1241 0.0000 0.0000 0.0000
# 4 0.0000 0.0000 0.0000 40.8649 0.0000 0.0000
# 5 0.0000 0.0000 0.0000 0.0000 -1.4422 0.0000
# 6 0.0000 0.0000 0.0000 0.0000 0.0000 19.7011
#
#
#
# Elastic Compliance Matrix: (Units=1/GPa)
#
#
# Indices 1 2 3 4 5 6 
#
# 1 0.073169 -0.017748 -0.001908 0.000000 0.000000 0.000000
# 2 -0.017748 0.023711 -0.008142 0.000000 0.000000 0.000000
# 3 -0.001908 -0.008142 0.010110 0.000000 0.000000 0.000000
# 4 0.000000 0.000000 0.000000 0.024471 0.000000 0.000000
# 5 0.000000 0.000000 0.000000 0.000000 -0.693398 0.000000
# 6 0.000000 0.000000 0.000000 0.000000 0.000000 0.050759
#
#
# Mechanical properties :
#
#
# Convention : Reuss Voigt Hill
#
# Bulk Modulus (GPa) = 19.45766 54.60632 37.03199
# Shear Modulus (GPa) = -11.40379 21.71205 5.15413
#
# Velocity S-wave (km/s) = -2.47127 3.40993 1.66140
# Velocity P-wave (km/s) = 1.50912 6.68934 4.84896
#
# Compressibility (1/GPa) = 0.05139363
#
# Stress axis : x y z
#
# Youngs Moduli (GPa) = 13.66702 42.17389 98.91105
#
# Poissons Ratio (x) = 0.74851 0.18877
# Poissons Ratio (y) = 0.24257 0.80529
# Poissons Ratio (z) = 0.02608 0.34336
#
# Static dielectric constant tensor:
#      x y z
#    x 2.939870 0.000000 0.000000 
#    y 0.000000 3.557800 0.000000 
#    z 0.000000 0.000000 3.956160 
# 
# 
# High freq. dielectric constant tensor:
#      x y z
#    x 1.669680 0.000000 0.000000 
#    y 0.000000 1.728220 0.000000 
#    z 0.000000 0.000000 1.748590 
# 
# From -- ./inp_files/43258.got.cif
#   From: 2010.03.12/outbox.cif.g09.slc.cpg/sg67_22_cif.got.tgz:43258.got - 2010.04.10 22:41:39.
