data_PCOD8279051
_publ_section_title
;
Structure prediction by ZEFSAII (Michael W. Deem and Ramdas Pophale) SiO2 
 PCOD8279051
Probable space group: C M M A
;
_chemical_formula_sum "Si O2"
_cell_formula_units_Z 56
_cell_length_a 8.886366
_cell_length_b 15.476452
_cell_length_c 19.668029
_cell_angle_alpha 90.000000
_cell_angle_beta 90.000000
_cell_angle_gamma 90.000000
_cell_volume 2704.932559
_symmetry_space_group_name_H-M "C M M A"
_symmetry_group_IT_number 67
_symmetry_cell_setting 'orthorhombic'
loop_
_space_group_symop_operation_xyz
x,y,z
-x,1/2-y,z
x,-y,-z
-x,1/2+y,-z
-x,-y,-z
x,1/2+y,-z
-x,y,z
x,1/2-y,z
1/2+x,1/2+y,z
1/2-x,-y,z
1/2+x,1/2-y,-z
1/2-x,y,-z
1/2-x,1/2-y,-z
1/2+x,y,-z
1/2-x,1/2+y,z
1/2+x,-y,z
loop_
_atom_site_type_symbol
_atom_site_label
_atom_site_fract_x
_atom_site_fract_y
_atom_site_fract_z
Si Si1 0.674519 0.351638 0.295575
Si Si2 0.177806 0.750000 0.926715
Si Si3 0.830224 0.147090 0.432752
Si Si4 0.821817 0.087255 0.160870
O O1 0.500000 0.375856 0.290345
O O2 0.701993 0.250000 0.287562
O O3 0.737731 0.385367 0.367400
O O4 0.765165 0.400335 0.237326
O O5 0.233918 0.665948 0.886024
O O6 0.000000 0.750000 0.934425
O O7 0.250000 0.750000 0.000000
O O8 0.830490 0.250000 0.435375
O O9 0.750000 0.109563 0.500000
O O10 0.000000 0.111404 0.429010
O O11 0.000000 0.079701 0.161278
O O12 0.750000 0.000000 0.130324
#
# Coordination Sequence:
#
# PCOD8279051 Si02
#       4
#    16   8  16  16
#     4  10  19  32  54  83 115 156 203 252 305 362
#     4  10  24  44  68  94 127 162 199 244 298 358
#     4   9  16  26  43  71 109 152 199 253 306 360
#     4  11  23  41  63  92 125 162 204 250 301 358
#
# _framework density 20.702919999999999
#
# number of rings (size 3 to 8) (size 9 to 14) (size 15 to 20)
#    0.000    2.000    1.429    2.571    0.000    7.429 
#    0.000    2.857    0.000    0.857    0.000    6.000 
#    0.000    0.000    0.000    0.000    0.000    0.000 
#
# Total GULP energy -347313.871817 kJ/mol
# GULP energy per Si atom -12404.066851 kJ/mol
# Density = 2.065580 g / cm^3
# Si number density = 20.702920 Si / 1000 Ang^3
#
#
#
# Elastic Constant Matrix: (Units=GPa)
#
#
# Indices 1 2 3 4 5 6 
#
# 1 108.8355 47.6353 48.0794 0.0000 0.0000 0.0000
# 2 47.6353 104.4323 62.9648 0.0000 0.0000 0.0000
# 3 48.0794 62.9648 155.1835 0.0000 0.0000 0.0000
# 4 0.0000 0.0000 0.0000 2.8085 0.0000 0.0000
# 5 0.0000 0.0000 0.0000 0.0000 43.8223 0.0000
# 6 0.0000 0.0000 0.0000 0.0000 0.0000 27.3831
#
#
#
# Elastic Compliance Matrix: (Units=1/GPa)
#
#
# Indices 1 2 3 4 5 6 
#
# 1 0.011918 -0.004249 -0.001968 0.000000 0.000000 0.000000
# 2 -0.004249 0.014192 -0.004442 0.000000 0.000000 0.000000
# 3 -0.001968 -0.004442 0.008856 0.000000 0.000000 0.000000
# 4 0.000000 0.000000 0.000000 0.356063 0.000000 0.000000
# 5 0.000000 0.000000 0.000000 0.000000 0.022819 0.000000
# 6 0.000000 0.000000 0.000000 0.000000 0.000000 0.036519
#
#
# Mechanical properties :
#
#
# Convention : Reuss Voigt Hill
#
# Bulk Modulus (GPa) = 73.27684 76.20115 74.73899
# Shear Modulus (GPa) = 10.49903 28.78756 19.64329
#
# Velocity S-wave (km/s) = 2.25439 3.73300 3.08363
# Velocity P-wave (km/s) = 6.49982 7.44763 6.98981
#
# Compressibility (1/GPa) = 0.01364688
#
# Stress axis : x y z
#
# Youngs Moduli (GPa) = 83.91018 70.46274 112.91808
#
# Poissons Ratio (x) = 0.29942 0.22224
# Poissons Ratio (y) = 0.35656 0.50155
# Poissons Ratio (z) = 0.16515 0.31298
#
# Static dielectric constant tensor:
#      x y z
#    x 3.804520 0.000000 0.000000 
#    y 0.000000 3.722780 0.000000 
#    z 0.000000 0.000000 3.770860 
# 
# 
# High freq. dielectric constant tensor:
#      x y z
#    x 1.818880 0.000000 0.000000 
#    y 0.000000 1.793360 0.000000 
#    z 0.000000 0.000000 1.811530 
# 
# From -- ./inp_files/31605.got.cif
#   From: 2010.03.12/outbox.cif.g09.slc.cpg/sg67_16_cif.got.tgz:31605.got - 2010.04.10 22:41:39.
