data_PCOD8279131
_publ_section_title
;
Structure prediction by ZEFSAII (Michael W. Deem and Ramdas Pophale) SiO2 
 PCOD8279131
Probable space group: C M M A
;
_chemical_formula_sum "Si O2"
_cell_formula_units_Z 96
_cell_length_a 8.539020
_cell_length_b 31.224085
_cell_length_c 19.700517
_cell_angle_alpha 90.000000
_cell_angle_beta 90.000000
_cell_angle_gamma 90.000000
_cell_volume 5252.612644
_symmetry_space_group_name_H-M "C M M A"
_symmetry_group_IT_number 67
_symmetry_cell_setting 'orthorhombic'
loop_
_space_group_symop_operation_xyz
x,y,z
-x,1/2-y,z
x,-y,-z
-x,1/2+y,-z
-x,-y,-z
x,1/2+y,-z
-x,y,z
x,1/2-y,z
1/2+x,1/2+y,z
1/2-x,-y,z
1/2+x,1/2-y,-z
1/2-x,y,-z
1/2-x,1/2-y,-z
1/2+x,y,-z
1/2-x,1/2+y,z
1/2+x,-y,z
loop_
_atom_site_type_symbol
_atom_site_label
_atom_site_fract_x
_atom_site_fract_y
_atom_site_fract_z
Si Si1 0.183238 0.115732 0.824521
Si Si2 0.816130 0.546528 0.428906
Si Si3 0.824149 0.296758 0.169960
Si Si4 0.313789 0.954438 0.074528
Si Si5 0.186797 0.886845 0.675341
Si Si6 0.824313 0.295002 0.331067
O O1 0.214988 0.163817 0.853395
O O2 0.252437 0.082379 0.877007
O O3 0.268384 0.107134 0.753411
O O4 0.000000 0.108734 0.815242
O O5 0.750000 0.500000 0.412121
O O6 0.750000 0.564388 0.500000
O O7 0.769446 0.577079 0.367928
O O8 0.000000 0.543270 0.435168
O O9 0.762211 0.250000 0.143685
O O10 0.827947 0.295876 0.250512
O O11 0.000000 0.304526 0.142293
O O12 0.500000 0.955392 0.073518
O O13 0.250000 0.000000 0.101130
O O14 0.250000 0.944600 0.000000
O O15 0.250928 0.840475 0.646558
O O16 0.000000 0.889689 0.668529
O O17 0.739153 0.250000 0.354913
O O18 0.000000 0.293358 0.359677
#
# Coordination Sequence:
#
# PCOD8279131 Si02
#       6
#    16  16  16  16  16  16
#     4  11  21  33  51  80 112 141 175 216 261 307
#     4  11  22  38  57  77 101 133 172 212 258 314
#     4   8  14  27  47  71 101 138 176 213 256 305
#     4  11  22  39  59  79 103 135 174 214 260 314
#     4  10  19  33  53  79 108 138 173 215 260 304
#     4   7  11  22  43  70  99 131 166 203 245 294
#
# _framework density 18.276619
#
# number of rings (size 3 to 8) (size 9 to 14) (size 15 to 20)
#    0.000    2.333    0.000    8.000    0.000    1.000 
#    0.000    3.333    0.000    2.500    0.000    0.000 
#    0.000    0.000    0.000    0.000    0.000    0.000 
#
# Total GULP energy -594663.465735 kJ/mol
# GULP energy per Si atom -12388.822203 kJ/mol
# Density = 1.823502 g / cm^3
# Si number density = 18.276619 Si / 1000 Ang^3
#
#
#
# Elastic Constant Matrix: (Units=GPa)
#
#
# Indices 1 2 3 4 5 6 
#
# 1 96.0781 42.3177 9.6845 0.0000 0.0000 0.0000
# 2 42.3177 152.3855 58.3814 0.0000 0.0000 0.0000
# 3 9.6845 58.3814 43.7660 0.0000 0.0000 0.0000
# 4 0.0000 0.0000 0.0000 -11.0832 0.0000 0.0000
# 5 0.0000 0.0000 0.0000 0.0000 24.2155 0.0000
# 6 0.0000 0.0000 0.0000 0.0000 0.0000 27.9889
#
#
#
# Elastic Compliance Matrix: (Units=1/GPa)
#
#
# Indices 1 2 3 4 5 6 
#
# 1 0.012146 -0.004792 0.003705 0.000000 0.000000 0.000000
# 2 -0.004792 0.015312 -0.019365 0.000000 0.000000 0.000000
# 3 0.003705 -0.019365 0.047861 0.000000 0.000000 0.000000
# 4 0.000000 0.000000 0.000000 -0.090227 0.000000 0.000000
# 5 0.000000 0.000000 0.000000 0.000000 0.041296 0.000000
# 6 0.000000 0.000000 0.000000 0.000000 0.000000 0.035728
#
#
# Mechanical properties :
#
#
# Convention : Reuss Voigt Hill
#
# Bulk Modulus (GPa) = 29.05793 56.99965 43.02879
# Shear Modulus (GPa) = 43.67077 20.34732 32.00905
#
# Velocity S-wave (km/s) = 4.89349 3.34023 4.18947
# Velocity P-wave (km/s) = 6.91822 6.79199 6.85539
#
# Compressibility (1/GPa) = 0.03441401
#
# Stress axis : x y z
#
# Youngs Moduli (GPa) = 82.33497 65.30677 20.89372
#
# Poissons Ratio (x) = 0.31297 -0.07741
# Poissons Ratio (y) = 0.39458 0.40461
# Poissons Ratio (z) = -0.30506 1.26469
#
# Static dielectric constant tensor:
#      x y z
#    x 3.364900 0.000000 0.000000 
#    y 0.000000 4.201200 0.000000 
#    z 0.000000 0.000000 2.997840 
# 
# 
# High freq. dielectric constant tensor:
#      x y z
#    x 1.702770 0.000000 0.000000 
#    y 0.000000 1.736490 0.000000 
#    z 0.000000 0.000000 1.662190 
# 
# From -- ./inp_files/40951.got.cif
#   From: 2010.03.12/outbox.cif.g09.slc.cpg/sg67_21_cif.got.tgz:40951.got - 2010.04.10 22:41:39.
