data_PCOD8279747
_publ_section_title
;
Structure prediction by ZEFSAII (Michael W. Deem and Ramdas Pophale) SiO2 
 PCOD8279747
Probable space group: C M M A
;
_chemical_formula_sum "Si O2"
_cell_formula_units_Z 48
_cell_length_a 12.669231
_cell_length_b 18.072210
_cell_length_c 11.176587
_cell_angle_alpha 90.000000
_cell_angle_beta 90.000000
_cell_angle_gamma 90.000000
_cell_volume 2559.002572
_symmetry_space_group_name_H-M "C M M A"
_symmetry_group_IT_number 67
_symmetry_cell_setting 'orthorhombic'
loop_
_space_group_symop_operation_xyz
x,y,z
-x,1/2-y,z
x,-y,-z
-x,1/2+y,-z
-x,-y,-z
x,1/2+y,-z
-x,y,z
x,1/2-y,z
1/2+x,1/2+y,z
1/2-x,-y,z
1/2+x,1/2-y,-z
1/2-x,y,-z
1/2-x,1/2-y,-z
1/2+x,y,-z
1/2-x,1/2+y,z
1/2+x,-y,z
loop_
_atom_site_type_symbol
_atom_site_label
_atom_site_fract_x
_atom_site_fract_y
_atom_site_fract_z
Si Si1 0.000000 0.836031 0.240098
Si Si2 0.615922 0.166629 0.680376
Si Si3 0.500000 0.912829 0.508626
Si Si4 0.221237 0.837069 0.128957
O O1 0.100911 0.855799 0.159778
O O2 0.000000 0.750000 0.279407
O O3 0.000000 0.887545 0.355261
O O4 0.500000 0.167535 0.744149
O O5 0.650398 0.250000 0.644943
O O6 0.605348 0.119071 0.557666
O O7 0.700982 0.129497 0.769485
O O8 0.500000 0.000000 0.500000
O O9 0.242872 0.750000 0.124579
O O10 0.250000 0.872198 0.000000
#
# Coordination Sequence:
#
# PCOD8279747 Si02
#       4
#     8  16   8  16
#     4  10  20  33  52  81 108 131 172 217 254 306
#     4   8  16  32  54  76 103 136 166 206 262 307
#     4  10  20  35  54  76 104 137 177 218 255 308
#     4   9  18  31  53  82 107 134 168 212 259 308
#
# _framework density 18.757308999999999
#
# number of rings (size 3 to 8) (size 9 to 14) (size 15 to 20)
#    1.000    2.000    0.000    1.000    2.333    1.333 
#    0.000    8.333    0.000    6.000    0.000    0.000 
#    0.000    0.000    0.000    0.000    0.000    0.000 
#
# Total GULP energy -297391.956466 kJ/mol
# GULP energy per Si atom -12391.331519 kJ/mol
# Density = 1.871462 g / cm^3
# Si number density = 18.757309 Si / 1000 Ang^3
#
#
#
# Elastic Constant Matrix: (Units=GPa)
#
#
# Indices 1 2 3 4 5 6 
#
# 1 113.6812 26.7662 61.2131 0.0000 0.0000 0.0000
# 2 26.7662 70.5189 49.2497 0.0000 0.0000 0.0000
# 3 61.2131 49.2497 147.2332 0.0000 0.0000 0.0000
# 4 0.0000 0.0000 0.0000 7.5861 0.0000 0.0000
# 5 0.0000 0.0000 0.0000 0.0000 39.3719 0.0000
# 6 0.0000 0.0000 0.0000 0.0000 0.0000 5.3042
#
#
#
# Elastic Compliance Matrix: (Units=1/GPa)
#
#
# Indices 1 2 3 4 5 6 
#
# 1 0.011429 -0.001330 -0.004307 0.000000 0.000000 0.000000
# 2 -0.001330 0.018658 -0.005688 0.000000 0.000000 0.000000
# 3 -0.004307 -0.005688 0.010485 0.000000 0.000000 0.000000
# 4 0.000000 0.000000 0.000000 0.131821 0.000000 0.000000
# 5 0.000000 0.000000 0.000000 0.000000 0.025399 0.000000
# 6 0.000000 0.000000 0.000000 0.000000 0.000000 0.188531
#
#
# Mechanical properties :
#
#
# Convention : Reuss Voigt Hill
#
# Bulk Modulus (GPa) = 55.79727 67.32126 61.55926
# Shear Modulus (GPa) = 12.04976 23.39938 17.72457
#
# Velocity S-wave (km/s) = 2.53732 3.53580 3.07733
# Velocity P-wave (km/s) = 6.19641 7.25519 6.74660
#
# Compressibility (1/GPa) = 0.01792203
#
# Stress axis : x y z
#
# Youngs Moduli (GPa) = 87.49932 53.59636 95.37331
#
# Poissons Ratio (x) = 0.07129 0.41073
# Poissons Ratio (y) = 0.11639 0.54249
# Poissons Ratio (z) = 0.37682 0.30486
#
# Static dielectric constant tensor:
#      x y z
#    x 3.442640 0.000000 0.000000 
#    y 0.000000 2.894250 0.000000 
#    z 0.000000 0.000000 3.454520 
# 
# 
# High freq. dielectric constant tensor:
#      x y z
#    x 1.728090 0.000000 0.000000 
#    y 0.000000 1.671850 0.000000 
#    z 0.000000 0.000000 1.725560 
# 
# From -- ./inp_files/7395.got.cif
#   From: 2010.03.12/outbox.cif.g09.slc.cpg/sg67_4_cif.got.tgz:7395.got - 2010.04.10 22:41:39.
