data_PCOD8279077
_publ_section_title
;
Structure prediction by ZEFSAII (Michael W. Deem and Ramdas Pophale) SiO2 
 PCOD8279077
Probable space group: C M M A
;
_chemical_formula_sum "Si O2"
_cell_formula_units_Z 88
_cell_length_a 25.103389
_cell_length_b 8.966046
_cell_length_c 24.888768
_cell_angle_alpha 90.000000
_cell_angle_beta 90.000000
_cell_angle_gamma 90.000000
_cell_volume 5601.917622
_symmetry_space_group_name_H-M "C M M A"
_symmetry_group_IT_number 67
_symmetry_cell_setting 'orthorhombic'
loop_
_space_group_symop_operation_xyz
x,y,z
-x,1/2-y,z
x,-y,-z
-x,1/2+y,-z
-x,-y,-z
x,1/2+y,-z
-x,y,z
x,1/2-y,z
1/2+x,1/2+y,z
1/2-x,-y,z
1/2+x,1/2-y,-z
1/2-x,y,-z
1/2-x,1/2-y,-z
1/2+x,y,-z
1/2-x,1/2+y,z
1/2+x,-y,z
loop_
_atom_site_type_symbol
_atom_site_label
_atom_site_fract_x
_atom_site_fract_y
_atom_site_fract_z
Si Si1 0.436467 0.417904 0.552829
Si Si2 0.563457 0.581964 0.658073
Si Si3 0.693403 0.571577 0.944297
Si Si4 0.395575 0.924344 0.121552
Si Si5 0.560658 0.422843 0.763915
Si Si6 0.000000 0.075027 0.057267
O O1 0.414161 0.500000 0.500000
O O2 0.500000 0.422922 0.553037
O O3 0.415104 0.250000 0.551814
O O4 0.413600 0.496095 0.606285
O O5 0.500000 0.572924 0.657887
O O6 0.584258 0.750000 0.654854
O O7 0.585090 0.510195 0.713158
O O8 0.697991 0.750000 0.949627
O O9 0.750000 0.500000 0.929542
O O10 0.652895 0.527099 0.897458
O O11 0.672417 0.500000 0.000000
O O12 0.383275 0.750000 0.111435
O O13 0.403434 0.957716 0.184427
O O14 0.448217 0.975461 0.090050
O O15 0.500000 0.472505 0.776325
O O16 0.561937 0.250000 0.749018
O O17 0.000000 0.250000 0.048764
O O18 0.000000 0.000000 0.000000
#
# Coordination Sequence:
#
# PCOD8279077 Si02
#       6
#    16  16  16  16  16   8
#     4   9  15  22  32  46  65  92 129 173 218 259
#     4   9  16  24  34  50  73 101 135 176 215 253
#     4  11  22  37  55  73  91 114 144 181 223 268
#     4  10  19  33  50  69  93 119 148 181 219 264
#     4   9  16  28  44  60  82 114 146 176 212 257
#     4  10  20  32  46  66  92 120 145 174 215 262
#
# _framework density 15.708907
#
# number of rings (size 3 to 8) (size 9 to 14) (size 15 to 20)
#    0.000    2.364    0.909    3.818    0.000    7.273 
#    0.000    0.000    0.000    0.000    0.000    0.000 
#    0.000    0.000    0.000    0.000    0.000    0.909 
#
# Total GULP energy -545584.943891 kJ/mol
# GULP energy per Si atom -12399.657816 kJ/mol
# Density = 1.567315 g / cm^3
# Si number density = 15.708907 Si / 1000 Ang^3
#
#
#
# Elastic Constant Matrix: (Units=GPa)
#
#
# Indices 1 2 3 4 5 6 
#
# 1 42.8160 31.4958 36.5233 0.0000 0.0000 0.0000
# 2 31.4958 116.0625 73.5012 0.0000 0.0000 0.0000
# 3 36.5233 73.5012 140.3460 0.0000 0.0000 0.0000
# 4 0.0000 0.0000 0.0000 33.0917 0.0000 0.0000
# 5 0.0000 0.0000 0.0000 0.0000 7.6673 0.0000
# 6 0.0000 0.0000 0.0000 0.0000 0.0000 15.5606
#
#
#
# Elastic Compliance Matrix: (Units=1/GPa)
#
#
# Indices 1 2 3 4 5 6 
#
# 1 0.031909 -0.005088 -0.005639 0.000000 0.000000 0.000000
# 2 -0.005088 0.013703 -0.005852 0.000000 0.000000 0.000000
# 3 -0.005639 -0.005852 0.011658 0.000000 0.000000 0.000000
# 4 0.000000 0.000000 0.000000 0.030219 0.000000 0.000000
# 5 0.000000 0.000000 0.000000 0.000000 0.130425 0.000000
# 6 0.000000 0.000000 0.000000 0.000000 0.000000 0.064265
#
#
# Mechanical properties :
#
#
# Convention : Reuss Voigt Hill
#
# Bulk Modulus (GPa) = 41.47552 64.69612 53.08582
# Shear Modulus (GPa) = 15.46197 21.77754 18.61975
#
# Velocity S-wave (km/s) = 3.14073 3.72737 3.44655
# Velocity P-wave (km/s) = 6.29381 7.73293 7.05019
#
# Compressibility (1/GPa) = 0.02411061
#
# Stress axis : x y z
#
# Youngs Moduli (GPa) = 31.33927 72.97687 85.77942
#
# Poissons Ratio (x) = 0.37129 0.48374
# Poissons Ratio (y) = 0.15945 0.50202
# Poissons Ratio (z) = 0.17673 0.42709
#
# Static dielectric constant tensor:
#      x y z
#    x 2.509540 0.000000 0.000000 
#    y 0.000000 3.066030 0.000000 
#    z 0.000000 0.000000 3.134280 
# 
# 
# High freq. dielectric constant tensor:
#      x y z
#    x 1.533490 0.000000 0.000000 
#    y 0.000000 1.613240 0.000000 
#    z 0.000000 0.000000 1.614870 
# 
# From -- ./inp_files/44597.got.cif
#   From: 2010.03.12/outbox.cif.g09.slc.cpg/sg67_23_cif.got.tgz:44597.got - 2010.04.10 22:41:39.
