data_PCOD8279397
_publ_section_title
;
Structure prediction by ZEFSAII (Michael W. Deem and Ramdas Pophale) SiO2 
 PCOD8279397
Probable space group: C M M A
;
_chemical_formula_sum "Si O2"
_cell_formula_units_Z 64
_cell_length_a 24.035033
_cell_length_b 9.123796
_cell_length_c 14.365131
_cell_angle_alpha 90.000000
_cell_angle_beta 90.000000
_cell_angle_gamma 90.000000
_cell_volume 3150.140178
_symmetry_space_group_name_H-M "C M M A"
_symmetry_group_IT_number 67
_symmetry_cell_setting 'orthorhombic'
loop_
_space_group_symop_operation_xyz
x,y,z
-x,1/2-y,z
x,-y,-z
-x,1/2+y,-z
-x,-y,-z
x,1/2+y,-z
-x,y,z
x,1/2-y,z
1/2+x,1/2+y,z
1/2-x,-y,z
1/2+x,1/2-y,-z
1/2-x,y,-z
1/2-x,1/2-y,-z
1/2+x,y,-z
1/2-x,1/2+y,z
1/2+x,-y,z
loop_
_atom_site_type_symbol
_atom_site_label
_atom_site_fract_x
_atom_site_fract_y
_atom_site_fract_z
Si Si1 0.378292 0.407071 0.092721
Si Si2 0.500000 0.538772 0.892927
Si Si3 0.500000 0.412640 0.702937
Si Si4 0.190712 0.426630 0.732016
Si Si5 0.108093 0.426993 0.400882
O O1 0.351501 0.250000 0.069720
O O2 0.442382 0.376770 0.123489
O O3 0.344959 0.477769 0.178106
O O4 0.372608 0.500000 0.000000
O O5 0.500000 0.409579 0.815909
O O6 0.500000 0.500000 0.000000
O O7 0.500000 0.250000 0.664328
O O8 0.443840 0.483619 0.661857
O O9 0.193733 0.250000 0.721187
O O10 0.250000 0.500000 0.745548
O O11 0.163530 0.500920 0.641608
O O12 0.098532 0.500000 0.500000
O O13 0.114071 0.250000 0.406138
#
# Coordination Sequence:
#
# PCOD8279397 Si02
#       5
#    16   8   8  16  16
#     4  10  22  38  61  91 126 164 206 251 306 367
#     4  10  19  36  59  95 129 162 202 243 301 360
#     4  10  21  38  64  95 130 167 204 246 305 371
#     4  11  24  43  64  91 122 163 211 262 312 367
#     4  11  23  42  66  95 126 163 204 255 311 372
#
# _framework density 20.316555000000001
#
# number of rings (size 3 to 8) (size 9 to 14) (size 15 to 20)
#    0.000    1.500    2.500    2.250    0.000    7.000 
#    0.000    6.875    0.000    0.000    0.000    0.000 
#    0.000    0.000    0.000    0.000    0.000    0.000 
#
# Total GULP energy -396417.648745 kJ/mol
# GULP energy per Si atom -12388.051523 kJ/mol
# Density = 2.027031 g / cm^3
# Si number density = 20.316555 Si / 1000 Ang^3
#
#
#
# Elastic Constant Matrix: (Units=GPa)
#
#
# Indices 1 2 3 4 5 6 
#
# 1 135.7769 36.9913 62.8780 0.0000 0.0000 0.0000
# 2 36.9913 102.3728 48.0038 0.0000 0.0000 0.0000
# 3 62.8780 48.0038 151.2235 0.0000 0.0000 0.0000
# 4 0.0000 0.0000 0.0000 31.6934 0.0000 0.0000
# 5 0.0000 0.0000 0.0000 0.0000 29.4981 0.0000
# 6 0.0000 0.0000 0.0000 0.0000 0.0000 20.1413
#
#
#
# Elastic Compliance Matrix: (Units=1/GPa)
#
#
# Indices 1 2 3 4 5 6 
#
# 1 0.009407 -0.001839 -0.003328 0.000000 0.000000 0.000000
# 2 -0.001839 0.011836 -0.002993 0.000000 0.000000 0.000000
# 3 -0.003328 -0.002993 0.008946 0.000000 0.000000 0.000000
# 4 0.000000 0.000000 0.000000 0.031552 0.000000 0.000000
# 5 0.000000 0.000000 0.000000 0.000000 0.033900 0.000000
# 6 0.000000 0.000000 0.000000 0.000000 0.000000 0.049649
#
#
# Mechanical properties :
#
#
# Convention : Reuss Voigt Hill
#
# Bulk Modulus (GPa) = 72.09202 76.12437 74.10820
# Shear Modulus (GPa) = 30.07825 32.36656 31.22241
#
# Velocity S-wave (km/s) = 3.85187 3.99571 3.92445
# Velocity P-wave (km/s) = 7.43935 7.67060 7.55586
#
# Compressibility (1/GPa) = 0.01387116
#
# Stress axis : x y z
#
# Youngs Moduli (GPa) = 106.30348 84.48873 111.77753
#
# Poissons Ratio (x) = 0.15535 0.37196
# Poissons Ratio (y) = 0.19546 0.33451
# Poissons Ratio (z) = 0.35375 0.25284
#
# Static dielectric constant tensor:
#      x y z
#    x 4.002620 0.000000 0.000000 
#    y 0.000000 3.585920 0.000000 
#    z 0.000000 0.000000 3.691280 
# 
# 
# High freq. dielectric constant tensor:
#      x y z
#    x 1.800450 0.000000 0.000000 
#    y 0.000000 1.786510 0.000000 
#    z 0.000000 0.000000 1.802310 
# 
# From -- ./inp_files/24842.got.cif
#   From: 2010.03.12/outbox.cif.g09.slc.cpg/sg67_13_cif.got.tgz:24842.got - 2010.04.10 22:41:39.
