data_PCOD8279342
_publ_section_title
;
Structure prediction by ZEFSAII (Michael W. Deem and Ramdas Pophale) SiO2 
 PCOD8279342
Probable space group: C M M A
;
_chemical_formula_sum "Si O2"
_cell_formula_units_Z 88
_cell_length_a 25.580480
_cell_length_b 8.718801
_cell_length_c 22.142847
_cell_angle_alpha 90.000000
_cell_angle_beta 90.000000
_cell_angle_gamma 90.000000
_cell_volume 4938.543847
_symmetry_space_group_name_H-M "C M M A"
_symmetry_group_IT_number 67
_symmetry_cell_setting 'orthorhombic'
loop_
_space_group_symop_operation_xyz
x,y,z
-x,1/2-y,z
x,-y,-z
-x,1/2+y,-z
-x,-y,-z
x,1/2+y,-z
-x,y,z
x,1/2-y,z
1/2+x,1/2+y,z
1/2-x,-y,z
1/2+x,1/2-y,-z
1/2-x,y,-z
1/2-x,1/2-y,-z
1/2+x,y,-z
1/2-x,1/2+y,z
1/2+x,-y,z
loop_
_atom_site_type_symbol
_atom_site_label
_atom_site_fract_x
_atom_site_fract_y
_atom_site_fract_z
Si Si1 0.806704 0.570796 0.059414
Si Si2 0.846257 0.925022 0.822522
Si Si3 0.590207 0.074006 0.355424
Si Si4 0.000000 0.567992 0.566140
Si Si5 0.694312 0.931689 0.307724
Si Si6 0.441654 0.079115 0.221358
O O1 0.803045 0.750000 0.050326
O O2 0.750000 0.500000 0.064432
O O3 0.835241 0.534085 0.121457
O O4 0.835436 0.500000 0.000000
O O5 0.834072 0.750000 0.839616
O O6 0.814419 0.976652 0.762781
O O7 0.907409 0.947194 0.809306
O O8 0.597124 0.250000 0.375891
O O9 0.559390 0.060928 0.293014
O O10 0.553890 0.986734 0.402995
O O11 0.648143 0.000038 0.349417
O O12 0.000000 0.500000 0.500000
O O13 0.000000 0.750000 0.564769
O O14 0.694414 0.750000 0.315859
O O15 0.750000 0.000000 0.328568
O O16 0.500000 0.054379 0.197669
O O17 0.421353 0.250000 0.203906
#
# Coordination Sequence:
#
# PCOD8279342 Si02
#       6
#    16  16  16   8  16  16
#     4  11  21  34  51  70  95 128 166 210 258 310
#     4  10  20  32  48  74 104 135 173 214 259 312
#     4  10  19  35  56  80 110 144 179 222 269 315
#     4  12  24  38  58  84 114 146 183 224 265 312
#     4  10  20  33  51  79 111 146 181 220 267 320
#     4   9  17  31  51  75 104 137 170 209 259 311
#
# _framework density 17.819018
#
# number of rings (size 3 to 8) (size 9 to 14) (size 15 to 20)
#    0.000    1.818    0.909    5.182    0.000    4.727 
#    0.000    0.000    0.000    1.091    0.000    3.818 
#    0.000    0.000    0.000    0.000    0.000    0.000 
#
# Total GULP energy -545493.136194 kJ/mol
# GULP energy per Si atom -12397.571277 kJ/mol
# Density = 1.777846 g / cm^3
# Si number density = 17.819018 Si / 1000 Ang^3
#
#
#
# Elastic Constant Matrix: (Units=GPa)
#
#
# Indices 1 2 3 4 5 6 
#
# 1 117.0741 51.7525 48.5227 0.0000 0.0000 0.0000
# 2 51.7525 131.1227 52.5477 0.0000 0.0000 0.0000
# 3 48.5227 52.5477 89.8977 0.0000 0.0000 0.0000
# 4 0.0000 0.0000 0.0000 31.6834 0.0000 0.0000
# 5 0.0000 0.0000 0.0000 0.0000 17.3280 0.0000
# 6 0.0000 0.0000 0.0000 0.0000 0.0000 33.0305
#
#
#
# Elastic Compliance Matrix: (Units=1/GPa)
#
#
# Indices 1 2 3 4 5 6 
#
# 1 0.011705 -0.002727 -0.004724 0.000000 0.000000 0.000000
# 2 -0.002727 0.010595 -0.004721 0.000000 0.000000 0.000000
# 3 -0.004724 -0.004721 0.016433 0.000000 0.000000 0.000000
# 4 0.000000 0.000000 0.000000 0.031562 0.000000 0.000000
# 5 0.000000 0.000000 0.000000 0.000000 0.057710 0.000000
# 6 0.000000 0.000000 0.000000 0.000000 0.000000 0.030275
#
#
# Mechanical properties :
#
#
# Convention : Reuss Voigt Hill
#
# Bulk Modulus (GPa) = 69.49664 71.52669 70.51167
# Shear Modulus (GPa) = 26.67809 28.75982 27.71895
#
# Velocity S-wave (km/s) = 3.87352 4.02181 3.94837
# Velocity P-wave (km/s) = 7.68711 7.86094 7.77451
#
# Compressibility (1/GPa) = 0.01438918
#
# Stress axis : x y z
#
# Youngs Moduli (GPa) = 85.43512 94.38770 60.85254
#
# Poissons Ratio (x) = 0.25736 0.28746
# Poissons Ratio (y) = 0.23295 0.28729
# Poissons Ratio (z) = 0.40359 0.44562
#
# Static dielectric constant tensor:
#      x y z
#    x 3.286170 0.000000 0.000000 
#    y 0.000000 3.434220 0.000000 
#    z 0.000000 0.000000 3.380280 
# 
# 
# High freq. dielectric constant tensor:
#      x y z
#    x 1.684440 0.000000 0.000000 
#    y 0.000000 1.705490 0.000000 
#    z 0.000000 0.000000 1.665220 
# 
# From -- ./inp_files/36944.got.cif
#   From: 2010.03.12/outbox.cif.g09.slc.cpg/sg67_19_cif.got.tgz:36944.got - 2010.04.10 22:41:39.
