data_PCOD8279156
_publ_section_title
;
Structure prediction by ZEFSAII (Michael W. Deem and Ramdas Pophale) SiO2 
 PCOD8279156
Probable space group: C M M A
;
_chemical_formula_sum "Si O2"
_cell_formula_units_Z 96
_cell_length_a 8.952573
_cell_length_b 18.829714
_cell_length_c 31.088833
_cell_angle_alpha 90.000000
_cell_angle_beta 90.000000
_cell_angle_gamma 90.000000
_cell_volume 5240.781032
_symmetry_space_group_name_H-M "C M M A"
_symmetry_group_IT_number 67
_symmetry_cell_setting 'orthorhombic'
loop_
_space_group_symop_operation_xyz
x,y,z
-x,1/2-y,z
x,-y,-z
-x,1/2+y,-z
-x,-y,-z
x,1/2+y,-z
-x,y,z
x,1/2-y,z
1/2+x,1/2+y,z
1/2-x,-y,z
1/2+x,1/2-y,-z
1/2-x,y,-z
1/2-x,1/2-y,-z
1/2+x,y,-z
1/2-x,1/2+y,z
1/2+x,-y,z
loop_
_atom_site_type_symbol
_atom_site_label
_atom_site_fract_x
_atom_site_fract_y
_atom_site_fract_z
Si Si1 0.324083 0.422894 0.383223
Si Si2 0.828571 0.073600 0.709988
Si Si3 0.173211 0.831731 0.874856
Si Si4 0.172232 0.333624 0.456414
Si Si5 0.824515 0.076710 0.803282
Si Si6 0.676087 0.426238 0.955650
O O1 0.500000 0.430374 0.392158
O O2 0.250000 0.500000 0.387888
O O3 0.293076 0.387528 0.335515
O O4 0.252438 0.369231 0.416427
O O5 0.785134 0.110224 0.755633
O O6 0.000000 0.054446 0.711787
O O7 0.750000 0.000000 0.707598
O O8 0.219776 0.750000 0.878394
O O9 0.267088 0.866897 0.837192
O O10 0.212523 0.867467 0.920195
O O11 0.000000 0.841306 0.863674
O O12 0.191988 0.250000 0.451066
O O13 0.250000 0.360617 0.500000
O O14 0.000000 0.356410 0.457879
O O15 0.000000 0.066340 0.809822
O O16 0.750000 0.000000 0.810207
O O17 0.500000 0.437493 0.962236
O O18 0.750000 0.500000 0.940579
O O19 0.750000 0.399991 0.000000
#
# Coordination Sequence:
#
# PCOD8279156 Si02
#       6
#    16  16  16  16  16  16
#     4  10  19  33  54  79 107 136 168 210 259 307
#     4   8  16  30  49  75 104 133 167 209 255 302
#     4  10  22  38  53  74 107 142 174 213 261 307
#     4  10  21  37  55  75 101 134 173 214 256 306
#     4  10  19  33  55  80 104 135 176 216 255 303
#     4  10  20  35  56  79 103 132 169 213 257 305
#
# _framework density 18.317881
#
# number of rings (size 3 to 8) (size 9 to 14) (size 15 to 20)
#    0.000    2.333    0.000    3.000    0.000    6.000 
#    0.000    2.500    0.000    5.000    0.000    0.000 
#    0.000    0.000    0.000    0.000    0.000    0.000 
#
# Total GULP energy -594824.381601 kJ/mol
# GULP energy per Si atom -12392.174617 kJ/mol
# Density = 1.827619 g / cm^3
# Si number density = 18.317881 Si / 1000 Ang^3
#
#
#
# Elastic Constant Matrix: (Units=GPa)
#
#
# Indices 1 2 3 4 5 6 
#
# 1 104.6638 50.1214 82.3611 0.0000 0.0000 0.0000
# 2 50.1214 78.0861 77.4733 0.0000 0.0000 0.0000
# 3 82.3611 77.4733 174.3775 0.0000 0.0000 0.0000
# 4 0.0000 0.0000 0.0000 -12.5564 0.0000 0.0000
# 5 0.0000 0.0000 0.0000 0.0000 32.0205 0.0000
# 6 0.0000 0.0000 0.0000 0.0000 0.0000 26.0274
#
#
#
# Elastic Compliance Matrix: (Units=1/GPa)
#
#
# Indices 1 2 3 4 5 6 
#
# 1 0.016241 -0.005032 -0.005435 0.000000 0.000000 0.000000
# 2 -0.005032 0.024460 -0.008491 0.000000 0.000000 0.000000
# 3 -0.005435 -0.008491 0.012074 0.000000 0.000000 0.000000
# 4 0.000000 0.000000 0.000000 -0.079641 0.000000 0.000000
# 5 0.000000 0.000000 0.000000 0.000000 0.031230 0.000000
# 6 0.000000 0.000000 0.000000 0.000000 0.000000 0.038421
#
#
# Mechanical properties :
#
#
# Convention : Reuss Voigt Hill
#
# Bulk Modulus (GPa) = 67.29656 86.33765 76.81710
# Shear Modulus (GPa) = 58.37345 18.90974 38.64160
#
# Velocity S-wave (km/s) = 5.65120 3.21644 4.59791
# Velocity P-wave (km/s) = 8.91063 7.81213 8.37940
#
# Compressibility (1/GPa) = 0.01485960
#
# Stress axis : x y z
#
# Youngs Moduli (GPa) = 61.57133 40.88239 82.82207
#
# Poissons Ratio (x) = 0.20573 0.45016
# Poissons Ratio (y) = 0.30984 0.70321
# Poissons Ratio (z) = 0.33466 0.34712
#
# Static dielectric constant tensor:
#      x y z
#    x 3.541140 0.000000 0.000000 
#    y 0.000000 3.061000 0.000000 
#    z 0.000000 0.000000 4.085540 
# 
# 
# High freq. dielectric constant tensor:
#      x y z
#    x 1.724240 0.000000 0.000000 
#    y 0.000000 1.676640 0.000000 
#    z 0.000000 0.000000 1.735970 
# 
# From -- ./inp_files/43422.got.cif
#   From: 2010.03.12/outbox.cif.g09.slc.cpg/sg67_22_cif.got.tgz:43422.got - 2010.04.10 22:41:39.
