data_PCOD8279696
_publ_section_title
;
Structure prediction by ZEFSAII (Michael W. Deem and Ramdas Pophale) SiO2 
 PCOD8279696
Probable space group: C M M A
;
_chemical_formula_sum "Si O2"
_cell_formula_units_Z 112
_cell_length_a 14.267028
_cell_length_b 16.071942
_cell_length_c 24.924735
_cell_angle_alpha 90.000000
_cell_angle_beta 90.000000
_cell_angle_gamma 90.000000
_cell_volume 5715.212986
_symmetry_space_group_name_H-M "C M M A"
_symmetry_group_IT_number 67
_symmetry_cell_setting 'orthorhombic'
loop_
_space_group_symop_operation_xyz
x,y,z
-x,1/2-y,z
x,-y,-z
-x,1/2+y,-z
-x,-y,-z
x,1/2+y,-z
-x,y,z
x,1/2-y,z
1/2+x,1/2+y,z
1/2-x,-y,z
1/2+x,1/2-y,-z
1/2-x,y,-z
1/2-x,1/2-y,-z
1/2+x,y,-z
1/2-x,1/2+y,z
1/2+x,-y,z
loop_
_atom_site_type_symbol
_atom_site_label
_atom_site_fract_x
_atom_site_fract_y
_atom_site_fract_z
Si Si1 0.106848 0.960120 0.055116
Si Si2 0.393491 0.405194 0.516783
Si Si3 0.400057 0.093367 0.852532
Si Si4 0.847311 0.038829 0.774033
Si Si5 0.295617 0.843646 0.869258
Si Si6 0.727110 0.155036 0.421441
Si Si7 0.395471 0.154763 0.322017
O O1 0.174427 0.884458 0.073755
O O2 0.000000 0.927418 0.048531
O O3 0.114279 0.030835 0.098999
O O4 0.144348 0.000000 0.000000
O O5 0.394692 0.500000 0.500000
O O6 0.500000 0.375057 0.529932
O O7 0.349114 0.351588 0.468910
O O8 0.323474 0.396153 0.567904
O O9 0.500000 0.140626 0.856937
O O10 0.316011 0.158602 0.857976
O O11 0.403515 0.040811 0.796791
O O12 0.842300 0.105183 0.821697
O O13 0.895126 0.087785 0.725592
O O14 0.750000 0.000000 0.754415
O O15 0.333429 0.750000 0.868590
O O16 0.757597 0.250000 0.416094
O O17 0.678735 0.124503 0.366589
O O18 0.500000 0.152995 0.346957
O O19 0.372434 0.250000 0.302951
#
# Coordination Sequence:
#
# PCOD8279696 Si02
#       7
#    16  16  16  16  16  16  16
#     4   9  18  34  54  73  99 135 170 209 256 305
#     4  10  20  34  53  75 100 134 176 218 257 305
#     4   9  18  33  52  74 101 137 177 208 246 307
#     4   9  18  33  54  76 101 137 176 216 263 315
#     4  10  20  33  52  79 107 135 172 218 264 312
#     4  10  20  33  51  75 104 136 169 211 264 320
#     4  10  20  33  51  77 107 135 167 216 273 319
#
# _framework density 19.596819
#
# number of rings (size 3 to 8) (size 9 to 14) (size 15 to 20)
#    0.000    2.429    0.000    4.286    0.000    5.143 
#    0.000    1.429    0.000    6.000    0.000    4.000 
#    0.000    0.000    0.000    0.000    0.000    0.000 
#
# Total GULP energy -693914.522517 kJ/mol
# GULP energy per Si atom -12391.330759 kJ/mol
# Density = 1.955222 g / cm^3
# Si number density = 19.596819 Si / 1000 Ang^3
#
#
#
# Elastic Constant Matrix: (Units=GPa)
#
#
# Indices 1 2 3 4 5 6 
#
# 1 118.1285 28.6307 38.9328 0.0000 0.0000 0.0000
# 2 28.6307 62.2393 23.6400 0.0000 0.0000 0.0000
# 3 38.9328 23.6400 93.2387 0.0000 0.0000 0.0000
# 4 0.0000 0.0000 0.0000 23.0688 0.0000 0.0000
# 5 0.0000 0.0000 0.0000 0.0000 21.5471 0.0000
# 6 0.0000 0.0000 0.0000 0.0000 0.0000 20.5669
#
#
#
# Elastic Compliance Matrix: (Units=1/GPa)
#
#
# Indices 1 2 3 4 5 6 
#
# 1 0.010459 -0.003488 -0.003483 0.000000 0.000000 0.000000
# 2 -0.003488 0.018943 -0.003346 0.000000 0.000000 0.000000
# 3 -0.003483 -0.003346 0.013028 0.000000 0.000000 0.000000
# 4 0.000000 0.000000 0.000000 0.043349 0.000000 0.000000
# 5 0.000000 0.000000 0.000000 0.000000 0.046410 0.000000
# 6 0.000000 0.000000 0.000000 0.000000 0.000000 0.048622
#
#
# Mechanical properties :
#
#
# Convention : Reuss Voigt Hill
#
# Bulk Modulus (GPa) = 45.88261 50.66816 48.27538
# Shear Modulus (GPa) = 23.95686 25.19678 24.57682
#
# Velocity S-wave (km/s) = 3.50020 3.58964 3.54520
# Velocity P-wave (km/s) = 6.30867 6.56446 6.43783
#
# Compressibility (1/GPa) = 0.02179475
#
# Stress axis : x y z
#
# Youngs Moduli (GPa) = 95.61484 52.79100 76.75888
#
# Poissons Ratio (x) = 0.18415 0.26733
# Poissons Ratio (y) = 0.33353 0.25685
# Poissons Ratio (z) = 0.33300 0.17665
#
# Static dielectric constant tensor:
#      x y z
#    x 3.871670 0.000000 0.000000 
#    y 0.000000 3.352560 0.000000 
#    z 0.000000 0.000000 3.486020 
# 
# 
# High freq. dielectric constant tensor:
#      x y z
#    x 1.772810 0.000000 0.000000 
#    y 0.000000 1.745790 0.000000 
#    z 0.000000 0.000000 1.745000 
# 
# From -- ./inp_files/41943.got.cif
#   From: 2010.03.12/outbox.cif.g09.slc.cpg/sg67_21_cif.got.tgz:41943.got - 2010.04.10 22:41:39.
