data_PCOD8279363
_publ_section_title
;
Structure prediction by ZEFSAII (Michael W. Deem and Ramdas Pophale) SiO2 
 PCOD8279363
Probable space group: C M M A
;
_chemical_formula_sum "Si O2"
_cell_formula_units_Z 80
_cell_length_a 23.881056
_cell_length_b 8.727471
_cell_length_c 20.349619
_cell_angle_alpha 90.000000
_cell_angle_beta 90.000000
_cell_angle_gamma 90.000000
_cell_volume 4241.292494
_symmetry_space_group_name_H-M "C M M A"
_symmetry_group_IT_number 67
_symmetry_cell_setting 'orthorhombic'
loop_
_space_group_symop_operation_xyz
x,y,z
-x,1/2-y,z
x,-y,-z
-x,1/2+y,-z
-x,-y,-z
x,1/2+y,-z
-x,y,z
x,1/2-y,z
1/2+x,1/2+y,z
1/2-x,-y,z
1/2+x,1/2-y,-z
1/2-x,y,-z
1/2-x,1/2-y,-z
1/2+x,y,-z
1/2-x,1/2+y,z
1/2+x,-y,z
loop_
_atom_site_type_symbol
_atom_site_label
_atom_site_fract_x
_atom_site_fract_y
_atom_site_fract_z
Si Si1 0.808732 0.068776 0.429546
Si Si2 0.880584 0.569273 0.318141
Si Si3 0.500000 0.567453 0.876978
Si Si4 0.617305 0.068212 0.068773
Si Si5 0.500000 0.569062 0.729890
Si Si6 0.310737 0.069519 0.190872
O O1 0.802916 0.250000 0.435244
O O2 0.824541 0.000000 0.500000
O O3 0.750000 0.000000 0.403885
O O4 0.857475 0.024347 0.379607
O O5 0.874759 0.750000 0.331344
O O6 0.945003 0.517529 0.309799
O O7 0.847546 0.519212 0.252991
O O8 0.500000 0.750000 0.873331
O O9 0.445143 0.507702 0.915034
O O10 0.500000 0.498420 0.803252
O O11 0.618183 0.250000 0.065171
O O12 0.659368 0.008059 0.124986
O O13 0.637956 0.000000 0.000000
O O14 0.500000 0.750000 0.738494
O O15 0.305254 0.250000 0.187954
O O16 0.250000 0.000000 0.197985
#
# Coordination Sequence:
#
# PCOD8279363 Si02
#       6
#    16  16   8  16   8  16
#     4  11  22  38  60  87 118 151 186 226 270 320
#     4  10  19  35  59  86 112 144 185 228 275 327
#     4   9  15  31  56  79 103 135 178 224 272 326
#     4  10  20  34  53  77 104 137 178 225 275 329
#     4   9  16  31  59  85 108 143 185 226 271 330
#     4  10  21  35  53  76 105 141 182 225 273 329
#
# _framework density 18.862175000000001
#
# number of rings (size 3 to 8) (size 9 to 14) (size 15 to 20)
#    0.000    2.000    2.000    3.300    0.000    3.600 
#    0.000    3.000    0.000    1.200    0.000    0.000 
#    0.000    0.000    0.000    0.000    0.000    0.000 
#
# Total GULP energy -496075.758989 kJ/mol
# GULP energy per Si atom -12401.893975 kJ/mol
# Density = 1.881924 g / cm^3
# Si number density = 18.862175 Si / 1000 Ang^3
#
#
#
# Elastic Constant Matrix: (Units=GPa)
#
#
# Indices 1 2 3 4 5 6 
#
# 1 157.0008 37.1525 75.6163 0.0000 0.0000 0.0000
# 2 37.1525 56.0585 41.8884 0.0000 0.0000 0.0000
# 3 75.6163 41.8884 133.4397 0.0000 0.0000 0.0000
# 4 0.0000 0.0000 0.0000 28.4112 0.0000 0.0000
# 5 0.0000 0.0000 0.0000 0.0000 36.1489 0.0000
# 6 0.0000 0.0000 0.0000 0.0000 0.0000 23.7400
#
#
#
# Elastic Compliance Matrix: (Units=1/GPa)
#
#
# Indices 1 2 3 4 5 6 
#
# 1 0.009094 -0.002843 -0.004261 0.000000 0.000000 0.000000
# 2 -0.002843 0.024194 -0.005984 0.000000 0.000000 0.000000
# 3 -0.004261 -0.005984 0.011787 0.000000 0.000000 0.000000
# 4 0.000000 0.000000 0.000000 0.035197 0.000000 0.000000
# 5 0.000000 0.000000 0.000000 0.000000 0.027663 0.000000
# 6 0.000000 0.000000 0.000000 0.000000 0.000000 0.042123
#
#
# Mechanical properties :
#
#
# Convention : Reuss Voigt Hill
#
# Bulk Modulus (GPa) = 52.91133 72.86816 62.88975
# Shear Modulus (GPa) = 27.39201 30.44945 28.92073
#
# Velocity S-wave (km/s) = 3.81493 4.02221 3.91994
# Velocity P-wave (km/s) = 6.89329 7.76445 7.34180
#
# Compressibility (1/GPa) = 0.01889954
#
# Stress axis : x y z
#
# Youngs Moduli (GPa) = 109.95686 41.33252 84.83987
#
# Poissons Ratio (x) = 0.11752 0.36150
# Poissons Ratio (y) = 0.31265 0.50764
# Poissons Ratio (z) = 0.46853 0.24732
#
# Static dielectric constant tensor:
#      x y z
#    x 3.544810 0.000000 0.000000 
#    y 0.000000 3.129580 0.000000 
#    z 0.000000 0.000000 3.537240 
# 
# 
# High freq. dielectric constant tensor:
#      x y z
#    x 1.738700 0.000000 0.000000 
#    y 0.000000 1.704800 0.000000 
#    z 0.000000 0.000000 1.740200 
# 
# From -- ./inp_files/39508.got.cif
#   From: 2010.03.12/outbox.cif.g09.slc.cpg/sg67_20_cif.got.tgz:39508.got - 2010.04.10 22:41:39.
