data_PCOD8279778
_publ_section_title
;
Structure prediction by ZEFSAII (Michael W. Deem and Ramdas Pophale) SiO2 
 PCOD8279778
Probable space group: C M M A
;
_chemical_formula_sum "Si O2"
_cell_formula_units_Z 104
_cell_length_a 9.173408
_cell_length_b 30.108580
_cell_length_c 23.052358
_cell_angle_alpha 90.000000
_cell_angle_beta 90.000000
_cell_angle_gamma 90.000000
_cell_volume 6367.021829
_symmetry_space_group_name_H-M "C M M A"
_symmetry_group_IT_number 67
_symmetry_cell_setting 'orthorhombic'
loop_
_space_group_symop_operation_xyz
x,y,z
-x,1/2-y,z
x,-y,-z
-x,1/2+y,-z
-x,-y,-z
x,1/2+y,-z
-x,y,z
x,1/2-y,z
1/2+x,1/2+y,z
1/2-x,-y,z
1/2+x,1/2-y,-z
1/2-x,y,-z
1/2-x,1/2-y,-z
1/2+x,y,-z
1/2-x,1/2+y,z
1/2+x,-y,z
loop_
_atom_site_type_symbol
_atom_site_label
_atom_site_fract_x
_atom_site_fract_y
_atom_site_fract_z
Si Si1 0.329783 0.842560 0.110312
Si Si2 0.162811 0.750000 0.942682
Si Si3 0.326288 0.578969 0.942838
Si Si4 0.326840 0.301198 0.682306
Si Si5 0.667067 0.042899 0.182381
Si Si6 0.171290 0.362483 0.773344
Si Si7 0.841261 0.802086 0.552359
O O1 0.500000 0.856335 0.110029
O O2 0.301944 0.791978 0.095966
O O3 0.241012 0.871914 0.063902
O O4 0.262966 0.844936 0.173458
O O5 0.000000 0.750000 0.964902
O O6 0.250000 0.750000 0.000000
O O7 0.500000 0.581286 0.951358
O O8 0.282148 0.553267 0.883850
O O9 0.250000 0.557012 0.000000
O O10 0.500000 0.308958 0.689477
O O11 0.289857 0.250000 0.700233
O O12 0.235595 0.337660 0.717596
O O13 0.274785 0.309993 0.616222
O O14 0.500000 0.029874 0.180726
O O15 0.694454 0.083962 0.226552
O O16 0.750000 0.000000 0.206591
O O17 0.000000 0.351570 0.780260
O O18 0.855671 0.750000 0.541205
O O19 0.750000 0.824247 0.500000
O O20 0.000000 0.824411 0.549642
#
# Coordination Sequence:
#
# PCOD8279778 Si02
#       7
#    16   8  16  16  16  16  16
#     4  10  20  34  49  65  87 119 152 190 235 279
#     4  10  22  34  46  64  84 110 149 190 227 270
#     4  10  20  34  50  71  94 115 143 183 228 285
#     4   9  18  31  47  69  99 135 171 203 232 272
#     4   9  20  36  52  70  93 117 149 190 236 289
#     4  10  21  35  49  71  97 122 155 197 238 280
#     4   8  14  25  41  63  93 129 167 203 236 267
#
# _framework density 16.334166
#
# number of rings (size 3 to 8) (size 9 to 14) (size 15 to 20)
#    0.000    2.615    0.000    3.692    1.077    7.385 
#    0.000    3.077    0.000    0.000    0.000    0.000 
#    0.000    0.615    0.000    6.769    0.000    5.231 
#
# Total GULP energy -644382.601763 kJ/mol
# GULP energy per Si atom -12391.973111 kJ/mol
# Density = 1.629699 g / cm^3
# Si number density = 16.334166 Si / 1000 Ang^3
#
#
#
# Elastic Constant Matrix: (Units=GPa)
#
#
# Indices 1 2 3 4 5 6 
#
# 1 63.5850 38.6750 29.4872 0.0000 0.0000 0.0000
# 2 38.6750 81.8596 27.9430 0.0000 0.0000 0.0000
# 3 29.4872 27.9430 77.0823 0.0000 0.0000 0.0000
# 4 0.0000 0.0000 0.0000 11.8200 0.0000 0.0000
# 5 0.0000 0.0000 0.0000 0.0000 30.0783 0.0000
# 6 0.0000 0.0000 0.0000 0.0000 0.0000 25.3696
#
#
#
# Elastic Compliance Matrix: (Units=1/GPa)
#
#
# Indices 1 2 3 4 5 6 
#
# 1 0.024163 -0.009427 -0.005826 0.000000 0.000000 0.000000
# 2 -0.009427 0.017619 -0.002781 0.000000 0.000000 0.000000
# 3 -0.005826 -0.002781 0.016210 0.000000 0.000000 0.000000
# 4 0.000000 0.000000 0.000000 0.084602 0.000000 0.000000
# 5 0.000000 0.000000 0.000000 0.000000 0.033247 0.000000
# 6 0.000000 0.000000 0.000000 0.000000 0.000000 0.039417
#
#
# Mechanical properties :
#
#
# Convention : Reuss Voigt Hill
#
# Bulk Modulus (GPa) = 45.61184 46.08192 45.84688
# Shear Modulus (GPa) = 19.33239 21.88170 20.60705
#
# Velocity S-wave (km/s) = 3.44402 3.66406 3.55574
# Velocity P-wave (km/s) = 6.61814 6.79512 6.70722
#
# Compressibility (1/GPa) = 0.02192413
#
# Stress axis : x y z
#
# Youngs Moduli (GPa) = 41.38618 56.75635 61.69092
#
# Poissons Ratio (x) = 0.53505 0.35940
# Poissons Ratio (y) = 0.39015 0.17155
# Poissons Ratio (z) = 0.24111 0.15783
#
# Static dielectric constant tensor:
#      x y z
#    x 3.261020 0.000000 0.000000 
#    y 0.000000 3.109030 0.000000 
#    z 0.000000 0.000000 3.040860 
# 
# 
# High freq. dielectric constant tensor:
#      x y z
#    x 1.638470 0.000000 0.000000 
#    y 0.000000 1.603280 0.000000 
#    z 0.000000 0.000000 1.613900 
# 
# From -- ./inp_files/41142.got.cif
#   From: 2010.03.12/outbox.cif.g09.slc.cpg/sg67_21_cif.got.tgz:41142.got - 2010.04.10 22:41:39.
