data_PCOD8279311
_publ_section_title
;
Structure prediction by ZEFSAII (Michael W. Deem and Ramdas Pophale) SiO2 
 PCOD8279311
Probable space group: C M M A
;
_chemical_formula_sum "Si O2"
_cell_formula_units_Z 80
_cell_length_a 14.059191
_cell_length_b 26.108682
_cell_length_c 10.352589
_cell_angle_alpha 90.000000
_cell_angle_beta 90.000000
_cell_angle_gamma 90.000000
_cell_volume 3800.093238
_symmetry_space_group_name_H-M "C M M A"
_symmetry_group_IT_number 67
_symmetry_cell_setting 'orthorhombic'
loop_
_space_group_symop_operation_xyz
x,y,z
-x,1/2-y,z
x,-y,-z
-x,1/2+y,-z
-x,-y,-z
x,1/2+y,-z
-x,y,z
x,1/2-y,z
1/2+x,1/2+y,z
1/2-x,-y,z
1/2+x,1/2-y,-z
1/2-x,y,-z
1/2-x,1/2-y,-z
1/2+x,y,-z
1/2-x,1/2+y,z
1/2+x,-y,z
loop_
_atom_site_type_symbol
_atom_site_label
_atom_site_fract_x
_atom_site_fract_y
_atom_site_fract_z
Si Si1 0.500000 0.811617 0.087520
Si Si2 0.295491 0.652688 0.138404
Si Si3 0.745554 0.441668 0.708678
Si Si4 0.500000 0.689565 0.799812
Si Si5 0.385312 0.598595 0.509627
Si Si6 0.176057 0.691755 0.360081
O O1 0.500000 0.750000 0.100336
O O2 0.592603 0.837096 0.148468
O O3 0.500000 0.832196 0.942110
O O4 0.268581 0.593389 0.164137
O O5 0.262852 0.686417 0.261303
O O6 0.250000 0.670323 0.000000
O O7 0.750000 0.500000 0.754948
O O8 0.655575 0.430971 0.614525
O O9 0.845741 0.429734 0.637749
O O10 0.500000 0.750000 0.803920
O O11 0.409574 0.669449 0.725018
O O12 0.500000 0.599467 0.505547
O O13 0.334794 0.655768 0.512259
O O14 0.167567 0.750000 0.409855
#
# Coordination Sequence:
#
# PCOD8279311 Si02
#       6
#     8  16  16   8  16  16
#     4  11  22  36  59  93 129 167 206 243 297 365
#     4  11  23  39  62  89 126 162 205 255 299 362
#     4  10  24  43  61  85 117 158 205 260 320 363
#     4   9  16  28  53  84 118 163 206 231 281 360
#     4  10  20  37  64  90 117 154 207 256 305 370
#     4  10  19  34  58  90 126 166 201 240 298 367
#
# _framework density 21.052114
#
# number of rings (size 3 to 8) (size 9 to 14) (size 15 to 20)
#    0.000    1.800    3.000    1.800    1.400    2.800 
#    0.000    9.000    0.000    1.200    0.000    0.000 
#    0.000    0.000    0.000    0.000    0.000    0.000 
#
# Total GULP energy -495568.534222 kJ/mol
# GULP energy per Si atom -12389.213356 kJ/mol
# Density = 2.100420 g / cm^3
# Si number density = 21.052114 Si / 1000 Ang^3
#
#
#
# Elastic Constant Matrix: (Units=GPa)
#
#
# Indices 1 2 3 4 5 6 
#
# 1 157.5350 13.0243 33.2935 0.0000 0.0000 0.0000
# 2 13.0243 129.7785 4.4161 0.0000 0.0000 0.0000
# 3 33.2935 4.4161 71.4916 0.0000 0.0000 0.0000
# 4 0.0000 0.0000 0.0000 21.0810 0.0000 0.0000
# 5 0.0000 0.0000 0.0000 0.0000 22.2375 0.0000
# 6 0.0000 0.0000 0.0000 0.0000 0.0000 24.6560
#
#
#
# Elastic Compliance Matrix: (Units=1/GPa)
#
#
# Indices 1 2 3 4 5 6 
#
# 1 0.007087 -0.000600 -0.003263 0.000000 0.000000 0.000000
# 2 -0.000600 0.007772 -0.000201 0.000000 0.000000 0.000000
# 3 -0.003263 -0.000201 0.015520 0.000000 0.000000 0.000000
# 4 0.000000 0.000000 0.000000 0.047436 0.000000 0.000000
# 5 0.000000 0.000000 0.000000 0.000000 0.044969 0.000000
# 6 0.000000 0.000000 0.000000 0.000000 0.000000 0.040558
#
#
# Mechanical properties :
#
#
# Convention : Reuss Voigt Hill
#
# Bulk Modulus (GPa) = 44.94170 51.14142 48.04156
# Shear Modulus (GPa) = 27.95045 34.13298 31.04172
#
# Velocity S-wave (km/s) = 3.64769 4.03098 3.84411
# Velocity P-wave (km/s) = 6.25580 6.78311 6.52478
#
# Compressibility (1/GPa) = 0.02225105
#
# Stress axis : x y z
#
# Youngs Moduli (GPa) = 141.10142 128.65879 64.43382
#
# Poissons Ratio (x) = 0.07722 0.21027
# Poissons Ratio (y) = 0.08469 0.01293
# Poissons Ratio (z) = 0.46047 0.02581
#
# Static dielectric constant tensor:
#      x y z
#    x 3.839570 0.000000 0.000000 
#    y 0.000000 3.722610 0.000000 
#    z 0.000000 0.000000 3.784220 
# 
# 
# High freq. dielectric constant tensor:
#      x y z
#    x 1.839050 0.000000 0.000000 
#    y 0.000000 1.811080 0.000000 
#    z 0.000000 0.000000 1.815070 
# 
# From -- ./inp_files/18284.got.cif
#   From: 2010.03.12/outbox.cif.g09.slc.cpg/sg67_10_cif.got.tgz:18284.got - 2010.04.10 22:41:39.
