data_PCOD8279799
_publ_section_title
;
Structure prediction by ZEFSAII (Michael W. Deem and Ramdas Pophale) SiO2 
 PCOD8279799
Probable space group: C M M A
;
_chemical_formula_sum "Si O2"
_cell_formula_units_Z 80
_cell_length_a 8.784869
_cell_length_b 19.599606
_cell_length_c 25.634442
_cell_angle_alpha 90.000000
_cell_angle_beta 90.000000
_cell_angle_gamma 90.000000
_cell_volume 4413.737484
_symmetry_space_group_name_H-M "C M M A"
_symmetry_group_IT_number 67
_symmetry_cell_setting 'orthorhombic'
loop_
_space_group_symop_operation_xyz
x,y,z
-x,1/2-y,z
x,-y,-z
-x,1/2+y,-z
-x,-y,-z
x,1/2+y,-z
-x,y,z
x,1/2-y,z
1/2+x,1/2+y,z
1/2-x,-y,z
1/2+x,1/2-y,-z
1/2-x,y,-z
1/2-x,1/2-y,-z
1/2+x,y,-z
1/2-x,1/2+y,z
1/2+x,-y,z
loop_
_atom_site_type_symbol
_atom_site_label
_atom_site_fract_x
_atom_site_fract_y
_atom_site_fract_z
Si Si1 0.168265 0.668996 0.752038
Si Si2 0.679042 0.826416 0.855429
Si Si3 0.318115 0.426912 0.054742
Si Si4 0.321672 0.170525 0.636618
Si Si5 0.179789 0.428440 0.555255
O O1 0.163420 0.750000 0.751172
O O2 0.273884 0.642596 0.799170
O O3 0.226270 0.645602 0.694943
O O4 0.000000 0.639525 0.762204
O O5 0.500000 0.823745 0.857358
O O6 0.746680 0.750000 0.863070
O O7 0.740155 0.874178 0.901588
O O8 0.500000 0.431509 0.051122
O O9 0.250000 0.500000 0.069676
O O10 0.250000 0.401212 0.000000
O O11 0.500000 0.156106 0.627201
O O12 0.285441 0.250000 0.628666
O O13 0.218426 0.129476 0.596687
O O14 0.250000 0.500000 0.574249
O O15 0.250000 0.406499 0.500000
O O16 0.000000 0.436237 0.549418
#
# Coordination Sequence:
#
# PCOD8279799 Si02
#       5
#    16  16  16  16  16
#     4   8  15  29  50  75 102 132 163 198 244 293
#     4   9  18  32  50  73 100 128 161 202 244 288
#     4  10  20  34  51  70  95 128 163 200 245 293
#     4   9  18  34  55  79 107 136 169 210 252 297
#     4  11  22  37  56  76 102 136 173 211 256 306
#
# _framework density 18.125229000000001
#
# number of rings (size 3 to 8) (size 9 to 14) (size 15 to 20)
#    0.000    2.600    0.000    4.800    0.000    3.600 
#    0.000    3.000    0.000    2.400    0.000    0.000 
#    0.000    0.000    0.000    0.000    0.000    0.000 
#
# Total GULP energy -495863.845157 kJ/mol
# GULP energy per Si atom -12396.596129 kJ/mol
# Density = 1.808398 g / cm^3
# Si number density = 18.125229 Si / 1000 Ang^3
#
#
#
# Elastic Constant Matrix: (Units=GPa)
#
#
# Indices 1 2 3 4 5 6 
#
# 1 79.0733 36.4450 50.9723 0.0000 0.0000 0.0000
# 2 36.4450 69.6104 72.9821 0.0000 0.0000 0.0000
# 3 50.9723 72.9821 149.1794 0.0000 0.0000 0.0000
# 4 0.0000 0.0000 0.0000 -26.2845 0.0000 0.0000
# 5 0.0000 0.0000 0.0000 0.0000 34.4368 0.0000
# 6 0.0000 0.0000 0.0000 0.0000 0.0000 23.0617
#
#
#
# Elastic Compliance Matrix: (Units=1/GPa)
#
#
# Indices 1 2 3 4 5 6 
#
# 1 0.017316 -0.005877 -0.003041 0.000000 0.000000 0.000000
# 2 -0.005877 0.031488 -0.013397 0.000000 0.000000 0.000000
# 3 -0.003041 -0.013397 0.014296 0.000000 0.000000 0.000000
# 4 0.000000 0.000000 0.000000 -0.038045 0.000000 0.000000
# 5 0.000000 0.000000 0.000000 0.000000 0.029039 0.000000
# 6 0.000000 0.000000 0.000000 0.000000 0.000000 0.043362
#
#
# Mechanical properties :
#
#
# Convention : Reuss Voigt Hill
#
# Bulk Modulus (GPa) = 54.14121 68.74023 61.44072
# Shear Modulus (GPa) = 33.72840 15.40704 24.56772
#
# Velocity S-wave (km/s) = 4.31844 2.91869 3.68563
# Velocity P-wave (km/s) = 7.40275 7.02608 7.21688
#
# Compressibility (1/GPa) = 0.01847022
#
# Stress axis : x y z
#
# Youngs Moduli (GPa) = 57.75083 31.75782 69.94749
#
# Poissons Ratio (x) = 0.18665 0.21273
# Poissons Ratio (y) = 0.33942 0.93706
# Poissons Ratio (z) = 0.17563 0.42545
#
# Static dielectric constant tensor:
#      x y z
#    x 3.324250 0.000000 0.000000 
#    y 0.000000 3.250040 0.000000 
#    z 0.000000 0.000000 3.626150 
# 
# 
# High freq. dielectric constant tensor:
#      x y z
#    x 1.700100 0.000000 0.000000 
#    y 0.000000 1.676800 0.000000 
#    z 0.000000 0.000000 1.715470 
# 
# From -- ./inp_files/43286.got.cif
#   From: 2010.03.12/outbox.cif.g09.slc.cpg/sg67_22_cif.got.tgz:43286.got - 2010.04.10 22:41:39.
