data_PCOD8279440
_publ_section_title
;
Structure prediction by ZEFSAII (Michael W. Deem and Ramdas Pophale) SiO2 
 PCOD8279440
Probable space group: C M M A
;
_chemical_formula_sum "Si O2"
_cell_formula_units_Z 112
_cell_length_a 18.922051
_cell_length_b 24.830509
_cell_length_c 14.942678
_cell_angle_alpha 90.000000
_cell_angle_beta 90.000000
_cell_angle_gamma 90.000000
_cell_volume 7020.729958
_symmetry_space_group_name_H-M "C M M A"
_symmetry_group_IT_number 67
_symmetry_cell_setting 'orthorhombic'
loop_
_space_group_symop_operation_xyz
x,y,z
-x,1/2-y,z
x,-y,-z
-x,1/2+y,-z
-x,-y,-z
x,1/2+y,-z
-x,y,z
x,1/2-y,z
1/2+x,1/2+y,z
1/2-x,-y,z
1/2+x,1/2-y,-z
1/2-x,y,-z
1/2-x,1/2-y,-z
1/2+x,y,-z
1/2-x,1/2+y,z
1/2+x,-y,z
loop_
_atom_site_type_symbol
_atom_site_label
_atom_site_fract_x
_atom_site_fract_y
_atom_site_fract_z
Si Si1 0.668811 0.063734 0.264550
Si Si2 0.916620 0.750000 0.597476
Si Si3 0.583380 0.250000 0.402524
Si Si4 0.920717 0.563976 0.901154
Si Si5 0.079283 0.436024 0.901154
Si Si6 0.081002 0.866440 0.606539
Si Si7 0.831189 0.063734 0.264550
Si Si8 0.418998 0.633560 0.606539
O O1 0.632602 0.086264 0.173833
O O2 0.750000 0.081324 0.262197
O O3 0.631578 0.089389 0.350430
O O4 0.660168 1.000000 0.273071
O O5 0.880135 0.750000 0.500000
O O6 0.896427 0.693238 0.645005
O O7 0.000000 0.750000 0.583509
O O8 0.500000 0.250000 0.416491
O O9 0.603573 0.193238 0.354995
O O10 0.919401 0.500000 0.900565
O O11 0.867398 0.586264 0.826167
O O12 0.000000 0.584414 0.879533
O O13 0.897357 0.584598 0.000000
O O14 0.000000 0.415586 0.879533
O O15 0.131578 0.910611 0.649570
O O16 0.090728 0.868116 0.500000
O O17 0.000000 0.879629 0.632194
O O18 0.500000 0.620371 0.632194
#
# Coordination Sequence:
#
# PCOD8279440 Si02
#       8
#    16   8   8  16  16  16  16  16
#     4  10  20  30  40  60  92 124 148 172 207 254
#     4   7  12  26  47  67  82  99 134 185 229 256
#     4   7  12  26  47  67  82  99 134 185 229 256
#     4   8  14  26  44  63  82 107 142 182 217 249
#     4   8  14  26  44  63  82 107 142 182 217 249
#     4   9  17  30  48  66  84 110 145 183 219 255
#     4  10  20  30  40  60  92 124 148 172 207 254
#     4   9  17  30  48  66  84 110 145 183 219 255
#
# _framework density 15.952757
#
# number of rings (size 3 to 8) (size 9 to 14) (size 15 to 20)
#    0.000    3.286    0.000    3.429    0.000    3.429 
#    0.000    6.429    0.000    2.571    0.000    1.000 
#    0.000    8.000    0.000    0.000    0.000    0.000 
#
# Total GULP energy -693751.556032 kJ/mol
# GULP energy per Si atom -12388.420643 kJ/mol
# Density = 1.591645 g / cm^3
# Si number density = 15.952757 Si / 1000 Ang^3
#
#
#
# Elastic Constant Matrix: (Units=GPa)
#
#
# Indices 1 2 3 4 5 6 
#
# 1 105.4213 39.5691 56.9350 0.0000 0.0000 0.0000
# 2 39.5691 39.4694 31.7943 0.0000 0.0000 0.0000
# 3 56.9350 31.7943 76.3487 0.0000 0.0000 0.0000
# 4 0.0000 0.0000 0.0000 2.3315 0.0000 0.0000
# 5 0.0000 0.0000 0.0000 0.0000 14.7576 0.0000
# 6 0.0000 0.0000 0.0000 0.0000 0.0000 13.2737
#
#
#
# Elastic Compliance Matrix: (Units=1/GPa)
#
#
# Indices 1 2 3 4 5 6 
#
# 1 0.018736 -0.011328 -0.009254 0.000000 0.000000 0.000000
# 2 -0.011328 0.044975 -0.010281 0.000000 0.000000 0.000000
# 3 -0.009254 -0.010281 0.024280 0.000000 0.000000 0.000000
# 4 0.000000 0.000000 0.000000 0.428910 0.000000 0.000000
# 5 0.000000 0.000000 0.000000 0.000000 0.067762 0.000000
# 6 0.000000 0.000000 0.000000 0.000000 0.000000 0.075337
#
#
# Mechanical properties :
#
#
# Convention : Reuss Voigt Hill
#
# Bulk Modulus (GPa) = 38.07580 53.09292 45.58436
# Shear Modulus (GPa) = 6.84480 12.26862 9.55671
#
# Velocity S-wave (km/s) = 2.07364 2.77620 2.45023
# Velocity P-wave (km/s) = 5.44545 6.60530 6.05322
#
# Compressibility (1/GPa) = 0.02626340
#
# Stress axis : x y z
#
# Youngs Moduli (GPa) = 53.37426 22.23445 41.18566
#
# Poissons Ratio (x) = 0.25188 0.38113
# Poissons Ratio (y) = 0.60465 0.42345
# Poissons Ratio (z) = 0.49393 0.22860
#
# Static dielectric constant tensor:
#      x y z
#    x 2.981790 0.000000 0.000000 
#    y 0.000000 2.965270 0.000000 
#    z 0.000000 0.000000 3.051270 
# 
# 
# High freq. dielectric constant tensor:
#      x y z
#    x 1.601630 0.000000 0.000000 
#    y 0.000000 1.581350 0.000000 
#    z 0.000000 0.000000 1.601380 
# 
# From -- ./inp_files/28843.got.cif
#   From: 2010.03.12/outbox.cif.g09.slc.cpg/sg67_15_cif.got.tgz:28843.got - 2010.04.10 22:41:39.
