data_PCOD8279062
_publ_section_title
;
Structure prediction by ZEFSAII (Michael W. Deem and Ramdas Pophale) SiO2 
 PCOD8279062
Probable space group: C M M A
;
_chemical_formula_sum "Si O2"
_cell_formula_units_Z 52
_cell_length_a 20.200927
_cell_length_b 15.604839
_cell_length_c 9.012737
_cell_angle_alpha 90.000000
_cell_angle_beta 90.000000
_cell_angle_gamma 90.000000
_cell_volume 2841.105034
_symmetry_space_group_name_H-M "C M M A"
_symmetry_group_IT_number 67
_symmetry_cell_setting 'orthorhombic'
loop_
_space_group_symop_operation_xyz
x,y,z
-x,1/2-y,z
x,-y,-z
-x,1/2+y,-z
-x,-y,-z
x,1/2+y,-z
-x,y,z
x,1/2-y,z
1/2+x,1/2+y,z
1/2-x,-y,z
1/2+x,1/2-y,-z
1/2-x,y,-z
1/2-x,1/2-y,-z
1/2+x,y,-z
1/2-x,1/2+y,z
1/2+x,-y,z
loop_
_atom_site_type_symbol
_atom_site_label
_atom_site_fract_x
_atom_site_fract_y
_atom_site_fract_z
Si Si1 0.750000 0.000000 0.000000
Si Si2 0.376443 0.920428 0.909959
Si Si3 0.421433 0.750000 0.411001
Si Si4 0.922031 0.084374 0.576103
Si Si5 0.578699 0.250000 0.930521
O O1 0.702800 0.938825 0.899386
O O2 0.406528 0.913362 0.748472
O O3 0.390045 0.833245 0.995853
O O4 0.410248 0.000000 0.000000
O O5 0.500000 0.750000 0.424426
O O6 0.391364 0.666868 0.493358
O O7 0.399658 0.750000 0.240528
O O8 0.000000 0.084557 0.553201
O O9 0.890945 0.000000 0.500000
O O10 0.500000 0.250000 0.952178
#
# Coordination Sequence:
#
# PCOD8279062 Si02
#       5
#     4  16   8  16   8
#     4   8  24  42  56  80 110 168 202 244 264 320
#     4  10  21  39  58  82 115 155 200 235 281 337
#     4   9  19  33  49  84 122 141 173 223 297 359
#     4  10  19  32  55  84 117 147 177 237 302 348
#     4  11  21  34  63  93 115 148 188 244 302 351
#
# _framework density 18.302738000000002
#
# number of rings (size 3 to 8) (size 9 to 14) (size 15 to 20)
#    0.923    1.231    0.000    3.692    0.000    6.769 
#    0.000    0.769    0.000    1.846    0.000    0.000 
#    0.000    0.000    0.000    0.000    0.000    0.000 
#
# Total GULP energy -322263.230096 kJ/mol
# GULP energy per Si atom -12394.739619 kJ/mol
# Density = 1.826108 g / cm^3
# Si number density = 18.302738 Si / 1000 Ang^3
#
#
#
# Elastic Constant Matrix: (Units=GPa)
#
#
# Indices 1 2 3 4 5 6 
#
# 1 35.9564 27.8888 1.2640 0.0000 0.0000 0.0000
# 2 27.8888 206.5610 97.2487 0.0000 0.0000 0.0000
# 3 1.2640 97.2487 152.3792 0.0000 0.0000 0.0000
# 4 0.0000 0.0000 0.0000 35.9900 0.0000 0.0000
# 5 0.0000 0.0000 0.0000 0.0000 -8.4384 0.0000
# 6 0.0000 0.0000 0.0000 0.0000 0.0000 25.9585
#
#
#
# Elastic Compliance Matrix: (Units=1/GPa)
#
#
# Indices 1 2 3 4 5 6 
#
# 1 0.032394 -0.006071 0.003606 0.000000 0.000000 0.000000
# 2 -0.006071 0.008058 -0.005093 0.000000 0.000000 0.000000
# 3 0.003606 -0.005093 0.009783 0.000000 0.000000 0.000000
# 4 0.000000 0.000000 0.000000 0.027786 0.000000 0.000000
# 5 0.000000 0.000000 0.000000 0.000000 -0.118506 0.000000
# 6 0.000000 0.000000 0.000000 0.000000 0.000000 0.038523
#
#
# Mechanical properties :
#
#
# Convention : Reuss Voigt Hill
#
# Bulk Modulus (GPa) = 28.47441 71.96661 50.22051
# Shear Modulus (GPa) = 201.12610 28.60169 114.86390
#
# Velocity S-wave (km/s) = 10.49415 3.95739 7.93057
# Velocity P-wave (km/s) = 12.74470 7.76445 10.55258
#
# Compressibility (1/GPa) = 0.03511925
#
# Stress axis : x y z
#
# Youngs Moduli (GPa) = 30.87012 124.09260 102.22057
#
# Poissons Ratio (x) = 0.75341 -0.36861
# Poissons Ratio (y) = 0.18742 0.52057
# Poissons Ratio (z) = -0.11132 0.63195
#
# Static dielectric constant tensor:
#      x y z
#    x 2.998910 0.000000 0.000000 
#    y 0.000000 3.915790 0.000000 
#    z 0.000000 0.000000 3.358200 
# 
# 
# High freq. dielectric constant tensor:
#      x y z
#    x 1.663610 0.000000 0.000000 
#    y 0.000000 1.732700 0.000000 
#    z 0.000000 0.000000 1.716880 
# 
# From -- ./inp_files/10512.got.cif
#   From: 2010.03.12/outbox.cif.g09.slc.cpg/sg67_6_cif.got.tgz:10512.got - 2010.04.10 22:41:39.
