data_PCOD8279368
_publ_section_title
;
Structure prediction by ZEFSAII (Michael W. Deem and Ramdas Pophale) SiO2 
 PCOD8279368
Probable space group: C M M A
;
_chemical_formula_sum "Si O2"
_cell_formula_units_Z 112
_cell_length_a 16.930267
_cell_length_b 23.399124
_cell_length_c 13.727447
_cell_angle_alpha 90.000000
_cell_angle_beta 90.000000
_cell_angle_gamma 90.000000
_cell_volume 5438.175034
_symmetry_space_group_name_H-M "C M M A"
_symmetry_group_IT_number 67
_symmetry_cell_setting 'orthorhombic'
loop_
_space_group_symop_operation_xyz
x,y,z
-x,1/2-y,z
x,-y,-z
-x,1/2+y,-z
-x,-y,-z
x,1/2+y,-z
-x,y,z
x,1/2-y,z
1/2+x,1/2+y,z
1/2-x,-y,z
1/2+x,1/2-y,-z
1/2-x,y,-z
1/2-x,1/2-y,-z
1/2+x,y,-z
1/2-x,1/2+y,z
1/2+x,-y,z
loop_
_atom_site_type_symbol
_atom_site_label
_atom_site_fract_x
_atom_site_fract_y
_atom_site_fract_z
Si Si1 0.655424 0.185463 0.693692
Si Si2 0.089884 0.612917 0.533566
Si Si3 0.164026 0.683008 0.362003
Si Si4 0.907191 0.905968 0.230652
Si Si5 0.092739 0.020924 0.324204
Si Si6 0.591112 0.891566 0.162897
Si Si7 0.339915 0.565125 0.977021
O O1 0.629664 0.250000 0.692878
O O2 0.591144 0.152690 0.628594
O O3 0.743509 0.176904 0.654535
O O4 0.645565 0.161425 0.802820
O O5 0.144489 0.643929 0.454818
O O6 0.123531 0.551252 0.574729
O O7 0.000000 0.607880 0.492915
O O8 0.140060 0.750000 0.376306
O O9 0.116496 0.656495 0.270500
O O10 0.859032 0.918581 0.133296
O O11 0.000000 0.908816 0.207814
O O12 0.883279 0.954070 0.312843
O O13 0.120566 0.053107 0.225453
O O14 0.000000 0.026895 0.331948
O O15 0.500000 0.878037 0.181102
O O16 0.604619 0.898743 0.048378
O O17 0.359530 0.500000 0.000000
O O18 0.250000 0.580214 0.000000
#
# Coordination Sequence:
#
# PCOD8279368 Si02
#       7
#    16  16  16  16  16  16  16
#     4  10  21  38  59  83 116 155 198 250 305 351
#     4  10  20  36  60  88 116 151 198 246 295 357
#     4  11  24  40  57  82 120 163 205 249 300 358
#     4  11  22  38  61  87 119 159 202 247 299 356
#     4   8  17  33  55  86 117 146 183 241 299 344
#     4  10  19  35  59  88 119 148 193 247 297 355
#     4  11  22  36  59  90 123 159 194 236 293 368
#
# _framework density 20.595144999999999
#
# number of rings (size 3 to 8) (size 9 to 14) (size 15 to 20)
#    0.000    1.857    1.429    3.857    0.000    5.143 
#    0.000    2.857    0.000    7.714    0.000    0.000 
#    0.000    0.000    0.000    0.000    0.000    0.000 
#
# Total GULP energy -694037.963702 kJ/mol
# GULP energy per Si atom -12393.535066 kJ/mol
# Density = 2.054827 g / cm^3
# Si number density = 20.595145 Si / 1000 Ang^3
#
#
#
# Elastic Constant Matrix: (Units=GPa)
#
#
# Indices 1 2 3 4 5 6 
#
# 1 52.2238 31.8653 34.2697 0.0000 0.0000 0.0000
# 2 31.8653 93.0339 52.5813 0.0000 0.0000 0.0000
# 3 34.2697 52.5813 98.2241 0.0000 0.0000 0.0000
# 4 0.0000 0.0000 0.0000 25.3266 0.0000 0.0000
# 5 0.0000 0.0000 0.0000 0.0000 34.7866 0.0000
# 6 0.0000 0.0000 0.0000 0.0000 0.0000 23.5717
#
#
#
# Elastic Compliance Matrix: (Units=1/GPa)
#
#
# Indices 1 2 3 4 5 6 
#
# 1 0.026702 -0.005564 -0.006338 0.000000 0.000000 0.000000
# 2 -0.005564 0.016571 -0.006930 0.000000 0.000000 0.000000
# 3 -0.006338 -0.006930 0.016102 0.000000 0.000000 0.000000
# 4 0.000000 0.000000 0.000000 0.039484 0.000000 0.000000
# 5 0.000000 0.000000 0.000000 0.000000 0.028747 0.000000
# 6 0.000000 0.000000 0.000000 0.000000 0.000000 0.042424
#
#
# Mechanical properties :
#
#
# Convention : Reuss Voigt Hill
#
# Bulk Modulus (GPa) = 46.05686 53.43493 49.74590
# Shear Modulus (GPa) = 23.26351 25.05468 24.15909
#
# Velocity S-wave (km/s) = 3.36454 3.49167 3.42869
# Velocity P-wave (km/s) = 6.12414 6.50057 6.31516
#
# Compressibility (1/GPa) = 0.02171229
#
# Stress axis : x y z
#
# Youngs Moduli (GPa) = 37.45024 60.34662 62.10590
#
# Poissons Ratio (x) = 0.33576 0.39361
# Poissons Ratio (y) = 0.20837 0.43037
# Poissons Ratio (z) = 0.23735 0.41818
#
# Static dielectric constant tensor:
#      x y z
#    x 3.521040 0.000000 0.000000 
#    y 0.000000 3.936450 0.000000 
#    z 0.000000 0.000000 3.804730 
# 
# 
# High freq. dielectric constant tensor:
#      x y z
#    x 1.794600 0.000000 0.000000 
#    y 0.000000 1.799770 0.000000 
#    z 0.000000 0.000000 1.806560 
# 
# From -- ./inp_files/27508.got.cif
#   From: 2010.03.12/outbox.cif.g09.slc.cpg/sg67_14_cif.got.tgz:27508.got - 2010.04.10 22:41:39.
