data_PCOD8279213
_publ_section_title
;
Structure prediction by ZEFSAII (Michael W. Deem and Ramdas Pophale) SiO2 
 PCOD8279213
Probable space group: C M M A
;
_chemical_formula_sum "Si O2"
_cell_formula_units_Z 96
_cell_length_a 21.232010
_cell_length_b 16.892266
_cell_length_c 13.002931
_cell_angle_alpha 90.000000
_cell_angle_beta 90.000000
_cell_angle_gamma 90.000000
_cell_volume 4663.589111
_symmetry_space_group_name_H-M "C M M A"
_symmetry_group_IT_number 67
_symmetry_cell_setting 'orthorhombic'
loop_
_space_group_symop_operation_xyz
x,y,z
-x,1/2-y,z
x,-y,-z
-x,1/2+y,-z
-x,-y,-z
x,1/2+y,-z
-x,y,z
x,1/2-y,z
1/2+x,1/2+y,z
1/2-x,-y,z
1/2+x,1/2-y,-z
1/2-x,y,-z
1/2-x,1/2-y,-z
1/2+x,y,-z
1/2-x,1/2+y,z
1/2+x,-y,z
loop_
_atom_site_type_symbol
_atom_site_label
_atom_site_fract_x
_atom_site_fract_y
_atom_site_fract_z
Si Si1 0.233913 0.340706 0.230366
Si Si2 0.070677 0.343316 0.579531
Si Si3 0.312635 0.342574 0.550996
Si Si4 0.629607 0.895902 0.780032
Si Si5 0.928275 0.160607 0.985693
Si Si6 0.342262 0.952979 0.100009
O O1 0.226767 0.250000 0.194830
O O2 0.188568 0.359118 0.327137
O O3 0.305420 0.358774 0.261742
O O4 0.215278 0.398095 0.136819
O O5 0.078764 0.250000 0.598138
O O6 0.122172 0.376075 0.497256
O O7 0.079842 0.387672 0.688177
O O8 0.000000 0.362551 0.539319
O O9 0.310398 0.250000 0.528016
O O10 0.250000 0.381743 0.500000
O O11 0.608457 0.846180 0.878832
O O12 0.636628 0.988017 0.809541
O O13 0.921980 0.250000 0.026929
O O14 0.000000 0.136181 0.966136
O O15 0.901479 0.102179 0.072250
O O16 0.318154 0.000000 0.000000
#
# Coordination Sequence:
#
# PCOD8279213 Si02
#       6
#    16  16  16  16  16  16
#     4  11  21  37  62  86 113 152 204 248 295 349
#     4  10  19  33  57  90 122 154 194 242 297 358
#     4   9  17  33  58  86 115 150 195 247 299 351
#     4  11  21  34  56  86 119 153 190 244 300 360
#     4  10  21  38  59  83 112 152 203 246 288 349
#     4  10  24  40  56  81 119 156 193 242 303 360
#
# _framework density 20.585003
#
# number of rings (size 3 to 8) (size 9 to 14) (size 15 to 20)
#    0.000    1.833    1.667    3.000    0.000    9.667 
#    0.000    5.833    0.000    4.000    0.000    0.000 
#    0.000    0.000    0.000    0.000    0.000    0.000 
#
# Total GULP energy -595272.545032 kJ/mol
# GULP energy per Si atom -12401.511355 kJ/mol
# Density = 2.053815 g / cm^3
# Si number density = 20.585003 Si / 1000 Ang^3
#
#
#
# Elastic Constant Matrix: (Units=GPa)
#
#
# Indices 1 2 3 4 5 6 
#
# 1 141.6094 37.5141 54.1200 0.0000 0.0000 0.0000
# 2 37.5141 89.1551 40.3393 0.0000 0.0000 0.0000
# 3 54.1200 40.3393 78.1576 0.0000 0.0000 0.0000
# 4 0.0000 0.0000 0.0000 29.4209 0.0000 0.0000
# 5 0.0000 0.0000 0.0000 0.0000 36.1827 0.0000
# 6 0.0000 0.0000 0.0000 0.0000 0.0000 10.0126
#
#
#
# Elastic Compliance Matrix: (Units=1/GPa)
#
#
# Indices 1 2 3 4 5 6 
#
# 1 0.009729 -0.001364 -0.006032 0.000000 0.000000 0.000000
# 2 -0.001364 0.014825 -0.006707 0.000000 0.000000 0.000000
# 3 -0.006032 -0.006707 0.020434 0.000000 0.000000 0.000000
# 4 0.000000 0.000000 0.000000 0.033989 0.000000 0.000000
# 5 0.000000 0.000000 0.000000 0.000000 0.027637 0.000000
# 6 0.000000 0.000000 0.000000 0.000000 0.000000 0.099874
#
#
# Mechanical properties :
#
#
# Convention : Reuss Voigt Hill
#
# Bulk Modulus (GPa) = 59.59504 63.65210 61.62357
# Shear Modulus (GPa) = 20.80830 26.91982 23.86406
#
# Velocity S-wave (km/s) = 3.18283 3.62019 3.40853
# Velocity P-wave (km/s) = 6.52080 6.96154 6.74477
#
# Compressibility (1/GPa) = 0.01677992
#
# Stress axis : x y z
#
# Youngs Moduli (GPa) = 102.79075 67.45335 48.93914
#
# Poissons Ratio (x) = 0.09201 0.29522
# Poissons Ratio (y) = 0.14021 0.32824
# Poissons Ratio (z) = 0.62008 0.45242
#
# Static dielectric constant tensor:
#      x y z
#    x 3.810230 0.000000 0.000000 
#    y 0.000000 3.600190 0.000000 
#    z 0.000000 0.000000 3.566750 
# 
# 
# High freq. dielectric constant tensor:
#      x y z
#    x 1.807680 0.000000 0.000000 
#    y 0.000000 1.791390 0.000000 
#    z 0.000000 0.000000 1.794890 
# 
# From -- ./inp_files/21954.got.cif
#   From: 2010.03.12/outbox.cif.g09.slc.cpg/sg67_11_cif.got.tgz:21954.got - 2010.04.10 22:41:39.
