data_PCOD8279007
_publ_section_title
;
Structure prediction by ZEFSAII (Michael W. Deem and Ramdas Pophale) SiO2 
 PCOD8279007
Probable space group: C M M A
;
_chemical_formula_sum "Si O2"
_cell_formula_units_Z 76
_cell_length_a 24.758259
_cell_length_b 9.509590
_cell_length_c 17.972438
_cell_angle_alpha 90.000000
_cell_angle_beta 90.000000
_cell_angle_gamma 90.000000
_cell_volume 4231.446838
_symmetry_space_group_name_H-M "C M M A"
_symmetry_group_IT_number 67
_symmetry_cell_setting 'orthorhombic'
loop_
_space_group_symop_operation_xyz
x,y,z
-x,1/2-y,z
x,-y,-z
-x,1/2+y,-z
-x,-y,-z
x,1/2+y,-z
-x,y,z
x,1/2-y,z
1/2+x,1/2+y,z
1/2-x,-y,z
1/2+x,1/2-y,-z
1/2-x,y,-z
1/2-x,1/2-y,-z
1/2+x,y,-z
1/2-x,1/2+y,z
1/2+x,-y,z
loop_
_atom_site_type_symbol
_atom_site_label
_atom_site_fract_x
_atom_site_fract_y
_atom_site_fract_z
Si Si1 0.416546 0.411451 0.197499
Si Si2 0.750000 0.000000 0.500000
Si Si3 0.000000 0.086908 0.925374
Si Si4 0.558206 0.588930 0.340043
Si Si5 0.825985 0.592846 0.624307
Si Si6 0.298487 0.413640 0.235231
O O1 0.428761 0.250000 0.217657
O O2 0.446567 0.453504 0.121587
O O3 0.439090 0.501149 0.264797
O O4 0.352407 0.436080 0.186812
O O5 0.790176 0.093002 0.449997
O O6 0.000000 0.250000 0.946752
O O7 0.000000 0.000000 0.000000
O O8 0.500000 0.554445 0.379578
O O9 0.559230 0.750000 0.314999
O O10 0.610304 0.557824 0.392734
O O11 0.821618 0.750000 0.658829
O O12 0.805003 0.476644 0.681859
O O13 0.283382 0.250000 0.243084
O O14 0.250000 0.500000 0.195429
#
# Coordination Sequence:
#
# PCOD8279007 Si02
#       6
#    16   4   8  16  16  16
#     4   9  18  32  51  75 104 137 167 204 251 296
#     4  12  22  32  50  70 102 136 176 210 254 312
#     4  10  20  34  52  78 112 141 170 203 244 299
#     4   9  17  31  52  75  97 124 166 215 258 299
#     4  10  21  34  49  70  98 132 168 210 256 306
#     4  10  19  32  52  77 102 129 168 212 255 298
#
# _framework density 17.960761000000002
#
# number of rings (size 3 to 8) (size 9 to 14) (size 15 to 20)
#    0.000    2.316    2.105    0.947    0.000    2.526 
#    0.000    0.526    0.000    0.632    0.000    4.421 
#    0.000    0.000    0.000    0.000    0.000    0.000 
#
# Total GULP energy -470827.350847 kJ/mol
# GULP energy per Si atom -12390.193443 kJ/mol
# Density = 1.791988 g / cm^3
# Si number density = 17.960761 Si / 1000 Ang^3
#
#
#
# Elastic Constant Matrix: (Units=GPa)
#
#
# Indices 1 2 3 4 5 6 
#
# 1 185.9043 55.3477 59.2461 0.0000 0.0000 0.0000
# 2 55.3477 81.7541 28.8945 0.0000 0.0000 0.0000
# 3 59.2461 28.8945 75.0472 0.0000 0.0000 0.0000
# 4 0.0000 0.0000 0.0000 20.5588 0.0000 0.0000
# 5 0.0000 0.0000 0.0000 0.0000 25.3528 0.0000
# 6 0.0000 0.0000 0.0000 0.0000 0.0000 25.7780
#
#
#
# Elastic Compliance Matrix: (Units=1/GPa)
#
#
# Indices 1 2 3 4 5 6 
#
# 1 0.008055 -0.003711 -0.004930 0.000000 0.000000 0.000000
# 2 -0.003711 0.015868 -0.003180 0.000000 0.000000 0.000000
# 3 -0.004930 -0.003180 0.018442 0.000000 0.000000 0.000000
# 4 0.000000 0.000000 0.000000 0.048641 0.000000 0.000000
# 5 0.000000 0.000000 0.000000 0.000000 0.039443 0.000000
# 6 0.000000 0.000000 0.000000 0.000000 0.000000 0.038793
#
#
# Mechanical properties :
#
#
# Convention : Reuss Voigt Hill
#
# Bulk Modulus (GPa) = 53.41208 69.96469 61.68839
# Shear Modulus (GPa) = 25.10986 27.61908 26.36447
#
# Velocity S-wave (km/s) = 3.74309 3.92566 3.83547
# Velocity P-wave (km/s) = 6.96303 7.71923 7.35086
#
# Compressibility (1/GPa) = 0.01872236
#
# Stress axis : x y z
#
# Youngs Moduli (GPa) = 124.14354 63.02032 54.22518
#
# Poissons Ratio (x) = 0.23386 0.26735
# Poissons Ratio (y) = 0.46067 0.17243
# Poissons Ratio (z) = 0.61208 0.20040
#
# Static dielectric constant tensor:
#      x y z
#    x 4.158420 0.000000 0.000000 
#    y 0.000000 3.377880 0.000000 
#    z 0.000000 0.000000 2.772990 
# 
# 
# High freq. dielectric constant tensor:
#      x y z
#    x 1.731130 0.000000 0.000000 
#    y 0.000000 1.703050 0.000000 
#    z 0.000000 0.000000 1.627950 
# 
# From -- ./inp_files/35793.got.cif
#   From: 2010.03.12/outbox.cif.g09.slc.cpg/sg67_18_cif.got.tgz:35793.got - 2010.04.10 22:41:39.
