data_PCOD8279576
_publ_section_title
;
Structure prediction by ZEFSAII (Michael W. Deem and Ramdas Pophale) SiO2 
 PCOD8279576
Probable space group: C M M A
;
_chemical_formula_sum "Si O2"
_cell_formula_units_Z 72
_cell_length_a 10.208638
_cell_length_b 33.211593
_cell_length_c 12.209990
_cell_angle_alpha 90.000000
_cell_angle_beta 90.000000
_cell_angle_gamma 90.000000
_cell_volume 4139.737651
_symmetry_space_group_name_H-M "C M M A"
_symmetry_group_IT_number 67
_symmetry_cell_setting 'orthorhombic'
loop_
_space_group_symop_operation_xyz
x,y,z
-x,1/2-y,z
x,-y,-z
-x,1/2+y,-z
-x,-y,-z
x,1/2+y,-z
-x,y,z
x,1/2-y,z
1/2+x,1/2+y,z
1/2-x,-y,z
1/2+x,1/2-y,-z
1/2-x,y,-z
1/2-x,1/2-y,-z
1/2+x,y,-z
1/2-x,1/2+y,z
1/2+x,-y,z
loop_
_atom_site_type_symbol
_atom_site_label
_atom_site_fract_x
_atom_site_fract_y
_atom_site_fract_z
Si Si1 0.742757 0.094339 0.870266
Si Si2 0.000000 0.041229 0.126643
Si Si3 0.224651 0.177542 0.251761
Si Si4 0.649919 0.750000 0.098261
Si Si5 0.000000 0.702621 0.597982
Si Si6 0.500000 0.451691 0.132115
Si Si7 0.500000 0.203328 0.340283
O O1 0.629343 0.063953 0.834560
O O2 0.712969 0.134966 0.806494
O O3 0.875611 0.073763 0.828517
O O4 0.750000 0.103235 0.000000
O O5 0.000000 0.996841 0.181660
O O6 0.000000 0.040823 0.996402
O O7 0.175013 0.210399 0.167290
O O8 0.373587 0.183280 0.287246
O O9 0.129908 0.180775 0.356800
O O10 0.500000 0.750000 0.055216
O O11 0.750000 0.750000 0.000000
O O12 0.000000 0.696479 0.469109
O O13 0.000000 0.750000 0.630226
O O14 0.500000 0.250000 0.310064
#
# Coordination Sequence:
#
# PCOD8279576 Si02
#       7
#    16   8  16   8   8   8   8
#     4  10  20  32  49  77 110 145 175 214 262 316
#     4   9  17  30  52  71 101 145 178 214 262 313
#     4  12  21  39  54  80 111 143 185 225 276 323
#     4  12  26  40  55  77 112 158 191 219 251 320
#     4  11  21  40  58  76 102 138 189 240 286 323
#     4   9  17  32  48  73 105 139 182 216 256 313
#     4  11  23  36  60  80 100 138 187 240 290 323
#
# _framework density 17.392406000000001
#
# number of rings (size 3 to 8) (size 9 to 14) (size 15 to 20)
#    0.000    1.333    3.333    3.333    1.556    4.444 
#    4.000    0.000    0.000    0.000    0.000    0.000 
#    0.000   62.222    0.000    0.000    0.000    0.000 
#
# Total GULP energy -446440.019958 kJ/mol
# GULP energy per Si atom -12401.111665 kJ/mol
# Density = 1.735282 g / cm^3
# Si number density = 17.392406 Si / 1000 Ang^3
#
#
#
# Elastic Constant Matrix: (Units=GPa)
#
#
# Indices 1 2 3 4 5 6 
#
# 1 158.9772 48.5638 28.7566 0.0000 0.0000 0.0000
# 2 48.5638 140.5633 31.8769 0.0000 0.0000 0.0000
# 3 28.7566 31.8769 45.2445 0.0000 0.0000 0.0000
# 4 0.0000 0.0000 0.0000 27.0391 0.0000 0.0000
# 5 0.0000 0.0000 0.0000 0.0000 12.8098 0.0000
# 6 0.0000 0.0000 0.0000 0.0000 0.0000 159.8532
#
#
#
# Elastic Compliance Matrix: (Units=1/GPa)
#
#
# Indices 1 2 3 4 5 6 
#
# 1 0.007467 -0.001790 -0.003485 0.000000 0.000000 0.000000
# 2 -0.001790 0.008896 -0.005130 0.000000 0.000000 0.000000
# 3 -0.003485 -0.005130 0.027932 0.000000 0.000000 0.000000
# 4 0.000000 0.000000 0.000000 0.036983 0.000000 0.000000
# 5 0.000000 0.000000 0.000000 0.000000 0.078065 0.000000
# 6 0.000000 0.000000 0.000000 0.000000 0.000000 0.006256
#
#
# Mechanical properties :
#
#
# Convention : Reuss Voigt Hill
#
# Bulk Modulus (GPa) = 42.58039 62.57551 52.57795
# Shear Modulus (GPa) = 25.74167 55.64628 40.69398
#
# Velocity S-wave (km/s) = 3.85132 5.66251 4.84235
# Velocity P-wave (km/s) = 6.65674 8.87743 7.84605
#
# Compressibility (1/GPa) = 0.02348499
#
# Stress axis : x y z
#
# Youngs Moduli (GPa) = 133.91723 112.41095 35.80151
#
# Poissons Ratio (x) = 0.20116 0.12478
# Poissons Ratio (y) = 0.23965 0.18367
# Poissons Ratio (z) = 0.46674 0.57669
#
# Static dielectric constant tensor:
#      x y z
#    x 4.140030 0.000000 0.000000 
#    y 0.000000 3.341250 0.000000 
#    z 0.000000 0.000000 3.019010 
# 
# 
# High freq. dielectric constant tensor:
#      x y z
#    x 1.699470 0.000000 0.000000 
#    y 0.000000 1.675770 0.000000 
#    z 0.000000 0.000000 1.634070 
# 
# From -- ./inp_files/25363.got.cif
#   From: 2010.03.12/outbox.cif.g09.slc.cpg/sg67_13_cif.got.tgz:25363.got - 2010.04.10 22:41:39.
