data_PCOD8279054
_publ_section_title
;
Structure prediction by ZEFSAII (Michael W. Deem and Ramdas Pophale) SiO2 
 PCOD8279054
Probable space group: C M M A
;
_chemical_formula_sum "Si O2"
_cell_formula_units_Z 64
_cell_length_a 10.668522
_cell_length_b 15.284747
_cell_length_c 18.383581
_cell_angle_alpha 90.000000
_cell_angle_beta 90.000000
_cell_angle_gamma 90.000000
_cell_volume 2997.730762
_symmetry_space_group_name_H-M "C M M A"
_symmetry_group_IT_number 67
_symmetry_cell_setting 'orthorhombic'
loop_
_space_group_symop_operation_xyz
x,y,z
-x,1/2-y,z
x,-y,-z
-x,1/2+y,-z
-x,-y,-z
x,1/2+y,-z
-x,y,z
x,1/2-y,z
1/2+x,1/2+y,z
1/2-x,-y,z
1/2+x,1/2-y,-z
1/2-x,y,-z
1/2-x,1/2-y,-z
1/2+x,y,-z
1/2-x,1/2+y,z
1/2+x,-y,z
loop_
_atom_site_type_symbol
_atom_site_label
_atom_site_fract_x
_atom_site_fract_y
_atom_site_fract_z
Si Si1 0.252777 0.897543 0.842072
Si Si2 0.000000 0.895213 0.079931
Si Si3 0.140793 0.649536 0.305544
Si Si4 0.500000 0.603693 0.085812
Si Si5 0.864315 0.905393 0.462189
O O1 0.374240 0.856619 0.882528
O O2 0.260150 0.876104 0.756491
O O3 0.123704 0.858011 0.874115
O O4 0.250000 0.000000 0.855617
O O5 0.000000 0.999289 0.087583
O O6 0.000000 0.863271 0.996900
O O7 0.159574 0.750000 0.329135
O O8 0.163847 0.588725 0.376044
O O9 0.000000 0.633352 0.275334
O O10 0.750000 0.851865 0.500000
O O11 0.000000 0.858805 0.473667
O O12 0.868919 0.000000 0.500000
#
# Coordination Sequence:
#
# PCOD8279054 Si02
#       5
#    16   8  16   8  16
#     4  10  19  32  54  85 110 149 192 234 281 330
#     4   9  16  32  53  79 115 150 191 230 284 333
#     4  10  21  38  59  80 114 157 191 221 272 347
#     4   9  18  30  51  85 117 144 183 248 284 315
#     4   9  19  36  57  84 108 143 180 231 273 328
#
# _framework density 21.349481000000001
#
# number of rings (size 3 to 8) (size 9 to 14) (size 15 to 20)
#    0.000    2.500    1.250    0.750    3.500    3.500 
#    2.250    0.625    0.000    4.500    0.000    0.000 
#    0.000    0.000    0.000    0.000    0.000    0.000 
#
# Total GULP energy -396543.181709 kJ/mol
# GULP energy per Si atom -12391.974428 kJ/mol
# Density = 2.130089 g / cm^3
# Si number density = 21.349481 Si / 1000 Ang^3
#
#
#
# Elastic Constant Matrix: (Units=GPa)
#
#
# Indices 1 2 3 4 5 6 
#
# 1 213.6122 8.3866 108.6528 0.0000 0.0000 0.0000
# 2 8.3866 27.1107 15.3375 0.0000 0.0000 0.0000
# 3 108.6528 15.3375 183.1498 0.0000 0.0000 0.0000
# 4 0.0000 0.0000 0.0000 1.2716 0.0000 0.0000
# 5 0.0000 0.0000 0.0000 0.0000 43.6215 0.0000
# 6 0.0000 0.0000 0.0000 0.0000 0.0000 -2.0916
#
#
#
# Elastic Compliance Matrix: (Units=1/GPa)
#
#
# Indices 1 2 3 4 5 6 
#
# 1 0.006705 0.000185 -0.003993 0.000000 0.000000 0.000000
# 2 0.000185 0.038725 -0.003353 0.000000 0.000000 0.000000
# 3 -0.003993 -0.003353 0.008110 0.000000 0.000000 0.000000
# 4 0.000000 0.000000 0.000000 0.786420 0.000000 0.000000
# 5 0.000000 0.000000 0.000000 0.000000 0.022924 0.000000
# 6 0.000000 0.000000 0.000000 0.000000 0.000000 -0.478096
#
#
# Mechanical properties :
#
#
# Convention : Reuss Voigt Hill
#
# Bulk Modulus (GPa) = 25.49833 76.51405 51.00619
# Shear Modulus (GPa) = 12.13052 27.99336 20.06194
#
# Velocity S-wave (km/s) = 2.38626 3.62497 3.06877
# Velocity P-wave (km/s) = 4.42284 7.31008 6.04147
#
# Compressibility (1/GPa) = 0.03921825
#
# Stress axis : x y z
#
# Youngs Moduli (GPa) = 149.13478 25.82287 123.30690
#
# Poissons Ratio (x) = -0.00478 0.49241
# Poissons Ratio (y) = -0.02758 0.41341
# Poissons Ratio (z) = 0.59556 0.08658
#
# Static dielectric constant tensor:
#      x y z
#    x 4.948130 0.000000 0.000000 
#    y 0.000000 3.219060 0.000000 
#    z 0.000000 0.000000 3.797830 
# 
# 
# High freq. dielectric constant tensor:
#      x y z
#    x 1.851580 0.000000 0.000000 
#    y 0.000000 1.788200 0.000000 
#    z 0.000000 0.000000 1.843110 
# 
# From -- ./inp_files/25792.got.cif
#   From: 2010.03.12/outbox.cif.g09.slc.cpg/sg67_13_cif.got.tgz:25792.got - 2010.04.10 22:41:39.
