data_PCOD8279758
_publ_section_title
;
Structure prediction by ZEFSAII (Michael W. Deem and Ramdas Pophale) SiO2 
 PCOD8279758
Probable space group: C M M A
;
_chemical_formula_sum "Si O2"
_cell_formula_units_Z 96
_cell_length_a 22.073570
_cell_length_b 18.956191
_cell_length_c 11.967003
_cell_angle_alpha 90.000000
_cell_angle_beta 90.000000
_cell_angle_gamma 90.000000
_cell_volume 5007.362746
_symmetry_space_group_name_H-M "C M M A"
_symmetry_group_IT_number 67
_symmetry_cell_setting 'orthorhombic'
loop_
_space_group_symop_operation_xyz
x,y,z
-x,1/2-y,z
x,-y,-z
-x,1/2+y,-z
-x,-y,-z
x,1/2+y,-z
-x,y,z
x,1/2-y,z
1/2+x,1/2+y,z
1/2-x,-y,z
1/2+x,1/2-y,-z
1/2-x,y,-z
1/2-x,1/2-y,-z
1/2+x,y,-z
1/2-x,1/2+y,z
1/2+x,-y,z
loop_
_atom_site_type_symbol
_atom_site_label
_atom_site_fract_x
_atom_site_fract_y
_atom_site_fract_z
Si Si1 0.856376 0.666552 0.907075
Si Si2 0.928960 0.953349 0.788390
Si Si3 0.186950 0.325768 0.563819
Si Si4 0.253611 0.610079 0.242476
Si Si5 0.157693 0.444500 0.910313
Si Si6 0.851306 0.059795 0.413400
O O1 0.873412 0.750000 0.915531
O O2 0.906463 0.621360 0.839440
O O3 0.792699 0.660085 0.840286
O O4 0.853544 0.632225 0.031787
O O5 0.912310 0.955433 0.656296
O O6 0.000000 0.958276 0.803138
O O7 0.901460 0.022427 0.849750
O O8 0.155393 0.250000 0.567118
O O9 0.250000 0.324645 0.500000
O O10 0.202028 0.347319 0.690252
O O11 0.139861 0.372495 0.493097
O O12 0.213957 0.555748 0.172733
O O13 0.297000 0.566788 0.324819
O O14 0.180224 0.500000 0.000000
O O15 0.832819 0.000000 0.500000
#
# Coordination Sequence:
#
# PCOD8279758 Si02
#       6
#    16  16  16  16  16  16
#     4  10  22  37  56  85 116 146 184 228 277 335
#     4  10  23  41  58  77 106 146 193 242 284 322
#     4   9  18  31  48  73 107 142 172 208 259 322
#     4  10  20  33  53  82 118 150 177 214 273 338
#     4  10  22  36  55  81 113 149 186 227 275 328
#     4  10  21  34  54  81 108 139 181 227 274 328
#
# _framework density 19.171768
#
# number of rings (size 3 to 8) (size 9 to 14) (size 15 to 20)
#    0.000    2.167    0.000    2.000    0.000   28.667 
#    0.000    0.000    0.000    0.000    0.000    0.000 
#    0.000    0.000    0.000    0.000    0.000    0.000 
#
# Total GULP energy -594795.163162 kJ/mol
# GULP energy per Si atom -12391.565899 kJ/mol
# Density = 1.912813 g / cm^3
# Si number density = 19.171768 Si / 1000 Ang^3
#
#
#
# Elastic Constant Matrix: (Units=GPa)
#
#
# Indices 1 2 3 4 5 6 
#
# 1 93.2893 48.7663 52.6890 0.0000 0.0000 0.0000
# 2 48.7663 127.0498 64.3642 0.0000 0.0000 0.0000
# 3 52.6890 64.3642 110.0157 0.0000 0.0000 0.0000
# 4 0.0000 0.0000 0.0000 21.6156 0.0000 0.0000
# 5 0.0000 0.0000 0.0000 0.0000 16.8983 0.0000
# 6 0.0000 0.0000 0.0000 0.0000 0.0000 14.5435
#
#
#
# Elastic Compliance Matrix: (Units=1/GPa)
#
#
# Indices 1 2 3 4 5 6 
#
# 1 0.015515 -0.003114 -0.005609 0.000000 0.000000 0.000000
# 2 -0.003114 0.011811 -0.005419 0.000000 0.000000 0.000000
# 3 -0.005609 -0.005419 0.014946 0.000000 0.000000 0.000000
# 4 0.000000 0.000000 0.000000 0.046263 0.000000 0.000000
# 5 0.000000 0.000000 0.000000 0.000000 0.059178 0.000000
# 6 0.000000 0.000000 0.000000 0.000000 0.000000 0.068759
#
#
# Mechanical properties :
#
#
# Convention : Reuss Voigt Hill
#
# Bulk Modulus (GPa) = 71.48243 73.55487 72.51865
# Shear Modulus (GPa) = 20.04668 21.58049 20.81359
#
# Velocity S-wave (km/s) = 3.23714 3.35869 3.29848
# Velocity P-wave (km/s) = 7.16507 7.31373 7.23978
#
# Compressibility (1/GPa) = 0.01398945
#
# Stress axis : x y z
#
# Youngs Moduli (GPa) = 64.45472 84.66422 66.90716
#
# Poissons Ratio (x) = 0.26362 0.37526
# Poissons Ratio (y) = 0.20069 0.36257
# Poissons Ratio (z) = 0.36151 0.45879
#
# Static dielectric constant tensor:
#      x y z
#    x 3.058240 0.000000 0.000000 
#    y 0.000000 3.723660 0.000000 
#    z 0.000000 0.000000 4.729590 
# 
# 
# High freq. dielectric constant tensor:
#      x y z
#    x 1.695160 0.000000 0.000000 
#    y 0.000000 1.744670 0.000000 
#    z 0.000000 0.000000 1.767050 
# 
# From -- ./inp_files/19619.got.cif
#   From: 2010.03.12/outbox.cif.g09.slc.cpg/sg67_10_cif.got.tgz:19619.got - 2010.04.10 22:41:39.
