data_PCOD8279595
_publ_section_title
;
Structure prediction by ZEFSAII (Michael W. Deem and Ramdas Pophale) SiO2 
 PCOD8279595
Probable space group: C M M A
;
_chemical_formula_sum "Si O2"
_cell_formula_units_Z 128
_cell_length_a 9.765107
_cell_length_b 28.805802
_cell_length_c 31.648403
_cell_angle_alpha 90.000000
_cell_angle_beta 90.000000
_cell_angle_gamma 90.000000
_cell_volume 8902.434309
_symmetry_space_group_name_H-M "C M M A"
_symmetry_group_IT_number 67
_symmetry_cell_setting 'orthorhombic'
loop_
_space_group_symop_operation_xyz
x,y,z
-x,1/2-y,z
x,-y,-z
-x,1/2+y,-z
-x,-y,-z
x,1/2+y,-z
-x,y,z
x,1/2-y,z
1/2+x,1/2+y,z
1/2-x,-y,z
1/2+x,1/2-y,-z
1/2-x,y,-z
1/2-x,1/2-y,-z
1/2+x,y,-z
1/2-x,1/2+y,z
1/2+x,-y,z
loop_
_atom_site_type_symbol
_atom_site_label
_atom_site_fract_x
_atom_site_fract_y
_atom_site_fract_z
Si Si1 0.662811 0.302932 0.281516
Si Si2 0.654335 0.694352 0.536968
Si Si3 0.155696 0.041554 0.924002
Si Si4 0.341822 0.542540 0.825563
Si Si5 0.662447 0.698574 0.627438
Si Si6 0.662839 0.302337 0.121055
Si Si7 0.339689 0.140884 0.039745
Si Si8 0.162948 0.642394 0.201548
O O1 0.500000 0.302494 0.278242
O O2 0.716269 0.250000 0.276045
O O3 0.707097 0.324590 0.327662
O O4 0.723944 0.335345 0.244564
O O5 0.500000 0.677387 0.527753
O O6 0.659655 0.750000 0.538370
O O7 0.750000 0.674100 0.500000
O O8 0.708418 0.674753 0.582914
O O9 0.182875 0.052190 0.874929
O O10 0.191080 0.087337 0.950144
O O11 0.000000 0.025967 0.931226
O O12 0.250000 0.000000 0.940909
O O13 0.500000 0.530737 0.816376
O O14 0.250000 0.500000 0.809136
O O15 0.293064 0.588580 0.800816
O O16 0.500000 0.701920 0.625281
O O17 0.725347 0.750000 0.628963
O O18 0.500000 0.302691 0.123191
O O19 0.720275 0.250000 0.121131
O O20 0.711394 0.327876 0.078670
O O21 0.723146 0.329197 0.161730
O O22 0.500000 0.148866 0.030244
O O23 0.250000 0.156567 0.000000
O O24 0.000000 0.645703 0.200413
#
# Coordination Sequence:
#
# PCOD8279595 Si02
#       8
#    16  16  16  16  16  16  16  16
#     4   8  12  17  28  50  77 100 121 149 189 229
#     4   8  12  17  25  37  55  82 116 152 185 213
#     4   9  17  30  46  62  82 103 123 148 180 216
#     4   9  16  27  43  62  82 101 121 147 179 214
#     4   7  10  16  24  37  62  91 115 145 186 223
#     4   9  16  27  43  60  78 101 126 152 184 217
#     4  10  20  33  46  62  83 104 125 151 182 217
#     4   9  14  22  38  59  80  99 122 153 184 216
#
# _framework density 14.378088999999999
#
# number of rings (size 3 to 8) (size 9 to 14) (size 15 to 20)
#    0.000    3.375    1.250    1.875    0.000    2.500 
#    0.000    1.250    0.000    0.000    0.000    0.875 
#    0.000    2.500    0.000    0.250    0.000    0.625 
#
# Total GULP energy -792872.374112 kJ/mol
# GULP energy per Si atom -12388.630845 kJ/mol
# Density = 1.434536 g / cm^3
# Si number density = 14.378089 Si / 1000 Ang^3
#
#
#
# Elastic Constant Matrix: (Units=GPa)
#
#
# Indices 1 2 3 4 5 6 
#
# 1 27.8608 23.9104 32.8712 0.0000 0.0000 0.0000
# 2 23.9104 71.0216 51.8734 0.0000 0.0000 0.0000
# 3 32.8712 51.8734 139.5725 0.0000 0.0000 0.0000
# 4 0.0000 0.0000 0.0000 7.4404 0.0000 0.0000
# 5 0.0000 0.0000 0.0000 0.0000 13.7511 0.0000
# 6 0.0000 0.0000 0.0000 0.0000 0.0000 10.9034
#
#
#
# Elastic Compliance Matrix: (Units=1/GPa)
#
#
# Indices 1 2 3 4 5 6 
#
# 1 0.057220 -0.012931 -0.008670 0.000000 0.000000 0.000000
# 2 -0.012931 0.022249 -0.005224 0.000000 0.000000 0.000000
# 3 -0.008670 -0.005224 0.011148 0.000000 0.000000 0.000000
# 4 0.000000 0.000000 0.000000 0.134401 0.000000 0.000000
# 5 0.000000 0.000000 0.000000 0.000000 0.072721 0.000000
# 6 0.000000 0.000000 0.000000 0.000000 0.000000 0.091715
#
#
# Mechanical properties :
#
#
# Convention : Reuss Voigt Hill
#
# Bulk Modulus (GPa) = 27.05123 50.64056 38.84590
# Shear Modulus (GPa) = 10.97875 15.07231 13.02553
#
# Velocity S-wave (km/s) = 2.76628 3.24123 3.01313
# Velocity P-wave (km/s) = 5.39056 7.02172 6.25950
#
# Compressibility (1/GPa) = 0.03696690
#
# Stress axis : x y z
#
# Youngs Moduli (GPa) = 17.47655 44.94591 89.70227
#
# Poissons Ratio (x) = 0.58121 0.77771
# Poissons Ratio (y) = 0.22600 0.46856
# Poissons Ratio (z) = 0.15152 0.23478
#
# Static dielectric constant tensor:
#      x y z
#    x 2.429650 0.000000 0.000000 
#    y 0.000000 2.663340 0.000000 
#    z 0.000000 0.000000 3.156980 
# 
# 
# High freq. dielectric constant tensor:
#      x y z
#    x 1.501430 0.000000 0.000000 
#    y 0.000000 1.514590 0.000000 
#    z 0.000000 0.000000 1.554140 
# 
# From -- ./inp_files/44195.got.cif
#   From: 2010.03.12/outbox.cif.g09.slc.cpg/sg67_23_cif.got.tgz:44195.got - 2010.04.10 22:41:39.
