data_PCOD8279400
_publ_section_title
;
Structure prediction by ZEFSAII (Michael W. Deem and Ramdas Pophale) SiO2 
 PCOD8279400
Probable space group: C M M A
;
_chemical_formula_sum "Si O2"
_cell_formula_units_Z 96
_cell_length_a 16.415733
_cell_length_b 20.387432
_cell_length_c 14.323274
_cell_angle_alpha 90.000000
_cell_angle_beta 90.000000
_cell_angle_gamma 90.000000
_cell_volume 4793.636573
_symmetry_space_group_name_H-M "C M M A"
_symmetry_group_IT_number 67
_symmetry_cell_setting 'orthorhombic'
loop_
_space_group_symop_operation_xyz
x,y,z
-x,1/2-y,z
x,-y,-z
-x,1/2+y,-z
-x,-y,-z
x,1/2+y,-z
-x,y,z
x,1/2-y,z
1/2+x,1/2+y,z
1/2-x,-y,z
1/2+x,1/2-y,-z
1/2-x,y,-z
1/2-x,1/2-y,-z
1/2+x,y,-z
1/2-x,1/2+y,z
1/2+x,-y,z
loop_
_atom_site_type_symbol
_atom_site_label
_atom_site_fract_x
_atom_site_fract_y
_atom_site_fract_z
Si Si1 0.342719 0.483346 0.247918
Si Si2 0.903163 0.822624 0.928333
Si Si3 0.596600 0.437429 0.056747
Si Si4 0.907075 0.058349 0.566833
Si Si5 0.405334 0.626135 0.270678
Si Si6 0.160327 0.174423 0.460169
O O1 0.250000 0.500000 0.229784
O O2 0.372973 0.439202 0.162350
O O3 0.351787 0.439908 0.340829
O O4 0.397256 0.548078 0.260729
O O5 0.871428 0.750000 0.953472
O O6 0.873487 0.841541 0.824859
O O7 0.000000 0.825995 0.928959
O O8 0.867984 0.872715 0.005550
O O9 0.500000 0.436677 0.056091
O O10 0.629841 0.500000 0.000000
O O11 0.901606 0.128527 0.516737
O O12 0.000000 0.044763 0.595079
O O13 0.874858 0.000000 0.500000
O O14 0.500000 0.642946 0.291703
O O15 0.347421 0.655258 0.351301
O O16 0.135530 0.250000 0.474865
O O17 0.250000 0.160457 0.500000
#
# Coordination Sequence:
#
# PCOD8279400 Si02
#       6
#    16  16  16  16  16  16
#     4  12  24  37  59  89 122 158 199 252 310 368
#     4   9  18  33  58  91 120 149 193 248 300 349
#     4  10  19  36  60  86 118 153 195 246 299 358
#     4  11  23  39  62  90 120 157 206 257 300 357
#     4  11  20  37  64  91 118 154 207 261 302 348
#     4  11  24  40  60  90 129 166 198 244 310 372
#
# _framework density 20.02655
#
# number of rings (size 3 to 8) (size 9 to 14) (size 15 to 20)
#    0.000    1.333    3.333    3.500    0.000    2.333 
#    0.000    0.833    0.000    5.000    0.000    0.000 
#    0.000    0.000    0.000    0.000    0.000    0.000 
#
# Total GULP energy -595352.740857 kJ/mol
# GULP energy per Si atom -12403.182101 kJ/mol
# Density = 1.998097 g / cm^3
# Si number density = 20.026550 Si / 1000 Ang^3
#
#
#
# Elastic Constant Matrix: (Units=GPa)
#
#
# Indices 1 2 3 4 5 6 
#
# 1 40.2771 24.4339 26.4734 0.0000 0.0000 0.0000
# 2 24.4339 148.8140 85.4598 0.0000 0.0000 0.0000
# 3 26.4734 85.4598 166.9118 0.0000 0.0000 0.0000
# 4 0.0000 0.0000 0.0000 28.7990 0.0000 0.0000
# 5 0.0000 0.0000 0.0000 0.0000 20.7139 0.0000
# 6 0.0000 0.0000 0.0000 0.0000 0.0000 14.3589
#
#
#
# Elastic Compliance Matrix: (Units=1/GPa)
#
#
# Indices 1 2 3 4 5 6 
#
# 1 0.028611 -0.002963 -0.003021 0.000000 0.000000 0.000000
# 2 -0.002963 0.009825 -0.004561 0.000000 0.000000 0.000000
# 3 -0.003021 -0.004561 0.008805 0.000000 0.000000 0.000000
# 4 0.000000 0.000000 0.000000 0.034723 0.000000 0.000000
# 5 0.000000 0.000000 0.000000 0.000000 0.048277 0.000000
# 6 0.000000 0.000000 0.000000 0.000000 0.000000 0.069643
#
#
# Mechanical properties :
#
#
# Convention : Reuss Voigt Hill
#
# Bulk Modulus (GPa) = 38.23673 69.85967 54.04820
# Shear Modulus (GPa) = 21.76833 27.41676 24.59254
#
# Velocity S-wave (km/s) = 3.30050 3.70404 3.50808
# Velocity P-wave (km/s) = 5.80163 7.29743 6.59209
#
# Compressibility (1/GPa) = 0.02615286
#
# Stress axis : x y z
#
# Youngs Moduli (GPa) = 34.95159 101.77746 113.56617
#
# Poissons Ratio (x) = 0.30155 0.34308
# Poissons Ratio (y) = 0.10356 0.51794
# Poissons Ratio (z) = 0.10559 0.46418
#
# Static dielectric constant tensor:
#      x y z
#    x 3.328270 0.000000 0.000000 
#    y 0.000000 3.779430 0.000000 
#    z 0.000000 0.000000 3.794240 
# 
# 
# High freq. dielectric constant tensor:
#      x y z
#    x 1.759080 0.000000 0.000000 
#    y 0.000000 1.779980 0.000000 
#    z 0.000000 0.000000 1.792290 
# 
# From -- ./inp_files/27172.got.cif
#   From: 2010.03.12/outbox.cif.g09.slc.cpg/sg67_14_cif.got.tgz:27172.got - 2010.04.10 22:41:39.
