data_PCOD8279008
_publ_section_title
;
Structure prediction by ZEFSAII (Michael W. Deem and Ramdas Pophale) SiO2 
 PCOD8279008
Probable space group: C M M A
;
_chemical_formula_sum "Si O2"
_cell_formula_units_Z 96
_cell_length_a 9.043239
_cell_length_b 19.201352
_cell_length_c 31.397594
_cell_angle_alpha 90.000000
_cell_angle_beta 90.000000
_cell_angle_gamma 90.000000
_cell_volume 5451.954055
_symmetry_space_group_name_H-M "C M M A"
_symmetry_group_IT_number 67
_symmetry_cell_setting 'orthorhombic'
loop_
_space_group_symop_operation_xyz
x,y,z
-x,1/2-y,z
x,-y,-z
-x,1/2+y,-z
-x,-y,-z
x,1/2+y,-z
-x,y,z
x,1/2-y,z
1/2+x,1/2+y,z
1/2-x,-y,z
1/2+x,1/2-y,-z
1/2-x,y,-z
1/2-x,1/2-y,-z
1/2+x,y,-z
1/2-x,1/2+y,z
1/2+x,-y,z
loop_
_atom_site_type_symbol
_atom_site_label
_atom_site_fract_x
_atom_site_fract_y
_atom_site_fract_z
Si Si1 0.669472 0.571648 0.205976
Si Si2 0.825932 0.670197 0.625937
Si Si3 0.166841 0.667031 0.458602
Si Si4 0.326278 0.425684 0.702096
Si Si5 0.328207 0.668452 0.956476
Si Si6 0.825157 0.575450 0.886593
O O1 0.500000 0.551606 0.206663
O O2 0.750000 0.500000 0.205589
O O3 0.709711 0.609271 0.251024
O O4 0.704889 0.609198 0.160830
O O5 0.781053 0.750000 0.634040
O O6 0.747564 0.639948 0.583874
O O7 0.766884 0.627094 0.666429
O O8 0.000000 0.662528 0.619173
O O9 0.170944 0.750000 0.459766
O O10 0.250000 0.636675 0.500000
O O11 0.000000 0.638716 0.458837
O O12 0.500000 0.437186 0.696411
O O13 0.250000 0.500000 0.696432
O O14 0.500000 0.647817 0.958871
O O15 0.306659 0.750000 0.948254
O O16 0.249059 0.628714 0.918535
O O17 0.250000 0.645213 0.000000
O O18 0.750000 0.500000 0.891360
O O19 0.000000 0.568583 0.895924
#
# Coordination Sequence:
#
# PCOD8279008 Si02
#       6
#    16  16  16  16  16  16
#     4   8  15  28  46  69  95 124 158 194 232 275
#     4   9  17  29  45  66  93 122 152 189 231 273
#     4   9  16  26  42  64  89 117 150 187 228 275
#     4   9  17  30  48  69  93 124 160 193 229 275
#     4  10  21  37  55  74  99 131 165 200 241 291
#     4  10  19  32  52  77 103 129 162 204 246 286
#
# _framework density 17.608364999999999
#
# number of rings (size 3 to 8) (size 9 to 14) (size 15 to 20)
#    0.000    2.833    0.000    1.500    0.000    4.667 
#    0.000    2.500    0.000    3.500    0.000    5.833 
#    0.000    0.000    0.000    0.000    0.000    0.000 
#
# Total GULP energy -594703.046793 kJ/mol
# GULP energy per Si atom -12389.646808 kJ/mol
# Density = 1.756829 g / cm^3
# Si number density = 17.608365 Si / 1000 Ang^3
#
#
#
# Elastic Constant Matrix: (Units=GPa)
#
#
# Indices 1 2 3 4 5 6 
#
# 1 84.2473 31.7263 75.9877 0.0000 0.0000 0.0000
# 2 31.7263 43.9918 61.5929 0.0000 0.0000 0.0000
# 3 75.9877 61.5929 207.8838 0.0000 0.0000 0.0000
# 4 0.0000 0.0000 0.0000 26.1610 0.0000 0.0000
# 5 0.0000 0.0000 0.0000 0.0000 37.9545 0.0000
# 6 0.0000 0.0000 0.0000 0.0000 0.0000 21.1321
#
#
#
# Elastic Compliance Matrix: (Units=1/GPa)
#
#
# Indices 1 2 3 4 5 6 
#
# 1 0.018806 -0.006730 -0.004880 0.000000 0.000000 0.000000
# 2 -0.006730 0.041254 -0.009763 0.000000 0.000000 0.000000
# 3 -0.004880 -0.009763 0.009487 0.000000 0.000000 0.000000
# 4 0.000000 0.000000 0.000000 0.038225 0.000000 0.000000
# 5 0.000000 0.000000 0.000000 0.000000 0.026347 0.000000
# 6 0.000000 0.000000 0.000000 0.000000 0.000000 0.047321
#
#
# Mechanical properties :
#
#
# Convention : Reuss Voigt Hill
#
# Bulk Modulus (GPa) = 37.31224 74.97075 56.14150
# Shear Modulus (GPa) = 21.44816 28.17058 24.80937
#
# Velocity S-wave (km/s) = 3.49387 4.00414 3.75768
# Velocity P-wave (km/s) = 6.12472 8.00292 7.12597
#
# Compressibility (1/GPa) = 0.02680086
#
# Stress axis : x y z
#
# Youngs Moduli (GPa) = 53.17492 24.23997 105.40885
#
# Poissons Ratio (x) = 0.16313 0.51441
# Poissons Ratio (y) = 0.35786 1.02911
# Poissons Ratio (z) = 0.25950 0.23666
#
# Static dielectric constant tensor:
#      x y z
#    x 3.366980 0.000000 0.000000 
#    y 0.000000 2.828850 0.000000 
#    z 0.000000 0.000000 4.021750 
# 
# 
# High freq. dielectric constant tensor:
#      x y z
#    x 1.688970 0.000000 0.000000 
#    y 0.000000 1.628180 0.000000 
#    z 0.000000 0.000000 1.707900 
# 
# From -- ./inp_files/43654.got.cif
#   From: 2010.03.12/outbox.cif.g09.slc.cpg/sg67_22_cif.got.tgz:43654.got - 2010.04.10 22:41:39.
