data_PCOD8279451
_publ_section_title
;
Structure prediction by ZEFSAII (Michael W. Deem and Ramdas Pophale) SiO2 
 PCOD8279451
Probable space group: C M M A
;
_chemical_formula_sum "Si O2"
_cell_formula_units_Z 96
_cell_length_a 18.730639
_cell_length_b 18.110427
_cell_length_c 16.402672
_cell_angle_alpha 90.000000
_cell_angle_beta 90.000000
_cell_angle_gamma 90.000000
_cell_volume 5564.112268
_symmetry_space_group_name_H-M "C M M A"
_symmetry_group_IT_number 67
_symmetry_cell_setting 'orthorhombic'
loop_
_space_group_symop_operation_xyz
x,y,z
-x,1/2-y,z
x,-y,-z
-x,1/2+y,-z
-x,-y,-z
x,1/2+y,-z
-x,y,z
x,1/2-y,z
1/2+x,1/2+y,z
1/2-x,-y,z
1/2+x,1/2-y,-z
1/2-x,y,-z
1/2-x,1/2-y,-z
1/2+x,y,-z
1/2-x,1/2+y,z
1/2+x,-y,z
loop_
_atom_site_type_symbol
_atom_site_label
_atom_site_fract_x
_atom_site_fract_y
_atom_site_fract_z
Si Si1 0.208683 0.835934 0.753832
Si Si2 0.146625 0.835703 0.333012
Si Si3 0.917210 0.416093 0.515971
Si Si4 0.720535 0.161609 0.085037
Si Si5 0.080035 0.837465 0.650891
Si Si6 0.578620 0.837660 0.834969
O O1 0.197739 0.750000 0.768229
O O2 0.270789 0.849649 0.688222
O O3 0.229395 0.870015 0.841992
O O4 0.134715 0.869529 0.718887
O O5 0.132020 0.750000 0.353577
O O6 0.129249 0.885417 0.410221
O O7 0.098533 0.861940 0.256710
O O8 0.895145 0.500000 0.500000
O O9 0.898674 0.369600 0.436154
O O10 0.000000 0.408763 0.539616
O O11 0.722281 0.250000 0.084652
O O12 0.638927 0.134264 0.101068
O O13 0.750000 0.129165 0.000000
O O14 0.086707 0.750000 0.643689
O O15 0.000000 0.861728 0.676263
O O16 0.500000 0.869352 0.857994
O O17 0.577852 0.750000 0.837663
#
# Coordination Sequence:
#
# PCOD8279451 Si02
#       6
#    16  16  16  16  16  16
#     4   8  15  27  42  61  82 107 142 177 207 245
#     4   9  16  27  44  62  82 111 144 176 210 249
#     4  10  20  31  42  60  87 113 139 176 216 249
#     4   8  13  22  36  55  83 113 133 159 208 257
#     4   9  17  30  46  60  79 112 149 177 202 242
#     4   8  13  21  35  56  79 104 138 174 202 238
#
# _framework density 17.253426000000001
#
# number of rings (size 3 to 8) (size 9 to 14) (size 15 to 20)
#    0.000    3.333    0.000    3.000    0.000    2.333 
#    0.000    5.000    0.000    5.000    0.000    0.000 
#    0.000   10.667    0.000   25.833    0.000   25.000 
#
# Total GULP energy -594838.162117 kJ/mol
# GULP energy per Si atom -12392.461711 kJ/mol
# Density = 1.721416 g / cm^3
# Si number density = 17.253426 Si / 1000 Ang^3
#
#
#
# Elastic Constant Matrix: (Units=GPa)
#
#
# Indices 1 2 3 4 5 6 
#
# 1 131.0885 16.8584 87.6091 0.0000 0.0000 0.0000
# 2 16.8584 22.8613 27.6581 0.0000 0.0000 0.0000
# 3 87.6091 27.6581 134.7460 0.0000 0.0000 0.0000
# 4 0.0000 0.0000 0.0000 0.2543 0.0000 0.0000
# 5 0.0000 0.0000 0.0000 0.0000 25.0297 0.0000
# 6 0.0000 0.0000 0.0000 0.0000 0.0000 8.9990
#
#
#
# Elastic Compliance Matrix: (Units=1/GPa)
#
#
# Indices 1 2 3 4 5 6 
#
# 1 0.013504 0.000884 -0.008961 0.000000 0.000000 0.000000
# 2 0.000884 0.058251 -0.012531 0.000000 0.000000 0.000000
# 3 -0.008961 -0.012531 0.015820 0.000000 0.000000 0.000000
# 4 0.000000 0.000000 0.000000 3.932384 0.000000 0.000000
# 5 0.000000 0.000000 0.000000 0.000000 0.039953 0.000000
# 6 0.000000 0.000000 0.000000 0.000000 0.000000 0.111123
#
#
# Mechanical properties :
#
#
# Convention : Reuss Voigt Hill
#
# Bulk Modulus (GPa) = 21.57165 61.43855 41.50510
# Shear Modulus (GPa) = 1.18267 17.29461 9.23864
#
# Velocity S-wave (km/s) = 0.82883 3.16948 2.31653
# Velocity P-wave (km/s) = 3.66687 7.00578 5.59137
#
# Compressibility (1/GPa) = 0.04635714
#
# Stress axis : x y z
#
# Youngs Moduli (GPa) = 74.05321 17.16706 63.21123
#
# Poissons Ratio (x) = -0.01517 0.56645
# Poissons Ratio (y) = -0.06543 0.79211
# Poissons Ratio (z) = 0.66361 0.21512
#
# Static dielectric constant tensor:
#      x y z
#    x 3.622000 0.000000 0.000000 
#    y 0.000000 2.676220 0.000000 
#    z 0.000000 0.000000 3.342420 
# 
# 
# High freq. dielectric constant tensor:
#      x y z
#    x 1.673940 0.000000 0.000000 
#    y 0.000000 1.606870 0.000000 
#    z 0.000000 0.000000 1.659280 
# 
# From -- ./inp_files/34237.got.cif
#   From: 2010.03.12/outbox.cif.g09.slc.cpg/sg67_18_cif.got.tgz:34237.got - 2010.04.10 22:41:39.
