data_PCOD8279740
_publ_section_title
;
Structure prediction by ZEFSAII (Michael W. Deem and Ramdas Pophale) SiO2 
 PCOD8279740
Probable space group: C M M A
;
_chemical_formula_sum "Si O2"
_cell_formula_units_Z 80
_cell_length_a 25.730127
_cell_length_b 8.718598
_cell_length_c 19.873699
_cell_angle_alpha 90.000000
_cell_angle_beta 90.000000
_cell_angle_gamma 90.000000
_cell_volume 4458.279493
_symmetry_space_group_name_H-M "C M M A"
_symmetry_group_IT_number 67
_symmetry_cell_setting 'orthorhombic'
loop_
_space_group_symop_operation_xyz
x,y,z
-x,1/2-y,z
x,-y,-z
-x,1/2+y,-z
-x,-y,-z
x,1/2+y,-z
-x,y,z
x,1/2-y,z
1/2+x,1/2+y,z
1/2-x,-y,z
1/2+x,1/2-y,-z
1/2-x,y,-z
1/2-x,1/2-y,-z
1/2+x,y,-z
1/2-x,1/2+y,z
1/2+x,-y,z
loop_
_atom_site_type_symbol
_atom_site_label
_atom_site_fract_x
_atom_site_fract_y
_atom_site_fract_z
Si Si1 0.000000 0.419311 0.830275
Si Si2 0.194554 0.567958 0.429122
Si Si3 0.304515 0.068818 0.928176
Si Si4 0.389283 0.433227 0.320363
Si Si5 0.606750 0.069678 0.823874
Si Si6 0.500000 0.917315 0.670907
O O1 0.051984 0.508141 0.852703
O O2 0.000000 0.250000 0.863508
O O3 0.000000 0.402688 0.750823
O O4 0.175511 0.500000 0.500000
O O5 0.198479 0.750000 0.434889
O O6 0.250000 0.500000 0.408488
O O7 0.154474 0.513842 0.372285
O O8 0.298777 0.250000 0.934870
O O9 0.348823 0.021003 0.875868
O O10 0.250000 0.000000 0.902456
O O11 0.320154 0.000000 0.000000
O O12 0.392978 0.250000 0.314182
O O13 0.376395 0.499404 0.247481
O O14 0.445312 0.499584 0.348004
O O15 0.602022 0.250000 0.815159
O O16 0.500000 0.750000 0.636543
#
# Coordination Sequence:
#
# PCOD8279740 Si02
#       6
#     8  16  16  16  16   8
#     4   9  17  31  52  75 102 137 169 201 249 303
#     4  10  20  34  51  71  97 131 169 207 250 300
#     4  10  21  36  54  75 101 135 171 209 254 303
#     4   9  18  32  52  75  98 129 167 204 246 299
#     4  10  20  33  52  79 106 131 166 212 254 295
#     4   7  12  27  48  69  93 121 155 193 234 283
#
# _framework density 17.944141999999999
#
# number of rings (size 3 to 8) (size 9 to 14) (size 15 to 20)
#    0.000    2.600    0.000    4.500    0.000    5.600 
#    0.000    5.000    0.000    0.000    0.000    0.000 
#    0.000    0.000    0.000    0.000    0.000    0.000 
#
# Total GULP energy -495785.701269 kJ/mol
# GULP energy per Si atom -12394.642532 kJ/mol
# Density = 1.790330 g / cm^3
# Si number density = 17.944142 Si / 1000 Ang^3
#
#
#
# Elastic Constant Matrix: (Units=GPa)
#
#
# Indices 1 2 3 4 5 6 
#
# 1 177.9860 56.1416 103.5414 0.0000 0.0000 0.0000
# 2 56.1416 71.4636 42.2662 0.0000 0.0000 0.0000
# 3 103.5414 42.2662 102.0295 0.0000 0.0000 0.0000
# 4 0.0000 0.0000 0.0000 25.2714 0.0000 0.0000
# 5 0.0000 0.0000 0.0000 0.0000 9.3337 0.0000
# 6 0.0000 0.0000 0.0000 0.0000 0.0000 26.6914
#
#
#
# Elastic Compliance Matrix: (Units=1/GPa)
#
#
# Indices 1 2 3 4 5 6 
#
# 1 0.014356 -0.003525 -0.013108 0.000000 0.000000 0.000000
# 2 -0.003525 0.019400 -0.004459 0.000000 0.000000 0.000000
# 3 -0.013108 -0.004459 0.024951 0.000000 0.000000 0.000000
# 4 0.000000 0.000000 0.000000 0.039570 0.000000 0.000000
# 5 0.000000 0.000000 0.000000 0.000000 0.107138 0.000000
# 6 0.000000 0.000000 0.000000 0.000000 0.000000 0.037465
#
#
# Mechanical properties :
#
#
# Convention : Reuss Voigt Hill
#
# Bulk Modulus (GPa) = 60.52741 83.93086 72.22913
# Shear Modulus (GPa) = 17.20737 22.22797 19.71767
#
# Velocity S-wave (km/s) = 3.10004 3.52338 3.31847
# Velocity P-wave (km/s) = 6.82773 7.96412 7.41772
#
# Compressibility (1/GPa) = 0.01652144
#
# Stress axis : x y z
#
# Youngs Moduli (GPa) = 69.65674 51.54701 40.07864
#
# Poissons Ratio (x) = 0.18172 0.52537
# Poissons Ratio (y) = 0.24556 0.17871
# Poissons Ratio (z) = 0.91309 0.22984
#
# Static dielectric constant tensor:
#      x y z
#    x 3.772220 0.000000 0.000000 
#    y 0.000000 3.315550 0.000000 
#    z 0.000000 0.000000 3.119600 
# 
# 
# High freq. dielectric constant tensor:
#      x y z
#    x 1.712630 0.000000 0.000000 
#    y 0.000000 1.695150 0.000000 
#    z 0.000000 0.000000 1.668420 
# 
# From -- ./inp_files/35778.got.cif
#   From: 2010.03.12/outbox.cif.g09.slc.cpg/sg67_18_cif.got.tgz:35778.got - 2010.04.10 22:41:39.
