data_PCOD8279849
_publ_section_title
;
Structure prediction by ZEFSAII (Michael W. Deem and Ramdas Pophale) SiO2 
 PCOD8279849
Probable space group: C M M A
;
_chemical_formula_sum "Si O2"
_cell_formula_units_Z 88
_cell_length_a 30.716927
_cell_length_b 9.407063
_cell_length_c 15.749281
_cell_angle_alpha 90.000000
_cell_angle_beta 90.000000
_cell_angle_gamma 90.000000
_cell_volume 4550.850303
_symmetry_space_group_name_H-M "C M M A"
_symmetry_group_IT_number 67
_symmetry_cell_setting 'orthorhombic'
loop_
_space_group_symop_operation_xyz
x,y,z
-x,1/2-y,z
x,-y,-z
-x,1/2+y,-z
-x,-y,-z
x,1/2+y,-z
-x,y,z
x,1/2-y,z
1/2+x,1/2+y,z
1/2-x,-y,z
1/2+x,1/2-y,-z
1/2-x,y,-z
1/2-x,1/2-y,-z
1/2+x,y,-z
1/2-x,1/2+y,z
1/2+x,-y,z
loop_
_atom_site_type_symbol
_atom_site_label
_atom_site_fract_x
_atom_site_fract_y
_atom_site_fract_z
Si Si1 0.888212 0.914476 0.917462
Si Si2 0.250000 0.000000 0.718018
Si Si3 0.550049 0.086845 0.759366
Si Si4 0.612998 0.090341 0.339522
Si Si5 0.685804 0.587686 0.422427
Si Si6 0.327019 0.598853 0.822047
O O1 0.882440 0.750000 0.939644
O O2 0.925017 0.941190 0.847284
O O3 0.840919 0.972696 0.885718
O O4 0.903617 0.000000 0.000000
O O5 0.218279 0.906979 0.658162
O O6 0.279070 0.908504 0.781914
O O7 0.500000 0.048235 0.775007
O O8 0.556423 0.250000 0.731202
O O9 0.567710 0.988457 0.682606
O O10 0.604761 0.250000 0.376442
O O11 0.638994 0.101169 0.253337
O O12 0.640488 0.993590 0.404336
O O13 0.707835 0.500000 0.500000
O O14 0.676334 0.750000 0.449455
O O15 0.329547 0.750000 0.871238
#
# Coordination Sequence:
#
# PCOD8279849 Si02
#       6
#    16   8  16  16  16  16
#     4  10  20  34  52  74 103 138 173 212 259 308
#     4  10  21  34  55  80 104 132 172 218 261 304
#     4   9  18  33  54  80 107 136 172 212 256 308
#     4   9  18  33  52  75 104 138 175 212 253 306
#     4  11  22  35  53  78 109 142 174 212 259 308
#     4   9  18  33  52  73  99 133 172 212 255 305
#
# _framework density 19.337045
#
# number of rings (size 3 to 8) (size 9 to 14) (size 15 to 20)
#    0.000    2.364    0.000    2.455    0.000    9.455 
#    0.000    0.455    0.000    2.727    0.000    0.000 
#    0.000    0.000    0.000    0.000    0.000    0.000 
#
# Total GULP energy -545292.631292 kJ/mol
# GULP energy per Si atom -12393.014348 kJ/mol
# Density = 1.929303 g / cm^3
# Si number density = 19.337045 Si / 1000 Ang^3
#
#
#
# Elastic Constant Matrix: (Units=GPa)
#
#
# Indices 1 2 3 4 5 6 
#
# 1 110.3641 54.8975 37.5890 0.0000 0.0000 0.0000
# 2 54.8975 158.0775 33.9456 0.0000 0.0000 0.0000
# 3 37.5890 33.9456 35.6353 0.0000 0.0000 0.0000
# 4 0.0000 0.0000 0.0000 32.0141 0.0000 0.0000
# 5 0.0000 0.0000 0.0000 0.0000 19.3404 0.0000
# 6 0.0000 0.0000 0.0000 0.0000 0.0000 9.6958
#
#
#
# Elastic Compliance Matrix: (Units=1/GPa)
#
#
# Indices 1 2 3 4 5 6 
#
# 1 0.014746 -0.002239 -0.013422 0.000000 0.000000 0.000000
# 2 -0.002239 0.008293 -0.005538 0.000000 0.000000 0.000000
# 3 -0.013422 -0.005538 0.047495 0.000000 0.000000 0.000000
# 4 0.000000 0.000000 0.000000 0.031236 0.000000 0.000000
# 5 0.000000 0.000000 0.000000 0.000000 0.051705 0.000000
# 6 0.000000 0.000000 0.000000 0.000000 0.000000 0.103138
#
#
# Mechanical properties :
#
#
# Convention : Reuss Voigt Hill
#
# Bulk Modulus (GPa) = 35.54076 61.88233 48.71155
# Shear Modulus (GPa) = 16.21330 24.05304 20.13317
#
# Velocity S-wave (km/s) = 2.89876 3.53070 3.23022
# Velocity P-wave (km/s) = 5.44272 6.97800 6.25763
#
# Compressibility (1/GPa) = 0.02813671
#
# Stress axis : x y z
#
# Youngs Moduli (GPa) = 67.81584 120.58752 21.05486
#
# Poissons Ratio (x) = 0.26997 0.28259
# Poissons Ratio (y) = 0.15183 0.11660
# Poissons Ratio (z) = 0.91020 0.66781
#
# Static dielectric constant tensor:
#      x y z
#    x 3.538990 0.000000 0.000000 
#    y 0.000000 3.826010 0.000000 
#    z 0.000000 0.000000 3.360400 
# 
# 
# High freq. dielectric constant tensor:
#      x y z
#    x 1.734870 0.000000 0.000000 
#    y 0.000000 1.764080 0.000000 
#    z 0.000000 0.000000 1.729800 
# 
# From -- ./inp_files/36156.got.cif
#   From: 2010.03.12/outbox.cif.g09.slc.cpg/sg67_19_cif.got.tgz:36156.got - 2010.04.10 22:41:39.
