data_PCOD8279366
_publ_section_title
;
Structure prediction by ZEFSAII (Michael W. Deem and Ramdas Pophale) SiO2 
 PCOD8279366
Probable space group: C M M A
;
_chemical_formula_sum "Si O2"
_cell_formula_units_Z 84
_cell_length_a 17.999165
_cell_length_b 20.259446
_cell_length_c 12.111324
_cell_angle_alpha 90.000000
_cell_angle_beta 90.000000
_cell_angle_gamma 90.000000
_cell_volume 4416.431979
_symmetry_space_group_name_H-M "C M M A"
_symmetry_group_IT_number 67
_symmetry_cell_setting 'orthorhombic'
loop_
_space_group_symop_operation_xyz
x,y,z
-x,1/2-y,z
x,-y,-z
-x,1/2+y,-z
-x,-y,-z
x,1/2+y,-z
-x,y,z
x,1/2-y,z
1/2+x,1/2+y,z
1/2-x,-y,z
1/2+x,1/2-y,-z
1/2-x,y,-z
1/2-x,1/2-y,-z
1/2+x,y,-z
1/2-x,1/2+y,z
1/2+x,-y,z
loop_
_atom_site_type_symbol
_atom_site_label
_atom_site_fract_x
_atom_site_fract_y
_atom_site_fract_z
Si Si1 0.411590 0.250000 0.340420
Si Si2 0.911826 0.129647 0.807963
Si Si3 0.828195 0.988515 0.294418
Si Si4 0.588012 0.878071 0.275825
Si Si5 0.411727 0.250000 0.589939
Si Si6 0.412007 0.823420 0.043427
Si Si7 0.250000 0.000000 0.500000
O O1 0.500000 0.250000 0.341266
O O2 0.382470 0.314256 0.275331
O O3 0.380149 0.250000 0.464982
O O4 0.881029 0.059397 0.772018
O O5 0.000000 0.125476 0.805774
O O6 0.881788 0.143831 0.931019
O O7 0.750000 0.000000 0.228300
O O8 0.870668 0.056962 0.317259
O O9 0.804259 0.958880 0.415993
O O10 0.500000 0.887749 0.288898
O O11 0.616245 0.815547 0.347223
O O12 0.611242 0.866946 0.148311
O O13 0.500000 0.250000 0.589986
O O14 0.500000 0.817603 0.036909
O O15 0.378242 0.750000 0.055335
#
# Coordination Sequence:
#
# PCOD8279366 Si02
#       7
#     8  16  16  16   8  16   4
#     4   9  18  29  50  84 115 137 178 235 280 322
#     4  10  19  35  59  87 114 146 186 232 281 338
#     4  10  23  40  56  76 110 152 194 229 281 326
#     4  10  19  35  59  87 114 146 186 232 281 338
#     4   9  18  29  50  84 115 137 178 235 280 322
#     4   9  16  31  57  88 120 148 177 224 287 340
#     4   8  24  44  58  64 116 164 190 226 282 348
#
# _framework density 19.019877999999999
#
# number of rings (size 3 to 8) (size 9 to 14) (size 15 to 20)
#    0.571    1.905    1.905    0.571    2.667    0.762 
#    0.000    6.667    0.000    3.429    0.000    0.000 
#    0.000    0.000    0.000    0.000    0.000    0.000 
#
# Total GULP energy -520388.939871 kJ/mol
# GULP energy per Si atom -12390.212854 kJ/mol
# Density = 1.897659 g / cm^3
# Si number density = 19.019878 Si / 1000 Ang^3
#
#
#
# Elastic Constant Matrix: (Units=GPa)
#
#
# Indices 1 2 3 4 5 6 
#
# 1 36.4969 31.7009 23.5056 0.0000 0.0000 0.0000
# 2 31.7009 123.0876 49.6782 0.0000 0.0000 0.0000
# 3 23.5056 49.6782 149.9263 0.0000 0.0000 0.0000
# 4 0.0000 0.0000 0.0000 24.4091 0.0000 0.0000
# 5 0.0000 0.0000 0.0000 0.0000 16.2539 0.0000
# 6 0.0000 0.0000 0.0000 0.0000 0.0000 -0.5474
#
#
#
# Elastic Compliance Matrix: (Units=1/GPa)
#
#
# Indices 1 2 3 4 5 6 
#
# 1 0.036431 -0.008170 -0.003005 0.000000 0.000000 0.000000
# 2 -0.008170 0.011211 -0.002434 0.000000 0.000000 0.000000
# 3 -0.003005 -0.002434 0.007947 0.000000 0.000000 0.000000
# 4 0.000000 0.000000 0.000000 0.040968 0.000000 0.000000
# 5 0.000000 0.000000 0.000000 0.000000 0.061524 0.000000
# 6 0.000000 0.000000 0.000000 0.000000 0.000000 -1.826701
#
#
# Mechanical properties :
#
#
# Convention : Reuss Voigt Hill
#
# Bulk Modulus (GPa) = 35.24540 57.69778 46.47159
# Shear Modulus (GPa) = -3.06383 21.66486 9.30052
#
# Velocity S-wave (km/s) = -1.27057 3.37866 2.21371
# Velocity P-wave (km/s) = 4.05199 6.75440 5.56958
#
# Compressibility (1/GPa) = 0.02837250
#
# Stress axis : x y z
#
# Youngs Moduli (GPa) = 27.44905 89.20008 125.82683
#
# Poissons Ratio (x) = 0.72877 0.37805
# Poissons Ratio (y) = 0.22426 0.30623
# Poissons Ratio (z) = 0.08247 0.21709
#
# Static dielectric constant tensor:
#      x y z
#    x 3.058960 0.000000 0.000000 
#    y 0.000000 3.349140 0.000000 
#    z 0.000000 0.000000 3.732950 
# 
# 
# High freq. dielectric constant tensor:
#      x y z
#    x 1.696470 0.000000 0.000000 
#    y 0.000000 1.732480 0.000000 
#    z 0.000000 0.000000 1.749980 
# 
# From -- ./inp_files/19413.got.cif
#   From: 2010.03.12/outbox.cif.g09.slc.cpg/sg67_10_cif.got.tgz:19413.got - 2010.04.10 22:41:39.
