data_PCOD8279039
_publ_section_title
;
Structure prediction by ZEFSAII (Michael W. Deem and Ramdas Pophale) SiO2 
 PCOD8279039
Probable space group: C M M A
;
_chemical_formula_sum "Si O2"
_cell_formula_units_Z 112
_cell_length_a 29.953407
_cell_length_b 14.277960
_cell_length_c 12.004595
_cell_angle_alpha 90.000000
_cell_angle_beta 90.000000
_cell_angle_gamma 90.000000
_cell_volume 5134.047724
_symmetry_space_group_name_H-M "C M M A"
_symmetry_group_IT_number 67
_symmetry_cell_setting 'orthorhombic'
loop_
_space_group_symop_operation_xyz
x,y,z
-x,1/2-y,z
x,-y,-z
-x,1/2+y,-z
-x,-y,-z
x,1/2+y,-z
-x,y,z
x,1/2-y,z
1/2+x,1/2+y,z
1/2-x,-y,z
1/2+x,1/2-y,-z
1/2-x,y,-z
1/2-x,1/2-y,-z
1/2+x,y,-z
1/2-x,1/2+y,z
1/2+x,-y,z
loop_
_atom_site_type_symbol
_atom_site_label
_atom_site_fract_x
_atom_site_fract_y
_atom_site_fract_z
Si Si1 0.791957 0.142395 0.423037
Si Si2 0.711620 0.146301 0.089173
Si Si3 0.137623 0.642351 0.395073
Si Si4 0.635328 0.647888 0.079493
Si Si5 0.549101 0.602589 0.955810
Si Si6 0.548764 0.141191 0.291407
Si Si7 0.182494 0.494149 0.238676
O O1 0.788148 0.250000 0.385410
O O2 0.750000 0.114875 0.500000
O O3 0.839235 0.122920 0.485629
O O4 0.789622 0.077425 0.314973
O O5 0.714743 0.250000 0.146610
O O6 0.717768 0.058010 0.170826
O O7 0.750000 0.136490 0.000000
O O8 0.663968 0.133434 0.031507
O O9 0.148266 0.750000 0.359930
O O10 0.084107 0.623565 0.392539
O O11 0.155966 0.571391 0.305841
O O12 0.645968 0.750000 0.133972
O O13 0.584303 0.651520 0.038120
O O14 0.647194 0.565862 0.166018
O O15 0.500000 0.652100 0.962228
O O16 0.544030 0.500000 0.000000
O O17 0.565220 0.598727 0.826727
O O18 0.500000 0.100240 0.326712
O O19 0.544624 0.250000 0.268370
#
# Coordination Sequence:
#
# PCOD8279039 Si02
#       7
#    16  16  16  16  16  16  16
#     4  10  24  45  65  88 117 151 198 253 305 359
#     4  10  23  41  60  88 124 158 196 242 295 357
#     4  10  21  37  60  89 118 149 194 253 308 356
#     4  11  23  37  55  84 123 164 203 244 292 351
#     4  10  19  32  53  83 119 159 204 251 297 353
#     4   9  17  31  54  83 114 151 195 242 293 348
#     4  12  23  39  63  87 115 158 201 243 298 361
#
# _framework density 21.815145999999999
#
# number of rings (size 3 to 8) (size 9 to 14) (size 15 to 20)
#    0.000    1.714    0.000    4.714    0.000    7.714 
#    0.000    4.286    0.000    5.143    0.000    2.000 
#    0.000    0.000    0.000    0.000    0.000    0.000 
#
# Total GULP energy -693913.572415 kJ/mol
# GULP energy per Si atom -12391.313793 kJ/mol
# Density = 2.176549 g / cm^3
# Si number density = 21.815146 Si / 1000 Ang^3
#
#
#
# Elastic Constant Matrix: (Units=GPa)
#
#
# Indices 1 2 3 4 5 6 
#
# 1 111.6458 43.0443 50.4185 0.0000 0.0000 0.0000
# 2 43.0443 130.5644 60.1300 0.0000 0.0000 0.0000
# 3 50.4185 60.1300 85.0094 0.0000 0.0000 0.0000
# 4 0.0000 0.0000 0.0000 -16.2426 0.0000 0.0000
# 5 0.0000 0.0000 0.0000 0.0000 35.9280 0.0000
# 6 0.0000 0.0000 0.0000 0.0000 0.0000 20.7033
#
#
#
# Elastic Compliance Matrix: (Units=1/GPa)
#
#
# Indices 1 2 3 4 5 6 
#
# 1 0.012327 -0.001034 -0.006580 0.000000 0.000000 0.000000
# 2 -0.001034 0.011446 -0.007483 0.000000 0.000000 0.000000
# 3 -0.006580 -0.007483 0.020959 0.000000 0.000000 0.000000
# 4 0.000000 0.000000 0.000000 -0.061567 0.000000 0.000000
# 5 0.000000 0.000000 0.000000 0.000000 0.027833 0.000000
# 6 0.000000 0.000000 0.000000 0.000000 0.000000 0.048301
#
#
# Mechanical properties :
#
#
# Convention : Reuss Voigt Hill
#
# Bulk Modulus (GPa) = 68.78235 70.48947 69.63591
# Shear Modulus (GPa) = 52.99997 19.65288 36.32642
#
# Velocity S-wave (km/s) = 4.93435 3.00473 4.08510
# Velocity P-wave (km/s) = 8.00386 6.66484 7.36485
#
# Compressibility (1/GPa) = 0.01453861
#
# Stress axis : x y z
#
# Youngs Moduli (GPa) = 81.12396 87.36584 47.71220
#
# Poissons Ratio (x) = 0.09030 0.31394
# Poissons Ratio (y) = 0.08385 0.35704
# Poissons Ratio (z) = 0.53378 0.65378
#
# Static dielectric constant tensor:
#      x y z
#    x 4.052760 0.000000 0.000000 
#    y 0.000000 4.358890 0.000000 
#    z 0.000000 0.000000 3.704150 
# 
# 
# High freq. dielectric constant tensor:
#      x y z
#    x 1.866600 0.000000 0.000000 
#    y 0.000000 1.873580 0.000000 
#    z 0.000000 0.000000 1.824370 
# 
# From -- ./inp_files/23840.got.cif
#   From: 2010.03.12/outbox.cif.g09.slc.cpg/sg67_12_cif.got.tgz:23840.got - 2010.04.10 22:41:39.
