data_PCOD8279325
_publ_section_title
;
Structure prediction by ZEFSAII (Michael W. Deem and Ramdas Pophale) SiO2 
 PCOD8279325
Probable space group: C M M A
;
_chemical_formula_sum "Si O2"
_cell_formula_units_Z 80
_cell_length_a 17.881958
_cell_length_b 24.673732
_cell_length_c 9.488525
_cell_angle_alpha 90.000000
_cell_angle_beta 90.000000
_cell_angle_gamma 90.000000
_cell_volume 4186.476136
_symmetry_space_group_name_H-M "C M M A"
_symmetry_group_IT_number 67
_symmetry_cell_setting 'orthorhombic'
loop_
_space_group_symop_operation_xyz
x,y,z
-x,1/2-y,z
x,-y,-z
-x,1/2+y,-z
-x,-y,-z
x,1/2+y,-z
-x,y,z
x,1/2-y,z
1/2+x,1/2+y,z
1/2-x,-y,z
1/2+x,1/2-y,-z
1/2-x,y,-z
1/2-x,1/2-y,-z
1/2+x,y,-z
1/2-x,1/2+y,z
1/2+x,-y,z
loop_
_atom_site_type_symbol
_atom_site_label
_atom_site_fract_x
_atom_site_fract_y
_atom_site_fract_z
Si Si1 0.771010 0.812385 0.838475
Si Si2 0.193160 0.905440 0.312579
Si Si3 0.917077 0.877164 0.813021
Si Si4 0.084834 0.447249 0.920356
Si Si5 0.654853 0.055450 0.586882
O O1 0.761854 0.750000 0.797570
O O2 0.712471 0.846430 0.746584
O O3 0.854987 0.830592 0.797564
O O4 0.750000 0.823072 0.000000
O O5 0.137111 0.937878 0.212641
O O6 0.265473 0.944469 0.332064
O O7 0.155520 0.897602 0.466208
O O8 0.906568 0.927520 0.703135
O O9 0.000000 0.852871 0.787301
O O10 0.910685 0.897343 0.972781
O O11 0.000000 0.456147 0.866831
O O12 0.115182 0.500000 0.000000
O O13 0.638301 0.000000 0.500000
#
# Coordination Sequence:
#
# PCOD8279325 Si02
#       5
#    16  16  16  16  16
#     4  10  20  37  59  82 107 141 189 244 295 329
#     4  10  19  35  53  79 109 145 192 232 273 334
#     4  10  21  37  56  84 114 146 187 228 281 342
#     4  10  20  33  52  80 113 146 182 228 281 335
#     4  10  21  35  53  83 118 152 184 219 271 338
#
# _framework density 19.109151000000001
#
# number of rings (size 3 to 8) (size 9 to 14) (size 15 to 20)
#    0.000    2.000    2.000    2.400    0.000    3.200 
#    0.000   10.000    0.000    2.400    0.000    0.000 
#    0.000    0.000    0.000    0.000    0.000    0.000 
#
# Total GULP energy -495750.378177 kJ/mol
# GULP energy per Si atom -12393.759454 kJ/mol
# Density = 1.906566 g / cm^3
# Si number density = 19.109151 Si / 1000 Ang^3
#
#
#
# Elastic Constant Matrix: (Units=GPa)
#
#
# Indices 1 2 3 4 5 6 
#
# 1 97.1197 30.7662 50.1236 0.0000 0.0000 0.0000
# 2 30.7662 94.5314 30.7448 0.0000 0.0000 0.0000
# 3 50.1236 30.7448 102.0941 0.0000 0.0000 0.0000
# 4 0.0000 0.0000 0.0000 29.5075 0.0000 0.0000
# 5 0.0000 0.0000 0.0000 0.0000 18.3878 0.0000
# 6 0.0000 0.0000 0.0000 0.0000 0.0000 21.2426
#
#
#
# Elastic Compliance Matrix: (Units=1/GPa)
#
#
# Indices 1 2 3 4 5 6 
#
# 1 0.014361 -0.002639 -0.006256 0.000000 0.000000 0.000000
# 2 -0.002639 0.012212 -0.002382 0.000000 0.000000 0.000000
# 3 -0.006256 -0.002382 0.013584 0.000000 0.000000 0.000000
# 4 0.000000 0.000000 0.000000 0.033890 0.000000 0.000000
# 5 0.000000 0.000000 0.000000 0.000000 0.054384 0.000000
# 6 0.000000 0.000000 0.000000 0.000000 0.000000 0.047075
#
#
# Mechanical properties :
#
#
# Convention : Reuss Voigt Hill
#
# Bulk Modulus (GPa) = 56.80908 57.44604 57.12756
# Shear Modulus (GPa) = 24.51850 25.96829 25.24339
#
# Velocity S-wave (km/s) = 3.58589 3.69039 3.63851
# Velocity P-wave (km/s) = 6.85114 6.94881 6.90015
#
# Compressibility (1/GPa) = 0.01760282
#
# Stress axis : x y z
#
# Youngs Moduli (GPa) = 69.63100 81.88564 73.61855
#
# Poissons Ratio (x) = 0.21613 0.46056
# Poissons Ratio (y) = 0.18378 0.17534
# Poissons Ratio (z) = 0.43561 0.19503
#
# Static dielectric constant tensor:
#      x y z
#    x 3.503640 0.000000 0.000000 
#    y 0.000000 3.256640 0.000000 
#    z 0.000000 0.000000 3.800170 
# 
# 
# High freq. dielectric constant tensor:
#      x y z
#    x 1.736400 0.000000 0.000000 
#    y 0.000000 1.714200 0.000000 
#    z 0.000000 0.000000 1.757420 
# 
# From -- ./inp_files/9938.got.cif
#   From: 2010.03.12/outbox.cif.g09.slc.cpg/sg67_5_cif.got.tgz:9938.got - 2010.04.10 22:41:39.
