data_PCOD8279762
_publ_section_title
;
Structure prediction by ZEFSAII (Michael W. Deem and Ramdas Pophale) SiO2 
 PCOD8279762
Probable space group: C M M A
;
_chemical_formula_sum "Si O2"
_cell_formula_units_Z 80
_cell_length_a 16.552527
_cell_length_b 26.341865
_cell_length_c 9.032053
_cell_angle_alpha 90.000000
_cell_angle_beta 90.000000
_cell_angle_gamma 90.000000
_cell_volume 3938.195776
_symmetry_space_group_name_H-M "C M M A"
_symmetry_group_IT_number 67
_symmetry_cell_setting 'orthorhombic'
loop_
_space_group_symop_operation_xyz
x,y,z
-x,1/2-y,z
x,-y,-z
-x,1/2+y,-z
-x,-y,-z
x,1/2+y,-z
-x,y,z
x,1/2-y,z
1/2+x,1/2+y,z
1/2-x,-y,z
1/2+x,1/2-y,-z
1/2-x,y,-z
1/2-x,1/2-y,-z
1/2+x,y,-z
1/2-x,1/2+y,z
1/2+x,-y,z
loop_
_atom_site_type_symbol
_atom_site_label
_atom_site_fract_x
_atom_site_fract_y
_atom_site_fract_z
Si Si1 0.336214 0.050018 0.076234
Si Si2 0.159429 0.657525 0.440072
Si Si3 0.663214 0.047209 0.425309
Si Si4 0.091670 0.250000 0.388963
Si Si5 0.095658 0.750000 0.931404
Si Si6 0.405338 0.155637 0.124103
O O1 0.327392 0.039268 0.250437
O O2 0.390762 0.100071 0.051833
O O3 0.250000 0.059612 0.000000
O O4 0.376524 0.000000 0.000000
O O5 0.250000 0.662818 0.500000
O O6 0.122140 0.601097 0.467646
O O7 0.107125 0.699578 0.519332
O O8 0.152821 0.665494 0.264236
O O9 0.750000 0.048310 0.500000
O O10 0.614067 0.000000 0.500000
O O11 0.137592 0.250000 0.231172
O O12 0.000000 0.250000 0.344460
O O13 0.000000 0.750000 0.926318
O O14 0.124049 0.801403 0.010892
O O15 0.500000 0.160727 0.167120
#
# Coordination Sequence:
#
# PCOD8279762 Si02
#       6
#    16  16  16   8   8  16
#     4  10  20  33  54  83 112 146 190 232 274 324
#     4  10  21  36  57  84 110 142 188 232 274 334
#     4   9  17  31  52  78 109 142 176 224 279 327
#     4  11  22  37  57  80 111 147 186 233 283 329
#     4   9  21  37  54  78 106 143 182 221 274 331
#     4  10  21  39  59  80 113 152 186 224 281 341
#
# _framework density 20.313870000000001
#
# number of rings (size 3 to 8) (size 9 to 14) (size 15 to 20)
#    0.000    2.200    0.000    3.900    0.000    7.600 
#    0.000    1.500    0.000   15.000    0.000    0.000 
#    0.000    0.800    0.000    0.000    0.000    0.000 
#
# Total GULP energy -495595.636691 kJ/mol
# GULP energy per Si atom -12389.890917 kJ/mol
# Density = 2.026764 g / cm^3
# Si number density = 20.313870 Si / 1000 Ang^3
#
#
#
# Elastic Constant Matrix: (Units=GPa)
#
#
# Indices 1 2 3 4 5 6 
#
# 1 36.8537 21.5182 18.4792 0.0000 0.0000 0.0000
# 2 21.5182 209.4826 102.4101 0.0000 0.0000 0.0000
# 3 18.4792 102.4101 135.8408 0.0000 0.0000 0.0000
# 4 0.0000 0.0000 0.0000 49.9573 0.0000 0.0000
# 5 0.0000 0.0000 0.0000 0.0000 23.7091 0.0000
# 6 0.0000 0.0000 0.0000 0.0000 0.0000 10.3067
#
#
#
# Elastic Compliance Matrix: (Units=1/GPa)
#
#
# Indices 1 2 3 4 5 6 
#
# 1 0.029494 -0.001692 -0.002737 0.000000 0.000000 0.000000
# 2 -0.001692 0.007657 -0.005542 0.000000 0.000000 0.000000
# 3 -0.002737 -0.005542 0.011912 0.000000 0.000000 0.000000
# 4 0.000000 0.000000 0.000000 0.020017 0.000000 0.000000
# 5 0.000000 0.000000 0.000000 0.000000 0.042178 0.000000
# 6 0.000000 0.000000 0.000000 0.000000 0.000000 0.097024
#
#
# Mechanical properties :
#
#
# Convention : Reuss Voigt Hill
#
# Bulk Modulus (GPa) = 34.33880 74.11023 54.22451
# Shear Modulus (GPa) = 21.01441 32.77927 26.89684
#
# Velocity S-wave (km/s) = 3.21983 4.02137 3.64272
# Velocity P-wave (km/s) = 5.54652 7.62389 6.66662
#
# Compressibility (1/GPa) = 0.02912158
#
# Stress axis : x y z
#
# Youngs Moduli (GPa) = 33.90474 130.59958 83.94660
#
# Poissons Ratio (x) = 0.22093 0.22976
# Poissons Ratio (y) = 0.05736 0.46527
# Poissons Ratio (z) = 0.09280 0.72384
#
# Static dielectric constant tensor:
#      x y z
#    x 3.256480 0.000000 0.000000 
#    y 0.000000 5.170520 0.000000 
#    z 0.000000 0.000000 3.862860 
# 
# 
# High freq. dielectric constant tensor:
#      x y z
#    x 1.747520 0.000000 0.000000 
#    y 0.000000 1.825550 0.000000 
#    z 0.000000 0.000000 1.802760 
# 
# From -- ./inp_files/9993.got.cif
#   From: 2010.03.12/outbox.cif.g09.slc.cpg/sg67_5_cif.got.tgz:9993.got - 2010.04.10 22:41:39.
