data_PCOD8279691
_publ_section_title
;
Structure prediction by ZEFSAII (Michael W. Deem and Ramdas Pophale) SiO2 
 PCOD8279691
Probable space group: C M M A
;
_chemical_formula_sum "Si O2"
_cell_formula_units_Z 68
_cell_length_a 9.956114
_cell_length_b 18.510683
_cell_length_c 21.574490
_cell_angle_alpha 90.000000
_cell_angle_beta 90.000000
_cell_angle_gamma 90.000000
_cell_volume 3976.059204
_symmetry_space_group_name_H-M "C M M A"
_symmetry_group_IT_number 67
_symmetry_cell_setting 'orthorhombic'
loop_
_space_group_symop_operation_xyz
x,y,z
-x,1/2-y,z
x,-y,-z
-x,1/2+y,-z
-x,-y,-z
x,1/2+y,-z
-x,y,z
x,1/2-y,z
1/2+x,1/2+y,z
1/2-x,-y,z
1/2+x,1/2-y,-z
1/2-x,y,-z
1/2-x,1/2-y,-z
1/2+x,y,-z
1/2-x,1/2+y,z
1/2+x,-y,z
loop_
_atom_site_type_symbol
_atom_site_label
_atom_site_fract_x
_atom_site_fract_y
_atom_site_fract_z
Si Si1 0.349789 0.441999 0.119289
Si Si2 0.343092 0.170768 0.214962
Si Si3 0.653038 0.332925 0.444913
Si Si4 0.250000 0.000000 0.000000
Si Si5 0.842438 0.429974 0.674113
O O1 0.500000 0.463137 0.139307
O O2 0.250000 0.500000 0.150763
O O3 0.313510 0.363325 0.146774
O O4 0.337154 0.446408 0.044115
O O5 0.500000 0.181030 0.225927
O O6 0.273561 0.250000 0.218030
O O7 0.289288 0.117219 0.267871
O O8 0.500000 0.342201 0.467727
O O9 0.681845 0.250000 0.425926
O O10 0.750000 0.358307 0.500000
O O11 0.683049 0.382550 0.386455
O O12 0.750000 0.500000 0.669719
O O13 0.000000 0.451097 0.680900
#
# Coordination Sequence:
#
# PCOD8279691 Si02
#       5
#    16  16  16   4  16
#     4   9  17  29  49  72  95 126 159 194 235 282
#     4   9  17  31  51  73  95 124 164 204 240 282
#     4   9  18  33  52  73  97 128 164 200 241 287
#     4   8  18  28  48  76  98 128 158 192 238 280
#     4  10  20  33  51  74  98 126 161 204 245 285
#
# _framework density 17.102360999999998
#
# number of rings (size 3 to 8) (size 9 to 14) (size 15 to 20)
#    0.706    2.118    0.000    1.765    0.000    4.235 
#    0.000    2.941    0.000    4.235    0.000    0.000 
#    0.000    0.000    0.000    0.000    0.000    0.000 
#
# Total GULP energy -421254.573301 kJ/mol
# GULP energy per Si atom -12389.840391 kJ/mol
# Density = 1.706343 g / cm^3
# Si number density = 17.102361 Si / 1000 Ang^3
#
#
#
# Elastic Constant Matrix: (Units=GPa)
#
#
# Indices 1 2 3 4 5 6 
#
# 1 68.2288 55.7495 41.0408 0.0000 0.0000 0.0000
# 2 55.7495 126.2477 70.9124 0.0000 0.0000 0.0000
# 3 41.0408 70.9124 122.0107 0.0000 0.0000 0.0000
# 4 0.0000 0.0000 0.0000 30.3051 0.0000 0.0000
# 5 0.0000 0.0000 0.0000 0.0000 10.3989 0.0000
# 6 0.0000 0.0000 0.0000 0.0000 0.0000 15.7632
#
#
#
# Elastic Compliance Matrix: (Units=1/GPa)
#
#
# Indices 1 2 3 4 5 6 
#
# 1 0.023552 -0.008835 -0.002788 0.000000 0.000000 0.000000
# 2 -0.008835 0.015074 -0.005789 0.000000 0.000000 0.000000
# 3 -0.002788 -0.005789 0.012498 0.000000 0.000000 0.000000
# 4 0.000000 0.000000 0.000000 0.032998 0.000000 0.000000
# 5 0.000000 0.000000 0.000000 0.000000 0.096164 0.000000
# 6 0.000000 0.000000 0.000000 0.000000 0.000000 0.063439
#
#
# Mechanical properties :
#
#
# Convention : Reuss Voigt Hill
#
# Bulk Modulus (GPa) = 61.34383 72.43250 66.88817
# Shear Modulus (GPa) = 17.60675 21.21240 19.40957
#
# Velocity S-wave (km/s) = 3.21205 3.52564 3.37249
# Velocity P-wave (km/s) = 7.05003 7.68230 7.37295
#
# Compressibility (1/GPa) = 0.01630156
#
# Stress axis : x y z
#
# Youngs Moduli (GPa) = 42.45926 66.33967 80.01035
#
# Poissons Ratio (x) = 0.58608 0.22304
# Poissons Ratio (y) = 0.37511 0.46320
# Poissons Ratio (z) = 0.11836 0.38406
#
# Static dielectric constant tensor:
#      x y z
#    x 3.023350 0.000000 0.000000 
#    y 0.000000 3.274020 0.000000 
#    z 0.000000 0.000000 3.212940 
# 
# 
# High freq. dielectric constant tensor:
#      x y z
#    x 1.636960 0.000000 0.000000 
#    y 0.000000 1.654390 0.000000 
#    z 0.000000 0.000000 1.663350 
# 
# From -- ./inp_files/37702.got.cif
#   From: 2010.03.12/outbox.cif.g09.slc.cpg/sg67_19_cif.got.tgz:37702.got - 2010.04.10 22:41:39.
