data_PCOD8279010
_publ_section_title
;
Structure prediction by ZEFSAII (Michael W. Deem and Ramdas Pophale) SiO2 
 PCOD8279010
Probable space group: C M M A
;
_chemical_formula_sum "Si O2"
_cell_formula_units_Z 88
_cell_length_a 9.237923
_cell_length_b 24.569914
_cell_length_c 21.827113
_cell_angle_alpha 90.000000
_cell_angle_beta 90.000000
_cell_angle_gamma 90.000000
_cell_volume 4954.208398
_symmetry_space_group_name_H-M "C M M A"
_symmetry_group_IT_number 67
_symmetry_cell_setting 'orthorhombic'
loop_
_space_group_symop_operation_xyz
x,y,z
-x,1/2-y,z
x,-y,-z
-x,1/2+y,-z
-x,-y,-z
x,1/2+y,-z
-x,y,z
x,1/2-y,z
1/2+x,1/2+y,z
1/2-x,-y,z
1/2+x,1/2-y,-z
1/2-x,y,-z
1/2-x,1/2-y,-z
1/2+x,y,-z
1/2-x,1/2+y,z
1/2+x,-y,z
loop_
_atom_site_type_symbol
_atom_site_label
_atom_site_fract_x
_atom_site_fract_y
_atom_site_fract_z
Si Si1 0.828857 0.555474 0.802854
Si Si2 0.332177 0.947017 0.337851
Si Si3 0.331170 0.660334 0.839474
Si Si4 0.169663 0.362722 0.439604
Si Si5 0.670227 0.250000 0.614329
Si Si6 0.332706 0.250000 0.258968
Si Si7 0.331205 0.250000 0.063455
O O1 0.750000 0.500000 0.824151
O O2 0.791921 0.567375 0.731896
O O3 0.765106 0.605877 0.841173
O O4 0.000000 0.550096 0.814794
O O5 0.500000 0.959758 0.344279
O O6 0.283012 0.897843 0.381012
O O7 0.250000 0.000000 0.361179
O O8 0.500000 0.644280 0.840202
O O9 0.295063 0.696051 0.779617
O O10 0.289343 0.695848 0.898850
O O11 0.250000 0.384117 0.500000
O O12 0.220504 0.301701 0.424857
O O13 0.000000 0.366821 0.451958
O O14 0.500000 0.250000 0.625730
O O15 0.738572 0.250000 0.680802
O O16 0.500000 0.250000 0.277393
O O17 0.500000 0.250000 0.049989
O O18 0.250000 0.250000 0.000000
#
# Coordination Sequence:
#
# PCOD8279010 Si02
#       7
#    16  16  16  16   8   8   8
#     4  10  19  32  52  77 104 135 168 205 251 303
#     4   9  19  34  50  70  95 122 156 198 245 294
#     4   9  18  33  51  76 109 139 168 206 249 293
#     4  10  21  35  49  66  89 119 156 199 245 296
#     4  10  20  34  50  68  94 122 153 200 251 298
#     4   9  18  31  50  75 101 129 161 200 250 303
#     4   9  19  35  55  79 110 145 178 212 248 285
#
# _framework density 17.762677
#
# number of rings (size 3 to 8) (size 9 to 14) (size 15 to 20)
#    0.000    2.545    0.000    3.000    0.000    5.455 
#    0.000    3.636    0.000    0.545    0.000    3.818 
#    0.000    0.000    0.000    0.000    0.000    0.000 
#
# Total GULP energy -545657.270738 kJ/mol
# GULP energy per Si atom -12401.301608 kJ/mol
# Density = 1.772225 g / cm^3
# Si number density = 17.762677 Si / 1000 Ang^3
#
#
#
# Elastic Constant Matrix: (Units=GPa)
#
#
# Indices 1 2 3 4 5 6 
#
# 1 60.1891 57.1829 40.3464 0.0000 0.0000 0.0000
# 2 57.1829 138.6768 44.4146 0.0000 0.0000 0.0000
# 3 40.3464 44.4146 88.7389 0.0000 0.0000 0.0000
# 4 0.0000 0.0000 0.0000 4.7895 0.0000 0.0000
# 5 0.0000 0.0000 0.0000 0.0000 32.1845 0.0000
# 6 0.0000 0.0000 0.0000 0.0000 0.0000 33.7284
#
#
#
# Elastic Compliance Matrix: (Units=1/GPa)
#
#
# Indices 1 2 3 4 5 6 
#
# 1 0.033228 -0.010555 -0.009825 0.000000 0.000000 0.000000
# 2 -0.010555 0.011940 -0.001177 0.000000 0.000000 0.000000
# 3 -0.009825 -0.001177 0.016325 0.000000 0.000000 0.000000
# 4 0.000000 0.000000 0.000000 0.208792 0.000000 0.000000
# 5 0.000000 0.000000 0.000000 0.000000 0.031071 0.000000
# 6 0.000000 0.000000 0.000000 0.000000 0.000000 0.029649
#
#
# Mechanical properties :
#
#
# Convention : Reuss Voigt Hill
#
# Bulk Modulus (GPa) = 54.40812 63.49918 58.95365
# Shear Modulus (GPa) = 13.14943 23.85120 18.50031
#
# Velocity S-wave (km/s) = 2.72377 3.66836 3.23077
# Velocity P-wave (km/s) = 6.37095 7.33272 6.86869
#
# Compressibility (1/GPa) = 0.01837961
#
# Stress axis : x y z
#
# Youngs Moduli (GPa) = 30.09548 83.75018 61.25489
#
# Poissons Ratio (x) = 0.88396 0.60181
# Poissons Ratio (y) = 0.31765 0.07212
# Poissons Ratio (z) = 0.29568 0.09861
#
# Static dielectric constant tensor:
#      x y z
#    x 3.182050 0.000000 0.000000 
#    y 0.000000 3.408910 0.000000 
#    z 0.000000 0.000000 3.100970 
# 
# 
# High freq. dielectric constant tensor:
#      x y z
#    x 1.684810 0.000000 0.000000 
#    y 0.000000 1.694340 0.000000 
#    z 0.000000 0.000000 1.667600 
# 
# From -- ./inp_files/36994.got.cif
#   From: 2010.03.12/outbox.cif.g09.slc.cpg/sg67_19_cif.got.tgz:36994.got - 2010.04.10 22:41:39.
