data_PCOD8279582
_publ_section_title
;
Structure prediction by ZEFSAII (Michael W. Deem and Ramdas Pophale) SiO2 
 PCOD8279582
Probable space group: C M M A
;
_chemical_formula_sum "Si O2"
_cell_formula_units_Z 80
_cell_length_a 7.792378
_cell_length_b 19.311245
_cell_length_c 29.017845
_cell_angle_alpha 90.000000
_cell_angle_beta 90.000000
_cell_angle_gamma 90.000000
_cell_volume 4366.620425
_symmetry_space_group_name_H-M "C M M A"
_symmetry_group_IT_number 67
_symmetry_cell_setting 'orthorhombic'
loop_
_space_group_symop_operation_xyz
x,y,z
-x,1/2-y,z
x,-y,-z
-x,1/2+y,-z
-x,-y,-z
x,1/2+y,-z
-x,y,z
x,1/2-y,z
1/2+x,1/2+y,z
1/2-x,-y,z
1/2+x,1/2-y,-z
1/2-x,y,-z
1/2-x,1/2-y,-z
1/2+x,y,-z
1/2-x,1/2+y,z
1/2+x,-y,z
loop_
_atom_site_type_symbol
_atom_site_label
_atom_site_fract_x
_atom_site_fract_y
_atom_site_fract_z
Si Si1 0.800786 0.668876 0.365335
Si Si2 0.801269 0.421430 0.550732
Si Si3 0.199770 0.921543 0.948409
Si Si4 0.191612 0.329577 0.867060
Si Si5 0.500000 0.831795 0.298601
Si Si6 0.500000 0.832278 0.196047
O O1 0.781920 0.750000 0.375469
O O2 0.726492 0.629210 0.410280
O O3 0.675643 0.644691 0.324000
O O4 0.000000 0.650432 0.353308
O O5 0.750000 0.500000 0.560327
O O6 0.750000 0.396014 0.500000
O O7 0.000000 0.415127 0.554779
O O8 0.301824 0.871926 0.914264
O O9 0.000000 0.910412 0.940494
O O10 0.250000 0.000000 0.937631
O O11 0.250000 0.900731 0.000000
O O12 0.233682 0.250000 0.878895
O O13 0.329321 0.358629 0.830294
O O14 0.000000 0.337022 0.846004
O O15 0.500000 0.750000 0.294871
O O16 0.500000 0.864654 0.247389
O O17 0.500000 0.750000 0.199200
#
# Coordination Sequence:
#
# PCOD8279582 Si02
#       6
#    16  16  16  16   8   8
#     4   9  19  34  51  77 106 133 171 215 261 308
#     4  10  20  32  50  74 102 138 175 210 251 308
#     4  11  21  35  54  79 110 144 185 219 258 320
#     4  10  20  35  55  81 111 141 177 221 268 313
#     4   9  18  32  56  79 102 136 171 216 266 310
#     4   9  18  34  54  81 106 134 175 218 268 316
#
# _framework density 18.320803999999999
#
# number of rings (size 3 to 8) (size 9 to 14) (size 15 to 20)
#    0.000    2.200    1.000    3.600    2.800    1.600 
#    0.000    4.000    0.000    1.200    0.000    0.000 
#    0.000    0.000    0.000    0.000    0.000    0.000 
#
# Total GULP energy -495894.001513 kJ/mol
# GULP energy per Si atom -12397.350038 kJ/mol
# Density = 1.827910 g / cm^3
# Si number density = 18.320804 Si / 1000 Ang^3
#
#
#
# Elastic Constant Matrix: (Units=GPa)
#
#
# Indices 1 2 3 4 5 6 
#
# 1 113.2517 24.7035 63.8222 0.0000 0.0000 0.0000
# 2 24.7035 43.3478 56.6361 0.0000 0.0000 0.0000
# 3 63.8222 56.6361 156.8772 0.0000 0.0000 0.0000
# 4 0.0000 0.0000 0.0000 15.4141 0.0000 0.0000
# 5 0.0000 0.0000 0.0000 0.0000 29.4376 0.0000
# 6 0.0000 0.0000 0.0000 0.0000 0.0000 19.9113
#
#
#
# Elastic Compliance Matrix: (Units=1/GPa)
#
#
# Indices 1 2 3 4 5 6 
#
# 1 0.011472 -0.000833 -0.004367 0.000000 0.000000 0.000000
# 2 -0.000833 0.043727 -0.015448 0.000000 0.000000 0.000000
# 3 -0.004367 -0.015448 0.013728 0.000000 0.000000 0.000000
# 4 0.000000 0.000000 0.000000 0.064876 0.000000 0.000000
# 5 0.000000 0.000000 0.000000 0.000000 0.033970 0.000000
# 6 0.000000 0.000000 0.000000 0.000000 0.000000 0.050223
#
#
# Mechanical properties :
#
#
# Convention : Reuss Voigt Hill
#
# Bulk Modulus (GPa) = 36.18856 67.08894 51.63875
# Shear Modulus (GPa) = 18.62193 24.17358 21.39776
#
# Velocity S-wave (km/s) = 3.19162 3.63638 3.42123
# Velocity P-wave (km/s) = 5.77733 7.37085 6.62220
#
# Compressibility (1/GPa) = 0.02763304
#
# Stress axis : x y z
#
# Youngs Moduli (GPa) = 87.16635 22.86927 72.84490
#
# Poissons Ratio (x) = 0.01904 0.31809
# Poissons Ratio (y) = 0.07259 1.12528
# Poissons Ratio (z) = 0.38062 0.35327
#
# Static dielectric constant tensor:
#      x y z
#    x 3.623420 0.000000 0.000000 
#    y 0.000000 3.074270 0.000000 
#    z 0.000000 0.000000 3.316370 
# 
# 
# High freq. dielectric constant tensor:
#      x y z
#    x 1.731520 0.000000 0.000000 
#    y 0.000000 1.681260 0.000000 
#    z 0.000000 0.000000 1.705200 
# 
# From -- ./inp_files/43384.got.cif
#   From: 2010.03.12/outbox.cif.g09.slc.cpg/sg67_22_cif.got.tgz:43384.got - 2010.04.10 22:41:39.
