data_PCOD8279985
_publ_section_title
;
Structure prediction by ZEFSAII (Michael W. Deem and Ramdas Pophale) SiO2 
 PCOD8279985
Probable space group: C M M A
;
_chemical_formula_sum "Si O2"
_cell_formula_units_Z 88
_cell_length_a 28.657082
_cell_length_b 9.322392
_cell_length_c 16.227960
_cell_angle_alpha 90.000000
_cell_angle_beta 90.000000
_cell_angle_gamma 90.000000
_cell_volume 4335.340927
_symmetry_space_group_name_H-M "C M M A"
_symmetry_group_IT_number 67
_symmetry_cell_setting 'orthorhombic'
loop_
_space_group_symop_operation_xyz
x,y,z
-x,1/2-y,z
x,-y,-z
-x,1/2+y,-z
-x,-y,-z
x,1/2+y,-z
-x,y,z
x,1/2-y,z
1/2+x,1/2+y,z
1/2-x,-y,z
1/2+x,1/2-y,-z
1/2-x,y,-z
1/2-x,1/2-y,-z
1/2+x,y,-z
1/2-x,1/2+y,z
1/2+x,-y,z
loop_
_atom_site_type_symbol
_atom_site_label
_atom_site_fract_x
_atom_site_fract_y
_atom_site_fract_z
Si Si1 0.445404 0.750000 0.789227
Si Si2 0.055027 0.250000 0.146717
Si Si3 0.500000 0.076014 0.411189
Si Si4 0.407928 0.250000 0.036101
Si Si5 0.611094 0.478663 0.752059
Si Si6 0.157869 0.000000 0.000000
Si Si7 0.587699 0.585202 0.418314
Si Si8 0.203123 0.915537 0.838564
O O1 0.500000 0.750000 0.759505
O O2 0.444536 0.750000 0.888689
O O3 0.417353 0.623492 0.747278
O O4 0.079425 0.115431 0.187540
O O5 0.000000 0.250000 0.164607
O O6 0.063568 0.250000 0.048839
O O7 0.500000 0.250000 0.412018
O O8 0.500000 0.000000 0.500000
O O9 0.453952 0.004972 0.373222
O O10 0.375245 0.112222 0.046410
O O11 0.622083 0.413906 0.660152
O O12 0.662395 0.495607 0.789241
O O13 0.191179 0.079610 0.064664
O O14 0.605969 0.500000 0.500000
O O15 0.575233 0.750000 0.443934
O O16 0.207910 0.750000 0.811544
O O17 0.250000 0.000000 0.818173
#
# Coordination Sequence:
#
# PCOD8279985 Si02
#       8
#     8   8   8   8  16   8  16  16
#     4  12  27  40  63 100 133 181 227 272 312 372
#     4  12  23  42  67  92 125 189 225 260 320 390
#     4  10  20  34  54  88 124 161 208 259 311 385
#     4  12  21  42  65  90 136 176 221 270 317 374
#     4  12  25  44  64  93 138 167 221 277 322 395
#     4  12  21  40  65  90 130 170 211 276 333 392
#     4  11  23  39  63  90 125 171 211 267 332 391
#     4  12  26  44  67  96 125 168 217 272 340 395
#
# _framework density 20.298286999999998
#
# number of rings (size 3 to 8) (size 9 to 14) (size 15 to 20)
#    0.000    0.364    6.364    3.545    7.636    0.727 
#    0.000    2.727    0.000    0.545    0.000    2.545 
#    0.000    0.000    0.000    0.000    0.000    0.000 
#
# Total GULP energy -545227.504642 kJ/mol
# GULP energy per Si atom -12391.534196 kJ/mol
# Density = 2.025209 g / cm^3
# Si number density = 20.298287 Si / 1000 Ang^3
#
#
#
# Elastic Constant Matrix: (Units=GPa)
#
#
# Indices 1 2 3 4 5 6 
#
# 1 135.0173 42.0738 28.2470 0.0000 0.0000 0.0000
# 2 42.0738 151.5946 18.7373 0.0000 0.0000 0.0000
# 3 28.2470 18.7373 118.4523 0.0000 0.0000 0.0000
# 4 0.0000 0.0000 0.0000 19.4070 0.0000 0.0000
# 5 0.0000 0.0000 0.0000 0.0000 11.8880 0.0000
# 6 0.0000 0.0000 0.0000 0.0000 0.0000 33.1256
#
#
#
# Elastic Compliance Matrix: (Units=1/GPa)
#
#
# Indices 1 2 3 4 5 6 
#
# 1 0.008420 -0.002130 -0.001671 0.000000 0.000000 0.000000
# 2 -0.002130 0.007267 -0.000642 0.000000 0.000000 0.000000
# 3 -0.001671 -0.000642 0.008942 0.000000 0.000000 0.000000
# 4 0.000000 0.000000 0.000000 0.051528 0.000000 0.000000
# 5 0.000000 0.000000 0.000000 0.000000 0.084119 0.000000
# 6 0.000000 0.000000 0.000000 0.000000 0.000000 0.030188
#
#
# Mechanical properties :
#
#
# Convention : Reuss Voigt Hill
#
# Bulk Modulus (GPa) = 63.51778 64.79784 64.15781
# Shear Modulus (GPa) = 24.43825 33.95117 29.19471
#
# Velocity S-wave (km/s) = 3.47357 4.09420 3.79659
# Velocity P-wave (km/s) = 6.88823 7.37170 7.13406
#
# Compressibility (1/GPa) = 0.01574362
#
# Stress axis : x y z
#
# Youngs Moduli (GPa) = 118.76659 137.60655 111.83000
#
# Poissons Ratio (x) = 0.29315 0.18685
# Poissons Ratio (y) = 0.25301 0.07174
# Poissons Ratio (z) = 0.19844 0.08828
#
# Static dielectric constant tensor:
#      x y z
#    x 2.442600 0.000000 0.000000 
#    y 0.000000 3.663300 0.000000 
#    z 0.000000 0.000000 3.714490 
# 
# 
# High freq. dielectric constant tensor:
#      x y z
#    x 1.762110 0.000000 0.000000 
#    y 0.000000 1.813260 0.000000 
#    z 0.000000 0.000000 1.803180 
# 
# From -- ./inp_files/36247.got.cif
#   From: 2010.03.12/outbox.cif.g09.slc.cpg/sg67_19_cif.got.tgz:36247.got - 2010.04.10 22:41:39.
