data_PCOD8279023
_publ_section_title
;
Structure prediction by ZEFSAII (Michael W. Deem and Ramdas Pophale) SiO2 
 PCOD8279023
Probable space group: C M M A
;
_chemical_formula_sum "Si O2"
_cell_formula_units_Z 80
_cell_length_a 29.178380
_cell_length_b 16.753855
_cell_length_c 7.803441
_cell_angle_alpha 90.000000
_cell_angle_beta 90.000000
_cell_angle_gamma 90.000000
_cell_volume 3814.714846
_symmetry_space_group_name_H-M "C M M A"
_symmetry_group_IT_number 67
_symmetry_cell_setting 'orthorhombic'
loop_
_space_group_symop_operation_xyz
x,y,z
-x,1/2-y,z
x,-y,-z
-x,1/2+y,-z
-x,-y,-z
x,1/2+y,-z
-x,y,z
x,1/2-y,z
1/2+x,1/2+y,z
1/2-x,-y,z
1/2+x,1/2-y,-z
1/2-x,y,-z
1/2-x,1/2-y,-z
1/2+x,y,-z
1/2-x,1/2+y,z
1/2+x,-y,z
loop_
_atom_site_type_symbol
_atom_site_label
_atom_site_fract_x
_atom_site_fract_y
_atom_site_fract_z
Si Si1 0.355068 0.655900 0.368339
Si Si2 0.700469 0.344672 0.952468
Si Si3 0.448750 0.917581 0.908173
Si Si4 0.633388 0.843590 0.745015
Si Si5 0.450744 0.658419 0.254444
O O1 0.358059 0.750000 0.333235
O O2 0.318403 0.621174 0.230385
O O3 0.341137 0.636631 0.564263
O O4 0.406074 0.618243 0.341162
O O5 0.704787 0.250000 0.942959
O O6 0.750000 0.381793 0.000000
O O7 0.666210 0.371161 0.102196
O O8 0.500000 0.923366 0.829556
O O9 0.413549 0.894335 0.757296
O O10 0.445448 0.847918 0.049582
O O11 0.434906 0.000000 0.000000
O O12 0.621718 0.750000 0.753143
O O13 0.500000 0.618071 0.308788
O O14 0.452703 0.750000 0.307997
#
# Coordination Sequence:
#
# PCOD8279023 Si02
#       5
#    16  16  16  16  16
#     4   9  17  29  48  77 106 133 171 212 254 310
#     4   9  17  30  49  75 107 135 163 210 265 306
#     4  10  20  33  50  74 105 138 174 215 260 312
#     4  10  19  32  53  77 102 136 176 215 258 311
#     4   9  16  29  50  72  99 134 167 205 253 305
#
# _framework density 20.971425
#
# number of rings (size 3 to 8) (size 9 to 14) (size 15 to 20)
#    0.000    2.600    2.000    0.600    0.000    2.800 
#    0.000    7.000    0.000    4.200    0.000    0.000 
#    6.000    0.000    0.000    0.000    0.000    0.000 
#
# Total GULP energy -495588.953855 kJ/mol
# GULP energy per Si atom -12389.723846 kJ/mol
# Density = 2.092369 g / cm^3
# Si number density = 20.971425 Si / 1000 Ang^3
#
#
#
# Elastic Constant Matrix: (Units=GPa)
#
#
# Indices 1 2 3 4 5 6 
#
# 1 147.0989 27.5737 75.1808 0.0000 0.0000 0.0000
# 2 27.5737 21.4999 18.8398 0.0000 0.0000 0.0000
# 3 75.1808 18.8398 150.3057 0.0000 0.0000 0.0000
# 4 0.0000 0.0000 0.0000 9.3199 0.0000 0.0000
# 5 0.0000 0.0000 0.0000 0.0000 19.9867 0.0000
# 6 0.0000 0.0000 0.0000 0.0000 0.0000 9.0943
#
#
#
# Elastic Compliance Matrix: (Units=1/GPa)
#
#
# Indices 1 2 3 4 5 6 
#
# 1 0.010836 -0.010277 -0.004132 0.000000 0.000000 0.000000
# 2 -0.010277 0.061997 -0.002631 0.000000 0.000000 0.000000
# 3 -0.004132 -0.002631 0.009050 0.000000 0.000000 0.000000
# 4 0.000000 0.000000 0.000000 0.107297 0.000000 0.000000
# 5 0.000000 0.000000 0.000000 0.000000 0.050033 0.000000
# 6 0.000000 0.000000 0.000000 0.000000 0.000000 0.109959
#
#
# Mechanical properties :
#
#
# Convention : Reuss Voigt Hill
#
# Bulk Modulus (GPa) = 20.91868 62.45477 41.68673
# Shear Modulus (GPa) = 12.52548 20.83420 16.67984
#
# Velocity S-wave (km/s) = 2.44655 3.15533 2.82327
# Velocity P-wave (km/s) = 4.23997 6.56661 5.52710
#
# Compressibility (1/GPa) = 0.04780415
#
# Stress axis : x y z
#
# Youngs Moduli (GPa) = 92.28134 16.12976 110.50163
#
# Poissons Ratio (x) = 0.16576 0.45660
# Poissons Ratio (y) = 0.94837 0.29068
# Poissons Ratio (z) = 0.38131 0.04243
#
# Static dielectric constant tensor:
#      x y z
#    x 4.130690 0.000000 0.000000 
#    y 0.000000 3.207560 0.000000 
#    z 0.000000 0.000000 3.733830 
# 
# 
# High freq. dielectric constant tensor:
#      x y z
#    x 1.824060 0.000000 0.000000 
#    y 0.000000 1.762420 0.000000 
#    z 0.000000 0.000000 1.809610 
# 
# From -- ./inp_files/9952.got.cif
#   From: 2010.03.12/outbox.cif.g09.slc.cpg/sg67_5_cif.got.tgz:9952.got - 2010.04.10 22:41:39.
