data_PCOD8279184
_publ_section_title
;
Structure prediction by ZEFSAII (Michael W. Deem and Ramdas Pophale) SiO2 
 PCOD8279184
Probable space group: C M M A
;
_chemical_formula_sum "Si O2"
_cell_formula_units_Z 52
_cell_length_a 14.124513
_cell_length_b 20.262042
_cell_length_c 10.645039
_cell_angle_alpha 90.000000
_cell_angle_beta 90.000000
_cell_angle_gamma 90.000000
_cell_volume 3046.519420
_symmetry_space_group_name_H-M "C M M A"
_symmetry_group_IT_number 67
_symmetry_cell_setting 'orthorhombic'
loop_
_space_group_symop_operation_xyz
x,y,z
-x,1/2-y,z
x,-y,-z
-x,1/2+y,-z
-x,-y,-z
x,1/2+y,-z
-x,y,z
x,1/2-y,z
1/2+x,1/2+y,z
1/2-x,-y,z
1/2+x,1/2-y,-z
1/2-x,y,-z
1/2-x,1/2-y,-z
1/2+x,y,-z
1/2-x,1/2+y,z
1/2+x,-y,z
loop_
_atom_site_type_symbol
_atom_site_label
_atom_site_fract_x
_atom_site_fract_y
_atom_site_fract_z
Si Si1 0.250000 0.000000 0.500000
Si Si2 0.290658 0.325526 0.862943
Si Si3 0.188491 0.558118 0.259240
Si Si4 0.000000 0.055566 0.892051
Si Si5 0.000000 0.325109 0.067825
O O1 0.184315 0.953816 0.410408
O O2 0.266998 0.250000 0.829369
O O3 0.237159 0.371126 0.763331
O O4 0.250000 0.343554 0.000000
O O5 0.404083 0.338425 0.852987
O O6 0.250000 0.500000 0.194506
O O7 0.087178 0.549617 0.199892
O O8 0.000000 0.128521 0.947751
O O9 0.000000 0.000000 0.000000
O O10 0.000000 0.250000 0.017270
#
# Coordination Sequence:
#
# PCOD8279184 Si02
#       5
#     4  16  16   8   8
#     4   8  24  42  52  72 110 164 198 228 264 304
#     4  10  19  33  55  83 115 144 174 230 291 344
#     4  10  22  38  54  76 115 147 193 229 271 325
#     4  12  22  31  58  91 106 142 181 236 293 344
#     4  10  20  32  50  86 120 140 170 210 292 356
#
# _framework density 17.068659
#
# number of rings (size 3 to 8) (size 9 to 14) (size 15 to 20)
#    0.923    0.923    3.077    1.846    0.000    0.615 
#    0.000    0.769    0.000    0.000    0.000    0.000 
#    0.000    0.000    0.000    0.000    0.000    0.000 
#
# Total GULP energy -322212.996117 kJ/mol
# GULP energy per Si atom -12392.807543 kJ/mol
# Density = 1.702981 g / cm^3
# Si number density = 17.068659 Si / 1000 Ang^3
#
#
#
# Elastic Constant Matrix: (Units=GPa)
#
#
# Indices 1 2 3 4 5 6 
#
# 1 147.3571 55.5054 60.7446 0.0000 0.0000 0.0000
# 2 55.5054 105.1260 62.9593 0.0000 0.0000 0.0000
# 3 60.7446 62.9593 116.5233 0.0000 0.0000 0.0000
# 4 0.0000 0.0000 0.0000 30.8816 0.0000 0.0000
# 5 0.0000 0.0000 0.0000 0.0000 1521.5435 0.0000
# 6 0.0000 0.0000 0.0000 0.0000 0.0000 24.2150
#
#
#
# Elastic Compliance Matrix: (Units=1/GPa)
#
#
# Indices 1 2 3 4 5 6 
#
# 1 0.009221 -0.002941 -0.003217 0.000000 0.000000 0.000000
# 2 -0.002941 0.015001 -0.006572 0.000000 0.000000 0.000000
# 3 -0.003217 -0.006572 0.013810 0.000000 0.000000 0.000000
# 4 0.000000 0.000000 0.000000 0.032382 0.000000 0.000000
# 5 0.000000 0.000000 0.000000 0.000000 0.000657 0.000000
# 6 0.000000 0.000000 0.000000 0.000000 0.000000 0.041297
#
#
# Mechanical properties :
#
#
# Convention : Reuss Voigt Hill
#
# Bulk Modulus (GPa) = 79.55285 80.82500 80.18893
# Shear Modulus (GPa) = 35.20634 327.98118 181.59376
#
# Velocity S-wave (km/s) = 4.54655 13.87700 10.32575
# Velocity P-wave (km/s) = 8.61802 17.44183 13.75659
#
# Compressibility (1/GPa) = 0.01257026
#
# Stress axis : x y z
#
# Youngs Moduli (GPa) = 108.45393 66.66027 72.40992
#
# Poissons Ratio (x) = 0.19608 0.23297
# Poissons Ratio (y) = 0.31901 0.47589
# Poissons Ratio (z) = 0.34894 0.43810
#
# Static dielectric constant tensor:
#      x y z
#    x 3.350110 0.000000 0.000000 
#    y 0.000000 3.329920 0.000000 
#    z 0.000000 0.000000 2.831430 
# 
# 
# High freq. dielectric constant tensor:
#      x y z
#    x 1.671400 0.000000 0.000000 
#    y 0.000000 1.671920 0.000000 
#    z 0.000000 0.000000 1.616900 
# 
# From -- ./inp_files/7610.got.cif
#   From: 2010.03.12/outbox.cif.g09.slc.cpg/sg67_4_cif.got.tgz:7610.got - 2010.04.10 22:41:39.
