data_PCOD8279207
_publ_section_title
;
Structure prediction by ZEFSAII (Michael W. Deem and Ramdas Pophale) SiO2 
 PCOD8279207
Probable space group: C M M A
;
_chemical_formula_sum "Si O2"
_cell_formula_units_Z 112
_cell_length_a 18.606943
_cell_length_b 28.675455
_cell_length_c 11.852481
_cell_angle_alpha 90.000000
_cell_angle_beta 90.000000
_cell_angle_gamma 90.000000
_cell_volume 6324.040065
_symmetry_space_group_name_H-M "C M M A"
_symmetry_group_IT_number 67
_symmetry_cell_setting 'orthorhombic'
loop_
_space_group_symop_operation_xyz
x,y,z
-x,1/2-y,z
x,-y,-z
-x,1/2+y,-z
-x,-y,-z
x,1/2+y,-z
-x,y,z
x,1/2-y,z
1/2+x,1/2+y,z
1/2-x,-y,z
1/2+x,1/2-y,-z
1/2-x,y,-z
1/2-x,1/2-y,-z
1/2+x,y,-z
1/2-x,1/2+y,z
1/2+x,-y,z
loop_
_atom_site_type_symbol
_atom_site_label
_atom_site_fract_x
_atom_site_fract_y
_atom_site_fract_z
Si Si1 0.417306 0.057823 0.832190
Si Si2 0.584229 0.302553 0.982775
Si Si3 0.676623 0.028021 0.191807
Si Si4 0.917709 0.390211 0.398005
Si Si5 0.831533 0.111456 0.979953
Si Si6 0.328736 0.547943 0.548073
Si Si7 0.914665 0.301014 0.274175
O O1 0.500000 0.060593 0.872228
O O2 0.408789 0.073172 0.703047
O O3 0.369038 0.091181 0.908560
O O4 0.390328 0.004814 0.838869
O O5 0.500000 0.312754 0.992667
O O6 0.601285 0.250000 0.025809
O O7 0.626623 0.341168 0.056479
O O8 0.611813 0.308136 0.853856
O O9 0.674944 0.046291 0.318345
O O10 0.750000 0.000000 0.164878
O O11 0.667008 0.073528 0.117635
O O12 0.876485 0.408491 0.508112
O O13 0.883927 0.340687 0.357536
O O14 0.000000 0.384006 0.433669
O O15 0.750000 0.126115 0.000000
O O16 0.362502 0.500000 0.500000
O O17 0.250000 0.555303 0.500000
O O18 0.890712 0.250000 0.318971
O O19 0.000000 0.305375 0.270886
#
# Coordination Sequence:
#
# PCOD8279207 Si02
#       7
#    16  16  16  16  16  16  16
#     4  11  22  36  55  81 112 147 188 234 283 336
#     4   9  18  35  58  83 113 149 188 230 281 339
#     4  12  23  39  53  79 112 155 197 230 283 340
#     4  10  19  33  57  85 110 137 183 239 278 315
#     4  12  24  34  56  81 117 151 185 235 283 344
#     4  11  21  36  57  74 105 148 188 225 272 333
#     4   8  14  28  54  84 110 138 176 226 279 327
#
# _framework density 17.710197000000001
#
# number of rings (size 3 to 8) (size 9 to 14) (size 15 to 20)
#    0.000    1.571    5.714    1.714    0.000    2.857 
#    0.000    0.000    0.000    1.286    0.000    2.000 
#    0.000    0.000    0.000    0.000    0.000    0.000 
#
# Total GULP energy -694292.249393 kJ/mol
# GULP energy per Si atom -12398.075882 kJ/mol
# Density = 1.766989 g / cm^3
# Si number density = 17.710197 Si / 1000 Ang^3
#
#
#
# Elastic Constant Matrix: (Units=GPa)
#
#
# Indices 1 2 3 4 5 6 
#
# 1 88.0264 54.6270 29.5723 0.0000 0.0000 0.0000
# 2 54.6270 154.3201 33.6921 0.0000 0.0000 0.0000
# 3 29.5723 33.6921 35.0854 0.0000 0.0000 0.0000
# 4 0.0000 0.0000 0.0000 35.1748 0.0000 0.0000
# 5 0.0000 0.0000 0.0000 0.0000 23.3014 0.0000
# 6 0.0000 0.0000 0.0000 0.0000 0.0000 30.6586
#
#
#
# Elastic Compliance Matrix: (Units=1/GPa)
#
#
# Indices 1 2 3 4 5 6 
#
# 1 0.017403 -0.003743 -0.011075 0.000000 0.000000 0.000000
# 2 -0.003743 0.009004 -0.005492 0.000000 0.000000 0.000000
# 3 -0.011075 -0.005492 0.043110 0.000000 0.000000 0.000000
# 4 0.000000 0.000000 0.000000 0.028429 0.000000 0.000000
# 5 0.000000 0.000000 0.000000 0.000000 0.042916 0.000000
# 6 0.000000 0.000000 0.000000 0.000000 0.000000 0.032617
#
#
# Mechanical properties :
#
#
# Convention : Reuss Voigt Hill
#
# Bulk Modulus (GPa) = 34.60317 57.02386 45.81352
# Shear Modulus (GPa) = 22.34825 28.46299 25.40562
#
# Velocity S-wave (km/s) = 3.55616 4.01328 3.79161
# Velocity P-wave (km/s) = 6.03677 7.33099 6.71514
#
# Compressibility (1/GPa) = 0.02889909
#
# Stress axis : x y z
#
# Youngs Moduli (GPa) = 57.46029 111.06340 23.19642
#
# Poissons Ratio (x) = 0.41567 0.25689
# Poissons Ratio (y) = 0.21505 0.12739
# Poissons Ratio (z) = 0.63636 0.60994
#
# Static dielectric constant tensor:
#      x y z
#    x 3.148530 0.000000 0.000000 
#    y 0.000000 3.597600 0.000000 
#    z 0.000000 0.000000 3.018100 
# 
# 
# High freq. dielectric constant tensor:
#      x y z
#    x 1.672100 0.000000 0.000000 
#    y 0.000000 1.694370 0.000000 
#    z 0.000000 0.000000 1.657220 
# 
# From -- ./inp_files/21257.got.cif
#   From: 2010.03.12/outbox.cif.g09.slc.cpg/sg67_11_cif.got.tgz:21257.got - 2010.04.10 22:41:39.
