data_PCOD8279852
_publ_section_title
;
Structure prediction by ZEFSAII (Michael W. Deem and Ramdas Pophale) SiO2 
 PCOD8279852
Probable space group: C M M A
;
_chemical_formula_sum "Si O2"
_cell_formula_units_Z 72
_cell_length_a 26.222761
_cell_length_b 9.023986
_cell_length_c 15.948318
_cell_angle_alpha 90.000000
_cell_angle_beta 90.000000
_cell_angle_gamma 90.000000
_cell_volume 3773.911541
_symmetry_space_group_name_H-M "C M M A"
_symmetry_group_IT_number 67
_symmetry_cell_setting 'orthorhombic'
loop_
_space_group_symop_operation_xyz
x,y,z
-x,1/2-y,z
x,-y,-z
-x,1/2+y,-z
-x,-y,-z
x,1/2+y,-z
-x,y,z
x,1/2-y,z
1/2+x,1/2+y,z
1/2-x,-y,z
1/2+x,1/2-y,-z
1/2-x,y,-z
1/2-x,1/2-y,-z
1/2+x,y,-z
1/2-x,1/2+y,z
1/2+x,-y,z
loop_
_atom_site_type_symbol
_atom_site_label
_atom_site_fract_x
_atom_site_fract_y
_atom_site_fract_z
Si Si1 0.803118 0.070910 0.910479
Si Si2 0.882585 0.500000 0.500000
Si Si3 0.202892 0.909324 0.611694
Si Si4 0.058096 0.582438 0.338741
Si Si5 0.139343 0.073471 0.234102
O O1 0.799587 0.250000 0.915210
O O2 0.750000 0.000000 0.877918
O O3 0.848591 0.018183 0.849789
O O4 0.816078 0.000000 0.000000
O O5 0.844042 0.611564 0.547176
O O6 0.917545 0.419739 0.568393
O O7 0.226225 0.750000 0.630592
O O8 0.182025 0.977153 0.698572
O O9 0.250000 0.000000 0.574383
O O10 0.061700 0.750000 0.305156
O O11 0.084752 0.475202 0.271196
O O12 0.000000 0.528310 0.346310
O O13 0.138995 0.250000 0.218092
#
# Coordination Sequence:
#
# PCOD8279852 Si02
#       5
#    16   8  16  16  16
#     4  11  21  35  57  86 119 151 183 218 260 313
#     4  10  20  34  52  74 104 138 180 226 274 326
#     4  10  21  33  48  71 102 140 179 219 263 315
#     4  10  21  37  57  79 103 136 181 232 284 334
#     4  10  21  37  55  78 108 143 183 225 273 325
#
# _framework density 19.078348999999999
#
# number of rings (size 3 to 8) (size 9 to 14) (size 15 to 20)
#    0.000    1.778    0.000    5.333    0.000    9.333 
#    0.000    0.000    0.000    0.667    0.000    0.000 
#    0.000    0.000    0.000    0.000    0.000    0.000 
#
# Total GULP energy -446169.061593 kJ/mol
# GULP energy per Si atom -12393.585044 kJ/mol
# Density = 1.903493 g / cm^3
# Si number density = 19.078349 Si / 1000 Ang^3
#
#
#
# Elastic Constant Matrix: (Units=GPa)
#
#
# Indices 1 2 3 4 5 6 
#
# 1 134.6259 51.9061 56.6419 0.0000 0.0000 0.0000
# 2 51.9061 119.0673 43.4259 0.0000 0.0000 0.0000
# 3 56.6419 43.4259 101.6204 0.0000 0.0000 0.0000
# 4 0.0000 0.0000 0.0000 25.0464 0.0000 0.0000
# 5 0.0000 0.0000 0.0000 0.0000 23.6672 0.0000
# 6 0.0000 0.0000 0.0000 0.0000 0.0000 27.9977
#
#
#
# Elastic Compliance Matrix: (Units=1/GPa)
#
#
# Indices 1 2 3 4 5 6 
#
# 1 0.010480 -0.002888 -0.004607 0.000000 0.000000 0.000000
# 2 -0.002888 0.010745 -0.002982 0.000000 0.000000 0.000000
# 3 -0.004607 -0.002982 0.013683 0.000000 0.000000 0.000000
# 4 0.000000 0.000000 0.000000 0.039926 0.000000 0.000000
# 5 0.000000 0.000000 0.000000 0.000000 0.042253 0.000000
# 6 0.000000 0.000000 0.000000 0.000000 0.000000 0.035717
#
#
# Mechanical properties :
#
#
# Convention : Reuss Voigt Hill
#
# Bulk Modulus (GPa) = 71.66762 73.25129 72.45945
# Shear Modulus (GPa) = 28.02538 28.89823 28.46180
#
# Velocity S-wave (km/s) = 3.83686 3.89615 3.86662
# Velocity P-wave (km/s) = 7.56803 7.66279 7.61556
#
# Compressibility (1/GPa) = 0.01395330
#
# Stress axis : x y z
#
# Youngs Moduli (GPa) = 95.41989 93.06380 73.08460
#
# Poissons Ratio (x) = 0.26880 0.33671
# Poissons Ratio (y) = 0.27561 0.21793
# Poissons Ratio (z) = 0.43961 0.27751
#
# Static dielectric constant tensor:
#      x y z
#    x 3.413630 0.000000 0.000000 
#    y 0.000000 3.490200 0.000000 
#    z 0.000000 0.000000 3.459200 
# 
# 
# High freq. dielectric constant tensor:
#      x y z
#    x 1.728700 0.000000 0.000000 
#    y 0.000000 1.747400 0.000000 
#    z 0.000000 0.000000 1.735800 
# 
# From -- ./inp_files/30531.got.cif
#   From: 2010.03.12/outbox.cif.g09.slc.cpg/sg67_16_cif.got.tgz:30531.got - 2010.04.10 22:41:39.
