data_PCOD8279507
_publ_section_title
;
Structure prediction by ZEFSAII (Michael W. Deem and Ramdas Pophale) SiO2 
 PCOD8279507
Probable space group: C M M A
;
_chemical_formula_sum "Si O2"
_cell_formula_units_Z 104
_cell_length_a 30.019537
_cell_length_b 8.811788
_cell_length_c 20.001217
_cell_angle_alpha 90.000000
_cell_angle_beta 90.000000
_cell_angle_gamma 90.000000
_cell_volume 5290.837846
_symmetry_space_group_name_H-M "C M M A"
_symmetry_group_IT_number 67
_symmetry_cell_setting 'orthorhombic'
loop_
_space_group_symop_operation_xyz
x,y,z
-x,1/2-y,z
x,-y,-z
-x,1/2+y,-z
-x,-y,-z
x,1/2+y,-z
-x,y,z
x,1/2-y,z
1/2+x,1/2+y,z
1/2-x,-y,z
1/2+x,1/2-y,-z
1/2-x,y,-z
1/2-x,1/2-y,-z
1/2+x,y,-z
1/2-x,1/2+y,z
1/2+x,-y,z
loop_
_atom_site_type_symbol
_atom_site_label
_atom_site_fract_x
_atom_site_fract_y
_atom_site_fract_z
Si Si1 0.673160 0.930901 0.573152
Si Si2 0.500000 0.929234 0.569966
Si Si3 0.449162 0.423462 0.773075
Si Si4 0.706281 0.571869 0.296736
Si Si5 0.203589 0.570868 0.070975
Si Si6 0.857080 0.576628 0.823425
Si Si7 0.084732 0.928912 0.356318
O O1 0.675859 0.750000 0.567164
O O2 0.625995 0.992740 0.601394
O O3 0.683403 0.000000 0.500000
O O4 0.706043 0.991349 0.630304
O O5 0.500000 0.750000 0.567157
O O6 0.457738 0.995255 0.606820
O O7 0.500000 0.000000 0.500000
O O8 0.500000 0.484240 0.790293
O O9 0.453663 0.250000 0.750440
O O10 0.411432 0.438919 0.831024
O O11 0.422163 0.516524 0.718376
O O12 0.712002 0.750000 0.307332
O O13 0.750000 0.500000 0.260717
O O14 0.662899 0.535013 0.250669
O O15 0.209118 0.750000 0.063595
O O16 0.250000 0.500000 0.096870
O O17 0.164283 0.534580 0.122594
O O18 0.190305 0.500000 0.000000
O O19 0.843153 0.750000 0.839096
O O20 0.087934 0.750000 0.354761
#
# Coordination Sequence:
#
# PCOD8279507 Si02
#       7
#    16   8  16  16  16  16  16
#     4  11  23  38  56  77 104 142 188 239 296 356
#     4  10  20  32  46  70 100 134 175 226 287 348
#     4  10  20  35  58  86 115 151 193 238 289 342
#     4  11  23  39  59  83 112 147 189 240 291 348
#     4  11  22  38  63  95 131 167 200 237 282 337
#     4  10  21  38  60  89 124 158 195 240 287 341
#     4  10  20  34  52  74 104 139 181 234 291 349
#
# _framework density 19.656621999999999
#
# number of rings (size 3 to 8) (size 9 to 14) (size 15 to 20)
#    0.000    1.538    2.308    3.692    0.000    4.615 
#    0.000    1.538    0.000    0.462    0.000    0.000 
#    0.000    0.000    0.000    0.000    0.000    0.000 
#
# Total GULP energy -644251.179168 kJ/mol
# GULP energy per Si atom -12389.445753 kJ/mol
# Density = 1.961188 g / cm^3
# Si number density = 19.656622 Si / 1000 Ang^3
#
#
#
# Elastic Constant Matrix: (Units=GPa)
#
#
# Indices 1 2 3 4 5 6 
#
# 1 128.7285 33.8303 31.7405 0.0000 0.0000 0.0000
# 2 33.8303 68.2984 32.4176 0.0000 0.0000 0.0000
# 3 31.7405 32.4176 82.3675 0.0000 0.0000 0.0000
# 4 0.0000 0.0000 0.0000 31.7532 0.0000 0.0000
# 5 0.0000 0.0000 0.0000 0.0000 29.7298 0.0000
# 6 0.0000 0.0000 0.0000 0.0000 0.0000 17.0528
#
#
#
# Elastic Compliance Matrix: (Units=1/GPa)
#
#
# Indices 1 2 3 4 5 6 
#
# 1 0.009234 -0.003548 -0.002162 0.000000 0.000000 0.000000
# 2 -0.003548 0.019368 -0.006256 0.000000 0.000000 0.000000
# 3 -0.002162 -0.006256 0.015436 0.000000 0.000000 0.000000
# 4 0.000000 0.000000 0.000000 0.031493 0.000000 0.000000
# 5 0.000000 0.000000 0.000000 0.000000 0.033636 0.000000
# 6 0.000000 0.000000 0.000000 0.000000 0.000000 0.058641
#
#
# Mechanical properties :
#
#
# Convention : Reuss Voigt Hill
#
# Bulk Modulus (GPa) = 49.73344 52.81903 51.27623
# Shear Modulus (GPa) = 25.19641 27.80091 26.49866
#
# Velocity S-wave (km/s) = 3.58415 3.76483 3.67560
# Velocity P-wave (km/s) = 6.51799 6.76963 6.64500
#
# Compressibility (1/GPa) = 0.02010720
#
# Stress axis : x y z
#
# Youngs Moduli (GPa) = 108.29925 51.63131 64.78394
#
# Poissons Ratio (x) = 0.18316 0.14006
# Poissons Ratio (y) = 0.38420 0.40527
# Poissons Ratio (z) = 0.23414 0.32299
#
# Static dielectric constant tensor:
#      x y z
#    x 3.933810 0.000000 0.000000 
#    y 0.000000 3.457590 0.000000 
#    z 0.000000 0.000000 3.369000 
# 
# 
# High freq. dielectric constant tensor:
#      x y z
#    x 1.782160 0.000000 0.000000 
#    y 0.000000 1.763840 0.000000 
#    z 0.000000 0.000000 1.741240 
# 
# From -- ./inp_files/40195.got.cif
#   From: 2010.03.12/outbox.cif.g09.slc.cpg/sg67_21_cif.got.tgz:40195.got - 2010.04.10 22:41:39.
