data_PCOD8279072
_publ_section_title
;
Structure prediction by ZEFSAII (Michael W. Deem and Ramdas Pophale) SiO2 
 PCOD8279072
Probable space group: C M M A
;
_chemical_formula_sum "Si O2"
_cell_formula_units_Z 96
_cell_length_a 27.220827
_cell_length_b 15.827773
_cell_length_c 13.549319
_cell_angle_alpha 90.000000
_cell_angle_beta 90.000000
_cell_angle_gamma 90.000000
_cell_volume 5837.657302
_symmetry_space_group_name_H-M "C M M A"
_symmetry_group_IT_number 67
_symmetry_cell_setting 'orthorhombic'
loop_
_space_group_symop_operation_xyz
x,y,z
-x,1/2-y,z
x,-y,-z
-x,1/2+y,-z
-x,-y,-z
x,1/2+y,-z
-x,y,z
x,1/2-y,z
1/2+x,1/2+y,z
1/2-x,-y,z
1/2+x,1/2-y,-z
1/2-x,y,-z
1/2-x,1/2-y,-z
1/2+x,y,-z
1/2-x,1/2+y,z
1/2+x,-y,z
loop_
_atom_site_type_symbol
_atom_site_label
_atom_site_fract_x
_atom_site_fract_y
_atom_site_fract_z
Si Si1 0.303814 0.490435 0.384235
Si Si2 0.395290 0.092115 0.632841
Si Si3 0.872485 0.154534 0.582424
Si Si4 0.057444 0.750000 0.972896
Si Si5 0.558430 0.250000 0.741417
Si Si6 0.943129 0.929405 0.287858
Si Si7 0.441537 0.077414 0.063966
O O1 0.298136 0.500000 0.500000
O O2 0.250000 0.500000 0.333781
O O3 0.340008 0.561717 0.337800
O O4 0.326870 0.397166 0.370463
O O5 0.394188 0.115377 0.517932
O O6 0.414459 0.168981 0.697685
O O7 0.432098 0.014410 0.650786
O O8 0.855088 0.250000 0.565023
O O9 0.916448 0.150118 0.661464
O O10 0.068136 0.750000 0.857102
O O11 0.000000 0.750000 0.993802
O O12 0.080345 0.834167 0.022513
O O13 0.500000 0.250000 0.716361
O O14 0.924231 0.937820 0.175751
O O15 0.000000 0.908994 0.290082
O O16 0.500000 0.078320 0.055167
O O17 0.419949 0.000000 0.000000
#
# Coordination Sequence:
#
# PCOD8279072 Si02
#       7
#    16  16  16   8   8  16  16
#     4   8  16  33  52  68  92 125 159 203 254 289
#     4  10  19  33  47  68 100 130 166 203 230 286
#     4  10  20  33  46  70 103 129 163 203 233 282
#     4   9  18  30  45  65  93 125 162 211 250 279
#     4  11  20  30  47  70 101 137 168 197 239 288
#     4  10  20  31  47  65  95 138 170 195 237 283
#     4   9  17  30  46  65  88 120 166 211 249 285
#
# _framework density 16.444953000000002
#
# number of rings (size 3 to 8) (size 9 to 14) (size 15 to 20)
#    0.000    2.500    0.833    3.000    1.167    5.000 
#    1.500    1.667    0.000    0.000    0.000    0.000 
#    0.000   48.000    0.000    0.000    0.000    0.000 
#
# Total GULP energy -594885.018084 kJ/mol
# GULP energy per Si atom -12393.437877 kJ/mol
# Density = 1.640752 g / cm^3
# Si number density = 16.444953 Si / 1000 Ang^3
#
#
#
# Elastic Constant Matrix: (Units=GPa)
#
#
# Indices 1 2 3 4 5 6 
#
# 1 85.7577 36.4298 38.3852 0.0000 0.0000 0.0000
# 2 36.4298 126.9194 47.2325 0.0000 0.0000 0.0000
# 3 38.3852 47.2325 79.6579 0.0000 0.0000 0.0000
# 4 0.0000 0.0000 0.0000 22.9860 0.0000 0.0000
# 5 0.0000 0.0000 0.0000 0.0000 2.4411 0.0000
# 6 0.0000 0.0000 0.0000 0.0000 0.0000 9.3320
#
#
#
# Elastic Compliance Matrix: (Units=1/GPa)
#
#
# Indices 1 2 3 4 5 6 
#
# 1 0.015297 -0.002114 -0.006118 0.000000 0.000000 0.000000
# 2 -0.002114 0.010402 -0.005149 0.000000 0.000000 0.000000
# 3 -0.006118 -0.005149 0.018555 0.000000 0.000000 0.000000
# 4 0.000000 0.000000 0.000000 0.043505 0.000000 0.000000
# 5 0.000000 0.000000 0.000000 0.000000 0.409650 0.000000
# 6 0.000000 0.000000 0.000000 0.000000 0.000000 0.107159
#
#
# Mechanical properties :
#
#
# Convention : Reuss Voigt Hill
#
# Bulk Modulus (GPa) = 57.16870 59.60334 58.38602
# Shear Modulus (GPa) = 7.84732 18.30432 13.07582
#
# Velocity S-wave (km/s) = 2.18683 3.33988 2.82286
# Velocity P-wave (km/s) = 6.41993 7.15513 6.79748
#
# Compressibility (1/GPa) = 0.01749209
#
# Stress axis : x y z
#
# Youngs Moduli (GPa) = 65.37170 96.13519 53.89429
#
# Poissons Ratio (x) = 0.20323 0.32972
# Poissons Ratio (y) = 0.13820 0.27751
# Poissons Ratio (z) = 0.39993 0.49501
#
# Static dielectric constant tensor:
#      x y z
#    x 3.122760 0.000000 0.000000 
#    y 0.000000 3.290230 0.000000 
#    z 0.000000 0.000000 3.086460 
# 
# 
# High freq. dielectric constant tensor:
#      x y z
#    x 1.595000 0.000000 0.000000 
#    y 0.000000 1.645170 0.000000 
#    z 0.000000 0.000000 1.622200 
# 
# From -- ./inp_files/18494.got.cif
#   From: 2010.03.12/outbox.cif.g09.slc.cpg/sg67_10_cif.got.tgz:18494.got - 2010.04.10 22:41:39.
