data_PCOD8279755
_publ_section_title
;
Structure prediction by ZEFSAII (Michael W. Deem and Ramdas Pophale) SiO2 
 PCOD8279755
Probable space group: C M M A
;
_chemical_formula_sum "Si O2"
_cell_formula_units_Z 88
_cell_length_a 8.757825
_cell_length_b 24.728707
_cell_length_c 21.613209
_cell_angle_alpha 90.000000
_cell_angle_beta 90.000000
_cell_angle_gamma 90.000000
_cell_volume 4680.765938
_symmetry_space_group_name_H-M "C M M A"
_symmetry_group_IT_number 67
_symmetry_cell_setting 'orthorhombic'
loop_
_space_group_symop_operation_xyz
x,y,z
-x,1/2-y,z
x,-y,-z
-x,1/2+y,-z
-x,-y,-z
x,1/2+y,-z
-x,y,z
x,1/2-y,z
1/2+x,1/2+y,z
1/2-x,-y,z
1/2+x,1/2-y,-z
1/2-x,y,-z
1/2-x,1/2-y,-z
1/2+x,y,-z
1/2-x,1/2+y,z
1/2+x,-y,z
loop_
_atom_site_type_symbol
_atom_site_label
_atom_site_fract_x
_atom_site_fract_y
_atom_site_fract_z
Si Si1 0.177691 0.443969 0.800095
Si Si2 0.318788 0.638718 0.436847
Si Si3 0.678194 0.250000 0.933242
Si Si4 0.821482 0.943855 0.344399
Si Si5 0.180441 0.334985 0.167079
Si Si6 0.821461 0.750000 0.254273
Si Si7 0.179827 0.250000 0.601231
O O1 0.250000 0.500000 0.823504
O O2 0.210930 0.435416 0.727847
O O3 0.254536 0.395311 0.837888
O O4 0.000000 0.445093 0.815088
O O5 0.500000 0.638057 0.439492
O O6 0.250000 0.613564 0.500000
O O7 0.261870 0.604544 0.378726
O O8 0.256670 0.698938 0.430503
O O9 0.500000 0.250000 0.942826
O O10 0.728861 0.196756 0.895178
O O11 0.750000 0.250000 0.000000
O O12 0.000000 0.943262 0.359739
O O13 0.750000 0.000000 0.367616
O O14 0.249585 0.304279 0.226144
O O15 0.000000 0.336379 0.175487
O O16 0.784771 0.750000 0.326297
O O17 0.000000 0.750000 0.240219
O O18 0.000000 0.250000 0.587734
#
# Coordination Sequence:
#
# PCOD8279755 Si02
#       7
#    16  16   8  16  16   8   8
#     4  10  20  34  55  82 112 145 178 216 265 318
#     4  12  25  40  57  76 100 134 175 219 269 324
#     4   9  20  36  55  81 112 149 187 226 266 306
#     4  10  21  38  58  82 109 137 174 218 265 319
#     4  10  20  34  53  81 115 145 180 223 266 313
#     4  10  20  33  53  80 108 139 174 215 266 321
#     4  11  23  39  56  77 106 136 171 217 267 323
#
# _framework density 18.800343000000002
#
# number of rings (size 3 to 8) (size 9 to 14) (size 15 to 20)
#    0.000    1.636    0.000    5.727    0.000   10.545 
#    0.000    1.818    0.000    0.545    0.000    3.818 
#    0.000    0.000    0.000    0.000    0.000    0.000 
#
# Total GULP energy -545822.277367 kJ/mol
# GULP energy per Si atom -12405.051758 kJ/mol
# Density = 1.875755 g / cm^3
# Si number density = 18.800343 Si / 1000 Ang^3
#
#
#
# Elastic Constant Matrix: (Units=GPa)
#
#
# Indices 1 2 3 4 5 6 
#
# 1 118.2502 52.6219 51.0192 0.0000 0.0000 0.0000
# 2 52.6219 142.3296 41.5974 0.0000 0.0000 0.0000
# 3 51.0192 41.5974 77.4921 0.0000 0.0000 0.0000
# 4 0.0000 0.0000 0.0000 9.1055 0.0000 0.0000
# 5 0.0000 0.0000 0.0000 0.0000 29.7278 0.0000
# 6 0.0000 0.0000 0.0000 0.0000 0.0000 41.0326
#
#
#
# Elastic Compliance Matrix: (Units=1/GPa)
#
#
# Indices 1 2 3 4 5 6 
#
# 1 0.012602 -0.002650 -0.006874 0.000000 0.000000 0.000000
# 2 -0.002650 0.008891 -0.003028 0.000000 0.000000 0.000000
# 3 -0.006874 -0.003028 0.019056 0.000000 0.000000 0.000000
# 4 0.000000 0.000000 0.000000 0.109823 0.000000 0.000000
# 5 0.000000 0.000000 0.000000 0.000000 0.033639 0.000000
# 6 0.000000 0.000000 0.000000 0.000000 0.000000 0.024371
#
#
# Mechanical properties :
#
#
# Convention : Reuss Voigt Hill
#
# Bulk Modulus (GPa) = 64.74967 69.83878 67.29422
# Shear Modulus (GPa) = 20.95268 28.82874 24.89071
#
# Velocity S-wave (km/s) = 3.34201 3.92013 3.64256
# Velocity P-wave (km/s) = 7.02905 7.59725 7.31866
#
# Compressibility (1/GPa) = 0.01544409
#
# Stress axis : x y z
#
# Youngs Moduli (GPa) = 79.35353 112.47836 52.47786
#
# Poissons Ratio (x) = 0.29807 0.36075
# Poissons Ratio (y) = 0.21029 0.15889
# Poissons Ratio (z) = 0.54550 0.34055
#
# Static dielectric constant tensor:
#      x y z
#    x 3.565240 0.000000 0.000000 
#    y 0.000000 3.603700 0.000000 
#    z 0.000000 0.000000 4.110210 
# 
# 
# High freq. dielectric constant tensor:
#      x y z
#    x 1.747780 0.000000 0.000000 
#    y 0.000000 1.740130 0.000000 
#    z 0.000000 0.000000 1.708120 
# 
# From -- ./inp_files/37005.got.cif
#   From: 2010.03.12/outbox.cif.g09.slc.cpg/sg67_19_cif.got.tgz:37005.got - 2010.04.10 22:41:39.
