data_PCOD8279957
_publ_section_title
;
Structure prediction by ZEFSAII (Michael W. Deem and Ramdas Pophale) SiO2 
 PCOD8279957
Probable space group: C M M A
;
_chemical_formula_sum "Si O2"
_cell_formula_units_Z 96
_cell_length_a 8.734332
_cell_length_b 18.674098
_cell_length_c 30.574683
_cell_angle_alpha 90.000000
_cell_angle_beta 90.000000
_cell_angle_gamma 90.000000
_cell_volume 4986.907266
_symmetry_space_group_name_H-M "C M M A"
_symmetry_group_IT_number 67
_symmetry_cell_setting 'orthorhombic'
loop_
_space_group_symop_operation_xyz
x,y,z
-x,1/2-y,z
x,-y,-z
-x,1/2+y,-z
-x,-y,-z
x,1/2+y,-z
-x,y,z
x,1/2-y,z
1/2+x,1/2+y,z
1/2-x,-y,z
1/2+x,1/2-y,-z
1/2-x,y,-z
1/2-x,1/2-y,-z
1/2+x,y,-z
1/2-x,1/2+y,z
1/2+x,-y,z
loop_
_atom_site_type_symbol
_atom_site_label
_atom_site_fract_x
_atom_site_fract_y
_atom_site_fract_z
Si Si1 0.319307 0.077718 0.704706
Si Si2 0.826971 0.165398 0.118228
Si Si3 0.320938 0.576115 0.954870
Si Si4 0.818145 0.670365 0.784368
Si Si5 0.177977 0.333256 0.379877
Si Si6 0.819233 0.575005 0.453184
O O1 0.500000 0.070335 0.707793
O O2 0.252566 0.115103 0.748544
O O3 0.270224 0.126274 0.663879
O O4 0.250000 0.000000 0.698837
O O5 0.819803 0.250000 0.112987
O O6 0.711691 0.131041 0.083907
O O7 0.772406 0.143594 0.167089
O O8 0.000000 0.138059 0.109597
O O9 0.500000 0.567295 0.961535
O O10 0.250000 0.500000 0.942293
O O11 0.250000 0.605843 0.000000
O O12 0.750967 0.750000 0.775523
O O13 0.000000 0.674987 0.780872
O O14 0.213768 0.250000 0.373253
O O15 0.277764 0.362033 0.419961
O O16 0.000000 0.346706 0.390141
O O17 0.750000 0.500000 0.435976
O O18 0.750000 0.595447 0.500000
O O19 0.000000 0.566963 0.457440
#
# Coordination Sequence:
#
# PCOD8279957 Si02
#       6
#    16  16  16  16  16  16
#     4  10  20  34  54  80 109 142 181 223 267 317
#     4   9  18  34  56  81 109 141 178 220 266 317
#     4  11  22  37  56  77 105 139 178 222 269 321
#     4   8  15  31  55  79 104 138 179 219 260 311
#     4  10  21  37  57  81 110 145 185 228 273 321
#     4  11  22  38  60  84 112 145 182 224 271 323
#
# _framework density 19.250409000000001
#
# number of rings (size 3 to 8) (size 9 to 14) (size 15 to 20)
#    0.000    2.167    0.000    6.000    0.000    6.000 
#    0.000    2.500    0.000    2.500    0.000    0.000 
#    0.000    0.000    0.000    0.000    0.000    0.000 
#
# Total GULP energy -595279.856096 kJ/mol
# GULP energy per Si atom -12401.663669 kJ/mol
# Density = 1.920659 g / cm^3
# Si number density = 19.250409 Si / 1000 Ang^3
#
#
#
# Elastic Constant Matrix: (Units=GPa)
#
#
# Indices 1 2 3 4 5 6 
#
# 1 94.0530 41.5518 51.9060 0.0000 0.0000 0.0000
# 2 41.5518 111.2459 80.8533 0.0000 0.0000 0.0000
# 3 51.9060 80.8533 145.7697 0.0000 0.0000 0.0000
# 4 0.0000 0.0000 0.0000 41.5755 0.0000 0.0000
# 5 0.0000 0.0000 0.0000 0.0000 23.8623 0.0000
# 6 0.0000 0.0000 0.0000 0.0000 0.0000 27.2460
#
#
#
# Elastic Compliance Matrix: (Units=1/GPa)
#
#
# Indices 1 2 3 4 5 6 
#
# 1 0.013677 -0.002629 -0.003412 0.000000 0.000000 0.000000
# 2 -0.002629 0.015566 -0.007698 0.000000 0.000000 0.000000
# 3 -0.003412 -0.007698 0.012345 0.000000 0.000000 0.000000
# 4 0.000000 0.000000 0.000000 0.024053 0.000000 0.000000
# 5 0.000000 0.000000 0.000000 0.000000 0.041907 0.000000
# 6 0.000000 0.000000 0.000000 0.000000 0.000000 0.036703
#
#
# Mechanical properties :
#
#
# Convention : Reuss Voigt Hill
#
# Bulk Modulus (GPa) = 70.86985 77.74343 74.30664
# Shear Modulus (GPa) = 28.33996 30.32058 29.33027
#
# Velocity S-wave (km/s) = 3.84106 3.97301 3.90759
# Velocity P-wave (km/s) = 7.52105 7.84343 7.68393
#
# Compressibility (1/GPa) = 0.01411037
#
# Stress axis : x y z
#
# Youngs Moduli (GPa) = 73.11762 64.24441 81.00610
#
# Poissons Ratio (x) = 0.16887 0.27640
# Poissons Ratio (y) = 0.19219 0.62356
# Poissons Ratio (z) = 0.24948 0.49453
#
# Static dielectric constant tensor:
#      x y z
#    x 3.331340 0.000000 0.000000 
#    y 0.000000 3.519940 0.000000 
#    z 0.000000 0.000000 3.735400 
# 
# 
# High freq. dielectric constant tensor:
#      x y z
#    x 1.728530 0.000000 0.000000 
#    y 0.000000 1.747090 0.000000 
#    z 0.000000 0.000000 1.763360 
# 
# From -- ./inp_files/43521.got.cif
#   From: 2010.03.12/outbox.cif.g09.slc.cpg/sg67_22_cif.got.tgz:43521.got - 2010.04.10 22:41:39.
