data_PCOD8279458
_publ_section_title
;
Structure prediction by ZEFSAII (Michael W. Deem and Ramdas Pophale) SiO2 
 PCOD8279458
Probable space group: C M M A
;
_chemical_formula_sum "Si O2"
_cell_formula_units_Z 104
_cell_length_a 9.029804
_cell_length_b 26.399136
_cell_length_c 24.692606
_cell_angle_alpha 90.000000
_cell_angle_beta 90.000000
_cell_angle_gamma 90.000000
_cell_volume 5886.199315
_symmetry_space_group_name_H-M "C M M A"
_symmetry_group_IT_number 67
_symmetry_cell_setting 'orthorhombic'
loop_
_space_group_symop_operation_xyz
x,y,z
-x,1/2-y,z
x,-y,-z
-x,1/2+y,-z
-x,-y,-z
x,1/2+y,-z
-x,y,z
x,1/2-y,z
1/2+x,1/2+y,z
1/2-x,-y,z
1/2+x,1/2-y,-z
1/2-x,y,-z
1/2-x,1/2-y,-z
1/2+x,y,-z
1/2-x,1/2+y,z
1/2+x,-y,z
loop_
_atom_site_type_symbol
_atom_site_label
_atom_site_fract_x
_atom_site_fract_y
_atom_site_fract_z
Si Si1 0.833525 0.189533 0.446692
Si Si2 0.338746 0.953811 0.246666
Si Si3 0.666736 0.049422 0.881513
Si Si4 0.162988 0.192346 0.656095
Si Si5 0.177374 0.843113 0.757285
Si Si6 0.672610 0.250000 0.057142
Si Si7 0.676010 0.846361 0.871178
O O1 0.836769 0.250000 0.445293
O O2 0.750000 0.169684 0.500000
O O3 0.750988 0.166621 0.393737
O O4 0.000000 0.167956 0.447133
O O5 0.500000 0.958285 0.272250
O O6 0.344585 0.958252 0.182245
O O7 0.271464 0.899343 0.261431
O O8 0.250000 0.000000 0.273005
O O9 0.500000 0.053206 0.905884
O O10 0.756035 0.101174 0.894468
O O11 0.750000 0.000000 0.906642
O O12 0.138566 0.250000 0.639656
O O13 0.259749 0.192769 0.710898
O O14 0.000000 0.166986 0.664083
O O15 0.252478 0.830080 0.814210
O O16 0.000000 0.838439 0.763507
O O17 0.500000 0.250000 0.046615
O O18 0.718865 0.199196 0.088881
O O19 0.750000 0.250000 0.000000
O O20 0.500000 0.853018 0.864303
#
# Coordination Sequence:
#
# PCOD8279458 Si02
#       7
#    16  16  16  16  16   8  16
#     4   9  16  27  43  61  83 115 157 201 242 286
#     4   8  15  26  41  62  90 120 154 188 226 277
#     4   9  16  28  48  76 104 132 163 199 244 297
#     4  10  20  31  43  62  91 127 163 201 243 286
#     4  10  20  32  46  70  99 129 162 197 240 293
#     4  10  24  42  60  78 100 132 173 214 253 294
#     4  10  20  35  53  76 103 133 167 207 251 301
#
# _framework density 17.668448000000001
#
# number of rings (size 3 to 8) (size 9 to 14) (size 15 to 20)
#    0.000    2.615    0.000    3.231    1.077    8.308 
#    0.000    0.000    0.000    0.462    0.000    3.231 
#    0.000    0.615    0.000    6.462    0.000    4.000 
#
# Total GULP energy -644461.679415 kJ/mol
# GULP energy per Si atom -12393.493835 kJ/mol
# Density = 1.762823 g / cm^3
# Si number density = 17.668448 Si / 1000 Ang^3
#
#
#
# Elastic Constant Matrix: (Units=GPa)
#
#
# Indices 1 2 3 4 5 6 
#
# 1 131.1180 45.0229 57.6050 0.0000 0.0000 0.0000
# 2 45.0229 77.8606 38.5695 0.0000 0.0000 0.0000
# 3 57.6050 38.5695 95.9460 0.0000 0.0000 0.0000
# 4 0.0000 0.0000 0.0000 1.0088 0.0000 0.0000
# 5 0.0000 0.0000 0.0000 0.0000 25.5914 0.0000
# 6 0.0000 0.0000 0.0000 0.0000 0.0000 26.6987
#
#
#
# Elastic Compliance Matrix: (Units=1/GPa)
#
#
# Indices 1 2 3 4 5 6 
#
# 1 0.011253 -0.003946 -0.005170 0.000000 0.000000 0.000000
# 2 -0.003946 0.017421 -0.004634 0.000000 0.000000 0.000000
# 3 -0.005170 -0.004634 0.015389 0.000000 0.000000 0.000000
# 4 0.000000 0.000000 0.000000 0.991245 0.000000 0.000000
# 5 0.000000 0.000000 0.000000 0.000000 0.039076 0.000000
# 6 0.000000 0.000000 0.000000 0.000000 0.000000 0.037455
#
#
# Mechanical properties :
#
#
# Convention : Reuss Voigt Hill
#
# Bulk Modulus (GPa) = 60.37404 65.25771 62.81588
# Shear Modulus (GPa) = 4.36735 21.57492 12.97113
#
# Velocity S-wave (km/s) = 1.57391 3.49821 2.71244
# Velocity P-wave (km/s) = 6.12761 7.30284 6.74089
#
# Compressibility (1/GPa) = 0.01656341
#
# Stress axis : x y z
#
# Youngs Moduli (GPa) = 88.86489 57.40291 64.98039
#
# Poissons Ratio (x) = 0.22652 0.33594
# Poissons Ratio (y) = 0.35067 0.30111
# Poissons Ratio (z) = 0.45942 0.26599
#
# Static dielectric constant tensor:
#      x y z
#    x 3.605730 0.000000 0.000000 
#    y 0.000000 3.239440 0.000000 
#    z 0.000000 0.000000 2.704260 
# 
# 
# High freq. dielectric constant tensor:
#      x y z
#    x 1.702970 0.000000 0.000000 
#    y 0.000000 1.656700 0.000000 
#    z 0.000000 0.000000 1.647070 
# 
# From -- ./inp_files/37318.got.cif
#   From: 2010.03.12/outbox.cif.g09.slc.cpg/sg67_19_cif.got.tgz:37318.got - 2010.04.10 22:41:39.
