data_PCOD8279224
_publ_section_title
;
Structure prediction by ZEFSAII (Michael W. Deem and Ramdas Pophale) SiO2 
 PCOD8279224
Probable space group: C M M A
;
_chemical_formula_sum "Si O2"
_cell_formula_units_Z 76
_cell_length_a 27.975137
_cell_length_b 19.809923
_cell_length_c 7.134599
_cell_angle_alpha 90.000000
_cell_angle_beta 90.000000
_cell_angle_gamma 90.000000
_cell_volume 3953.889958
_symmetry_space_group_name_H-M "C M M A"
_symmetry_group_IT_number 67
_symmetry_cell_setting 'orthorhombic'
loop_
_space_group_symop_operation_xyz
x,y,z
-x,1/2-y,z
x,-y,-z
-x,1/2+y,-z
-x,-y,-z
x,1/2+y,-z
-x,y,z
x,1/2-y,z
1/2+x,1/2+y,z
1/2-x,-y,z
1/2+x,1/2-y,-z
1/2-x,y,-z
1/2-x,1/2-y,-z
1/2+x,y,-z
1/2-x,1/2+y,z
1/2+x,-y,z
loop_
_atom_site_type_symbol
_atom_site_label
_atom_site_fract_x
_atom_site_fract_y
_atom_site_fract_z
Si Si1 0.709442 0.173035 0.860490
Si Si2 0.554863 0.443732 0.141097
Si Si3 0.628888 0.674206 0.846568
Si Si4 0.596737 0.500000 0.500000
Si Si5 0.676946 0.102448 0.486472
Si Si6 0.750000 0.500000 0.500000
O O1 0.723528 0.250000 0.811996
O O2 0.704892 0.133658 0.664174
O O3 0.750000 0.142276 0.000000
O O4 0.658817 0.169202 0.963634
O O5 0.500000 0.425694 0.098963
O O6 0.584263 0.374847 0.128687
O O7 0.560470 0.477783 0.340996
O O8 0.575052 0.500000 0.000000
O O9 0.609444 0.750000 0.817043
O O10 0.662305 0.657316 0.667673
O O11 0.629866 0.563379 0.440739
O O12 0.713678 0.049244 0.384877
#
# Coordination Sequence:
#
# PCOD8279224 Si02
#       6
#    16  16  16   8  16   4
#     4  10  20  33  51  74 101 137 176 212 259 319
#     4  10  20  35  56  80 107 140 178 224 277 329
#     4  10  21  36  55  79 107 141 180 222 271 326
#     4   9  19  33  53  76 102 136 175 217 263 321
#     4  10  19  34  51  73 105 137 172 219 266 308
#     4  10  20  32  50  76 102 134 178 218 258 314
#
# _framework density 19.221578000000001
#
# number of rings (size 3 to 8) (size 9 to 14) (size 15 to 20)
#    0.000    2.105    0.000    3.474    0.000    0.421 
#    0.000   12.105    0.000    0.000    0.000    5.895 
#    0.000    0.000    0.000    0.000    0.000    0.000 
#
# Total GULP energy -470907.622641 kJ/mol
# GULP energy per Si atom -12392.305859 kJ/mol
# Density = 1.917783 g / cm^3
# Si number density = 19.221578 Si / 1000 Ang^3
#
#
#
# Elastic Constant Matrix: (Units=GPa)
#
#
# Indices 1 2 3 4 5 6 
#
# 1 77.7894 50.4247 33.5209 0.0000 0.0000 0.0000
# 2 50.4247 130.2003 56.6390 0.0000 0.0000 0.0000
# 3 33.5209 56.6390 87.3548 0.0000 0.0000 0.0000
# 4 0.0000 0.0000 0.0000 27.0130 0.0000 0.0000
# 5 0.0000 0.0000 0.0000 0.0000 24.6799 0.0000
# 6 0.0000 0.0000 0.0000 0.0000 0.0000 14.3314
#
#
#
# Elastic Compliance Matrix: (Units=1/GPa)
#
#
# Indices 1 2 3 4 5 6 
#
# 1 0.017819 -0.005469 -0.003292 0.000000 0.000000 0.000000
# 2 -0.005469 0.012376 -0.005926 0.000000 0.000000 0.000000
# 3 -0.003292 -0.005926 0.016553 0.000000 0.000000 0.000000
# 4 0.000000 0.000000 0.000000 0.037019 0.000000 0.000000
# 5 0.000000 0.000000 0.000000 0.000000 0.040519 0.000000
# 6 0.000000 0.000000 0.000000 0.000000 0.000000 0.069777
#
#
# Mechanical properties :
#
#
# Convention : Reuss Voigt Hill
#
# Bulk Modulus (GPa) = 57.55439 64.05708 60.80573
# Shear Modulus (GPa) = 21.81234 23.52219 22.66726
#
# Velocity S-wave (km/s) = 3.37231 3.50199 3.43776
# Velocity P-wave (km/s) = 6.72093 7.05336 6.88915
#
# Compressibility (1/GPa) = 0.01737487
#
# Stress axis : x y z
#
# Youngs Moduli (GPa) = 56.12049 80.79869 60.41228
#
# Poissons Ratio (x) = 0.44189 0.19885
# Poissons Ratio (y) = 0.30693 0.35800
# Poissons Ratio (z) = 0.18473 0.47881
#
# Static dielectric constant tensor:
#      x y z
#    x 3.409420 0.000000 0.000000 
#    y 0.000000 2.990530 0.000000 
#    z 0.000000 0.000000 3.341690 
# 
# 
# High freq. dielectric constant tensor:
#      x y z
#    x 1.748160 0.000000 0.000000 
#    y 0.000000 1.753990 0.000000 
#    z 0.000000 0.000000 1.734340 
# 
# From -- ./inp_files/4728.got.cif
#   From: 2010.03.12/outbox.cif.g09.slc.cpg/sg67_3_cif.got.tgz:4728.got - 2010.04.10 22:41:39.
