data_PCOD8279568
_publ_section_title
;
Structure prediction by ZEFSAII (Michael W. Deem and Ramdas Pophale) SiO2 
 PCOD8279568
Probable space group: C M M A
;
_chemical_formula_sum "Si O2"
_cell_formula_units_Z 80
_cell_length_a 8.902327
_cell_length_b 19.704679
_cell_length_c 25.285422
_cell_angle_alpha 90.000000
_cell_angle_beta 90.000000
_cell_angle_gamma 90.000000
_cell_volume 4435.505410
_symmetry_space_group_name_H-M "C M M A"
_symmetry_group_IT_number 67
_symmetry_cell_setting 'orthorhombic'
loop_
_space_group_symop_operation_xyz
x,y,z
-x,1/2-y,z
x,-y,-z
-x,1/2+y,-z
-x,-y,-z
x,1/2+y,-z
-x,y,z
x,1/2-y,z
1/2+x,1/2+y,z
1/2-x,-y,z
1/2+x,1/2-y,-z
1/2-x,y,-z
1/2-x,1/2-y,-z
1/2+x,y,-z
1/2-x,1/2+y,z
1/2+x,-y,z
loop_
_atom_site_type_symbol
_atom_site_label
_atom_site_fract_x
_atom_site_fract_y
_atom_site_fract_z
Si Si1 0.171676 0.828759 0.367157
Si Si2 0.322090 0.429243 0.555536
Si Si3 0.172827 0.327537 0.754668
Si Si4 0.675206 0.073177 0.950235
Si Si5 0.825642 0.072349 0.166128
O O1 0.204748 0.750000 0.377794
O O2 0.286784 0.872010 0.401611
O O3 0.200417 0.846911 0.306164
O O4 0.000000 0.846096 0.382603
O O5 0.500000 0.437643 0.549217
O O6 0.250000 0.500000 0.574649
O O7 0.250000 0.406838 0.500000
O O8 0.220125 0.250000 0.764727
O O9 0.274554 0.374620 0.790439
O O10 0.000000 0.338742 0.769931
O O11 0.500000 0.067052 0.961384
O O12 0.707889 0.104797 0.892226
O O13 0.750000 0.000000 0.949120
O O14 0.750000 0.114385 0.000000
O O15 0.000000 0.058729 0.173105
O O16 0.750000 0.000000 0.175068
#
# Coordination Sequence:
#
# PCOD8279568 Si02
#       5
#    16  16  16  16  16
#     4   9  19  37  58  79 104 134 171 213 254 300
#     4  11  22  37  57  80 108 140 173 209 253 302
#     4   9  19  36  56  76 101 135 171 209 256 305
#     4   9  16  26  42  66  95 127 162 202 250 298
#     4  10  20  32  49  75 104 133 168 211 254 301
#
# _framework density 18.036275
#
# number of rings (size 3 to 8) (size 9 to 14) (size 15 to 20)
#    0.000    2.400    0.000    5.400    0.000    5.200 
#    0.000    2.000    0.000    0.600    0.000    0.000 
#    0.000    0.000    0.000    0.000    0.000    0.000 
#
# Total GULP energy -495825.968146 kJ/mol
# GULP energy per Si atom -12395.649204 kJ/mol
# Density = 1.799522 g / cm^3
# Si number density = 18.036275 Si / 1000 Ang^3
#
#
#
# Elastic Constant Matrix: (Units=GPa)
#
#
# Indices 1 2 3 4 5 6 
#
# 1 120.4347 46.9091 63.6725 0.0000 0.0000 0.0000
# 2 46.9091 69.4598 62.5527 0.0000 0.0000 0.0000
# 3 63.6725 62.5527 112.5614 0.0000 0.0000 0.0000
# 4 0.0000 0.0000 0.0000 -70.6688 0.0000 0.0000
# 5 0.0000 0.0000 0.0000 0.0000 31.0582 0.0000
# 6 0.0000 0.0000 0.0000 0.0000 0.0000 28.8495
#
#
#
# Elastic Compliance Matrix: (Units=1/GPa)
#
#
# Indices 1 2 3 4 5 6 
#
# 1 0.012409 -0.004122 -0.004729 0.000000 0.000000 0.000000
# 2 -0.004122 0.030189 -0.014445 0.000000 0.000000 0.000000
# 3 -0.004729 -0.014445 0.019586 0.000000 0.000000 0.000000
# 4 0.000000 0.000000 0.000000 -0.014151 0.000000 0.000000
# 5 0.000000 0.000000 0.000000 0.000000 0.032198 0.000000
# 6 0.000000 0.000000 0.000000 0.000000 0.000000 0.034663
#
#
# Mechanical properties :
#
#
# Convention : Reuss Voigt Hill
#
# Bulk Modulus (GPa) = 64.13102 72.08048 68.10575
# Shear Modulus (GPa) = 29.99712 6.46922 18.23317
#
# Velocity S-wave (km/s) = 4.08260 1.89594 3.18294
# Velocity P-wave (km/s) = 7.60641 6.69654 7.16593
#
# Compressibility (1/GPa) = 0.01559308
#
# Stress axis : x y z
#
# Youngs Moduli (GPa) = 80.58910 33.12457 51.05566
#
# Poissons Ratio (x) = 0.13652 0.24143
# Poissons Ratio (y) = 0.33215 0.73751
# Poissons Ratio (z) = 0.38109 0.47849
#
# Static dielectric constant tensor:
#      x y z
#    x 3.351960 0.000000 0.000000 
#    y 0.000000 3.030720 0.000000 
#    z 0.000000 0.000000 3.934290 
# 
# 
# High freq. dielectric constant tensor:
#      x y z
#    x 1.707710 0.000000 0.000000 
#    y 0.000000 1.666400 0.000000 
#    z 0.000000 0.000000 1.714280 
# 
# From -- ./inp_files/43332.got.cif
#   From: 2010.03.12/outbox.cif.g09.slc.cpg/sg67_22_cif.got.tgz:43332.got - 2010.04.10 22:41:39.
