data_PCOD8279087
_publ_section_title
;
Structure prediction by ZEFSAII (Michael W. Deem and Ramdas Pophale) SiO2 
 PCOD8279087
Probable space group: C M M A
;
_chemical_formula_sum "Si O2"
_cell_formula_units_Z 128
_cell_length_a 17.002350
_cell_length_b 25.580800
_cell_length_c 16.839353
_cell_angle_alpha 90.000000
_cell_angle_beta 90.000000
_cell_angle_gamma 90.000000
_cell_volume 7324.002356
_symmetry_space_group_name_H-M "C M M A"
_symmetry_group_IT_number 67
_symmetry_cell_setting 'orthorhombic'
loop_
_space_group_symop_operation_xyz
x,y,z
-x,1/2-y,z
x,-y,-z
-x,1/2+y,-z
-x,-y,-z
x,1/2+y,-z
-x,y,z
x,1/2-y,z
1/2+x,1/2+y,z
1/2-x,-y,z
1/2+x,1/2-y,-z
1/2-x,y,-z
1/2-x,1/2-y,-z
1/2+x,y,-z
1/2-x,1/2+y,z
1/2+x,-y,z
loop_
_atom_site_type_symbol
_atom_site_label
_atom_site_fract_x
_atom_site_fract_y
_atom_site_fract_z
Si Si1 0.909102 0.805971 0.102112
Si Si2 0.907288 0.948706 0.343445
Si Si3 0.339698 0.061916 0.503612
Si Si4 0.673177 0.690275 0.052128
Si Si5 0.592634 0.433796 0.666247
Si Si6 0.906967 0.593568 0.181823
Si Si7 0.839093 0.497080 0.093654
Si Si8 0.906106 0.892011 0.836091
O O1 0.870036 0.750000 0.126317
O O2 0.867375 0.852752 0.150274
O O3 0.000000 0.804485 0.122711
O O4 0.899904 0.814371 0.007933
O O5 0.880766 0.918380 0.422909
O O6 0.874875 0.914621 0.270468
O O7 0.000000 0.952830 0.342747
O O8 0.872456 0.007162 0.329349
O O9 0.250000 0.078096 0.500000
O O10 0.375661 0.089204 0.582373
O O11 0.354175 0.000000 0.500000
O O12 0.684869 0.750000 0.082739
O O13 0.649608 0.653498 0.126845
O O14 0.750000 0.672298 0.000000
O O15 0.500000 0.435960 0.661584
O O16 0.617428 0.399151 0.742659
O O17 0.886079 0.546449 0.124775
O O18 0.000000 0.598939 0.180849
O O19 0.750000 0.500000 0.126703
O O20 0.885290 0.445549 0.120019
O O21 0.839117 0.500000 0.000000
O O22 0.000000 0.880235 0.844906
#
# Coordination Sequence:
#
# PCOD8279087 Si02
#       8
#    16  16  16  16  16  16  16  16
#     4   9  18  33  53  74  96 128 173 220 257 296
#     4   9  16  29  46  66  95 132 167 201 249 309
#     4   9  17  28  44  68  96 129 168 205 253 306
#     4  10  22  38  56  77 103 135 177 225 271 314
#     4   9  17  31  47  69  99 133 171 213 257 312
#     4  10  19  33  51  72 100 134 172 211 255 310
#     4  11  24  34  46  70 104 142 174 212 261 320
#     4  11  22  36  55  77 104 139 180 221 267 323
#
# _framework density 17.476783000000001
#
# number of rings (size 3 to 8) (size 9 to 14) (size 15 to 20)
#    0.000    2.250    1.250    1.875    3.500    5.250 
#    0.000    0.000    0.000    0.000    0.000    0.875 
#    0.000    5.000    0.000    0.000    0.000    0.000 
#
# Total GULP energy -792986.819599 kJ/mol
# GULP energy per Si atom -12390.419056 kJ/mol
# Density = 1.743700 g / cm^3
# Si number density = 17.476783 Si / 1000 Ang^3
#
#
#
# Elastic Constant Matrix: (Units=GPa)
#
#
# Indices 1 2 3 4 5 6 
#
# 1 33.8470 20.0648 33.0206 0.0000 0.0000 0.0000
# 2 20.0648 98.9980 61.7913 0.0000 0.0000 0.0000
# 3 33.0206 61.7913 141.7289 0.0000 0.0000 0.0000
# 4 0.0000 0.0000 0.0000 0.1509 0.0000 0.0000
# 5 0.0000 0.0000 0.0000 0.0000 22.6619 0.0000
# 6 0.0000 0.0000 0.0000 0.0000 0.0000 15.4747
#
#
#
# Elastic Compliance Matrix: (Units=1/GPa)
#
#
# Indices 1 2 3 4 5 6 
#
# 1 0.038899 -0.003060 -0.007729 0.000000 0.000000 0.000000
# 2 -0.003060 0.014118 -0.005442 0.000000 0.000000 0.000000
# 3 -0.007729 -0.005442 0.011229 0.000000 0.000000 0.000000
# 4 0.000000 0.000000 0.000000 6.625004 0.000000 0.000000
# 5 0.000000 0.000000 0.000000 0.000000 0.044127 0.000000
# 6 0.000000 0.000000 0.000000 0.000000 0.000000 0.064622
#
#
# Mechanical properties :
#
#
# Convention : Reuss Voigt Hill
#
# Bulk Modulus (GPa) = 31.46229 56.03638 43.74933
# Shear Modulus (GPa) = 0.73088 18.30397 9.51743
#
# Velocity S-wave (km/s) = 0.64739 3.23976 2.33615
# Velocity P-wave (km/s) = 4.31280 6.79173 5.68893
#
# Compressibility (1/GPa) = 0.03178408
#
# Stress axis : x y z
#
# Youngs Moduli (GPa) = 25.70782 70.82956 89.05352
#
# Poissons Ratio (x) = 0.21674 0.68827
# Poissons Ratio (y) = 0.07866 0.48467
# Poissons Ratio (z) = 0.19869 0.38549
#
# Static dielectric constant tensor:
#      x y z
#    x 3.253330 0.000000 0.000000 
#    y 0.000000 3.324030 0.000000 
#    z 0.000000 0.000000 3.545660 
# 
# 
# High freq. dielectric constant tensor:
#      x y z
#    x 1.675400 0.000000 0.000000 
#    y 0.000000 1.637660 0.000000 
#    z 0.000000 0.000000 1.677940 
# 
# From -- ./inp_files/34568.got.cif
#   From: 2010.03.12/outbox.cif.g09.slc.cpg/sg67_18_cif.got.tgz:34568.got - 2010.04.10 22:41:39.
