data_PCOD8279542
_publ_section_title
;
Structure prediction by ZEFSAII (Michael W. Deem and Ramdas Pophale) SiO2 
 PCOD8279542
Probable space group: C M M A
;
_chemical_formula_sum "Si O2"
_cell_formula_units_Z 88
_cell_length_a 15.920091
_cell_length_b 9.086763
_cell_length_c 30.039653
_cell_angle_alpha 90.000000
_cell_angle_beta 90.000000
_cell_angle_gamma 90.000000
_cell_volume 4345.599102
_symmetry_space_group_name_H-M "C M M A"
_symmetry_group_IT_number 67
_symmetry_cell_setting 'orthorhombic'
loop_
_space_group_symop_operation_xyz
x,y,z
-x,1/2-y,z
x,-y,-z
-x,1/2+y,-z
-x,-y,-z
x,1/2+y,-z
-x,y,z
x,1/2-y,z
1/2+x,1/2+y,z
1/2-x,-y,z
1/2+x,1/2-y,-z
1/2-x,y,-z
1/2-x,1/2-y,-z
1/2+x,y,-z
1/2-x,1/2+y,z
1/2+x,-y,z
loop_
_atom_site_type_symbol
_atom_site_label
_atom_site_fract_x
_atom_site_fract_y
_atom_site_fract_z
Si Si1 0.337580 0.580025 0.361601
Si Si2 0.500000 0.076738 0.952890
Si Si3 0.096564 0.408917 0.717811
Si Si4 0.839845 0.577838 0.541174
Si Si5 0.665474 0.075516 0.898586
Si Si6 0.596973 0.076953 0.184775
O O1 0.319873 0.750000 0.355228
O O2 0.250000 0.500000 0.357756
O O3 0.395465 0.525737 0.321690
O O4 0.381783 0.552034 0.410110
O O5 0.500000 0.250000 0.959955
O O6 0.584064 0.026657 0.926979
O O7 0.500000 0.000000 0.000000
O O8 0.136362 0.250000 0.703923
O O9 0.132709 0.461671 0.765527
O O10 0.000000 0.383260 0.727614
O O11 0.890598 0.500000 0.500000
O O12 0.830596 0.750000 0.530804
O O13 0.750000 0.500000 0.543304
O O14 0.677428 0.250000 0.898675
O O15 0.750000 0.000000 0.918465
O O16 0.653094 0.018485 0.848443
O O17 0.500000 0.029254 0.179136
O O18 0.608077 0.250000 0.174936
#
# Coordination Sequence:
#
# PCOD8279542 Si02
#       6
#    16   8  16  16  16  16
#     4  10  20  32  48  72 101 133 170 216 268 323
#     4  10  24  44  66  92 126 164 206 252 301 354
#     4   9  19  35  54  77 106 141 181 222 269 328
#     4   9  16  26  42  65  91 121 161 208 261 320
#     4  11  23  40  62  93 126 160 204 251 298 353
#     4   9  18  35  59  84 111 148 191 235 287 344
#
# _framework density 20.250373
#
# number of rings (size 3 to 8) (size 9 to 14) (size 15 to 20)
#    0.000    2.364    0.909    3.273    0.000    5.818 
#    0.000    3.636    0.000    0.545    0.000    0.000 
#    0.000    0.000    0.000    0.000    0.000    0.000 
#
# Total GULP energy -545200.187593 kJ/mol
# GULP energy per Si atom -12390.913354 kJ/mol
# Density = 2.020428 g / cm^3
# Si number density = 20.250373 Si / 1000 Ang^3
#
#
#
# Elastic Constant Matrix: (Units=GPa)
#
#
# Indices 1 2 3 4 5 6 
#
# 1 79.9764 34.5686 46.0957 0.0000 0.0000 0.0000
# 2 34.5686 102.1230 68.0793 0.0000 0.0000 0.0000
# 3 46.0957 68.0793 161.6969 0.0000 0.0000 0.0000
# 4 0.0000 0.0000 0.0000 52.2988 0.0000 0.0000
# 5 0.0000 0.0000 0.0000 0.0000 -10.5268 0.0000
# 6 0.0000 0.0000 0.0000 0.0000 0.0000 25.9113
#
#
#
# Elastic Compliance Matrix: (Units=1/GPa)
#
#
# Indices 1 2 3 4 5 6 
#
# 1 0.015697 -0.003240 -0.003111 0.000000 0.000000 0.000000
# 2 -0.003240 0.014282 -0.005089 0.000000 0.000000 0.000000
# 3 -0.003111 -0.005089 0.009214 0.000000 0.000000 0.000000
# 4 0.000000 0.000000 0.000000 0.019121 0.000000 0.000000
# 5 0.000000 0.000000 0.000000 0.000000 -0.094996 0.000000
# 6 0.000000 0.000000 0.000000 0.000000 0.000000 0.038593
#
#
# Mechanical properties :
#
#
# Convention : Reuss Voigt Hill
#
# Bulk Modulus (GPa) = 61.30162 71.25372 66.27767
# Shear Modulus (GPa) = 165.40919 26.54019 95.97469
#
# Velocity S-wave (km/s) = 9.04762 3.62415 6.89180
# Velocity P-wave (km/s) = 11.81031 7.26467 9.80456
#
# Compressibility (1/GPa) = 0.01631278
#
# Stress axis : x y z
#
# Youngs Moduli (GPa) = 63.70673 70.02051 108.53010
#
# Poissons Ratio (x) = 0.22684 0.33762
# Poissons Ratio (y) = 0.20638 0.55236
# Poissons Ratio (z) = 0.19818 0.35636
#
# Static dielectric constant tensor:
#      x y z
#    x 3.366230 0.000000 0.000000 
#    y 0.000000 2.609020 0.000000 
#    z 0.000000 0.000000 4.191640 
# 
# 
# High freq. dielectric constant tensor:
#      x y z
#    x 1.755900 0.000000 0.000000 
#    y 0.000000 1.792500 0.000000 
#    z 0.000000 0.000000 1.806340 
# 
# From -- ./inp_files/45763.got.cif
#   From: 2010.03.12/outbox.cif.g09.slc.cpg/sg67_23_cif.got.tgz:45763.got - 2010.04.10 22:41:39.
