data_PCOD8279890
_publ_section_title
;
Structure prediction by ZEFSAII (Michael W. Deem and Ramdas Pophale) SiO2 
 PCOD8279890
Probable space group: C M M A
;
_chemical_formula_sum "Si O2"
_cell_formula_units_Z 88
_cell_length_a 16.193919
_cell_length_b 9.102804
_cell_length_c 29.790514
_cell_angle_alpha 90.000000
_cell_angle_beta 90.000000
_cell_angle_gamma 90.000000
_cell_volume 4391.421773
_symmetry_space_group_name_H-M "C M M A"
_symmetry_group_IT_number 67
_symmetry_cell_setting 'orthorhombic'
loop_
_space_group_symop_operation_xyz
x,y,z
-x,1/2-y,z
x,-y,-z
-x,1/2+y,-z
-x,-y,-z
x,1/2+y,-z
-x,y,z
x,1/2-y,z
1/2+x,1/2+y,z
1/2-x,-y,z
1/2+x,1/2-y,-z
1/2-x,y,-z
1/2-x,1/2-y,-z
1/2+x,y,-z
1/2-x,1/2+y,z
1/2+x,-y,z
loop_
_atom_site_type_symbol
_atom_site_label
_atom_site_fract_x
_atom_site_fract_y
_atom_site_fract_z
Si Si1 0.661544 0.074334 0.543364
Si Si2 0.903393 0.911755 0.637975
Si Si3 0.333448 0.577493 0.202694
Si Si4 0.905313 0.589865 0.279871
Si Si5 0.000000 0.924453 0.952299
Si Si6 0.165036 0.422135 0.099715
O O1 0.667079 0.250000 0.537161
O O2 0.612310 0.027844 0.588010
O O3 0.616894 0.000000 0.500000
O O4 0.750000 0.000000 0.547817
O O5 0.863248 0.750000 0.642678
O O6 0.000000 0.901270 0.646394
O O7 0.862671 0.013709 0.676648
O O8 0.327123 0.750000 0.209620
O O9 0.250000 0.500000 0.218260
O O10 0.402070 0.510926 0.235373
O O11 0.353929 0.537681 0.151275
O O12 0.863754 0.750000 0.271781
O O13 0.000000 0.613397 0.291415
O O14 0.083860 0.976280 0.927131
O O15 0.000000 0.750000 0.957321
O O16 0.000000 0.000000 0.000000
O O17 0.179563 0.250000 0.092998
O O18 0.250000 0.500000 0.083096
#
# Coordination Sequence:
#
# PCOD8279890 Si02
#       6
#    16  16  16  16   8  16
#     4  10  20  34  53  75  99 128 165 210 260 315
#     4   9  19  36  54  73 100 136 177 216 260 318
#     4  10  20  35  57  81 109 145 184 228 277 331
#     4  10  21  35  52  78 110 142 178 222 268 320
#     4  10  22  40  60  88 120 156 200 244 291 352
#     4   9  20  38  60  85 118 154 196 244 293 347
#
# _framework density 20.039068
#
# number of rings (size 3 to 8) (size 9 to 14) (size 15 to 20)
#    0.000    2.364    0.000    2.182    1.273    5.455 
#    0.000    3.636    0.000    0.000    0.000    0.000 
#    0.000    0.000    0.000    0.000    0.000    0.000 
#
# Total GULP energy -545359.522948 kJ/mol
# GULP energy per Si atom -12394.534612 kJ/mol
# Density = 1.999346 g / cm^3
# Si number density = 20.039068 Si / 1000 Ang^3
#
#
#
# Elastic Constant Matrix: (Units=GPa)
#
#
# Indices 1 2 3 4 5 6 
#
# 1 72.5644 36.8666 50.9382 0.0000 0.0000 0.0000
# 2 36.8666 103.8430 67.3667 0.0000 0.0000 0.0000
# 3 50.9382 67.3667 145.2502 0.0000 0.0000 0.0000
# 4 0.0000 0.0000 0.0000 36.8633 0.0000 0.0000
# 5 0.0000 0.0000 0.0000 0.0000 20.0571 0.0000
# 6 0.0000 0.0000 0.0000 0.0000 0.0000 25.3628
#
#
#
# Elastic Compliance Matrix: (Units=1/GPa)
#
#
# Indices 1 2 3 4 5 6 
#
# 1 0.019126 -0.003488 -0.005089 0.000000 0.000000 0.000000
# 2 -0.003488 0.014411 -0.005460 0.000000 0.000000 0.000000
# 3 -0.005089 -0.005460 0.011202 0.000000 0.000000 0.000000
# 4 0.000000 0.000000 0.000000 0.027127 0.000000 0.000000
# 5 0.000000 0.000000 0.000000 0.000000 0.049858 0.000000
# 6 0.000000 0.000000 0.000000 0.000000 0.000000 0.039428
#
#
# Mechanical properties :
#
#
# Convention : Reuss Voigt Hill
#
# Bulk Modulus (GPa) = 60.01581 70.22226 65.11903
# Shear Modulus (GPa) = 25.66982 27.55571 26.61277
#
# Velocity S-wave (km/s) = 3.58297 3.71226 3.64819
# Velocity P-wave (km/s) = 6.86523 7.31391 7.09312
#
# Compressibility (1/GPa) = 0.01666228
#
# Stress axis : x y z
#
# Youngs Moduli (GPa) = 52.28552 69.39309 89.27048
#
# Poissons Ratio (x) = 0.24207 0.45433
# Poissons Ratio (y) = 0.18239 0.48744
# Poissons Ratio (z) = 0.26610 0.37890
#
# Static dielectric constant tensor:
#      x y z
#    x 3.473140 0.000000 0.000000 
#    y 0.000000 3.922500 0.000000 
#    z 0.000000 0.000000 3.852780 
# 
# 
# High freq. dielectric constant tensor:
#      x y z
#    x 1.761380 0.000000 0.000000 
#    y 0.000000 1.786940 0.000000 
#    z 0.000000 0.000000 1.790570 
# 
# From -- ./inp_files/45786.got.cif
#   From: 2010.03.12/outbox.cif.g09.slc.cpg/sg67_23_cif.got.tgz:45786.got - 2010.04.10 22:41:39.
