data_PCOD8279472
_publ_section_title
;
Structure prediction by ZEFSAII (Michael W. Deem and Ramdas Pophale) SiO2 
 PCOD8279472
Probable space group: C M M A
;
_chemical_formula_sum "Si O2"
_cell_formula_units_Z 80
_cell_length_a 19.669591
_cell_length_b 17.661681
_cell_length_c 12.427007
_cell_angle_alpha 90.000000
_cell_angle_beta 90.000000
_cell_angle_gamma 90.000000
_cell_volume 4317.117895
_symmetry_space_group_name_H-M "C M M A"
_symmetry_group_IT_number 67
_symmetry_cell_setting 'orthorhombic'
loop_
_space_group_symop_operation_xyz
x,y,z
-x,1/2-y,z
x,-y,-z
-x,1/2+y,-z
-x,-y,-z
x,1/2+y,-z
-x,y,z
x,1/2-y,z
1/2+x,1/2+y,z
1/2-x,-y,z
1/2+x,1/2-y,-z
1/2-x,y,-z
1/2-x,1/2-y,-z
1/2+x,y,-z
1/2-x,1/2+y,z
1/2+x,-y,z
loop_
_atom_site_type_symbol
_atom_site_label
_atom_site_fract_x
_atom_site_fract_y
_atom_site_fract_z
Si Si1 0.500000 0.840208 0.591062
Si Si2 0.075098 0.414954 0.012568
Si Si3 0.000000 0.840014 0.163698
Si Si4 0.643377 0.840113 0.516693
Si Si5 0.760926 0.159976 0.331084
Si Si6 0.296465 0.839866 0.097451
O O1 0.500000 0.750000 0.588462
O O2 0.500000 0.868047 0.714066
O O3 0.567143 0.872600 0.531512
O O4 0.067297 0.373518 0.895917
O O5 0.000000 0.416358 0.068929
O O6 0.102958 0.500000 0.000000
O O7 0.126636 0.368359 0.085931
O O8 0.000000 0.750000 0.154059
O O9 0.641706 0.750000 0.519895
O O10 0.690808 0.869014 0.615339
O O11 0.675123 0.868236 0.403623
O O12 0.761392 0.250000 0.328765
O O13 0.767251 0.127944 0.210136
O O14 0.297346 0.750000 0.097507
O O15 0.250000 0.871133 0.000000
#
# Coordination Sequence:
#
# PCOD8279472 Si02
#       6
#     8  16   8  16  16  16
#     4   9  16  23  42  71  95 121 163 205 240 290
#     4   9  20  36  50  69 102 138 172 201 249 311
#     4   9  17  29  50  75  99 127 163 213 256 282
#     4   8  14  26  41  63  97 132 160 193 247 299
#     4   8  15  27  42  63  99 134 156 195 253 300
#     4  10  20  31  50  79 105 131 168 211 254 300
#
# _framework density 18.530881000000001
#
# number of rings (size 3 to 8) (size 9 to 14) (size 15 to 20)
#    0.600    2.600    0.000    1.800    2.800    0.400 
#    1.800    0.000    0.000    0.000    0.000    2.800 
#    0.000    0.000    0.000    0.000    0.000    0.000 
#
# Total GULP energy -495635.358641 kJ/mol
# GULP energy per Si atom -12390.883966 kJ/mol
# Density = 1.848870 g / cm^3
# Si number density = 18.530881 Si / 1000 Ang^3
#
#
#
# Elastic Constant Matrix: (Units=GPa)
#
#
# Indices 1 2 3 4 5 6 
#
# 1 142.6192 10.0684 75.9384 0.0000 0.0000 0.0000
# 2 10.0684 23.2713 17.0664 0.0000 0.0000 0.0000
# 3 75.9384 17.0664 150.6875 0.0000 0.0000 0.0000
# 4 0.0000 0.0000 0.0000 3.9510 0.0000 0.0000
# 5 0.0000 0.0000 0.0000 0.0000 28.3449 0.0000
# 6 0.0000 0.0000 0.0000 0.0000 0.0000 14.0778
#
#
#
# Elastic Compliance Matrix: (Units=1/GPa)
#
#
# Indices 1 2 3 4 5 6 
#
# 1 0.009592 -0.000660 -0.004759 0.000000 0.000000 0.000000
# 2 -0.000660 0.046909 -0.004980 0.000000 0.000000 0.000000
# 3 -0.004759 -0.004980 0.009599 0.000000 0.000000 0.000000
# 4 0.000000 0.000000 0.000000 0.253104 0.000000 0.000000
# 5 0.000000 0.000000 0.000000 0.000000 0.035280 0.000000
# 6 0.000000 0.000000 0.000000 0.000000 0.000000 0.071034
#
#
# Mechanical properties :
#
#
# Convention : Reuss Voigt Hill
#
# Bulk Modulus (GPa) = 22.07433 58.08048 40.07741
# Shear Modulus (GPa) = 10.83619 23.50837 17.17228
#
# Velocity S-wave (km/s) = 2.42081 3.56561 3.04745
# Velocity P-wave (km/s) = 4.44430 6.95428 5.83583
#
# Compressibility (1/GPa) = 0.04530148
#
# Stress axis : x y z
#
# Youngs Moduli (GPa) = 104.24937 21.31778 104.18035
#
# Poissons Ratio (x) = 0.01407 0.49583
# Poissons Ratio (y) = 0.06879 0.51885
# Poissons Ratio (z) = 0.49616 0.10617
#
# Static dielectric constant tensor:
#      x y z
#    x 3.574850 0.000000 0.000000 
#    y 0.000000 2.824520 0.000000 
#    z 0.000000 0.000000 3.594540 
# 
# 
# High freq. dielectric constant tensor:
#      x y z
#    x 1.721710 0.000000 0.000000 
#    y 0.000000 1.662240 0.000000 
#    z 0.000000 0.000000 1.712630 
# 
# From -- ./inp_files/20580.got.cif
#   From: 2010.03.12/outbox.cif.g09.slc.cpg/sg67_11_cif.got.tgz:20580.got - 2010.04.10 22:41:39.
