data_PCOD8279656
_publ_section_title
;
Structure prediction by ZEFSAII (Michael W. Deem and Ramdas Pophale) SiO2 
 PCOD8279656
Probable space group: C M M A
;
_chemical_formula_sum "Si O2"
_cell_formula_units_Z 96
_cell_length_a 8.739619
_cell_length_b 19.150320
_cell_length_c 30.945410
_cell_angle_alpha 90.000000
_cell_angle_beta 90.000000
_cell_angle_gamma 90.000000
_cell_volume 5179.224979
_symmetry_space_group_name_H-M "C M M A"
_symmetry_group_IT_number 67
_symmetry_cell_setting 'orthorhombic'
loop_
_space_group_symop_operation_xyz
x,y,z
-x,1/2-y,z
x,-y,-z
-x,1/2+y,-z
-x,-y,-z
x,1/2+y,-z
-x,y,z
x,1/2-y,z
1/2+x,1/2+y,z
1/2-x,-y,z
1/2+x,1/2-y,-z
1/2-x,y,-z
1/2-x,1/2-y,-z
1/2+x,y,-z
1/2-x,1/2+y,z
1/2+x,-y,z
loop_
_atom_site_type_symbol
_atom_site_label
_atom_site_fract_x
_atom_site_fract_y
_atom_site_fract_z
Si Si1 0.180165 0.426785 0.791507
Si Si2 0.180340 0.328897 0.542227
Si Si3 0.825540 0.832269 0.721951
Si Si4 0.671154 0.833192 0.635608
Si Si5 0.823803 0.167692 0.955094
Si Si6 0.681386 0.425960 0.883257
O O1 0.250000 0.500000 0.775543
O O2 0.215136 0.368086 0.756356
O O3 0.254743 0.403761 0.836652
O O4 0.000000 0.434841 0.797940
O O5 0.244277 0.250000 0.541825
O O6 0.250000 0.368616 0.500000
O O7 0.227786 0.362930 0.588725
O O8 0.000000 0.330385 0.538367
O O9 0.798780 0.750000 0.725995
O O10 0.782904 0.858486 0.673745
O O11 0.000000 0.853235 0.731330
O O12 0.500000 0.860329 0.645993
O O13 0.668538 0.750000 0.632205
O O14 0.807247 0.250000 0.949142
O O15 0.730001 0.132879 0.916751
O O16 0.000000 0.143873 0.953961
O O17 0.750000 0.142927 0.000000
O O18 0.500000 0.431678 0.880994
O O19 0.750000 0.500000 0.898049
#
# Coordination Sequence:
#
# PCOD8279656 Si02
#       6
#    16  16  16  16  16  16
#     4  11  22  38  58  78 104 136 171 212 259 308
#     4   8  13  20  31  49  76 112 153 194 238 291
#     4  10  20  33  50  74 102 132 169 211 254 303
#     4   8  14  25  39  57  85 121 159 200 247 297
#     4  10  21  38  59  84 114 146 180 217 259 305
#     4  11  22  38  59  82 109 139 175 216 259 306
#
# _framework density 18.535592000000001
#
# number of rings (size 3 to 8) (size 9 to 14) (size 15 to 20)
#    0.000    2.333    0.000    6.000    0.000    3.667 
#    0.000    5.000    0.000    0.000    0.000    0.000 
#    0.000    0.667    0.000    7.000    0.000   10.167 
#
# Total GULP energy -595039.414087 kJ/mol
# GULP energy per Si atom -12396.654460 kJ/mol
# Density = 1.849340 g / cm^3
# Si number density = 18.535592 Si / 1000 Ang^3
#
#
#
# Elastic Constant Matrix: (Units=GPa)
#
#
# Indices 1 2 3 4 5 6 
#
# 1 129.9974 30.6152 60.5381 0.0000 0.0000 0.0000
# 2 30.6152 31.3936 43.7308 0.0000 0.0000 0.0000
# 3 60.5381 43.7308 139.4844 0.0000 0.0000 0.0000
# 4 0.0000 0.0000 0.0000 -2.7334 0.0000 0.0000
# 5 0.0000 0.0000 0.0000 0.0000 38.6344 0.0000
# 6 0.0000 0.0000 0.0000 0.0000 0.0000 22.7257
#
#
#
# Elastic Compliance Matrix: (Units=1/GPa)
#
#
# Indices 1 2 3 4 5 6 
#
# 1 0.010409 -0.006849 -0.002370 0.000000 0.000000 0.000000
# 2 -0.006849 0.061058 -0.016170 0.000000 0.000000 0.000000
# 3 -0.002370 -0.016170 0.013268 0.000000 0.000000 0.000000
# 4 0.000000 0.000000 0.000000 -0.365846 0.000000 0.000000
# 5 0.000000 0.000000 0.000000 0.000000 0.025884 0.000000
# 6 0.000000 0.000000 0.000000 0.000000 0.000000 0.044003
#
#
# Mechanical properties :
#
#
# Convention : Reuss Voigt Hill
#
# Bulk Modulus (GPa) = 29.45056 63.40486 46.42771
# Shear Modulus (GPa) = -33.52854 22.79141 -5.36857
#
# Velocity S-wave (km/s) = -4.25770 3.51037 -1.70371
# Velocity P-wave (km/s) = 2.87185 7.12121 4.60783
#
# Compressibility (1/GPa) = 0.03395521
#
# Stress axis : x y z
#
# Youngs Moduli (GPa) = 96.06695 16.37799 75.37138
#
# Poissons Ratio (x) = 0.11218 0.17866
# Poissons Ratio (y) = 0.65799 1.21875
# Poissons Ratio (z) = 0.22772 0.26483
#
# Static dielectric constant tensor:
#      x y z
#    x 3.480100 0.000000 0.000000 
#    y 0.000000 2.949310 0.000000 
#    z 0.000000 0.000000 3.744850 
# 
# 
# High freq. dielectric constant tensor:
#      x y z
#    x 1.728940 0.000000 0.000000 
#    y 0.000000 1.665980 0.000000 
#    z 0.000000 0.000000 1.740240 
# 
# From -- ./inp_files/43454.got.cif
#   From: 2010.03.12/outbox.cif.g09.slc.cpg/sg67_22_cif.got.tgz:43454.got - 2010.04.10 22:41:39.
