data_PCOD8279296
_publ_section_title
;
Structure prediction by ZEFSAII (Michael W. Deem and Ramdas Pophale) SiO2 
 PCOD8279296
Probable space group: C M M A
;
_chemical_formula_sum "Si O2"
_cell_formula_units_Z 80
_cell_length_a 26.051850
_cell_length_b 15.373747
_cell_length_c 8.901255
_cell_angle_alpha 90.000000
_cell_angle_beta 90.000000
_cell_angle_gamma 90.000000
_cell_volume 3565.082148
_symmetry_space_group_name_H-M "C M M A"
_symmetry_group_IT_number 67
_symmetry_cell_setting 'orthorhombic'
loop_
_space_group_symop_operation_xyz
x,y,z
-x,1/2-y,z
x,-y,-z
-x,1/2+y,-z
-x,-y,-z
x,1/2+y,-z
-x,y,z
x,1/2-y,z
1/2+x,1/2+y,z
1/2-x,-y,z
1/2+x,1/2-y,-z
1/2-x,y,-z
1/2-x,1/2-y,-z
1/2+x,y,-z
1/2-x,1/2+y,z
1/2+x,-y,z
loop_
_atom_site_type_symbol
_atom_site_label
_atom_site_fract_x
_atom_site_fract_y
_atom_site_fract_z
Si Si1 0.000000 0.145673 0.410513
Si Si2 0.000000 0.353633 0.072881
Si Si3 0.402076 0.348784 0.417973
Si Si4 0.299494 0.147503 0.901217
Si Si5 0.801605 0.095592 0.432517
Si Si6 0.897428 0.853703 0.085916
O O1 0.949653 0.107470 0.494094
O O2 0.000000 0.250000 0.405479
O O3 0.000000 0.109376 0.241435
O O4 0.000000 0.250000 0.072160
O O5 0.949629 0.389115 0.988388
O O6 0.418005 0.250000 0.388878
O O7 0.351159 0.350222 0.518625
O O8 0.393571 0.392722 0.254890
O O9 0.302510 0.250000 0.864565
O O10 0.296922 0.094048 0.746870
O O11 0.250000 0.125110 0.000000
O O12 0.349026 0.112945 0.990794
O O13 0.750000 0.139413 0.500000
O O14 0.807844 0.000000 0.500000
O O15 0.895855 0.750000 0.088693
#
# Coordination Sequence:
#
# PCOD8279296 Si02
#       6
#     8   8  16  16  16  16
#     4   9  17  29  52  85 114 143 180 230 288 339
#     4   9  15  25  43  73 112 143 171 216 277 337
#     4  10  19  34  57  84 113 146 188 236 287 343
#     4  10  20  36  60  87 111 141 188 243 294 342
#     4  11  24  40  55  79 114 152 192 233 286 348
#     4   9  17  29  49  79 110 139 175 223 276 330
#
# _framework density 22.439876000000002
#
# number of rings (size 3 to 8) (size 9 to 14) (size 15 to 20)
#    0.000    2.200    0.000    3.600    0.000    8.800 
#    0.000    7.500    0.000    0.000    0.000    4.200 
#    0.000    0.000    0.000    0.000    0.000    0.000 
#
# Total GULP energy -496026.270833 kJ/mol
# GULP energy per Si atom -12400.656771 kJ/mol
# Density = 2.238880 g / cm^3
# Si number density = 22.439876 Si / 1000 Ang^3
#
#
#
# Elastic Constant Matrix: (Units=GPa)
#
#
# Indices 1 2 3 4 5 6 
#
# 1 220.4584 -0.2115 100.4961 0.0000 0.0000 0.0000
# 2 -0.2115 22.5060 18.3931 0.0000 0.0000 0.0000
# 3 100.4961 18.3931 226.8395 0.0000 0.0000 0.0000
# 4 0.0000 0.0000 0.0000 20.6627 0.0000 0.0000
# 5 0.0000 0.0000 0.0000 0.0000 50.6074 0.0000
# 6 0.0000 0.0000 0.0000 0.0000 0.0000 -4.8793
#
#
#
# Elastic Compliance Matrix: (Units=1/GPa)
#
#
# Indices 1 2 3 4 5 6 
#
# 1 0.005793 0.002305 -0.002754 0.000000 0.000000 0.000000
# 2 0.002305 0.048503 -0.004954 0.000000 0.000000 0.000000
# 3 -0.002754 -0.004954 0.006030 0.000000 0.000000 0.000000
# 4 0.000000 0.000000 0.000000 0.048396 0.000000 0.000000
# 5 0.000000 0.000000 0.000000 0.000000 0.019760 0.000000
# 6 0.000000 0.000000 0.000000 0.000000 0.000000 -0.204949
#
#
# Mechanical properties :
#
#
# Convention : Reuss Voigt Hill
#
# Bulk Modulus (GPa) = 20.19347 78.57325 49.38336
# Shear Modulus (GPa) = -101.72069 36.68659 -32.51705
#
# Velocity S-wave (km/s) = -6.74008 4.04776 -3.81080
# Velocity P-wave (km/s) = 7.18005 7.54565 1.64067
#
# Compressibility (1/GPa) = 0.04952095
#
# Stress axis : x y z
#
# Youngs Moduli (GPa) = 172.61003 20.61735 165.83835
#
# Poissons Ratio (x) = -0.04752 0.45664
# Poissons Ratio (y) = -0.39783 0.82154
# Poissons Ratio (z) = 0.47528 0.10214
#
# Static dielectric constant tensor:
#      x y z
#    x 4.321110 0.000000 0.000000 
#    y 0.000000 3.292090 0.000000 
#    z 0.000000 0.000000 4.234110 
# 
# 
# High freq. dielectric constant tensor:
#      x y z
#    x 1.902480 0.000000 0.000000 
#    y 0.000000 1.829370 0.000000 
#    z 0.000000 0.000000 1.901340 
# 
# From -- ./inp_files/9990.got.cif
#   From: 2010.03.12/outbox.cif.g09.slc.cpg/sg67_5_cif.got.tgz:9990.got - 2010.04.10 22:41:39.
