data_PCOD8279524
_publ_section_title
;
Structure prediction by ZEFSAII (Michael W. Deem and Ramdas Pophale) SiO2 
 PCOD8279524
Probable space group: C M M A
;
_chemical_formula_sum "Si O2"
_cell_formula_units_Z 88
_cell_length_a 9.086311
_cell_length_b 15.827414
_cell_length_c 29.860194
_cell_angle_alpha 90.000000
_cell_angle_beta 90.000000
_cell_angle_gamma 90.000000
_cell_volume 4294.278285
_symmetry_space_group_name_H-M "C M M A"
_symmetry_group_IT_number 67
_symmetry_cell_setting 'orthorhombic'
loop_
_space_group_symop_operation_xyz
x,y,z
-x,1/2-y,z
x,-y,-z
-x,1/2+y,-z
-x,-y,-z
x,1/2+y,-z
-x,y,z
x,1/2-y,z
1/2+x,1/2+y,z
1/2-x,-y,z
1/2+x,1/2-y,-z
1/2-x,y,-z
1/2-x,1/2-y,-z
1/2+x,y,-z
1/2-x,1/2+y,z
1/2+x,-y,z
loop_
_atom_site_type_symbol
_atom_site_label
_atom_site_fract_x
_atom_site_fract_y
_atom_site_fract_z
Si Si1 0.161798 0.653955 0.284244
Si Si2 0.674708 0.750000 0.047642
Si Si3 0.665769 0.851012 0.368744
Si Si4 0.166289 0.649271 0.456342
Si Si5 0.826676 0.913588 0.794817
Si Si6 0.827808 0.086581 0.102714
O O1 0.137044 0.750000 0.297808
O O2 0.252548 0.611099 0.324800
O O3 0.254690 0.654288 0.238116
O O4 0.000000 0.610937 0.278589
O O5 0.500000 0.750000 0.042479
O O6 0.727725 0.834147 0.073570
O O7 0.750000 0.750000 0.000000
O O8 0.500000 0.886554 0.369423
O O9 0.663011 0.750000 0.367869
O O10 0.750652 0.884868 0.412407
O O11 0.166497 0.750000 0.456725
O O12 0.250000 0.614026 0.500000
O O13 0.000000 0.614545 0.456316
O O14 0.788414 0.890926 0.846073
O O15 0.000000 0.918296 0.787244
O O16 0.750000 0.000000 0.780573
O O17 0.000000 0.071429 0.096538
O O18 0.750000 0.000000 0.086935
#
# Coordination Sequence:
#
# PCOD8279524 Si02
#       6
#    16   8  16  16  16  16
#     4  10  20  32  47  71 102 134 169 212 260 314
#     4  10  22  40  60  88 120 156 196 240 287 342
#     4   9  16  26  39  57  84 119 160 204 253 311
#     4   9  15  22  33  50  75 111 154 200 251 308
#     4  10  20  35  56  78 104 138 176 219 266 320
#     4   9  20  38  60  84 116 152 192 238 289 341
#
# _framework density 20.492384999999999
#
# number of rings (size 3 to 8) (size 9 to 14) (size 15 to 20)
#    0.000    2.545    0.000    2.182    1.273    7.273 
#    0.000    1.818    0.000    0.000    0.000    0.000 
#    0.000    0.727    0.000    7.273    0.000   11.273 
#
# Total GULP energy -545520.342823 kJ/mol
# GULP energy per Si atom -12398.189610 kJ/mol
# Density = 2.044574 g / cm^3
# Si number density = 20.492385 Si / 1000 Ang^3
#
#
#
# Elastic Constant Matrix: (Units=GPa)
#
#
# Indices 1 2 3 4 5 6 
#
# 1 153.0533 34.9503 80.2106 0.0000 0.0000 0.0000
# 2 34.9503 59.3897 49.4099 0.0000 0.0000 0.0000
# 3 80.2106 49.4099 158.6830 0.0000 0.0000 0.0000
# 4 0.0000 0.0000 0.0000 -0.0692 0.0000 0.0000
# 5 0.0000 0.0000 0.0000 0.0000 41.3436 0.0000
# 6 0.0000 0.0000 0.0000 0.0000 0.0000 22.4844
#
#
#
# Elastic Compliance Matrix: (Units=1/GPa)
#
#
# Indices 1 2 3 4 5 6 
#
# 1 0.009070 -0.002056 -0.003945 0.000000 0.000000 0.000000
# 2 -0.002056 0.023191 -0.006182 0.000000 0.000000 0.000000
# 3 -0.003945 -0.006182 0.010221 0.000000 0.000000 0.000000
# 4 0.000000 0.000000 0.000000-14.457632 0.000000 0.000000
# 5 0.000000 0.000000 0.000000 0.000000 0.024188 0.000000
# 6 0.000000 0.000000 0.000000 0.000000 0.000000 0.044475
#
#
# Mechanical properties :
#
#
# Convention : Reuss Voigt Hill
#
# Bulk Modulus (GPa) = 55.19685 77.80752 66.50218
# Shear Modulus (GPa) = -0.34926 26.52211 13.08643
#
# Velocity S-wave (km/s) = -0.41328 3.60146 2.52979
# Velocity P-wave (km/s) = 5.17359 7.43945 6.40748
#
# Compressibility (1/GPa) = 0.01811698
#
# Stress axis : x y z
#
# Youngs Moduli (GPa) = 110.24767 43.12037 97.84075
#
# Poissons Ratio (x) = 0.08866 0.38595
# Poissons Ratio (y) = 0.22667 0.60483
# Poissons Ratio (z) = 0.43490 0.26656
#
# Static dielectric constant tensor:
#      x y z
#    x 3.909980 0.000000 0.000000 
#    y 0.000000 3.316730 0.000000 
#    z 0.000000 0.000000 3.757130 
# 
# 
# High freq. dielectric constant tensor:
#      x y z
#    x 1.812170 0.000000 0.000000 
#    y 0.000000 1.759450 0.000000 
#    z 0.000000 0.000000 1.806960 
# 
# From -- ./inp_files/45259.got.cif
#   From: 2010.03.12/outbox.cif.g09.slc.cpg/sg67_23_cif.got.tgz:45259.got - 2010.04.10 22:41:39.
