data_PCOD8279416
_publ_section_title
;
Structure prediction by ZEFSAII (Michael W. Deem and Ramdas Pophale) SiO2 
 PCOD8279416
Probable space group: C M M A
;
_chemical_formula_sum "Si O2"
_cell_formula_units_Z 96
_cell_length_a 10.292462
_cell_length_b 22.519794
_cell_length_c 20.598297
_cell_angle_alpha 90.000000
_cell_angle_beta 90.000000
_cell_angle_gamma 90.000000
_cell_volume 4774.358226
_symmetry_space_group_name_H-M "C M M A"
_symmetry_group_IT_number 67
_symmetry_cell_setting 'orthorhombic'
loop_
_space_group_symop_operation_xyz
x,y,z
-x,1/2-y,z
x,-y,-z
-x,1/2+y,-z
-x,-y,-z
x,1/2+y,-z
-x,y,z
x,1/2-y,z
1/2+x,1/2+y,z
1/2-x,-y,z
1/2+x,1/2-y,-z
1/2-x,y,-z
1/2-x,1/2-y,-z
1/2+x,y,-z
1/2-x,1/2+y,z
1/2+x,-y,z
loop_
_atom_site_type_symbol
_atom_site_label
_atom_site_fract_x
_atom_site_fract_y
_atom_site_fract_z
Si Si1 0.351023 0.552401 0.171775
Si Si2 0.147589 0.638195 0.942623
Si Si3 0.145914 0.119669 0.297125
Si Si4 0.651392 0.750000 0.145433
Si Si5 0.351808 0.051169 0.581224
Si Si6 0.273775 0.250000 0.713961
Si Si7 0.750000 0.648767 0.500000
Si Si8 0.144493 0.750000 0.412799
O O1 0.500000 0.530861 0.183211
O O2 0.250000 0.500000 0.178290
O O3 0.339427 0.579243 0.100040
O O4 0.307181 0.601397 0.224993
O O5 0.183432 0.693481 0.897711
O O6 0.000000 0.644591 0.969799
O O7 0.250000 0.634250 0.000000
O O8 0.212782 0.080355 0.353389
O O9 0.150991 0.190401 0.305715
O O10 0.000000 0.099566 0.305838
O O11 0.500000 0.750000 0.169124
O O12 0.747290 0.750000 0.208109
O O13 0.500000 0.026010 0.587746
O O14 0.359842 0.104210 0.527974
O O15 0.250000 0.000000 0.560509
O O16 0.147916 0.250000 0.666594
O O17 0.792503 0.690135 0.440303
O O18 0.000000 0.750000 0.438088
#
# Coordination Sequence:
#
# PCOD8279416 Si02
#       8
#    16  16  16   8  16   8   8   8
#     4  10  21  38  60  86 119 156 201 251 298 352
#     4  10  21  37  59  89 122 157 198 246 297 356
#     4  10  20  37  62  92 118 148 200 252 301 361
#     4  10  19  36  65  92 115 150 196 249 300 354
#     4  11  24  41  64  92 120 160 209 253 303 361
#     4  12  19  38  65  91 116 152 193 251 307 363
#     4  11  23  44  64  86 119 167 210 250 300 379
#     4  11  25  42  60  91 130 160 197 260 325 371
#
# _framework density 20.107415
#
# number of rings (size 3 to 8) (size 9 to 14) (size 15 to 20)
#    0.000    1.500    3.333    2.250    0.000    3.000 
#    0.000    3.333    0.000    0.000    0.000    0.000 
#    0.000    0.000    0.000    0.000    0.000    0.000 
#
# Total GULP energy -594669.640637 kJ/mol
# GULP energy per Si atom -12388.950847 kJ/mol
# Density = 2.006165 g / cm^3
# Si number density = 20.107415 Si / 1000 Ang^3
#
#
#
# Elastic Constant Matrix: (Units=GPa)
#
#
# Indices 1 2 3 4 5 6 
#
# 1 92.4710 56.5796 45.2194 0.0000 0.0000 0.0000
# 2 56.5796 133.0578 42.6211 0.0000 0.0000 0.0000
# 3 45.2194 42.6211 115.9642 0.0000 0.0000 0.0000
# 4 0.0000 0.0000 0.0000 19.1698 0.0000 0.0000
# 5 0.0000 0.0000 0.0000 0.0000 27.9238 0.0000
# 6 0.0000 0.0000 0.0000 0.0000 0.0000 25.0316
#
#
#
# Elastic Compliance Matrix: (Units=1/GPa)
#
#
# Indices 1 2 3 4 5 6 
#
# 1 0.016330 -0.005559 -0.004325 0.000000 0.000000 0.000000
# 2 -0.005559 0.010411 -0.001659 0.000000 0.000000 0.000000
# 3 -0.004325 -0.001659 0.010919 0.000000 0.000000 0.000000
# 4 0.000000 0.000000 0.000000 0.052165 0.000000 0.000000
# 5 0.000000 0.000000 0.000000 0.000000 0.035812 0.000000
# 6 0.000000 0.000000 0.000000 0.000000 0.000000 0.039950
#
#
# Mechanical properties :
#
#
# Convention : Reuss Voigt Hill
#
# Bulk Modulus (GPa) = 68.60703 70.03703 69.32203
# Shear Modulus (GPa) = 25.83580 27.56324 26.69952
#
# Velocity S-wave (km/s) = 3.58842 3.70645 3.64791
# Velocity P-wave (km/s) = 7.16683 7.29548 7.23144
#
# Compressibility (1/GPa) = 0.01457577
#
# Stress axis : x y z
#
# Youngs Moduli (GPa) = 61.23592 96.05643 91.58000
#
# Poissons Ratio (x) = 0.53395 0.39607
# Poissons Ratio (y) = 0.34039 0.15190
# Poissons Ratio (z) = 0.26484 0.15933
#
# Static dielectric constant tensor:
#      x y z
#    x 3.352630 0.000000 0.000000 
#    y 0.000000 3.653270 0.000000 
#    z 0.000000 0.000000 3.904970 
# 
# 
# High freq. dielectric constant tensor:
#      x y z
#    x 1.748310 0.000000 0.000000 
#    y 0.000000 1.795130 0.000000 
#    z 0.000000 0.000000 1.797930 
# 
# From -- ./inp_files/37971.got.cif
#   From: 2010.03.12/outbox.cif.g09.slc.cpg/sg67_19_cif.got.tgz:37971.got - 2010.04.10 22:41:39.
