data_PCOD8279792
_publ_section_title
;
Structure prediction by ZEFSAII (Michael W. Deem and Ramdas Pophale) SiO2 
 PCOD8279792
Probable space group: C M M A
;
_chemical_formula_sum "Si O2"
_cell_formula_units_Z 80
_cell_length_a 9.250342
_cell_length_b 19.304529
_cell_length_c 26.023078
_cell_angle_alpha 90.000000
_cell_angle_beta 90.000000
_cell_angle_gamma 90.000000
_cell_volume 4647.031999
_symmetry_space_group_name_H-M "C M M A"
_symmetry_group_IT_number 67
_symmetry_cell_setting 'orthorhombic'
loop_
_space_group_symop_operation_xyz
x,y,z
-x,1/2-y,z
x,-y,-z
-x,1/2+y,-z
-x,-y,-z
x,1/2+y,-z
-x,y,z
x,1/2-y,z
1/2+x,1/2+y,z
1/2-x,-y,z
1/2+x,1/2-y,-z
1/2-x,y,-z
1/2-x,1/2-y,-z
1/2+x,y,-z
1/2-x,1/2+y,z
1/2+x,-y,z
loop_
_atom_site_type_symbol
_atom_site_label
_atom_site_fract_x
_atom_site_fract_y
_atom_site_fract_z
Si Si1 0.337248 0.167743 0.241581
Si Si2 0.331804 0.828692 0.144549
Si Si3 0.337395 0.667326 0.450921
Si Si4 0.662960 0.832465 0.645625
Si Si5 0.826812 0.071208 0.052027
O O1 0.500000 0.141807 0.232817
O O2 0.329124 0.250000 0.240425
O O3 0.241373 0.137753 0.195179
O O4 0.282597 0.142232 0.297910
O O5 0.500000 0.831339 0.155505
O O6 0.279177 0.750000 0.134722
O O7 0.289338 0.872504 0.094880
O O8 0.500000 0.638953 0.454274
O O9 0.335269 0.750000 0.450428
O O10 0.250000 0.639051 0.500000
O O11 0.266002 0.637332 0.398781
O O12 0.500000 0.858897 0.635736
O O13 0.664455 0.750000 0.643747
O O14 0.000000 0.061463 0.044525
O O15 0.750000 0.000000 0.068811
O O16 0.750000 0.097659 0.000000
#
# Coordination Sequence:
#
# PCOD8279792 Si02
#       5
#    16  16  16  16  16
#     4   8  14  24  38  56  77 102 132 166 206 251
#     4   9  18  31  46  66  91 115 141 177 218 257
#     4   9  15  20  26  37  54  80 117 160 203 244
#     4   8  13  21  31  43  62  88 119 157 199 242
#     4  10  20  34  51  69  90 117 147 178 213 255
#
# _framework density 17.215288999999999
#
# number of rings (size 3 to 8) (size 9 to 14) (size 15 to 20)
#    0.000    3.200    0.000    3.000    0.000    5.200 
#    0.000    4.000    0.000    0.000    0.000    0.000 
#    0.000    0.000    0.000    0.000    0.000    1.000 
#
# Total GULP energy -495679.956584 kJ/mol
# GULP energy per Si atom -12391.998915 kJ/mol
# Density = 1.717611 g / cm^3
# Si number density = 17.215289 Si / 1000 Ang^3
#
#
#
# Elastic Constant Matrix: (Units=GPa)
#
#
# Indices 1 2 3 4 5 6 
#
# 1 107.5418 25.5447 92.0053 0.0000 0.0000 0.0000
# 2 25.5447 23.7865 45.3373 0.0000 0.0000 0.0000
# 3 92.0053 45.3373 187.9793 0.0000 0.0000 0.0000
# 4 0.0000 0.0000 0.0000 0.2145 0.0000 0.0000
# 5 0.0000 0.0000 0.0000 0.0000 39.6293 0.0000
# 6 0.0000 0.0000 0.0000 0.0000 0.0000 11.0991
#
#
#
# Elastic Compliance Matrix: (Units=1/GPa)
#
#
# Indices 1 2 3 4 5 6 
#
# 1 0.016225 -0.004235 -0.006920 0.000000 0.000000 0.000000
# 2 -0.004235 0.078915 -0.016960 0.000000 0.000000 0.000000
# 3 -0.006920 -0.016960 0.012797 0.000000 0.000000 0.000000
# 4 0.000000 0.000000 0.000000 4.662622 0.000000 0.000000
# 5 0.000000 0.000000 0.000000 0.000000 0.025234 0.000000
# 6 0.000000 0.000000 0.000000 0.000000 0.000000 0.090098
#
#
# Mechanical properties :
#
#
# Convention : Reuss Voigt Hill
#
# Bulk Modulus (GPa) = 19.33973 71.67579 45.50776
# Shear Modulus (GPa) = 1.00820 20.61660 10.81240
#
# Velocity S-wave (km/s) = 0.76610 3.46435 2.50885
# Velocity P-wave (km/s) = 3.47001 7.59787 5.90630
#
# Compressibility (1/GPa) = 0.05170702
#
# Stress axis : x y z
#
# Youngs Moduli (GPa) = 61.63469 12.67190 78.14341
#
# Poissons Ratio (x) = 0.05367 0.54072
# Poissons Ratio (y) = 0.26102 1.32532
# Poissons Ratio (z) = 0.42649 0.21492
#
# Static dielectric constant tensor:
#      x y z
#    x 3.351620 0.000000 0.000000 
#    y 0.000000 2.581960 0.000000 
#    z 0.000000 0.000000 3.654810 
# 
# 
# High freq. dielectric constant tensor:
#      x y z
#    x 1.669530 0.000000 0.000000 
#    y 0.000000 1.583270 0.000000 
#    z 0.000000 0.000000 1.685760 
# 
# From -- ./inp_files/43295.got.cif
#   From: 2010.03.12/outbox.cif.g09.slc.cpg/sg67_22_cif.got.tgz:43295.got - 2010.04.10 22:41:39.
