data_PCOD8279124
_publ_section_title
;
Structure prediction by ZEFSAII (Michael W. Deem and Ramdas Pophale) SiO2 
 PCOD8279124
Probable space group: C M M A
;
_chemical_formula_sum "Si O2"
_cell_formula_units_Z 120
_cell_length_a 8.985178
_cell_length_b 26.726891
_cell_length_c 28.416417
_cell_angle_alpha 90.000000
_cell_angle_beta 90.000000
_cell_angle_gamma 90.000000
_cell_volume 6824.085269
_symmetry_space_group_name_H-M "C M M A"
_symmetry_group_IT_number 67
_symmetry_cell_setting 'orthorhombic'
loop_
_space_group_symop_operation_xyz
x,y,z
-x,1/2-y,z
x,-y,-z
-x,1/2+y,-z
-x,-y,-z
x,1/2+y,-z
-x,y,z
x,1/2-y,z
1/2+x,1/2+y,z
1/2-x,-y,z
1/2+x,1/2-y,-z
1/2-x,y,-z
1/2-x,1/2-y,-z
1/2+x,y,-z
1/2-x,1/2+y,z
1/2+x,-y,z
loop_
_atom_site_type_symbol
_atom_site_label
_atom_site_fract_x
_atom_site_fract_y
_atom_site_fract_z
Si Si1 0.173104 0.899716 0.310788
Si Si2 0.323399 0.140545 0.948830
Si Si3 0.672602 0.449756 0.217789
Si Si4 0.177422 0.446903 0.888515
Si Si5 0.329631 0.805370 0.633144
Si Si6 0.826091 0.647650 0.549366
Si Si7 0.671077 0.250000 0.951098
Si Si8 0.825713 0.049822 0.394577
O O1 0.213868 0.906728 0.255690
O O2 0.216711 0.843218 0.325189
O O3 0.264739 0.938221 0.342665
O O4 0.000000 0.910811 0.319685
O O5 0.500000 0.130233 0.952209
O O6 0.246597 0.098175 0.917835
O O7 0.291406 0.196423 0.925775
O O8 0.250000 0.137667 0.000000
O O9 0.500000 0.461592 0.217514
O O10 0.750000 0.500000 0.235032
O O11 0.722476 0.434311 0.165378
O O12 0.250000 0.500000 0.903741
O O13 0.000000 0.449653 0.896328
O O14 0.500000 0.814381 0.618021
O O15 0.304189 0.750000 0.653503
O O16 0.229966 0.811850 0.586897
O O17 0.750000 0.657795 0.500000
O O18 0.782842 0.592949 0.568561
O O19 0.000000 0.654294 0.542733
O O20 0.500000 0.250000 0.963918
O O21 0.750000 0.250000 0.000000
O O22 0.000000 0.041827 0.390679
O O23 0.750000 0.000000 0.414495
#
# Coordination Sequence:
#
# PCOD8279124 Si02
#       8
#    16  16  16  16  16  16   8  16
#     4   9  17  31  51  73  97 124 157 198 239 284
#     4  10  19  33  53  77 103 135 173 215 260 305
#     4   9  18  31  49  72 100 130 163 200 241 287
#     4  10  20  34  50  72 104 139 175 213 255 305
#     4   9  18  33  53  74  95 123 158 196 239 284
#     4  10  21  35  50  69  94 124 158 195 234 281
#     4   8  16  30  50  74  98 126 164 208 252 298
#     4  10  20  32  47  70  97 124 155 191 234 282
#
# _framework density 17.584775
#
# number of rings (size 3 to 8) (size 9 to 14) (size 15 to 20)
#    0.000    2.533    0.000    2.000    0.000    5.333 
#    0.000    2.667    1.467    0.000    0.000    0.000 
#    0.000    0.000    0.000    0.000    0.000    0.000 
#
# Total GULP energy -743673.825107 kJ/mol
# GULP energy per Si atom -12394.563752 kJ/mol
# Density = 1.754475 g / cm^3
# Si number density = 17.584775 Si / 1000 Ang^3
#
#
#
# Elastic Constant Matrix: (Units=GPa)
#
#
# Indices 1 2 3 4 5 6 
#
# 1 60.0140 44.4032 33.7293 0.0000 0.0000 0.0000
# 2 44.4032 133.9220 61.6352 0.0000 0.0000 0.0000
# 3 33.7293 61.6352 94.3007 0.0000 0.0000 0.0000
# 4 0.0000 0.0000 0.0000 15.7639 0.0000 0.0000
# 5 0.0000 0.0000 0.0000 0.0000 21.9542 0.0000
# 6 0.0000 0.0000 0.0000 0.0000 0.0000 24.7629
#
#
#
# Elastic Compliance Matrix: (Units=1/GPa)
#
#
# Indices 1 2 3 4 5 6 
#
# 1 0.023468 -0.005603 -0.004732 0.000000 0.000000 0.000000
# 2 -0.005603 0.012017 -0.005850 0.000000 0.000000 0.000000
# 3 -0.004732 -0.005850 0.016121 0.000000 0.000000 0.000000
# 4 0.000000 0.000000 0.000000 0.063436 0.000000 0.000000
# 5 0.000000 0.000000 0.000000 0.000000 0.045549 0.000000
# 6 0.000000 0.000000 0.000000 0.000000 0.000000 0.040383
#
#
# Mechanical properties :
#
#
# Convention : Reuss Voigt Hill
#
# Bulk Modulus (GPa) = 51.98808 63.08578 57.53693
# Shear Modulus (GPa) = 20.85446 22.39413 21.62430
#
# Velocity S-wave (km/s) = 3.44748 3.57248 3.51054
# Velocity P-wave (km/s) = 6.74354 7.27804 7.01588
#
# Compressibility (1/GPa) = 0.01923518
#
# Stress axis : x y z
#
# Youngs Moduli (GPa) = 42.61140 83.21229 62.03241
#
# Poissons Ratio (x) = 0.46627 0.29351
# Poissons Ratio (y) = 0.23877 0.36292
# Poissons Ratio (z) = 0.20162 0.48683
#
# Static dielectric constant tensor:
#      x y z
#    x 3.357920 0.000000 0.000000 
#    y 0.000000 3.564970 0.000000 
#    z 0.000000 0.000000 3.199130 
# 
# 
# High freq. dielectric constant tensor:
#      x y z
#    x 1.688630 0.000000 0.000000 
#    y 0.000000 1.683790 0.000000 
#    z 0.000000 0.000000 1.659000 
# 
# From -- ./inp_files/43935.got.cif
#   From: 2010.03.12/outbox.cif.g09.slc.cpg/sg67_22_cif.got.tgz:43935.got - 2010.04.10 22:41:39.
