data_PCOD8279697
_publ_section_title
;
Structure prediction by ZEFSAII (Michael W. Deem and Ramdas Pophale) SiO2 
 PCOD8279697
Probable space group: C M M A
;
_chemical_formula_sum "Si O2"
_cell_formula_units_Z 80
_cell_length_a 23.549835
_cell_length_b 34.288037
_cell_length_c 4.957762
_cell_angle_alpha 90.000000
_cell_angle_beta 90.000000
_cell_angle_gamma 90.000000
_cell_volume 4003.281830
_symmetry_space_group_name_H-M "C M M A"
_symmetry_group_IT_number 67
_symmetry_cell_setting 'orthorhombic'
loop_
_space_group_symop_operation_xyz
x,y,z
-x,1/2-y,z
x,-y,-z
-x,1/2+y,-z
-x,-y,-z
x,1/2+y,-z
-x,y,z
x,1/2-y,z
1/2+x,1/2+y,z
1/2-x,-y,z
1/2+x,1/2-y,-z
1/2-x,y,-z
1/2-x,1/2-y,-z
1/2+x,y,-z
1/2-x,1/2+y,z
1/2+x,-y,z
loop_
_atom_site_type_symbol
_atom_site_label
_atom_site_fract_x
_atom_site_fract_y
_atom_site_fract_z
Si Si1 0.309949 0.130173 0.863886
Si Si2 0.370631 0.706160 0.088288
Si Si3 0.562631 0.473867 0.244180
Si Si4 0.626760 0.103504 0.366421
Si Si5 0.435209 0.679160 0.574209
O O1 0.319099 0.176854 0.830182
O O2 0.319884 0.108307 0.575913
O O3 0.250000 0.120461 0.000000
O O4 0.357626 0.114584 0.063511
O O5 0.346619 0.750000 0.105935
O O6 0.423377 0.700205 0.290715
O O7 0.392947 0.698364 0.788673
O O8 0.553796 0.500000 0.500000
O O9 0.500000 0.457649 0.155102
O O10 0.604927 0.440290 0.343056
O O11 0.588646 0.500000 0.000000
O O12 0.577095 0.132922 0.461477
O O13 0.500000 0.685776 0.659020
#
# Coordination Sequence:
#
# PCOD8279697 Si02
#       5
#    16  16  16  16  16
#     4  10  21  37  57  77 100 139 185 228 274 314
#     4  10  21  34  50  76 105 136 179 226 271 320
#     4  10  20  34  56  86 116 144 171 206 260 320
#     4  10  20  36  56  79 108 138 178 223 261 318
#     4  10  20  33  51  75 106 144 177 211 263 325
#
# _framework density 19.983606000000002
#
# number of rings (size 3 to 8) (size 9 to 14) (size 15 to 20)
#    0.000    2.000    0.000    3.600    0.000    2.800 
#    0.000    6.000    0.000   16.200    0.000    0.000 
#    0.000    0.000    0.000    0.000    0.000    0.000 
#
# Total GULP energy -495861.870964 kJ/mol
# GULP energy per Si atom -12396.546774 kJ/mol
# Density = 1.993812 g / cm^3
# Si number density = 19.983606 Si / 1000 Ang^3
#
#
#
# Elastic Constant Matrix: (Units=GPa)
#
#
# Indices 1 2 3 4 5 6 
#
# 1 52.0096 35.1242 4.7541 0.0000 0.0000 0.0000
# 2 35.1242 135.0953 33.6547 0.0000 0.0000 0.0000
# 3 4.7541 33.6547 101.6891 0.0000 0.0000 0.0000
# 4 0.0000 0.0000 0.0000 26.8787 0.0000 0.0000
# 5 0.0000 0.0000 0.0000 0.0000 27.0433 0.0000
# 6 0.0000 0.0000 0.0000 0.0000 0.0000 14.2679
#
#
#
# Elastic Compliance Matrix: (Units=1/GPa)
#
#
# Indices 1 2 3 4 5 6 
#
# 1 0.023416 -0.006338 0.001003 0.000000 0.000000 0.000000
# 2 -0.006338 0.009783 -0.002941 0.000000 0.000000 0.000000
# 3 0.001003 -0.002941 0.010760 0.000000 0.000000 0.000000
# 4 0.000000 0.000000 0.000000 0.037204 0.000000 0.000000
# 5 0.000000 0.000000 0.000000 0.000000 0.036978 0.000000
# 6 0.000000 0.000000 0.000000 0.000000 0.000000 0.070088
#
#
# Mechanical properties :
#
#
# Convention : Reuss Voigt Hill
#
# Bulk Modulus (GPa) = 36.48804 48.42889 42.45847
# Shear Modulus (GPa) = 23.37361 27.98871 25.68116
#
# Velocity S-wave (km/s) = 3.42371 3.74650 3.58873
# Velocity P-wave (km/s) = 5.82475 6.55758 6.20200
#
# Compressibility (1/GPa) = 0.02740624
#
# Stress axis : x y z
#
# Youngs Moduli (GPa) = 42.70636 102.22095 92.93264
#
# Poissons Ratio (x) = 0.64786 -0.09319
# Poissons Ratio (y) = 0.27066 0.27335
# Poissons Ratio (z) = -0.04283 0.30067
#
# Static dielectric constant tensor:
#      x y z
#    x 3.248900 0.000000 0.000000 
#    y 0.000000 3.532110 0.000000 
#    z 0.000000 0.000000 3.775750 
# 
# 
# High freq. dielectric constant tensor:
#      x y z
#    x 1.746690 0.000000 0.000000 
#    y 0.000000 1.770820 0.000000 
#    z 0.000000 0.000000 1.801730 
# 
# From -- ./inp_files/3534.got.cif
#   From: 2010.03.12/outbox.cif.g09.slc.cpg/sg67_2_cif.got.tgz:3534.got - 2010.04.10 22:41:39.
