data_PCOD8279219
_publ_section_title
;
Structure prediction by ZEFSAII (Michael W. Deem and Ramdas Pophale) SiO2 
 PCOD8279219
Probable space group: C M M A
;
_chemical_formula_sum "Si O2"
_cell_formula_units_Z 48
_cell_length_a 8.136927
_cell_length_b 19.480615
_cell_length_c 12.887136
_cell_angle_alpha 90.000000
_cell_angle_beta 90.000000
_cell_angle_gamma 90.000000
_cell_volume 2042.770111
_symmetry_space_group_name_H-M "C M M A"
_symmetry_group_IT_number 67
_symmetry_cell_setting 'orthorhombic'
loop_
_space_group_symop_operation_xyz
x,y,z
-x,1/2-y,z
x,-y,-z
-x,1/2+y,-z
-x,-y,-z
x,1/2+y,-z
-x,y,z
x,1/2-y,z
1/2+x,1/2+y,z
1/2-x,-y,z
1/2+x,1/2-y,-z
1/2-x,y,-z
1/2-x,1/2-y,-z
1/2+x,y,-z
1/2-x,1/2+y,z
1/2+x,-y,z
loop_
_atom_site_type_symbol
_atom_site_label
_atom_site_fract_x
_atom_site_fract_y
_atom_site_fract_z
Si Si1 0.192549 0.329369 0.113252
Si Si2 0.682303 0.591622 0.694562
Si Si3 0.000000 0.170970 0.539126
Si Si4 0.000000 0.548496 0.601282
O O1 0.238199 0.250000 0.131079
O O2 0.294025 0.375234 0.193270
O O3 0.000000 0.342487 0.128122
O O4 0.250000 0.353151 0.000000
O O5 0.500000 0.551590 0.692433
O O6 0.662853 0.651806 0.608047
O O7 0.831898 0.540413 0.667681
O O8 0.000000 0.250000 0.508947
O O9 0.000000 0.128025 0.433387
O O10 0.000000 0.500000 0.500000
#
# Coordination Sequence:
#
# PCOD8279219 Si02
#       4
#    16  16   8   8
#     4  10  19  33  59  96 142 187 229 284 353 431
#     4  10  23  40  61  96 133 178 226 290 343 413
#     4  10  24  42  65  96 135 178 227 288 361 427
#     4  12  26  46  67  94 132 184 241 294 352 423
#
# _framework density 23.497502999999998
#
# number of rings (size 3 to 8) (size 9 to 14) (size 15 to 20)
#    1.000    0.667    1.667    3.000    0.000    8.667 
#    0.000    0.000    0.000    0.000    0.000    7.000 
#    0.000    0.000    0.000    0.000    0.000    0.000 
#
# Total GULP energy -297527.810709 kJ/mol
# GULP energy per Si atom -12396.992113 kJ/mol
# Density = 2.344402 g / cm^3
# Si number density = 23.497503 Si / 1000 Ang^3
#
#
#
# Elastic Constant Matrix: (Units=GPa)
#
#
# Indices 1 2 3 4 5 6 
#
# 1 187.3039 81.4516 78.5370 0.0000 0.0000 0.0000
# 2 81.4516 112.6149 43.6811 0.0000 0.0000 0.0000
# 3 78.5370 43.6811 135.4909 0.0000 0.0000 0.0000
# 4 0.0000 0.0000 0.0000 36.9421 0.0000 0.0000
# 5 0.0000 0.0000 0.0000 0.0000 37.6333 0.0000
# 6 0.0000 0.0000 0.0000 0.0000 0.0000 44.9976
#
#
#
# Elastic Compliance Matrix: (Units=1/GPa)
#
#
# Indices 1 2 3 4 5 6 
#
# 1 0.009107 -0.005188 -0.003606 0.000000 0.000000 0.000000
# 2 -0.005188 0.013105 -0.001217 0.000000 0.000000 0.000000
# 3 -0.003606 -0.001217 0.009863 0.000000 0.000000 0.000000
# 4 0.000000 0.000000 0.000000 0.027069 0.000000 0.000000
# 5 0.000000 0.000000 0.000000 0.000000 0.026572 0.000000
# 6 0.000000 0.000000 0.000000 0.000000 0.000000 0.022223
#
#
# Mechanical properties :
#
#
# Convention : Reuss Voigt Hill
#
# Bulk Modulus (GPa) = 82.97914 93.63878 88.30896
# Shear Modulus (GPa) = 37.88415 39.36395 38.62405
#
# Velocity S-wave (km/s) = 4.01966 4.09741 4.05872
# Velocity P-wave (km/s) = 7.54548 7.89443 7.72193
#
# Compressibility (1/GPa) = 0.01205122
#
# Stress axis : x y z
#
# Youngs Moduli (GPa) = 109.80297 76.30939 101.38404
#
# Poissons Ratio (x) = 0.39591 0.36563
# Poissons Ratio (y) = 0.56968 0.12343
# Poissons Ratio (z) = 0.39599 0.09290
#
# Static dielectric constant tensor:
#      x y z
#    x 4.579850 0.000000 0.000000 
#    y 0.000000 5.256840 0.000000 
#    z 0.000000 0.000000 4.121390 
# 
# 
# High freq. dielectric constant tensor:
#      x y z
#    x 1.962050 0.000000 0.000000 
#    y 0.000000 1.935470 0.000000 
#    z 0.000000 0.000000 1.915470 
# 
# From -- ./inp_files/24688.got.cif
#   From: 2010.03.12/outbox.cif.g09.slc.cpg/sg67_13_cif.got.tgz:24688.got - 2010.04.10 22:41:39.
