data_PCOD8279769
_publ_section_title
;
Structure prediction by ZEFSAII (Michael W. Deem and Ramdas Pophale) SiO2 
 PCOD8279769
Probable space group: C M M A
;
_chemical_formula_sum "Si O2"
_cell_formula_units_Z 112
_cell_length_a 18.961887
_cell_length_b 27.212345
_cell_length_c 11.754096
_cell_angle_alpha 90.000000
_cell_angle_beta 90.000000
_cell_angle_gamma 90.000000
_cell_volume 6065.083103
_symmetry_space_group_name_H-M "C M M A"
_symmetry_group_IT_number 67
_symmetry_cell_setting 'orthorhombic'
loop_
_space_group_symop_operation_xyz
x,y,z
-x,1/2-y,z
x,-y,-z
-x,1/2+y,-z
-x,-y,-z
x,1/2+y,-z
-x,y,z
x,1/2-y,z
1/2+x,1/2+y,z
1/2-x,-y,z
1/2+x,1/2-y,-z
1/2-x,y,-z
1/2-x,1/2-y,-z
1/2+x,y,-z
1/2-x,1/2+y,z
1/2+x,-y,z
loop_
_atom_site_type_symbol
_atom_site_label
_atom_site_fract_x
_atom_site_fract_y
_atom_site_fract_z
Si Si1 0.918799 0.557778 0.002180
Si Si2 0.421241 0.194697 0.529087
Si Si3 0.816485 0.303828 0.276032
Si Si4 0.171954 0.910480 0.799836
Si Si5 0.831241 0.487469 0.376525
Si Si6 0.298424 0.146492 0.402606
Si Si7 0.823707 0.568625 0.208339
O O1 0.892301 0.578884 0.882963
O O2 0.000000 0.572226 0.017758
O O3 0.906369 0.500000 0.000000
O O4 0.875198 0.582439 0.105092
O O5 0.500000 0.172329 0.533270
O O6 0.423069 0.250000 0.481569
O O7 0.389581 0.194114 0.655488
O O8 0.374526 0.162319 0.445317
O O9 0.811488 0.250000 0.213732
O O10 0.816447 0.351467 0.194921
O O11 0.749543 0.307428 0.361702
O O12 0.154905 0.931684 0.670795
O O13 0.243649 0.938989 0.840163
O O14 0.867777 0.500000 0.500000
O O15 0.750000 0.500000 0.391644
O O16 0.858742 0.522596 0.274536
O O17 0.250000 0.119348 0.500000
O O18 0.314623 0.112063 0.297643
#
# Coordination Sequence:
#
# PCOD8279769 Si02
#       7
#    16  16  16  16  16  16  16
#     4  11  23  39  56  76 108 144 182 225 272 321
#     4   9  17  29  47  72 105 146 186 220 260 321
#     4   9  18  32  52  79 108 137 179 233 277 314
#     4  10  20  35  58  82 105 143 186 227 270 321
#     4   9  18  28  50  81 112 139 169 220 268 321
#     4   9  18  30  52  79 110 141 176 218 274 324
#     4  10  20  33  56  81 108 138 182 220 262 328
#
# _framework density 18.466358
#
# number of rings (size 3 to 8) (size 9 to 14) (size 15 to 20)
#    0.000    2.429    1.429    0.857    8.000    3.429 
#    0.000    0.000    0.000    8.571    0.000    0.000 
#    0.000    0.000    0.000    0.000    0.000    0.000 
#
# Total GULP energy -693752.762990 kJ/mol
# GULP energy per Si atom -12388.442196 kJ/mol
# Density = 1.842433 g / cm^3
# Si number density = 18.466358 Si / 1000 Ang^3
#
#
#
# Elastic Constant Matrix: (Units=GPa)
#
#
# Indices 1 2 3 4 5 6 
#
# 1 114.8898 22.7632 40.6005 0.0000 0.0000 0.0000
# 2 22.7632 91.6106 32.8439 0.0000 0.0000 0.0000
# 3 40.6005 32.8439 93.2988 0.0000 0.0000 0.0000
# 4 0.0000 0.0000 0.0000 17.0870 0.0000 0.0000
# 5 0.0000 0.0000 0.0000 0.0000 18.2142 0.0000
# 6 0.0000 0.0000 0.0000 0.0000 0.0000 16.5272
#
#
#
# Elastic Compliance Matrix: (Units=1/GPa)
#
#
# Indices 1 2 3 4 5 6 
#
# 1 0.010381 -0.001099 -0.004131 0.000000 0.000000 0.000000
# 2 -0.001099 0.012609 -0.003961 0.000000 0.000000 0.000000
# 3 -0.004131 -0.003961 0.013910 0.000000 0.000000 0.000000
# 4 0.000000 0.000000 0.000000 0.058524 0.000000 0.000000
# 5 0.000000 0.000000 0.000000 0.000000 0.054902 0.000000
# 6 0.000000 0.000000 0.000000 0.000000 0.000000 0.060506
#
#
# Mechanical properties :
#
#
# Convention : Reuss Voigt Hill
#
# Bulk Modulus (GPa) = 53.99526 54.69048 54.34287
# Shear Modulus (GPa) = 21.24168 23.93846 22.59007
#
# Velocity S-wave (km/s) = 3.39527 3.60436 3.50138
# Velocity P-wave (km/s) = 6.68384 6.85583 6.77039
#
# Compressibility (1/GPa) = 0.01852014
#
# Stress axis : x y z
#
# Youngs Moduli (GPa) = 96.32549 79.31058 71.89002
#
# Poissons Ratio (x) = 0.08713 0.29697
# Poissons Ratio (y) = 0.10582 0.28472
# Poissons Ratio (z) = 0.39791 0.31411
#
# Static dielectric constant tensor:
#      x y z
#    x 3.361670 0.000000 0.000000 
#    y 0.000000 3.404070 0.000000 
#    z 0.000000 0.000000 3.303520 
# 
# 
# High freq. dielectric constant tensor:
#      x y z
#    x 1.696560 0.000000 0.000000 
#    y 0.000000 1.709830 0.000000 
#    z 0.000000 0.000000 1.695480 
# 
# From -- ./inp_files/21233.got.cif
#   From: 2010.03.12/outbox.cif.g09.slc.cpg/sg67_11_cif.got.tgz:21233.got - 2010.04.10 22:41:39.
