data_PCOD8279399
_publ_section_title
;
Structure prediction by ZEFSAII (Michael W. Deem and Ramdas Pophale) SiO2 
 PCOD8279399
Probable space group: C M M A
;
_chemical_formula_sum "Si O2"
_cell_formula_units_Z 80
_cell_length_a 17.596563
_cell_length_b 16.000435
_cell_length_c 14.594568
_cell_angle_alpha 90.000000
_cell_angle_beta 90.000000
_cell_angle_gamma 90.000000
_cell_volume 4109.139479
_symmetry_space_group_name_H-M "C M M A"
_symmetry_group_IT_number 67
_symmetry_cell_setting 'orthorhombic'
loop_
_space_group_symop_operation_xyz
x,y,z
-x,1/2-y,z
x,-y,-z
-x,1/2+y,-z
-x,-y,-z
x,1/2+y,-z
-x,y,z
x,1/2-y,z
1/2+x,1/2+y,z
1/2-x,-y,z
1/2+x,1/2-y,-z
1/2-x,y,-z
1/2-x,1/2-y,-z
1/2+x,y,-z
1/2-x,1/2+y,z
1/2+x,-y,z
loop_
_atom_site_type_symbol
_atom_site_label
_atom_site_fract_x
_atom_site_fract_y
_atom_site_fract_z
Si Si1 0.584015 0.842238 0.861578
Si Si2 0.591245 0.750000 0.210839
Si Si3 0.668850 0.887882 0.331417
Si Si4 0.660171 0.750000 0.010094
Si Si5 0.339135 0.915141 0.691691
Si Si6 0.915535 0.598959 0.490837
O O1 0.500000 0.880044 0.878522
O O2 0.577903 0.750000 0.816564
O O3 0.629690 0.900075 0.792728
O O4 0.627582 0.833475 0.959263
O O5 0.500000 0.750000 0.201718
O O6 0.618750 0.833769 0.261651
O O7 0.631679 0.750000 0.113058
O O8 0.757807 0.870059 0.318670
O O9 0.642124 0.863078 0.434030
O O10 0.658629 0.985685 0.315851
O O11 0.750000 0.750000 0.000000
O O12 0.390385 0.875156 0.611410
O O13 0.915088 0.500000 0.500000
O O14 0.000000 0.634699 0.508636
#
# Coordination Sequence:
#
# PCOD8279399 Si02
#       6
#    16   8  16   8  16  16
#     4   9  19  35  57  85 109 135 181 233 279 328
#     4  12  24  40  58  82 120 158 185 222 285 352
#     4  10  22  36  55  84 116 152 193 230 273 340
#     4  10  20  38  61  82 111 150 182 226 288 340
#     4  10  19  36  60  84 111 148 192 240 284 319
#     4   9  17  32  54  79 112 152 188 228 279 329
#
# _framework density 19.468796000000001
#
# number of rings (size 3 to 8) (size 9 to 14) (size 15 to 20)
#    0.600    1.600    0.000    3.600    1.400    4.800 
#    1.800    2.000    0.000    6.000    0.000    0.000 
#    0.000    0.000    0.000    0.000    0.000    0.000 
#
# Total GULP energy -495714.193753 kJ/mol
# GULP energy per Si atom -12392.854844 kJ/mol
# Density = 1.942448 g / cm^3
# Si number density = 19.468796 Si / 1000 Ang^3
#
#
#
# Elastic Constant Matrix: (Units=GPa)
#
#
# Indices 1 2 3 4 5 6 
#
# 1 171.9957 22.5393 58.4988 0.0000 0.0000 0.0000
# 2 22.5393 26.5979 20.8769 0.0000 0.0000 0.0000
# 3 58.4988 20.8769 139.6181 0.0000 0.0000 0.0000
# 4 0.0000 0.0000 0.0000 30.5418 0.0000 0.0000
# 5 0.0000 0.0000 0.0000 0.0000 42.2510 0.0000
# 6 0.0000 0.0000 0.0000 0.0000 0.0000 23.3978
#
#
#
# Elastic Compliance Matrix: (Units=1/GPa)
#
#
# Indices 1 2 3 4 5 6 
#
# 1 0.007175 -0.004215 -0.002376 0.000000 0.000000 0.000000
# 2 -0.004215 0.045073 -0.004974 0.000000 0.000000 0.000000
# 3 -0.002376 -0.004974 0.008902 0.000000 0.000000 0.000000
# 4 0.000000 0.000000 0.000000 0.032742 0.000000 0.000000
# 5 0.000000 0.000000 0.000000 0.000000 0.023668 0.000000
# 6 0.000000 0.000000 0.000000 0.000000 0.000000 0.042739
#
#
# Mechanical properties :
#
#
# Convention : Reuss Voigt Hill
#
# Bulk Modulus (GPa) = 26.30203 60.22686 43.26445
# Shear Modulus (GPa) = 25.49724 34.99124 30.24424
#
# Velocity S-wave (km/s) = 3.62283 4.24405 3.94569
# Velocity P-wave (km/s) = 5.57127 7.41743 6.55962
#
# Compressibility (1/GPa) = 0.03801988
#
# Stress axis : x y z
#
# Youngs Moduli (GPa) = 139.38245 22.18645 112.34024
#
# Poissons Ratio (x) = 0.09352 0.26690
# Poissons Ratio (y) = 0.58749 0.55873
# Poissons Ratio (z) = 0.33115 0.11035
#
# Static dielectric constant tensor:
#      x y z
#    x 3.815800 0.000000 0.000000 
#    y 0.000000 3.196640 0.000000 
#    z 0.000000 0.000000 3.523310 
# 
# 
# High freq. dielectric constant tensor:
#      x y z
#    x 1.777050 0.000000 0.000000 
#    y 0.000000 1.723100 0.000000 
#    z 0.000000 0.000000 1.759280 
# 
# From -- ./inp_files/28429.got.cif
#   From: 2010.03.12/outbox.cif.g09.slc.cpg/sg67_15_cif.got.tgz:28429.got - 2010.04.10 22:41:39.
