data_PCOD8279334
_publ_section_title
;
Structure prediction by ZEFSAII (Michael W. Deem and Ramdas Pophale) SiO2 
 PCOD8279334
Probable space group: C M M A
;
_chemical_formula_sum "Si O2"
_cell_formula_units_Z 92
_cell_length_a 29.229772
_cell_length_b 9.124982
_cell_length_c 18.387070
_cell_angle_alpha 90.000000
_cell_angle_beta 90.000000
_cell_angle_gamma 90.000000
_cell_volume 4904.220334
_symmetry_space_group_name_H-M "C M M A"
_symmetry_group_IT_number 67
_symmetry_cell_setting 'orthorhombic'
loop_
_space_group_symop_operation_xyz
x,y,z
-x,1/2-y,z
x,-y,-z
-x,1/2+y,-z
-x,-y,-z
x,1/2+y,-z
-x,y,z
x,1/2-y,z
1/2+x,1/2+y,z
1/2-x,-y,z
1/2+x,1/2-y,-z
1/2-x,y,-z
1/2-x,1/2-y,-z
1/2+x,y,-z
1/2-x,1/2+y,z
1/2+x,-y,z
loop_
_atom_site_type_symbol
_atom_site_label
_atom_site_fract_x
_atom_site_fract_y
_atom_site_fract_z
Si Si1 0.000000 0.075860 0.576446
Si Si2 0.295446 0.423785 0.776901
Si Si3 0.946149 0.080169 0.073695
Si Si4 0.179456 0.911906 0.616053
Si Si5 0.250000 0.500000 0.500000
Si Si6 0.385233 0.922697 0.809463
Si Si7 0.406056 0.580841 0.643328
O O1 0.044814 0.019773 0.618970
O O2 0.000000 0.250000 0.568017
O O3 0.000000 0.000000 0.500000
O O4 0.293933 0.250000 0.790009
O O5 0.250000 0.500000 0.808046
O O6 0.298590 0.466953 0.691623
O O7 0.337090 0.495597 0.821597
O O8 0.930886 0.250000 0.070902
O O9 0.000000 0.066053 0.085941
O O10 0.922577 0.995159 0.139204
O O11 0.930850 0.000000 0.000000
O O12 0.160255 0.750000 0.627899
O O13 0.217152 0.906039 0.552179
O O14 0.135254 0.009429 0.596889
O O15 0.380350 0.750000 0.825570
O O16 0.401874 0.953706 0.728065
O O17 0.402020 0.750000 0.625452
#
# Coordination Sequence:
#
# PCOD8279334 Si02
#       7
#     8  16  16  16   4  16  16
#     4  10  22  40  56  76 103 142 185 232 285 336
#     4  10  19  35  55  78 109 144 185 232 280 333
#     4  10  21  37  58  88 124 158 190 229 276 331
#     4  10  22  36  53  76 104 137 179 228 282 340
#     4  12  22  36  52  80 106 140 182 230 298 350
#     4  10  20  35  59  86 112 149 190 233 282 335
#     4   9  21  39  58  78 108 143 186 233 281 338
#
# _framework density 18.759352
#
# number of rings (size 3 to 8) (size 9 to 14) (size 15 to 20)
#    0.000    2.087    0.870    1.826    2.435    4.522 
#    0.000    0.000    0.000    0.522    0.000    3.652 
#    0.000    0.000    0.000    0.000    0.000    0.000 
#
# Total GULP energy -570376.994940 kJ/mol
# GULP energy per Si atom -12399.499890 kJ/mol
# Density = 1.871666 g / cm^3
# Si number density = 18.759352 Si / 1000 Ang^3
#
#
#
# Elastic Constant Matrix: (Units=GPa)
#
#
# Indices 1 2 3 4 5 6 
#
# 1 130.5492 57.5004 41.6740 0.0000 0.0000 0.0000
# 2 57.5004 101.3096 37.3447 0.0000 0.0000 0.0000
# 3 41.6740 37.3447 63.7621 0.0000 0.0000 0.0000
# 4 0.0000 0.0000 0.0000 27.8027 0.0000 0.0000
# 5 0.0000 0.0000 0.0000 0.0000 30.1899 0.0000
# 6 0.0000 0.0000 0.0000 0.0000 0.0000 30.4149
#
#
#
# Elastic Compliance Matrix: (Units=1/GPa)
#
#
# Indices 1 2 3 4 5 6 
#
# 1 0.011170 -0.004653 -0.004575 0.000000 0.000000 0.000000
# 2 -0.004653 0.014527 -0.005467 0.000000 0.000000 0.000000
# 3 -0.004575 -0.005467 0.021876 0.000000 0.000000 0.000000
# 4 0.000000 0.000000 0.000000 0.035968 0.000000 0.000000
# 5 0.000000 0.000000 0.000000 0.000000 0.033124 0.000000
# 6 0.000000 0.000000 0.000000 0.000000 0.000000 0.032879
#
#
# Mechanical properties :
#
#
# Convention : Reuss Voigt Hill
#
# Bulk Modulus (GPa) = 55.00050 63.18434 59.09242
# Shear Modulus (GPa) = 27.02791 28.28829 27.65810
#
# Velocity S-wave (km/s) = 3.79987 3.88745 3.84391
# Velocity P-wave (km/s) = 6.97385 7.34196 7.16027
#
# Compressibility (1/GPa) = 0.01818165
#
# Stress axis : x y z
#
# Youngs Moduli (GPa) = 89.52592 68.83720 45.71316
#
# Poissons Ratio (x) = 0.32032 0.20915
# Poissons Ratio (y) = 0.41659 0.24992
# Poissons Ratio (z) = 0.40960 0.37634
#
# Static dielectric constant tensor:
#      x y z
#    x 3.724260 0.000000 0.000000 
#    y 0.000000 3.478270 0.000000 
#    z 0.000000 0.000000 3.051400 
# 
# 
# High freq. dielectric constant tensor:
#      x y z
#    x 1.737880 0.000000 0.000000 
#    y 0.000000 1.735490 0.000000 
#    z 0.000000 0.000000 1.704980 
# 
# From -- ./inp_files/39899.got.cif
#   From: 2010.03.12/outbox.cif.g09.slc.cpg/sg67_20_cif.got.tgz:39899.got - 2010.04.10 22:41:39.
