data_PCOD8279968
_publ_section_title
;
Structure prediction by ZEFSAII (Michael W. Deem and Ramdas Pophale) SiO2 
 PCOD8279968
Probable space group: C M M A
;
_chemical_formula_sum "Si O2"
_cell_formula_units_Z 120
_cell_length_a 26.090422
_cell_length_b 8.850957
_cell_length_c 27.123721
_cell_angle_alpha 90.000000
_cell_angle_beta 90.000000
_cell_angle_gamma 90.000000
_cell_volume 6263.550784
_symmetry_space_group_name_H-M "C M M A"
_symmetry_group_IT_number 67
_symmetry_cell_setting 'orthorhombic'
loop_
_space_group_symop_operation_xyz
x,y,z
-x,1/2-y,z
x,-y,-z
-x,1/2+y,-z
-x,-y,-z
x,1/2+y,-z
-x,y,z
x,1/2-y,z
1/2+x,1/2+y,z
1/2-x,-y,z
1/2+x,1/2-y,-z
1/2-x,y,-z
1/2-x,1/2-y,-z
1/2+x,y,-z
1/2-x,1/2+y,z
1/2+x,-y,z
loop_
_atom_site_type_symbol
_atom_site_label
_atom_site_fract_x
_atom_site_fract_y
_atom_site_fract_z
Si Si1 0.443245 0.923271 0.099127
Si Si2 0.401637 0.572401 0.807193
Si Si3 0.000000 0.572281 0.446993
Si Si4 0.158199 0.575396 0.950366
Si Si5 0.558935 0.075536 0.710080
Si Si6 0.197018 0.928629 0.447428
Si Si7 0.697532 0.071024 0.845567
Si Si8 0.402225 0.427285 0.384532
O O1 0.500000 0.946571 0.076966
O O2 0.434046 0.750000 0.116375
O O3 0.402074 0.964053 0.056951
O O4 0.436946 0.028780 0.146521
O O5 0.392531 0.750000 0.806550
O O6 0.430529 0.521969 0.758332
O O7 0.347005 0.489565 0.810342
O O8 0.000000 0.500000 0.500000
O O9 0.050905 0.517973 0.418687
O O10 0.000000 0.750000 0.453722
O O11 0.168015 0.750000 0.957503
O O12 0.188048 0.516550 0.902005
O O13 0.179336 0.500000 0.000000
O O14 0.500000 0.051104 0.694419
O O15 0.570961 0.250000 0.721125
O O16 0.595502 0.017520 0.666532
O O17 0.203729 0.750000 0.453747
O O18 0.151555 0.968705 0.409910
O O19 0.182896 0.000000 0.500000
O O20 0.250000 0.000000 0.427073
O O21 0.699363 0.250000 0.841815
O O22 0.750000 0.000000 0.826219
O O23 0.406646 0.250000 0.373365
#
# Coordination Sequence:
#
# PCOD8279968 Si02
#       8
#    16  16   8  16  16  16  16  16
#     4   9  18  34  53  74 105 143 183 227 274 325
#     4  11  22  36  57  83 109 141 181 226 275 329
#     4  10  20  34  54  80 114 150 186 232 281 336
#     4   9  19  33  50  75 108 144 180 221 269 325
#     4  11  23  38  58  84 114 149 185 226 279 337
#     4  10  20  35  57  83 111 148 191 235 280 328
#     4  10  21  39  60  82 109 140 179 227 277 329
#     4  10  21  37  56  81 114 150 189 234 284 336
#
# _framework density 19.158462
#
# number of rings (size 3 to 8) (size 9 to 14) (size 15 to 20)
#    0.000    2.000    0.667    4.400    0.000    7.467 
#    0.000    2.000    0.000    1.600    0.000    0.000 
#    0.000    0.000    0.000    0.000    0.000    0.000 
#
# Total GULP energy -744115.680378 kJ/mol
# GULP energy per Si atom -12401.928006 kJ/mol
# Density = 1.911486 g / cm^3
# Si number density = 19.158462 Si / 1000 Ang^3
#
#
#
# Elastic Constant Matrix: (Units=GPa)
#
#
# Indices 1 2 3 4 5 6 
#
# 1 96.8373 30.5284 10.6617 0.0000 0.0000 0.0000
# 2 30.5284 82.3510 27.8482 0.0000 0.0000 0.0000
# 3 10.6617 27.8482 70.1958 0.0000 0.0000 0.0000
# 4 0.0000 0.0000 0.0000 35.0558 0.0000 0.0000
# 5 0.0000 0.0000 0.0000 0.0000 18.3245 0.0000
# 6 0.0000 0.0000 0.0000 0.0000 0.0000 30.7317
#
#
#
# Elastic Compliance Matrix: (Units=1/GPa)
#
#
# Indices 1 2 3 4 5 6 
#
# 1 0.011693 -0.004313 -0.000065 0.000000 0.000000 0.000000
# 2 -0.004313 0.015615 -0.005540 0.000000 0.000000 0.000000
# 3 -0.000065 -0.005540 0.016454 0.000000 0.000000 0.000000
# 4 0.000000 0.000000 0.000000 0.028526 0.000000 0.000000
# 5 0.000000 0.000000 0.000000 0.000000 0.054572 0.000000
# 6 0.000000 0.000000 0.000000 0.000000 0.000000 0.032540
#
#
# Mechanical properties :
#
#
# Convention : Reuss Voigt Hill
#
# Bulk Modulus (GPa) = 41.79433 43.05119 42.42276
# Shear Modulus (GPa) = 26.70783 28.84545 27.77664
#
# Velocity S-wave (km/s) = 3.73775 3.88445 3.81180
# Velocity P-wave (km/s) = 6.36318 6.52981 6.44704
#
# Compressibility (1/GPa) = 0.02392669
#
# Stress axis : x y z
#
# Youngs Moduli (GPa) = 85.51818 64.03949 60.77720
#
# Poissons Ratio (x) = 0.27619 0.00395
# Poissons Ratio (y) = 0.36883 0.33670
# Poissons Ratio (z) = 0.00556 0.35477
#
# Static dielectric constant tensor:
#      x y z
#    x 3.634670 0.000000 0.000000 
#    y 0.000000 3.502460 0.000000 
#    z 0.000000 0.000000 3.405810 
# 
# 
# High freq. dielectric constant tensor:
#      x y z
#    x 1.751460 0.000000 0.000000 
#    y 0.000000 1.747730 0.000000 
#    z 0.000000 0.000000 1.731110 
# 
# From -- ./inp_files/45049.got.cif
#   From: 2010.03.12/outbox.cif.g09.slc.cpg/sg67_23_cif.got.tgz:45049.got - 2010.04.10 22:41:39.
