data_PCOD8279137
_publ_section_title
;
Structure prediction by ZEFSAII (Michael W. Deem and Ramdas Pophale) SiO2 
 PCOD8279137
Probable space group: C M M A
;
_chemical_formula_sum "Si O2"
_cell_formula_units_Z 116
_cell_length_a 23.198800
_cell_length_b 14.724511
_cell_length_c 18.188583
_cell_angle_alpha 90.000000
_cell_angle_beta 90.000000
_cell_angle_gamma 90.000000
_cell_volume 6213.055997
_symmetry_space_group_name_H-M "C M M A"
_symmetry_group_IT_number 67
_symmetry_cell_setting 'orthorhombic'
loop_
_space_group_symop_operation_xyz
x,y,z
-x,1/2-y,z
x,-y,-z
-x,1/2+y,-z
-x,-y,-z
x,1/2+y,-z
-x,y,z
x,1/2-y,z
1/2+x,1/2+y,z
1/2-x,-y,z
1/2+x,1/2-y,-z
1/2-x,y,-z
1/2-x,1/2-y,-z
1/2+x,y,-z
1/2-x,1/2+y,z
1/2+x,-y,z
loop_
_atom_site_type_symbol
_atom_site_label
_atom_site_fract_x
_atom_site_fract_y
_atom_site_fract_z
Si Si1 0.899881 0.513394 0.922428
Si Si2 0.869232 0.150551 0.732415
Si Si3 0.726278 0.855827 0.615561
Si Si4 0.823668 0.350111 0.887213
Si Si5 0.064543 0.525384 0.760843
Si Si6 0.696057 0.144778 0.887417
Si Si7 0.750000 0.500000 0.500000
Si Si8 0.168581 0.644314 0.722444
O O1 0.873185 0.414855 0.913694
O O2 0.935814 0.540853 0.850021
O O3 0.849186 0.587244 0.934795
O O4 0.935066 0.500000 0.000000
O O5 0.898670 0.250000 0.726554
O O6 0.831105 0.129715 0.661850
O O7 0.823297 0.149384 0.798674
O O8 0.920185 0.078455 0.742554
O O9 0.730815 0.750000 0.589193
O O10 0.714969 0.928273 0.550420
O O11 0.784801 0.882697 0.660121
O O12 0.837947 0.250000 0.917869
O O13 0.760259 0.379037 0.914929
O O14 0.108340 0.589590 0.715551
O O15 0.000000 0.546336 0.733189
O O16 0.681320 0.250000 0.898615
O O17 0.693398 0.117376 0.801799
O O18 0.153603 0.750000 0.716848
#
# Coordination Sequence:
#
# PCOD8279137 Si02
#       8
#    16  16  16  16  16  16   4  16
#     4  10  21  32  42  61  92 130 165 198 248 312
#     4   9  17  32  54  75  98 129 165 209 255 295
#     4  10  19  33  53  80 111 143 169 192 239 298
#     4   9  16  28  47  69  91 118 158 206 251 297
#     4  10  21  34  50  73  96 125 171 220 260 297
#     4   9  16  28  47  69  91 118 158 206 251 297
#     4  12  22  28  44  82 130 156 160 180 216 288
#     4   9  17  32  54  75  98 129 165 209 255 295
#
# _framework density 18.670362000000001
#
# number of rings (size 3 to 8) (size 9 to 14) (size 15 to 20)
#    0.000    2.483    1.379    1.448    0.000    2.483 
#    0.000    1.379    0.000    0.000    0.000   15.448 
#    0.000   17.655    0.000    0.000    0.000    0.000 
#
# Total GULP energy -718556.606883 kJ/mol
# GULP energy per Si atom -12388.907015 kJ/mol
# Density = 1.862787 g / cm^3
# Si number density = 18.670362 Si / 1000 Ang^3
#
#
#
# Elastic Constant Matrix: (Units=GPa)
#
#
# Indices 1 2 3 4 5 6 
#
# 1 68.2743 18.3109 0.7699 0.0000 0.0000 0.0000
# 2 18.3109 62.4257 14.8910 0.0000 0.0000 0.0000
# 3 0.7699 14.8910 69.5931 0.0000 0.0000 0.0000
# 4 0.0000 0.0000 0.0000 17.2001 0.0000 0.0000
# 5 0.0000 0.0000 0.0000 0.0000 6.7612 0.0000
# 6 0.0000 0.0000 0.0000 0.0000 0.0000 16.0041
#
#
#
# Elastic Compliance Matrix: (Units=1/GPa)
#
#
# Indices 1 2 3 4 5 6 
#
# 1 0.015947 -0.004885 0.000869 0.000000 0.000000 0.000000
# 2 -0.004885 0.018377 -0.003878 0.000000 0.000000 0.000000
# 3 0.000869 -0.003878 0.015189 0.000000 0.000000 0.000000
# 4 0.000000 0.000000 0.000000 0.058139 0.000000 0.000000
# 5 0.000000 0.000000 0.000000 0.000000 0.147902 0.000000
# 6 0.000000 0.000000 0.000000 0.000000 0.000000 0.062484
#
#
# Mechanical properties :
#
#
# Convention : Reuss Voigt Hill
#
# Bulk Modulus (GPa) = 29.65149 29.80406 29.72778
# Shear Modulus (GPa) = 14.48985 19.08118 16.78551
#
# Velocity S-wave (km/s) = 2.78886 3.20035 3.00166
# Velocity P-wave (km/s) = 5.12702 5.44557 5.28870
#
# Compressibility (1/GPa) = 0.03372512
#
# Stress axis : x y z
#
# Youngs Moduli (GPa) = 62.70726 54.41589 65.83523
#
# Poissons Ratio (x) = 0.26582 -0.05720
# Poissons Ratio (y) = 0.30632 0.25532
# Poissons Ratio (z) = -0.05448 0.21103
#
# Static dielectric constant tensor:
#      x y z
#    x 2.987600 0.000000 0.000000 
#    y 0.000000 3.669700 0.000000 
#    z 0.000000 0.000000 3.385040 
# 
# 
# High freq. dielectric constant tensor:
#      x y z
#    x 1.679850 0.000000 0.000000 
#    y 0.000000 1.742870 0.000000 
#    z 0.000000 0.000000 1.704560 
# 
# From -- ./inp_files/35986.got.cif
#   From: 2010.03.12/outbox.cif.g09.slc.cpg/sg67_18_cif.got.tgz:35986.got - 2010.04.10 22:41:39.
