data_PCOD8279826
_publ_section_title
;
Structure prediction by ZEFSAII (Michael W. Deem and Ramdas Pophale) SiO2 
 PCOD8279826
Probable space group: C M M A
;
_chemical_formula_sum "Si O2"
_cell_formula_units_Z 80
_cell_length_a 19.611975
_cell_length_b 8.899821
_cell_length_c 25.634827
_cell_angle_alpha 90.000000
_cell_angle_beta 90.000000
_cell_angle_gamma 90.000000
_cell_volume 4474.381325
_symmetry_space_group_name_H-M "C M M A"
_symmetry_group_IT_number 67
_symmetry_cell_setting 'orthorhombic'
loop_
_space_group_symop_operation_xyz
x,y,z
-x,1/2-y,z
x,-y,-z
-x,1/2+y,-z
-x,-y,-z
x,1/2+y,-z
-x,y,z
x,1/2-y,z
1/2+x,1/2+y,z
1/2-x,-y,z
1/2+x,1/2-y,-z
1/2-x,y,-z
1/2-x,1/2-y,-z
1/2+x,y,-z
1/2-x,1/2+y,z
1/2+x,-y,z
loop_
_atom_site_type_symbol
_atom_site_label
_atom_site_fract_x
_atom_site_fract_y
_atom_site_fract_z
Si Si1 0.581207 0.418977 0.948821
Si Si2 0.422576 0.073985 0.155542
Si Si3 0.922704 0.073523 0.447066
Si Si4 0.321672 0.571311 0.752790
Si Si5 0.678153 0.070879 0.643925
O O1 0.500000 0.426700 0.950096
O O2 0.608505 0.250000 0.949134
O O3 0.607940 0.497586 0.896279
O O4 0.611480 0.500000 0.000000
O O5 0.500000 0.020856 0.166585
O O6 0.419553 0.250000 0.145684
O O7 0.377464 0.025316 0.204595
O O8 0.918628 0.250000 0.454617
O O9 0.876796 0.020870 0.398872
O O10 0.000000 0.019963 0.435986
O O11 0.894358 0.000000 0.500000
O O12 0.314039 0.750000 0.746676
O O13 0.250000 0.500000 0.770080
O O14 0.346305 0.499181 0.698544
O O15 0.684837 0.250000 0.649071
O O16 0.750000 0.000000 0.627081
#
# Coordination Sequence:
#
# PCOD8279826 Si02
#       5
#    16  16  16  16  16
#     4   9  16  26  43  68  97 128 160 196 240 287
#     4   9  18  32  49  71  98 126 160 201 241 285
#     4   9  19  35  53  74 100 130 162 197 240 287
#     4  10  20  34  52  72  97 130 164 199 242 289
#     4  10  20  34  52  73  98 127 162 202 240 284
#
# _framework density 17.879567000000002
#
# number of rings (size 3 to 8) (size 9 to 14) (size 15 to 20)
#    0.000    2.600    0.000    3.000    0.000    6.800 
#    0.000    2.000    0.000    0.600    0.000    4.200 
#    0.000    0.000    0.000    0.000    0.000    0.000 
#
# Total GULP energy -496006.003485 kJ/mol
# GULP energy per Si atom -12400.150087 kJ/mol
# Density = 1.783887 g / cm^3
# Si number density = 17.879567 Si / 1000 Ang^3
#
#
#
# Elastic Constant Matrix: (Units=GPa)
#
#
# Indices 1 2 3 4 5 6 
#
# 1 77.4540 40.2677 90.6940 0.0000 0.0000 0.0000
# 2 40.2677 76.5327 69.1337 0.0000 0.0000 0.0000
# 3 90.6940 69.1337 180.7159 0.0000 0.0000 0.0000
# 4 0.0000 0.0000 0.0000 35.9199 0.0000 0.0000
# 5 0.0000 0.0000 0.0000 0.0000 9.2554 0.0000
# 6 0.0000 0.0000 0.0000 0.0000 0.0000 20.3928
#
#
#
# Elastic Compliance Matrix: (Units=1/GPa)
#
#
# Indices 1 2 3 4 5 6 
#
# 1 0.031930 -0.003552 -0.014665 0.000000 0.000000 0.000000
# 2 -0.003552 0.020361 -0.006006 0.000000 0.000000 0.000000
# 3 -0.014665 -0.006006 0.015191 0.000000 0.000000 0.000000
# 4 0.000000 0.000000 0.000000 0.027840 0.000000 0.000000
# 5 0.000000 0.000000 0.000000 0.000000 0.108045 0.000000
# 6 0.000000 0.000000 0.000000 0.000000 0.000000 0.049037
#
#
# Mechanical properties :
#
#
# Convention : Reuss Voigt Hill
#
# Bulk Modulus (GPa) = 52.53753 81.65483 67.09618
# Shear Modulus (GPa) = 16.27619 22.08743 19.18181
#
# Velocity S-wave (km/s) = 3.02043 3.51856 3.27897
# Velocity P-wave (km/s) = 6.45073 7.89148 7.20720
#
# Compressibility (1/GPa) = 0.01903401
#
# Stress axis : x y z
#
# Youngs Moduli (GPa) = 31.31838 49.11307 65.82697
#
# Poissons Ratio (x) = 0.17447 0.96538
# Poissons Ratio (y) = 0.11126 0.39539
# Poissons Ratio (z) = 0.45930 0.29500
#
# Static dielectric constant tensor:
#      x y z
#    x 3.172490 0.000000 0.000000 
#    y 0.000000 3.350830 0.000000 
#    z 0.000000 0.000000 3.460390 
# 
# 
# High freq. dielectric constant tensor:
#      x y z
#    x 1.663770 0.000000 0.000000 
#    y 0.000000 1.699990 0.000000 
#    z 0.000000 0.000000 1.703700 
# 
# From -- ./inp_files/43321.got.cif
#   From: 2010.03.12/outbox.cif.g09.slc.cpg/sg67_22_cif.got.tgz:43321.got - 2010.04.10 22:41:39.
