data_PCOD8279398
_publ_section_title
;
Structure prediction by ZEFSAII (Michael W. Deem and Ramdas Pophale) SiO2 
 PCOD8279398
Probable space group: C M M A
;
_chemical_formula_sum "Si O2"
_cell_formula_units_Z 64
_cell_length_a 15.579876
_cell_length_b 23.738602
_cell_length_c 8.782432
_cell_angle_alpha 90.000000
_cell_angle_beta 90.000000
_cell_angle_gamma 90.000000
_cell_volume 3248.133957
_symmetry_space_group_name_H-M "C M M A"
_symmetry_group_IT_number 67
_symmetry_cell_setting 'orthorhombic'
loop_
_space_group_symop_operation_xyz
x,y,z
-x,1/2-y,z
x,-y,-z
-x,1/2+y,-z
-x,-y,-z
x,1/2+y,-z
-x,y,z
x,1/2-y,z
1/2+x,1/2+y,z
1/2-x,-y,z
1/2+x,1/2-y,-z
1/2-x,y,-z
1/2-x,1/2-y,-z
1/2+x,y,-z
1/2-x,1/2+y,z
1/2+x,-y,z
loop_
_atom_site_type_symbol
_atom_site_label
_atom_site_fract_x
_atom_site_fract_y
_atom_site_fract_z
Si Si1 0.346611 0.638441 0.163510
Si Si2 0.904748 0.250000 0.307438
Si Si3 0.500000 0.435951 0.188290
Si Si4 0.000000 0.061368 0.173569
Si Si5 0.843448 0.360170 0.813950
Si Si6 0.666296 0.750000 0.609350
O O1 0.351030 0.696166 0.255512
O O2 0.415127 0.594108 0.229395
O O3 0.251757 0.612191 0.189406
O O4 0.366104 0.654353 0.988501
O O5 0.912497 0.250000 0.490609
O O6 0.000000 0.250000 0.235815
O O7 0.500000 0.499805 0.251664
O O8 0.585421 0.404039 0.248178
O O9 0.500000 0.441345 0.007518
O O10 0.843228 0.304146 0.715094
O O11 0.750000 0.750000 0.500000
#
# Coordination Sequence:
#
# PCOD8279398 Si02
#       6
#    16   8   8   8  16   8
#     4  10  19  36  60  83 113 143 188 230 281 335
#     4  12  23  35  55  86 110 152 181 228 281 345
#     4   9  20  35  55  84 116 141 186 233 284 331
#     4   9  18  35  57  86 110 143 186 239 280 327
#     4  10  21  36  56  85 114 148 180 232 282 333
#     4  12  23  37  54  83 118 151 182 228 278 348
#
# _framework density 19.703620999999998
#
# number of rings (size 3 to 8) (size 9 to 14) (size 15 to 20)
#    0.000    1.750    3.750    0.750    1.750    3.000 
#    0.000    5.000    0.000    3.000    0.000    0.000 
#    0.000    0.000    0.000    0.000    0.000    0.000 
#
# Total GULP energy -396684.601939 kJ/mol
# GULP energy per Si atom -12396.393811 kJ/mol
# Density = 1.965877 g / cm^3
# Si number density = 19.703621 Si / 1000 Ang^3
#
#
#
# Elastic Constant Matrix: (Units=GPa)
#
#
# Indices 1 2 3 4 5 6 
#
# 1 163.6469 84.3370 29.3453 0.0000 0.0000 0.0000
# 2 84.3370 169.6842 42.8919 0.0000 0.0000 0.0000
# 3 29.3453 42.8919 58.3386 0.0000 0.0000 0.0000
# 4 0.0000 0.0000 0.0000 -7.6959 0.0000 0.0000
# 5 0.0000 0.0000 0.0000 0.0000 20.4769 0.0000
# 6 0.0000 0.0000 0.0000 0.0000 0.0000 16.7041
#
#
#
# Elastic Compliance Matrix: (Units=1/GPa)
#
#
# Indices 1 2 3 4 5 6 
#
# 1 0.008308 -0.003774 -0.001404 0.000000 0.000000 0.000000
# 2 -0.003774 0.008953 -0.004684 0.000000 0.000000 0.000000
# 3 -0.001404 -0.004684 0.021291 0.000000 0.000000 0.000000
# 4 0.000000 0.000000 0.000000 -0.129939 0.000000 0.000000
# 5 0.000000 0.000000 0.000000 0.000000 0.048835 0.000000
# 6 0.000000 0.000000 0.000000 0.000000 0.000000 0.059866
#
#
# Mechanical properties :
#
#
# Convention : Reuss Voigt Hill
#
# Bulk Modulus (GPa) = 53.11351 78.31313 65.71332
# Shear Modulus (GPa) = 115.43405 21.57005 68.50205
#
# Velocity S-wave (km/s) = 7.66240 3.31225 5.90269
# Velocity P-wave (km/s) = 10.26148 7.37969 8.93750
#
# Compressibility (1/GPa) = 0.01882760
#
# Stress axis : x y z
#
# Youngs Moduli (GPa) = 120.37290 111.69246 46.96731
#
# Poissons Ratio (x) = 0.42154 0.06594
# Poissons Ratio (y) = 0.45430 0.22000
# Poissons Ratio (z) = 0.16900 0.52318
#
# Static dielectric constant tensor:
#      x y z
#    x 3.933720 0.000000 0.000000 
#    y 0.000000 3.577860 0.000000 
#    z 0.000000 0.000000 3.435620 
# 
# 
# High freq. dielectric constant tensor:
#      x y z
#    x 1.789400 0.000000 0.000000 
#    y 0.000000 1.752620 0.000000 
#    z 0.000000 0.000000 1.739530 
# 
# From -- ./inp_files/8067.got.cif
#   From: 2010.03.12/outbox.cif.g09.slc.cpg/sg67_5_cif.got.tgz:8067.got - 2010.04.10 22:41:39.
