data_PCOD8279369
_publ_section_title
;
Structure prediction by ZEFSAII (Michael W. Deem and Ramdas Pophale) SiO2 
 PCOD8279369
Probable space group: C M M A
;
_chemical_formula_sum "Si O2"
_cell_formula_units_Z 112
_cell_length_a 27.964801
_cell_length_b 15.227586
_cell_length_c 12.698091
_cell_angle_alpha 90.000000
_cell_angle_beta 90.000000
_cell_angle_gamma 90.000000
_cell_volume 5407.309513
_symmetry_space_group_name_H-M "C M M A"
_symmetry_group_IT_number 67
_symmetry_cell_setting 'orthorhombic'
loop_
_space_group_symop_operation_xyz
x,y,z
-x,1/2-y,z
x,-y,-z
-x,1/2+y,-z
-x,-y,-z
x,1/2+y,-z
-x,y,z
x,1/2-y,z
1/2+x,1/2+y,z
1/2-x,-y,z
1/2+x,1/2-y,-z
1/2-x,y,-z
1/2-x,1/2-y,-z
1/2+x,y,-z
1/2-x,1/2+y,z
1/2+x,-y,z
loop_
_atom_site_type_symbol
_atom_site_label
_atom_site_fract_x
_atom_site_fract_y
_atom_site_fract_z
Si Si1 0.051279 0.417975 0.570498
Si Si2 0.804120 0.606999 0.708996
Si Si3 0.804467 0.101007 0.720856
Si Si4 0.882778 0.847362 0.865418
Si Si5 0.379518 0.150557 0.104545
Si Si6 0.850247 0.395071 0.506910
Si Si7 0.556114 0.011420 0.201835
O O1 0.039328 0.500000 0.500000
O O2 0.094296 0.361247 0.518120
O O3 0.069737 0.455347 0.682060
O O4 0.000000 0.365809 0.582049
O O5 0.808822 0.503097 0.717569
O O6 0.749629 0.635301 0.728404
O O7 0.834534 0.652860 0.798656
O O8 0.823596 0.642046 0.595936
O O9 0.833842 0.134422 0.821316
O O10 0.823564 0.139691 0.610651
O O11 0.906213 0.750000 0.858766
O O12 0.920360 0.917168 0.820017
O O13 0.865508 0.867778 0.983886
O O14 0.397581 0.250000 0.121702
O O15 0.423535 0.085455 0.124815
O O16 0.851014 0.500000 0.500000
O O17 0.500000 0.001649 0.183627
#
# Coordination Sequence:
#
# PCOD8279369 Si02
#       7
#    16  16  16  16  16  16  16
#     4   9  16  28  56  92 121 156 198 238 295 363
#     4  10  20  34  60  90 120 162 206 249 303 364
#     4  10  19  35  59  89 121 160 207 252 304 361
#     4  11  24  41  60  87 123 160 202 252 306 363
#     4  11  24  41  61  87 122 160 202 255 307 357
#     4   9  15  30  55  86 125 156 196 249 300 357
#     4  11  22  41  67  92 121 159 203 249 300 362
#
# _framework density 20.712703999999999
#
# number of rings (size 3 to 8) (size 9 to 14) (size 15 to 20)
#    0.000    1.857    2.857    2.571    0.000    4.571 
#    0.000    5.000    0.000    1.714    0.000    4.000 
#    0.000    0.000    0.000    0.000    0.000    0.000 
#
# Total GULP energy -694095.814502 kJ/mol
# GULP energy per Si atom -12394.568116 kJ/mol
# Density = 2.066556 g / cm^3
# Si number density = 20.712704 Si / 1000 Ang^3
#
#
#
# Elastic Constant Matrix: (Units=GPa)
#
#
# Indices 1 2 3 4 5 6 
#
# 1 144.8118 35.4826 48.5163 0.0000 0.0000 0.0000
# 2 35.4826 60.3022 11.7766 0.0000 0.0000 0.0000
# 3 48.5163 11.7766 121.6968 0.0000 0.0000 0.0000
# 4 0.0000 0.0000 0.0000 -10.7201 0.0000 0.0000
# 5 0.0000 0.0000 0.0000 0.0000 24.2986 0.0000
# 6 0.0000 0.0000 0.0000 0.0000 0.0000 6.1118
#
#
#
# Elastic Compliance Matrix: (Units=1/GPa)
#
#
# Indices 1 2 3 4 5 6 
#
# 1 0.009137 -0.004755 -0.003182 0.000000 0.000000 0.000000
# 2 -0.004755 0.019377 0.000020 0.000000 0.000000 0.000000
# 3 -0.003182 0.000020 0.009484 0.000000 0.000000 0.000000
# 4 0.000000 0.000000 0.000000 -0.093283 0.000000 0.000000
# 5 0.000000 0.000000 0.000000 0.000000 0.041155 0.000000
# 6 0.000000 0.000000 0.000000 0.000000 0.000000 0.163619
#
#
# Mechanical properties :
#
#
# Convention : Reuss Voigt Hill
#
# Bulk Modulus (GPa) = 45.11778 57.59573 51.35676
# Shear Modulus (GPa) = 28.95038 19.34042 24.14540
#
# Velocity S-wave (km/s) = 3.74265 3.05904 3.41798
# Velocity P-wave (km/s) = 6.36448 6.35172 6.35810
#
# Compressibility (1/GPa) = 0.02216421
#
# Stress axis : x y z
#
# Youngs Moduli (GPa) = 109.44841 51.60795 105.44211
#
# Poissons Ratio (x) = 0.24538 0.33556
# Poissons Ratio (y) = 0.52039 -0.00215
# Poissons Ratio (z) = 0.34831 -0.00105
#
# Static dielectric constant tensor:
#      x y z
#    x 4.000220 0.000000 0.000000 
#    y 0.000000 3.480060 0.000000 
#    z 0.000000 0.000000 4.387150 
# 
# 
# High freq. dielectric constant tensor:
#      x y z
#    x 1.818370 0.000000 0.000000 
#    y 0.000000 1.780980 0.000000 
#    z 0.000000 0.000000 1.823800 
# 
# From -- ./inp_files/23843.got.cif
#   From: 2010.03.12/outbox.cif.g09.slc.cpg/sg67_12_cif.got.tgz:23843.got - 2010.04.10 22:41:39.
