data_PCOD8279030
_publ_section_title
;
Structure prediction by ZEFSAII (Michael W. Deem and Ramdas Pophale) SiO2 
 PCOD8279030
Probable space group: C M M A
;
_chemical_formula_sum "Si O2"
_cell_formula_units_Z 104
_cell_length_a 10.219178
_cell_length_b 27.180543
_cell_length_c 20.892318
_cell_angle_alpha 90.000000
_cell_angle_beta 90.000000
_cell_angle_gamma 90.000000
_cell_volume 5803.108894
_symmetry_space_group_name_H-M "C M M A"
_symmetry_group_IT_number 67
_symmetry_cell_setting 'orthorhombic'
loop_
_space_group_symop_operation_xyz
x,y,z
-x,1/2-y,z
x,-y,-z
-x,1/2+y,-z
-x,-y,-z
x,1/2+y,-z
-x,y,z
x,1/2-y,z
1/2+x,1/2+y,z
1/2-x,-y,z
1/2+x,1/2-y,-z
1/2-x,y,-z
1/2-x,1/2-y,-z
1/2+x,y,-z
1/2-x,1/2+y,z
1/2+x,-y,z
loop_
_atom_site_type_symbol
_atom_site_label
_atom_site_fract_x
_atom_site_fract_y
_atom_site_fract_z
Si Si1 0.351623 0.957761 0.252463
Si Si2 0.648744 0.457382 0.601067
Si Si3 0.644868 0.307639 0.273478
Si Si4 0.147597 0.356759 0.185958
Si Si5 0.750000 0.382074 0.500000
Si Si6 0.851300 0.303136 0.588799
Si Si7 0.352344 0.306242 0.945574
O O1 0.500000 0.978061 0.246530
O O2 0.326149 0.939929 0.325872
O O3 0.327938 0.913835 0.202612
O O4 0.250000 0.000000 0.233487
O O5 0.500000 0.477033 0.593127
O O6 0.750000 0.500000 0.581924
O O7 0.669082 0.413078 0.551562
O O8 0.500000 0.331751 0.262869
O O9 0.631140 0.250000 0.266702
O O10 0.745885 0.324886 0.221165
O O11 0.707593 0.321211 0.343123
O O12 0.166581 0.345596 0.111129
O O13 0.000000 0.341912 0.207234
O O14 0.847506 0.345537 0.536221
O O15 0.788657 0.250000 0.567101
O O16 0.000000 0.292485 0.605378
O O17 0.500000 0.310417 0.972995
O O18 0.326621 0.250000 0.921883
O O19 0.250000 0.321275 0.000000
#
# Coordination Sequence:
#
# PCOD8279030 Si02
#       7
#    16  16  16  16   8  16  16
#     4   9  19  36  54  73  98 126 160 206 256 303
#     4  10  22  37  52  72  97 124 158 203 255 308
#     4   9  18  32  49  71 100 132 166 205 249 299
#     4  10  19  32  53  79 104 131 167 210 252 291
#     4  12  20  30  52  72  92 124 168 208 250 300
#     4   9  19  34  48  66  96 131 166 205 250 302
#     4   9  18  32  50  75 109 144 171 197 233 278
#
# _framework density 17.921427999999999
#
# number of rings (size 3 to 8) (size 9 to 14) (size 15 to 20)
#    0.000    2.462    0.000    3.231    0.000    4.000 
#    0.000    5.385    0.000    2.308    0.000    3.231 
#    0.000    0.000    0.000    0.000    0.000    0.000 
#
# Total GULP energy -644385.390886 kJ/mol
# GULP energy per Si atom -12392.026748 kJ/mol
# Density = 1.788064 g / cm^3
# Si number density = 17.921428 Si / 1000 Ang^3
#
#
#
# Elastic Constant Matrix: (Units=GPa)
#
#
# Indices 1 2 3 4 5 6 
#
# 1 101.8353 53.3414 62.6270 0.0000 0.0000 0.0000
# 2 53.3414 80.2097 61.8963 0.0000 0.0000 0.0000
# 3 62.6270 61.8963 105.1245 0.0000 0.0000 0.0000
# 4 0.0000 0.0000 0.0000 32.0511 0.0000 0.0000
# 5 0.0000 0.0000 0.0000 0.0000 26.4845 0.0000
# 6 0.0000 0.0000 0.0000 0.0000 0.0000 24.3598
#
#
#
# Elastic Compliance Matrix: (Units=1/GPa)
#
#
# Indices 1 2 3 4 5 6 
#
# 1 0.017144 -0.006451 -0.006415 0.000000 0.000000 0.000000
# 2 -0.006451 0.025276 -0.011039 0.000000 0.000000 0.000000
# 3 -0.006415 -0.011039 0.019834 0.000000 0.000000 0.000000
# 4 0.000000 0.000000 0.000000 0.031200 0.000000 0.000000
# 5 0.000000 0.000000 0.000000 0.000000 0.037758 0.000000
# 6 0.000000 0.000000 0.000000 0.000000 0.000000 0.041051
#
#
# Mechanical properties :
#
#
# Convention : Reuss Voigt Hill
#
# Bulk Modulus (GPa) = 69.23451 71.43321 70.33386
# Shear Modulus (GPa) = 22.23324 23.86606 23.04965
#
# Velocity S-wave (km/s) = 3.52603 3.65321 3.59018
# Velocity P-wave (km/s) = 7.43595 7.59870 7.51776
#
# Compressibility (1/GPa) = 0.01444366
#
# Stress axis : x y z
#
# Youngs Moduli (GPa) = 58.32991 39.56330 50.41777
#
# Poissons Ratio (x) = 0.25520 0.32345
# Poissons Ratio (y) = 0.37626 0.55658
# Poissons Ratio (z) = 0.37420 0.43675
#
# Static dielectric constant tensor:
#      x y z
#    x 3.181630 0.000000 0.000000 
#    y 0.000000 3.173250 0.000000 
#    z 0.000000 0.000000 3.306680 
# 
# 
# High freq. dielectric constant tensor:
#      x y z
#    x 1.696250 0.000000 0.000000 
#    y 0.000000 1.680120 0.000000 
#    z 0.000000 0.000000 1.682050 
# 
# From -- ./inp_files/37300.got.cif
#   From: 2010.03.12/outbox.cif.g09.slc.cpg/sg67_19_cif.got.tgz:37300.got - 2010.04.10 22:41:39.
