data_PCOD8279744
_publ_section_title
;
Structure prediction by ZEFSAII (Michael W. Deem and Ramdas Pophale) SiO2 
 PCOD8279744
Probable space group: C M M A
;
_chemical_formula_sum "Si O2"
_cell_formula_units_Z 88
_cell_length_a 25.941555
_cell_length_b 24.960119
_cell_length_c 6.970177
_cell_angle_alpha 90.000000
_cell_angle_beta 90.000000
_cell_angle_gamma 90.000000
_cell_volume 4513.219578
_symmetry_space_group_name_H-M "C M M A"
_symmetry_group_IT_number 67
_symmetry_cell_setting 'orthorhombic'
loop_
_space_group_symop_operation_xyz
x,y,z
-x,1/2-y,z
x,-y,-z
-x,1/2+y,-z
-x,-y,-z
x,1/2+y,-z
-x,y,z
x,1/2-y,z
1/2+x,1/2+y,z
1/2-x,-y,z
1/2+x,1/2-y,-z
1/2-x,y,-z
1/2-x,1/2-y,-z
1/2+x,y,-z
1/2-x,1/2+y,z
1/2+x,-y,z
loop_
_atom_site_type_symbol
_atom_site_label
_atom_site_fract_x
_atom_site_fract_y
_atom_site_fract_z
Si Si1 0.943824 0.187852 0.505849
Si Si2 0.309136 0.398377 0.485563
Si Si3 0.124233 0.641552 0.823028
Si Si4 0.854304 0.812385 0.221420
Si Si5 0.441987 0.544589 0.158102
Si Si6 0.624247 0.000000 0.500000
O O1 0.953275 0.250000 0.504315
O O2 0.915258 0.173520 0.310099
O O3 0.910102 0.171690 0.691031
O O4 0.000000 0.159056 0.519526
O O5 0.250000 0.415095 0.500000
O O6 0.328070 0.378842 0.694812
O O7 0.313442 0.350915 0.327699
O O8 0.340590 0.451289 0.420503
O O9 0.092087 0.593668 0.920921
O O10 0.146157 0.678543 0.993072
O O11 0.840654 0.750000 0.263243
O O12 0.500000 0.563181 0.211246
O O13 0.413860 0.521991 0.342157
O O14 0.444035 0.500000 0.000000
#
# Coordination Sequence:
#
# PCOD8279744 Si02
#       6
#    16  16  16  16  16   8
#     4   9  18  32  51  77 107 140 179 218 259 315
#     4  10  22  39  59  82 106 139 187 239 289 340
#     4  10  20  35  54  77 108 143 181 223 271 326
#     4  10  21  37  56  80 113 149 185 230 281 334
#     4  10  20  33  52  80 111 142 176 215 264 326
#     4  10  20  38  60  80 110 144 180 230 286 336
#
# _framework density 19.498275
#
# number of rings (size 3 to 8) (size 9 to 14) (size 15 to 20)
#    0.000    2.182    0.000    2.727    0.000    3.273 
#    0.000    7.273    0.000    3.273    0.000    0.000 
#    0.000    0.000    0.000    0.000    0.000    0.000 
#
# Total GULP energy -545492.359046 kJ/mol
# GULP energy per Si atom -12397.553615 kJ/mol
# Density = 1.945390 g / cm^3
# Si number density = 19.498275 Si / 1000 Ang^3
#
#
#
# Elastic Constant Matrix: (Units=GPa)
#
#
# Indices 1 2 3 4 5 6 
#
# 1 92.7438 10.0344 11.2326 0.0000 0.0000 0.0000
# 2 10.0344 59.2566 19.1921 0.0000 0.0000 0.0000
# 3 11.2326 19.1921 70.6357 0.0000 0.0000 0.0000
# 4 0.0000 0.0000 0.0000 31.1020 0.0000 0.0000
# 5 0.0000 0.0000 0.0000 0.0000 25.0143 0.0000
# 6 0.0000 0.0000 0.0000 0.0000 0.0000 24.3368
#
#
#
# Elastic Compliance Matrix: (Units=1/GPa)
#
#
# Indices 1 2 3 4 5 6 
#
# 1 0.011104 -0.001435 -0.001376 0.000000 0.000000 0.000000
# 2 -0.001435 0.018690 -0.004850 0.000000 0.000000 0.000000
# 3 -0.001376 -0.004850 0.015694 0.000000 0.000000 0.000000
# 4 0.000000 0.000000 0.000000 0.032152 0.000000 0.000000
# 5 0.000000 0.000000 0.000000 0.000000 0.039977 0.000000
# 6 0.000000 0.000000 0.000000 0.000000 0.000000 0.041090
#
#
# Mechanical properties :
#
#
# Convention : Reuss Voigt Hill
#
# Bulk Modulus (GPa) = 33.14963 33.72828 33.43895
# Shear Modulus (GPa) = 27.16158 28.23575 27.69867
#
# Velocity S-wave (km/s) = 3.73637 3.80954 3.77313
# Velocity P-wave (km/s) = 5.97095 6.05688 6.01407
#
# Compressibility (1/GPa) = 0.03016625
#
# Stress axis : x y z
#
# Youngs Moduli (GPa) = 90.05545 53.50595 63.71980
#
# Poissons Ratio (x) = 0.07677 0.08768
# Poissons Ratio (y) = 0.12920 0.30903
# Poissons Ratio (z) = 0.12392 0.25950
#
# Static dielectric constant tensor:
#      x y z
#    x 3.512220 0.000000 0.000000 
#    y 0.000000 3.775850 0.000000 
#    z 0.000000 0.000000 3.251620 
# 
# 
# High freq. dielectric constant tensor:
#      x y z
#    x 1.755950 0.000000 0.000000 
#    y 0.000000 1.768640 0.000000 
#    z 0.000000 0.000000 1.751490 
# 
# From -- ./inp_files/3615.got.cif
#   From: 2010.03.12/outbox.cif.g09.slc.cpg/sg67_2_cif.got.tgz:3615.got - 2010.04.10 22:41:39.
