data_PCOD8279882
_publ_section_title
;
Structure prediction by ZEFSAII (Michael W. Deem and Ramdas Pophale) SiO2 
 PCOD8279882
Probable space group: C M M A
;
_chemical_formula_sum "Si O2"
_cell_formula_units_Z 72
_cell_length_a 25.283181
_cell_length_b 9.007172
_cell_length_c 19.622459
_cell_angle_alpha 90.000000
_cell_angle_beta 90.000000
_cell_angle_gamma 90.000000
_cell_volume 4468.621803
_symmetry_space_group_name_H-M "C M M A"
_symmetry_group_IT_number 67
_symmetry_cell_setting 'orthorhombic'
loop_
_space_group_symop_operation_xyz
x,y,z
-x,1/2-y,z
x,-y,-z
-x,1/2+y,-z
-x,-y,-z
x,1/2+y,-z
-x,y,z
x,1/2-y,z
1/2+x,1/2+y,z
1/2-x,-y,z
1/2+x,1/2-y,-z
1/2-x,y,-z
1/2-x,1/2-y,-z
1/2+x,y,-z
1/2-x,1/2+y,z
1/2+x,-y,z
loop_
_atom_site_type_symbol
_atom_site_label
_atom_site_fract_x
_atom_site_fract_y
_atom_site_fract_z
Si Si1 0.500000 0.425833 0.073308
Si Si2 0.196410 0.423972 0.070504
Si Si3 0.407292 0.921400 0.152554
Si Si4 0.936988 0.917486 0.433696
Si Si5 0.439360 0.921339 0.300597
O O1 0.500000 0.250000 0.064504
O O2 0.552132 0.473882 0.113531
O O3 0.500000 0.500000 0.000000
O O4 0.206021 0.250000 0.057866
O O5 0.250000 0.500000 0.097852
O O6 0.151438 0.452520 0.126103
O O7 0.178653 0.500000 0.000000
O O8 0.424413 0.750000 0.141159
O O9 0.406751 0.960288 0.232649
O O10 0.916957 0.750000 0.437018
O O11 0.000000 0.929915 0.433479
O O12 0.913771 0.000000 0.500000
O O13 0.914884 0.988994 0.364080
O O14 0.500000 0.966519 0.286528
O O15 0.434994 0.750000 0.320334
#
# Coordination Sequence:
#
# PCOD8279882 Si02
#       5
#     8  16  16  16  16
#     4  12  24  34  48  68  93 124 157 194 232 278
#     4  10  20  34  53  71  91 118 154 197 242 284
#     4  10  20  35  51  69  94 125 157 192 235 285
#     4   9  16  25  38  58  85 117 156 191 221 261
#     4   9  16  28  45  62  88 122 152 185 227 271
#
# _framework density 16.112349999999999
#
# number of rings (size 3 to 8) (size 9 to 14) (size 15 to 20)
#    0.000    2.222    1.111    3.667    0.000    7.111 
#    0.000    0.000    0.000    0.000    0.000    0.000 
#    0.000    0.889    0.000   10.222    0.000    3.556 
#
# Total GULP energy -446417.925006 kJ/mol
# GULP energy per Si atom -12400.497917 kJ/mol
# Density = 1.607568 g / cm^3
# Si number density = 16.112350 Si / 1000 Ang^3
#
#
#
# Elastic Constant Matrix: (Units=GPa)
#
#
# Indices 1 2 3 4 5 6 
#
# 1 65.3664 42.0917 55.6852 0.0000 0.0000 0.0000
# 2 42.0917 118.5802 76.7701 0.0000 0.0000 0.0000
# 3 55.6852 76.7701 151.9200 0.0000 0.0000 0.0000
# 4 0.0000 0.0000 0.0000 29.7385 0.0000 0.0000
# 5 0.0000 0.0000 0.0000 0.0000 13.1532 0.0000
# 6 0.0000 0.0000 0.0000 0.0000 0.0000 16.8529
#
#
#
# Elastic Compliance Matrix: (Units=1/GPa)
#
#
# Indices 1 2 3 4 5 6 
#
# 1 0.023521 -0.004113 -0.006543 0.000000 0.000000 0.000000
# 2 -0.004113 0.013253 -0.005189 0.000000 0.000000 0.000000
# 3 -0.006543 -0.005189 0.011603 0.000000 0.000000 0.000000
# 4 0.000000 0.000000 0.000000 0.033626 0.000000 0.000000
# 5 0.000000 0.000000 0.000000 0.000000 0.076027 0.000000
# 6 0.000000 0.000000 0.000000 0.000000 0.000000 0.059337
#
#
# Mechanical properties :
#
#
# Convention : Reuss Voigt Hill
#
# Bulk Modulus (GPa) = 59.93123 76.10672 68.01898
# Shear Modulus (GPa) = 19.63711 22.70357 21.17034
#
# Velocity S-wave (km/s) = 3.49486 3.75784 3.62874
# Velocity P-wave (km/s) = 7.31861 8.13425 7.73719
#
# Compressibility (1/GPa) = 0.01668579
#
# Stress axis : x y z
#
# Youngs Moduli (GPa) = 42.51559 75.45572 86.18410
#
# Poissons Ratio (x) = 0.31035 0.56389
# Poissons Ratio (y) = 0.17487 0.44725
# Poissons Ratio (z) = 0.27818 0.39157
#
# Static dielectric constant tensor:
#      x y z
#    x 2.705230 0.000000 0.000000 
#    y 0.000000 3.163990 0.000000 
#    z 0.000000 0.000000 3.196700 
# 
# 
# High freq. dielectric constant tensor:
#      x y z
#    x 1.567970 0.000000 0.000000 
#    y 0.000000 1.630390 0.000000 
#    z 0.000000 0.000000 1.627850 
# 
# From -- ./inp_files/32059.got.cif
#   From: 2010.03.12/outbox.cif.g09.slc.cpg/sg67_17_cif.got.tgz:32059.got - 2010.04.10 22:41:39.
