data_PCOD8279065
_publ_section_title
;
Structure prediction by ZEFSAII (Michael W. Deem and Ramdas Pophale) SiO2 
 PCOD8279065
Probable space group: C M M A
;
_chemical_formula_sum "Si O2"
_cell_formula_units_Z 96
_cell_length_a 22.513149
_cell_length_b 20.496820
_cell_length_c 10.167954
_cell_angle_alpha 90.000000
_cell_angle_beta 90.000000
_cell_angle_gamma 90.000000
_cell_volume 4691.981658
_symmetry_space_group_name_H-M "C M M A"
_symmetry_group_IT_number 67
_symmetry_cell_setting 'orthorhombic'
loop_
_space_group_symop_operation_xyz
x,y,z
-x,1/2-y,z
x,-y,-z
-x,1/2+y,-z
-x,-y,-z
x,1/2+y,-z
-x,y,z
x,1/2-y,z
1/2+x,1/2+y,z
1/2-x,-y,z
1/2+x,1/2-y,-z
1/2-x,y,-z
1/2-x,1/2-y,-z
1/2+x,y,-z
1/2-x,1/2+y,z
1/2+x,-y,z
loop_
_atom_site_type_symbol
_atom_site_label
_atom_site_fract_x
_atom_site_fract_y
_atom_site_fract_z
Si Si1 0.168621 0.325046 0.737769
Si Si2 0.106858 0.172623 0.010268
Si Si3 0.127400 0.634548 0.545888
Si Si4 0.404240 0.500000 0.500000
Si Si5 0.500000 0.674972 0.478947
Si Si6 0.000000 0.066959 0.671172
Si Si7 0.000000 0.921583 0.023565
Si Si8 0.702631 0.675912 0.219494
O O1 0.181274 0.250000 0.709940
O O2 0.125076 0.336127 0.859219
O O3 0.137664 0.351950 0.607552
O O4 0.232665 0.358764 0.771369
O O5 0.089787 0.250000 0.037244
O O6 0.055015 0.119832 0.036174
O O7 0.159797 0.147527 0.106162
O O8 0.135842 0.556785 0.563574
O O9 0.060750 0.654380 0.595692
O O10 0.173583 0.671982 0.636355
O O11 0.442735 0.528197 0.620070
O O12 0.500000 0.750000 0.509323
O O13 0.500000 0.640166 0.618347
O O14 0.000000 0.080328 0.822189
O O15 0.000000 0.000000 0.000000
O O16 0.713111 0.750000 0.178284
#
# Coordination Sequence:
#
# PCOD8279065 Si02
#       8
#    16  16  16   8   8   8   8  16
#     4  10  20  38  63  88 115 152 202 252 297 351
#     4  10  22  41  63  89 121 158 199 247 301 365
#     4  11  21  34  58  85 121 156 199 248 295 354
#     4   9  20  36  57  76 116 156 201 231 292 350
#     4  10  19  32  55  89 117 145 186 242 302 351
#     4   9  20  38  54  80 110 160 191 235 286 352
#     4  12  26  38  63  89 123 158 201 243 298 363
#     4  10  21  37  60  89 120 155 194 247 307 354
#
# _framework density 20.460439000000001
#
# number of rings (size 3 to 8) (size 9 to 14) (size 15 to 20)
#    0.000    1.833    0.000    5.250    2.333    6.000 
#    0.000    2.500    0.000    1.000    0.000    0.000 
#    0.000    0.000    0.000    0.000    0.000    0.000 
#
# Total GULP energy -594716.788274 kJ/mol
# GULP energy per Si atom -12389.933089 kJ/mol
# Density = 2.041387 g / cm^3
# Si number density = 20.460439 Si / 1000 Ang^3
#
#
#
# Elastic Constant Matrix: (Units=GPa)
#
#
# Indices 1 2 3 4 5 6 
#
# 1 110.9535 31.5455 3.4488 0.0000 0.0000 0.0000
# 2 31.5455 102.9587 6.2013 0.0000 0.0000 0.0000
# 3 3.4488 6.2013 52.0128 0.0000 0.0000 0.0000
# 4 0.0000 0.0000 0.0000 23.7157 0.0000 0.0000
# 5 0.0000 0.0000 0.0000 0.0000 -30.5191 0.0000
# 6 0.0000 0.0000 0.0000 0.0000 0.0000 17.8686
#
#
#
# Elastic Compliance Matrix: (Units=1/GPa)
#
#
# Indices 1 2 3 4 5 6 
#
# 1 0.009877 -0.003008 -0.000296 0.000000 0.000000 0.000000
# 2 -0.003008 0.010699 -0.001076 0.000000 0.000000 0.000000
# 3 -0.000296 -0.001076 0.019374 0.000000 0.000000 0.000000
# 4 0.000000 0.000000 0.000000 0.042166 0.000000 0.000000
# 5 0.000000 0.000000 0.000000 0.000000 -0.032766 0.000000
# 6 0.000000 0.000000 0.000000 0.000000 0.000000 0.055964
#
#
# Mechanical properties :
#
#
# Convention : Reuss Voigt Hill
#
# Bulk Modulus (GPa) = 32.06278 38.70179 35.38228
# Shear Modulus (GPa) = 40.16954 17.19500 28.68227
#
# Velocity S-wave (km/s) = 4.43570 2.90211 3.74818
# Velocity P-wave (km/s) = 6.47600 5.49419 6.00519
#
# Compressibility (1/GPa) = 0.03118881
#
# Stress axis : x y z
#
# Youngs Moduli (GPa) = 101.24182 93.46477 51.61561
#
# Poissons Ratio (x) = 0.28119 0.01529
# Poissons Ratio (y) = 0.30458 0.05555
# Poissons Ratio (z) = 0.02999 0.10058
#
# Static dielectric constant tensor:
#      x y z
#    x 4.092470 0.000000 0.000000 
#    y 0.000000 3.973350 0.000000 
#    z 0.000000 0.000000 3.496810 
# 
# 
# High freq. dielectric constant tensor:
#      x y z
#    x 1.806790 0.000000 0.000000 
#    y 0.000000 1.782980 0.000000 
#    z 0.000000 0.000000 1.794420 
# 
# From -- ./inp_files/20929.got.cif
#   From: 2010.03.12/outbox.cif.g09.slc.cpg/sg67_11_cif.got.tgz:20929.got - 2010.04.10 22:41:39.
