data_PCOD8279575
_publ_section_title
;
Structure prediction by ZEFSAII (Michael W. Deem and Ramdas Pophale) SiO2 
 PCOD8279575
Probable space group: C M M A
;
_chemical_formula_sum "Si O2"
_cell_formula_units_Z 112
_cell_length_a 18.132145
_cell_length_b 26.708498
_cell_length_c 12.344284
_cell_angle_alpha 90.000000
_cell_angle_beta 90.000000
_cell_angle_gamma 90.000000
_cell_volume 5978.118969
_symmetry_space_group_name_H-M "C M M A"
_symmetry_group_IT_number 67
_symmetry_cell_setting 'orthorhombic'
loop_
_space_group_symop_operation_xyz
x,y,z
-x,1/2-y,z
x,-y,-z
-x,1/2+y,-z
-x,-y,-z
x,1/2+y,-z
-x,y,z
x,1/2-y,z
1/2+x,1/2+y,z
1/2-x,-y,z
1/2+x,1/2-y,-z
1/2-x,y,-z
1/2-x,1/2-y,-z
1/2+x,y,-z
1/2-x,1/2+y,z
1/2+x,-y,z
loop_
_atom_site_type_symbol
_atom_site_label
_atom_site_fract_x
_atom_site_fract_y
_atom_site_fract_z
Si Si1 0.661586 0.694469 0.668281
Si Si2 0.648528 0.092736 0.222181
Si Si3 0.708244 0.116564 0.890932
Si Si4 0.915282 0.846471 0.532950
Si Si5 0.585575 0.452119 0.432399
Si Si6 0.673406 0.806647 0.278822
Si Si7 0.916253 0.441740 0.997720
O O1 0.640414 0.750000 0.713686
O O2 0.629937 0.650522 0.745586
O O3 0.629387 0.688864 0.548509
O O4 0.749452 0.689898 0.657680
O O5 0.734598 0.087393 0.188436
O O6 0.632312 0.055249 0.322052
O O7 0.595965 0.079586 0.122395
O O8 0.680019 0.167800 0.838314
O O9 0.750000 0.132030 0.000000
O O10 0.638157 0.081898 0.913933
O O11 0.902150 0.904760 0.509480
O O12 0.888180 0.836104 0.653888
O O13 0.000000 0.831640 0.522006
O O14 0.614386 0.500000 0.500000
O O15 0.500000 0.458781 0.399904
O O16 0.647790 0.750000 0.259801
O O17 0.000000 0.430255 0.032836
O O18 0.898919 0.500000 0.000000
#
# Coordination Sequence:
#
# PCOD8279575 Si02
#       7
#    16  16  16  16  16  16  16
#     4   9  18  34  55  76 101 137 176 212 254 307
#     4   9  18  34  56  81 106 133 173 221 260 303
#     4   9  20  37  56  78 102 131 175 227 265 297
#     4  10  20  32  49  77 110 140 174 213 252 306
#     4   9  18  33  53  79 112 146 175 209 259 315
#     4  10  20  34  53  75 104 142 176 209 257 315
#     4  10  21  37  57  78 102 137 176 214 262 316
#
# _framework density 18.73499
#
# number of rings (size 3 to 8) (size 9 to 14) (size 15 to 20)
#    0.000    2.571    0.000    1.286    0.000    7.429 
#    0.000    6.429    0.000   11.143    0.000    0.000 
#    0.000    0.571    0.000    0.000    0.000    0.000 
#
# Total GULP energy -694415.048821 kJ/mol
# GULP energy per Si atom -12400.268729 kJ/mol
# Density = 1.869235 g / cm^3
# Si number density = 18.734990 Si / 1000 Ang^3
#
#
#
# Elastic Constant Matrix: (Units=GPa)
#
#
# Indices 1 2 3 4 5 6 
#
# 1 87.5154 60.8134 56.0575 0.0000 0.0000 0.0000
# 2 60.8134 121.4214 64.2340 0.0000 0.0000 0.0000
# 3 56.0575 64.2340 107.2515 0.0000 0.0000 0.0000
# 4 0.0000 0.0000 0.0000 25.8988 0.0000 0.0000
# 5 0.0000 0.0000 0.0000 0.0000 25.0722 0.0000
# 6 0.0000 0.0000 0.0000 0.0000 0.0000 24.9008
#
#
#
# Elastic Compliance Matrix: (Units=1/GPa)
#
#
# Indices 1 2 3 4 5 6 
#
# 1 0.020296 -0.006665 -0.006617 0.000000 0.000000 0.000000
# 2 -0.006665 0.014244 -0.005047 0.000000 0.000000 0.000000
# 3 -0.006617 -0.005047 0.015805 0.000000 0.000000 0.000000
# 4 0.000000 0.000000 0.000000 0.038612 0.000000 0.000000
# 5 0.000000 0.000000 0.000000 0.000000 0.039885 0.000000
# 6 0.000000 0.000000 0.000000 0.000000 0.000000 0.040159
#
#
# Mechanical properties :
#
#
# Convention : Reuss Voigt Hill
#
# Bulk Modulus (GPa) = 73.05876 75.37757 74.21816
# Shear Modulus (GPa) = 23.78444 24.17990 23.98217
#
# Velocity S-wave (km/s) = 3.56690 3.59643 3.58169
# Velocity P-wave (km/s) = 7.48627 7.58727 7.53694
#
# Compressibility (1/GPa) = 0.01368761
#
# Stress axis : x y z
#
# Youngs Moduli (GPa) = 49.27034 70.20495 63.27102
#
# Poissons Ratio (x) = 0.46792 0.41864
# Poissons Ratio (y) = 0.32839 0.31935
# Poissons Ratio (z) = 0.32600 0.35434
#
# Static dielectric constant tensor:
#      x y z
#    x 3.440990 0.000000 0.000000 
#    y 0.000000 3.513500 0.000000 
#    z 0.000000 0.000000 3.384270 
# 
# 
# High freq. dielectric constant tensor:
#      x y z
#    x 1.723790 0.000000 0.000000 
#    y 0.000000 1.728560 0.000000 
#    z 0.000000 0.000000 1.719840 
# 
# From -- ./inp_files/21127.got.cif
#   From: 2010.03.12/outbox.cif.g09.slc.cpg/sg67_11_cif.got.tgz:21127.got - 2010.04.10 22:41:39.
