data_PCOD8279218
_publ_section_title
;
Structure prediction by ZEFSAII (Michael W. Deem and Ramdas Pophale) SiO2 
 PCOD8279218
Probable space group: C M M A
;
_chemical_formula_sum "Si O2"
_cell_formula_units_Z 112
_cell_length_a 16.479516
_cell_length_b 28.157237
_cell_length_c 11.817986
_cell_angle_alpha 90.000000
_cell_angle_beta 90.000000
_cell_angle_gamma 90.000000
_cell_volume 5483.753946
_symmetry_space_group_name_H-M "C M M A"
_symmetry_group_IT_number 67
_symmetry_cell_setting 'orthorhombic'
loop_
_space_group_symop_operation_xyz
x,y,z
-x,1/2-y,z
x,-y,-z
-x,1/2+y,-z
-x,-y,-z
x,1/2+y,-z
-x,y,z
x,1/2-y,z
1/2+x,1/2+y,z
1/2-x,-y,z
1/2+x,1/2-y,-z
1/2-x,y,-z
1/2-x,1/2-y,-z
1/2+x,y,-z
1/2-x,1/2+y,z
1/2+x,-y,z
loop_
_atom_site_type_symbol
_atom_site_label
_atom_site_fract_x
_atom_site_fract_y
_atom_site_fract_z
Si Si1 0.403132 0.529902 0.326858
Si Si2 0.342322 0.696184 0.034276
Si Si3 0.595718 0.805530 0.279084
Si Si4 0.403637 0.542955 0.072800
Si Si5 0.840923 0.881749 0.542270
Si Si6 0.906249 0.382816 0.901181
Si Si7 0.406521 0.077113 0.328603
O O1 0.500000 0.537795 0.346369
O O2 0.373376 0.540112 0.200146
O O3 0.351562 0.567485 0.397925
O O4 0.375026 0.476180 0.358554
O O5 0.370714 0.750000 0.029651
O O6 0.362140 0.677884 0.161595
O O7 0.250000 0.688584 0.000000
O O8 0.392487 0.671828 0.932746
O O9 0.500000 0.815108 0.267841
O O10 0.613710 0.750000 0.305835
O O11 0.630951 0.837640 0.380614
O O12 0.500000 0.541165 0.074151
O O13 0.367790 0.500000 0.000000
O O14 0.370063 0.589810 0.010493
O O15 0.750000 0.873778 0.500000
O O16 0.894643 0.885087 0.428781
O O17 0.864275 0.400608 0.784374
O O18 0.000000 0.394156 0.888079
O O19 0.500000 0.070370 0.301835
#
# Coordination Sequence:
#
# PCOD8279218 Si02
#       7
#    16  16  16  16  16  16  16
#     4  10  19  35  60  85 118 161 209 258 303 369
#     4  10  22  39  64  94 127 159 193 248 318 390
#     4  10  22  44  71  95 120 158 215 268 309 375
#     4   9  15  29  55  88 115 144 194 249 304 360
#     4  12  26  39  59  87 121 168 210 264 313 364
#     4  10  19  33  58  87 121 158 196 251 308 373
#     4  10  21  37  57  84 120 162 208 255 301 366
#
# _framework density 20.423964999999999
#
# number of rings (size 3 to 8) (size 9 to 14) (size 15 to 20)
#    0.000    1.857    1.429    3.000    2.000    4.571 
#    0.000    0.714    0.000    1.286    0.000    0.000 
#    0.000    0.000    0.000    0.000    0.000    0.000 
#
# Total GULP energy -693972.041482 kJ/mol
# GULP energy per Si atom -12392.357884 kJ/mol
# Density = 2.037748 g / cm^3
# Si number density = 20.423965 Si / 1000 Ang^3
#
#
#
# Elastic Constant Matrix: (Units=GPa)
#
#
# Indices 1 2 3 4 5 6 
#
# 1 51.6092 36.1340 39.0064 0.0000 0.0000 0.0000
# 2 36.1340 114.2211 79.4306 0.0000 0.0000 0.0000
# 3 39.0064 79.4306 138.0036 0.0000 0.0000 0.0000
# 4 0.0000 0.0000 0.0000 40.1362 0.0000 0.0000
# 5 0.0000 0.0000 0.0000 0.0000 23.5917 0.0000
# 6 0.0000 0.0000 0.0000 0.0000 0.0000 18.1741
#
#
#
# Elastic Compliance Matrix: (Units=1/GPa)
#
#
# Indices 1 2 3 4 5 6 
#
# 1 0.026419 -0.005277 -0.004430 0.000000 0.000000 0.000000
# 2 -0.005277 0.015652 -0.007517 0.000000 0.000000 0.000000
# 3 -0.004430 -0.007517 0.012825 0.000000 0.000000 0.000000
# 4 0.000000 0.000000 0.000000 0.024915 0.000000 0.000000
# 5 0.000000 0.000000 0.000000 0.000000 0.042388 0.000000
# 6 0.000000 0.000000 0.000000 0.000000 0.000000 0.055024
#
#
# Mechanical properties :
#
#
# Convention : Reuss Voigt Hill
#
# Bulk Modulus (GPa) = 48.90552 68.10845 58.50698
# Shear Modulus (GPa) = 22.88463 26.33125 24.60794
#
# Velocity S-wave (km/s) = 3.35099 3.59448 3.47487
# Velocity P-wave (km/s) = 6.24254 7.11666 6.69388
#
# Compressibility (1/GPa) = 0.02044759
#
# Stress axis : x y z
#
# Youngs Moduli (GPa) = 37.85102 63.88993 77.97273
#
# Poissons Ratio (x) = 0.33715 0.34542
# Poissons Ratio (y) = 0.19974 0.58614
# Poissons Ratio (z) = 0.16768 0.48027
#
# Static dielectric constant tensor:
#      x y z
#    x 3.324600 0.000000 0.000000 
#    y 0.000000 3.793470 0.000000 
#    z 0.000000 0.000000 4.057540 
# 
# 
# High freq. dielectric constant tensor:
#      x y z
#    x 1.764890 0.000000 0.000000 
#    y 0.000000 1.799010 0.000000 
#    z 0.000000 0.000000 1.815500 
# 
# From -- ./inp_files/18565.got.cif
#   From: 2010.03.12/outbox.cif.g09.slc.cpg/sg67_10_cif.got.tgz:18565.got - 2010.04.10 22:41:39.
