data_PCOD8279670
_publ_section_title
;
Structure prediction by ZEFSAII (Michael W. Deem and Ramdas Pophale) SiO2 
 PCOD8279670
Probable space group: C M M A
;
_chemical_formula_sum "Si O2"
_cell_formula_units_Z 104
_cell_length_a 26.572306
_cell_length_b 8.848273
_cell_length_c 24.214569
_cell_angle_alpha 90.000000
_cell_angle_beta 90.000000
_cell_angle_gamma 90.000000
_cell_volume 5693.305678
_symmetry_space_group_name_H-M "C M M A"
_symmetry_group_IT_number 67
_symmetry_cell_setting 'orthorhombic'
loop_
_space_group_symop_operation_xyz
x,y,z
-x,1/2-y,z
x,-y,-z
-x,1/2+y,-z
-x,-y,-z
x,1/2+y,-z
-x,y,z
x,1/2-y,z
1/2+x,1/2+y,z
1/2-x,-y,z
1/2+x,1/2-y,-z
1/2-x,y,-z
1/2-x,1/2-y,-z
1/2+x,y,-z
1/2-x,1/2+y,z
1/2+x,-y,z
loop_
_atom_site_type_symbol
_atom_site_label
_atom_site_fract_x
_atom_site_fract_y
_atom_site_fract_z
Si Si1 0.801765 0.573423 0.724613
Si Si2 0.942745 0.419900 0.232072
Si Si3 0.302398 0.425880 0.853663
Si Si4 0.442943 0.927501 0.555682
Si Si5 0.603438 0.070989 0.330232
Si Si6 0.500000 0.429605 0.059873
Si Si7 0.097570 0.572005 0.127796
O O1 0.800853 0.750000 0.711750
O O2 0.750000 0.500000 0.705618
O O3 0.811863 0.540897 0.789060
O O4 0.842880 0.492501 0.687158
O O5 0.919234 0.250000 0.231559
O O6 0.938950 0.492798 0.292396
O O7 0.912624 0.526146 0.190632
O O8 0.000000 0.412924 0.213290
O O9 0.299079 0.250000 0.866775
O O10 0.250000 0.500000 0.873241
O O11 0.349093 0.495649 0.888824
O O12 0.500000 0.985028 0.565971
O O13 0.442199 0.750000 0.548032
O O14 0.408187 0.976697 0.606963
O O15 0.420420 0.000000 0.500000
O O16 0.600892 0.250000 0.322223
O O17 0.500000 0.250000 0.056598
O O18 0.449109 0.486259 0.090440
O O19 0.500000 0.500000 0.000000
O O20 0.103705 0.750000 0.123115
#
# Coordination Sequence:
#
# PCOD8279670 Si02
#       7
#    16  16  16  16  16   8  16
#     4  10  20  33  50  75 108 142 180 218 267 326
#     4  11  22  33  48  76 111 146 181 220 272 327
#     4  10  20  34  54  82 115 152 190 230 280 336
#     4   9  19  35  53  74 100 135 178 220 266 319
#     4  11  21  33  52  76 106 141 177 220 273 329
#     4  10  24  42  62  88 116 156 199 234 279 330
#     4  11  21  36  57  83 115 150 188 231 279 331
#
# _framework density 18.267067999999998
#
# number of rings (size 3 to 8) (size 9 to 14) (size 15 to 20)
#    0.000    1.692    2.308    2.769    0.000    5.231 
#    0.000    1.538    0.000    0.923    0.000    6.462 
#    0.000    0.000    0.000    0.000    0.000    0.000 
#
# Total GULP energy -644810.432156 kJ/mol
# GULP energy per Si atom -12400.200618 kJ/mol
# Density = 1.822549 g / cm^3
# Si number density = 18.267068 Si / 1000 Ang^3
#
#
#
# Elastic Constant Matrix: (Units=GPa)
#
#
# Indices 1 2 3 4 5 6 
#
# 1 143.4831 51.7504 46.8330 0.0000 0.0000 0.0000
# 2 51.7504 78.4901 33.4659 0.0000 0.0000 0.0000
# 3 46.8330 33.4659 76.3889 0.0000 0.0000 0.0000
# 4 0.0000 0.0000 0.0000 27.3430 0.0000 0.0000
# 5 0.0000 0.0000 0.0000 0.0000 19.6188 0.0000
# 6 0.0000 0.0000 0.0000 0.0000 0.0000 33.9175
#
#
#
# Elastic Compliance Matrix: (Units=1/GPa)
#
#
# Indices 1 2 3 4 5 6 
#
# 1 0.010052 -0.004918 -0.004008 0.000000 0.000000 0.000000
# 2 -0.004918 0.018074 -0.004903 0.000000 0.000000 0.000000
# 3 -0.004008 -0.004903 0.017696 0.000000 0.000000 0.000000
# 4 0.000000 0.000000 0.000000 0.036572 0.000000 0.000000
# 5 0.000000 0.000000 0.000000 0.000000 0.050972 0.000000
# 6 0.000000 0.000000 0.000000 0.000000 0.000000 0.029483
#
#
# Mechanical properties :
#
#
# Convention : Reuss Voigt Hill
#
# Bulk Modulus (GPa) = 55.05557 62.49563 58.77560
# Shear Modulus (GPa) = 25.43751 27.26339 26.35045
#
# Velocity S-wave (km/s) = 3.73572 3.86747 3.80216
# Velocity P-wave (km/s) = 6.98657 7.36407 7.17780
#
# Compressibility (1/GPa) = 0.01816347
#
# Stress axis : x y z
#
# Youngs Moduli (GPa) = 99.48741 55.32923 56.51065
#
# Poissons Ratio (x) = 0.27213 0.22648
# Poissons Ratio (y) = 0.48932 0.27705
# Poissons Ratio (z) = 0.39871 0.27126
#
# Static dielectric constant tensor:
#      x y z
#    x 3.567890 0.000000 0.000000 
#    y 0.000000 3.417880 0.000000 
#    z 0.000000 0.000000 3.172030 
# 
# 
# High freq. dielectric constant tensor:
#      x y z
#    x 1.716800 0.000000 0.000000 
#    y 0.000000 1.718800 0.000000 
#    z 0.000000 0.000000 1.674720 
# 
# From -- ./inp_files/37269.got.cif
#   From: 2010.03.12/outbox.cif.g09.slc.cpg/sg67_19_cif.got.tgz:37269.got - 2010.04.10 22:41:39.
