data_PCOD8279005
_publ_section_title
;
Structure prediction by ZEFSAII (Michael W. Deem and Ramdas Pophale) SiO2 
 PCOD8279005
Probable space group: C M M A
;
_chemical_formula_sum "Si O2"
_cell_formula_units_Z 80
_cell_length_a 16.635525
_cell_length_b 29.030194
_cell_length_c 8.614096
_cell_angle_alpha 90.000000
_cell_angle_beta 90.000000
_cell_angle_gamma 90.000000
_cell_volume 4160.027072
_symmetry_space_group_name_H-M "C M M A"
_symmetry_group_IT_number 67
_symmetry_cell_setting 'orthorhombic'
loop_
_space_group_symop_operation_xyz
x,y,z
-x,1/2-y,z
x,-y,-z
-x,1/2+y,-z
-x,-y,-z
x,1/2+y,-z
-x,y,z
x,1/2-y,z
1/2+x,1/2+y,z
1/2-x,-y,z
1/2+x,1/2-y,-z
1/2-x,y,-z
1/2-x,1/2-y,-z
1/2+x,y,-z
1/2-x,1/2+y,z
1/2+x,-y,z
loop_
_atom_site_type_symbol
_atom_site_label
_atom_site_fract_x
_atom_site_fract_y
_atom_site_fract_z
Si Si1 0.341294 0.451608 0.553734
Si Si2 0.260518 0.250000 0.684699
Si Si3 0.179195 0.675791 0.111910
Si Si4 0.405635 0.250000 0.908736
Si Si5 0.409265 0.597586 0.703734
Si Si6 0.907010 0.004267 0.172109
O O1 0.382662 0.500000 0.500000
O O2 0.250000 0.450530 0.500000
O O3 0.382982 0.406041 0.478550
O O4 0.355775 0.455211 0.739737
O O5 0.250000 0.250000 0.500000
O O6 0.215470 0.294571 0.748647
O O7 0.352919 0.250000 0.748950
O O8 0.141270 0.631513 0.190840
O O9 0.250000 0.658696 0.000000
O O10 0.115038 0.705040 0.011775
O O11 0.500000 0.250000 0.865248
O O12 0.500000 0.614684 0.714991
O O13 0.394164 0.546113 0.759267
O O14 0.000000 0.019632 0.173359
O O15 0.872571 0.000000 0.000000
#
# Coordination Sequence:
#
# PCOD8279005 Si02
#       6
#    16   8  16   8  16  16
#     4   9  18  32  48  70 100 136 177 219 265 310
#     4   9  19  37  57  78 107 138 170 215 274 330
#     4   9  19  34  54  80 108 142 178 215 264 321
#     4   9  17  35  60  80 105 140 178 219 266 322
#     4  10  19  32  52  76 103 136 175 217 261 311
#     4   9  18  33  52  73 101 139 181 223 264 308
#
# _framework density 19.230643000000001
#
# number of rings (size 3 to 8) (size 9 to 14) (size 15 to 20)
#    0.000    2.800    0.000    2.400    0.000    4.800 
#    0.000   12.000    0.000    0.000    0.000    0.000 
#    0.000    0.000    0.000    0.000    0.000    0.000 
#
# Total GULP energy -495530.222784 kJ/mol
# GULP energy per Si atom -12388.255570 kJ/mol
# Density = 1.918687 g / cm^3
# Si number density = 19.230643 Si / 1000 Ang^3
#
#
#
# Elastic Constant Matrix: (Units=GPa)
#
#
# Indices 1 2 3 4 5 6 
#
# 1 128.3985 48.9443 72.1923 0.0000 0.0000 0.0000
# 2 48.9443 59.5754 48.9299 0.0000 0.0000 0.0000
# 3 72.1923 48.9299 169.1662 0.0000 0.0000 0.0000
# 4 0.0000 0.0000 0.0000 29.0606 0.0000 0.0000
# 5 0.0000 0.0000 0.0000 0.0000 26.2280 0.0000
# 6 0.0000 0.0000 0.0000 0.0000 0.0000 20.1271
#
#
#
# Elastic Compliance Matrix: (Units=1/GPa)
#
#
# Indices 1 2 3 4 5 6 
#
# 1 0.012461 -0.007699 -0.003091 0.000000 0.000000 0.000000
# 2 -0.007699 0.026772 -0.004458 0.000000 0.000000 0.000000
# 3 -0.003091 -0.004458 0.008520 0.000000 0.000000 0.000000
# 4 0.000000 0.000000 0.000000 0.034411 0.000000 0.000000
# 5 0.000000 0.000000 0.000000 0.000000 0.038127 0.000000
# 6 0.000000 0.000000 0.000000 0.000000 0.000000 0.049684
#
#
# Mechanical properties :
#
#
# Convention : Reuss Voigt Hill
#
# Bulk Modulus (GPa) = 57.94693 77.47479 67.71086
# Shear Modulus (GPa) = 24.24569 27.55471 25.90020
#
# Velocity S-wave (km/s) = 3.55460 3.78941 3.67388
# Velocity P-wave (km/s) = 6.85893 7.71497 7.29951
#
# Compressibility (1/GPa) = 0.01725717
#
# Stress axis : x y z
#
# Youngs Moduli (GPa) = 80.25209 37.35288 117.37252
#
# Poissons Ratio (x) = 0.28756 0.36279
# Poissons Ratio (y) = 0.61782 0.52326
# Poissons Ratio (z) = 0.24805 0.16652
#
# Static dielectric constant tensor:
#      x y z
#    x 3.432510 0.000000 0.000000 
#    y 0.000000 3.452770 0.000000 
#    z 0.000000 0.000000 3.972790 
# 
# 
# High freq. dielectric constant tensor:
#      x y z
#    x 1.746310 0.000000 0.000000 
#    y 0.000000 1.722300 0.000000 
#    z 0.000000 0.000000 1.754470 
# 
# From -- ./inp_files/10032.got.cif
#   From: 2010.03.12/outbox.cif.g09.slc.cpg/sg67_6_cif.got.tgz:10032.got - 2010.04.10 22:41:39.
