data_PCOD8279529
_publ_section_title
;
Structure prediction by ZEFSAII (Michael W. Deem and Ramdas Pophale) SiO2 
 PCOD8279529
Probable space group: C M M A
;
_chemical_formula_sum "Si O2"
_cell_formula_units_Z 80
_cell_length_a 18.648199
_cell_length_b 9.803437
_cell_length_c 24.369795
_cell_angle_alpha 90.000000
_cell_angle_beta 90.000000
_cell_angle_gamma 90.000000
_cell_volume 4455.199264
_symmetry_space_group_name_H-M "C M M A"
_symmetry_group_IT_number 67
_symmetry_cell_setting 'orthorhombic'
loop_
_space_group_symop_operation_xyz
x,y,z
-x,1/2-y,z
x,-y,-z
-x,1/2+y,-z
-x,-y,-z
x,1/2+y,-z
-x,y,z
x,1/2-y,z
1/2+x,1/2+y,z
1/2-x,-y,z
1/2+x,1/2-y,-z
1/2-x,y,-z
1/2-x,1/2-y,-z
1/2+x,y,-z
1/2-x,1/2+y,z
1/2+x,-y,z
loop_
_atom_site_type_symbol
_atom_site_label
_atom_site_fract_x
_atom_site_fract_y
_atom_site_fract_z
Si Si1 0.180772 0.091345 0.746842
Si Si2 0.835233 0.010229 0.629270
Si Si3 0.836512 0.750000 0.568057
Si Si4 0.916696 0.404829 0.851019
Si Si5 0.165444 0.750000 0.444792
Si Si6 0.085233 0.593347 0.950344
O O1 0.203964 0.250000 0.741143
O O2 0.125190 0.067903 0.795334
O O3 0.250000 0.000000 0.759141
O O4 0.140285 0.042929 0.691310
O O5 0.866852 0.872509 0.604536
O O6 0.750000 0.000000 0.630213
O O7 0.864958 0.120637 0.586990
O O8 0.866811 0.750000 0.506161
O O9 0.751333 0.750000 0.559301
O O10 0.903091 0.250000 0.872853
O O11 0.889713 0.515971 0.895192
O O12 0.000000 0.426430 0.838316
O O13 0.115232 0.750000 0.952118
O O14 0.000000 0.598700 0.953891
O O15 0.115455 0.500000 0.000000
#
# Coordination Sequence:
#
# PCOD8279529 Si02
#       6
#    16  16   8  16   8  16
#     4  10  20  32  48  68  94 130 163 195 236 284
#     4   9  16  25  37  57  84 117 151 188 230 284
#     4   9  16  22  36  56  81 115 150 183 238 278
#     4   9  18  33  51  72  98 126 161 201 236 275
#     4   9  14  24  36  54  83 113 148 187 232 284
#     4   9  16  27  46  73 101 128 157 192 238 283
#
# _framework density 17.956547
#
# number of rings (size 3 to 8) (size 9 to 14) (size 15 to 20)
#    0.000    2.800    1.000    1.200    4.200    5.600 
#    0.000    0.000    0.000    0.600    0.000    4.200 
#    0.000    4.800    0.000    0.000    0.000    0.000 
#
# Total GULP energy -495671.540891 kJ/mol
# GULP energy per Si atom -12391.788522 kJ/mol
# Density = 1.791568 g / cm^3
# Si number density = 17.956547 Si / 1000 Ang^3
#
#
#
# Elastic Constant Matrix: (Units=GPa)
#
#
# Indices 1 2 3 4 5 6 
#
# 1 18.8123 23.6331 29.6101 0.0000 0.0000 0.0000
# 2 23.6331 179.2037 104.2731 0.0000 0.0000 0.0000
# 3 29.6101 104.2731 170.8351 0.0000 0.0000 0.0000
# 4 0.0000 0.0000 0.0000 39.7846 0.0000 0.0000
# 5 0.0000 0.0000 0.0000 0.0000 -24.0339 0.0000
# 6 0.0000 0.0000 0.0000 0.0000 0.0000 11.0952
#
#
#
# Elastic Compliance Matrix: (Units=1/GPa)
#
#
# Indices 1 2 3 4 5 6 
#
# 1 0.074557 -0.003587 -0.010733 0.000000 0.000000 0.000000
# 2 -0.003587 0.008826 -0.004766 0.000000 0.000000 0.000000
# 3 -0.010733 -0.004766 0.010623 0.000000 0.000000 0.000000
# 4 0.000000 0.000000 0.000000 0.025135 0.000000 0.000000
# 5 0.000000 0.000000 0.000000 0.000000 -0.041608 0.000000
# 6 0.000000 0.000000 0.000000 0.000000 0.000000 0.090129
#
#
# Mechanical properties :
#
#
# Convention : Reuss Voigt Hill
#
# Bulk Modulus (GPa) = 17.91025 75.98709 46.94867
# Shear Modulus (GPa) = 22.27720 19.45817 20.86769
#
# Velocity S-wave (km/s) = 3.52606 3.29542 3.41269
# Velocity P-wave (km/s) = 5.15493 7.54246 6.45996
#
# Compressibility (1/GPa) = 0.05583395
#
# Stress axis : x y z
#
# Youngs Moduli (GPa) = 13.41263 113.29859 94.13818
#
# Poissons Ratio (x) = 0.40642 1.01039
# Poissons Ratio (y) = 0.04811 0.44862
# Poissons Ratio (z) = 0.14396 0.53993
#
# Static dielectric constant tensor:
#      x y z
#    x 2.575060 0.000000 0.000000 
#    y 0.000000 3.534490 0.000000 
#    z 0.000000 0.000000 3.543070 
# 
# 
# High freq. dielectric constant tensor:
#      x y z
#    x 1.610330 0.000000 0.000000 
#    y 0.000000 1.715840 0.000000 
#    z 0.000000 0.000000 1.713170 
# 
# From -- ./inp_files/40753.got.cif
#   From: 2010.03.12/outbox.cif.g09.slc.cpg/sg67_21_cif.got.tgz:40753.got - 2010.04.10 22:41:39.
