data_PCOD8279036
_publ_section_title
;
Structure prediction by ZEFSAII (Michael W. Deem and Ramdas Pophale) SiO2 
 PCOD8279036
Probable space group: C M M A
;
_chemical_formula_sum "Si O2"
_cell_formula_units_Z 112
_cell_length_a 23.835454
_cell_length_b 16.862338
_cell_length_c 15.147885
_cell_angle_alpha 90.000000
_cell_angle_beta 90.000000
_cell_angle_gamma 90.000000
_cell_volume 6088.260384
_symmetry_space_group_name_H-M "C M M A"
_symmetry_group_IT_number 67
_symmetry_cell_setting 'orthorhombic'
loop_
_space_group_symop_operation_xyz
x,y,z
-x,1/2-y,z
x,-y,-z
-x,1/2+y,-z
-x,-y,-z
x,1/2+y,-z
-x,y,z
x,1/2-y,z
1/2+x,1/2+y,z
1/2-x,-y,z
1/2+x,1/2-y,-z
1/2-x,y,-z
1/2-x,1/2-y,-z
1/2+x,y,-z
1/2-x,1/2+y,z
1/2+x,-y,z
loop_
_atom_site_type_symbol
_atom_site_label
_atom_site_fract_x
_atom_site_fract_y
_atom_site_fract_z
Si Si1 0.134632 0.839164 0.185609
Si Si2 0.657329 0.341200 0.656369
Si Si3 0.336636 0.341468 0.456981
Si Si4 0.562815 0.047768 0.729761
Si Si5 0.436300 0.378443 0.347510
Si Si6 0.231101 0.090454 0.701647
Si Si7 0.064817 0.540209 0.091856
O O1 0.151183 0.750000 0.156736
O O2 0.088965 0.833505 0.263297
O O3 0.189497 0.886682 0.218774
O O4 0.106015 0.884465 0.103331
O O5 0.640235 0.250000 0.656029
O O6 0.670345 0.371101 0.556987
O O7 0.605832 0.385989 0.700237
O O8 0.713740 0.355506 0.711961
O O9 0.317646 0.250000 0.445902
O O10 0.402224 0.352154 0.433901
O O11 0.298978 0.394890 0.392372
O O12 0.500000 0.082755 0.723484
O O13 0.568956 0.972669 0.665495
O O14 0.576136 0.022248 0.829984
O O15 0.500000 0.351220 0.360572
O O16 0.250000 0.000000 0.709419
O O17 0.000000 0.568780 0.094188
O O18 0.080440 0.500000 0.000000
#
# Coordination Sequence:
#
# PCOD8279036 Si02
#       7
#    16  16  16  16  16  16  16
#     4  10  19  32  53  82 111 136 171 218 265 316
#     4  11  22  35  51  70 100 141 179 218 263 310
#     4  10  21  33  46  71 104 136 176 223 264 306
#     4   9  19  35  53  75 100 131 174 215 259 319
#     4   9  17  30  49  72 102 138 172 212 261 311
#     4  11  21  34  54  76 100 135 178 223 268 314
#     4   9  18  35  59  84 111 140 168 205 257 316
#
# _framework density 18.396059999999999
#
# number of rings (size 3 to 8) (size 9 to 14) (size 15 to 20)
#    0.000    2.143    0.000    6.857    0.000    6.857 
#    0.000    3.571    0.000    6.429    0.000    5.000 
#    0.000    0.000    0.000    0.000    0.000    0.000 
#
# Total GULP energy -694408.971342 kJ/mol
# GULP energy per Si atom -12400.160203 kJ/mol
# Density = 1.835419 g / cm^3
# Si number density = 18.396060 Si / 1000 Ang^3
#
#
#
# Elastic Constant Matrix: (Units=GPa)
#
#
# Indices 1 2 3 4 5 6 
#
# 1 118.8157 55.8187 38.2678 0.0000 0.0000 0.0000
# 2 55.8187 105.7625 50.1732 0.0000 0.0000 0.0000
# 3 38.2678 50.1732 70.2983 0.0000 0.0000 0.0000
# 4 0.0000 0.0000 0.0000 20.2037 0.0000 0.0000
# 5 0.0000 0.0000 0.0000 0.0000 26.4258 0.0000
# 6 0.0000 0.0000 0.0000 0.0000 0.0000 19.5434
#
#
#
# Elastic Compliance Matrix: (Units=1/GPa)
#
#
# Indices 1 2 3 4 5 6 
#
# 1 0.011578 -0.004718 -0.002935 0.000000 0.000000 0.000000
# 2 -0.004718 0.016218 -0.009007 0.000000 0.000000 0.000000
# 3 -0.002935 -0.009007 0.022251 0.000000 0.000000 0.000000
# 4 0.000000 0.000000 0.000000 0.049496 0.000000 0.000000
# 5 0.000000 0.000000 0.000000 0.000000 0.037842 0.000000
# 6 0.000000 0.000000 0.000000 0.000000 0.000000 0.051168
#
#
# Mechanical properties :
#
#
# Convention : Reuss Voigt Hill
#
# Bulk Modulus (GPa) = 59.78319 64.82177 62.30248
# Shear Modulus (GPa) = 21.98288 23.27571 22.62929
#
# Velocity S-wave (km/s) = 3.46059 3.56090 3.51111
# Velocity P-wave (km/s) = 6.96678 7.22634 7.09774
#
# Compressibility (1/GPa) = 0.01672711
#
# Stress axis : x y z
#
# Youngs Moduli (GPa) = 86.36764 61.65972 44.94139
#
# Poissons Ratio (x) = 0.29093 0.13192
# Poissons Ratio (y) = 0.40751 0.40477
# Poissons Ratio (z) = 0.25352 0.55535
#
# Static dielectric constant tensor:
#      x y z
#    x 3.585920 0.000000 0.000000 
#    y 0.000000 3.315380 0.000000 
#    z 0.000000 0.000000 3.201160 
# 
# 
# High freq. dielectric constant tensor:
#      x y z
#    x 1.727010 0.000000 0.000000 
#    y 0.000000 1.709580 0.000000 
#    z 0.000000 0.000000 1.677150 
# 
# From -- ./inp_files/30192.got.cif
#   From: 2010.03.12/outbox.cif.g09.slc.cpg/sg67_16_cif.got.tgz:30192.got - 2010.04.10 22:41:39.
