data_PCOD8279534
_publ_section_title
;
Structure prediction by ZEFSAII (Michael W. Deem and Ramdas Pophale) SiO2 
 PCOD8279534
Probable space group: C M M A
;
_chemical_formula_sum "Si O2"
_cell_formula_units_Z 80
_cell_length_a 9.210423
_cell_length_b 19.262934
_cell_length_c 25.931618
_cell_angle_alpha 90.000000
_cell_angle_beta 90.000000
_cell_angle_gamma 90.000000
_cell_volume 4600.781711
_symmetry_space_group_name_H-M "C M M A"
_symmetry_group_IT_number 67
_symmetry_cell_setting 'orthorhombic'
loop_
_space_group_symop_operation_xyz
x,y,z
-x,1/2-y,z
x,-y,-z
-x,1/2+y,-z
-x,-y,-z
x,1/2+y,-z
-x,y,z
x,1/2-y,z
1/2+x,1/2+y,z
1/2-x,-y,z
1/2+x,1/2-y,-z
1/2-x,y,-z
1/2-x,1/2-y,-z
1/2+x,y,-z
1/2-x,1/2+y,z
1/2+x,-y,z
loop_
_atom_site_type_symbol
_atom_site_label
_atom_site_fract_x
_atom_site_fract_y
_atom_site_fract_z
Si Si1 0.331200 0.169142 0.239106
Si Si2 0.331437 0.927387 0.160868
Si Si3 0.337310 0.667143 0.450748
Si Si4 0.660965 0.832528 0.645730
Si Si5 0.831115 0.073072 0.046567
O O1 0.500000 0.153423 0.228326
O O2 0.297937 0.250000 0.231661
O O3 0.230679 0.128010 0.200213
O O4 0.288794 0.144863 0.297075
O O5 0.500000 0.940946 0.172639
O O6 0.312001 0.894062 0.103442
O O7 0.250000 0.000000 0.167227
O O8 0.500000 0.638441 0.454438
O O9 0.334846 0.750000 0.450406
O O10 0.250000 0.638545 0.500000
O O11 0.268028 0.637566 0.397903
O O12 0.500000 0.861543 0.634268
O O13 0.656612 0.750000 0.643396
O O14 0.000000 0.064289 0.032628
O O15 0.750000 0.000000 0.049082
O O16 0.750000 0.116011 0.000000
#
# Coordination Sequence:
#
# PCOD8279534 Si02
#       5
#    16  16  16  16  16
#     4   9  18  32  49  68  92 124 158 191 231 278
#     4  10  20  32  48  71  97 123 153 191 231 272
#     4   9  15  21  31  49  74 105 140 178 220 264
#     4   8  14  25  39  55  78 109 144 180 219 266
#     4   9  16  26  42  65  90 116 146 182 225 270
#
# _framework density 17.388349000000002
#
# number of rings (size 3 to 8) (size 9 to 14) (size 15 to 20)
#    0.000    3.000    0.000    3.600    0.000    6.000 
#    0.000    2.000    0.000    0.600    0.000    0.000 
#    0.000    0.800    0.000    8.400    0.000   11.600 
#
# Total GULP energy -495627.796987 kJ/mol
# GULP energy per Si atom -12390.694925 kJ/mol
# Density = 1.734877 g / cm^3
# Si number density = 17.388349 Si / 1000 Ang^3
#
#
#
# Elastic Constant Matrix: (Units=GPa)
#
#
# Indices 1 2 3 4 5 6 
#
# 1 151.2778 30.6492 103.2731 0.0000 0.0000 0.0000
# 2 30.6492 24.7577 33.4607 0.0000 0.0000 0.0000
# 3 103.2731 33.4607 172.5521 0.0000 0.0000 0.0000
# 4 0.0000 0.0000 0.0000 141.2809 0.0000 0.0000
# 5 0.0000 0.0000 0.0000 0.0000 38.1136 0.0000
# 6 0.0000 0.0000 0.0000 0.0000 0.0000 18.2167
#
#
#
# Elastic Compliance Matrix: (Units=1/GPa)
#
#
# Indices 1 2 3 4 5 6 
#
# 1 0.012006 -0.006981 -0.005832 0.000000 0.000000 0.000000
# 2 -0.006981 0.058796 -0.007223 0.000000 0.000000 0.000000
# 3 -0.005832 -0.007223 0.010687 0.000000 0.000000 0.000000
# 4 0.000000 0.000000 0.000000 0.007078 0.000000 0.000000
# 5 0.000000 0.000000 0.000000 0.000000 0.026237 0.000000
# 6 0.000000 0.000000 0.000000 0.000000 0.000000 0.054895
#
#
# Mechanical properties :
#
#
# Convention : Reuss Voigt Hill
#
# Bulk Modulus (GPa) = 24.14512 75.92819 50.03666
# Shear Modulus (GPa) = 22.36364 51.60255 36.98309
#
# Velocity S-wave (km/s) = 3.59015 5.45352 4.61682
# Velocity P-wave (km/s) = 5.57688 9.13321 7.56694
#
# Compressibility (1/GPa) = 0.04141623
#
# Stress axis : x y z
#
# Youngs Moduli (GPa) = 83.29169 17.00783 93.57589
#
# Poissons Ratio (x) = 0.11873 0.54573
# Poissons Ratio (y) = 0.58146 0.67594
# Poissons Ratio (z) = 0.48575 0.12285
#
# Static dielectric constant tensor:
#      x y z
#    x 3.420120 0.000000 0.000000 
#    y 0.000000 2.514870 0.000000 
#    z 0.000000 0.000000 3.960190 
# 
# 
# High freq. dielectric constant tensor:
#      x y z
#    x 1.684300 0.000000 0.000000 
#    y 0.000000 1.586570 0.000000 
#    z 0.000000 0.000000 1.697190 
# 
# From -- ./inp_files/43284.got.cif
#   From: 2010.03.12/outbox.cif.g09.slc.cpg/sg67_22_cif.got.tgz:43284.got - 2010.04.10 22:41:39.
