data_PCOD8279830
_publ_section_title
;
Structure prediction by ZEFSAII (Michael W. Deem and Ramdas Pophale) SiO2 
 PCOD8279830
Probable space group: C M M A
;
_chemical_formula_sum "Si O2"
_cell_formula_units_Z 88
_cell_length_a 9.001873
_cell_length_b 29.921884
_cell_length_c 17.865231
_cell_angle_alpha 90.000000
_cell_angle_beta 90.000000
_cell_angle_gamma 90.000000
_cell_volume 4812.053560
_symmetry_space_group_name_H-M "C M M A"
_symmetry_group_IT_number 67
_symmetry_cell_setting 'orthorhombic'
loop_
_space_group_symop_operation_xyz
x,y,z
-x,1/2-y,z
x,-y,-z
-x,1/2+y,-z
-x,-y,-z
x,1/2+y,-z
-x,y,z
x,1/2-y,z
1/2+x,1/2+y,z
1/2-x,-y,z
1/2+x,1/2-y,-z
1/2-x,y,-z
1/2-x,1/2-y,-z
1/2+x,y,-z
1/2-x,1/2+y,z
1/2+x,-y,z
loop_
_atom_site_type_symbol
_atom_site_label
_atom_site_fract_x
_atom_site_fract_y
_atom_site_fract_z
Si Si1 0.173258 0.699556 0.076883
Si Si2 0.670805 0.137835 0.214108
Si Si3 0.671902 0.750000 0.578005
Si Si4 0.328681 0.456641 0.272936
Si Si5 0.171455 0.075103 0.422893
Si Si6 0.167911 0.669012 0.643637
O O1 0.221483 0.750000 0.102456
O O2 0.217782 0.661837 0.137198
O O3 0.000000 0.698554 0.061823
O O4 0.250000 0.685720 0.000000
O O5 0.500000 0.150435 0.235188
O O6 0.687910 0.083914 0.213160
O O7 0.789223 0.154465 0.273669
O O8 0.500000 0.750000 0.562567
O O9 0.750000 0.750000 0.500000
O O10 0.715090 0.793476 0.623428
O O11 0.500000 0.466960 0.288642
O O12 0.250000 0.500000 0.236698
O O13 0.253282 0.447277 0.352973
O O14 0.250000 0.060358 0.500000
O O15 0.182749 0.128573 0.414855
O O16 0.000000 0.059617 0.424245
O O17 0.000000 0.687681 0.643735
#
# Coordination Sequence:
#
# PCOD8279830 Si02
#       6
#    16  16   8  16  16  16
#     4   9  18  33  54  82 114 144 175 208 253 308
#     4   9  19  35  55  79 107 141 175 214 262 314
#     4  12  24  36  50  68  97 136 179 224 268 312
#     4  10  20  35  54  76 103 134 175 220 268 318
#     4  10  20  34  52  73 100 132 170 218 271 321
#     4  10  21  35  51  74 101 133 176 221 264 315
#
# _framework density 18.287410999999999
#
# number of rings (size 3 to 8) (size 9 to 14) (size 15 to 20)
#    0.000    2.182    0.000    3.000    1.273    5.455 
#    0.000    1.818    0.000    0.545    0.000    3.818 
#    0.000    0.000    0.000    0.000    0.000    0.000 
#
# Total GULP energy -545512.610036 kJ/mol
# GULP energy per Si atom -12398.013864 kJ/mol
# Density = 1.824579 g / cm^3
# Si number density = 18.287411 Si / 1000 Ang^3
#
#
#
# Elastic Constant Matrix: (Units=GPa)
#
#
# Indices 1 2 3 4 5 6 
#
# 1 112.7418 49.5921 36.8965 0.0000 0.0000 0.0000
# 2 49.5921 107.9399 49.0732 0.0000 0.0000 0.0000
# 3 36.8965 49.0732 92.8891 0.0000 0.0000 0.0000
# 4 0.0000 0.0000 0.0000 19.7852 0.0000 0.0000
# 5 0.0000 0.0000 0.0000 0.0000 28.6634 0.0000
# 6 0.0000 0.0000 0.0000 0.0000 0.0000 30.1604
#
#
#
# Elastic Compliance Matrix: (Units=1/GPa)
#
#
# Indices 1 2 3 4 5 6 
#
# 1 0.011489 -0.004217 -0.002336 0.000000 0.000000 0.000000
# 2 -0.004217 0.013740 -0.005584 0.000000 0.000000 0.000000
# 3 -0.002336 -0.005584 0.014644 0.000000 0.000000 0.000000
# 4 0.000000 0.000000 0.000000 0.050543 0.000000 0.000000
# 5 0.000000 0.000000 0.000000 0.000000 0.034888 0.000000
# 6 0.000000 0.000000 0.000000 0.000000 0.000000 0.033156
#
#
# Mechanical properties :
#
#
# Convention : Reuss Voigt Hill
#
# Bulk Modulus (GPa) = 64.10429 64.96606 64.53518
# Shear Modulus (GPa) = 26.60525 27.58907 27.09716
#
# Velocity S-wave (km/s) = 3.81837 3.88833 3.85351
# Velocity P-wave (km/s) = 7.38714 7.46733 7.42734
#
# Compressibility (1/GPa) = 0.01559958
#
# Stress axis : x y z
#
# Youngs Moduli (GPa) = 87.03942 72.77785 68.28951
#
# Poissons Ratio (x) = 0.30687 0.15952
# Poissons Ratio (y) = 0.36700 0.38134
# Poissons Ratio (z) = 0.20332 0.40641
#
# Static dielectric constant tensor:
#      x y z
#    x 3.436770 0.000000 0.000000 
#    y 0.000000 3.585290 0.000000 
#    z 0.000000 0.000000 3.156820 
# 
# 
# High freq. dielectric constant tensor:
#      x y z
#    x 1.721700 0.000000 0.000000 
#    y 0.000000 1.713590 0.000000 
#    z 0.000000 0.000000 1.679740 
# 
# From -- ./inp_files/32378.got.cif
#   From: 2010.03.12/outbox.cif.g09.slc.cpg/sg67_17_cif.got.tgz:32378.got - 2010.04.10 22:41:39.
