data_PCOD8279031
_publ_section_title
;
Structure prediction by ZEFSAII (Michael W. Deem and Ramdas Pophale) SiO2 
 PCOD8279031
Probable space group: C M M A
;
_chemical_formula_sum "Si O2"
_cell_formula_units_Z 112
_cell_length_a 17.176299
_cell_length_b 15.299496
_cell_length_c 21.464065
_cell_angle_alpha 90.000000
_cell_angle_beta 90.000000
_cell_angle_gamma 90.000000
_cell_volume 5640.514121
_symmetry_space_group_name_H-M "C M M A"
_symmetry_group_IT_number 67
_symmetry_cell_setting 'orthorhombic'
loop_
_space_group_symop_operation_xyz
x,y,z
-x,1/2-y,z
x,-y,-z
-x,1/2+y,-z
-x,-y,-z
x,1/2+y,-z
-x,y,z
x,1/2-y,z
1/2+x,1/2+y,z
1/2-x,-y,z
1/2+x,1/2-y,-z
1/2-x,y,-z
1/2-x,1/2-y,-z
1/2+x,y,-z
1/2-x,1/2+y,z
1/2+x,-y,z
loop_
_atom_site_type_symbol
_atom_site_label
_atom_site_fract_x
_atom_site_fract_y
_atom_site_fract_z
Si Si1 0.676414 0.848901 0.373085
Si Si2 0.910017 0.600153 0.505548
Si Si3 0.856332 0.848412 0.373452
Si Si4 0.157133 0.999608 0.157350
Si Si5 0.842393 0.152882 0.069801
Si Si6 0.410280 0.492712 0.706390
Si Si7 0.657469 0.652816 0.931103
O O1 0.666688 0.750000 0.347834
O O2 0.640054 0.853882 0.441430
O O3 0.766388 0.875126 0.378180
O O4 0.636671 0.914731 0.325421
O O5 0.883627 0.500000 0.500000
O O6 0.895172 0.649030 0.441140
O O7 0.000000 0.607121 0.524758
O O8 0.866309 0.750000 0.347073
O O9 0.899478 0.915341 0.328210
O O10 0.117704 0.996307 0.223721
O O11 0.126004 0.915848 0.119144
O O12 0.250000 0.000000 0.165008
O O13 0.126220 0.084847 0.120636
O O14 0.870801 0.250000 0.088818
O O15 0.749953 0.149066 0.068137
O O16 0.873433 0.129101 0.000490
O O17 0.500000 0.466254 0.704261
O O18 0.628966 0.750000 0.912247
#
# Coordination Sequence:
#
# PCOD8279031 Si02
#       7
#    16  16  16  16  16  16  16
#     4  11  24  42  65  90 115 149 195 245 293 340
#     4  11  22  37  62  95 126 155 184 227 289 351
#     4  11  24  42  65  90 115 149 195 245 293 340
#     4  10  19  32  53  79 108 145 188 233 281 333
#     4   8  14  26  48  80 112 139 175 228 284 333
#     4  12  26  42  58  81 116 159 199 239 290 346
#     4   8  14  26  48  80 112 139 175 228 284 333
#
# _framework density 19.856345999999998
#
# number of rings (size 3 to 8) (size 9 to 14) (size 15 to 20)
#    0.000    1.857    1.429    4.286    0.000    7.429 
#    0.000    2.857    0.000    1.714    0.000    2.000 
#    0.000    0.000    0.000    0.000    0.000    0.000 
#
# Total GULP energy -694444.969271 kJ/mol
# GULP energy per Si atom -12400.803023 kJ/mol
# Density = 1.981115 g / cm^3
# Si number density = 19.856346 Si / 1000 Ang^3
#
#
#
# Elastic Constant Matrix: (Units=GPa)
#
#
# Indices 1 2 3 4 5 6 
#
# 1 44.3582 14.8960 9.3656 0.0000 0.0000 0.0000
# 2 14.8960 115.6494 54.9339 0.0000 0.0000 0.0000
# 3 9.3656 54.9339 132.7020 0.0000 0.0000 0.0000
# 4 0.0000 0.0000 0.0000 -18.2332 0.0000 0.0000
# 5 0.0000 0.0000 0.0000 0.0000 -82.4185 0.0000
# 6 0.0000 0.0000 0.0000 0.0000 0.0000 14.6065
#
#
#
# Elastic Compliance Matrix: (Units=1/GPa)
#
#
# Indices 1 2 3 4 5 6 
#
# 1 0.023590 -0.002798 -0.000507 0.000000 0.000000 0.000000
# 2 -0.002798 0.011095 -0.004396 0.000000 0.000000 0.000000
# 3 -0.000507 -0.004396 0.009391 0.000000 0.000000 0.000000
# 4 0.000000 0.000000 0.000000 -0.054845 0.000000 0.000000
# 5 0.000000 0.000000 0.000000 0.000000 -0.012133 0.000000
# 6 0.000000 0.000000 0.000000 0.000000 0.000000 0.068463
#
#
# Mechanical properties :
#
#
# Convention : Reuss Voigt Hill
#
# Bulk Modulus (GPa) = 34.87199 50.12227 42.49713
# Shear Modulus (GPa) = 70.90207 -2.97477 33.96365
#
# Velocity S-wave (km/s) = 5.98206 -1.22532 4.14027
# Velocity P-wave (km/s) = 8.08168 4.82653 6.65616
#
# Compressibility (1/GPa) = 0.02867631
#
# Stress axis : x y z
#
# Youngs Moduli (GPa) = 42.39036 90.13012 106.48463
#
# Poissons Ratio (x) = 0.25217 0.05396
# Poissons Ratio (y) = 0.11860 0.46805
# Poissons Ratio (z) = 0.02148 0.39617
#
# Static dielectric constant tensor:
#      x y z
#    x 3.340980 0.000000 0.000000 
#    y 0.000000 3.967020 0.000000 
#    z 0.000000 0.000000 3.638460 
# 
# 
# High freq. dielectric constant tensor:
#      x y z
#    x 1.746880 0.000000 0.000000 
#    y 0.000000 1.791120 0.000000 
#    z 0.000000 0.000000 1.771650 
# 
# From -- ./inp_files/41939.got.cif
#   From: 2010.03.12/outbox.cif.g09.slc.cpg/sg67_21_cif.got.tgz:41939.got - 2010.04.10 22:41:39.
