data_PCOD8279715
_publ_section_title
;
Structure prediction by ZEFSAII (Michael W. Deem and Ramdas Pophale) SiO2 
 PCOD8279715
Probable space group: C M M A
;
_chemical_formula_sum "Si O2"
_cell_formula_units_Z 96
_cell_length_a 18.613812
_cell_length_b 8.866162
_cell_length_c 31.019730
_cell_angle_alpha 90.000000
_cell_angle_beta 90.000000
_cell_angle_gamma 90.000000
_cell_volume 5119.281354
_symmetry_space_group_name_H-M "C M M A"
_symmetry_group_IT_number 67
_symmetry_cell_setting 'orthorhombic'
loop_
_space_group_symop_operation_xyz
x,y,z
-x,1/2-y,z
x,-y,-z
-x,1/2+y,-z
-x,-y,-z
x,1/2+y,-z
-x,y,z
x,1/2-y,z
1/2+x,1/2+y,z
1/2-x,-y,z
1/2+x,1/2-y,-z
1/2-x,y,-z
1/2-x,1/2-y,-z
1/2+x,y,-z
1/2-x,1/2+y,z
1/2+x,-y,z
loop_
_atom_site_type_symbol
_atom_site_label
_atom_site_fract_x
_atom_site_fract_y
_atom_site_fract_z
Si Si1 0.827976 0.071225 0.125766
Si Si2 0.584510 0.577810 0.289973
Si Si3 0.415925 0.925554 0.798299
Si Si4 0.581670 0.072143 0.955955
Si Si5 0.172311 0.073847 0.635699
Si Si6 0.827253 0.924371 0.459555
O O1 0.821384 0.250000 0.126871
O O2 0.868834 0.014497 0.082965
O O3 0.750000 0.000000 0.126563
O O4 0.872849 0.018646 0.166610
O O5 0.500000 0.567303 0.295972
O O6 0.610205 0.750000 0.284726
O O7 0.609441 0.484607 0.248196
O O8 0.618475 0.504722 0.331895
O O9 0.500000 0.956675 0.805435
O O10 0.397013 0.750000 0.802027
O O11 0.500000 0.018533 0.946980
O O12 0.585617 0.250000 0.960791
O O13 0.611230 0.000000 0.000000
O O14 0.179551 0.250000 0.646441
O O15 0.138172 0.049806 0.587712
O O16 0.250000 0.000000 0.640175
O O17 0.819021 0.750000 0.469922
O O18 0.870918 0.000000 0.500000
O O19 0.750000 0.000000 0.457782
#
# Coordination Sequence:
#
# PCOD8279715 Si02
#       6
#    16  16  16  16  16  16
#     4  11  23  38  56  81 114 147 181 222 269 318
#     4  10  21  37  57  80 106 138 175 216 264 317
#     4  10  21  38  60  83 106 136 176 219 263 316
#     4   9  19  36  58  82 108 142 183 225 267 313
#     4  10  20  33  51  77 107 138 174 217 264 313
#     4   9  16  26  43  68  98 132 169 211 257 306
#
# _framework density 18.752631000000001
#
# number of rings (size 3 to 8) (size 9 to 14) (size 15 to 20)
#    0.000    2.167    0.000    3.500    0.000    7.000 
#    0.000    6.667    0.000    0.500    0.000    0.000 
#    0.000    0.000    0.000    0.000    0.000    0.000 
#
# Total GULP energy -595120.685734 kJ/mol
# GULP energy per Si atom -12398.347619 kJ/mol
# Density = 1.870995 g / cm^3
# Si number density = 18.752631 Si / 1000 Ang^3
#
#
#
# Elastic Constant Matrix: (Units=GPa)
#
#
# Indices 1 2 3 4 5 6 
#
# 1 44.2107 38.6249 55.0867 0.0000 0.0000 0.0000
# 2 38.6249 94.5860 56.9956 0.0000 0.0000 0.0000
# 3 55.0867 56.9956 160.8518 0.0000 0.0000 0.0000
# 4 0.0000 0.0000 0.0000 39.3464 0.0000 0.0000
# 5 0.0000 0.0000 0.0000 0.0000 30.9952 0.0000
# 6 0.0000 0.0000 0.0000 0.0000 0.0000 12.1490
#
#
#
# Elastic Compliance Matrix: (Units=1/GPa)
#
#
# Indices 1 2 3 4 5 6 
#
# 1 0.048928 -0.012566 -0.012304 0.000000 0.000000 0.000000
# 2 -0.012566 0.016670 -0.001603 0.000000 0.000000 0.000000
# 3 -0.012304 -0.001603 0.010999 0.000000 0.000000 0.000000
# 4 0.000000 0.000000 0.000000 0.025415 0.000000 0.000000
# 5 0.000000 0.000000 0.000000 0.000000 0.032263 0.000000
# 6 0.000000 0.000000 0.000000 0.000000 0.000000 0.082311
#
#
# Mechanical properties :
#
#
# Convention : Reuss Voigt Hill
#
# Bulk Modulus (GPa) = 42.28269 66.78478 54.53374
# Shear Modulus (GPa) = 18.02350 26.42754 22.22552
#
# Velocity S-wave (km/s) = 3.10355 3.75810 3.44640
# Velocity P-wave (km/s) = 5.95309 7.38390 6.70676
#
# Compressibility (1/GPa) = 0.02365034
#
# Stress axis : x y z
#
# Youngs Moduli (GPa) = 20.43829 59.98810 90.92078
#
# Poissons Ratio (x) = 0.75382 1.11865
# Poissons Ratio (y) = 0.25683 0.14577
# Poissons Ratio (z) = 0.25146 0.09618
#
# Static dielectric constant tensor:
#      x y z
#    x 3.194730 0.000000 0.000000 
#    y 0.000000 3.589560 0.000000 
#    z 0.000000 0.000000 4.021560 
# 
# 
# High freq. dielectric constant tensor:
#      x y z
#    x 1.696150 0.000000 0.000000 
#    y 0.000000 1.743380 0.000000 
#    z 0.000000 0.000000 1.751070 
# 
# From -- ./inp_files/44594.got.cif
#   From: 2010.03.12/outbox.cif.g09.slc.cpg/sg67_23_cif.got.tgz:44594.got - 2010.04.10 22:41:39.
