data_PCOD8279974
_publ_section_title
;
Structure prediction by ZEFSAII (Michael W. Deem and Ramdas Pophale) SiO2 
 PCOD8279974
Probable space group: C M M A
;
_chemical_formula_sum "Si O2"
_cell_formula_units_Z 80
_cell_length_a 18.150039
_cell_length_b 8.742875
_cell_length_c 25.787766
_cell_angle_alpha 90.000000
_cell_angle_beta 90.000000
_cell_angle_gamma 90.000000
_cell_volume 4092.093539
_symmetry_space_group_name_H-M "C M M A"
_symmetry_group_IT_number 67
_symmetry_cell_setting 'orthorhombic'
loop_
_space_group_symop_operation_xyz
x,y,z
-x,1/2-y,z
x,-y,-z
-x,1/2+y,-z
-x,-y,-z
x,1/2+y,-z
-x,y,z
x,1/2-y,z
1/2+x,1/2+y,z
1/2-x,-y,z
1/2+x,1/2-y,-z
1/2-x,y,-z
1/2-x,1/2-y,-z
1/2+x,y,-z
1/2-x,1/2+y,z
1/2+x,-y,z
loop_
_atom_site_type_symbol
_atom_site_label
_atom_site_fract_x
_atom_site_fract_y
_atom_site_fract_z
Si Si1 0.584591 0.929786 0.054972
Si Si2 0.170545 0.569708 0.149535
Si Si3 0.829794 0.573424 0.450744
Si Si4 0.913112 0.074793 0.242992
Si Si5 0.830775 0.929248 0.336124
O O1 0.500000 0.969098 0.068756
O O2 0.597961 0.750000 0.053254
O O3 0.637307 0.002860 0.097146
O O4 0.606840 0.000000 0.000000
O O5 0.176937 0.750000 0.144084
O O6 0.250000 0.500000 0.160238
O O7 0.119121 0.528596 0.197589
O O8 0.874370 0.500000 0.500000
O O9 0.821998 0.750000 0.462494
O O10 0.750000 0.500000 0.448947
O O11 0.864968 0.544623 0.393962
O O12 0.887926 0.250000 0.235163
O O13 0.000000 0.059545 0.241070
O O14 0.886189 0.013809 0.298097
O O15 0.825703 0.750000 0.322882
O O16 0.750000 0.000000 0.330073
#
# Coordination Sequence:
#
# PCOD8279974 Si02
#       5
#    16  16  16  16  16
#     4  10  21  39  63  91 123 157 194 234 277 329
#     4  12  25  41  62  87 117 151 189 234 283 333
#     4   9  16  26  44  72 105 140 177 220 269 322
#     4  11  24  41  60  82 110 145 185 230 281 337
#     4  10  20  34  54  81 112 145 183 228 277 329
#
# _framework density 19.549894999999999
#
# number of rings (size 3 to 8) (size 9 to 14) (size 15 to 20)
#    0.000    1.600    0.000    6.000    0.000    8.000 
#    0.000    2.000    0.000    0.600    0.000    0.000 
#    0.000    0.000    0.000    0.000    0.000    0.000 
#
# Total GULP energy -495965.676324 kJ/mol
# GULP energy per Si atom -12399.141908 kJ/mol
# Density = 1.950540 g / cm^3
# Si number density = 19.549895 Si / 1000 Ang^3
#
#
#
# Elastic Constant Matrix: (Units=GPa)
#
#
# Indices 1 2 3 4 5 6 
#
# 1 60.0290 34.2939 41.4668 0.0000 0.0000 0.0000
# 2 34.2939 107.3236 52.6231 0.0000 0.0000 0.0000
# 3 41.4668 52.6231 136.3127 0.0000 0.0000 0.0000
# 4 0.0000 0.0000 0.0000 43.8081 0.0000 0.0000
# 5 0.0000 0.0000 0.0000 0.0000 -69.9593 0.0000
# 6 0.0000 0.0000 0.0000 0.0000 0.0000 27.4838
#
#
#
# Elastic Compliance Matrix: (Units=1/GPa)
#
#
# Indices 1 2 3 4 5 6 
#
# 1 0.022951 -0.004823 -0.005120 0.000000 0.000000 0.000000
# 2 -0.004823 0.012507 -0.003361 0.000000 0.000000 0.000000
# 3 -0.005120 -0.003361 0.010191 0.000000 0.000000 0.000000
# 4 0.000000 0.000000 0.000000 0.022827 0.000000 0.000000
# 5 0.000000 0.000000 0.000000 0.000000 -0.014294 0.000000
# 6 0.000000 0.000000 0.000000 0.000000 0.000000 0.036385
#
#
# Mechanical properties :
#
#
# Convention : Reuss Voigt Hill
#
# Bulk Modulus (GPa) = 52.51933 62.27034 57.39484
# Shear Modulus (GPa) = 40.47896 11.95196 26.21546
#
# Velocity S-wave (km/s) = 4.55526 2.47525 3.66587
# Velocity P-wave (km/s) = 7.38849 6.33169 6.88041
#
# Compressibility (1/GPa) = 0.01904061
#
# Stress axis : x y z
#
# Youngs Moduli (GPa) = 43.57172 79.95654 98.12609
#
# Poissons Ratio (x) = 0.38566 0.50237
# Poissons Ratio (y) = 0.21016 0.32980
# Poissons Ratio (z) = 0.22307 0.26873
#
# Static dielectric constant tensor:
#      x y z
#    x 3.325300 0.000000 0.000000 
#    y 0.000000 3.813200 0.000000 
#    z 0.000000 0.000000 4.259200 
# 
# 
# High freq. dielectric constant tensor:
#      x y z
#    x 1.729550 0.000000 0.000000 
#    y 0.000000 1.783000 0.000000 
#    z 0.000000 0.000000 1.788450 
# 
# From -- ./inp_files/44424.got.cif
#   From: 2010.03.12/outbox.cif.g09.slc.cpg/sg67_23_cif.got.tgz:44424.got - 2010.04.10 22:41:39.
