data_PCOD8279372
_publ_section_title
;
Structure prediction by ZEFSAII (Michael W. Deem and Ramdas Pophale) SiO2 
 PCOD8279372
Probable space group: C M M A
;
_chemical_formula_sum "Si O2"
_cell_formula_units_Z 80
_cell_length_a 23.896205
_cell_length_b 18.440471
_cell_length_c 9.803689
_cell_angle_alpha 90.000000
_cell_angle_beta 90.000000
_cell_angle_gamma 90.000000
_cell_volume 4320.066883
_symmetry_space_group_name_H-M "C M M A"
_symmetry_group_IT_number 67
_symmetry_cell_setting 'orthorhombic'
loop_
_space_group_symop_operation_xyz
x,y,z
-x,1/2-y,z
x,-y,-z
-x,1/2+y,-z
-x,-y,-z
x,1/2+y,-z
-x,y,z
x,1/2-y,z
1/2+x,1/2+y,z
1/2-x,-y,z
1/2+x,1/2-y,-z
1/2-x,y,-z
1/2-x,1/2-y,-z
1/2+x,y,-z
1/2-x,1/2+y,z
1/2+x,-y,z
loop_
_atom_site_type_symbol
_atom_site_label
_atom_site_fract_x
_atom_site_fract_y
_atom_site_fract_z
Si Si1 0.500000 0.985951 0.842335
Si Si2 0.000000 0.835723 0.301905
Si Si3 0.388542 0.888377 0.567202
Si Si4 0.774705 0.428662 0.152169
Si Si5 0.224589 0.668902 0.367646
Si Si6 0.612926 0.961685 0.286227
O O1 0.500000 0.898004 0.816972
O O2 0.552749 0.028308 0.781268
O O3 0.500000 0.000000 0.000000
O O4 0.946928 0.851661 0.395682
O O5 0.000000 0.750000 0.251576
O O6 0.342153 0.832318 0.619364
O O7 0.388820 0.900677 0.404239
O O8 0.372365 0.961845 0.645653
O O9 0.750000 0.500000 0.224292
O O10 0.749345 0.360561 0.228005
O O11 0.842285 0.435731 0.170031
O O12 0.750000 0.423993 0.000000
O O13 0.246727 0.750000 0.367748
O O14 0.250000 0.627071 0.500000
#
# Coordination Sequence:
#
# PCOD8279372 Si02
#       6
#     8   8  16  16  16  16
#     4  10  23  37  61  87 117 158 203 244 289 357
#     4  10  21  37  59  87 118 152 193 250 304 346
#     4  10  19  35  60  84 114 148 193 248 296 347
#     4  11  23  36  59  86 119 155 199 243 296 353
#     4  11  22  36  56  84 116 155 197 239 294 354
#     4  10  20  36  58  86 113 148 196 247 297 341
#
# _framework density 18.518232000000001
#
# number of rings (size 3 to 8) (size 9 to 14) (size 15 to 20)
#    0.000    1.600    4.000    1.200    2.800    3.200 
#    0.000    0.000    0.000    4.800    0.000    0.000 
#    0.000    0.000    0.000    0.000    0.000    0.000 
#
# Total GULP energy -495595.598868 kJ/mol
# GULP energy per Si atom -12389.889972 kJ/mol
# Density = 1.847608 g / cm^3
# Si number density = 18.518232 Si / 1000 Ang^3
#
#
#
# Elastic Constant Matrix: (Units=GPa)
#
#
# Indices 1 2 3 4 5 6 
#
# 1 155.8256 38.8881 61.6920 0.0000 0.0000 0.0000
# 2 38.8881 83.8669 44.2688 0.0000 0.0000 0.0000
# 3 61.6920 44.2688 119.1062 0.0000 0.0000 0.0000
# 4 0.0000 0.0000 0.0000 21.4043 0.0000 0.0000
# 5 0.0000 0.0000 0.0000 0.0000 29.6500 0.0000
# 6 0.0000 0.0000 0.0000 0.0000 0.0000 21.5334
#
#
#
# Elastic Compliance Matrix: (Units=1/GPa)
#
#
# Indices 1 2 3 4 5 6 
#
# 1 0.008327 -0.001971 -0.003580 0.000000 0.000000 0.000000
# 2 -0.001971 0.015301 -0.004666 0.000000 0.000000 0.000000
# 3 -0.003580 -0.004666 0.011984 0.000000 0.000000 0.000000
# 4 0.000000 0.000000 0.000000 0.046720 0.000000 0.000000
# 5 0.000000 0.000000 0.000000 0.000000 0.033727 0.000000
# 6 0.000000 0.000000 0.000000 0.000000 0.000000 0.046440
#
#
# Mechanical properties :
#
#
# Convention : Reuss Voigt Hill
#
# Bulk Modulus (GPa) = 65.88843 72.05519 68.97181
# Shear Modulus (GPa) = 26.59694 28.78085 27.68890
#
# Velocity S-wave (km/s) = 3.79391 3.94660 3.87101
# Velocity P-wave (km/s) = 7.40603 7.73061 7.57006
#
# Compressibility (1/GPa) = 0.01517717
#
# Stress axis : x y z
#
# Youngs Moduli (GPa) = 120.09381 65.35730 83.44124
#
# Poissons Ratio (x) = 0.12883 0.29874
# Poissons Ratio (y) = 0.23673 0.38932
# Poissons Ratio (z) = 0.42997 0.30495
#
# Static dielectric constant tensor:
#      x y z
#    x 4.638710 0.000000 0.000000 
#    y 0.000000 3.390350 0.000000 
#    z 0.000000 0.000000 3.333810 
# 
# 
# High freq. dielectric constant tensor:
#      x y z
#    x 1.736350 0.000000 0.000000 
#    y 0.000000 1.705330 0.000000 
#    z 0.000000 0.000000 1.708300 
# 
# From -- ./inp_files/13580.got.cif
#   From: 2010.03.12/outbox.cif.g09.slc.cpg/sg67_7_cif.got.tgz:13580.got - 2010.04.10 22:41:39.
