data_PCOD8279702
_publ_section_title
;
Structure prediction by ZEFSAII (Michael W. Deem and Ramdas Pophale) SiO2 
 PCOD8279702
Probable space group: C M M A
;
_chemical_formula_sum "Si O2"
_cell_formula_units_Z 80
_cell_length_a 27.004012
_cell_length_b 8.919934
_cell_length_c 18.633807
_cell_angle_alpha 90.000000
_cell_angle_beta 90.000000
_cell_angle_gamma 90.000000
_cell_volume 4488.399716
_symmetry_space_group_name_H-M "C M M A"
_symmetry_group_IT_number 67
_symmetry_cell_setting 'orthorhombic'
loop_
_space_group_symop_operation_xyz
x,y,z
-x,1/2-y,z
x,-y,-z
-x,1/2+y,-z
-x,-y,-z
x,1/2+y,-z
-x,y,z
x,1/2-y,z
1/2+x,1/2+y,z
1/2-x,-y,z
1/2+x,1/2-y,-z
1/2-x,y,-z
1/2-x,1/2-y,-z
1/2+x,y,-z
1/2-x,1/2+y,z
1/2+x,-y,z
loop_
_atom_site_type_symbol
_atom_site_label
_atom_site_fract_x
_atom_site_fract_y
_atom_site_fract_z
Si Si1 0.556732 0.925965 0.074112
Si Si2 0.055348 0.921692 0.661246
Si Si3 0.299868 0.925384 0.708326
Si Si4 0.601691 0.076403 0.208274
Si Si5 0.349630 0.574237 0.424313
O O1 0.500000 0.969732 0.092053
O O2 0.563395 0.750000 0.066643
O O3 0.592460 0.985039 0.136105
O O4 0.573861 0.000000 0.000000
O O5 0.062656 0.750000 0.686165
O O6 0.093624 0.961452 0.597957
O O7 0.000000 0.950170 0.631691
O O8 0.063864 0.024998 0.730163
O O9 0.292419 0.750000 0.694769
O O10 0.342343 0.956202 0.766786
O O11 0.250000 0.000000 0.739000
O O12 0.312647 0.003154 0.633118
O O13 0.592243 0.250000 0.192941
O O14 0.338494 0.500000 0.500000
O O15 0.339254 0.750000 0.429270
#
# Coordination Sequence:
#
# PCOD8279702 Si02
#       5
#    16  16  16  16  16
#     4  10  20  33  51  77 109 143 175 205 240 285
#     4   9  18  32  49  70  98 134 172 206 244 293
#     4  10  21  37  56  77  99 126 164 208 255 304
#     4  10  20  33  51  76 104 132 165 207 251 296
#     4  10  20  34  51  72 100 131 165 207 253 301
#
# _framework density 17.823723999999999
#
# number of rings (size 3 to 8) (size 9 to 14) (size 15 to 20)
#    0.000    2.200    0.000    3.000    0.000    8.000 
#    0.000    2.000    0.000    0.600    0.000    4.200 
#    0.000    0.000    0.000    0.000    0.000    0.000 
#
# Total GULP energy -496146.881601 kJ/mol
# GULP energy per Si atom -12403.672040 kJ/mol
# Density = 1.778316 g / cm^3
# Si number density = 17.823724 Si / 1000 Ang^3
#
#
#
# Elastic Constant Matrix: (Units=GPa)
#
#
# Indices 1 2 3 4 5 6 
#
# 1 85.7350 38.2408 31.2959 0.0000 0.0000 0.0000
# 2 38.2408 96.3234 55.0826 0.0000 0.0000 0.0000
# 3 31.2959 55.0826 109.9559 0.0000 0.0000 0.0000
# 4 0.0000 0.0000 0.0000 35.1852 0.0000 0.0000
# 5 0.0000 0.0000 0.0000 0.0000 17.5582 0.0000
# 6 0.0000 0.0000 0.0000 0.0000 0.0000 27.8155
#
#
#
# Elastic Compliance Matrix: (Units=1/GPa)
#
#
# Indices 1 2 3 4 5 6 
#
# 1 0.014405 -0.004729 -0.001731 0.000000 0.000000 0.000000
# 2 -0.004729 0.016102 -0.006720 0.000000 0.000000 0.000000
# 3 -0.001731 -0.006720 0.012954 0.000000 0.000000 0.000000
# 4 0.000000 0.000000 0.000000 0.028421 0.000000 0.000000
# 5 0.000000 0.000000 0.000000 0.000000 0.056953 0.000000
# 6 0.000000 0.000000 0.000000 0.000000 0.000000 0.035951
#
#
# Mechanical properties :
#
#
# Convention : Reuss Voigt Hill
#
# Bulk Modulus (GPa) = 58.47878 60.13920 59.30899
# Shear Modulus (GPa) = 25.40034 27.27144 26.33589
#
# Velocity S-wave (km/s) = 3.77913 3.91585 3.84809
# Velocity P-wave (km/s) = 7.20577 7.36610 7.28638
#
# Compressibility (1/GPa) = 0.01710022
#
# Stress axis : x y z
#
# Youngs Moduli (GPa) = 69.42035 62.10319 77.19700
#
# Poissons Ratio (x) = 0.29368 0.13363
# Poissons Ratio (y) = 0.32829 0.51880
# Poissons Ratio (z) = 0.12017 0.41736
#
# Static dielectric constant tensor:
#      x y z
#    x 3.311050 0.000000 0.000000 
#    y 0.000000 3.429030 0.000000 
#    z 0.000000 0.000000 3.159990 
# 
# 
# High freq. dielectric constant tensor:
#      x y z
#    x 1.683730 0.000000 0.000000 
#    y 0.000000 1.706030 0.000000 
#    z 0.000000 0.000000 1.676060 
# 
# From -- ./inp_files/32122.got.cif
#   From: 2010.03.12/outbox.cif.g09.slc.cpg/sg67_17_cif.got.tgz:32122.got - 2010.04.10 22:41:39.
