data_PCOD8279274
_publ_section_title
;
Structure prediction by ZEFSAII (Michael W. Deem and Ramdas Pophale) SiO2 
 PCOD8279274
Probable space group: C M M A
;
_chemical_formula_sum "Si O2"
_cell_formula_units_Z 112
_cell_length_a 20.818892
_cell_length_b 18.459496
_cell_length_c 15.396214
_cell_angle_alpha 90.000000
_cell_angle_beta 90.000000
_cell_angle_gamma 90.000000
_cell_volume 5916.861322
_symmetry_space_group_name_H-M "C M M A"
_symmetry_group_IT_number 67
_symmetry_cell_setting 'orthorhombic'
loop_
_space_group_symop_operation_xyz
x,y,z
-x,1/2-y,z
x,-y,-z
-x,1/2+y,-z
-x,-y,-z
x,1/2+y,-z
-x,y,z
x,1/2-y,z
1/2+x,1/2+y,z
1/2-x,-y,z
1/2+x,1/2-y,-z
1/2-x,y,-z
1/2-x,1/2-y,-z
1/2+x,y,-z
1/2-x,1/2+y,z
1/2+x,-y,z
loop_
_atom_site_type_symbol
_atom_site_label
_atom_site_fract_x
_atom_site_fract_y
_atom_site_fract_z
Si Si1 0.783825 0.166005 0.625207
Si Si2 0.075471 0.536426 0.586329
Si Si3 0.346896 0.834355 0.450233
Si Si4 0.074360 0.977023 0.235160
Si Si5 0.926094 0.436820 0.069339
Si Si6 0.638595 0.167920 0.209295
Si Si7 0.678415 0.167420 0.012536
O O1 0.769240 0.250000 0.618911
O O2 0.714593 0.132364 0.601623
O O3 0.837482 0.148246 0.552654
O O4 0.807144 0.144180 0.721120
O O5 0.105514 0.500000 0.500000
O O6 0.091882 0.621648 0.584566
O O7 0.105745 0.499083 0.672483
O O8 0.000000 0.525957 0.587139
O O9 0.360536 0.750000 0.433017
O O10 0.082714 0.891496 0.215987
O O11 0.000000 0.993019 0.238082
O O12 0.101388 0.028869 0.158847
O O13 0.876871 0.374232 0.040525
O O14 0.000000 0.406874 0.077207
O O15 0.925190 0.500000 0.000000
O O16 0.613055 0.250000 0.229323
O O17 0.667880 0.163967 0.114749
O O18 0.676062 0.250000 0.978481
O O19 0.750000 0.134408 0.000000
#
# Coordination Sequence:
#
# PCOD8279274 Si02
#       7
#    16  16  16  16  16  16  16
#     4   8  16  31  52  78 105 133 170 220 269 309
#     4  10  21  36  52  75 110 142 169 215 273 318
#     4   9  17  33  55  75 100 139 181 217 257 311
#     4  10  21  37  55  79 110 143 180 224 272 321
#     4  10  20  38  59  80 109 146 186 228 274 325
#     4  10  19  34  56  80 106 138 177 222 274 331
#     4  10  22  38  56  83 116 146 180 230 285 333
#
# _framework density 18.928954000000001
#
# number of rings (size 3 to 8) (size 9 to 14) (size 15 to 20)
#    0.000    2.429    1.429    1.714    0.000    2.286 
#    0.000   10.000    0.000    7.714    0.000    0.000 
#    0.000    0.000    0.000    0.000    0.000    0.000 
#
# Total GULP energy -693940.980027 kJ/mol
# GULP energy per Si atom -12391.803215 kJ/mol
# Density = 1.888587 g / cm^3
# Si number density = 18.928954 Si / 1000 Ang^3
#
#
#
# Elastic Constant Matrix: (Units=GPa)
#
#
# Indices 1 2 3 4 5 6 
#
# 1 50.6752 40.4490 33.3998 0.0000 0.0000 0.0000
# 2 40.4490 96.8414 47.2089 0.0000 0.0000 0.0000
# 3 33.3998 47.2089 134.4955 0.0000 0.0000 0.0000
# 4 0.0000 0.0000 0.0000 29.9670 0.0000 0.0000
# 5 0.0000 0.0000 0.0000 0.0000 17.1857 0.0000
# 6 0.0000 0.0000 0.0000 0.0000 0.0000 31.1704
#
#
#
# Elastic Compliance Matrix: (Units=1/GPa)
#
#
# Indices 1 2 3 4 5 6 
#
# 1 0.031151 -0.011148 -0.003823 0.000000 0.000000 0.000000
# 2 -0.011148 0.016447 -0.003005 0.000000 0.000000 0.000000
# 3 -0.003823 -0.003005 0.009439 0.000000 0.000000 0.000000
# 4 0.000000 0.000000 0.000000 0.033370 0.000000 0.000000
# 5 0.000000 0.000000 0.000000 0.000000 0.058188 0.000000
# 6 0.000000 0.000000 0.000000 0.000000 0.000000 0.032082
#
#
# Mechanical properties :
#
#
# Convention : Reuss Voigt Hill
#
# Bulk Modulus (GPa) = 47.42285 58.23640 52.82962
# Shear Modulus (GPa) = 22.35562 26.39492 24.37527
#
# Velocity S-wave (km/s) = 3.44034 3.73824 3.59238
# Velocity P-wave (km/s) = 6.39443 7.03315 6.72138
#
# Compressibility (1/GPa) = 0.02108688
#
# Stress axis : x y z
#
# Youngs Moduli (GPa) = 32.10124 60.80078 105.94068
#
# Poissons Ratio (x) = 0.67779 0.40501
# Poissons Ratio (y) = 0.35786 0.31832
# Poissons Ratio (z) = 0.12272 0.18269
#
# Static dielectric constant tensor:
#      x y z
#    x 3.410330 0.000000 0.000000 
#    y 0.000000 3.393870 0.000000 
#    z 0.000000 0.000000 4.131440 
# 
# 
# High freq. dielectric constant tensor:
#      x y z
#    x 1.713600 0.000000 0.000000 
#    y 0.000000 1.724260 0.000000 
#    z 0.000000 0.000000 1.749330 
# 
# From -- ./inp_files/30151.got.cif
#   From: 2010.03.12/outbox.cif.g09.slc.cpg/sg67_16_cif.got.tgz:30151.got - 2010.04.10 22:41:39.
