data_PCOD8279541
_publ_section_title
;
Structure prediction by ZEFSAII (Michael W. Deem and Ramdas Pophale) SiO2 
 PCOD8279541
Probable space group: C M M A
;
_chemical_formula_sum "Si O2"
_cell_formula_units_Z 96
_cell_length_a 9.129912
_cell_length_b 18.894084
_cell_length_c 30.974473
_cell_angle_alpha 90.000000
_cell_angle_beta 90.000000
_cell_angle_gamma 90.000000
_cell_volume 5343.137610
_symmetry_space_group_name_H-M "C M M A"
_symmetry_group_IT_number 67
_symmetry_cell_setting 'orthorhombic'
loop_
_space_group_symop_operation_xyz
x,y,z
-x,1/2-y,z
x,-y,-z
-x,1/2+y,-z
-x,-y,-z
x,1/2+y,-z
-x,y,z
x,1/2-y,z
1/2+x,1/2+y,z
1/2-x,-y,z
1/2+x,1/2-y,-z
1/2-x,y,-z
1/2-x,1/2-y,-z
1/2+x,y,-z
1/2-x,1/2+y,z
1/2+x,-y,z
loop_
_atom_site_type_symbol
_atom_site_label
_atom_site_fract_x
_atom_site_fract_y
_atom_site_fract_z
Si Si1 0.673631 0.171489 0.798944
Si Si2 0.828559 0.669205 0.956900
Si Si3 0.170581 0.075040 0.539467
Si Si4 0.169688 0.074181 0.634853
Si Si5 0.673752 0.924985 0.123805
Si Si6 0.833919 0.166584 0.297550
O O1 0.500000 0.176842 0.802494
O O2 0.738733 0.250000 0.808265
O O3 0.733605 0.115621 0.833755
O O4 0.717239 0.145948 0.750887
O O5 0.783344 0.750000 0.946399
O O6 0.777416 0.620672 0.917409
O O7 0.000000 0.662816 0.964808
O O8 0.750000 0.641585 0.000000
O O9 0.250000 0.118523 0.500000
O O10 0.193492 0.108635 0.587001
O O11 0.000000 0.066690 0.528508
O O12 0.250000 0.000000 0.541331
O O13 0.226253 0.130209 0.669074
O O14 0.000000 0.059458 0.643227
O O15 0.250000 0.000000 0.640649
O O16 0.500000 0.935217 0.125538
O O17 0.750000 0.000000 0.121073
O O18 0.822686 0.250000 0.303923
O O19 0.000000 0.140825 0.305781
#
# Coordination Sequence:
#
# PCOD8279541 Si02
#       6
#    16  16  16  16  16  16
#     4   8  15  31  54  74  92 121 163 203 236 280
#     4   9  18  33  53  74  95 125 165 203 238 279
#     4   9  16  26  42  65  92 123 158 197 240 285
#     4  10  20  32  48  72 101 131 163 201 245 292
#     4  10  20  33  50  73 101 130 159 195 241 289
#     4   9  18  33  53  75  98 127 163 202 246 295
#
# _framework density 17.966971000000001
#
# number of rings (size 3 to 8) (size 9 to 14) (size 15 to 20)
#    0.000    2.833    0.000    3.000    0.000    6.000 
#    0.000    4.167    0.000    3.000    0.000    0.000 
#    0.000    0.000    0.000    0.000    0.000    0.000 
#
# Total GULP energy -594919.539101 kJ/mol
# GULP energy per Si atom -12394.157065 kJ/mol
# Density = 1.792608 g / cm^3
# Si number density = 17.966971 Si / 1000 Ang^3
#
#
#
# Elastic Constant Matrix: (Units=GPa)
#
#
# Indices 1 2 3 4 5 6 
#
# 1 73.0583 37.7239 65.1045 0.0000 0.0000 0.0000
# 2 37.7239 77.5804 76.2282 0.0000 0.0000 0.0000
# 3 65.1045 76.2282 178.2846 0.0000 0.0000 0.0000
# 4 0.0000 0.0000 0.0000 9.3026 0.0000 0.0000
# 5 0.0000 0.0000 0.0000 0.0000 25.8552 0.0000
# 6 0.0000 0.0000 0.0000 0.0000 0.0000 27.1457
#
#
#
# Elastic Compliance Matrix: (Units=1/GPa)
#
#
# Indices 1 2 3 4 5 6 
#
# 1 0.021226 -0.004665 -0.005757 0.000000 0.000000 0.000000
# 2 -0.004665 0.023254 -0.008239 0.000000 0.000000 0.000000
# 3 -0.005757 -0.008239 0.011234 0.000000 0.000000 0.000000
# 4 0.000000 0.000000 0.000000 0.107497 0.000000 0.000000
# 5 0.000000 0.000000 0.000000 0.000000 0.038677 0.000000
# 6 0.000000 0.000000 0.000000 0.000000 0.000000 0.036838
#
#
# Mechanical properties :
#
#
# Convention : Reuss Voigt Hill
#
# Bulk Modulus (GPa) = 54.36980 76.33737 65.35359
# Shear Modulus (GPa) = 17.71931 22.45181 20.08556
#
# Velocity S-wave (km/s) = 3.14381 3.53883 3.34715
# Velocity P-wave (km/s) = 6.59581 7.69919 7.16876
#
# Compressibility (1/GPa) = 0.01839256
#
# Stress axis : x y z
#
# Youngs Moduli (GPa) = 47.11094 43.00423 89.01713
#
# Poissons Ratio (x) = 0.20062 0.51244
# Poissons Ratio (y) = 0.21978 0.73339
# Poissons Ratio (z) = 0.27120 0.35430
#
# Static dielectric constant tensor:
#      x y z
#    x 3.182970 0.000000 0.000000 
#    y 0.000000 3.099940 0.000000 
#    z 0.000000 0.000000 3.997440 
# 
# 
# High freq. dielectric constant tensor:
#      x y z
#    x 1.679710 0.000000 0.000000 
#    y 0.000000 1.665860 0.000000 
#    z 0.000000 0.000000 1.717670 
# 
# From -- ./inp_files/43498.got.cif
#   From: 2010.03.12/outbox.cif.g09.slc.cpg/sg67_22_cif.got.tgz:43498.got - 2010.04.10 22:41:39.
