data_PCOD8279041
_publ_section_title
;
Structure prediction by ZEFSAII (Michael W. Deem and Ramdas Pophale) SiO2 
 PCOD8279041
Probable space group: C M M A
;
_chemical_formula_sum "Si O2"
_cell_formula_units_Z 96
_cell_length_a 18.953132
_cell_length_b 16.649149
_cell_length_c 17.711271
_cell_angle_alpha 90.000000
_cell_angle_beta 90.000000
_cell_angle_gamma 90.000000
_cell_volume 5588.853884
_symmetry_space_group_name_H-M "C M M A"
_symmetry_group_IT_number 67
_symmetry_cell_setting 'orthorhombic'
loop_
_space_group_symop_operation_xyz
x,y,z
-x,1/2-y,z
x,-y,-z
-x,1/2+y,-z
-x,-y,-z
x,1/2+y,-z
-x,y,z
x,1/2-y,z
1/2+x,1/2+y,z
1/2-x,-y,z
1/2+x,1/2-y,-z
1/2-x,y,-z
1/2-x,1/2-y,-z
1/2+x,y,-z
1/2-x,1/2+y,z
1/2+x,-y,z
loop_
_atom_site_type_symbol
_atom_site_label
_atom_site_fract_x
_atom_site_fract_y
_atom_site_fract_z
Si Si1 0.417629 0.658502 0.917793
Si Si2 0.078647 0.927425 0.558490
Si Si3 0.820700 0.157916 0.541389
Si Si4 0.922557 0.572429 0.940640
Si Si5 0.831116 0.021509 0.837039
Si Si6 0.670964 0.025706 0.338021
O O1 0.500000 0.634167 0.900093
O O2 0.403436 0.750000 0.893363
O O3 0.361093 0.602479 0.875105
O O4 0.404137 0.650627 0.008511
O O5 0.116608 0.851714 0.519466
O O6 0.000000 0.901494 0.581400
O O7 0.079144 0.000000 0.500000
O O8 0.119517 0.955548 0.633086
O O9 0.812771 0.250000 0.565600
O O10 0.750000 0.125800 0.500000
O O11 0.839523 0.109130 0.617270
O O12 0.870767 0.556882 0.870415
O O13 0.000000 0.580448 0.904820
O O14 0.918525 0.500000 0.000000
O O15 0.846260 0.035923 0.749474
O O16 0.750000 0.000000 0.853705
O O17 0.750000 0.000000 0.352571
#
# Coordination Sequence:
#
# PCOD8279041 Si02
#       6
#    16  16  16  16  16  16
#     4   9  18  34  56  78 101 136 180 220 259 308
#     4   9  18  31  50  74  97 126 167 212 252 295
#     4  10  19  32  54  75  94 130 171 208 255 308
#     4   8  15  30  50  70  96 134 176 210 244 301
#     4  10  20  31  48  77 110 136 169 213 262 308
#     4  10  19  33  51  72 103 137 173 208 247 308
#
# _framework density 17.177046000000001
#
# number of rings (size 3 to 8) (size 9 to 14) (size 15 to 20)
#    0.000    2.667    1.667    1.500    0.000    5.333 
#    0.000    1.667    0.000    2.000    0.000    2.333 
#    0.000    0.000    0.000    0.000    0.000    0.000 
#
# Total GULP energy -594791.633530 kJ/mol
# GULP energy per Si atom -12391.492365 kJ/mol
# Density = 1.713795 g / cm^3
# Si number density = 17.177046 Si / 1000 Ang^3
#
#
#
# Elastic Constant Matrix: (Units=GPa)
#
#
# Indices 1 2 3 4 5 6 
#
# 1 124.1079 29.7125 70.9684 0.0000 0.0000 0.0000
# 2 29.7125 62.1653 44.7553 0.0000 0.0000 0.0000
# 3 70.9684 44.7553 106.5118 0.0000 0.0000 0.0000
# 4 0.0000 0.0000 0.0000 17.9838 0.0000 0.0000
# 5 0.0000 0.0000 0.0000 0.0000 -828.9001 0.0000
# 6 0.0000 0.0000 0.0000 0.0000 0.0000 23.2483
#
#
#
# Elastic Compliance Matrix: (Units=1/GPa)
#
#
# Indices 1 2 3 4 5 6 
#
# 1 0.013017 0.000032 -0.008687 0.000000 0.000000 0.000000
# 2 0.000032 0.023063 -0.009712 0.000000 0.000000 0.000000
# 3 -0.008687 -0.009712 0.019258 0.000000 0.000000 0.000000
# 4 0.000000 0.000000 0.000000 0.055606 0.000000 0.000000
# 5 0.000000 0.000000 0.000000 0.000000 -0.001206 0.000000
# 6 0.000000 0.000000 0.000000 0.000000 0.000000 0.043014
#
#
# Mechanical properties :
#
#
# Convention : Reuss Voigt Hill
#
# Bulk Modulus (GPa) = 53.75182 64.85085 59.30133
# Shear Modulus (GPa) = 25.55107 -147.71036 -61.07964
#
# Velocity S-wave (km/s) = 3.86101 -9.28329 -5.96960
# Velocity P-wave (km/s) = 7.15802 8.77894 3.59391
#
# Compressibility (1/GPa) = 0.01860402
#
# Stress axis : x y z
#
# Youngs Moduli (GPa) = 76.82163 43.35937 51.92713
#
# Poissons Ratio (x) = -0.00140 0.45109
# Poissons Ratio (y) = -0.00249 0.50434
# Poissons Ratio (z) = 0.66734 0.42113
#
# Static dielectric constant tensor:
#      x y z
#    x 3.362700 0.000000 0.000000 
#    y 0.000000 3.109070 0.000000 
#    z 0.000000 0.000000 3.190350 
# 
# 
# High freq. dielectric constant tensor:
#      x y z
#    x 1.669490 0.000000 0.000000 
#    y 0.000000 1.642760 0.000000 
#    z 0.000000 0.000000 1.649190 
# 
# From -- ./inp_files/34232.got.cif
#   From: 2010.03.12/outbox.cif.g09.slc.cpg/sg67_18_cif.got.tgz:34232.got - 2010.04.10 22:41:39.
