data_PCOD8279160
_publ_section_title
;
Structure prediction by ZEFSAII (Michael W. Deem and Ramdas Pophale) SiO2 
 PCOD8279160
Probable space group: C M M A
;
_chemical_formula_sum "Si O2"
_cell_formula_units_Z 88
_cell_length_a 8.607073
_cell_length_b 16.180373
_cell_length_c 30.079079
_cell_angle_alpha 90.000000
_cell_angle_beta 90.000000
_cell_angle_gamma 90.000000
_cell_volume 4188.982536
_symmetry_space_group_name_H-M "C M M A"
_symmetry_group_IT_number 67
_symmetry_cell_setting 'orthorhombic'
loop_
_space_group_symop_operation_xyz
x,y,z
-x,1/2-y,z
x,-y,-z
-x,1/2+y,-z
-x,-y,-z
x,1/2+y,-z
-x,y,z
x,1/2-y,z
1/2+x,1/2+y,z
1/2-x,-y,z
1/2+x,1/2-y,-z
1/2-x,y,-z
1/2-x,1/2-y,-z
1/2+x,y,-z
1/2-x,1/2+y,z
1/2+x,-y,z
loop_
_atom_site_type_symbol
_atom_site_label
_atom_site_fract_x
_atom_site_fract_y
_atom_site_fract_z
Si Si1 0.170970 0.845900 0.456446
Si Si2 0.184236 0.590902 0.281127
Si Si3 0.184222 0.588181 0.097559
Si Si4 0.316132 0.159125 0.189007
Si Si5 0.684910 0.750000 0.049160
Si Si6 0.681988 0.909566 0.370379
O O1 0.150276 0.750000 0.465833
O O2 0.250000 0.887382 0.500000
O O3 0.278552 0.856411 0.413503
O O4 0.000000 0.886121 0.448965
O O5 0.250000 0.500000 0.282614
O O6 0.253682 0.632755 0.236655
O O7 0.243836 0.634527 0.326444
O O8 0.000000 0.591412 0.280287
O O9 0.250000 0.500000 0.080216
O O10 0.232520 0.597092 0.149517
O O11 0.255751 0.665928 0.071922
O O12 0.000000 0.589809 0.090548
O O13 0.500000 0.161824 0.192821
O O14 0.251233 0.250000 0.177194
O O15 0.500000 0.750000 0.049284
O O16 0.750000 0.750000 0.000000
O O17 0.500000 0.914871 0.363144
O O18 0.750000 0.000000 0.377938
#
# Coordination Sequence:
#
# PCOD8279160 Si02
#       6
#    16  16  16  16   8  16
#     4  10  21  38  59  82 108 139 178 225 282 347
#     4  10  19  33  54  79 111 151 195 240 294 355
#     4  11  22  41  68  98 135 176 220 271 328 388
#     4   9  18  34  58  87 121 162 206 253 307 366
#     4  12  26  46  70 100 134 174 222 274 331 388
#     4  11  22  37  56  79 111 147 189 238 290 346
#
# _framework density 21.007489
#
# number of rings (size 3 to 8) (size 9 to 14) (size 15 to 20)
#    0.000    1.636    0.909    5.727    0.000    2.545 
#    0.000    8.182    0.000    0.000    0.000    0.000 
#    0.000    0.000    0.000    0.000    0.000    0.000 
#
# Total GULP energy -545433.907757 kJ/mol
# GULP energy per Si atom -12396.225176 kJ/mol
# Density = 2.095967 g / cm^3
# Si number density = 21.007489 Si / 1000 Ang^3
#
#
#
# Elastic Constant Matrix: (Units=GPa)
#
#
# Indices 1 2 3 4 5 6 
#
# 1 124.9575 34.6304 51.8047 0.0000 0.0000 0.0000
# 2 34.6304 98.1664 51.1099 0.0000 0.0000 0.0000
# 3 51.8047 51.1099 163.9271 0.0000 0.0000 0.0000
# 4 0.0000 0.0000 0.0000 25.1024 0.0000 0.0000
# 5 0.0000 0.0000 0.0000 0.0000 20.6289 0.0000
# 6 0.0000 0.0000 0.0000 0.0000 0.0000 28.1730
#
#
#
# Elastic Compliance Matrix: (Units=1/GPa)
#
#
# Indices 1 2 3 4 5 6 
#
# 1 0.009575 -0.002152 -0.002355 0.000000 0.000000 0.000000
# 2 -0.002152 0.012644 -0.003262 0.000000 0.000000 0.000000
# 3 -0.002355 -0.003262 0.007862 0.000000 0.000000 0.000000
# 4 0.000000 0.000000 0.000000 0.039837 0.000000 0.000000
# 5 0.000000 0.000000 0.000000 0.000000 0.048476 0.000000
# 6 0.000000 0.000000 0.000000 0.000000 0.000000 0.035495
#
#
# Mechanical properties :
#
#
# Convention : Reuss Voigt Hill
#
# Bulk Modulus (GPa) = 68.76137 73.57122 71.16629
# Shear Modulus (GPa) = 28.69025 31.41458 30.05242
#
# Velocity S-wave (km/s) = 3.69957 3.87123 3.78637
# Velocity P-wave (km/s) = 7.14507 7.42155 7.28462
#
# Compressibility (1/GPa) = 0.01454305
#
# Stress axis : x y z
#
# Youngs Moduli (GPa) = 104.43362 79.08654 127.19887
#
# Poissons Ratio (x) = 0.17017 0.29958
# Poissons Ratio (y) = 0.22471 0.41496
# Poissons Ratio (z) = 0.24596 0.25801
#
# Static dielectric constant tensor:
#      x y z
#    x 3.827020 0.000000 0.000000 
#    y 0.000000 3.706850 0.000000 
#    z 0.000000 0.000000 4.195830 
# 
# 
# High freq. dielectric constant tensor:
#      x y z
#    x 1.818600 0.000000 0.000000 
#    y 0.000000 1.809280 0.000000 
#    z 0.000000 0.000000 1.840470 
# 
# From -- ./inp_files/45238.got.cif
#   From: 2010.03.12/outbox.cif.g09.slc.cpg/sg67_23_cif.got.tgz:45238.got - 2010.04.10 22:41:39.
