data_PCOD8279713
_publ_section_title
;
Structure prediction by ZEFSAII (Michael W. Deem and Ramdas Pophale) SiO2 
 PCOD8279713
Probable space group: C M M A
;
_chemical_formula_sum "Si O2"
_cell_formula_units_Z 80
_cell_length_a 19.307139
_cell_length_b 8.734275
_cell_length_c 25.636727
_cell_angle_alpha 90.000000
_cell_angle_beta 90.000000
_cell_angle_gamma 90.000000
_cell_volume 4323.220270
_symmetry_space_group_name_H-M "C M M A"
_symmetry_group_IT_number 67
_symmetry_cell_setting 'orthorhombic'
loop_
_space_group_symop_operation_xyz
x,y,z
-x,1/2-y,z
x,-y,-z
-x,1/2+y,-z
-x,-y,-z
x,1/2+y,-z
-x,y,z
x,1/2-y,z
1/2+x,1/2+y,z
1/2-x,-y,z
1/2+x,1/2-y,-z
1/2-x,y,-z
1/2-x,1/2-y,-z
1/2+x,y,-z
1/2-x,1/2+y,z
1/2+x,-y,z
loop_
_atom_site_type_symbol
_atom_site_label
_atom_site_fract_x
_atom_site_fract_y
_atom_site_fract_z
Si Si1 0.674075 0.570694 0.335103
Si Si2 0.825031 0.426719 0.450424
Si Si3 0.918754 0.426467 0.139650
Si Si4 0.177000 0.569362 0.055331
Si Si5 0.919897 0.571975 0.247720
O O1 0.678382 0.750000 0.321892
O O2 0.750000 0.500000 0.329340
O O3 0.641979 0.544172 0.393304
O O4 0.622686 0.485795 0.296725
O O5 0.866992 0.500000 0.500000
O O6 0.817755 0.250000 0.462198
O O7 0.750000 0.500000 0.448762
O O8 0.898021 0.250000 0.132263
O O9 0.881198 0.529554 0.097075
O O10 0.894962 0.480302 0.196785
O O11 0.000000 0.453557 0.132259
O O12 0.184504 0.750000 0.049659
O O13 0.250000 0.500000 0.073952
O O14 0.154273 0.500000 0.000000
O O15 0.905708 0.750000 0.237944
O O16 0.000000 0.538689 0.259478
#
# Coordination Sequence:
#
# PCOD8279713 Si02
#       5
#    16  16  16  16  16
#     4  10  20  33  51  77 106 136 173 216 261 310
#     4   9  16  26  43  68  98 131 166 207 255 306
#     4  10  21  38  59  82 108 139 177 219 262 310
#     4  11  22  38  59  83 113 145 179 217 261 312
#     4  10  21  37  56  78 105 138 175 216 264 315
#
# _framework density 18.504724
#
# number of rings (size 3 to 8) (size 9 to 14) (size 15 to 20)
#    0.000    2.000    0.000    5.400    0.000    6.000 
#    0.000    4.000    0.000    0.600    0.000    0.000 
#    0.000    0.000    0.000    0.000    0.000    0.000 
#
# Total GULP energy -495919.225986 kJ/mol
# GULP energy per Si atom -12397.980650 kJ/mol
# Density = 1.846261 g / cm^3
# Si number density = 18.504724 Si / 1000 Ang^3
#
#
#
# Elastic Constant Matrix: (Units=GPa)
#
#
# Indices 1 2 3 4 5 6 
#
# 1 51.2140 38.1236 54.9156 0.0000 0.0000 0.0000
# 2 38.1236 123.3713 55.8740 0.0000 0.0000 0.0000
# 3 54.9156 55.8740 133.1657 0.0000 0.0000 0.0000
# 4 0.0000 0.0000 0.0000 35.1862 0.0000 0.0000
# 5 0.0000 0.0000 0.0000 0.0000 -150.7388 0.0000
# 6 0.0000 0.0000 0.0000 0.0000 0.0000 27.7676
#
#
#
# Elastic Compliance Matrix: (Units=1/GPa)
#
#
# Indices 1 2 3 4 5 6 
#
# 1 0.038035 -0.005741 -0.013277 0.000000 0.000000 0.000000
# 2 -0.005741 0.010874 -0.002195 0.000000 0.000000 0.000000
# 3 -0.013277 -0.002195 0.013905 0.000000 0.000000 0.000000
# 4 0.000000 0.000000 0.000000 0.028420 0.000000 0.000000
# 5 0.000000 0.000000 0.000000 0.000000 -0.006634 0.000000
# 6 0.000000 0.000000 0.000000 0.000000 0.000000 0.036013
#
#
# Mechanical properties :
#
#
# Convention : Reuss Voigt Hill
#
# Bulk Modulus (GPa) = 49.04353 67.28636 58.16494
# Shear Modulus (GPa) = 29.44033 -6.96782 11.23625
#
# Velocity S-wave (km/s) = 3.99301 -1.94258 2.46684
# Velocity P-wave (km/s) = 6.91518 5.60439 6.29400
#
# Compressibility (1/GPa) = 0.02039005
#
# Stress axis : x y z
#
# Youngs Moduli (GPa) = 26.29136 91.96519 71.91404
#
# Poissons Ratio (x) = 0.52794 0.95477
# Poissons Ratio (y) = 0.15093 0.15785
# Poissons Ratio (z) = 0.34906 0.20187
#
# Static dielectric constant tensor:
#      x y z
#    x 3.085510 0.000000 0.000000 
#    y 0.000000 3.605310 0.000000 
#    z 0.000000 0.000000 4.008060 
# 
# 
# High freq. dielectric constant tensor:
#      x y z
#    x 1.681770 0.000000 0.000000 
#    y 0.000000 1.740550 0.000000 
#    z 0.000000 0.000000 1.737900 
# 
# From -- ./inp_files/43270.got.cif
#   From: 2010.03.12/outbox.cif.g09.slc.cpg/sg67_22_cif.got.tgz:43270.got - 2010.04.10 22:41:39.
