data_PCOD8279731
_publ_section_title
;
Structure prediction by ZEFSAII (Michael W. Deem and Ramdas Pophale) SiO2 
 PCOD8279731
Probable space group: C M M A
;
_chemical_formula_sum "Si O2"
_cell_formula_units_Z 104
_cell_length_a 8.948898
_cell_length_b 26.052355
_cell_length_c 22.912581
_cell_angle_alpha 90.000000
_cell_angle_beta 90.000000
_cell_angle_gamma 90.000000
_cell_volume 5341.836100
_symmetry_space_group_name_H-M "C M M A"
_symmetry_group_IT_number 67
_symmetry_cell_setting 'orthorhombic'
loop_
_space_group_symop_operation_xyz
x,y,z
-x,1/2-y,z
x,-y,-z
-x,1/2+y,-z
-x,-y,-z
x,1/2+y,-z
-x,y,z
x,1/2-y,z
1/2+x,1/2+y,z
1/2-x,-y,z
1/2+x,1/2-y,-z
1/2-x,y,-z
1/2-x,1/2-y,-z
1/2+x,y,-z
1/2-x,1/2+y,z
1/2+x,-y,z
loop_
_atom_site_type_symbol
_atom_site_label
_atom_site_fract_x
_atom_site_fract_y
_atom_site_fract_z
Si Si1 0.829295 0.693819 0.829235
Si Si2 0.175017 0.550184 0.113133
Si Si3 0.822251 0.945398 0.646317
Si Si4 0.822918 0.138306 0.563634
Si Si5 0.825223 0.343162 0.940368
Si Si6 0.174319 0.410440 0.225540
Si Si7 0.828690 0.250000 0.560663
O O1 0.804709 0.750000 0.800271
O O2 0.729502 0.691591 0.887132
O O3 0.785805 0.650096 0.782344
O O4 0.000000 0.686113 0.849164
O O5 0.250000 0.500000 0.084687
O O6 0.220046 0.598025 0.072807
O O7 0.234833 0.556848 0.178723
O O8 0.000000 0.542314 0.116509
O O9 0.756794 0.903524 0.602998
O O10 0.773850 0.928382 0.711021
O O11 0.000000 0.948522 0.639194
O O12 0.750000 0.000000 0.631140
O O13 0.750000 0.134867 0.500000
O O14 0.790968 0.195442 0.592295
O O15 0.000000 0.127160 0.559823
O O16 0.000000 0.335872 0.947008
O O17 0.750000 0.324769 0.000000
O O18 0.000000 0.420879 0.215559
O O19 0.750000 0.250000 0.500000
O O20 0.000000 0.250000 0.544223
#
# Coordination Sequence:
#
# PCOD8279731 Si02
#       7
#    16  16  16  16  16  16   8
#     4   9  18  35  58  80 105 138 175 218 268 321
#     4  10  20  33  52  76 101 134 174 218 267 320
#     4  11  23  38  56  83 115 151 191 233 280 332
#     4  10  20  37  60  86 117 152 190 233 279 333
#     4  10  21  35  51  74 104 137 175 217 264 319
#     4   9  19  36  56  79 107 139 178 222 269 324
#     4   8  16  32  56  82 110 144 182 222 269 320
#
# _framework density 19.468959999999999
#
# number of rings (size 3 to 8) (size 9 to 14) (size 15 to 20)
#    0.000    2.308    0.000    2.308    0.000    6.154 
#    1.385    3.077    0.000    0.000    0.000    0.000 
#    0.000    0.000    0.000    0.000    0.000    0.000 
#
# Total GULP energy -644606.010935 kJ/mol
# GULP energy per Si atom -12396.269441 kJ/mol
# Density = 1.942465 g / cm^3
# Si number density = 19.468960 Si / 1000 Ang^3
#
#
#
# Elastic Constant Matrix: (Units=GPa)
#
#
# Indices 1 2 3 4 5 6 
#
# 1 65.6618 36.7660 26.0952 0.0000 0.0000 0.0000
# 2 36.7660 131.4217 26.0804 0.0000 0.0000 0.0000
# 3 26.0952 26.0804 61.6447 0.0000 0.0000 0.0000
# 4 0.0000 0.0000 0.0000 14.6379 0.0000 0.0000
# 5 0.0000 0.0000 0.0000 0.0000 26.9656 0.0000
# 6 0.0000 0.0000 0.0000 0.0000 0.0000 21.2962
#
#
#
# Elastic Compliance Matrix: (Units=1/GPa)
#
#
# Indices 1 2 3 4 5 6 
#
# 1 0.020359 -0.004351 -0.006778 0.000000 0.000000 0.000000
# 2 -0.004351 0.009236 -0.002066 0.000000 0.000000 0.000000
# 3 -0.006778 -0.002066 0.019965 0.000000 0.000000 0.000000
# 4 0.000000 0.000000 0.000000 0.068316 0.000000 0.000000
# 5 0.000000 0.000000 0.000000 0.000000 0.037084 0.000000
# 6 0.000000 0.000000 0.000000 0.000000 0.000000 0.046957
#
#
# Mechanical properties :
#
#
# Convention : Reuss Voigt Hill
#
# Bulk Modulus (GPa) = 43.15551 48.51237 45.83394
# Shear Modulus (GPa) = 21.18375 23.89904 22.54139
#
# Velocity S-wave (km/s) = 3.30218 3.50744 3.40635
# Velocity P-wave (km/s) = 6.06248 6.43232 6.25013
#
# Compressibility (1/GPa) = 0.02317201
#
# Stress axis : x y z
#
# Youngs Moduli (GPa) = 49.11794 108.26992 50.08724
#
# Poissons Ratio (x) = 0.47104 0.33948
# Poissons Ratio (y) = 0.21369 0.10348
# Poissons Ratio (z) = 0.33291 0.22368
#
# Static dielectric constant tensor:
#      x y z
#    x 3.580510 0.000000 0.000000 
#    y 0.000000 3.974960 0.000000 
#    z 0.000000 0.000000 3.288310 
# 
# 
# High freq. dielectric constant tensor:
#      x y z
#    x 1.765030 0.000000 0.000000 
#    y 0.000000 1.778090 0.000000 
#    z 0.000000 0.000000 1.729700 
# 
# From -- ./inp_files/37296.got.cif
#   From: 2010.03.12/outbox.cif.g09.slc.cpg/sg67_19_cif.got.tgz:37296.got - 2010.04.10 22:41:39.
