data_PCOD8279569
_publ_section_title
;
Structure prediction by ZEFSAII (Michael W. Deem and Ramdas Pophale) SiO2 
 PCOD8279569
Probable space group: C M M A
;
_chemical_formula_sum "Si O2"
_cell_formula_units_Z 96
_cell_length_a 18.858367
_cell_length_b 9.099979
_cell_length_c 30.607456
_cell_angle_alpha 90.000000
_cell_angle_beta 90.000000
_cell_angle_gamma 90.000000
_cell_volume 5252.568286
_symmetry_space_group_name_H-M "C M M A"
_symmetry_group_IT_number 67
_symmetry_cell_setting 'orthorhombic'
loop_
_space_group_symop_operation_xyz
x,y,z
-x,1/2-y,z
x,-y,-z
-x,1/2+y,-z
-x,-y,-z
x,1/2+y,-z
-x,y,z
x,1/2-y,z
1/2+x,1/2+y,z
1/2-x,-y,z
1/2+x,1/2-y,-z
1/2-x,y,-z
1/2-x,1/2-y,-z
1/2+x,y,-z
1/2-x,1/2+y,z
1/2+x,-y,z
loop_
_atom_site_type_symbol
_atom_site_label
_atom_site_fract_x
_atom_site_fract_y
_atom_site_fract_z
Si Si1 0.674512 0.921444 0.040184
Si Si2 0.918225 0.419950 0.695973
Si Si3 0.325655 0.575948 0.374250
Si Si4 0.419193 0.422257 0.543777
Si Si5 0.175923 0.919801 0.863644
Si Si6 0.417274 0.084693 0.203699
O O1 0.682494 0.750000 0.029566
O O2 0.640581 0.946570 0.088218
O O3 0.750000 0.000000 0.041976
O O4 0.631168 0.000000 0.000000
O O5 0.904659 0.250000 0.683924
O O6 0.867822 0.524556 0.668296
O O7 0.898491 0.449779 0.746207
O O8 0.000000 0.461187 0.686907
O O9 0.315737 0.750000 0.372084
O O10 0.250000 0.500000 0.376379
O O11 0.370014 0.525929 0.416554
O O12 0.391426 0.500000 0.500000
O O13 0.500000 0.469795 0.554322
O O14 0.413655 0.250000 0.536061
O O15 0.192024 0.750000 0.856615
O O16 0.250000 0.000000 0.857810
O O17 0.121552 0.970777 0.827205
O O18 0.500000 0.065606 0.195800
O O19 0.393362 0.250000 0.191949
#
# Coordination Sequence:
#
# PCOD8279569 Si02
#       6
#    16  16  16  16  16  16
#     4   9  16  26  42  66  95 127 164 205 249 297
#     4   9  19  37  59  80 102 132 172 214 257 309
#     4  11  23  37  54  79 111 143 176 215 260 308
#     4   9  19  36  57  80 105 136 176 218 258 304
#     4  10  20  32  49  75 104 134 169 210 255 304
#     4   9  19  36  56  77 102 133 169 210 257 309
#
# _framework density 18.276772999999999
#
# number of rings (size 3 to 8) (size 9 to 14) (size 15 to 20)
#    0.000    2.500    0.000    3.500    0.000    6.333 
#    0.000    5.000    0.000    0.500    0.000    0.000 
#    0.000    0.000    0.000    0.000    0.000    0.000 
#
# Total GULP energy -595045.581250 kJ/mol
# GULP energy per Si atom -12396.782943 kJ/mol
# Density = 1.823517 g / cm^3
# Si number density = 18.276773 Si / 1000 Ang^3
#
#
#
# Elastic Constant Matrix: (Units=GPa)
#
#
# Indices 1 2 3 4 5 6 
#
# 1 77.0962 48.4194 69.3262 0.0000 0.0000 0.0000
# 2 48.4194 99.0175 71.9611 0.0000 0.0000 0.0000
# 3 69.3262 71.9611 141.6638 0.0000 0.0000 0.0000
# 4 0.0000 0.0000 0.0000 36.1711 0.0000 0.0000
# 5 0.0000 0.0000 0.0000 0.0000 20.2001 0.0000
# 6 0.0000 0.0000 0.0000 0.0000 0.0000 25.6768
#
#
#
# Elastic Compliance Matrix: (Units=1/GPa)
#
#
# Indices 1 2 3 4 5 6 
#
# 1 0.024765 -0.005235 -0.009460 0.000000 0.000000 0.000000
# 2 -0.005235 0.017116 -0.006133 0.000000 0.000000 0.000000
# 3 -0.009460 -0.006133 0.014804 0.000000 0.000000 0.000000
# 4 0.000000 0.000000 0.000000 0.027646 0.000000 0.000000
# 5 0.000000 0.000000 0.000000 0.000000 0.049505 0.000000
# 6 0.000000 0.000000 0.000000 0.000000 0.000000 0.038946
#
#
# Mechanical properties :
#
#
# Convention : Reuss Voigt Hill
#
# Bulk Modulus (GPa) = 66.53592 77.46566 72.00079
# Shear Modulus (GPa) = 22.78450 24.94765 23.86607
#
# Velocity S-wave (km/s) = 3.53461 3.69859 3.61753
# Velocity P-wave (km/s) = 7.28983 7.79206 7.54512
#
# Compressibility (1/GPa) = 0.01502948
#
# Stress axis : x y z
#
# Youngs Moduli (GPa) = 40.37883 58.42492 67.55052
#
# Poissons Ratio (x) = 0.30585 0.63905
# Poissons Ratio (y) = 0.21138 0.41426
# Poissons Ratio (z) = 0.38200 0.35830
#
# Static dielectric constant tensor:
#      x y z
#    x 3.107250 0.000000 0.000000 
#    y 0.000000 3.418520 0.000000 
#    z 0.000000 0.000000 3.849140 
# 
# 
# High freq. dielectric constant tensor:
#      x y z
#    x 1.678990 0.000000 0.000000 
#    y 0.000000 1.715110 0.000000 
#    z 0.000000 0.000000 1.726550 
# 
# From -- ./inp_files/44596.got.cif
#   From: 2010.03.12/outbox.cif.g09.slc.cpg/sg67_23_cif.got.tgz:44596.got - 2010.04.10 22:41:39.
