data_PCOD8279718
_publ_section_title
;
Structure prediction by ZEFSAII (Michael W. Deem and Ramdas Pophale) SiO2 
 PCOD8279718
Probable space group: C M M A
;
_chemical_formula_sum "Si O2"
_cell_formula_units_Z 96
_cell_length_a 18.877315
_cell_length_b 8.790556
_cell_length_c 30.276192
_cell_angle_alpha 90.000000
_cell_angle_beta 90.000000
_cell_angle_gamma 90.000000
_cell_volume 5024.094718
_symmetry_space_group_name_H-M "C M M A"
_symmetry_group_IT_number 67
_symmetry_cell_setting 'orthorhombic'
loop_
_space_group_symop_operation_xyz
x,y,z
-x,1/2-y,z
x,-y,-z
-x,1/2+y,-z
-x,-y,-z
x,1/2+y,-z
-x,y,z
x,1/2-y,z
1/2+x,1/2+y,z
1/2-x,-y,z
1/2+x,1/2-y,-z
1/2-x,y,-z
1/2-x,1/2-y,-z
1/2+x,y,-z
1/2-x,1/2+y,z
1/2+x,-y,z
loop_
_atom_site_type_symbol
_atom_site_label
_atom_site_fract_x
_atom_site_fract_y
_atom_site_fract_z
Si Si1 0.583788 0.577200 0.867192
Si Si2 0.415568 0.078693 0.955925
Si Si3 0.324856 0.568878 0.452950
Si Si4 0.823031 0.427382 0.203866
Si Si5 0.675596 0.929609 0.305507
Si Si6 0.416555 0.426641 0.378266
O O1 0.500000 0.562596 0.865506
O O2 0.609496 0.750000 0.864737
O O3 0.613495 0.507675 0.912803
O O4 0.612684 0.487783 0.825182
O O5 0.500000 0.074104 0.956676
O O6 0.387026 0.250000 0.954445
O O7 0.385110 0.000000 0.000000
O O8 0.346882 0.500000 0.500000
O O9 0.318730 0.750000 0.456387
O O10 0.250000 0.500000 0.437166
O O11 0.384694 0.522869 0.418394
O O12 0.816038 0.250000 0.197241
O O13 0.750000 0.500000 0.187363
O O14 0.838655 0.470032 0.254544
O O15 0.676727 0.750000 0.314518
O O16 0.750000 0.000000 0.321320
O O17 0.612859 0.008560 0.332351
O O18 0.500000 0.451602 0.378327
O O19 0.396251 0.250000 0.383384
#
# Coordination Sequence:
#
# PCOD8279718 Si02
#       6
#    16  16  16  16  16  16
#     4  10  20  33  51  77 108 141 178 221 269 320
#     4   9  16  27  45  70 101 136 175 219 266 316
#     4  11  22  39  63  88 116 149 189 232 273 322
#     4  10  21  37  57  80 107 141 180 223 271 324
#     4  10  21  38  60  83 108 141 183 227 271 323
#     4  11  24  40  58  83 116 151 186 226 275 327
#
# _framework density 19.107918999999999
#
# number of rings (size 3 to 8) (size 9 to 14) (size 15 to 20)
#    0.000    1.833    0.000    5.000    0.000    7.333 
#    0.000    3.333    0.000    0.500    0.000    3.500 
#    0.000    0.000    0.000    0.000    0.000    0.000 
#
# Total GULP energy -595402.456485 kJ/mol
# GULP energy per Si atom -12404.217843 kJ/mol
# Density = 1.906443 g / cm^3
# Si number density = 19.107919 Si / 1000 Ang^3
#
#
#
# Elastic Constant Matrix: (Units=GPa)
#
#
# Indices 1 2 3 4 5 6 
#
# 1 61.4047 43.1935 50.7596 0.0000 0.0000 0.0000
# 2 43.1935 132.9028 63.2965 0.0000 0.0000 0.0000
# 3 50.7596 63.2965 122.2071 0.0000 0.0000 0.0000
# 4 0.0000 0.0000 0.0000 38.7482 0.0000 0.0000
# 5 0.0000 0.0000 0.0000 0.0000 28.5161 0.0000
# 6 0.0000 0.0000 0.0000 0.0000 0.0000 30.6958
#
#
#
# Elastic Compliance Matrix: (Units=1/GPa)
#
#
# Indices 1 2 3 4 5 6 
#
# 1 0.026690 -0.004506 -0.008752 0.000000 0.000000 0.000000
# 2 -0.004506 0.010749 -0.003696 0.000000 0.000000 0.000000
# 3 -0.008752 -0.003696 0.013732 0.000000 0.000000 0.000000
# 4 0.000000 0.000000 0.000000 0.025808 0.000000 0.000000
# 5 0.000000 0.000000 0.000000 0.000000 0.035068 0.000000
# 6 0.000000 0.000000 0.000000 0.000000 0.000000 0.032578
#
#
# Mechanical properties :
#
#
# Convention : Reuss Voigt Hill
#
# Bulk Modulus (GPa) = 57.92565 70.11265 64.01915
# Shear Modulus (GPa) = 27.13178 30.20969 28.67074
#
# Velocity S-wave (km/s) = 3.77228 3.98050 3.87778
# Velocity P-wave (km/s) = 7.02526 7.60910 7.32300
#
# Compressibility (1/GPa) = 0.01726351
#
# Stress axis : x y z
#
# Youngs Moduli (GPa) = 37.46770 93.03288 72.82163
#
# Poissons Ratio (x) = 0.41920 0.63733
# Poissons Ratio (y) = 0.16883 0.26913
# Poissons Ratio (z) = 0.32791 0.34383
#
# Static dielectric constant tensor:
#      x y z
#    x 3.216110 0.000000 0.000000 
#    y 0.000000 3.743370 0.000000 
#    z 0.000000 0.000000 3.640860 
# 
# 
# High freq. dielectric constant tensor:
#      x y z
#    x 1.715200 0.000000 0.000000 
#    y 0.000000 1.764380 0.000000 
#    z 0.000000 0.000000 1.756750 
# 
# From -- ./inp_files/44593.got.cif
#   From: 2010.03.12/outbox.cif.g09.slc.cpg/sg67_23_cif.got.tgz:44593.got - 2010.04.10 22:41:39.
