data_PCOD8279424
_publ_section_title
;
Structure prediction by ZEFSAII (Michael W. Deem and Ramdas Pophale) SiO2 
 PCOD8279424
Probable space group: C M M A
;
_chemical_formula_sum "Si O2"
_cell_formula_units_Z 64
_cell_length_a 16.933479
_cell_length_b 26.643850
_cell_length_c 7.396109
_cell_angle_alpha 90.000000
_cell_angle_beta 90.000000
_cell_angle_gamma 90.000000
_cell_volume 3336.925237
_symmetry_space_group_name_H-M "C M M A"
_symmetry_group_IT_number 67
_symmetry_cell_setting 'orthorhombic'
loop_
_space_group_symop_operation_xyz
x,y,z
-x,1/2-y,z
x,-y,-z
-x,1/2+y,-z
-x,-y,-z
x,1/2+y,-z
-x,y,z
x,1/2-y,z
1/2+x,1/2+y,z
1/2-x,-y,z
1/2+x,1/2-y,-z
1/2-x,y,-z
1/2-x,1/2-y,-z
1/2+x,y,-z
1/2-x,1/2+y,z
1/2+x,-y,z
loop_
_atom_site_type_symbol
_atom_site_label
_atom_site_fract_x
_atom_site_fract_y
_atom_site_fract_z
Si Si1 0.589598 0.868594 0.260492
Si Si2 0.826055 0.895611 0.398966
Si Si3 0.841718 0.442566 0.969862
Si Si4 0.238015 0.192799 0.209757
O O1 0.500000 0.850090 0.240234
O O2 0.602532 0.892282 0.458924
O O3 0.647017 0.820802 0.248090
O O4 0.607189 0.909167 0.105130
O O5 0.750000 0.920575 0.500000
O O6 0.859713 0.929801 0.238503
O O7 0.798515 0.841181 0.323784
O O8 0.864582 0.500000 0.000000
O O9 0.750000 0.431032 0.000000
O O10 0.254351 0.250000 0.265426
O O11 0.250000 0.182838 0.000000
#
# Coordination Sequence:
#
# PCOD8279424 Si02
#       4
#    16  16  16  16
#     4  11  23  38  58  88 122 153 190 237 294 346
#     4  10  19  38  59  87 113 150 197 238 285 336
#     4  11  21  39  62  86 114 155 201 239 282 341
#     4  10  19  38  65  86 111 152 199 238 282 344
#
# _framework density 19.179334000000001
#
# number of rings (size 3 to 8) (size 9 to 14) (size 15 to 20)
#    0.000    1.500    7.500    0.000    0.000    7.500 
#    0.000    1.250    0.000    0.000    0.000    0.000 
#    0.000    0.000    0.000    0.000    0.000    0.000 
#
# Total GULP energy -396781.426704 kJ/mol
# GULP energy per Si atom -12399.419585 kJ/mol
# Density = 1.913568 g / cm^3
# Si number density = 19.179334 Si / 1000 Ang^3
#
#
#
# Elastic Constant Matrix: (Units=GPa)
#
#
# Indices 1 2 3 4 5 6 
#
# 1 75.8738 14.1078 28.0977 0.0000 0.0000 0.0000
# 2 14.1078 86.8076 46.7881 0.0000 0.0000 0.0000
# 3 28.0977 46.7881 155.0166 0.0000 0.0000 0.0000
# 4 0.0000 0.0000 0.0000 11.4749 0.0000 0.0000
# 5 0.0000 0.0000 0.0000 0.0000 19.0034 0.0000
# 6 0.0000 0.0000 0.0000 0.0000 0.0000 16.3739
#
#
#
# Elastic Compliance Matrix: (Units=1/GPa)
#
#
# Indices 1 2 3 4 5 6 
#
# 1 0.014216 -0.001101 -0.002244 0.000000 0.000000 0.000000
# 2 -0.001101 0.013843 -0.003979 0.000000 0.000000 0.000000
# 3 -0.002244 -0.003979 0.008059 0.000000 0.000000 0.000000
# 4 0.000000 0.000000 0.000000 0.087147 0.000000 0.000000
# 5 0.000000 0.000000 0.000000 0.000000 0.052622 0.000000
# 6 0.000000 0.000000 0.000000 0.000000 0.000000 0.061073
#
#
# Mechanical properties :
#
#
# Convention : Reuss Voigt Hill
#
# Bulk Modulus (GPa) = 46.57709 55.07614 50.82662
# Shear Modulus (GPa) = 19.32267 24.61739 21.97003
#
# Velocity S-wave (km/s) = 3.17752 3.58654 3.38820
# Velocity P-wave (km/s) = 6.14816 6.77715 6.47030
#
# Compressibility (1/GPa) = 0.02146978
#
# Stress axis : x y z
#
# Youngs Moduli (GPa) = 70.34522 72.23834 124.09054
#
# Poissons Ratio (x) = 0.07950 0.27852
# Poissons Ratio (y) = 0.07742 0.49372
# Poissons Ratio (z) = 0.15789 0.28742
#
# Static dielectric constant tensor:
#      x y z
#    x 3.228340 0.000000 0.000000 
#    y 0.000000 3.389540 0.000000 
#    z 0.000000 0.000000 3.980600 
# 
# 
# High freq. dielectric constant tensor:
#      x y z
#    x 1.711870 0.000000 0.000000 
#    y 0.000000 1.732890 0.000000 
#    z 0.000000 0.000000 1.775970 
# 
# From -- ./inp_files/9811.got.cif
#   From: 2010.03.12/outbox.cif.g09.slc.cpg/sg67_5_cif.got.tgz:9811.got - 2010.04.10 22:41:39.
