data_PCOD8279136
_publ_section_title
;
Structure prediction by ZEFSAII (Michael W. Deem and Ramdas Pophale) SiO2 
 PCOD8279136
Probable space group: C M M A
;
_chemical_formula_sum "Si O2"
_cell_formula_units_Z 96
_cell_length_a 9.092120
_cell_length_b 28.519891
_cell_length_c 20.503798
_cell_angle_alpha 90.000000
_cell_angle_beta 90.000000
_cell_angle_gamma 90.000000
_cell_volume 5316.763408
_symmetry_space_group_name_H-M "C M M A"
_symmetry_group_IT_number 67
_symmetry_cell_setting 'orthorhombic'
loop_
_space_group_symop_operation_xyz
x,y,z
-x,1/2-y,z
x,-y,-z
-x,1/2+y,-z
-x,-y,-z
x,1/2+y,-z
-x,y,z
x,1/2-y,z
1/2+x,1/2+y,z
1/2-x,-y,z
1/2+x,1/2-y,-z
1/2-x,y,-z
1/2-x,1/2-y,-z
1/2+x,y,-z
1/2-x,1/2+y,z
1/2+x,-y,z
loop_
_atom_site_type_symbol
_atom_site_label
_atom_site_fract_x
_atom_site_fract_y
_atom_site_fract_z
Si Si1 0.328736 0.953881 0.878729
Si Si2 0.327160 0.138320 0.689996
Si Si3 0.327479 0.196505 0.564586
Si Si4 0.673231 0.046944 0.271823
Si Si5 0.174276 0.645090 0.066603
Si Si6 0.669040 0.804601 0.181831
O O1 0.500000 0.962676 0.886381
O O2 0.284583 0.945697 0.803760
O O3 0.276653 0.908246 0.918225
O O4 0.250000 0.000000 0.907486
O O5 0.500000 0.127460 0.689391
O O6 0.276302 0.166797 0.626647
O O7 0.237565 0.090175 0.687953
O O8 0.282915 0.168244 0.753238
O O9 0.500000 0.192651 0.553907
O O10 0.278523 0.250000 0.577062
O O11 0.250000 0.176220 0.500000
O O12 0.500000 0.043254 0.282813
O O13 0.750000 0.000000 0.298518
O O14 0.227417 0.679603 0.123060
O O15 0.000000 0.649508 0.060372
O O16 0.250000 0.661391 0.000000
O O17 0.500000 0.815482 0.163667
O O18 0.693264 0.750000 0.195411
#
# Coordination Sequence:
#
# PCOD8279136 Si02
#       6
#    16  16  16  16  16  16
#     4   9  19  34  53  76 104 134 169 213 263 317
#     4  10  19  33  56  83 111 143 178 220 267 314
#     4   9  18  33  53  80 115 151 185 220 261 313
#     4  10  19  33  53  80 110 140 176 218 266 319
#     4  11  23  39  55  76 104 138 177 220 269 322
#     4  10  21  37  57  80 104 135 177 222 268 317
#
# _framework density 18.056097000000001
#
# number of rings (size 3 to 8) (size 9 to 14) (size 15 to 20)
#    0.000    2.167    1.667    1.500    0.000    5.667 
#    0.000    1.667    0.000    3.500    0.000    3.500 
#    0.000    0.000    0.000    0.000    0.000    0.000 
#
# Total GULP energy -595388.712205 kJ/mol
# GULP energy per Si atom -12403.931504 kJ/mol
# Density = 1.801500 g / cm^3
# Si number density = 18.056097 Si / 1000 Ang^3
#
#
#
# Elastic Constant Matrix: (Units=GPa)
#
#
# Indices 1 2 3 4 5 6 
#
# 1 61.1467 48.9021 46.7538 0.0000 0.0000 0.0000
# 2 48.9021 113.9640 58.4765 0.0000 0.0000 0.0000
# 3 46.7538 58.4765 120.5614 0.0000 0.0000 0.0000
# 4 0.0000 0.0000 0.0000 26.6281 0.0000 0.0000
# 5 0.0000 0.0000 0.0000 0.0000 26.4873 0.0000
# 6 0.0000 0.0000 0.0000 0.0000 0.0000 33.0326
#
#
#
# Elastic Compliance Matrix: (Units=1/GPa)
#
#
# Indices 1 2 3 4 5 6 
#
# 1 0.028587 -0.008758 -0.006838 0.000000 0.000000 0.000000
# 2 -0.008758 0.014365 -0.003571 0.000000 0.000000 0.000000
# 3 -0.006838 -0.003571 0.012679 0.000000 0.000000 0.000000
# 4 0.000000 0.000000 0.000000 0.037554 0.000000 0.000000
# 5 0.000000 0.000000 0.000000 0.000000 0.037754 0.000000
# 6 0.000000 0.000000 0.000000 0.000000 0.000000 0.030273
#
#
# Mechanical properties :
#
#
# Convention : Reuss Voigt Hill
#
# Bulk Modulus (GPa) = 57.81702 67.10409 62.46056
# Shear Modulus (GPa) = 24.35319 26.66557 25.50938
#
# Velocity S-wave (km/s) = 3.67652 3.84711 3.76278
# Velocity P-wave (km/s) = 7.07903 7.54841 7.31749
#
# Compressibility (1/GPa) = 0.01729594
#
# Stress axis : x y z
#
# Youngs Moduli (GPa) = 34.98122 69.61259 78.87328
#
# Poissons Ratio (x) = 0.60966 0.53934
# Poissons Ratio (y) = 0.30636 0.28168
# Poissons Ratio (z) = 0.23920 0.24861
#
# Static dielectric constant tensor:
#      x y z
#    x 3.293040 0.000000 0.000000 
#    y 0.000000 3.389090 0.000000 
#    z 0.000000 0.000000 3.246440 
# 
# 
# High freq. dielectric constant tensor:
#      x y z
#    x 1.698120 0.000000 0.000000 
#    y 0.000000 1.703280 0.000000 
#    z 0.000000 0.000000 1.684300 
# 
# From -- ./inp_files/37125.got.cif
#   From: 2010.03.12/outbox.cif.g09.slc.cpg/sg67_19_cif.got.tgz:37125.got - 2010.04.10 22:41:39.
