data_PCOD8279539
_publ_section_title
;
Structure prediction by ZEFSAII (Michael W. Deem and Ramdas Pophale) SiO2 
 PCOD8279539
Probable space group: C M M A
;
_chemical_formula_sum "Si O2"
_cell_formula_units_Z 96
_cell_length_a 9.111439
_cell_length_b 19.240955
_cell_length_c 30.326454
_cell_angle_alpha 90.000000
_cell_angle_beta 90.000000
_cell_angle_gamma 90.000000
_cell_volume 5316.615194
_symmetry_space_group_name_H-M "C M M A"
_symmetry_group_IT_number 67
_symmetry_cell_setting 'orthorhombic'
loop_
_space_group_symop_operation_xyz
x,y,z
-x,1/2-y,z
x,-y,-z
-x,1/2+y,-z
-x,-y,-z
x,1/2+y,-z
-x,y,z
x,1/2-y,z
1/2+x,1/2+y,z
1/2-x,-y,z
1/2+x,1/2-y,-z
1/2-x,y,-z
1/2-x,1/2-y,-z
1/2+x,y,-z
1/2-x,1/2+y,z
1/2+x,-y,z
loop_
_atom_site_type_symbol
_atom_site_label
_atom_site_fract_x
_atom_site_fract_y
_atom_site_fract_z
Si Si1 0.829994 0.929934 0.787272
Si Si2 0.168161 0.167722 0.722881
Si Si3 0.670966 0.070481 0.890397
Si Si4 0.665273 0.667465 0.458654
Si Si5 0.169514 0.831911 0.044344
Si Si6 0.665247 0.332616 0.637674
O O1 0.760363 0.864663 0.762530
O O2 0.806155 0.916757 0.838803
O O3 0.000000 0.936456 0.774990
O O4 0.750000 0.000000 0.771731
O O5 0.186614 0.250000 0.726449
O O6 0.229035 0.139166 0.676096
O O7 0.000000 0.144656 0.726895
O O8 0.500000 0.066443 0.903092
O O9 0.748655 0.134358 0.914391
O O10 0.750000 0.000000 0.905805
O O11 0.500000 0.641651 0.462979
O O12 0.675479 0.750000 0.461545
O O13 0.750000 0.633241 0.500000
O O14 0.725803 0.643074 0.410541
O O15 0.184078 0.750000 0.050445
O O16 0.000000 0.855300 0.042501
O O17 0.250000 0.857090 0.000000
O O18 0.500000 0.360880 0.645397
O O19 0.661782 0.250000 0.638688
#
# Coordination Sequence:
#
# PCOD8279539 Si02
#       6
#    16  16  16  16  16  16
#     4  10  21  37  56  76 101 133 167 207 253 300
#     4  10  20  32  48  72 100 130 166 207 249 296
#     4  10  21  37  57  80 105 134 170 210 252 299
#     4   8  13  20  31  49  75 110 150 190 234 286
#     4  10  21  37  57  81 110 142 174 210 251 294
#     4   8  14  25  39  56  83 119 157 197 242 291
#
# _framework density 18.056601000000001
#
# number of rings (size 3 to 8) (size 9 to 14) (size 15 to 20)
#    0.000    2.667    0.000    3.000    0.000    5.667 
#    0.000    8.333    0.000    0.000    0.000    0.000 
#    0.000    0.667    0.000    7.000    0.000   10.167 
#
# Total GULP energy -595075.403208 kJ/mol
# GULP energy per Si atom -12397.404234 kJ/mol
# Density = 1.801550 g / cm^3
# Si number density = 18.056601 Si / 1000 Ang^3
#
#
#
# Elastic Constant Matrix: (Units=GPa)
#
#
# Indices 1 2 3 4 5 6 
#
# 1 138.9274 38.6557 71.8418 0.0000 0.0000 0.0000
# 2 38.6557 32.8876 37.6543 0.0000 0.0000 0.0000
# 3 71.8418 37.6543 99.1460 0.0000 0.0000 0.0000
# 4 0.0000 0.0000 0.0000 4.8256 0.0000 0.0000
# 5 0.0000 0.0000 0.0000 0.0000 38.1614 0.0000
# 6 0.0000 0.0000 0.0000 0.0000 0.0000 26.4996
#
#
#
# Elastic Compliance Matrix: (Units=1/GPa)
#
#
# Indices 1 2 3 4 5 6 
#
# 1 0.012513 -0.007656 -0.006160 0.000000 0.000000 0.000000
# 2 -0.007656 0.058484 -0.016664 0.000000 0.000000 0.000000
# 3 -0.006160 -0.016664 0.020878 0.000000 0.000000 0.000000
# 4 0.000000 0.000000 0.000000 0.207228 0.000000 0.000000
# 5 0.000000 0.000000 0.000000 0.000000 0.026204 0.000000
# 6 0.000000 0.000000 0.000000 0.000000 0.000000 0.037736
#
#
# Mechanical properties :
#
#
# Convention : Reuss Voigt Hill
#
# Bulk Modulus (GPa) = 32.34474 63.02942 47.68708
# Shear Modulus (GPa) = 11.51249 22.08460 16.79855
#
# Velocity S-wave (km/s) = 2.52777 3.50105 3.05344
# Velocity P-wave (km/s) = 5.14503 7.16418 6.23686
#
# Compressibility (1/GPa) = 0.03091693
#
# Stress axis : x y z
#
# Youngs Moduli (GPa) = 79.91371 17.09859 47.89616
#
# Poissons Ratio (x) = 0.13090 0.29504
# Poissons Ratio (y) = 0.61178 0.79816
# Poissons Ratio (z) = 0.49226 0.28494
#
# Static dielectric constant tensor:
#      x y z
#    x 3.538020 0.000000 0.000000 
#    y 0.000000 2.892390 0.000000 
#    z 0.000000 0.000000 3.616270 
# 
# 
# High freq. dielectric constant tensor:
#      x y z
#    x 1.709850 0.000000 0.000000 
#    y 0.000000 1.652200 0.000000 
#    z 0.000000 0.000000 1.712300 
# 
# From -- ./inp_files/43495.got.cif
#   From: 2010.03.12/outbox.cif.g09.slc.cpg/sg67_22_cif.got.tgz:43495.got - 2010.04.10 22:41:39.
