data_PCOD8279554
_publ_section_title
;
Structure prediction by ZEFSAII (Michael W. Deem and Ramdas Pophale) SiO2 
 PCOD8279554
Probable space group: C M M A
;
_chemical_formula_sum "Si O2"
_cell_formula_units_Z 72
_cell_length_a 15.879671
_cell_length_b 9.143065
_cell_length_c 24.693836
_cell_angle_alpha 90.000000
_cell_angle_beta 90.000000
_cell_angle_gamma 90.000000
_cell_volume 3585.270000
_symmetry_space_group_name_H-M "C M M A"
_symmetry_group_IT_number 67
_symmetry_cell_setting 'orthorhombic'
loop_
_space_group_symop_operation_xyz
x,y,z
-x,1/2-y,z
x,-y,-z
-x,1/2+y,-z
-x,-y,-z
x,1/2+y,-z
-x,y,z
x,1/2-y,z
1/2+x,1/2+y,z
1/2-x,-y,z
1/2+x,1/2-y,-z
1/2-x,y,-z
1/2-x,1/2-y,-z
1/2+x,y,-z
1/2-x,1/2+y,z
1/2+x,-y,z
loop_
_atom_site_type_symbol
_atom_site_label
_atom_site_fract_x
_atom_site_fract_y
_atom_site_fract_z
Si Si1 0.094959 0.086315 0.765456
Si Si2 0.660558 0.920626 0.450440
Si Si3 0.838035 0.419329 0.331478
Si Si4 0.665512 0.577724 0.878119
Si Si5 0.500000 0.576402 0.942655
O O1 0.120133 0.250000 0.747001
O O2 0.153446 0.034502 0.814998
O O3 0.000000 0.084385 0.787609
O O4 0.100159 0.979679 0.714170
O O5 0.670641 0.750000 0.464055
O O6 0.619026 0.942546 0.391024
O O7 0.609273 0.000000 0.500000
O O8 0.750000 0.000000 0.447549
O O9 0.821124 0.250000 0.320999
O O10 0.750000 0.500000 0.326223
O O11 0.676999 0.750000 0.884721
O O12 0.750000 0.500000 0.900051
O O13 0.584096 0.523825 0.911427
O O14 0.500000 0.750000 0.949509
O O15 0.500000 0.500000 0.000000
#
# Coordination Sequence:
#
# PCOD8279554 Si02
#       5
#    16  16  16  16   8
#     4  10  20  36  57  79 108 147 186 229 287 347
#     4   9  16  26  42  65  95 130 170 218 274 331
#     4  10  20  32  48  75 107 138 176 227 281 338
#     4  10  21  39  62  88 120 157 196 241 290 341
#     4  10  22  42  64  88 124 162 197 240 287 336
#
# _framework density 20.082170000000001
#
# number of rings (size 3 to 8) (size 9 to 14) (size 15 to 20)
#    0.000    2.222    1.111    2.667    0.000    7.111 
#    0.000    2.222    0.000    0.667    0.000    0.000 
#    0.000    0.000    0.000    0.000    0.000    0.000 
#
# Total GULP energy -446177.168265 kJ/mol
# GULP energy per Si atom -12393.810230 kJ/mol
# Density = 2.003646 g / cm^3
# Si number density = 20.082170 Si / 1000 Ang^3
#
#
#
# Elastic Constant Matrix: (Units=GPa)
#
#
# Indices 1 2 3 4 5 6 
#
# 1 100.0430 34.9973 51.6363 0.0000 0.0000 0.0000
# 2 34.9973 99.5527 65.6305 0.0000 0.0000 0.0000
# 3 51.6363 65.6305 139.4539 0.0000 0.0000 0.0000
# 4 0.0000 0.0000 0.0000 37.0973 0.0000 0.0000
# 5 0.0000 0.0000 0.0000 0.0000 13.2960 0.0000
# 6 0.0000 0.0000 0.0000 0.0000 0.0000 26.6577
#
#
#
# Elastic Compliance Matrix: (Units=1/GPa)
#
#
# Indices 1 2 3 4 5 6 
#
# 1 0.012617 -0.001965 -0.003747 0.000000 0.000000 0.000000
# 2 -0.001965 0.014870 -0.006270 0.000000 0.000000 0.000000
# 3 -0.003747 -0.006270 0.011509 0.000000 0.000000 0.000000
# 4 0.000000 0.000000 0.000000 0.026956 0.000000 0.000000
# 5 0.000000 0.000000 0.000000 0.000000 0.075211 0.000000
# 6 0.000000 0.000000 0.000000 0.000000 0.000000 0.037513
#
#
# Mechanical properties :
#
#
# Convention : Reuss Voigt Hill
#
# Bulk Modulus (GPa) = 66.52980 71.50863 69.01922
# Shear Modulus (GPa) = 24.07893 27.86256 25.97075
#
# Velocity S-wave (km/s) = 3.46644 3.72886 3.60004
# Velocity P-wave (km/s) = 7.01586 7.36373 7.19190
#
# Compressibility (1/GPa) = 0.01503086
#
# Stress axis : x y z
#
# Youngs Moduli (GPa) = 79.25731 67.25158 86.88750
#
# Poissons Ratio (x) = 0.13217 0.32556
# Poissons Ratio (y) = 0.15577 0.54481
# Poissons Ratio (z) = 0.29697 0.42168
#
# Static dielectric constant tensor:
#      x y z
#    x 3.331070 0.000000 0.000000 
#    y 0.000000 3.652600 0.000000 
#    z 0.000000 0.000000 4.110340 
# 
# 
# High freq. dielectric constant tensor:
#      x y z
#    x 1.754270 0.000000 0.000000 
#    y 0.000000 1.781550 0.000000 
#    z 0.000000 0.000000 1.797010 
# 
# From -- ./inp_files/40501.got.cif
#   From: 2010.03.12/outbox.cif.g09.slc.cpg/sg67_21_cif.got.tgz:40501.got - 2010.04.10 22:41:39.
