data_PCOD8279983
_publ_section_title
;
Structure prediction by ZEFSAII (Michael W. Deem and Ramdas Pophale) SiO2 
 PCOD8279983
Probable space group: C M M A
;
_chemical_formula_sum "Si O2"
_cell_formula_units_Z 104
_cell_length_a 15.434203
_cell_length_b 20.409924
_cell_length_c 14.722579
_cell_angle_alpha 90.000000
_cell_angle_beta 90.000000
_cell_angle_gamma 90.000000
_cell_volume 4637.773012
_symmetry_space_group_name_H-M "C M M A"
_symmetry_group_IT_number 67
_symmetry_cell_setting 'orthorhombic'
loop_
_space_group_symop_operation_xyz
x,y,z
-x,1/2-y,z
x,-y,-z
-x,1/2+y,-z
-x,-y,-z
x,1/2+y,-z
-x,y,z
x,1/2-y,z
1/2+x,1/2+y,z
1/2-x,-y,z
1/2+x,1/2-y,-z
1/2-x,y,-z
1/2-x,1/2-y,-z
1/2+x,y,-z
1/2-x,1/2+y,z
1/2+x,-y,z
loop_
_atom_site_type_symbol
_atom_site_label
_atom_site_fract_x
_atom_site_fract_y
_atom_site_fract_z
Si Si1 0.901263 0.949412 0.570228
Si Si2 0.098949 0.452394 0.231332
Si Si3 0.100166 0.926826 0.118488
Si Si4 0.349507 0.675953 0.734952
Si Si5 0.750000 0.372056 0.000000
Si Si6 0.672422 0.678572 0.176874
Si Si7 0.349348 0.324118 0.473396
O O1 0.855660 0.955103 0.669248
O O2 0.900853 0.874670 0.535894
O O3 0.000000 0.971360 0.581804
O O4 0.854827 0.000000 0.500000
O O5 0.138309 0.506377 0.163286
O O6 0.104714 0.379817 0.189159
O O7 0.000000 0.471330 0.242491
O O8 0.100233 0.870959 0.195748
O O9 0.000000 0.933209 0.082646
O O10 0.167133 0.914040 0.036030
O O11 0.381377 0.750000 0.754219
O O12 0.246203 0.670914 0.747090
O O13 0.367960 0.656209 0.631021
O O14 0.782791 0.324973 0.078978
O O15 0.626825 0.750000 0.185784
O O16 0.382123 0.250000 0.492136
O O17 0.250000 0.330555 0.500000
#
# Coordination Sequence:
#
# PCOD8279983 Si02
#       7
#    16  16  16  16   8  16  16
#     4  10  21  37  56  80 114 154 197 245 291 342
#     4  10  22  38  58  85 115 155 200 239 295 361
#     4  10  22  41  63  90 125 157 197 256 309 368
#     4   9  19  35  57  85 117 158 204 247 301 364
#     4  10  23  41  66  94 115 151 200 242 307 379
#     4  10  21  39  60  83 116 152 191 243 297 358
#     4  10  20  34  54  83 118 157 203 253 299 346
#
# _framework density 22.424555999999999
#
# number of rings (size 3 to 8) (size 9 to 14) (size 15 to 20)
#    0.000    2.154    0.000    2.077    0.000    9.846 
#    0.000    9.231    0.000    0.000    0.000    0.000 
#    0.000    0.000    0.000    0.000    0.000    0.000 
#
# Total GULP energy -644549.585744 kJ/mol
# GULP energy per Si atom -12395.184341 kJ/mol
# Density = 2.237352 g / cm^3
# Si number density = 22.424556 Si / 1000 Ang^3
#
#
#
# Elastic Constant Matrix: (Units=GPa)
#
#
# Indices 1 2 3 4 5 6 
#
# 1 57.8860 23.3490 25.8433 0.0000 0.0000 0.0000
# 2 23.3490 140.5038 34.3293 0.0000 0.0000 0.0000
# 3 25.8433 34.3293 79.7026 0.0000 0.0000 0.0000
# 4 0.0000 0.0000 0.0000 25.8844 0.0000 0.0000
# 5 0.0000 0.0000 0.0000 0.0000 27.4705 0.0000
# 6 0.0000 0.0000 0.0000 0.0000 0.0000 27.6724
#
#
#
# Elastic Compliance Matrix: (Units=1/GPa)
#
#
# Indices 1 2 3 4 5 6 
#
# 1 0.020696 -0.002011 -0.005844 0.000000 0.000000 0.000000
# 2 -0.002011 0.008150 -0.002858 0.000000 0.000000 0.000000
# 3 -0.005844 -0.002858 0.015673 0.000000 0.000000 0.000000
# 4 0.000000 0.000000 0.000000 0.038633 0.000000 0.000000
# 5 0.000000 0.000000 0.000000 0.000000 0.036403 0.000000
# 6 0.000000 0.000000 0.000000 0.000000 0.000000 0.036137
#
#
# Mechanical properties :
#
#
# Convention : Reuss Voigt Hill
#
# Bulk Modulus (GPa) = 43.30701 49.45951 46.38326
# Shear Modulus (GPa) = 27.05400 29.17686 28.11543
#
# Velocity S-wave (km/s) = 3.47716 3.61101 3.54472
# Velocity P-wave (km/s) = 5.95610 6.28408 6.12229
#
# Compressibility (1/GPa) = 0.02309095
#
# Stress axis : x y z
#
# Youngs Moduli (GPa) = 48.31897 122.70234 63.80546
#
# Poissons Ratio (x) = 0.24679 0.37289
# Poissons Ratio (y) = 0.09718 0.18236
# Poissons Ratio (z) = 0.28239 0.35069
#
# Static dielectric constant tensor:
#      x y z
#    x 3.606650 0.000000 0.000000 
#    y 0.000000 4.086170 0.000000 
#    z 0.000000 0.000000 4.297970 
# 
# 
# High freq. dielectric constant tensor:
#      x y z
#    x 1.851360 0.000000 0.000000 
#    y 0.000000 1.892510 0.000000 
#    z 0.000000 0.000000 1.893500 
# 
# From -- ./inp_files/28629.got.cif
#   From: 2010.03.12/outbox.cif.g09.slc.cpg/sg67_15_cif.got.tgz:28629.got - 2010.04.10 22:41:39.
