data_PCOD8279936
_publ_section_title
;
Structure prediction by ZEFSAII (Michael W. Deem and Ramdas Pophale) SiO2 
 PCOD8279936
Probable space group: C M M A
;
_chemical_formula_sum "Si O2"
_cell_formula_units_Z 104
_cell_length_a 24.109608
_cell_length_b 19.296792
_cell_length_c 12.278789
_cell_angle_alpha 90.000000
_cell_angle_beta 90.000000
_cell_angle_gamma 90.000000
_cell_volume 5712.560351
_symmetry_space_group_name_H-M "C M M A"
_symmetry_group_IT_number 67
_symmetry_cell_setting 'orthorhombic'
loop_
_space_group_symop_operation_xyz
x,y,z
-x,1/2-y,z
x,-y,-z
-x,1/2+y,-z
-x,-y,-z
x,1/2+y,-z
-x,y,z
x,1/2-y,z
1/2+x,1/2+y,z
1/2-x,-y,z
1/2+x,1/2-y,-z
1/2-x,y,-z
1/2-x,1/2-y,-z
1/2+x,y,-z
1/2-x,1/2+y,z
1/2+x,-y,z
loop_
_atom_site_type_symbol
_atom_site_label
_atom_site_fract_x
_atom_site_fract_y
_atom_site_fract_z
Si Si1 0.884505 0.500000 0.000000
Si Si2 0.141366 0.670901 0.680728
Si Si3 0.435860 0.540530 0.605942
Si Si4 0.563677 0.433988 0.796005
Si Si5 0.216734 0.068481 0.896820
Si Si6 0.130123 0.672069 0.430756
Si Si7 0.733895 0.829509 0.707516
O O1 0.923685 0.543124 0.918958
O O2 0.845934 0.448935 0.930183
O O3 0.138456 0.750000 0.719168
O O4 0.103510 0.629138 0.764491
O O5 0.119926 0.662295 0.558539
O O6 0.204513 0.643664 0.681477
O O7 0.411609 0.500000 0.500000
O O8 0.500000 0.556112 0.585772
O O9 0.424621 0.496602 0.713641
O O10 0.406730 0.614167 0.627615
O O11 0.500000 0.409307 0.787907
O O12 0.209867 0.125329 0.804949
O O13 0.250000 0.000000 0.855692
O O14 0.250000 0.099843 0.000000
O O15 0.111508 0.750000 0.395692
O O16 0.194715 0.661341 0.398400
O O17 0.734764 0.750000 0.745386
#
# Coordination Sequence:
#
# PCOD8279936 Si02
#       7
#     8  16  16  16  16  16  16
#     4  10  20  36  56  78 106 140 180 226 278 326
#     4  10  20  35  55  79 111 147 181 226 278 327
#     4  10  20  36  56  81 111 142 180 227 271 319
#     4  11  22  37  58  80 108 144 185 231 277 329
#     4   9  18  33  53  76 104 140 182 228 274 323
#     4  10  20  34  54  80 113 148 182 224 276 330
#     4  10  20  34  53  79 110 146 183 222 274 333
#
# _framework density 18.205497000000001
#
# number of rings (size 3 to 8) (size 9 to 14) (size 15 to 20)
#    0.000    2.154    1.538    3.462    0.000    2.769 
#    0.000    2.308    0.000    0.923    0.000    2.154 
#    0.000    0.000    0.000    0.000    0.000    0.000 
#
# Total GULP energy -644790.938317 kJ/mol
# GULP energy per Si atom -12399.825737 kJ/mol
# Density = 1.816406 g / cm^3
# Si number density = 18.205497 Si / 1000 Ang^3
#
#
#
# Elastic Constant Matrix: (Units=GPa)
#
#
# Indices 1 2 3 4 5 6 
#
# 1 91.5714 52.3690 26.6825 0.0000 0.0000 0.0000
# 2 52.3690 90.1731 38.1870 0.0000 0.0000 0.0000
# 3 26.6825 38.1870 70.0210 0.0000 0.0000 0.0000
# 4 0.0000 0.0000 0.0000 31.0497 0.0000 0.0000
# 5 0.0000 0.0000 0.0000 0.0000 22.3986 0.0000
# 6 0.0000 0.0000 0.0000 0.0000 0.0000 28.2788
#
#
#
# Elastic Compliance Matrix: (Units=1/GPa)
#
#
# Indices 1 2 3 4 5 6 
#
# 1 0.016453 -0.008972 -0.001376 0.000000 0.000000 0.000000
# 2 -0.008972 0.019313 -0.007114 0.000000 0.000000 0.000000
# 3 -0.001376 -0.007114 0.018685 0.000000 0.000000 0.000000
# 4 0.000000 0.000000 0.000000 0.032206 0.000000 0.000000
# 5 0.000000 0.000000 0.000000 0.000000 0.044646 0.000000
# 6 0.000000 0.000000 0.000000 0.000000 0.000000 0.035362
#
#
# Mechanical properties :
#
#
# Convention : Reuss Voigt Hill
#
# Bulk Modulus (GPa) = 51.21210 54.02695 52.61953
# Shear Modulus (GPa) = 24.02707 25.31388 24.67048
#
# Velocity S-wave (km/s) = 3.63680 3.73292 3.68518
# Velocity P-wave (km/s) = 6.76951 6.95127 6.86099
#
# Compressibility (1/GPa) = 0.01952663
#
# Stress axis : x y z
#
# Youngs Moduli (GPa) = 60.78065 51.77866 53.51757
#
# Poissons Ratio (x) = 0.46457 0.07366
# Poissons Ratio (y) = 0.54533 0.38071
# Poissons Ratio (z) = 0.08366 0.36834
#
# Static dielectric constant tensor:
#      x y z
#    x 3.347120 0.000000 0.000000 
#    y 0.000000 3.287100 0.000000 
#    z 0.000000 0.000000 3.258010 
# 
# 
# High freq. dielectric constant tensor:
#      x y z
#    x 1.706520 0.000000 0.000000 
#    y 0.000000 1.699050 0.000000 
#    z 0.000000 0.000000 1.698900 
# 
# From -- ./inp_files/22990.got.cif
#   From: 2010.03.12/outbox.cif.g09.slc.cpg/sg67_12_cif.got.tgz:22990.got - 2010.04.10 22:41:39.
