data_PCOD8279091
_publ_section_title
;
Structure prediction by ZEFSAII (Michael W. Deem and Ramdas Pophale) SiO2 
 PCOD8279091
Probable space group: C M M A
;
_chemical_formula_sum "Si O2"
_cell_formula_units_Z 88
_cell_length_a 27.744976
_cell_length_b 8.886827
_cell_length_c 18.825012
_cell_angle_alpha 90.000000
_cell_angle_beta 90.000000
_cell_angle_gamma 90.000000
_cell_volume 4641.585353
_symmetry_space_group_name_H-M "C M M A"
_symmetry_group_IT_number 67
_symmetry_cell_setting 'orthorhombic'
loop_
_space_group_symop_operation_xyz
x,y,z
-x,1/2-y,z
x,-y,-z
-x,1/2+y,-z
-x,-y,-z
x,1/2+y,-z
-x,y,z
x,1/2-y,z
1/2+x,1/2+y,z
1/2-x,-y,z
1/2+x,1/2-y,-z
1/2-x,y,-z
1/2-x,1/2-y,-z
1/2+x,y,-z
1/2-x,1/2+y,z
1/2+x,-y,z
loop_
_atom_site_type_symbol
_atom_site_label
_atom_site_fract_x
_atom_site_fract_y
_atom_site_fract_z
Si Si1 0.055324 0.423311 0.209338
Si Si2 0.859938 0.072478 0.710876
Si Si3 0.604858 0.572992 0.422487
Si Si4 0.500000 0.079031 0.573416
Si Si5 0.699492 0.429333 0.829799
Si Si6 0.112436 0.921348 0.926651
O O1 0.065922 0.250000 0.231797
O O2 0.088653 0.533161 0.254567
O O3 0.067133 0.443998 0.125928
O O4 0.000000 0.466050 0.223357
O O5 0.852103 0.250000 0.709789
O O6 0.858026 0.007671 0.630699
O O7 0.816502 0.994916 0.753708
O O8 0.609928 0.500000 0.500000
O O9 0.616123 0.750000 0.427694
O O10 0.550892 0.542666 0.387975
O O11 0.500000 0.250000 0.551498
O O12 0.500000 0.000000 0.500000
O O13 0.702590 0.250000 0.824103
O O14 0.750000 0.500000 0.852920
O O15 0.660907 0.482803 0.888823
O O16 0.121031 0.750000 0.945860
O O17 0.100608 0.000000 0.000000
#
# Coordination Sequence:
#
# PCOD8279091 Si02
#       6
#    16  16  16   8  16  16
#     4   9  19  36  54  73 104 147 189 226 268 316
#     4  11  22  35  53  80 109 141 181 225 270 322
#     4  10  19  33  51  75 106 144 183 224 271 318
#     4   8  16  28  44  66  96 134 173 210 255 304
#     4  10  21  39  60  82 107 138 175 219 271 325
#     4   9  19  34  53  79 110 142 177 218 265 318
#
# _framework density 18.959040999999999
#
# number of rings (size 3 to 8) (size 9 to 14) (size 15 to 20)
#    0.000    2.364    0.000    3.818    1.273    5.455 
#    0.000    1.818    0.000    0.545    0.000    3.818 
#    0.000    0.000    0.000    0.000    0.000    0.000 
#
# Total GULP energy -545378.210841 kJ/mol
# GULP energy per Si atom -12394.959337 kJ/mol
# Density = 1.891589 g / cm^3
# Si number density = 18.959041 Si / 1000 Ang^3
#
#
#
# Elastic Constant Matrix: (Units=GPa)
#
#
# Indices 1 2 3 4 5 6 
#
# 1 40.4826 8.2520 -13.0701 0.0000 0.0000 0.0000
# 2 8.2520 82.3593 22.4397 0.0000 0.0000 0.0000
# 3 -13.0701 22.4397 59.9749 0.0000 0.0000 0.0000
# 4 0.0000 0.0000 0.0000 35.5568 0.0000 0.0000
# 5 0.0000 0.0000 0.0000 0.0000 19.1531 0.0000
# 6 0.0000 0.0000 0.0000 0.0000 0.0000 26.4051
#
#
#
# Elastic Compliance Matrix: (Units=1/GPa)
#
#
# Indices 1 2 3 4 5 6 
#
# 1 0.028329 -0.005034 0.008057 0.000000 0.000000 0.000000
# 2 -0.005034 0.014415 -0.006490 0.000000 0.000000 0.000000
# 3 0.008057 -0.006490 0.020858 0.000000 0.000000 0.000000
# 4 0.000000 0.000000 0.000000 0.028124 0.000000 0.000000
# 5 0.000000 0.000000 0.000000 0.000000 0.052211 0.000000
# 6 0.000000 0.000000 0.000000 0.000000 0.000000 0.037871
#
#
# Mechanical properties :
#
#
# Convention : Reuss Voigt Hill
#
# Bulk Modulus (GPa) = 17.64664 24.22890 20.93777
# Shear Modulus (GPa) = 24.08117 27.23602 25.65860
#
# Velocity S-wave (km/s) = 3.56781 3.79433 3.68281
# Velocity P-wave (km/s) = 5.12838 5.65714 5.39924
#
# Compressibility (1/GPa) = 0.05666801
#
# Stress axis : x y z
#
# Youngs Moduli (GPa) = 35.29913 69.37406 47.94368
#
# Poissons Ratio (x) = 0.34921 -0.38629
# Poissons Ratio (y) = 0.17769 0.31117
# Poissons Ratio (z) = -0.28441 0.45025
#
# Static dielectric constant tensor:
#      x y z
#    x 3.424140 0.000000 0.000000 
#    y 0.000000 3.406280 0.000000 
#    z 0.000000 0.000000 3.430040 
# 
# 
# High freq. dielectric constant tensor:
#      x y z
#    x 1.717610 0.000000 0.000000 
#    y 0.000000 1.738020 0.000000 
#    z 0.000000 0.000000 1.737040 
# 
# From -- ./inp_files/32398.got.cif
#   From: 2010.03.12/outbox.cif.g09.slc.cpg/sg67_17_cif.got.tgz:32398.got - 2010.04.10 22:41:39.
