data_PCOD8279217
_publ_section_title
;
Structure prediction by ZEFSAII (Michael W. Deem and Ramdas Pophale) SiO2 
 PCOD8279217
Probable space group: C M M A
;
_chemical_formula_sum "Si O2"
_cell_formula_units_Z 112
_cell_length_a 19.362892
_cell_length_b 18.674977
_cell_length_c 17.079441
_cell_angle_alpha 90.000000
_cell_angle_beta 90.000000
_cell_angle_gamma 90.000000
_cell_volume 6175.952557
_symmetry_space_group_name_H-M "C M M A"
_symmetry_group_IT_number 67
_symmetry_cell_setting 'orthorhombic'
loop_
_space_group_symop_operation_xyz
x,y,z
-x,1/2-y,z
x,-y,-z
-x,1/2+y,-z
-x,-y,-z
x,1/2+y,-z
-x,y,z
x,1/2-y,z
1/2+x,1/2+y,z
1/2-x,-y,z
1/2+x,1/2-y,-z
1/2-x,y,-z
1/2-x,1/2-y,-z
1/2+x,y,-z
1/2-x,1/2+y,z
1/2+x,-y,z
loop_
_atom_site_type_symbol
_atom_site_label
_atom_site_fract_x
_atom_site_fract_y
_atom_site_fract_z
Si Si1 0.078639 0.167356 0.955515
Si Si2 0.180735 0.967085 0.413806
Si Si3 0.684205 0.922581 0.039556
Si Si4 0.422255 0.634787 0.783378
Si Si5 0.078302 0.015195 0.290101
Si Si6 0.803024 0.669542 0.324702
Si Si7 0.708614 0.572166 0.222557
O O1 0.086551 0.250000 0.975682
O O2 0.108979 0.150688 0.869177
O O3 0.000000 0.141523 0.957639
O O4 0.116850 0.124006 0.023214
O O5 0.109369 0.989227 0.372793
O O6 0.175995 0.000000 0.500000
O O7 0.250000 0.000000 0.373820
O O8 0.190646 0.880824 0.402801
O O9 0.700502 0.923306 0.130439
O O10 0.750000 0.884313 0.000000
O O11 0.673785 0.000000 0.000000
O O12 0.500000 0.665550 0.776470
O O13 0.421265 0.549531 0.771697
O O14 0.377043 0.673904 0.717827
O O15 0.130635 0.074632 0.257258
O O16 0.000000 0.044622 0.301929
O O17 0.781332 0.750000 0.350388
O O18 0.749016 0.638633 0.260994
O O19 0.750000 0.500000 0.244004
#
# Coordination Sequence:
#
# PCOD8279217 Si02
#       7
#    16  16  16  16  16  16  16
#     4  10  21  36  51  72 108 150 188 230 284 341
#     4  10  19  37  62  83 115 147 172 215 270 325
#     4  11  22  33  52  76 106 145 190 241 290 323
#     4   9  17  31  53  81 112 145 184 232 283 332
#     4  10  19  33  58  85 107 141 186 225 267 323
#     4  11  21  34  57  88 114 144 183 227 276 331
#     4  12  19  37  57  76 112 146 190 238 277 328
#
# _framework density 18.134854000000001
#
# number of rings (size 3 to 8) (size 9 to 14) (size 15 to 20)
#    0.000    1.571    5.714    2.143    0.000    2.857 
#    0.000    1.429    0.000    0.429    0.000    0.000 
#    0.000    0.000    0.000    0.000    0.000    0.000 
#
# Total GULP energy -693988.989471 kJ/mol
# GULP energy per Si atom -12392.660526 kJ/mol
# Density = 1.809358 g / cm^3
# Si number density = 18.134854 Si / 1000 Ang^3
#
#
#
# Elastic Constant Matrix: (Units=GPa)
#
#
# Indices 1 2 3 4 5 6 
#
# 1 118.9012 38.3357 36.1667 0.0000 0.0000 0.0000
# 2 38.3357 91.0073 50.3086 0.0000 0.0000 0.0000
# 3 36.1667 50.3086 110.6984 0.0000 0.0000 0.0000
# 4 0.0000 0.0000 0.0000 18.6175 0.0000 0.0000
# 5 0.0000 0.0000 0.0000 0.0000 23.3480 0.0000
# 6 0.0000 0.0000 0.0000 0.0000 0.0000 16.9019
#
#
#
# Elastic Compliance Matrix: (Units=1/GPa)
#
#
# Indices 1 2 3 4 5 6 
#
# 1 0.009995 -0.003212 -0.001806 0.000000 0.000000 0.000000
# 2 -0.003212 0.015707 -0.006089 0.000000 0.000000 0.000000
# 3 -0.001806 -0.006089 0.012391 0.000000 0.000000 0.000000
# 4 0.000000 0.000000 0.000000 0.053713 0.000000 0.000000
# 5 0.000000 0.000000 0.000000 0.000000 0.042830 0.000000
# 6 0.000000 0.000000 0.000000 0.000000 0.000000 0.059165
#
#
# Mechanical properties :
#
#
# Convention : Reuss Voigt Hill
#
# Bulk Modulus (GPa) = 62.97443 63.35879 63.16661
# Shear Modulus (GPa) = 22.59297 24.82656 23.70976
#
# Velocity S-wave (km/s) = 3.53346 3.70401 3.61974
# Velocity P-wave (km/s) = 7.17274 7.30112 7.23721
#
# Compressibility (1/GPa) = 0.01587946
#
# Stress axis : x y z
#
# Youngs Moduli (GPa) = 100.04741 63.66537 80.70557
#
# Poissons Ratio (x) = 0.20450 0.14574
# Poissons Ratio (y) = 0.32137 0.49141
# Poissons Ratio (z) = 0.18066 0.38765
#
# Static dielectric constant tensor:
#      x y z
#    x 3.668830 0.000000 0.000000 
#    y 0.000000 3.154720 0.000000 
#    z 0.000000 0.000000 3.202870 
# 
# 
# High freq. dielectric constant tensor:
#      x y z
#    x 1.710740 0.000000 0.000000 
#    y 0.000000 1.675480 0.000000 
#    z 0.000000 0.000000 1.694060 
# 
# From -- ./inp_files/35125.got.cif
#   From: 2010.03.12/outbox.cif.g09.slc.cpg/sg67_18_cif.got.tgz:35125.got - 2010.04.10 22:41:39.
