data_PCOD8279684
_publ_section_title
;
Structure prediction by ZEFSAII (Michael W. Deem and Ramdas Pophale) SiO2 
 PCOD8279684
Probable space group: C M M A
;
_chemical_formula_sum "Si O2"
_cell_formula_units_Z 104
_cell_length_a 21.181129
_cell_length_b 8.955003
_cell_length_c 28.524737
_cell_angle_alpha 90.000000
_cell_angle_beta 90.000000
_cell_angle_gamma 90.000000
_cell_volume 5410.488643
_symmetry_space_group_name_H-M "C M M A"
_symmetry_group_IT_number 67
_symmetry_cell_setting 'orthorhombic'
loop_
_space_group_symop_operation_xyz
x,y,z
-x,1/2-y,z
x,-y,-z
-x,1/2+y,-z
-x,-y,-z
x,1/2+y,-z
-x,y,z
x,1/2-y,z
1/2+x,1/2+y,z
1/2-x,-y,z
1/2+x,1/2-y,-z
1/2-x,y,-z
1/2-x,1/2-y,-z
1/2+x,y,-z
1/2-x,1/2+y,z
1/2+x,-y,z
loop_
_atom_site_type_symbol
_atom_site_label
_atom_site_fract_x
_atom_site_fract_y
_atom_site_fract_z
Si Si1 0.814789 0.582853 0.542235
Si Si2 0.591106 0.082108 0.617163
Si Si3 0.070630 0.927321 0.722074
Si Si4 0.814081 0.423868 0.216542
Si Si5 0.184471 0.574461 0.892928
Si Si6 0.500000 0.576086 0.549928
Si Si7 0.927871 0.425907 0.949879
O O1 0.854744 0.500000 0.500000
O O2 0.806991 0.750000 0.524122
O O3 0.750000 0.500000 0.546288
O O4 0.839364 0.583274 0.595721
O O5 0.561685 0.250000 0.616508
O O6 0.588016 0.017952 0.669711
O O7 0.558746 0.971855 0.581024
O O8 0.071555 0.750000 0.724855
O O9 0.124097 0.991338 0.757196
O O10 0.000000 0.985743 0.735546
O O11 0.807229 0.250000 0.227286
O O12 0.750000 0.500000 0.235340
O O13 0.823111 0.456570 0.161928
O O14 0.186349 0.750000 0.904869
O O15 0.250000 0.500000 0.911263
O O16 0.122878 0.499635 0.915454
O O17 0.500000 0.750000 0.540776
O O18 0.500000 0.500000 0.500000
O O19 0.914739 0.250000 0.953616
O O20 0.000000 0.455994 0.932215
O O21 0.917739 0.500000 0.000000
#
# Coordination Sequence:
#
# PCOD8279684 Si02
#       7
#    16  16  16  16  16   8  16
#     4  10  20  33  51  73  99 130 166 204 251 303
#     4  10  20  36  56  77 102 136 173 212 259 313
#     4   9  17  33  58  81 106 141 182 224 267 324
#     4   9  19  35  57  84 111 147 189 233 285 335
#     4  10  20  35  56  83 116 151 196 246 292 345
#     4  12  24  36  54  78 104 134 170 212 261 314
#     4  10  21  37  57  83 117 156 197 241 295 351
#
# _framework density 19.221924000000001
#
# number of rings (size 3 to 8) (size 9 to 14) (size 15 to 20)
#    0.000    2.154    0.769    3.000    0.000    5.538 
#    0.000    3.846    0.000    0.000    0.000    0.000 
#    0.000    0.000    0.000    0.000    0.000    0.000 
#
# Total GULP energy -644277.465233 kJ/mol
# GULP energy per Si atom -12389.951254 kJ/mol
# Density = 1.917817 g / cm^3
# Si number density = 19.221924 Si / 1000 Ang^3
#
#
#
# Elastic Constant Matrix: (Units=GPa)
#
#
# Indices 1 2 3 4 5 6 
#
# 1 154.3111 55.4638 77.5915 0.0000 0.0000 0.0000
# 2 55.4638 108.8219 45.0490 0.0000 0.0000 0.0000
# 3 77.5915 45.0490 92.4045 0.0000 0.0000 0.0000
# 4 0.0000 0.0000 0.0000 15.4536 0.0000 0.0000
# 5 0.0000 0.0000 0.0000 0.0000 59.3273 0.0000
# 6 0.0000 0.0000 0.0000 0.0000 0.0000 28.6026
#
#
#
# Elastic Compliance Matrix: (Units=1/GPa)
#
#
# Indices 1 2 3 4 5 6 
#
# 1 0.011685 -0.002373 -0.008655 0.000000 0.000000 0.000000
# 2 -0.002373 0.011995 -0.003855 0.000000 0.000000 0.000000
# 3 -0.008655 -0.003855 0.019969 0.000000 0.000000 0.000000
# 4 0.000000 0.000000 0.000000 0.064710 0.000000 0.000000
# 5 0.000000 0.000000 0.000000 0.000000 0.016856 0.000000
# 6 0.000000 0.000000 0.000000 0.000000 0.000000 0.034962
#
#
# Mechanical properties :
#
#
# Convention : Reuss Voigt Hill
#
# Bulk Modulus (GPa) = 72.03238 79.08289 75.55764
# Shear Modulus (GPa) = 25.69755 32.50558 29.10157
#
# Velocity S-wave (km/s) = 3.66031 4.11672 3.89521
# Velocity P-wave (km/s) = 7.44441 7.98923 7.72163
#
# Compressibility (1/GPa) = 0.01388265
#
# Stress axis : x y z
#
# Youngs Moduli (GPa) = 85.57701 83.37097 50.07660
#
# Poissons Ratio (x) = 0.19781 0.43343
# Poissons Ratio (y) = 0.20305 0.19306
# Poissons Ratio (z) = 0.74071 0.32142
#
# Static dielectric constant tensor:
#      x y z
#    x 3.735860 0.000000 0.000000 
#    y 0.000000 3.483720 0.000000 
#    z 0.000000 0.000000 4.126050 
# 
# 
# High freq. dielectric constant tensor:
#      x y z
#    x 1.758030 0.000000 0.000000 
#    y 0.000000 1.735480 0.000000 
#    z 0.000000 0.000000 1.742850 
# 
# From -- ./inp_files/45895.got.cif
#   From: 2010.03.12/outbox.cif.g09.slc.cpg/sg67_23_cif.got.tgz:45895.got - 2010.04.10 22:41:39.
