data_PCOD8279935
_publ_section_title
;
Structure prediction by ZEFSAII (Michael W. Deem and Ramdas Pophale) SiO2 
 PCOD8279935
Probable space group: C M M A
;
_chemical_formula_sum "Si O2"
_cell_formula_units_Z 96
_cell_length_a 18.206322
_cell_length_b 8.762956
_cell_length_c 30.958330
_cell_angle_alpha 90.000000
_cell_angle_beta 90.000000
_cell_angle_gamma 90.000000
_cell_volume 4939.129075
_symmetry_space_group_name_H-M "C M M A"
_symmetry_group_IT_number 67
_symmetry_cell_setting 'orthorhombic'
loop_
_space_group_symop_operation_xyz
x,y,z
-x,1/2-y,z
x,-y,-z
-x,1/2+y,-z
-x,-y,-z
x,1/2+y,-z
-x,y,z
x,1/2-y,z
1/2+x,1/2+y,z
1/2-x,-y,z
1/2+x,1/2-y,-z
1/2-x,y,-z
1/2-x,1/2-y,-z
1/2+x,y,-z
1/2-x,1/2+y,z
1/2+x,-y,z
loop_
_atom_site_type_symbol
_atom_site_label
_atom_site_fract_x
_atom_site_fract_y
_atom_site_fract_z
Si Si1 0.415275 0.571336 0.045745
Si Si2 0.329673 0.568918 0.875584
Si Si3 0.912629 0.921683 0.456882
Si Si4 0.829918 0.570006 0.290742
Si Si5 0.913500 0.425689 0.368899
Si Si6 0.917616 0.931395 0.207965
O O1 0.500000 0.537409 0.056899
O O2 0.398424 0.750000 0.044641
O O3 0.364808 0.490935 0.080650
O O4 0.393801 0.500000 0.000000
O O5 0.324435 0.750000 0.877357
O O6 0.250000 0.500000 0.869021
O O7 0.378901 0.511335 0.835653
O O8 0.881756 0.750000 0.453462
O O9 0.000000 0.919696 0.459100
O O10 0.880409 0.000000 0.500000
O O11 0.886041 0.018183 0.415667
O O12 0.822550 0.750000 0.288198
O O13 0.750000 0.500000 0.291678
O O14 0.873891 0.526625 0.333366
O O15 0.873183 0.505065 0.249127
O O16 0.891225 0.250000 0.363317
O O17 0.000000 0.450753 0.363773
O O18 0.920157 0.750000 0.209247
O O19 0.000000 0.998889 0.209251
#
# Coordination Sequence:
#
# PCOD8279935 Si02
#       6
#    16  16  16  16  16  16
#     4  10  21  38  60  86 115 148 189 235 282 333
#     4  11  22  37  58  84 117 153 189 230 278 332
#     4   9  16  27  46  74 107 142 180 224 274 324
#     4  11  22  37  57  80 110 146 184 226 274 329
#     4  10  20  34  53  79 110 143 183 230 277 327
#     4   9  19  36  59  85 111 143 184 228 275 329
#
# _framework density 19.436626
#
# number of rings (size 3 to 8) (size 9 to 14) (size 15 to 20)
#    0.000    2.000    0.000    4.000    0.000    5.667 
#    0.000    4.167    0.000    6.500    0.000    3.500 
#    0.000    0.000    0.000    0.000    0.000    0.000 
#
# Total GULP energy -595363.439783 kJ/mol
# GULP energy per Si atom -12403.404995 kJ/mol
# Density = 1.939239 g / cm^3
# Si number density = 19.436626 Si / 1000 Ang^3
#
#
#
# Elastic Constant Matrix: (Units=GPa)
#
#
# Indices 1 2 3 4 5 6 
#
# 1 67.7517 34.9936 52.7417 0.0000 0.0000 0.0000
# 2 34.9936 83.5813 38.6507 0.0000 0.0000 0.0000
# 3 52.7417 38.6507 145.2724 0.0000 0.0000 0.0000
# 4 0.0000 0.0000 0.0000 25.1527 0.0000 0.0000
# 5 0.0000 0.0000 0.0000 0.0000 0.9682 0.0000
# 6 0.0000 0.0000 0.0000 0.0000 0.0000 21.8338
#
#
#
# Elastic Compliance Matrix: (Units=1/GPa)
#
#
# Indices 1 2 3 4 5 6 
#
# 1 0.023469 -0.006712 -0.006735 0.000000 0.000000 0.000000
# 2 -0.006712 0.015562 -0.001704 0.000000 0.000000 0.000000
# 3 -0.006735 -0.001704 0.009782 0.000000 0.000000 0.000000
# 4 0.000000 0.000000 0.000000 0.039757 0.000000 0.000000
# 5 0.000000 0.000000 0.000000 0.000000 1.032873 0.000000
# 6 0.000000 0.000000 0.000000 0.000000 0.000000 0.045800
#
#
# Mechanical properties :
#
#
# Convention : Reuss Voigt Hill
#
# Bulk Modulus (GPa) = 54.01627 61.04194 57.52910
# Shear Modulus (GPa) = 4.15381 20.93890 12.54635
#
# Velocity S-wave (km/s) = 1.46347 3.28577 2.54343
# Velocity P-wave (km/s) = 5.54139 6.77266 6.18772
#
# Compressibility (1/GPa) = 0.01851294
#
# Stress axis : x y z
#
# Youngs Moduli (GPa) = 42.60927 64.25809 102.22803
#
# Poissons Ratio (x) = 0.43127 0.68849
# Poissons Ratio (y) = 0.28597 0.17417
# Poissons Ratio (z) = 0.28697 0.10948
#
# Static dielectric constant tensor:
#      x y z
#    x 3.482020 0.000000 0.000000 
#    y 0.000000 3.530710 0.000000 
#    z 0.000000 0.000000 3.759040 
# 
# 
# High freq. dielectric constant tensor:
#      x y z
#    x 1.741210 0.000000 0.000000 
#    y 0.000000 1.755710 0.000000 
#    z 0.000000 0.000000 1.775900 
# 
# From -- ./inp_files/44608.got.cif
#   From: 2010.03.12/outbox.cif.g09.slc.cpg/sg67_23_cif.got.tgz:44608.got - 2010.04.10 22:41:39.
