data_PCOD8279585
_publ_section_title
;
Structure prediction by ZEFSAII (Michael W. Deem and Ramdas Pophale) SiO2 
 PCOD8279585
Probable space group: C M M A
;
_chemical_formula_sum "Si O2"
_cell_formula_units_Z 104
_cell_length_a 8.988504
_cell_length_b 20.459908
_cell_length_c 29.230050
_cell_angle_alpha 90.000000
_cell_angle_beta 90.000000
_cell_angle_gamma 90.000000
_cell_volume 5375.522089
_symmetry_space_group_name_H-M "C M M A"
_symmetry_group_IT_number 67
_symmetry_cell_setting 'orthorhombic'
loop_
_space_group_symop_operation_xyz
x,y,z
-x,1/2-y,z
x,-y,-z
-x,1/2+y,-z
-x,-y,-z
x,1/2+y,-z
-x,y,z
x,1/2-y,z
1/2+x,1/2+y,z
1/2-x,-y,z
1/2+x,1/2-y,-z
1/2-x,y,-z
1/2-x,1/2-y,-z
1/2+x,y,-z
1/2-x,1/2+y,z
1/2+x,-y,z
loop_
_atom_site_type_symbol
_atom_site_label
_atom_site_fract_x
_atom_site_fract_y
_atom_site_fract_z
Si Si1 0.332686 0.250000 0.046523
Si Si2 0.829757 0.676301 0.296092
Si Si3 0.330798 0.675512 0.811490
Si Si4 0.826921 0.069856 0.457525
Si Si5 0.825169 0.891608 0.049570
Si Si6 0.175529 0.063106 0.136306
Si Si7 0.172911 0.569816 0.643800
O O1 0.500000 0.250000 0.030049
O O2 0.299397 0.318492 0.071945
O O3 0.250000 0.250000 0.000000
O O4 0.780874 0.750000 0.309745
O O5 0.810029 0.666683 0.242320
O O6 0.728169 0.623627 0.320895
O O7 0.000000 0.664639 0.310563
O O8 0.500000 0.658043 0.825928
O O9 0.295461 0.750000 0.826095
O O10 0.216100 0.628116 0.836277
O O11 0.750000 0.109953 0.500000
O O12 0.798956 0.099992 0.407170
O O13 0.000000 0.063109 0.468260
O O14 0.750000 0.000000 0.456294
O O15 0.741965 0.938035 0.084931
O O16 0.000000 0.908803 0.045901
O O17 0.750000 0.899059 0.000000
O O18 0.000000 0.055179 0.134568
O O19 0.250000 0.000000 0.161019
O O20 0.250000 0.500000 0.651650
O O21 0.000000 0.557282 0.652166
#
# Coordination Sequence:
#
# PCOD8279585 Si02
#       7
#     8  16  16  16  16  16  16
#     4   8  16  30  52  80 110 142 176 216 262 306
#     4   9  19  37  60  84 110 143 182 224 276 336
#     4   9  20  41  66  88 112 144 182 226 277 333
#     4   9  16  26  42  67 100 139 182 227 276 325
#     4  10  20  37  59  86 117 152 188 227 273 322
#     4  12  26  42  60  86 117 152 190 229 275 328
#     4  10  20  32  50  79 112 146 185 231 280 331
#
# _framework density 19.346958999999998
#
# number of rings (size 3 to 8) (size 9 to 14) (size 15 to 20)
#    0.000    2.308    0.000    4.154    1.077    4.615 
#    0.000    3.077    0.000    0.462    0.000    0.000 
#    0.000    0.000    0.000    0.000    0.000    0.000 
#
# Total GULP energy -644367.486311 kJ/mol
# GULP energy per Si atom -12391.682429 kJ/mol
# Density = 1.930292 g / cm^3
# Si number density = 19.346959 Si / 1000 Ang^3
#
#
#
# Elastic Constant Matrix: (Units=GPa)
#
#
# Indices 1 2 3 4 5 6 
#
# 1 139.0189 59.7073 47.7590 0.0000 0.0000 0.0000
# 2 59.7073 100.9605 46.1340 0.0000 0.0000 0.0000
# 3 47.7590 46.1340 60.2121 0.0000 0.0000 0.0000
# 4 0.0000 0.0000 0.0000 18.6916 0.0000 0.0000
# 5 0.0000 0.0000 0.0000 0.0000 32.1891 0.0000
# 6 0.0000 0.0000 0.0000 0.0000 0.0000 30.5380
#
#
#
# Elastic Compliance Matrix: (Units=1/GPa)
#
#
# Indices 1 2 3 4 5 6 
#
# 1 0.010753 -0.003788 -0.005627 0.000000 0.000000 0.000000
# 2 -0.003788 0.016575 -0.009695 0.000000 0.000000 0.000000
# 3 -0.005627 -0.009695 0.028499 0.000000 0.000000 0.000000
# 4 0.000000 0.000000 0.000000 0.053500 0.000000 0.000000
# 5 0.000000 0.000000 0.000000 0.000000 0.031066 0.000000
# 6 0.000000 0.000000 0.000000 0.000000 0.000000 0.032746
#
#
# Mechanical properties :
#
#
# Convention : Reuss Voigt Hill
#
# Bulk Modulus (GPa) = 56.79343 67.48801 62.14072
# Shear Modulus (GPa) = 23.01703 26.05648 24.53676
#
# Velocity S-wave (km/s) = 3.45294 3.67386 3.56511
# Velocity P-wave (km/s) = 6.73172 7.27702 7.00967
#
# Compressibility (1/GPa) = 0.01760767
#
# Stress axis : x y z
#
# Youngs Moduli (GPa) = 92.99444 60.33017 35.08851
#
# Poissons Ratio (x) = 0.22855 0.19743
# Poissons Ratio (y) = 0.35229 0.34019
# Poissons Ratio (z) = 0.52326 0.58491
#
# Static dielectric constant tensor:
#      x y z
#    x 3.541550 0.000000 0.000000 
#    y 0.000000 3.587620 0.000000 
#    z 0.000000 0.000000 3.922760 
# 
# 
# High freq. dielectric constant tensor:
#      x y z
#    x 1.758690 0.000000 0.000000 
#    y 0.000000 1.739240 0.000000 
#    z 0.000000 0.000000 1.753650 
# 
# From -- ./inp_files/43583.got.cif
#   From: 2010.03.12/outbox.cif.g09.slc.cpg/sg67_22_cif.got.tgz:43583.got - 2010.04.10 22:41:39.
