data_PCOD8279347
_publ_section_title
;
Structure prediction by ZEFSAII (Michael W. Deem and Ramdas Pophale) SiO2 
 PCOD8279347
Probable space group: C M M A
;
_chemical_formula_sum "Si O2"
_cell_formula_units_Z 88
_cell_length_a 23.819416
_cell_length_b 9.990752
_cell_length_c 20.495990
_cell_angle_alpha 90.000000
_cell_angle_beta 90.000000
_cell_angle_gamma 90.000000
_cell_volume 4877.510225
_symmetry_space_group_name_H-M "C M M A"
_symmetry_group_IT_number 67
_symmetry_cell_setting 'orthorhombic'
loop_
_space_group_symop_operation_xyz
x,y,z
-x,1/2-y,z
x,-y,-z
-x,1/2+y,-z
-x,-y,-z
x,1/2+y,-z
-x,y,z
x,1/2-y,z
1/2+x,1/2+y,z
1/2-x,-y,z
1/2+x,1/2-y,-z
1/2-x,y,-z
1/2-x,1/2-y,-z
1/2+x,y,-z
1/2-x,1/2+y,z
1/2+x,-y,z
loop_
_atom_site_type_symbol
_atom_site_label
_atom_site_fract_x
_atom_site_fract_y
_atom_site_fract_z
Si Si1 0.000000 0.090233 0.796288
Si Si2 0.909778 0.903165 0.303941
Si Si3 0.699407 0.597819 0.915197
Si Si4 0.433985 0.900585 0.554279
Si Si5 0.901209 0.000000 0.000000
Si Si6 0.203362 0.099657 0.766301
Si Si7 0.000000 0.603130 0.916792
O O1 0.947011 0.037626 0.754596
O O2 0.000000 0.250000 0.810464
O O3 0.000000 0.016656 0.865271
O O4 0.928687 0.750000 0.310848
O O5 0.920160 0.967055 0.375070
O O6 0.846007 0.921667 0.284475
O O7 0.720943 0.750000 0.924462
O O8 0.750000 0.500000 0.939394
O O9 0.684793 0.565558 0.840035
O O10 0.640624 0.581600 0.952736
O O11 0.500000 0.891584 0.544646
O O12 0.408174 0.750000 0.547173
O O13 0.407660 0.000000 0.500000
O O14 0.942943 0.903730 0.959686
O O15 0.226916 0.250000 0.763142
O O16 0.250000 0.000000 0.740655
O O17 0.000000 0.750000 0.883557
#
# Coordination Sequence:
#
# PCOD8279347 Si02
#       7
#     8  16  16  16   8  16   8
#     4  10  19  35  57  78  99 131 172 209 252 312
#     4   9  16  30  54  77  99 133 174 206 238 298
#     4  10  21  37  57  80 101 127 167 216 264 309
#     4   9  16  28  47  74 105 134 165 202 243 288
#     4  11  23  38  56  72  99 141 178 204 250 325
#     4   9  18  33  52  74  98 126 164 208 250 292
#     4  11  25  39  52  75 107 137 171 219 265 304
#
# _framework density 18.041992
#
# number of rings (size 3 to 8) (size 9 to 14) (size 15 to 20)
#    0.000    2.364    0.909    1.909    0.000    5.818 
#    0.000    6.364    0.000    0.545    0.000    3.818 
#    0.000    0.000    0.000    0.000    0.000    0.000 
#
# Total GULP energy -545337.247245 kJ/mol
# GULP energy per Si atom -12394.028346 kJ/mol
# Density = 1.800093 g / cm^3
# Si number density = 18.041992 Si / 1000 Ang^3
#
#
#
# Elastic Constant Matrix: (Units=GPa)
#
#
# Indices 1 2 3 4 5 6 
#
# 1 85.6067 42.6517 34.6168 0.0000 0.0000 0.0000
# 2 42.6517 88.4867 44.5506 0.0000 0.0000 0.0000
# 3 34.6168 44.5506 98.3251 0.0000 0.0000 0.0000
# 4 0.0000 0.0000 0.0000 23.3565 0.0000 0.0000
# 5 0.0000 0.0000 0.0000 0.0000 16.9207 0.0000
# 6 0.0000 0.0000 0.0000 0.0000 0.0000 16.7378
#
#
#
# Elastic Compliance Matrix: (Units=1/GPa)
#
#
# Indices 1 2 3 4 5 6 
#
# 1 0.015931 -0.006290 -0.002759 0.000000 0.000000 0.000000
# 2 -0.006290 0.017124 -0.005545 0.000000 0.000000 0.000000
# 3 -0.002759 -0.005545 0.013654 0.000000 0.000000 0.000000
# 4 0.000000 0.000000 0.000000 0.042815 0.000000 0.000000
# 5 0.000000 0.000000 0.000000 0.000000 0.059099 0.000000
# 6 0.000000 0.000000 0.000000 0.000000 0.000000 0.059745
#
#
# Mechanical properties :
#
#
# Convention : Reuss Voigt Hill
#
# Bulk Modulus (GPa) = 57.06900 57.33962 57.20431
# Shear Modulus (GPa) = 20.54276 21.44297 20.99287
#
# Velocity S-wave (km/s) = 3.37799 3.45121 3.41479
# Velocity P-wave (km/s) = 6.84940 6.90879 6.87916
#
# Compressibility (1/GPa) = 0.01752265
#
# Stress axis : x y z
#
# Youngs Moduli (GPa) = 62.77209 58.39599 73.23959
#
# Poissons Ratio (x) = 0.36730 0.20205
# Poissons Ratio (y) = 0.39483 0.40608
# Poissons Ratio (z) = 0.17317 0.32378
#
# Static dielectric constant tensor:
#      x y z
#    x 3.248540 0.000000 0.000000 
#    y 0.000000 3.275850 0.000000 
#    z 0.000000 0.000000 3.403550 
# 
# 
# High freq. dielectric constant tensor:
#      x y z
#    x 1.684770 0.000000 0.000000 
#    y 0.000000 1.678200 0.000000 
#    z 0.000000 0.000000 1.701290 
# 
# From -- ./inp_files/39638.got.cif
#   From: 2010.03.12/outbox.cif.g09.slc.cpg/sg67_20_cif.got.tgz:39638.got - 2010.04.10 22:41:39.
