data_PCOD8279989
_publ_section_title
;
Structure prediction by ZEFSAII (Michael W. Deem and Ramdas Pophale) SiO2 
 PCOD8279989
Probable space group: C M M A
;
_chemical_formula_sum "Si O2"
_cell_formula_units_Z 72
_cell_length_a 8.802248
_cell_length_b 32.286693
_cell_length_c 13.529616
_cell_angle_alpha 90.000000
_cell_angle_beta 90.000000
_cell_angle_gamma 90.000000
_cell_volume 3845.055698
_symmetry_space_group_name_H-M "C M M A"
_symmetry_group_IT_number 67
_symmetry_cell_setting 'orthorhombic'
loop_
_space_group_symop_operation_xyz
x,y,z
-x,1/2-y,z
x,-y,-z
-x,1/2+y,-z
-x,-y,-z
x,1/2+y,-z
-x,y,z
x,1/2-y,z
1/2+x,1/2+y,z
1/2-x,-y,z
1/2+x,1/2-y,-z
1/2-x,y,-z
1/2-x,1/2-y,-z
1/2+x,y,-z
1/2-x,1/2+y,z
1/2+x,-y,z
loop_
_atom_site_type_symbol
_atom_site_label
_atom_site_fract_x
_atom_site_fract_y
_atom_site_fract_z
Si Si1 0.819452 0.585339 0.603783
Si Si2 0.679356 0.163727 0.303195
Si Si3 0.176300 0.624502 0.101968
Si Si4 0.819978 0.957297 0.211431
Si Si5 0.178258 0.750000 0.393024
O O1 0.750000 0.571240 0.500000
O O2 0.768253 0.632227 0.626373
O O3 0.754989 0.553479 0.683988
O O4 0.000000 0.582772 0.600943
O O5 0.500000 0.155894 0.318226
O O6 0.725747 0.155903 0.189197
O O7 0.730548 0.209879 0.331551
O O8 0.224239 0.577916 0.132057
O O9 0.000000 0.627129 0.083945
O O10 0.250000 0.638601 0.000000
O O11 0.000000 0.960554 0.225169
O O12 0.750000 0.000000 0.171282
O O13 0.250000 0.750000 0.500000
O O14 0.000000 0.750000 0.407970
#
# Coordination Sequence:
#
# PCOD8279989 Si02
#       5
#    16  16  16  16   8
#     4  11  21  34  53  76 104 141 178 216 261 314
#     4   9  19  36  54  77 107 140 176 218 263 312
#     4   9  19  35  55  76 103 137 175 216 262 311
#     4  10  21  37  54  77 106 136 173 219 264 312
#     4  10  20  34  55  80 110 142 175 214 261 310
#
# _framework density 18.725346999999999
#
# number of rings (size 3 to 8) (size 9 to 14) (size 15 to 20)
#    0.000    2.222    0.000    4.667    0.000    8.000 
#    0.000    5.000    0.000    0.000    0.000    0.000 
#    0.000    0.000    0.000    0.000    0.000    0.000 
#
# Total GULP energy -446453.042152 kJ/mol
# GULP energy per Si atom -12401.473393 kJ/mol
# Density = 1.868273 g / cm^3
# Si number density = 18.725347 Si / 1000 Ang^3
#
#
#
# Elastic Constant Matrix: (Units=GPa)
#
#
# Indices 1 2 3 4 5 6 
#
# 1 69.5923 26.3017 34.4147 0.0000 0.0000 0.0000
# 2 26.3017 114.5859 38.1128 0.0000 0.0000 0.0000
# 3 34.4147 38.1128 123.5996 0.0000 0.0000 0.0000
# 4 0.0000 0.0000 0.0000 16.0080 0.0000 0.0000
# 5 0.0000 0.0000 0.0000 0.0000 34.5511 0.0000
# 6 0.0000 0.0000 0.0000 0.0000 0.0000 26.1815
#
#
#
# Elastic Compliance Matrix: (Units=1/GPa)
#
#
# Indices 1 2 3 4 5 6 
#
# 1 0.017356 -0.002648 -0.004016 0.000000 0.000000 0.000000
# 2 -0.002648 0.010128 -0.002386 0.000000 0.000000 0.000000
# 3 -0.004016 -0.002386 0.009945 0.000000 0.000000 0.000000
# 4 0.000000 0.000000 0.000000 0.062469 0.000000 0.000000
# 5 0.000000 0.000000 0.000000 0.000000 0.028943 0.000000
# 6 0.000000 0.000000 0.000000 0.000000 0.000000 0.038195
#
#
# Mechanical properties :
#
#
# Convention : Reuss Voigt Hill
#
# Bulk Modulus (GPa) = 51.73509 56.15958 53.94733
# Shear Modulus (GPa) = 26.09890 29.27800 27.68845
#
# Velocity S-wave (km/s) = 3.73738 3.95846 3.84951
# Velocity P-wave (km/s) = 6.80532 7.13785 6.97357
#
# Compressibility (1/GPa) = 0.01932924
#
# Stress axis : x y z
#
# Youngs Moduli (GPa) = 57.61613 98.73138 100.55749
#
# Poissons Ratio (x) = 0.26145 0.40384
# Poissons Ratio (y) = 0.15257 0.23992
# Poissons Ratio (z) = 0.23139 0.23556
#
# Static dielectric constant tensor:
#      x y z
#    x 3.382240 0.000000 0.000000 
#    y 0.000000 3.534830 0.000000 
#    z 0.000000 0.000000 3.473590 
# 
# 
# High freq. dielectric constant tensor:
#      x y z
#    x 1.727680 0.000000 0.000000 
#    y 0.000000 1.721770 0.000000 
#    z 0.000000 0.000000 1.728130 
# 
# From -- ./inp_files/25281.got.cif
#   From: 2010.03.12/outbox.cif.g09.slc.cpg/sg67_13_cif.got.tgz:25281.got - 2010.04.10 22:41:39.
