data_PCOD8279475
_publ_section_title
;
Structure prediction by ZEFSAII (Michael W. Deem and Ramdas Pophale) SiO2 
 PCOD8279475
Probable space group: C M M A
;
_chemical_formula_sum "Si O2"
_cell_formula_units_Z 60
_cell_length_a 28.110765
_cell_length_b 19.656672
_cell_length_c 5.364194
_cell_angle_alpha 90.000000
_cell_angle_beta 90.000000
_cell_angle_gamma 90.000000
_cell_volume 2964.060962
_symmetry_space_group_name_H-M "C M M A"
_symmetry_group_IT_number 67
_symmetry_cell_setting 'orthorhombic'
loop_
_space_group_symop_operation_xyz
x,y,z
-x,1/2-y,z
x,-y,-z
-x,1/2+y,-z
-x,-y,-z
x,1/2+y,-z
-x,y,z
x,1/2-y,z
1/2+x,1/2+y,z
1/2-x,-y,z
1/2+x,1/2-y,-z
1/2-x,y,-z
1/2-x,1/2-y,-z
1/2+x,y,-z
1/2-x,1/2+y,z
1/2+x,-y,z
loop_
_atom_site_type_symbol
_atom_site_label
_atom_site_fract_x
_atom_site_fract_y
_atom_site_fract_z
Si Si1 0.398858 0.422208 0.005542
Si Si2 0.250000 0.500000 0.500000
Si Si3 0.797727 0.105674 0.153999
Si Si4 0.219941 0.750000 0.746906
Si Si5 0.945592 0.918988 0.504750
O O1 0.420612 0.388293 0.255660
O O2 0.415177 0.500000 0.000000
O O3 0.341746 0.416402 0.017440
O O4 0.419532 0.388680 0.751027
O O5 0.212663 0.453027 0.353148
O O6 0.810766 0.180160 0.266949
O O7 0.750000 0.113242 0.000000
O O8 0.250000 0.750000 0.500000
O O9 0.250000 0.750000 0.000000
O O10 0.000000 0.894911 0.508843
O O11 0.941063 0.000000 0.500000
#
# Coordination Sequence:
#
# PCOD8279475 Si02
#       5
#    16   4  16   8  16
#     4  10  20  31  52  79 112 143 186 230 283 340
#     4  12  22  34  60  78 126 146 194 228 294 330
#     4  11  24  37  56  85 117 157 193 236 285 344
#     4  10  22  42  58  76 113 158 201 232 276 338
#     4   9  18  32  50  76 110 146 180 229 289 342
#
# _framework density 20.242498999999999
#
# number of rings (size 3 to 8) (size 9 to 14) (size 15 to 20)
#    0.000    1.867    1.333    2.800    9.333    3.200 
#    0.000    0.000    0.000    0.000    0.000    5.600 
#    0.000    0.000    0.000    0.000    0.000    0.000 
#
# Total GULP energy -371761.158044 kJ/mol
# GULP energy per Si atom -12392.038601 kJ/mol
# Density = 2.019643 g / cm^3
# Si number density = 20.242499 Si / 1000 Ang^3
#
#
#
# Elastic Constant Matrix: (Units=GPa)
#
#
# Indices 1 2 3 4 5 6 
#
# 1 140.2428 5.3038 70.3676 0.0000 0.0000 0.0000
# 2 5.3038 90.0008 24.4624 0.0000 0.0000 0.0000
# 3 70.3676 24.4624 169.5441 0.0000 0.0000 0.0000
# 4 0.0000 0.0000 0.0000 19.4601 0.0000 0.0000
# 5 0.0000 0.0000 0.0000 0.0000 42.6997 0.0000
# 6 0.0000 0.0000 0.0000 0.0000 0.0000 -1.2196
#
#
#
# Elastic Compliance Matrix: (Units=1/GPa)
#
#
# Indices 1 2 3 4 5 6 
#
# 1 0.009028 0.000506 -0.003820 0.000000 0.000000 0.000000
# 2 0.000506 0.011593 -0.001883 0.000000 0.000000 0.000000
# 3 -0.003820 -0.001883 0.007755 0.000000 0.000000 0.000000
# 4 0.000000 0.000000 0.000000 0.051387 0.000000 0.000000
# 5 0.000000 0.000000 0.000000 0.000000 0.023419 0.000000
# 6 0.000000 0.000000 0.000000 0.000000 0.000000 -0.819940
#
#
# Mechanical properties :
#
#
# Convention : Reuss Voigt Hill
#
# Bulk Modulus (GPa) = 55.60763 66.67281 61.14022
# Shear Modulus (GPa) = -7.13909 32.16496 12.51294
#
# Velocity S-wave (km/s) = -1.88001 3.99053 2.48896
# Velocity P-wave (km/s) = 4.77680 7.36485 6.20720
#
# Compressibility (1/GPa) = 0.01798315
#
# Stress axis : x y z
#
# Youngs Moduli (GPa) = 110.76548 86.25954 128.94402
#
# Poissons Ratio (x) = -0.04367 0.49257
# Poissons Ratio (y) = -0.05608 0.24277
# Poissons Ratio (z) = 0.42313 0.16241
#
# Static dielectric constant tensor:
#      x y z
#    x 3.495360 0.000000 0.000000 
#    y 0.000000 3.543650 0.000000 
#    z 0.000000 0.000000 4.067700 
# 
# 
# High freq. dielectric constant tensor:
#      x y z
#    x 1.780910 0.000000 0.000000 
#    y 0.000000 1.741220 0.000000 
#    z 0.000000 0.000000 1.807980 
# 
# From -- ./inp_files/3954.got.cif
#   From: 2010.03.12/outbox.cif.g09.slc.cpg/sg67_2_cif.got.tgz:3954.got - 2010.04.10 22:41:39.
