data_PCOD8279652
_publ_section_title
;
Structure prediction by ZEFSAII (Michael W. Deem and Ramdas Pophale) SiO2 
 PCOD8279652
Probable space group: C M M A
;
_chemical_formula_sum "Si O2"
_cell_formula_units_Z 80
_cell_length_a 8.996975
_cell_length_b 18.512962
_cell_length_c 26.026874
_cell_angle_alpha 90.000000
_cell_angle_beta 90.000000
_cell_angle_gamma 90.000000
_cell_volume 4335.053215
_symmetry_space_group_name_H-M "C M M A"
_symmetry_group_IT_number 67
_symmetry_cell_setting 'orthorhombic'
loop_
_space_group_symop_operation_xyz
x,y,z
-x,1/2-y,z
x,-y,-z
-x,1/2+y,-z
-x,-y,-z
x,1/2+y,-z
-x,y,z
x,1/2-y,z
1/2+x,1/2+y,z
1/2-x,-y,z
1/2+x,1/2-y,-z
1/2-x,y,-z
1/2-x,1/2-y,-z
1/2+x,y,-z
1/2-x,1/2+y,z
1/2+x,-y,z
loop_
_atom_site_type_symbol
_atom_site_label
_atom_site_fract_x
_atom_site_fract_y
_atom_site_fract_z
Si Si1 0.831604 0.835791 0.138836
Si Si2 0.166358 0.163793 0.550003
Si Si3 0.332612 0.335836 0.648715
Si Si4 0.332908 0.664141 0.238545
Si Si5 0.177930 0.424142 0.053605
O O1 0.823399 0.750000 0.136449
O O2 0.776793 0.865033 0.194354
O O3 0.720553 0.865245 0.095802
O O4 0.000000 0.863140 0.129928
O O5 0.174433 0.250000 0.550727
O O6 0.250000 0.133299 0.500000
O O7 0.234793 0.131416 0.602604
O O8 0.000000 0.135185 0.546544
O O9 0.500000 0.362920 0.640352
O O10 0.326484 0.250000 0.646387
O O11 0.275567 0.361883 0.705094
O O12 0.500000 0.635056 0.228525
O O13 0.335823 0.750000 0.237502
O O14 0.250000 0.500000 0.070309
O O15 0.000000 0.430616 0.048404
O O16 0.250000 0.398798 0.000000
#
# Coordination Sequence:
#
# PCOD8279652 Si02
#       5
#    16  16  16  16  16
#     4  10  20  33  50  74 102 129 160 198 237 278
#     4   9  15  20  26  37  55  82 120 166 213 259
#     4   8  13  21  32  45  64  92 127 168 214 263
#     4   8  14  25  40  58  81 110 143 180 225 273
#     4  11  22  38  58  77 100 128 160 195 234 282
#
# _framework density 18.454215000000001
#
# number of rings (size 3 to 8) (size 9 to 14) (size 15 to 20)
#    0.000    2.800    0.000    4.800    0.000    4.800 
#    0.000    4.000    0.000    0.000    0.000    0.000 
#    0.000    0.000    0.000    0.000    0.000    1.000 
#
# Total GULP energy -495746.565021 kJ/mol
# GULP energy per Si atom -12393.664126 kJ/mol
# Density = 1.841221 g / cm^3
# Si number density = 18.454215 Si / 1000 Ang^3
#
#
#
# Elastic Constant Matrix: (Units=GPa)
#
#
# Indices 1 2 3 4 5 6 
#
# 1 147.6282 18.5730 84.0651 0.0000 0.0000 0.0000
# 2 18.5730 11.1475 24.9582 0.0000 0.0000 0.0000
# 3 84.0651 24.9582 163.1441 0.0000 0.0000 0.0000
# 4 0.0000 0.0000 0.0000 -0.6405 0.0000 0.0000
# 5 0.0000 0.0000 0.0000 0.0000 41.1623 0.0000
# 6 0.0000 0.0000 0.0000 0.0000 0.0000 14.2082
#
#
#
# Elastic Compliance Matrix: (Units=1/GPa)
#
#
# Indices 1 2 3 4 5 6 
#
# 1 0.010014 -0.007805 -0.003966 0.000000 0.000000 0.000000
# 2 -0.007805 0.142521 -0.017781 0.000000 0.000000 0.000000
# 3 -0.003966 -0.017781 0.010893 0.000000 0.000000 0.000000
# 4 0.000000 0.000000 0.000000 -1.561160 0.000000 0.000000
# 5 0.000000 0.000000 0.000000 0.000000 0.024294 0.000000
# 6 0.000000 0.000000 0.000000 0.000000 0.000000 0.070382
#
#
# Mechanical properties :
#
#
# Convention : Reuss Voigt Hill
#
# Bulk Modulus (GPa) = 9.58559 64.12361 36.85460
# Shear Modulus (GPa) = -4.13505 23.90089 9.88292
#
# Velocity S-wave (km/s) = -1.49852 3.60272 2.31668
# Velocity P-wave (km/s) = 1.48709 7.22004 5.21250
#
# Compressibility (1/GPa) = 0.10432327
#
# Stress axis : x y z
#
# Youngs Moduli (GPa) = 99.85864 7.01653 91.79835
#
# Poissons Ratio (x) = 0.05476 0.36408
# Poissons Ratio (y) = 0.77940 1.63230
# Poissons Ratio (z) = 0.39605 0.12476
#
# Static dielectric constant tensor:
#      x y z
#    x 3.596400 0.000000 0.000000 
#    y 0.000000 2.636330 0.000000 
#    z 0.000000 0.000000 3.859310 
# 
# 
# High freq. dielectric constant tensor:
#      x y z
#    x 1.723290 0.000000 0.000000 
#    y 0.000000 1.631320 0.000000 
#    z 0.000000 0.000000 1.738980 
# 
# From -- ./inp_files/43260.got.cif
#   From: 2010.03.12/outbox.cif.g09.slc.cpg/sg67_22_cif.got.tgz:43260.got - 2010.04.10 22:41:39.
