data_PCOD8279851
_publ_section_title
;
Structure prediction by ZEFSAII (Michael W. Deem and Ramdas Pophale) SiO2 
 PCOD8279851
Probable space group: C M M A
;
_chemical_formula_sum "Si O2"
_cell_formula_units_Z 104
_cell_length_a 9.059804
_cell_length_b 30.574819
_cell_length_c 19.465960
_cell_angle_alpha 90.000000
_cell_angle_beta 90.000000
_cell_angle_gamma 90.000000
_cell_volume 5392.107272
_symmetry_space_group_name_H-M "C M M A"
_symmetry_group_IT_number 67
_symmetry_cell_setting 'orthorhombic'
loop_
_space_group_symop_operation_xyz
x,y,z
-x,1/2-y,z
x,-y,-z
-x,1/2+y,-z
-x,-y,-z
x,1/2+y,-z
-x,y,z
x,1/2-y,z
1/2+x,1/2+y,z
1/2-x,-y,z
1/2+x,1/2-y,-z
1/2-x,y,-z
1/2-x,1/2-y,-z
1/2+x,y,-z
1/2-x,1/2+y,z
1/2+x,-y,z
loop_
_atom_site_type_symbol
_atom_site_label
_atom_site_fract_x
_atom_site_fract_y
_atom_site_fract_z
Si Si1 0.840389 0.617944 0.556477
Si Si2 0.338210 0.682506 0.328823
Si Si3 0.173068 0.299490 0.070596
Si Si4 0.825610 0.546109 0.222902
Si Si5 0.829964 0.042934 0.618476
Si Si6 0.823773 0.250000 0.576499
Si Si7 0.324523 0.636101 0.191952
O O1 0.750000 0.647574 0.500000
O O2 0.866945 0.639049 0.629253
O O3 0.729290 0.578298 0.566176
O O4 0.000000 0.604295 0.526737
O O5 0.500000 0.705916 0.318753
O O6 0.224857 0.709866 0.375111
O O7 0.271477 0.666401 0.256284
O O8 0.218590 0.250000 0.093370
O O9 0.222831 0.335038 0.126645
O O10 0.000000 0.301918 0.058535
O O11 0.250000 0.312791 0.000000
O O12 0.750000 0.500000 0.199004
O O13 0.793322 0.554357 0.302693
O O14 0.755131 0.588824 0.185851
O O15 0.000000 0.543421 0.206241
O O16 0.000000 0.035760 0.607450
O O17 0.750000 0.000000 0.594832
O O18 0.750000 0.250000 0.500000
O O19 0.000000 0.250000 0.565756
O O20 0.500000 0.628225 0.196726
#
# Coordination Sequence:
#
# PCOD8279851 Si02
#       7
#    16  16  16  16  16   8  16
#     4  11  22  36  54  75 101 137 179 227 283 338
#     4  10  22  39  60  83 109 143 186 236 288 345
#     4   9  19  36  60  90 125 164 198 232 278 339
#     4  10  20  34  56  84 117 153 192 240 293 348
#     4  10  20  34  52  74 103 138 178 226 278 336
#     4  12  26  42  60  80 109 148 193 242 297 356
#     4  10  20  36  61  90 120 155 197 242 290 346
#
# _framework density 19.28745
#
# number of rings (size 3 to 8) (size 9 to 14) (size 15 to 20)
#    0.000    1.846    1.538    2.538    1.077    5.231 
#    0.000    1.538    0.000    0.462    0.000    3.231 
#    0.000    0.000    0.000    0.000    0.000    0.000 
#
# Total GULP energy -644205.274813 kJ/mol
# GULP energy per Si atom -12388.562977 kJ/mol
# Density = 1.924355 g / cm^3
# Si number density = 19.287450 Si / 1000 Ang^3
#
#
#
# Elastic Constant Matrix: (Units=GPa)
#
#
# Indices 1 2 3 4 5 6 
#
# 1 96.2390 57.8472 44.1722 0.0000 0.0000 0.0000
# 2 57.8472 115.2649 62.6263 0.0000 0.0000 0.0000
# 3 44.1722 62.6263 112.2209 0.0000 0.0000 0.0000
# 4 0.0000 0.0000 0.0000 29.0428 0.0000 0.0000
# 5 0.0000 0.0000 0.0000 0.0000 27.6870 0.0000
# 6 0.0000 0.0000 0.0000 0.0000 0.0000 27.3406
#
#
#
# Elastic Compliance Matrix: (Units=1/GPa)
#
#
# Indices 1 2 3 4 5 6 
#
# 1 0.015354 -0.006346 -0.002502 0.000000 0.000000 0.000000
# 2 -0.006346 0.015074 -0.005914 0.000000 0.000000 0.000000
# 3 -0.002502 -0.005914 0.013196 0.000000 0.000000 0.000000
# 4 0.000000 0.000000 0.000000 0.034432 0.000000 0.000000
# 5 0.000000 0.000000 0.000000 0.000000 0.036118 0.000000
# 6 0.000000 0.000000 0.000000 0.000000 0.000000 0.036576
#
#
# Mechanical properties :
#
#
# Convention : Reuss Voigt Hill
#
# Bulk Modulus (GPa) = 70.92545 72.55736 71.74141
# Shear Modulus (GPa) = 27.03085 27.41935 27.22510
#
# Velocity S-wave (km/s) = 3.74769 3.77452 3.76113
# Velocity P-wave (km/s) = 7.45517 7.52972 7.49254
#
# Compressibility (1/GPa) = 0.01409931
#
# Stress axis : x y z
#
# Youngs Moduli (GPa) = 65.13108 66.33994 75.77858
#
# Poissons Ratio (x) = 0.42100 0.18960
# Poissons Ratio (y) = 0.41332 0.44817
# Poissons Ratio (z) = 0.16296 0.39235
#
# Static dielectric constant tensor:
#      x y z
#    x 4.051750 0.000000 0.000000 
#    y 0.000000 3.524280 0.000000 
#    z 0.000000 0.000000 3.450810 
# 
# 
# High freq. dielectric constant tensor:
#      x y z
#    x 1.754970 0.000000 0.000000 
#    y 0.000000 1.751200 0.000000 
#    z 0.000000 0.000000 1.732940 
# 
# From -- ./inp_files/37561.got.cif
#   From: 2010.03.12/outbox.cif.g09.slc.cpg/sg67_19_cif.got.tgz:37561.got - 2010.04.10 22:41:39.
