data_PCOD8279919
_publ_section_title
;
Structure prediction by ZEFSAII (Michael W. Deem and Ramdas Pophale) SiO2 
 PCOD8279919
Probable space group: C M M A
;
_chemical_formula_sum "Si O2"
_cell_formula_units_Z 112
_cell_length_a 14.619903
_cell_length_b 20.149378
_cell_length_c 18.248869
_cell_angle_alpha 90.000000
_cell_angle_beta 90.000000
_cell_angle_gamma 90.000000
_cell_volume 5375.787449
_symmetry_space_group_name_H-M "C M M A"
_symmetry_group_IT_number 67
_symmetry_cell_setting 'orthorhombic'
loop_
_space_group_symop_operation_xyz
x,y,z
-x,1/2-y,z
x,-y,-z
-x,1/2+y,-z
-x,-y,-z
x,1/2+y,-z
-x,y,z
x,1/2-y,z
1/2+x,1/2+y,z
1/2-x,-y,z
1/2+x,1/2-y,-z
1/2-x,y,-z
1/2-x,1/2-y,-z
1/2+x,y,-z
1/2-x,1/2+y,z
1/2+x,-y,z
loop_
_atom_site_type_symbol
_atom_site_label
_atom_site_fract_x
_atom_site_fract_y
_atom_site_fract_z
Si Si1 0.106352 0.437780 0.779049
Si Si2 0.643921 0.824082 0.014449
Si Si3 0.107911 0.001425 0.371160
Si Si4 0.766131 0.326150 0.726251
Si Si5 0.397346 0.954529 0.937984
Si Si6 0.899780 0.671348 0.822478
Si Si7 0.247853 0.105425 0.582302
O O1 0.123937 0.492981 0.716422
O O2 0.150343 0.368020 0.757240
O O3 0.147388 0.463302 0.857031
O O4 0.000000 0.421879 0.787877
O O5 0.600912 0.750000 0.003630
O O6 0.626419 0.851904 0.095964
O O7 0.750000 0.820007 0.000000
O O8 0.600822 0.876577 0.958561
O O9 0.157875 0.940680 0.412099
O O10 0.000000 0.002603 0.391259
O O11 0.157785 0.067670 0.398087
O O12 0.783605 0.250000 0.746959
O O13 0.673351 0.354318 0.763485
O O14 0.759306 0.333445 0.638420
O O15 0.500000 0.981708 0.931897
O O16 0.346105 0.000000 0.000000
O O17 0.902398 0.750000 0.820406
O O18 0.000000 0.642070 0.801934
O O19 0.250000 0.133735 0.500000
#
# Coordination Sequence:
#
# PCOD8279919 Si02
#       7
#    16  16  16  16  16  16  16
#     4   9  19  36  57  81 108 142 187 230 272 333
#     4  10  20  34  53  77 106 144 192 238 278 326
#     4   9  18  35  58  81 108 142 181 229 279 330
#     4  10  21  37  56  79 111 147 182 225 274 331
#     4  10  21  35  51  76 110 142 175 224 283 331
#     4   9  18  33  52  74 103 143 191 236 273 318
#     4  10  21  35  55  85 111 136 179 226 276 344
#
# _framework density 20.834157000000001
#
# number of rings (size 3 to 8) (size 9 to 14) (size 15 to 20)
#    0.000    2.429    0.000    2.143    0.000    6.286 
#    0.000    5.714    0.000    0.000    0.000    4.000 
#    0.000    0.000    0.000    0.000    0.000    0.000 
#
# Total GULP energy -694128.424250 kJ/mol
# GULP energy per Si atom -12395.150433 kJ/mol
# Density = 2.078674 g / cm^3
# Si number density = 20.834157 Si / 1000 Ang^3
#
#
#
# Elastic Constant Matrix: (Units=GPa)
#
#
# Indices 1 2 3 4 5 6 
#
# 1 98.6860 14.1208 29.4509 0.0000 0.0000 0.0000
# 2 14.1208 46.4298 22.5854 0.0000 0.0000 0.0000
# 3 29.4509 22.5854 164.8589 0.0000 0.0000 0.0000
# 4 0.0000 0.0000 0.0000 25.2050 0.0000 0.0000
# 5 0.0000 0.0000 0.0000 0.0000 26.4677 0.0000
# 6 0.0000 0.0000 0.0000 0.0000 0.0000 17.6025
#
#
#
# Elastic Compliance Matrix: (Units=1/GPa)
#
#
# Indices 1 2 3 4 5 6 
#
# 1 0.010980 -0.002555 -0.001611 0.000000 0.000000 0.000000
# 2 -0.002555 0.023670 -0.002786 0.000000 0.000000 0.000000
# 3 -0.001611 -0.002786 0.006735 0.000000 0.000000 0.000000
# 4 0.000000 0.000000 0.000000 0.039675 0.000000 0.000000
# 5 0.000000 0.000000 0.000000 0.000000 0.037782 0.000000
# 6 0.000000 0.000000 0.000000 0.000000 0.000000 0.056810
#
#
# Mechanical properties :
#
#
# Convention : Reuss Voigt Hill
#
# Bulk Modulus (GPa) = 36.39100 49.14321 42.76711
# Shear Modulus (GPa) = 25.16125 30.10954 27.63539
#
# Velocity S-wave (km/s) = 3.47896 3.80570 3.64599
# Velocity P-wave (km/s) = 5.80021 6.55364 6.18840
#
# Compressibility (1/GPa) = 0.02747932
#
# Stress axis : x y z
#
# Youngs Moduli (GPa) = 91.07735 42.24675 148.46997
#
# Poissons Ratio (x) = 0.10796 0.23924
# Poissons Ratio (y) = 0.23274 0.41368
# Poissons Ratio (z) = 0.14676 0.11771
#
# Static dielectric constant tensor:
#      x y z
#    x 3.815330 0.000000 0.000000 
#    y 0.000000 3.503240 0.000000 
#    z 0.000000 0.000000 4.032210 
# 
# 
# High freq. dielectric constant tensor:
#      x y z
#    x 1.814870 0.000000 0.000000 
#    y 0.000000 1.789910 0.000000 
#    z 0.000000 0.000000 1.821000 
# 
# From -- ./inp_files/27570.got.cif
#   From: 2010.03.12/outbox.cif.g09.slc.cpg/sg67_14_cif.got.tgz:27570.got - 2010.04.10 22:41:39.
