data_PCOD8279328
_publ_section_title
;
Structure prediction by ZEFSAII (Michael W. Deem and Ramdas Pophale) SiO2 
 PCOD8279328
Probable space group: C M M A
;
_chemical_formula_sum "Si O2"
_cell_formula_units_Z 96
_cell_length_a 23.885183
_cell_length_b 9.196925
_cell_length_c 24.969822
_cell_angle_alpha 90.000000
_cell_angle_beta 90.000000
_cell_angle_gamma 90.000000
_cell_volume 5485.126708
_symmetry_space_group_name_H-M "C M M A"
_symmetry_group_IT_number 67
_symmetry_cell_setting 'orthorhombic'
loop_
_space_group_symop_operation_xyz
x,y,z
-x,1/2-y,z
x,-y,-z
-x,1/2+y,-z
-x,-y,-z
x,1/2+y,-z
-x,y,z
x,1/2-y,z
1/2+x,1/2+y,z
1/2-x,-y,z
1/2+x,1/2-y,-z
1/2-x,y,-z
1/2-x,1/2-y,-z
1/2+x,y,-z
1/2-x,1/2+y,z
1/2+x,-y,z
loop_
_atom_site_type_symbol
_atom_site_label
_atom_site_fract_x
_atom_site_fract_y
_atom_site_fract_z
Si Si1 0.564357 0.419602 0.555897
Si Si2 0.106039 0.077965 0.653167
Si Si3 0.000000 0.404232 0.191498
Si Si4 0.392818 0.581733 0.836187
Si Si5 0.808150 0.080361 0.746492
Si Si6 0.063712 0.417385 0.947521
Si Si7 0.500000 0.591254 0.311268
O O1 0.570675 0.500000 0.500000
O O2 0.500000 0.441215 0.577788
O O3 0.578630 0.250000 0.548424
O O4 0.609340 0.494429 0.595924
O O5 0.099474 0.250000 0.643626
O O6 0.158171 0.043185 0.692047
O O7 0.052683 0.011233 0.681063
O O8 0.054032 0.496982 0.182258
O O9 0.000000 0.250000 0.158575
O O10 0.000000 0.355686 0.251762
O O11 0.403281 0.750000 0.823328
O O12 0.339582 0.528430 0.801321
O O13 0.390322 0.554474 0.900497
O O14 0.796061 0.250000 0.749988
O O15 0.750000 0.000000 0.743236
O O16 0.062035 0.250000 0.962893
O O17 0.000000 0.467219 0.930513
O O18 0.084890 0.500000 0.000000
O O19 0.500000 0.750000 0.343692
#
# Coordination Sequence:
#
# PCOD8279328 Si02
#       7
#    16  16   8  16  16  16   8
#     4  10  20  33  51  79 115 149 180 214 258 311
#     4  11  21  34  55  79 107 144 179 215 263 321
#     4  11  21  29  46  79 110 137 170 215 264 314
#     4  10  19  35  54  74 104 144 178 211 263 323
#     4  10  23  39  57  78 102 137 181 224 270 319
#     4   9  17  29  48  73 106 141 172 210 254 311
#     4  11  21  31  46  77 112 141 171 211 265 316
#
# _framework density 17.501874999999998
#
# number of rings (size 3 to 8) (size 9 to 14) (size 15 to 20)
#    0.000    1.833    3.333    1.500    0.000    4.000 
#    0.000    0.000    0.000    1.000    0.000    7.000 
#    0.000    0.000    0.000    0.000    0.000    0.000 
#
# Total GULP energy -594656.140041 kJ/mol
# GULP energy per Si atom -12388.669584 kJ/mol
# Density = 1.746204 g / cm^3
# Si number density = 17.501875 Si / 1000 Ang^3
#
#
#
# Elastic Constant Matrix: (Units=GPa)
#
#
# Indices 1 2 3 4 5 6 
#
# 1 110.7348 58.0516 58.3030 0.0000 0.0000 0.0000
# 2 58.0516 86.8048 61.1880 0.0000 0.0000 0.0000
# 3 58.3030 61.1880 125.3003 0.0000 0.0000 0.0000
# 4 0.0000 0.0000 0.0000 30.5348 0.0000 0.0000
# 5 0.0000 0.0000 0.0000 0.0000 39.1211 0.0000
# 6 0.0000 0.0000 0.0000 0.0000 0.0000 32.7448
#
#
#
# Elastic Compliance Matrix: (Units=1/GPa)
#
#
# Indices 1 2 3 4 5 6 
#
# 1 0.014655 -0.007615 -0.003100 0.000000 0.000000 0.000000
# 2 -0.007615 0.021524 -0.006967 0.000000 0.000000 0.000000
# 3 -0.003100 -0.006967 0.012826 0.000000 0.000000 0.000000
# 4 0.000000 0.000000 0.000000 0.032749 0.000000 0.000000
# 5 0.000000 0.000000 0.000000 0.000000 0.025562 0.000000
# 6 0.000000 0.000000 0.000000 0.000000 0.000000 0.030539
#
#
# Mechanical properties :
#
#
# Convention : Reuss Voigt Hill
#
# Bulk Modulus (GPa) = 73.31947 75.32500 74.32224
# Shear Modulus (GPa) = 28.12645 30.16664 29.14655
#
# Velocity S-wave (km/s) = 4.01316 4.15616 4.08528
# Velocity P-wave (km/s) = 7.96600 8.13408 8.05048
#
# Compressibility (1/GPa) = 0.01363894
#
# Stress axis : x y z
#
# Youngs Moduli (GPa) = 68.23489 46.45899 77.96750
#
# Poissons Ratio (x) = 0.35381 0.24172
# Poissons Ratio (y) = 0.51964 0.54324
# Poissons Ratio (z) = 0.21155 0.32370
#
# Static dielectric constant tensor:
#      x y z
#    x 2.898780 0.000000 0.000000 
#    y 0.000000 3.347880 0.000000 
#    z 0.000000 0.000000 3.619200 
# 
# 
# High freq. dielectric constant tensor:
#      x y z
#    x 1.626720 0.000000 0.000000 
#    y 0.000000 1.692750 0.000000 
#    z 0.000000 0.000000 1.692640 
# 
# From -- ./inp_files/44802.got.cif
#   From: 2010.03.12/outbox.cif.g09.slc.cpg/sg67_23_cif.got.tgz:44802.got - 2010.04.10 22:41:39.
