data_PCOD8279760
_publ_section_title
;
Structure prediction by ZEFSAII (Michael W. Deem and Ramdas Pophale) SiO2 
 PCOD8279760
Probable space group: C M M A
;
_chemical_formula_sum "Si O2"
_cell_formula_units_Z 96
_cell_length_a 28.653197
_cell_length_b 8.752631
_cell_length_c 20.511327
_cell_angle_alpha 90.000000
_cell_angle_beta 90.000000
_cell_angle_gamma 90.000000
_cell_volume 5144.053344
_symmetry_space_group_name_H-M "C M M A"
_symmetry_group_IT_number 67
_symmetry_cell_setting 'orthorhombic'
loop_
_space_group_symop_operation_xyz
x,y,z
-x,1/2-y,z
x,-y,-z
-x,1/2+y,-z
-x,-y,-z
x,1/2+y,-z
-x,y,z
x,1/2-y,z
1/2+x,1/2+y,z
1/2-x,-y,z
1/2+x,1/2-y,-z
1/2-x,y,-z
1/2-x,1/2-y,-z
1/2+x,y,-z
1/2-x,1/2+y,z
1/2+x,-y,z
loop_
_atom_site_type_symbol
_atom_site_label
_atom_site_fract_x
_atom_site_fract_y
_atom_site_fract_z
Si Si1 0.947219 0.426693 0.770361
Si Si2 0.700956 0.569151 0.930498
Si Si3 0.800471 0.569748 0.693257
Si Si4 0.051871 0.925161 0.633068
Si Si5 0.858550 0.071385 0.180136
Si Si6 0.144947 0.428508 0.432546
O O1 0.934431 0.250000 0.779712
O O2 0.941436 0.466740 0.694658
O O3 0.913034 0.529680 0.813885
O O4 0.000000 0.461422 0.793418
O O5 0.705752 0.750000 0.936508
O O6 0.750000 0.500000 0.906159
O O7 0.661426 0.525493 0.879360
O O8 0.686741 0.500000 0.000000
O O9 0.795771 0.750000 0.690105
O O10 0.750000 0.500000 0.703265
O O11 0.832702 0.520572 0.753663
O O12 0.823967 0.506161 0.626935
O O13 0.059941 0.750000 0.656220
O O14 0.090457 0.969949 0.579421
O O15 0.000000 0.946045 0.602751
O O16 0.852465 0.250000 0.165767
O O17 0.162204 0.500000 0.500000
O O18 0.152518 0.250000 0.438279
#
# Coordination Sequence:
#
# PCOD8279760 Si02
#       6
#    16  16  16  16  16  16
#     4  10  20  33  53  84 116 144 181 229 278 331
#     4  11  22  38  59  88 123 159 195 233 277 330
#     4  10  22  38  55  77 105 137 181 229 277 330
#     4   9  17  33  55  75 102 139 176 220 277 338
#     4  11  21  37  60  85 114 150 189 232 279 332
#     4  10  21  37  52  74 103 138 180 226 277 336
#
# _framework density 18.662327000000001
#
# number of rings (size 3 to 8) (size 9 to 14) (size 15 to 20)
#    0.000    1.833    1.667    3.500    0.000    5.667 
#    0.000    1.667    0.000    0.500    0.000    0.000 
#    0.000    0.000    0.000    0.000    0.000    0.000 
#
# Total GULP energy -595302.071423 kJ/mol
# GULP energy per Si atom -12402.126488 kJ/mol
# Density = 1.861985 g / cm^3
# Si number density = 18.662327 Si / 1000 Ang^3
#
#
#
# Elastic Constant Matrix: (Units=GPa)
#
#
# Indices 1 2 3 4 5 6 
#
# 1 108.2350 37.9140 46.8876 0.0000 0.0000 0.0000
# 2 37.9140 74.5775 38.5137 0.0000 0.0000 0.0000
# 3 46.8876 38.5137 94.6724 0.0000 0.0000 0.0000
# 4 0.0000 0.0000 0.0000 29.9021 0.0000 0.0000
# 5 0.0000 0.0000 0.0000 0.0000 30.1308 0.0000
# 6 0.0000 0.0000 0.0000 0.0000 0.0000 28.2706
#
#
#
# Elastic Compliance Matrix: (Units=1/GPa)
#
#
# Indices 1 2 3 4 5 6 
#
# 1 0.012660 -0.004049 -0.004623 0.000000 0.000000 0.000000
# 2 -0.004049 0.018270 -0.005427 0.000000 0.000000 0.000000
# 3 -0.004623 -0.005427 0.015060 0.000000 0.000000 0.000000
# 4 0.000000 0.000000 0.000000 0.033442 0.000000 0.000000
# 5 0.000000 0.000000 0.000000 0.000000 0.033189 0.000000
# 6 0.000000 0.000000 0.000000 0.000000 0.000000 0.035372
#
#
# Mechanical properties :
#
#
# Convention : Reuss Voigt Hill
#
# Bulk Modulus (GPa) = 56.20406 58.23505 57.21956
# Shear Modulus (GPa) = 27.45407 27.93869 27.69638
#
# Velocity S-wave (km/s) = 3.83965 3.87339 3.85655
# Velocity P-wave (km/s) = 7.05967 7.16076 7.11039
#
# Compressibility (1/GPa) = 0.01779231
#
# Stress axis : x y z
#
# Youngs Moduli (GPa) = 78.98835 54.73466 66.40029
#
# Poissons Ratio (x) = 0.22161 0.30697
# Poissons Ratio (y) = 0.31981 0.36037
# Poissons Ratio (z) = 0.36516 0.29706
#
# Static dielectric constant tensor:
#      x y z
#    x 3.771110 0.000000 0.000000 
#    y 0.000000 3.378260 0.000000 
#    z 0.000000 0.000000 3.312840 
# 
# 
# High freq. dielectric constant tensor:
#      x y z
#    x 1.731210 0.000000 0.000000 
#    y 0.000000 1.725750 0.000000 
#    z 0.000000 0.000000 1.705980 
# 
# From -- ./inp_files/37157.got.cif
#   From: 2010.03.12/outbox.cif.g09.slc.cpg/sg67_19_cif.got.tgz:37157.got - 2010.04.10 22:41:39.
