data_PCOD8279862
_publ_section_title
;
Structure prediction by ZEFSAII (Michael W. Deem and Ramdas Pophale) SiO2 
 PCOD8279862
Probable space group: C M M A
;
_chemical_formula_sum "Si O2"
_cell_formula_units_Z 96
_cell_length_a 18.903364
_cell_length_b 8.817396
_cell_length_c 31.128939
_cell_angle_alpha 90.000000
_cell_angle_beta 90.000000
_cell_angle_gamma 90.000000
_cell_volume 5188.523182
_symmetry_space_group_name_H-M "C M M A"
_symmetry_group_IT_number 67
_symmetry_cell_setting 'orthorhombic'
loop_
_space_group_symop_operation_xyz
x,y,z
-x,1/2-y,z
x,-y,-z
-x,1/2+y,-z
-x,-y,-z
x,1/2+y,-z
-x,y,z
x,1/2-y,z
1/2+x,1/2+y,z
1/2-x,-y,z
1/2+x,1/2-y,-z
1/2-x,y,-z
1/2-x,1/2-y,-z
1/2+x,y,-z
1/2-x,1/2+y,z
1/2+x,-y,z
loop_
_atom_site_type_symbol
_atom_site_label
_atom_site_fract_x
_atom_site_fract_y
_atom_site_fract_z
Si Si1 0.172341 0.429104 0.295863
Si Si2 0.415915 0.920681 0.457329
Si Si3 0.416715 0.425159 0.369898
Si Si4 0.326588 0.426313 0.116945
Si Si5 0.582674 0.574075 0.043767
Si Si6 0.674092 0.573871 0.788242
O O1 0.179225 0.250000 0.294122
O O2 0.250000 0.500000 0.301775
O O3 0.122391 0.475497 0.334653
O O4 0.135297 0.489860 0.251532
O O5 0.500000 0.916973 0.459830
O O6 0.385807 0.750000 0.453987
O O7 0.384840 0.000000 0.500000
O O8 0.390961 0.017282 0.416356
O O9 0.500000 0.450065 0.364111
O O10 0.395579 0.250000 0.365047
O O11 0.317953 0.250000 0.106552
O O12 0.250000 0.500000 0.112189
O O13 0.380577 0.500265 0.084377
O O14 0.360657 0.450079 0.164731
O O15 0.500000 0.541885 0.048652
O O16 0.601003 0.750000 0.042243
O O17 0.611886 0.500000 0.000000
O O18 0.680385 0.750000 0.776602
O O19 0.750000 0.500000 0.791774
#
# Coordination Sequence:
#
# PCOD8279862 Si02
#       6
#    16  16  16  16  16  16
#     4  11  21  34  54  77 103 136 174 212 252 305
#     4   9  16  27  45  70  99 131 168 208 252 302
#     4  10  20  34  52  75 104 135 169 213 261 304
#     4  10  20  34  55  81 107 134 168 212 257 301
#     4  10  21  37  56  77 104 138 174 211 253 304
#     4   9  17  31  51  75 102 133 169 209 253 300
#
# _framework density 18.502374
#
# number of rings (size 3 to 8) (size 9 to 14) (size 15 to 20)
#    0.000    2.167    0.000    5.000    0.000    6.333 
#    0.000    2.500    0.000    1.500    0.000    3.500 
#    0.000    0.000    0.000    0.000    0.000    0.000 
#
# Total GULP energy -595055.270250 kJ/mol
# GULP energy per Si atom -12396.984797 kJ/mol
# Density = 1.846026 g / cm^3
# Si number density = 18.502374 Si / 1000 Ang^3
#
#
#
# Elastic Constant Matrix: (Units=GPa)
#
#
# Indices 1 2 3 4 5 6 
#
# 1 25.9119 41.8914 43.3767 0.0000 0.0000 0.0000
# 2 41.8914 158.7110 85.4477 0.0000 0.0000 0.0000
# 3 43.3767 85.4477 175.6881 0.0000 0.0000 0.0000
# 4 0.0000 0.0000 0.0000 39.7467 0.0000 0.0000
# 5 0.0000 0.0000 0.0000 0.0000 24.5448 0.0000
# 6 0.0000 0.0000 0.0000 0.0000 0.0000 25.3369
#
#
#
# Elastic Compliance Matrix: (Units=1/GPa)
#
#
# Indices 1 2 3 4 5 6 
#
# 1 0.086871 -0.015420 -0.013949 0.000000 0.000000 0.000000
# 2 -0.015420 0.011273 -0.001676 0.000000 0.000000 0.000000
# 3 -0.013949 -0.001676 0.009951 0.000000 0.000000 0.000000
# 4 0.000000 0.000000 0.000000 0.025159 0.000000 0.000000
# 5 0.000000 0.000000 0.000000 0.000000 0.040742 0.000000
# 6 0.000000 0.000000 0.000000 0.000000 0.000000 0.039468
#
#
# Mechanical properties :
#
#
# Convention : Reuss Voigt Hill
#
# Bulk Modulus (GPa) = 21.73586 77.97141 49.85364
# Shear Modulus (GPa) = 17.18876 30.56534 23.87705
#
# Velocity S-wave (km/s) = 3.05126 4.06885 3.59623
# Velocity P-wave (km/s) = 4.91800 8.01916 6.65183
#
# Compressibility (1/GPa) = 0.04600692
#
# Stress axis : x y z
#
# Youngs Moduli (GPa) = 11.51129 88.70851 100.49510
#
# Poissons Ratio (x) = 1.36786 1.40177
# Poissons Ratio (y) = 0.17750 0.16839
# Poissons Ratio (z) = 0.16057 0.14864
#
# Static dielectric constant tensor:
#      x y z
#    x 2.933520 0.000000 0.000000 
#    y 0.000000 3.635350 0.000000 
#    z 0.000000 0.000000 4.033130 
# 
# 
# High freq. dielectric constant tensor:
#      x y z
#    x 1.664730 0.000000 0.000000 
#    y 0.000000 1.740900 0.000000 
#    z 0.000000 0.000000 1.742220 
# 
# From -- ./inp_files/43463.got.cif
#   From: 2010.03.12/outbox.cif.g09.slc.cpg/sg67_22_cif.got.tgz:43463.got - 2010.04.10 22:41:39.
