data_PCOD8279610
_publ_section_title
;
Structure prediction by ZEFSAII (Michael W. Deem and Ramdas Pophale) SiO2 
 PCOD8279610
Probable space group: C M M A
;
_chemical_formula_sum "Si O2"
_cell_formula_units_Z 96
_cell_length_a 9.564072
_cell_length_b 25.795185
_cell_length_c 23.328972
_cell_angle_alpha 90.000000
_cell_angle_beta 90.000000
_cell_angle_gamma 90.000000
_cell_volume 5755.420849
_symmetry_space_group_name_H-M "C M M A"
_symmetry_group_IT_number 67
_symmetry_cell_setting 'orthorhombic'
loop_
_space_group_symop_operation_xyz
x,y,z
-x,1/2-y,z
x,-y,-z
-x,1/2+y,-z
-x,-y,-z
x,1/2+y,-z
-x,y,z
x,1/2-y,z
1/2+x,1/2+y,z
1/2-x,-y,z
1/2+x,1/2-y,-z
1/2-x,y,-z
1/2-x,1/2-y,-z
1/2+x,y,-z
1/2-x,1/2+y,z
1/2+x,-y,z
loop_
_atom_site_type_symbol
_atom_site_label
_atom_site_fract_x
_atom_site_fract_y
_atom_site_fract_z
Si Si1 0.334371 0.250000 0.877927
Si Si2 0.339500 0.451507 0.866851
Si Si3 0.164610 0.852814 0.942441
Si Si4 0.660523 0.810957 0.446477
Si Si5 0.837229 0.549185 0.734082
Si Si6 0.666037 0.346168 0.675992
Si Si7 0.667297 0.750000 0.251043
O O1 0.500000 0.250000 0.873748
O O2 0.282035 0.199295 0.911503
O O3 0.272673 0.250000 0.813597
O O4 0.500000 0.466430 0.876553
O O5 0.250000 0.500000 0.889448
O O6 0.297783 0.400561 0.901527
O O7 0.307954 0.439552 0.800642
O O8 0.000000 0.850173 0.956101
O O9 0.250000 0.860461 0.000000
O O10 0.500000 0.825091 0.458665
O O11 0.679843 0.750000 0.437005
O O12 0.750000 0.831409 0.500000
O O13 0.717288 0.839032 0.389316
O O14 0.750000 0.500000 0.712262
O O15 0.781473 0.598567 0.698886
O O16 0.000000 0.538459 0.722512
O O17 0.500000 0.342723 0.678226
O O18 0.726241 0.300693 0.716441
O O19 0.500000 0.750000 0.250694
#
# Coordination Sequence:
#
# PCOD8279610 Si02
#       7
#     8  16  16  16  16  16   8
#     4   9  17  29  46  67  93 119 146 183 226 270
#     4   9  18  32  49  69  92 116 147 186 230 273
#     4  10  20  33  48  68  91 118 151 185 222 268
#     4   9  16  27  43  66  95 124 152 183 221 265
#     4   9  17  30  48  69  92 119 149 186 228 270
#     4   9  15  25  44  70  96 118 149 189 226 266
#     4   9  14  23  44  73  95 113 142 187 234 268
#
# _framework density 16.679926999999999
#
# number of rings (size 3 to 8) (size 9 to 14) (size 15 to 20)
#    0.000    2.833    0.833    1.250    0.000    5.000 
#    0.000    2.500    0.000    0.500    0.000    7.000 
#    0.000    0.000    0.000    0.000    0.000    0.000 
#
# Total GULP energy -595194.116927 kJ/mol
# GULP energy per Si atom -12399.877436 kJ/mol
# Density = 1.664196 g / cm^3
# Si number density = 16.679927 Si / 1000 Ang^3
#
#
#
# Elastic Constant Matrix: (Units=GPa)
#
#
# Indices 1 2 3 4 5 6 
#
# 1 36.9444 43.4537 40.7795 0.0000 0.0000 0.0000
# 2 43.4537 143.5401 71.7372 0.0000 0.0000 0.0000
# 3 40.7795 71.7372 113.3564 0.0000 0.0000 0.0000
# 4 0.0000 0.0000 0.0000 16.6880 0.0000 0.0000
# 5 0.0000 0.0000 0.0000 0.0000 23.5022 0.0000
# 6 0.0000 0.0000 0.0000 0.0000 0.0000 21.6471
#
#
#
# Elastic Compliance Matrix: (Units=1/GPa)
#
#
# Indices 1 2 3 4 5 6 
#
# 1 0.052353 -0.009413 -0.012876 0.000000 0.000000 0.000000
# 2 -0.009413 0.011882 -0.004133 0.000000 0.000000 0.000000
# 3 -0.012876 -0.004133 0.016070 0.000000 0.000000 0.000000
# 4 0.000000 0.000000 0.000000 0.059923 0.000000 0.000000
# 5 0.000000 0.000000 0.000000 0.000000 0.042549 0.000000
# 6 0.000000 0.000000 0.000000 0.000000 0.000000 0.046195
#
#
# Mechanical properties :
#
#
# Convention : Reuss Voigt Hill
#
# Bulk Modulus (GPa) = 36.41856 67.30907 51.86382
# Shear Modulus (GPa) = 17.18385 21.55884 19.37134
#
# Velocity S-wave (km/s) = 3.21317 3.59904 3.41157
# Velocity P-wave (km/s) = 5.97052 7.59682 6.83223
#
# Compressibility (1/GPa) = 0.02745853
#
# Stress axis : x y z
#
# Youngs Moduli (GPa) = 19.10120 84.16117 62.22946
#
# Poissons Ratio (x) = 0.79224 0.80129
# Poissons Ratio (y) = 0.17981 0.25720
# Poissons Ratio (z) = 0.24596 0.34784
#
# Static dielectric constant tensor:
#      x y z
#    x 2.817550 0.000000 0.000000 
#    y 0.000000 3.243560 0.000000 
#    z 0.000000 0.000000 3.229260 
# 
# 
# High freq. dielectric constant tensor:
#      x y z
#    x 1.603290 0.000000 0.000000 
#    y 0.000000 1.643330 0.000000 
#    z 0.000000 0.000000 1.645810 
# 
# From -- ./inp_files/37939.got.cif
#   From: 2010.03.12/outbox.cif.g09.slc.cpg/sg67_19_cif.got.tgz:37939.got - 2010.04.10 22:41:39.
