data_PCOD8279559
_publ_section_title
;
Structure prediction by ZEFSAII (Michael W. Deem and Ramdas Pophale) SiO2 
 PCOD8279559
Probable space group: C M M A
;
_chemical_formula_sum "Si O2"
_cell_formula_units_Z 88
_cell_length_a 33.154539
_cell_length_b 9.246368
_cell_length_c 19.099427
_cell_angle_alpha 90.000000
_cell_angle_beta 90.000000
_cell_angle_gamma 90.000000
_cell_volume 5855.102549
_symmetry_space_group_name_H-M "C M M A"
_symmetry_group_IT_number 67
_symmetry_cell_setting 'orthorhombic'
loop_
_space_group_symop_operation_xyz
x,y,z
-x,1/2-y,z
x,-y,-z
-x,1/2+y,-z
-x,-y,-z
x,1/2+y,-z
-x,y,z
x,1/2-y,z
1/2+x,1/2+y,z
1/2-x,-y,z
1/2+x,1/2-y,-z
1/2-x,y,-z
1/2-x,1/2-y,-z
1/2+x,y,-z
1/2-x,1/2+y,z
1/2+x,-y,z
loop_
_atom_site_type_symbol
_atom_site_label
_atom_site_fract_x
_atom_site_fract_y
_atom_site_fract_z
Si Si1 0.068876 0.581578 0.658388
Si Si2 0.952364 0.580927 0.206706
Si Si3 0.000000 0.925328 0.425409
Si Si4 0.286836 0.250000 0.575984
Si Si5 0.452172 0.085517 0.932802
Si Si6 0.150443 0.983379 0.581776
Si Si7 0.699035 0.750000 0.588642
O O1 0.054594 0.750000 0.661621
O O2 0.071167 0.511442 0.735019
O O3 0.039332 0.480314 0.614183
O O4 0.112239 0.575566 0.622839
O O5 0.939810 0.750000 0.207742
O O6 0.939070 0.508637 0.134005
O O7 0.000000 0.565281 0.220103
O O8 0.000000 0.750000 0.430368
O O9 0.000000 0.000000 0.500000
O O10 0.311301 0.112435 0.599141
O O11 0.287008 0.250000 0.491857
O O12 0.244396 0.250000 0.619783
O O13 0.500000 0.094190 0.937686
O O14 0.434810 0.250000 0.929325
O O15 0.434755 0.000000 0.000000
O O16 0.138884 0.000000 0.500000
O O17 0.168455 0.127892 0.612867
#
# Coordination Sequence:
#
# PCOD8279559 Si02
#       7
#    16  16   8   8  16  16   8
#     4  12  23  36  50  66  93 123 160 201 244 283
#     4  10  20  33  48  65  88 120 161 200 238 279
#     4  12  26  40  54  66  83 116 161 208 250 286
#     4   9  16  34  46  73  91 113 144 184 239 295
#     4   9  16  27  45  68  92 116 148 189 233 276
#     4  10  20  32  49  69  93 117 152 195 241 289
#     4   9  18  28  54  69  91 115 142 186 237 295
#
# _framework density 15.029626
#
# number of rings (size 3 to 8) (size 9 to 14) (size 15 to 20)
#    0.000    1.818    1.818    3.545    2.545    5.091 
#    0.000    0.000    0.000    0.000    0.000    0.000 
#    0.000    0.000    0.000    0.000    0.000    5.455 
#
# Total GULP energy -545088.048629 kJ/mol
# GULP energy per Si atom -12388.364742 kJ/mol
# Density = 1.499542 g / cm^3
# Si number density = 15.029626 Si / 1000 Ang^3
#
#
#
# Elastic Constant Matrix: (Units=GPa)
#
#
# Indices 1 2 3 4 5 6 
#
# 1 48.2914 20.6856 20.3692 0.0000 0.0000 0.0000
# 2 20.6856 144.1103 44.5651 0.0000 0.0000 0.0000
# 3 20.3692 44.5651 90.4286 0.0000 0.0000 0.0000
# 4 0.0000 0.0000 0.0000 26.3101 0.0000 0.0000
# 5 0.0000 0.0000 0.0000 0.0000 -30.4401 0.0000
# 6 0.0000 0.0000 0.0000 0.0000 0.0000 20.8745
#
#
#
# Elastic Compliance Matrix: (Units=1/GPa)
#
#
# Indices 1 2 3 4 5 6 
#
# 1 0.023378 -0.002038 -0.004262 0.000000 0.000000 0.000000
# 2 -0.002038 0.008364 -0.003663 0.000000 0.000000 0.000000
# 3 -0.004262 -0.003663 0.013824 0.000000 0.000000 0.000000
# 4 0.000000 0.000000 0.000000 0.038008 0.000000 0.000000
# 5 0.000000 0.000000 0.000000 0.000000 -0.032851 0.000000
# 6 0.000000 0.000000 0.000000 0.000000 0.000000 0.047905
#
#
# Mechanical properties :
#
#
# Convention : Reuss Voigt Hill
#
# Bulk Modulus (GPa) = 39.00016 50.45223 44.72619
# Shear Modulus (GPa) = 39.33898 16.49628 27.91763
#
# Velocity S-wave (km/s) = 5.12163 3.31657 4.31456
# Velocity P-wave (km/s) = 7.80897 6.95037 7.39215
#
# Compressibility (1/GPa) = 0.02564092
#
# Stress axis : x y z
#
# Youngs Moduli (GPa) = 42.77517 119.55374 72.33972
#
# Poissons Ratio (x) = 0.24363 0.30829
# Poissons Ratio (y) = 0.08717 0.26499
# Poissons Ratio (z) = 0.18229 0.43794
#
# Static dielectric constant tensor:
#      x y z
#    x 2.686920 0.000000 0.000000 
#    y 0.000000 3.132360 0.000000 
#    z 0.000000 0.000000 2.846080 
# 
# 
# High freq. dielectric constant tensor:
#      x y z
#    x 1.540010 0.000000 0.000000 
#    y 0.000000 1.606400 0.000000 
#    z 0.000000 0.000000 1.547410 
# 
# From -- ./inp_files/36220.got.cif
#   From: 2010.03.12/outbox.cif.g09.slc.cpg/sg67_19_cif.got.tgz:36220.got - 2010.04.10 22:41:39.
