data_PCOD8279784
_publ_section_title
;
Structure prediction by ZEFSAII (Michael W. Deem and Ramdas Pophale) SiO2 
 PCOD8279784
Probable space group: C M M A
;
_chemical_formula_sum "Si O2"
_cell_formula_units_Z 80
_cell_length_a 9.022584
_cell_length_b 27.037813
_cell_length_c 18.814365
_cell_angle_alpha 90.000000
_cell_angle_beta 90.000000
_cell_angle_gamma 90.000000
_cell_volume 4589.782008
_symmetry_space_group_name_H-M "C M M A"
_symmetry_group_IT_number 67
_symmetry_cell_setting 'orthorhombic'
loop_
_space_group_symop_operation_xyz
x,y,z
-x,1/2-y,z
x,-y,-z
-x,1/2+y,-z
-x,-y,-z
x,1/2+y,-z
-x,y,z
x,1/2-y,z
1/2+x,1/2+y,z
1/2-x,-y,z
1/2+x,1/2-y,-z
1/2-x,y,-z
1/2-x,1/2-y,-z
1/2+x,y,-z
1/2-x,1/2+y,z
1/2+x,-y,z
loop_
_atom_site_type_symbol
_atom_site_label
_atom_site_fract_x
_atom_site_fract_y
_atom_site_fract_z
Si Si1 0.327324 0.148771 0.783372
Si Si2 0.826177 0.693140 0.928934
Si Si3 0.671537 0.304919 0.345477
Si Si4 0.824299 0.098615 0.574429
Si Si5 0.825064 0.549596 0.706056
O O1 0.500000 0.159918 0.779239
O O2 0.268251 0.160638 0.862402
O O3 0.254815 0.186200 0.728009
O O4 0.290857 0.092111 0.763771
O O5 0.780759 0.750000 0.915436
O O6 0.000000 0.687349 0.939344
O O7 0.750000 0.672360 0.000000
O O8 0.500000 0.310620 0.327575
O O9 0.710233 0.250000 0.374204
O O10 0.717450 0.344833 0.405109
O O11 0.750000 0.085832 0.500000
O O12 0.753389 0.061930 0.631664
O O13 0.000000 0.089967 0.570509
O O14 0.750000 0.500000 0.736499
O O15 0.000000 0.542752 0.693920
#
# Coordination Sequence:
#
# PCOD8279784 Si02
#       5
#    16  16  16  16  16
#     4   9  18  32  50  71  96 126 160 198 237 281
#     4   9  17  29  46  71 102 132 160 190 226 270
#     4   9  18  31  47  69  97 128 161 196 234 278
#     4  10  20  34  50  70  97 126 158 196 238 284
#     4  10  20  35  54  74  94 119 155 198 245 291
#
# _framework density 17.430022000000001
#
# number of rings (size 3 to 8) (size 9 to 14) (size 15 to 20)
#    0.000    2.600    0.000    1.800    0.000    4.400 
#    0.000    4.000    0.000    0.600    0.000    4.200 
#    0.000    0.000    0.000    0.000    0.000    0.000 
#
# Total GULP energy -496001.916362 kJ/mol
# GULP energy per Si atom -12400.047909 kJ/mol
# Density = 1.739035 g / cm^3
# Si number density = 17.430022 Si / 1000 Ang^3
#
#
#
# Elastic Constant Matrix: (Units=GPa)
#
#
# Indices 1 2 3 4 5 6 
#
# 1 55.2157 29.3250 35.8335 0.0000 0.0000 0.0000
# 2 29.3250 82.3105 32.6871 0.0000 0.0000 0.0000
# 3 35.8335 32.6871 117.4444 0.0000 0.0000 0.0000
# 4 0.0000 0.0000 0.0000 17.2576 0.0000 0.0000
# 5 0.0000 0.0000 0.0000 0.0000 29.1743 0.0000
# 6 0.0000 0.0000 0.0000 0.0000 0.0000 24.5507
#
#
#
# Elastic Compliance Matrix: (Units=1/GPa)
#
#
# Indices 1 2 3 4 5 6 
#
# 1 0.025531 -0.006749 -0.005912 0.000000 0.000000 0.000000
# 2 -0.006749 0.015443 -0.002239 0.000000 0.000000 0.000000
# 3 -0.005912 -0.002239 0.010942 0.000000 0.000000 0.000000
# 4 0.000000 0.000000 0.000000 0.057946 0.000000 0.000000
# 5 0.000000 0.000000 0.000000 0.000000 0.034277 0.000000
# 6 0.000000 0.000000 0.000000 0.000000 0.000000 0.040732
#
#
# Mechanical properties :
#
#
# Convention : Reuss Voigt Hill
#
# Bulk Modulus (GPa) = 45.21352 50.07355 47.64353
# Shear Modulus (GPa) = 22.51840 24.67150 23.59495
#
# Velocity S-wave (km/s) = 3.59824 3.76634 3.68325
# Velocity P-wave (km/s) = 6.57720 6.90684 6.74403
#
# Compressibility (1/GPa) = 0.02211728
#
# Stress axis : x y z
#
# Youngs Moduli (GPa) = 39.16743 64.75612 91.39509
#
# Poissons Ratio (x) = 0.43701 0.54030
# Poissons Ratio (y) = 0.26432 0.20463
# Poissons Ratio (z) = 0.23154 0.14498
#
# Static dielectric constant tensor:
#      x y z
#    x 3.251650 0.000000 0.000000 
#    y 0.000000 3.367220 0.000000 
#    z 0.000000 0.000000 3.227900 
# 
# 
# High freq. dielectric constant tensor:
#      x y z
#    x 1.677750 0.000000 0.000000 
#    y 0.000000 1.668570 0.000000 
#    z 0.000000 0.000000 1.661480 
# 
# From -- ./inp_files/32111.got.cif
#   From: 2010.03.12/outbox.cif.g09.slc.cpg/sg67_17_cif.got.tgz:32111.got - 2010.04.10 22:41:39.
