data_PCOD8279433
_publ_section_title
;
Structure prediction by ZEFSAII (Michael W. Deem and Ramdas Pophale) SiO2 
 PCOD8279433
Probable space group: C M M A
;
_chemical_formula_sum "Si O2"
_cell_formula_units_Z 80
_cell_length_a 23.674510
_cell_length_b 8.913968
_cell_length_c 20.347526
_cell_angle_alpha 90.000000
_cell_angle_beta 90.000000
_cell_angle_gamma 90.000000
_cell_volume 4294.016232
_symmetry_space_group_name_H-M "C M M A"
_symmetry_group_IT_number 67
_symmetry_cell_setting 'orthorhombic'
loop_
_space_group_symop_operation_xyz
x,y,z
-x,1/2-y,z
x,-y,-z
-x,1/2+y,-z
-x,-y,-z
x,1/2+y,-z
-x,y,z
x,1/2-y,z
1/2+x,1/2+y,z
1/2-x,-y,z
1/2+x,1/2-y,-z
1/2-x,y,-z
1/2-x,1/2-y,-z
1/2+x,y,-z
1/2-x,1/2+y,z
1/2+x,-y,z
loop_
_atom_site_type_symbol
_atom_site_label
_atom_site_fract_x
_atom_site_fract_y
_atom_site_fract_z
Si Si1 0.882978 0.073381 0.068203
Si Si2 0.500000 0.572704 0.130015
Si Si3 0.000000 0.072814 0.727723
Si Si4 0.691373 0.073634 0.567991
Si Si5 0.388027 0.925081 0.311060
Si Si6 0.689685 0.426846 0.809003
O O1 0.881434 0.250000 0.059500
O O2 0.838395 0.019809 0.122896
O O3 0.945475 0.020485 0.089111
O O4 0.864937 0.000000 0.000000
O O5 0.500000 0.750000 0.143186
O O6 0.500000 0.494100 0.199759
O O7 0.000000 0.250000 0.732296
O O8 0.945547 0.018133 0.687633
O O9 0.701059 0.250000 0.558286
O O10 0.643993 0.039525 0.621602
O O11 0.670881 0.000000 0.500000
O O12 0.750000 0.000000 0.591543
O O13 0.402335 0.750000 0.303363
O O14 0.350083 0.980687 0.250244
O O15 0.697446 0.250000 0.806893
O O16 0.750000 0.500000 0.800460
#
# Coordination Sequence:
#
# PCOD8279433 Si02
#       6
#    16   8   8  16  16  16
#     4  10  21  36  57  80 108 146 184 231 282 335
#     4  10  19  39  61  77 109 149 184 227 282 348
#     4  12  24  35  58  91 115 141 183 241 286 326
#     4  10  20  35  60  89 120 157 191 232 278 328
#     4  10  21  40  61  81 113 155 191 225 280 342
#     4  10  21  37  57  80 108 146 188 230 279 333
#
# _framework density 18.630576000000001
#
# number of rings (size 3 to 8) (size 9 to 14) (size 15 to 20)
#    0.000    1.800    2.000    3.000    0.000    4.400 
#    0.000    2.500    0.000    0.000    0.000    0.000 
#    0.000    0.000    0.000    0.000    0.000    0.000 
#
# Total GULP energy -496162.701789 kJ/mol
# GULP energy per Si atom -12404.067545 kJ/mol
# Density = 1.858817 g / cm^3
# Si number density = 18.630576 Si / 1000 Ang^3
#
#
#
# Elastic Constant Matrix: (Units=GPa)
#
#
# Indices 1 2 3 4 5 6 
#
# 1 139.4797 47.1253 67.4871 0.0000 0.0000 0.0000
# 2 47.1253 63.9768 47.8603 0.0000 0.0000 0.0000
# 3 67.4871 47.8603 130.3469 0.0000 0.0000 0.0000
# 4 0.0000 0.0000 0.0000 25.5555 0.0000 0.0000
# 5 0.0000 0.0000 0.0000 0.0000 32.6398 0.0000
# 6 0.0000 0.0000 0.0000 0.0000 0.0000 33.3122
#
#
#
# Elastic Compliance Matrix: (Units=1/GPa)
#
#
# Indices 1 2 3 4 5 6 
#
# 1 0.010664 -0.005135 -0.003636 0.000000 0.000000 0.000000
# 2 -0.005135 0.024023 -0.006162 0.000000 0.000000 0.000000
# 3 -0.003636 -0.006162 0.011817 0.000000 0.000000 0.000000
# 4 0.000000 0.000000 0.000000 0.039130 0.000000 0.000000
# 5 0.000000 0.000000 0.000000 0.000000 0.030637 0.000000
# 6 0.000000 0.000000 0.000000 0.000000 0.000000 0.030019
#
#
# Mechanical properties :
#
#
# Convention : Reuss Voigt Hill
#
# Bulk Modulus (GPa) = 60.10371 73.19431 66.64901
# Shear Modulus (GPa) = 27.51773 29.72355 28.62064
#
# Velocity S-wave (km/s) = 3.84737 3.99860 3.92371
# Velocity P-wave (km/s) = 7.21576 7.79044 7.50860
#
# Compressibility (1/GPa) = 0.01663791
#
# Stress axis : x y z
#
# Youngs Moduli (GPa) = 93.77770 41.62708 84.62611
#
# Poissons Ratio (x) = 0.21376 0.30766
# Poissons Ratio (y) = 0.48155 0.52146
# Poissons Ratio (z) = 0.34094 0.25650
#
# Static dielectric constant tensor:
#      x y z
#    x 3.552310 0.000000 0.000000 
#    y 0.000000 3.324630 0.000000 
#    z 0.000000 0.000000 3.525890 
# 
# 
# High freq. dielectric constant tensor:
#      x y z
#    x 1.728330 0.000000 0.000000 
#    y 0.000000 1.716840 0.000000 
#    z 0.000000 0.000000 1.729950 
# 
# From -- ./inp_files/39529.got.cif
#   From: 2010.03.12/outbox.cif.g09.slc.cpg/sg67_20_cif.got.tgz:39529.got - 2010.04.10 22:41:39.
