data_PCOD8279387
_publ_section_title
;
Structure prediction by ZEFSAII (Michael W. Deem and Ramdas Pophale) SiO2 
 PCOD8279387
Probable space group: C M M A
;
_chemical_formula_sum "Si O2"
_cell_formula_units_Z 112
_cell_length_a 19.161047
_cell_length_b 24.682035
_cell_length_c 12.327436
_cell_angle_alpha 90.000000
_cell_angle_beta 90.000000
_cell_angle_gamma 90.000000
_cell_volume 5830.059089
_symmetry_space_group_name_H-M "C M M A"
_symmetry_group_IT_number 67
_symmetry_cell_setting 'orthorhombic'
loop_
_space_group_symop_operation_xyz
x,y,z
-x,1/2-y,z
x,-y,-z
-x,1/2+y,-z
-x,-y,-z
x,1/2+y,-z
-x,y,z
x,1/2-y,z
1/2+x,1/2+y,z
1/2-x,-y,z
1/2+x,1/2-y,-z
1/2-x,y,-z
1/2-x,1/2-y,-z
1/2+x,y,-z
1/2-x,1/2+y,z
1/2+x,-y,z
loop_
_atom_site_type_symbol
_atom_site_label
_atom_site_fract_x
_atom_site_fract_y
_atom_site_fract_z
Si Si1 0.830755 0.998702 0.289709
Si Si2 0.822133 0.382292 0.355605
Si Si3 0.419279 0.308625 0.267224
Si Si4 0.837448 0.608334 0.406802
Si Si5 0.348852 0.154820 0.067073
Si Si6 0.579607 0.956371 0.906626
Si Si7 0.297659 0.687285 0.156557
O O1 0.843495 0.956733 0.389574
O O2 0.882775 0.982213 0.195620
O O3 0.750000 0.000000 0.250971
O O4 0.850745 0.058990 0.323868
O O5 0.858756 0.371646 0.472260
O O6 0.740818 0.377099 0.377369
O O7 0.838130 0.339301 0.259621
O O8 0.500000 0.312149 0.290116
O O9 0.390942 0.250000 0.309007
O O10 0.385582 0.359906 0.324074
O O11 0.404489 0.312526 0.138893
O O12 0.374189 0.093555 0.051774
O O13 0.274276 0.155911 0.129829
O O14 0.346223 0.182862 0.949508
O O15 0.500000 0.938873 0.876677
O O16 0.578012 0.000000 0.000000
O O17 0.282183 0.750000 0.182557
#
# Coordination Sequence:
#
# PCOD8279387 Si02
#       7
#    16  16  16  16  16  16  16
#     4  10  19  36  57  86 117 154 199 247 299 357
#     4  10  20  35  57  85 118 156 194 244 307 357
#     4  11  22  37  59  85 115 155 202 245 292 354
#     4  10  20  35  57  85 118 154 197 247 295 351
#     4  11  20  37  57  83 117 155 194 240 306 361
#     4  11  23  37  57  86 122 157 196 248 304 365
#     4  11  22  36  58  88 122 154 195 256 310 362
#
# _framework density 19.210784
#
# number of rings (size 3 to 8) (size 9 to 14) (size 15 to 20)
#    0.000    1.429    2.857    4.286    0.000    3.714 
#    0.000    2.143    0.000    3.429    0.000    2.000 
#    0.000    0.000    0.000    0.000    0.000    0.000 
#
# Total GULP energy -694098.838039 kJ/mol
# GULP energy per Si atom -12394.622108 kJ/mol
# Density = 1.916706 g / cm^3
# Si number density = 19.210784 Si / 1000 Ang^3
#
#
#
# Elastic Constant Matrix: (Units=GPa)
#
#
# Indices 1 2 3 4 5 6 
#
# 1 53.7709 43.3702 26.8936 0.0000 0.0000 0.0000
# 2 43.3702 127.8214 41.8753 0.0000 0.0000 0.0000
# 3 26.8936 41.8753 122.1245 0.0000 0.0000 0.0000
# 4 0.0000 0.0000 0.0000 20.7873 0.0000 0.0000
# 5 0.0000 0.0000 0.0000 0.0000 -30.4735 0.0000
# 6 0.0000 0.0000 0.0000 0.0000 0.0000 24.3345
#
#
#
# Elastic Compliance Matrix: (Units=1/GPa)
#
#
# Indices 1 2 3 4 5 6 
#
# 1 0.026616 -0.008011 -0.003115 0.000000 0.000000 0.000000
# 2 -0.008011 0.011224 -0.002085 0.000000 0.000000 0.000000
# 3 -0.003115 -0.002085 0.009589 0.000000 0.000000 0.000000
# 4 0.000000 0.000000 0.000000 0.048106 0.000000 0.000000
# 5 0.000000 0.000000 0.000000 0.000000 -0.032815 0.000000
# 6 0.000000 0.000000 0.000000 0.000000 0.000000 0.041094
#
#
# Mechanical properties :
#
#
# Convention : Reuss Voigt Hill
#
# Bulk Modulus (GPa) = 47.59622 58.66611 53.13117
# Shear Modulus (GPa) = 36.43315 15.70152 26.06733
#
# Velocity S-wave (km/s) = 4.35960 2.86200 3.68762
# Velocity P-wave (km/s) = 7.08315 6.44405 6.77115
#
# Compressibility (1/GPa) = 0.02101007
#
# Stress axis : x y z
#
# Youngs Moduli (GPa) = 37.57084 89.09142 104.28573
#
# Poissons Ratio (x) = 0.71368 0.32480
# Poissons Ratio (y) = 0.30097 0.21740
# Poissons Ratio (z) = 0.11702 0.18573
#
# Static dielectric constant tensor:
#      x y z
#    x 3.352470 0.000000 0.000000 
#    y 0.000000 3.911610 0.000000 
#    z 0.000000 0.000000 3.780890 
# 
# 
# High freq. dielectric constant tensor:
#      x y z
#    x 1.716190 0.000000 0.000000 
#    y 0.000000 1.758230 0.000000 
#    z 0.000000 0.000000 1.750880 
# 
# From -- ./inp_files/21129.got.cif
#   From: 2010.03.12/outbox.cif.g09.slc.cpg/sg67_11_cif.got.tgz:21129.got - 2010.04.10 22:41:39.
