data_PCOD8279044
_publ_section_title
;
Structure prediction by ZEFSAII (Michael W. Deem and Ramdas Pophale) SiO2 
 PCOD8279044
Probable space group: C M M A
;
_chemical_formula_sum "Si O2"
_cell_formula_units_Z 96
_cell_length_a 15.173512
_cell_length_b 14.084849
_cell_length_c 21.592020
_cell_angle_alpha 90.000000
_cell_angle_beta 90.000000
_cell_angle_gamma 90.000000
_cell_volume 4614.573648
_symmetry_space_group_name_H-M "C M M A"
_symmetry_group_IT_number 67
_symmetry_cell_setting 'orthorhombic'
loop_
_space_group_symop_operation_xyz
x,y,z
-x,1/2-y,z
x,-y,-z
-x,1/2+y,-z
-x,-y,-z
x,1/2+y,-z
-x,y,z
x,1/2-y,z
1/2+x,1/2+y,z
1/2-x,-y,z
1/2+x,1/2-y,-z
1/2-x,y,-z
1/2-x,1/2-y,-z
1/2+x,y,-z
1/2-x,1/2+y,z
1/2+x,-y,z
loop_
_atom_site_type_symbol
_atom_site_label
_atom_site_fract_x
_atom_site_fract_y
_atom_site_fract_z
Si Si1 0.101810 0.441607 0.333563
Si Si2 0.349553 0.855177 0.981213
Si Si3 0.105120 0.644477 0.793754
Si Si4 0.901835 0.851727 0.351995
Si Si5 0.599129 0.023989 0.905725
Si Si6 0.732962 0.856895 0.432013
O O1 0.137434 0.382519 0.275038
O O2 0.109793 0.552274 0.311822
O O3 0.164397 0.420578 0.392463
O O4 0.000000 0.415690 0.349788
O O5 0.388232 0.750000 0.965883
O O6 0.351570 0.925635 0.922053
O O7 0.250000 0.844593 0.000000
O O8 0.403429 0.901993 0.037296
O O9 0.140191 0.750000 0.808434
O O10 0.144082 0.573402 0.845793
O O11 0.000000 0.641265 0.796461
O O12 0.890910 0.750000 0.314991
O O13 0.830659 0.855517 0.405363
O O14 0.000000 0.854481 0.381871
O O15 0.500000 0.995242 0.889642
O O16 0.693894 0.750000 0.435214
O O17 0.750000 0.900359 0.500000
#
# Coordination Sequence:
#
# PCOD8279044 Si02
#       6
#    16  16  16  16  16  16
#     4  10  20  35  57  82 109 144 185 231 284 341
#     4  10  20  34  51  74 110 149 181 220 269 321
#     4   9  18  33  53  79 110 141 177 224 278 335
#     4   9  19  36  54  73 103 142 179 217 267 327
#     4  10  19  32  54  80 104 136 181 229 274 320
#     4  10  21  36  55  81 111 141 177 224 277 335
#
# _framework density 20.803656
#
# number of rings (size 3 to 8) (size 9 to 14) (size 15 to 20)
#    0.000    2.333    0.000    3.500    0.000    5.000 
#    0.000    7.500    0.000    7.000    0.000    0.000 
#    0.000    0.000    0.000    0.000    0.000    0.000 
#
# Total GULP energy -594659.844043 kJ/mol
# GULP energy per Si atom -12388.746751 kJ/mol
# Density = 2.075631 g / cm^3
# Si number density = 20.803656 Si / 1000 Ang^3
#
#
#
# Elastic Constant Matrix: (Units=GPa)
#
#
# Indices 1 2 3 4 5 6 
#
# 1 63.9952 29.6380 22.5820 0.0000 0.0000 0.0000
# 2 29.6380 185.2415 63.4494 0.0000 0.0000 0.0000
# 3 22.5820 63.4494 113.8244 0.0000 0.0000 0.0000
# 4 0.0000 0.0000 0.0000 22.4634 0.0000 0.0000
# 5 0.0000 0.0000 0.0000 0.0000 18.4373 0.0000
# 6 0.0000 0.0000 0.0000 0.0000 0.0000 28.2491
#
#
#
# Elastic Compliance Matrix: (Units=1/GPa)
#
#
# Indices 1 2 3 4 5 6 
#
# 1 0.017369 -0.001976 -0.002344 0.000000 0.000000 0.000000
# 2 -0.001976 0.006897 -0.003453 0.000000 0.000000 0.000000
# 3 -0.002344 -0.003453 0.011175 0.000000 0.000000 0.000000
# 4 0.000000 0.000000 0.000000 0.044517 0.000000 0.000000
# 5 0.000000 0.000000 0.000000 0.000000 0.054238 0.000000
# 6 0.000000 0.000000 0.000000 0.000000 0.000000 0.035399
#
#
# Mechanical properties :
#
#
# Convention : Reuss Voigt Hill
#
# Bulk Modulus (GPa) = 50.26400 66.04444 58.15422
# Shear Modulus (GPa) = 26.07258 30.32275 28.19767
#
# Velocity S-wave (km/s) = 3.54399 3.82195 3.68560
# Velocity P-wave (km/s) = 6.40001 7.16184 6.79161
#
# Compressibility (1/GPa) = 0.01989496
#
# Stress axis : x y z
#
# Youngs Moduli (GPa) = 57.57544 144.98827 89.48398
#
# Poissons Ratio (x) = 0.28648 0.20978
# Poissons Ratio (y) = 0.11376 0.30896
# Poissons Ratio (z) = 0.13498 0.50060
#
# Static dielectric constant tensor:
#      x y z
#    x 3.621890 0.000000 0.000000 
#    y 0.000000 4.475370 0.000000 
#    z 0.000000 0.000000 3.541980 
# 
# 
# High freq. dielectric constant tensor:
#      x y z
#    x 1.803320 0.000000 0.000000 
#    y 0.000000 1.838250 0.000000 
#    z 0.000000 0.000000 1.774760 
# 
# From -- ./inp_files/38481.got.cif
#   From: 2010.03.12/outbox.cif.g09.slc.cpg/sg67_20_cif.got.tgz:38481.got - 2010.04.10 22:41:39.
