data_PCOD8279447
_publ_section_title
;
Structure prediction by ZEFSAII (Michael W. Deem and Ramdas Pophale) SiO2 
 PCOD8279447
Probable space group: C M M A
;
_chemical_formula_sum "Si O2"
_cell_formula_units_Z 80
_cell_length_a 15.132974
_cell_length_b 16.270311
_cell_length_c 14.349575
_cell_angle_alpha 90.000000
_cell_angle_beta 90.000000
_cell_angle_gamma 90.000000
_cell_volume 3533.126432
_symmetry_space_group_name_H-M "C M M A"
_symmetry_group_IT_number 67
_symmetry_cell_setting 'orthorhombic'
loop_
_space_group_symop_operation_xyz
x,y,z
-x,1/2-y,z
x,-y,-z
-x,1/2+y,-z
-x,-y,-z
x,1/2+y,-z
-x,y,z
x,1/2-y,z
1/2+x,1/2+y,z
1/2-x,-y,z
1/2+x,1/2-y,-z
1/2-x,y,-z
1/2-x,1/2-y,-z
1/2+x,y,-z
1/2-x,1/2+y,z
1/2+x,-y,z
loop_
_atom_site_type_symbol
_atom_site_label
_atom_site_fract_x
_atom_site_fract_y
_atom_site_fract_z
Si Si1 0.350792 0.585887 0.971812
Si Si2 0.895229 0.659033 0.212205
Si Si3 0.344214 0.250000 0.945278
Si Si4 0.104585 0.896675 0.601108
Si Si5 0.894948 0.081069 0.603143
Si Si6 0.106219 0.750000 0.733822
O O1 0.394809 0.666245 0.021953
O O2 0.398869 0.500000 0.000000
O O3 0.250000 0.580006 0.000000
O O4 0.356395 0.594446 0.860821
O O5 0.862968 0.750000 0.184703
O O6 0.858309 0.638368 0.314641
O O7 0.000000 0.652481 0.211716
O O8 0.341508 0.250000 0.832528
O O9 0.250000 0.250000 0.000000
O O10 0.139714 0.881780 0.495024
O O11 0.139422 0.829699 0.675314
O O12 0.000000 0.890041 0.601875
O O13 0.137653 0.988363 0.625996
O O14 0.000000 0.079280 0.599369
O O15 0.000000 0.750000 0.750672
#
# Coordination Sequence:
#
# PCOD8279447 Si02
#       6
#    16  16   8  16  16   8
#     4  10  22  40  59  76 100 141 194 233 281 333
#     4  10  20  32  52  83 112 142 179 223 274 325
#     4  10  22  40  55  74 108 142 183 233 284 331
#     4   8  15  28  45  72 109 147 177 209 260 323
#     4   8  15  28  46  71 111 147 173 211 264 323
#     4  10  20  30  51  82 111 144 186 225 265 323
#
# _framework density 22.642834000000001
#
# number of rings (size 3 to 8) (size 9 to 14) (size 15 to 20)
#    0.000    2.800    1.000    1.200    4.200    1.200 
#    0.000    0.000    0.000    0.000    0.000   11.200 
#    0.000    0.000    0.000    0.000    0.000    0.400 
#
# Total GULP energy -495549.985375 kJ/mol
# GULP energy per Si atom -12388.749634 kJ/mol
# Density = 2.259130 g / cm^3
# Si number density = 22.642834 Si / 1000 Ang^3
#
#
#
# Elastic Constant Matrix: (Units=GPa)
#
#
# Indices 1 2 3 4 5 6 
#
# 1 24.7354 12.9489 21.9886 0.0000 0.0000 0.0000
# 2 12.9489 167.5706 83.2366 0.0000 0.0000 0.0000
# 3 21.9886 83.2366 197.6418 0.0000 0.0000 0.0000
# 4 0.0000 0.0000 0.0000 46.8514 0.0000 0.0000
# 5 0.0000 0.0000 0.0000 0.0000 -185.9947 0.0000
# 6 0.0000 0.0000 0.0000 0.0000 0.0000 2.1492
#
#
#
# Elastic Compliance Matrix: (Units=1/GPa)
#
#
# Indices 1 2 3 4 5 6 
#
# 1 0.045073 -0.001255 -0.004486 0.000000 0.000000 0.000000
# 2 -0.001255 0.007581 -0.003053 0.000000 0.000000 0.000000
# 3 -0.004486 -0.003053 0.006845 0.000000 0.000000 0.000000
# 4 0.000000 0.000000 0.000000 0.021344 0.000000 0.000000
# 5 0.000000 0.000000 0.000000 0.000000 -0.005376 0.000000
# 6 0.000000 0.000000 0.000000 0.000000 0.000000 0.465280
#
#
# Mechanical properties :
#
#
# Convention : Reuss Voigt Hill
#
# Bulk Modulus (GPa) = 23.86032 69.58843 46.72438
# Shear Modulus (GPa) = 8.73661 -9.28056 -0.27198
#
# Velocity S-wave (km/s) = 1.96642 -2.02671 -0.34695
# Velocity P-wave (km/s) = 3.96438 5.03220 4.52987
#
# Compressibility (1/GPa) = 0.04191058
#
# Stress axis : x y z
#
# Youngs Moduli (GPa) = 22.18637 131.90524 146.09972
#
# Poissons Ratio (x) = 0.16548 0.65543
# Poissons Ratio (y) = 0.02783 0.44608
# Poissons Ratio (z) = 0.09953 0.40274
#
# Static dielectric constant tensor:
#      x y z
#    x 3.388610 0.000000 0.000000 
#    y 0.000000 5.693720 0.000000 
#    z 0.000000 0.000000 4.448360 
# 
# 
# High freq. dielectric constant tensor:
#      x y z
#    x 1.839930 0.000000 0.000000 
#    y 0.000000 1.902570 0.000000 
#    z 0.000000 0.000000 1.903050 
# 
# From -- ./inp_files/20593.got.cif
#   From: 2010.03.12/outbox.cif.g09.slc.cpg/sg67_11_cif.got.tgz:20593.got - 2010.04.10 22:41:39.
