data_PCOD8279536
_publ_section_title
;
Structure prediction by ZEFSAII (Michael W. Deem and Ramdas Pophale) SiO2 
 PCOD8279536
Probable space group: C M M A
;
_chemical_formula_sum "Si O2"
_cell_formula_units_Z 96
_cell_length_a 27.189489
_cell_length_b 8.710721
_cell_length_c 23.623003
_cell_angle_alpha 90.000000
_cell_angle_beta 90.000000
_cell_angle_gamma 90.000000
_cell_volume 5594.873278
_symmetry_space_group_name_H-M "C M M A"
_symmetry_group_IT_number 67
_symmetry_cell_setting 'orthorhombic'
loop_
_space_group_symop_operation_xyz
x,y,z
-x,1/2-y,z
x,-y,-z
-x,1/2+y,-z
-x,-y,-z
x,1/2+y,-z
-x,y,z
x,1/2-y,z
1/2+x,1/2+y,z
1/2-x,-y,z
1/2+x,1/2-y,-z
1/2-x,y,-z
1/2-x,1/2-y,-z
1/2+x,y,-z
1/2-x,1/2+y,z
1/2+x,-y,z
loop_
_atom_site_type_symbol
_atom_site_label
_atom_site_fract_x
_atom_site_fract_y
_atom_site_fract_z
Si Si1 0.103289 0.425807 0.163139
Si Si2 0.055369 0.929632 0.058095
Si Si3 0.697535 0.567821 0.439831
Si Si4 0.199006 0.570922 0.768895
Si Si5 0.056345 0.928334 0.720673
Si Si6 0.645639 0.569736 0.663512
O O1 0.094808 0.250000 0.146148
O O2 0.091398 0.528195 0.109147
O O3 0.159440 0.456505 0.181561
O O4 0.067114 0.473163 0.214362
O O5 0.055043 0.750000 0.050607
O O6 0.000000 0.991760 0.070081
O O7 0.076200 0.000000 0.000000
O O8 0.681077 0.500000 0.500000
O O9 0.701315 0.750000 0.443974
O O10 0.750000 0.500000 0.421061
O O11 0.657085 0.518082 0.394412
O O12 0.204594 0.750000 0.754959
O O13 0.250000 0.500000 0.790623
O O14 0.182805 0.486049 0.711864
O O15 0.070211 0.750000 0.711753
O O16 0.000000 0.963159 0.706168
O O17 0.089458 0.030328 0.679285
O O18 0.651872 0.750000 0.654643
#
# Coordination Sequence:
#
# PCOD8279536 Si02
#       6
#    16  16  16  16  16  16
#     4   9  18  32  50  72  99 129 160 197 243 292
#     4  10  20  32  48  71  98 128 162 199 240 287
#     4  11  21  35  53  75 102 131 165 203 247 295
#     4  10  20  34  51  73 100 131 165 202 246 292
#     4   9  18  33  52  74 101 133 166 202 246 293
#     4  11  21  33  50  74 103 134 167 203 244 290
#
# _framework density 17.158566
#
# number of rings (size 3 to 8) (size 9 to 14) (size 15 to 20)
#    0.000    2.000    0.000    6.500    0.000    5.333 
#    0.000    0.000    0.000    1.000    0.000    3.500 
#    0.000    0.000    0.000    0.000    0.000    0.000 
#
# Total GULP energy -595369.479500 kJ/mol
# GULP energy per Si atom -12403.530823 kJ/mol
# Density = 1.711951 g / cm^3
# Si number density = 17.158566 Si / 1000 Ang^3
#
#
#
# Elastic Constant Matrix: (Units=GPa)
#
#
# Indices 1 2 3 4 5 6 
#
# 1 89.0935 38.6432 47.1827 0.0000 0.0000 0.0000
# 2 38.6432 110.8981 49.2738 0.0000 0.0000 0.0000
# 3 47.1827 49.2738 110.5953 0.0000 0.0000 0.0000
# 4 0.0000 0.0000 0.0000 31.7047 0.0000 0.0000
# 5 0.0000 0.0000 0.0000 0.0000 21.4152 0.0000
# 6 0.0000 0.0000 0.0000 0.0000 0.0000 29.4517
#
#
#
# Elastic Compliance Matrix: (Units=1/GPa)
#
#
# Indices 1 2 3 4 5 6 
#
# 1 0.015273 -0.003026 -0.005168 0.000000 0.000000 0.000000
# 2 -0.003026 0.011842 -0.003985 0.000000 0.000000 0.000000
# 3 -0.005168 -0.003985 0.013022 0.000000 0.000000 0.000000
# 4 0.000000 0.000000 0.000000 0.031541 0.000000 0.000000
# 5 0.000000 0.000000 0.000000 0.000000 0.046696 0.000000
# 6 0.000000 0.000000 0.000000 0.000000 0.000000 0.033954
#
#
# Mechanical properties :
#
#
# Convention : Reuss Voigt Hill
#
# Bulk Modulus (GPa) = 63.37136 64.53184 63.95160
# Shear Modulus (GPa) = 27.48054 28.21348 27.84701
#
# Velocity S-wave (km/s) = 4.00630 4.05937 4.03292
# Velocity P-wave (km/s) = 7.64287 7.72412 7.68361
#
# Compressibility (1/GPa) = 0.01578000
#
# Stress axis : x y z
#
# Youngs Moduli (GPa) = 65.47299 84.44229 76.79157
#
# Poissons Ratio (x) = 0.25552 0.39685
# Poissons Ratio (y) = 0.19812 0.30603
# Poissons Ratio (z) = 0.33836 0.33652
#
# Static dielectric constant tensor:
#      x y z
#    x 3.188020 0.000000 0.000000 
#    y 0.000000 3.234580 0.000000 
#    z 0.000000 0.000000 3.075180 
# 
# 
# High freq. dielectric constant tensor:
#      x y z
#    x 1.651670 0.000000 0.000000 
#    y 0.000000 1.674080 0.000000 
#    z 0.000000 0.000000 1.651750 
# 
# From -- ./inp_files/37188.got.cif
#   From: 2010.03.12/outbox.cif.g09.slc.cpg/sg67_19_cif.got.tgz:37188.got - 2010.04.10 22:41:39.
