data_PCOD8279672
_publ_section_title
;
Structure prediction by ZEFSAII (Michael W. Deem and Ramdas Pophale) SiO2 
 PCOD8279672
Probable space group: C M M A
;
_chemical_formula_sum "Si O2"
_cell_formula_units_Z 64
_cell_length_a 9.554957
_cell_length_b 27.405593
_cell_length_c 12.567580
_cell_angle_alpha 90.000000
_cell_angle_beta 90.000000
_cell_angle_gamma 90.000000
_cell_volume 3290.937232
_symmetry_space_group_name_H-M "C M M A"
_symmetry_group_IT_number 67
_symmetry_cell_setting 'orthorhombic'
loop_
_space_group_symop_operation_xyz
x,y,z
-x,1/2-y,z
x,-y,-z
-x,1/2+y,-z
-x,-y,-z
x,1/2+y,-z
-x,y,z
x,1/2-y,z
1/2+x,1/2+y,z
1/2-x,-y,z
1/2+x,1/2-y,-z
1/2-x,y,-z
1/2-x,1/2-y,-z
1/2+x,y,-z
1/2-x,1/2+y,z
1/2+x,-y,z
loop_
_atom_site_type_symbol
_atom_site_label
_atom_site_fract_x
_atom_site_fract_y
_atom_site_fract_z
Si Si1 0.349573 0.560447 0.909584
Si Si2 0.836721 0.750000 0.108574
Si Si3 0.836890 0.094357 0.392390
Si Si4 0.836719 0.349443 0.777504
Si Si5 0.250000 0.500000 0.725934
O O1 0.500000 0.560617 0.964536
O O2 0.305707 0.614981 0.876698
O O3 0.358039 0.527644 0.803317
O O4 0.250000 0.539134 0.000000
O O5 0.797701 0.704166 0.182345
O O6 0.000000 0.750000 0.077395
O O7 0.750000 0.750000 0.000000
O O8 0.750000 0.094798 0.500000
O O9 0.766134 0.135449 0.318156
O O10 0.830489 0.039694 0.344921
O O11 0.000000 0.107586 0.411371
O O12 0.000000 0.353473 0.741676
#
# Coordination Sequence:
#
# PCOD8279672 Si02
#       5
#    16   8  16  16   8
#     4  10  20  33  50  75 109 146 182 222 268 320
#     4  10  20  36  61  90 119 152 187 228 276 328
#     4  11  23  39  60  83 109 144 186 233 284 335
#     4   9  20  38  57  81 114 148 186 231 277 328
#     4  10  22  36  54  78 108 144 186 228 272 328
#
# _framework density 19.447347000000001
#
# number of rings (size 3 to 8) (size 9 to 14) (size 15 to 20)
#    0.000    2.000    0.000    3.000    0.000   11.000 
#    0.000    0.625    0.000    0.000    0.000    0.000 
#    0.000    0.000    0.000    0.000    0.000    0.000 
#
# Total GULP energy -396665.757309 kJ/mol
# GULP energy per Si atom -12395.804916 kJ/mol
# Density = 1.940308 g / cm^3
# Si number density = 19.447347 Si / 1000 Ang^3
#
#
#
# Elastic Constant Matrix: (Units=GPa)
#
#
# Indices 1 2 3 4 5 6 
#
# 1 133.5368 50.0981 87.4366 0.0000 0.0000 0.0000
# 2 50.0981 145.2411 60.9070 0.0000 0.0000 0.0000
# 3 87.4366 60.9070 130.1502 0.0000 0.0000 0.0000
# 4 0.0000 0.0000 0.0000 16.9258 0.0000 0.0000
# 5 0.0000 0.0000 0.0000 0.0000 35.9175 0.0000
# 6 0.0000 0.0000 0.0000 0.0000 0.0000 5.4822
#
#
#
# Elastic Compliance Matrix: (Units=1/GPa)
#
#
# Indices 1 2 3 4 5 6 
#
# 1 0.013500 -0.001062 -0.008573 0.000000 0.000000 0.000000
# 2 -0.001062 0.008650 -0.003335 0.000000 0.000000 0.000000
# 3 -0.008573 -0.003335 0.015003 0.000000 0.000000 0.000000
# 4 0.000000 0.000000 0.000000 0.059081 0.000000 0.000000
# 5 0.000000 0.000000 0.000000 0.000000 0.027842 0.000000
# 6 0.000000 0.000000 0.000000 0.000000 0.000000 0.182409
#
#
# Mechanical properties :
#
#
# Convention : Reuss Voigt Hill
#
# Bulk Modulus (GPa) = 89.16590 89.53459 89.35025
# Shear Modulus (GPa) = 14.87383 25.69752 20.28567
#
# Velocity S-wave (km/s) = 2.76855 3.63904 3.23322
# Velocity P-wave (km/s) = 7.49461 7.98725 7.74485
#
# Compressibility (1/GPa) = 0.01121505
#
# Stress axis : x y z
#
# Youngs Moduli (GPa) = 74.07391 115.61145 66.65246
#
# Poissons Ratio (x) = 0.12273 0.57139
# Poissons Ratio (y) = 0.07864 0.22226
# Poissons Ratio (z) = 0.63501 0.38552
#
# Static dielectric constant tensor:
#      x y z
#    x 3.479140 0.000000 0.000000 
#    y 0.000000 3.700150 0.000000 
#    z 0.000000 0.000000 3.413900 
# 
# 
# High freq. dielectric constant tensor:
#      x y z
#    x 1.756650 0.000000 0.000000 
#    y 0.000000 1.760590 0.000000 
#    z 0.000000 0.000000 1.750990 
# 
# From -- ./inp_files/15860.got.cif
#   From: 2010.03.12/outbox.cif.g09.slc.cpg/sg67_8_cif.got.tgz:15860.got - 2010.04.10 22:41:39.
