data_PCOD8279138
_publ_section_title
;
Structure prediction by ZEFSAII (Michael W. Deem and Ramdas Pophale) SiO2 
 PCOD8279138
Probable space group: C M M A
;
_chemical_formula_sum "Si O2"
_cell_formula_units_Z 80
_cell_length_a 15.754492
_cell_length_b 8.740535
_cell_length_c 28.913981
_cell_angle_alpha 90.000000
_cell_angle_beta 90.000000
_cell_angle_gamma 90.000000
_cell_volume 3981.532926
_symmetry_space_group_name_H-M "C M M A"
_symmetry_group_IT_number 67
_symmetry_cell_setting 'orthorhombic'
loop_
_space_group_symop_operation_xyz
x,y,z
-x,1/2-y,z
x,-y,-z
-x,1/2+y,-z
-x,-y,-z
x,1/2+y,-z
-x,y,z
x,1/2-y,z
1/2+x,1/2+y,z
1/2-x,-y,z
1/2+x,1/2-y,-z
1/2-x,y,-z
1/2-x,1/2-y,-z
1/2+x,y,-z
1/2-x,1/2+y,z
1/2+x,-y,z
loop_
_atom_site_type_symbol
_atom_site_label
_atom_site_fract_x
_atom_site_fract_y
_atom_site_fract_z
Si Si1 0.500000 0.068676 0.891497
Si Si2 0.596216 0.421129 0.634874
Si Si3 0.000000 0.932555 0.787304
Si Si4 0.658173 0.570778 0.546459
Si Si5 0.837691 0.068769 0.268401
Si Si6 0.661628 0.432560 0.949656
O O1 0.500000 0.250000 0.890811
O O2 0.500000 0.003518 0.839503
O O3 0.415093 0.010796 0.917110
O O4 0.500000 0.417813 0.652582
O O5 0.625404 0.250000 0.620254
O O6 0.602379 0.532971 0.591161
O O7 0.651247 0.481856 0.678010
O O8 0.915604 0.995803 0.762009
O O9 0.000000 0.750000 0.786161
O O10 0.616326 0.500000 0.500000
O O11 0.665123 0.750000 0.539589
O O12 0.750000 0.500000 0.554707
O O13 0.834537 0.250000 0.264633
O O14 0.750000 0.000000 0.249195
O O15 0.667773 0.250000 0.952415
O O16 0.750000 0.500000 0.929752
O O17 0.643474 0.500000 0.000000
#
# Coordination Sequence:
#
# PCOD8279138 Si02
#       6
#     8  16   8  16  16  16
#     4   9  19  33  54  80 110 147 189 232 279 335
#     4  10  20  36  57  81 109 142 181 224 271 331
#     4   9  18  37  58  80 111 149 188 226 278 343
#     4  11  22  37  56  79 108 143 180 223 272 328
#     4  10  20  36  60  84 109 145 185 228 278 332
#     4  10  19  33  53  80 111 148 190 234 279 329
#
# _framework density 20.092763999999999
#
# number of rings (size 3 to 8) (size 9 to 14) (size 15 to 20)
#    0.000    2.000    1.000    4.500    0.000    4.000 
#    0.000    2.000    0.000    3.600    0.000    0.000 
#    0.000    0.000    0.000    0.000    0.000    0.000 
#
# Total GULP energy -496013.080945 kJ/mol
# GULP energy per Si atom -12400.327024 kJ/mol
# Density = 2.004703 g / cm^3
# Si number density = 20.092764 Si / 1000 Ang^3
#
#
#
# Elastic Constant Matrix: (Units=GPa)
#
#
# Indices 1 2 3 4 5 6 
#
# 1 154.3521 32.2471 82.7214 0.0000 0.0000 0.0000
# 2 32.2471 81.0871 37.7427 0.0000 0.0000 0.0000
# 3 82.7214 37.7427 136.6872 0.0000 0.0000 0.0000
# 4 0.0000 0.0000 0.0000 19.1400 0.0000 0.0000
# 5 0.0000 0.0000 0.0000 0.0000 26.8581 0.0000
# 6 0.0000 0.0000 0.0000 0.0000 0.0000 26.7079
#
#
#
# Elastic Compliance Matrix: (Units=1/GPa)
#
#
# Indices 1 2 3 4 5 6 
#
# 1 0.009705 -0.001292 -0.005517 0.000000 0.000000 0.000000
# 2 -0.001292 0.014323 -0.003173 0.000000 0.000000 0.000000
# 3 -0.005517 -0.003173 0.011531 0.000000 0.000000 0.000000
# 4 0.000000 0.000000 0.000000 0.052247 0.000000 0.000000
# 5 0.000000 0.000000 0.000000 0.000000 0.037233 0.000000
# 6 0.000000 0.000000 0.000000 0.000000 0.000000 0.037442
#
#
# Mechanical properties :
#
#
# Convention : Reuss Voigt Hill
#
# Bulk Modulus (GPa) = 64.12033 75.28319 69.70176
# Shear Modulus (GPa) = 26.64640 29.16887 27.90763
#
# Velocity S-wave (km/s) = 3.64561 3.81426 3.73089
# Velocity P-wave (km/s) = 7.04997 7.54634 7.30238
#
# Compressibility (1/GPa) = 0.01559568
#
# Stress axis : x y z
#
# Youngs Moduli (GPa) = 103.03819 69.81709 86.72391
#
# Poissons Ratio (x) = 0.09019 0.47843
# Poissons Ratio (y) = 0.13310 0.27519
# Poissons Ratio (z) = 0.56844 0.22154
#
# Static dielectric constant tensor:
#      x y z
#    x 3.822470 0.000000 0.000000 
#    y 0.000000 3.389020 0.000000 
#    z 0.000000 0.000000 3.747630 
# 
# 
# High freq. dielectric constant tensor:
#      x y z
#    x 1.791600 0.000000 0.000000 
#    y 0.000000 1.759990 0.000000 
#    z 0.000000 0.000000 1.783400 
# 
# From -- ./inp_files/44458.got.cif
#   From: 2010.03.12/outbox.cif.g09.slc.cpg/sg67_23_cif.got.tgz:44458.got - 2010.04.10 22:41:39.
