data_PCOD8279048
_publ_section_title
;
Structure prediction by ZEFSAII (Michael W. Deem and Ramdas Pophale) SiO2 
 PCOD8279048
Probable space group: C M M A
;
_chemical_formula_sum "Si O2"
_cell_formula_units_Z 96
_cell_length_a 10.450827
_cell_length_b 18.137897
_cell_length_c 23.938816
_cell_angle_alpha 90.000000
_cell_angle_beta 90.000000
_cell_angle_gamma 90.000000
_cell_volume 4537.746773
_symmetry_space_group_name_H-M "C M M A"
_symmetry_group_IT_number 67
_symmetry_cell_setting 'orthorhombic'
loop_
_space_group_symop_operation_xyz
x,y,z
-x,1/2-y,z
x,-y,-z
-x,1/2+y,-z
-x,-y,-z
x,1/2+y,-z
-x,y,z
x,1/2-y,z
1/2+x,1/2+y,z
1/2-x,-y,z
1/2+x,1/2-y,-z
1/2-x,y,-z
1/2-x,1/2-y,-z
1/2+x,y,-z
1/2-x,1/2+y,z
1/2+x,-y,z
loop_
_atom_site_type_symbol
_atom_site_label
_atom_site_fract_x
_atom_site_fract_y
_atom_site_fract_z
Si Si1 0.141064 0.834700 0.041228
Si Si2 0.724247 0.336949 0.374197
Si Si3 0.500000 0.831146 0.133100
Si Si4 0.500000 0.837000 0.421014
Si Si5 0.000000 0.337252 0.545272
Si Si6 0.258047 0.087174 0.140579
Si Si7 0.254101 0.413041 0.267350
Si Si8 0.000000 0.669203 0.737449
O O1 0.171445 0.750000 0.056036
O O2 0.136130 0.880823 0.098803
O O3 0.000000 0.842727 0.013257
O O4 0.250000 0.866438 0.000000
O O5 0.716120 0.250000 0.363916
O O6 0.870347 0.361838 0.388797
O O7 0.629468 0.362827 0.423427
O O8 0.666350 0.376566 0.317882
O O9 0.500000 0.750000 0.102725
O O10 0.374626 0.877904 0.118385
O O11 0.500000 0.815317 0.197846
O O12 0.500000 0.750000 0.428085
O O13 0.500000 0.872192 0.483241
O O14 0.000000 0.250000 0.541539
O O15 0.297193 0.109041 0.204254
O O16 0.250000 0.000000 0.135319
O O17 0.250000 0.500000 0.273183
O O18 0.117263 0.379436 0.280830
O O19 0.000000 0.750000 0.706753
#
# Coordination Sequence:
#
# PCOD8279048 Si02
#       8
#    16  16   8   8   8  16  16   8
#     4  10  23  43  66  92 123 160 202 249 305 369
#     4  10  19  32  54  82 111 149 198 247 300 365
#     4   9  18  33  59  87 114 156 204 251 299 353
#     4   9  17  32  57  80 106 143 196 262 301 344
#     4   9  18  32  50  81 113 143 187 246 319 367
#     4  10  22  38  60  90 123 160 204 252 306 365
#     4  10  21  36  54  84 121 161 195 247 311 368
#     4   9  17  33  56  81 109 149 211 256 281 346
#
# _framework density 21.155874000000001
#
# number of rings (size 3 to 8) (size 9 to 14) (size 15 to 20)
#    0.000    2.333    0.000    2.000    2.333    5.667 
#    3.000    0.833    0.000    3.000    0.000    0.000 
#    0.000    0.000    0.000    0.000    0.000    0.000 
#
# Total GULP energy -594776.044604 kJ/mol
# GULP energy per Si atom -12391.167596 kJ/mol
# Density = 2.110772 g / cm^3
# Si number density = 21.155874 Si / 1000 Ang^3
#
#
#
# Elastic Constant Matrix: (Units=GPa)
#
#
# Indices 1 2 3 4 5 6 
#
# 1 103.2162 33.8237 43.0167 0.0000 0.0000 0.0000
# 2 33.8237 86.6904 36.9888 0.0000 0.0000 0.0000
# 3 43.0167 36.9888 147.1903 0.0000 0.0000 0.0000
# 4 0.0000 0.0000 0.0000 27.0925 0.0000 0.0000
# 5 0.0000 0.0000 0.0000 0.0000 21.5843 0.0000
# 6 0.0000 0.0000 0.0000 0.0000 0.0000 24.5750
#
#
#
# Elastic Compliance Matrix: (Units=1/GPa)
#
#
# Indices 1 2 3 4 5 6 
#
# 1 0.011933 -0.003548 -0.002596 0.000000 0.000000 0.000000
# 2 -0.003548 0.013976 -0.002475 0.000000 0.000000 0.000000
# 3 -0.002596 -0.002475 0.008175 0.000000 0.000000 0.000000
# 4 0.000000 0.000000 0.000000 0.036911 0.000000 0.000000
# 5 0.000000 0.000000 0.000000 0.000000 0.046330 0.000000
# 6 0.000000 0.000000 0.000000 0.000000 0.000000 0.040692
#
#
# Mechanical properties :
#
#
# Convention : Reuss Voigt Hill
#
# Bulk Modulus (GPa) = 59.36487 62.75061 61.05774
# Shear Modulus (GPa) = 27.64433 29.53488 28.58960
#
# Velocity S-wave (km/s) = 3.61875 3.74044 3.68010
# Velocity P-wave (km/s) = 6.75145 6.95557 6.85427
#
# Compressibility (1/GPa) = 0.01684498
#
# Stress axis : x y z
#
# Youngs Moduli (GPa) = 83.80132 71.55224 122.33111
#
# Poissons Ratio (x) = 0.25389 0.31754
# Poissons Ratio (y) = 0.29735 0.30278
# Poissons Ratio (z) = 0.21753 0.17710
#
# Static dielectric constant tensor:
#      x y z
#    x 3.916990 0.000000 0.000000 
#    y 0.000000 3.499400 0.000000 
#    z 0.000000 0.000000 4.071390 
# 
# 
# High freq. dielectric constant tensor:
#      x y z
#    x 1.820500 0.000000 0.000000 
#    y 0.000000 1.799070 0.000000 
#    z 0.000000 0.000000 1.846450 
# 
# From -- ./inp_files/41533.got.cif
#   From: 2010.03.12/outbox.cif.g09.slc.cpg/sg67_21_cif.got.tgz:41533.got - 2010.04.10 22:41:39.
