data_PCOD8279901
_publ_section_title
;
Structure prediction by ZEFSAII (Michael W. Deem and Ramdas Pophale) SiO2 
 PCOD8279901
Probable space group: C M M A
;
_chemical_formula_sum "Si O2"
_cell_formula_units_Z 96
_cell_length_a 22.177688
_cell_length_b 16.548635
_cell_length_c 12.948793
_cell_angle_alpha 90.000000
_cell_angle_beta 90.000000
_cell_angle_gamma 90.000000
_cell_volume 4752.342525
_symmetry_space_group_name_H-M "C M M A"
_symmetry_group_IT_number 67
_symmetry_cell_setting 'orthorhombic'
loop_
_space_group_symop_operation_xyz
x,y,z
-x,1/2-y,z
x,-y,-z
-x,1/2+y,-z
-x,-y,-z
x,1/2+y,-z
-x,y,z
x,1/2-y,z
1/2+x,1/2+y,z
1/2-x,-y,z
1/2+x,1/2-y,-z
1/2-x,y,-z
1/2-x,1/2-y,-z
1/2+x,y,-z
1/2-x,1/2+y,z
1/2+x,-y,z
loop_
_atom_site_type_symbol
_atom_site_label
_atom_site_fract_x
_atom_site_fract_y
_atom_site_fract_z
Si Si1 0.567015 0.952912 0.710982
Si Si2 0.158292 0.440525 0.404093
Si Si3 0.182123 0.088048 0.033982
Si Si4 0.359026 0.840109 0.841772
Si Si5 0.065401 0.339861 0.516637
Si Si6 0.725912 0.846441 0.240638
O O1 0.500000 0.989205 0.734358
O O2 0.589654 0.902720 0.809035
O O3 0.562389 0.894033 0.615845
O O4 0.616585 0.019134 0.682885
O O5 0.177521 0.500000 0.500000
O O6 0.118782 0.366271 0.443145
O O7 0.215072 0.397820 0.346734
O O8 0.180725 0.114197 0.154400
O O9 0.250000 0.091931 0.000000
O O10 0.146434 0.153963 0.965912
O O11 0.155998 0.000000 0.000000
O O12 0.378909 0.750000 0.812072
O O13 0.295556 0.862091 0.786526
O O14 0.079529 0.250000 0.554005
O O15 0.000000 0.345667 0.459673
O O16 0.713060 0.750000 0.252374
#
# Coordination Sequence:
#
# PCOD8279901 Si02
#       6
#    16  16  16  16  16  16
#     4  10  20  34  53  76 103 138 181 226 269 314
#     4  10  20  34  53  76 107 141 179 223 271 322
#     4   9  17  31  54  82 110 138 172 214 262 318
#     4  10  20  34  54  81 110 139 175 218 264 319
#     4   9  17  31  51  73  98 134 182 229 270 317
#     4  10  20  35  56  82 112 145 179 218 270 328
#
# _framework density 20.200564
#
# number of rings (size 3 to 8) (size 9 to 14) (size 15 to 20)
#    0.000    2.333    0.000    3.000    0.000    7.000 
#    0.000    5.833    0.000   14.500    0.000    0.000 
#    0.000    0.000    0.000    0.000    0.000    0.000 
#
# Total GULP energy -594644.018118 kJ/mol
# GULP energy per Si atom -12388.417044 kJ/mol
# Density = 2.015459 g / cm^3
# Si number density = 20.200564 Si / 1000 Ang^3
#
#
#
# Elastic Constant Matrix: (Units=GPa)
#
#
# Indices 1 2 3 4 5 6 
#
# 1 36.4862 11.6683 20.2900 0.0000 0.0000 0.0000
# 2 11.6683 63.7352 11.8554 0.0000 0.0000 0.0000
# 3 20.2900 11.8554 74.5596 0.0000 0.0000 0.0000
# 4 0.0000 0.0000 0.0000 38.4463 0.0000 0.0000
# 5 0.0000 0.0000 0.0000 0.0000 20.4044 0.0000
# 6 0.0000 0.0000 0.0000 0.0000 0.0000 15.1255
#
#
#
# Elastic Compliance Matrix: (Units=1/GPa)
#
#
# Indices 1 2 3 4 5 6 
#
# 1 0.033543 -0.004578 -0.008400 0.000000 0.000000 0.000000
# 2 -0.004578 0.016793 -0.001424 0.000000 0.000000 0.000000
# 3 -0.008400 -0.001424 0.015924 0.000000 0.000000 0.000000
# 4 0.000000 0.000000 0.000000 0.026010 0.000000 0.000000
# 5 0.000000 0.000000 0.000000 0.000000 0.049009 0.000000
# 6 0.000000 0.000000 0.000000 0.000000 0.000000 0.066113
#
#
# Mechanical properties :
#
#
# Convention : Reuss Voigt Hill
#
# Bulk Modulus (GPa) = 26.69866 29.15648 27.92757
# Shear Modulus (GPa) = 20.10582 23.52638 21.81610
#
# Velocity S-wave (km/s) = 3.15828 3.41638 3.28986
# Velocity P-wave (km/s) = 5.15219 5.47970 5.31847
#
# Compressibility (1/GPa) = 0.03745507
#
# Stress axis : x y z
#
# Youngs Moduli (GPa) = 29.81237 59.54847 62.79636
#
# Poissons Ratio (x) = 0.27264 0.52750
# Poissons Ratio (y) = 0.13649 0.08944
# Poissons Ratio (z) = 0.25043 0.08481
#
# Static dielectric constant tensor:
#      x y z
#    x 3.757870 0.000000 0.000000 
#    y 0.000000 3.793120 0.000000 
#    z 0.000000 0.000000 3.998640 
# 
# 
# High freq. dielectric constant tensor:
#      x y z
#    x 1.762340 0.000000 0.000000 
#    y 0.000000 1.796850 0.000000 
#    z 0.000000 0.000000 1.775610 
# 
# From -- ./inp_files/19642.got.cif
#   From: 2010.03.12/outbox.cif.g09.slc.cpg/sg67_10_cif.got.tgz:19642.got - 2010.04.10 22:41:39.
