data_PCOD8279553
_publ_section_title
;
Structure prediction by ZEFSAII (Michael W. Deem and Ramdas Pophale) SiO2 
 PCOD8279553
Probable space group: C M M A
;
_chemical_formula_sum "Si O2"
_cell_formula_units_Z 72
_cell_length_a 9.088572
_cell_length_b 15.866511
_cell_length_c 24.607651
_cell_angle_alpha 90.000000
_cell_angle_beta 90.000000
_cell_angle_gamma 90.000000
_cell_volume 3548.519924
_symmetry_space_group_name_H-M "C M M A"
_symmetry_group_IT_number 67
_symmetry_cell_setting 'orthorhombic'
loop_
_space_group_symop_operation_xyz
x,y,z
-x,1/2-y,z
x,-y,-z
-x,1/2+y,-z
-x,-y,-z
x,1/2+y,-z
-x,y,z
x,1/2-y,z
1/2+x,1/2+y,z
1/2-x,-y,z
1/2+x,1/2-y,-z
1/2-x,y,-z
1/2-x,1/2-y,-z
1/2+x,y,-z
1/2-x,1/2+y,z
1/2+x,-y,z
loop_
_atom_site_type_symbol
_atom_site_label
_atom_site_fract_x
_atom_site_fract_y
_atom_site_fract_z
Si Si1 0.827855 0.913621 0.875810
Si Si2 0.338208 0.345888 0.344340
Si Si3 0.674678 0.250000 0.942196
Si Si4 0.826741 0.586115 0.751392
Si Si5 0.334414 0.850679 0.446801
O O1 0.772418 0.834104 0.910834
O O2 0.788544 0.891548 0.813620
O O3 0.000000 0.928732 0.883434
O O4 0.750000 0.000000 0.895072
O O5 0.500000 0.388724 0.337481
O O6 0.362759 0.250000 0.360625
O O7 0.245174 0.345913 0.288407
O O8 0.247815 0.388646 0.393650
O O9 0.500000 0.250000 0.948439
O O10 0.750000 0.250000 0.000000
O O11 0.750000 0.500000 0.733948
O O12 0.000000 0.581397 0.742163
O O13 0.500000 0.886389 0.447576
O O14 0.337460 0.750000 0.445328
O O15 0.250000 0.883734 0.500000
#
# Coordination Sequence:
#
# PCOD8279553 Si02
#       5
#    16  16   8  16  16
#     4   9  20  38  60  84 116 153 194 238 288 343
#     4  10  20  32  48  75 107 137 175 224 272 324
#     4  10  22  40  60  88 120 156 195 238 285 338
#     4  10  20  35  56  78 105 141 179 222 274 332
#     4   9  16  27  44  67  97 134 175 220 272 327
#
# _framework density 20.290150000000001
#
# number of rings (size 3 to 8) (size 9 to 14) (size 15 to 20)
#    0.000    2.444    0.000    2.000    1.556    6.222 
#    0.000    2.222    0.000    0.667    0.000    4.667 
#    0.000    0.000    0.000    0.000    0.000    0.000 
#
# Total GULP energy -446322.862889 kJ/mol
# GULP energy per Si atom -12397.857302 kJ/mol
# Density = 2.024397 g / cm^3
# Si number density = 20.290150 Si / 1000 Ang^3
#
#
#
# Elastic Constant Matrix: (Units=GPa)
#
#
# Indices 1 2 3 4 5 6 
#
# 1 134.8047 39.2451 72.0602 0.0000 0.0000 0.0000
# 2 39.2451 76.0407 55.4856 0.0000 0.0000 0.0000
# 3 72.0602 55.4856 145.4473 0.0000 0.0000 0.0000
# 4 0.0000 0.0000 0.0000 4.0910 0.0000 0.0000
# 5 0.0000 0.0000 0.0000 0.0000 39.1182 0.0000
# 6 0.0000 0.0000 0.0000 0.0000 0.0000 26.7988
#
#
#
# Elastic Compliance Matrix: (Units=1/GPa)
#
#
# Indices 1 2 3 4 5 6 
#
# 1 0.010354 -0.002218 -0.004283 0.000000 0.000000 0.000000
# 2 -0.002218 0.018699 -0.006034 0.000000 0.000000 0.000000
# 3 -0.004283 -0.006034 0.011300 0.000000 0.000000 0.000000
# 4 0.000000 0.000000 0.000000 0.244438 0.000000 0.000000
# 5 0.000000 0.000000 0.000000 0.000000 0.025564 0.000000
# 6 0.000000 0.000000 0.000000 0.000000 0.000000 0.037315
#
#
# Mechanical properties :
#
#
# Convention : Reuss Voigt Hill
#
# Bulk Modulus (GPa) = 65.44396 76.65274 71.04835
# Shear Modulus (GPa) = 13.23333 26.63505 19.93419
#
# Velocity S-wave (km/s) = 2.55660 3.62706 3.13782
# Velocity P-wave (km/s) = 6.40617 7.44319 6.94407
#
# Compressibility (1/GPa) = 0.01528025
#
# Stress axis : x y z
#
# Youngs Moduli (GPa) = 96.58494 53.47956 88.49933
#
# Poissons Ratio (x) = 0.11862 0.37908
# Poissons Ratio (y) = 0.21423 0.53404
# Poissons Ratio (z) = 0.41372 0.32271
#
# Static dielectric constant tensor:
#      x y z
#    x 3.869890 0.000000 0.000000 
#    y 0.000000 3.424570 0.000000 
#    z 0.000000 0.000000 3.682390 
# 
# 
# High freq. dielectric constant tensor:
#      x y z
#    x 1.802050 0.000000 0.000000 
#    y 0.000000 1.762970 0.000000 
#    z 0.000000 0.000000 1.795840 
# 
# From -- ./inp_files/40510.got.cif
#   From: 2010.03.12/outbox.cif.g09.slc.cpg/sg67_21_cif.got.tgz:40510.got - 2010.04.10 22:41:39.
