data_PCOD8279682
_publ_section_title
;
Structure prediction by ZEFSAII (Michael W. Deem and Ramdas Pophale) SiO2 
 PCOD8279682
Probable space group: C M M A
;
_chemical_formula_sum "Si O2"
_cell_formula_units_Z 68
_cell_length_a 9.399499
_cell_length_b 21.088926
_cell_length_c 20.531920
_cell_angle_alpha 90.000000
_cell_angle_beta 90.000000
_cell_angle_gamma 90.000000
_cell_volume 4069.946799
_symmetry_space_group_name_H-M "C M M A"
_symmetry_group_IT_number 67
_symmetry_cell_setting 'orthorhombic'
loop_
_space_group_symop_operation_xyz
x,y,z
-x,1/2-y,z
x,-y,-z
-x,1/2+y,-z
-x,-y,-z
x,1/2+y,-z
-x,y,z
x,1/2-y,z
1/2+x,1/2+y,z
1/2-x,-y,z
1/2+x,1/2-y,-z
1/2-x,y,-z
1/2-x,1/2-y,-z
1/2+x,y,-z
1/2-x,1/2+y,z
1/2+x,-y,z
loop_
_atom_site_type_symbol
_atom_site_label
_atom_site_fract_x
_atom_site_fract_y
_atom_site_fract_z
Si Si1 0.840077 0.121586 0.441217
Si Si2 0.250000 0.000000 0.500000
Si Si3 0.839784 0.825649 0.938702
Si Si4 0.665421 0.176313 0.326759
Si Si5 0.657654 0.674700 0.819470
O O1 0.750000 0.154693 0.500000
O O2 0.763486 0.134605 0.373204
O O3 0.000000 0.149000 0.440022
O O4 0.845706 0.045484 0.453769
O O5 0.840832 0.750000 0.938558
O O6 0.768599 0.852180 0.872373
O O7 0.000000 0.852211 0.943219
O O8 0.750000 0.851190 0.000000
O O9 0.500000 0.162997 0.341636
O O10 0.700854 0.250000 0.337428
O O11 0.703919 0.154786 0.253273
O O12 0.500000 0.648014 0.835327
O O13 0.651723 0.750000 0.823250
#
# Coordination Sequence:
#
# PCOD8279682 Si02
#       5
#    16   4  16  16  16
#     4  10  20  33  51  68  86 111 142 179 218 261
#     4   8  22  36  52  68  86 108 140 178 222 264
#     4   9  15  21  31  48  70 100 139 179 212 244
#     4   9  18  31  46  65  90 118 146 177 217 262
#     4   8  14  25  38  52  75 107 139 172 209 249
#
# _framework density 16.707834999999999
#
# number of rings (size 3 to 8) (size 9 to 14) (size 15 to 20)
#    0.706    2.353    0.000    3.176    0.000    4.706 
#    0.000    2.353    0.000    0.000    0.000    0.000 
#    0.000    0.000    0.000    1.059    0.000   16.471 
#
# Total GULP energy -421306.049950 kJ/mol
# GULP energy per Si atom -12391.354410 kJ/mol
# Density = 1.666981 g / cm^3
# Si number density = 16.707835 Si / 1000 Ang^3
#
#
#
# Elastic Constant Matrix: (Units=GPa)
#
#
# Indices 1 2 3 4 5 6 
#
# 1 143.1168 20.3311 96.6561 0.0000 0.0000 0.0000
# 2 20.3311 25.1068 24.6077 0.0000 0.0000 0.0000
# 3 96.6561 24.6077 154.5211 0.0000 0.0000 0.0000
# 4 0.0000 0.0000 0.0000 0.8823 0.0000 0.0000
# 5 0.0000 0.0000 0.0000 0.0000 34.0951 0.0000
# 6 0.0000 0.0000 0.0000 0.0000 0.0000 9.6574
#
#
#
# Elastic Compliance Matrix: (Units=1/GPa)
#
#
# Indices 1 2 3 4 5 6 
#
# 1 0.012269 -0.002860 -0.007219 0.000000 0.000000 0.000000
# 2 -0.002860 0.047863 -0.005833 0.000000 0.000000 0.000000
# 3 -0.007219 -0.005833 0.011916 0.000000 0.000000 0.000000
# 4 0.000000 0.000000 0.000000 1.133393 0.000000 0.000000
# 5 0.000000 0.000000 0.000000 0.000000 0.029330 0.000000
# 6 0.000000 0.000000 0.000000 0.000000 0.000000 0.103548
#
#
# Mechanical properties :
#
#
# Convention : Reuss Voigt Hill
#
# Bulk Modulus (GPa) = 24.86089 67.32607 46.09348
# Shear Modulus (GPa) = 3.61389 21.00361 12.30875
#
# Velocity S-wave (km/s) = 1.47231 3.54942 2.71718
# Velocity P-wave (km/s) = 4.21928 7.56184 6.12306
#
# Compressibility (1/GPa) = 0.04022381
#
# Stress axis : x y z
#
# Youngs Moduli (GPa) = 81.50532 20.89297 83.91832
#
# Poissons Ratio (x) = 0.05975 0.60582
# Poissons Ratio (y) = 0.23308 0.48953
# Poissons Ratio (z) = 0.58840 0.12188
#
# Static dielectric constant tensor:
#      x y z
#    x 3.248220 0.000000 0.000000 
#    y 0.000000 2.441360 0.000000 
#    z 0.000000 0.000000 3.304630 
# 
# 
# High freq. dielectric constant tensor:
#      x y z
#    x 1.651000 0.000000 0.000000 
#    y 0.000000 1.560940 0.000000 
#    z 0.000000 0.000000 1.655300 
# 
# From -- ./inp_files/32256.got.cif
#   From: 2010.03.12/outbox.cif.g09.slc.cpg/sg67_17_cif.got.tgz:32256.got - 2010.04.10 22:41:39.
