data_PCOD8279577
_publ_section_title
;
Structure prediction by ZEFSAII (Michael W. Deem and Ramdas Pophale) SiO2 
 PCOD8279577
Probable space group: C M M A
;
_chemical_formula_sum "Si O2"
_cell_formula_units_Z 116
_cell_length_a 24.683586
_cell_length_b 9.333061
_cell_length_c 25.027260
_cell_angle_alpha 90.000000
_cell_angle_beta 90.000000
_cell_angle_gamma 90.000000
_cell_volume 5765.615325
_symmetry_space_group_name_H-M "C M M A"
_symmetry_group_IT_number 67
_symmetry_cell_setting 'orthorhombic'
loop_
_space_group_symop_operation_xyz
x,y,z
-x,1/2-y,z
x,-y,-z
-x,1/2+y,-z
-x,-y,-z
x,1/2+y,-z
-x,y,z
x,1/2-y,z
1/2+x,1/2+y,z
1/2-x,-y,z
1/2+x,1/2-y,-z
1/2-x,y,-z
1/2-x,1/2-y,-z
1/2+x,y,-z
1/2-x,1/2+y,z
1/2+x,-y,z
loop_
_atom_site_type_symbol
_atom_site_label
_atom_site_fract_x
_atom_site_fract_y
_atom_site_fract_z
Si Si1 0.940580 0.916972 0.945450
Si Si2 0.411346 0.089803 0.649992
Si Si3 0.158978 0.414649 0.797395
Si Si4 0.936900 0.091921 0.548084
Si Si5 0.560349 0.586212 0.232086
Si Si6 0.202127 0.412553 0.300701
Si Si7 0.750000 0.000000 0.000000
Si Si8 0.338311 0.091563 0.084422
O O1 0.929348 0.750000 0.955368
O O2 0.000000 0.936244 0.916177
O O3 0.887400 0.978018 0.916533
O O4 0.944497 0.000000 0.000000
O O5 0.428663 0.250000 0.632307
O O6 0.440487 0.047063 0.705106
O O7 0.347238 0.081372 0.658599
O O8 0.428383 0.979830 0.605098
O O9 0.156948 0.250000 0.777875
O O10 0.097703 0.476982 0.800550
O O11 0.191722 0.510800 0.755902
O O12 0.186560 0.426417 0.856005
O O13 0.910131 0.250000 0.548557
O O14 0.000000 0.106937 0.536650
O O15 0.909963 0.000000 0.500000
O O16 0.500000 0.572376 0.208857
O O17 0.582189 0.750000 0.225555
O O18 0.219370 0.250000 0.288262
O O19 0.250000 0.500000 0.329575
O O20 0.790839 0.916458 0.039691
O O21 0.363793 0.250000 0.078541
#
# Coordination Sequence:
#
# PCOD8279577 Si02
#       8
#    16  16  16  16  16  16   4  16
#     4  10  21  38  62  88 113 143 179 221 269 325
#     4   9  18  33  53  78 110 147 188 233 281 333
#     4  10  22  38  56  83 115 145 181 227 280 335
#     4  10  20  32  49  77 113 153 195 235 279 331
#     4   9  18  34  56  83 116 153 190 228 277 339
#     4  10  21  38  59  83 109 144 186 230 285 341
#     4  12  26  44  66  86 110 148 194 238 284 344
#     4  11  25  43  62  88 117 148 188 233 286 341
#
# _framework density 20.119274999999998
#
# number of rings (size 3 to 8) (size 9 to 14) (size 15 to 20)
#    0.000    2.069    0.690    3.103    0.966    7.448 
#    0.000    2.759    0.000    0.414    0.000    2.897 
#    0.000    0.000    0.000    0.000    0.000    0.000 
#
# Total GULP energy -718684.572305 kJ/mol
# GULP energy per Si atom -12391.113316 kJ/mol
# Density = 2.007348 g / cm^3
# Si number density = 20.119275 Si / 1000 Ang^3
#
#
#
# Elastic Constant Matrix: (Units=GPa)
#
#
# Indices 1 2 3 4 5 6 
#
# 1 67.7479 27.7319 -1.0643 0.0000 0.0000 0.0000
# 2 27.7319 143.7958 39.1821 0.0000 0.0000 0.0000
# 3 -1.0643 39.1821 78.8127 0.0000 0.0000 0.0000
# 4 0.0000 0.0000 0.0000 26.3796 0.0000 0.0000
# 5 0.0000 0.0000 0.0000 0.0000 3.6746 0.0000
# 6 0.0000 0.0000 0.0000 0.0000 0.0000 28.9594
#
#
#
# Elastic Compliance Matrix: (Units=1/GPa)
#
#
# Indices 1 2 3 4 5 6 
#
# 1 0.016311 -0.003708 0.002064 0.000000 0.000000 0.000000
# 2 -0.003708 0.008887 -0.004468 0.000000 0.000000 0.000000
# 3 0.002064 -0.004468 0.014938 0.000000 0.000000 0.000000
# 4 0.000000 0.000000 0.000000 0.037908 0.000000 0.000000
# 5 0.000000 0.000000 0.000000 0.000000 0.272137 0.000000
# 6 0.000000 0.000000 0.000000 0.000000 0.000000 0.034531
#
#
# Mechanical properties :
#
#
# Convention : Reuss Voigt Hill
#
# Bulk Modulus (GPa) = 35.82905 46.89510 41.36207
# Shear Modulus (GPa) = 12.30799 26.76984 19.53891
#
# Velocity S-wave (km/s) = 2.47604 3.65164 3.11972
# Velocity P-wave (km/s) = 5.10111 6.41392 5.79482
#
# Compressibility (1/GPa) = 0.02791031
#
# Stress axis : x y z
#
# Youngs Moduli (GPa) = 61.30888 112.52460 66.94520
#
# Poissons Ratio (x) = 0.41724 -0.13815
# Poissons Ratio (y) = 0.22733 0.29913
# Poissons Ratio (z) = -0.12652 0.50279
#
# Static dielectric constant tensor:
#      x y z
#    x 3.932470 0.000000 0.000000 
#    y 0.000000 3.916220 0.000000 
#    z 0.000000 0.000000 3.415960 
# 
# 
# High freq. dielectric constant tensor:
#      x y z
#    x 1.776020 0.000000 0.000000 
#    y 0.000000 1.795340 0.000000 
#    z 0.000000 0.000000 1.769290 
# 
# From -- ./inp_files/42854.got.cif
#   From: 2010.03.12/outbox.cif.g09.slc.cpg/sg67_22_cif.got.tgz:42854.got - 2010.04.10 22:41:39.
