data_PCOD8279578
_publ_section_title
;
Structure prediction by ZEFSAII (Michael W. Deem and Ramdas Pophale) SiO2 
 PCOD8279578
Probable space group: C M M A
;
_chemical_formula_sum "Si O2"
_cell_formula_units_Z 116
_cell_length_a 24.929324
_cell_length_b 9.251232
_cell_length_c 24.795253
_cell_angle_alpha 90.000000
_cell_angle_beta 90.000000
_cell_angle_gamma 90.000000
_cell_volume 5718.453820
_symmetry_space_group_name_H-M "C M M A"
_symmetry_group_IT_number 67
_symmetry_cell_setting 'orthorhombic'
loop_
_space_group_symop_operation_xyz
x,y,z
-x,1/2-y,z
x,-y,-z
-x,1/2+y,-z
-x,-y,-z
x,1/2+y,-z
-x,y,z
x,1/2-y,z
1/2+x,1/2+y,z
1/2-x,-y,z
1/2+x,1/2-y,-z
1/2-x,y,-z
1/2-x,1/2-y,-z
1/2+x,y,-z
1/2-x,1/2+y,z
1/2+x,-y,z
loop_
_atom_site_type_symbol
_atom_site_label
_atom_site_fract_x
_atom_site_fract_y
_atom_site_fract_z
Si Si1 0.942100 0.915530 0.945687
Si Si2 0.410556 0.088203 0.652515
Si Si3 0.160718 0.422674 0.805603
Si Si4 0.937438 0.090900 0.549007
Si Si5 0.560224 0.582779 0.228376
Si Si6 0.201417 0.415277 0.298791
Si Si7 0.750000 0.000000 0.000000
Si Si8 0.327465 0.912970 0.093362
O O1 0.932806 0.750000 0.960928
O O2 0.888730 0.968070 0.915424
O O3 0.000000 0.934726 0.914077
O O4 0.947202 0.000000 0.000000
O O5 0.428948 0.250000 0.636655
O O6 0.437996 0.041023 0.708517
O O7 0.346716 0.080799 0.658939
O O8 0.428608 0.980747 0.606562
O O9 0.162661 0.250000 0.802197
O O10 0.099095 0.479810 0.806076
O O11 0.189755 0.494848 0.755192
O O12 0.191815 0.476928 0.859744
O O13 0.910906 0.250000 0.549454
O O14 0.000000 0.105344 0.537927
O O15 0.910870 0.000000 0.500000
O O16 0.500000 0.561167 0.206775
O O17 0.579118 0.750000 0.221554
O O18 0.215931 0.250000 0.283658
O O19 0.250000 0.500000 0.327706
O O20 0.789970 0.913070 0.960173
O O21 0.327305 0.750000 0.115821
#
# Coordination Sequence:
#
# PCOD8279578 Si02
#       8
#    16  16  16  16  16  16   4  16
#     4   9  18  35  59  83 106 136 173 216 266 322
#     4   9  18  33  54  81 113 150 191 236 288 345
#     4  11  24  39  58  85 117 150 188 232 279 334
#     4  10  20  32  49  77 114 156 199 241 285 336
#     4   9  18  35  59  86 119 157 193 233 287 347
#     4  10  21  39  61  84 111 145 188 236 291 346
#     4  12  26  44  66  90 110 148 192 236 284 344
#     4  11  24  42  62  86 116 147 186 232 284 344
#
# _framework density 20.285205000000001
#
# number of rings (size 3 to 8) (size 9 to 14) (size 15 to 20)
#    0.000    2.069    0.690    3.517    0.966    6.621 
#    0.000    1.379    0.000    0.414    0.000    2.897 
#    0.000    0.000    0.000    0.000    0.000    0.000 
#
# Total GULP energy -718750.527390 kJ/mol
# GULP energy per Si atom -12392.250472 kJ/mol
# Density = 2.023903 g / cm^3
# Si number density = 20.285205 Si / 1000 Ang^3
#
#
#
# Elastic Constant Matrix: (Units=GPa)
#
#
# Indices 1 2 3 4 5 6 
#
# 1 71.0762 22.6147 -0.1589 0.0000 0.0000 0.0000
# 2 22.6147 123.8277 46.2936 0.0000 0.0000 0.0000
# 3 -0.1589 46.2936 83.4422 0.0000 0.0000 0.0000
# 4 0.0000 0.0000 0.0000 27.5188 0.0000 0.0000
# 5 0.0000 0.0000 0.0000 0.0000 10.5573 0.0000
# 6 0.0000 0.0000 0.0000 0.0000 0.0000 43.9710
#
#
#
# Elastic Compliance Matrix: (Units=1/GPa)
#
#
# Indices 1 2 3 4 5 6 
#
# 1 0.015192 -0.003514 0.001979 0.000000 0.000000 0.000000
# 2 -0.003514 0.011002 -0.006111 0.000000 0.000000 0.000000
# 3 0.001979 -0.006111 0.015378 0.000000 0.000000 0.000000
# 4 0.000000 0.000000 0.000000 0.036339 0.000000 0.000000
# 5 0.000000 0.000000 0.000000 0.000000 0.094721 0.000000
# 6 0.000000 0.000000 0.000000 0.000000 0.000000 0.022742
#
#
# Mechanical properties :
#
#
# Convention : Reuss Voigt Hill
#
# Bulk Modulus (GPa) = 38.05197 46.20499 42.12848
# Shear Modulus (GPa) = 22.78662 30.38254 26.58458
#
# Velocity S-wave (km/s) = 3.35522 3.87430 3.62407
# Velocity P-wave (km/s) = 5.81457 6.54528 6.19072
#
# Compressibility (1/GPa) = 0.02627985
#
# Stress axis : x y z
#
# Youngs Moduli (GPa) = 65.82426 90.89239 65.02681
#
# Poissons Ratio (x) = 0.31942 -0.12866
# Poissons Ratio (y) = 0.23132 0.39735
# Poissons Ratio (z) = -0.13024 0.55541
#
# Static dielectric constant tensor:
#      x y z
#    x 4.161520 0.000000 0.000000 
#    y 0.000000 3.649780 0.000000 
#    z 0.000000 0.000000 3.384950 
# 
# 
# High freq. dielectric constant tensor:
#      x y z
#    x 1.794890 0.000000 0.000000 
#    y 0.000000 1.789640 0.000000 
#    z 0.000000 0.000000 1.773860 
# 
# From -- ./inp_files/42855.got.cif
#   From: 2010.03.12/outbox.cif.g09.slc.cpg/sg67_22_cif.got.tgz:42855.got - 2010.04.10 22:41:39.
