data_PCOD8279821
_publ_section_title
;
Structure prediction by ZEFSAII (Michael W. Deem and Ramdas Pophale) SiO2 
 PCOD8279821
Probable space group: C M M A
;
_chemical_formula_sum "Si O2"
_cell_formula_units_Z 96
_cell_length_a 9.311572
_cell_length_b 19.705815
_cell_length_c 30.264094
_cell_angle_alpha 90.000000
_cell_angle_beta 90.000000
_cell_angle_gamma 90.000000
_cell_volume 5553.222622
_symmetry_space_group_name_H-M "C M M A"
_symmetry_group_IT_number 67
_symmetry_cell_setting 'orthorhombic'
loop_
_space_group_symop_operation_xyz
x,y,z
-x,1/2-y,z
x,-y,-z
-x,1/2+y,-z
-x,-y,-z
x,1/2+y,-z
-x,y,z
x,1/2-y,z
1/2+x,1/2+y,z
1/2-x,-y,z
1/2+x,1/2-y,-z
1/2-x,y,-z
1/2-x,1/2-y,-z
1/2+x,y,-z
1/2-x,1/2+y,z
1/2+x,-y,z
loop_
_atom_site_type_symbol
_atom_site_label
_atom_site_fract_x
_atom_site_fract_y
_atom_site_fract_z
Si Si1 0.332649 0.329265 0.638260
Si Si2 0.665816 0.934305 0.799839
Si Si3 0.833267 0.827917 0.127226
Si Si4 0.169270 0.568017 0.301665
Si Si5 0.662494 0.669208 0.041810
Si Si6 0.158101 0.830514 0.539811
O O1 0.500000 0.348045 0.645238
O O2 0.308575 0.250000 0.647078
O O3 0.230809 0.368936 0.671491
O O4 0.282461 0.348911 0.588469
O O5 0.500000 0.952099 0.804986
O O6 0.709754 0.870079 0.829445
O O7 0.704357 0.916682 0.749423
O O8 0.750000 0.000000 0.816787
O O9 0.796484 0.750000 0.137897
O O10 0.740344 0.855676 0.086323
O O11 0.000000 0.836574 0.114683
O O12 0.250000 0.500000 0.317268
O O13 0.000000 0.559986 0.310371
O O14 0.500000 0.640919 0.040761
O O15 0.662472 0.750000 0.039948
O O16 0.750000 0.639821 0.000000
O O17 0.152112 0.750000 0.535149
O O18 0.250000 0.862944 0.500000
O O19 0.000000 0.861402 0.534571
#
# Coordination Sequence:
#
# PCOD8279821 Si02
#       6
#    16  16  16  16  16  16
#     4   9  18  32  49  72 102 131 159 197 244 287
#     4   9  19  34  51  70  93 124 159 195 236 283
#     4   9  17  30  48  70  96 124 154 191 234 275
#     4  10  20  34  52  72  95 127 166 203 241 290
#     4   9  16  26  42  66  95 125 156 189 227 273
#     4   8  14  25  42  65  94 126 157 190 231 280
#
# _framework density 17.287258999999999
#
# number of rings (size 3 to 8) (size 9 to 14) (size 15 to 20)
#    0.000    3.000    0.000    2.000    0.000    5.000 
#    0.000    3.333    0.000    3.000    0.000    7.000 
#    0.000    0.000    0.000    0.000    0.000    0.000 
#
# Total GULP energy -595085.146033 kJ/mol
# GULP energy per Si atom -12397.607209 kJ/mol
# Density = 1.724791 g / cm^3
# Si number density = 17.287259 Si / 1000 Ang^3
#
#
#
# Elastic Constant Matrix: (Units=GPa)
#
#
# Indices 1 2 3 4 5 6 
#
# 1 94.6234 44.7562 66.6172 0.0000 0.0000 0.0000
# 2 44.7562 61.6593 56.0892 0.0000 0.0000 0.0000
# 3 66.6172 56.0892 119.4820 0.0000 0.0000 0.0000
# 4 0.0000 0.0000 0.0000 3.0036 0.0000 0.0000
# 5 0.0000 0.0000 0.0000 0.0000 33.6387 0.0000
# 6 0.0000 0.0000 0.0000 0.0000 0.0000 24.4756
#
#
#
# Elastic Compliance Matrix: (Units=1/GPa)
#
#
# Indices 1 2 3 4 5 6 
#
# 1 0.019108 -0.007293 -0.007230 0.000000 0.000000 0.000000
# 2 -0.007293 0.031089 -0.010528 0.000000 0.000000 0.000000
# 3 -0.007230 -0.010528 0.017343 0.000000 0.000000 0.000000
# 4 0.000000 0.000000 0.000000 0.332933 0.000000 0.000000
# 5 0.000000 0.000000 0.000000 0.000000 0.029728 0.000000
# 6 0.000000 0.000000 0.000000 0.000000 0.000000 0.040857
#
#
# Mechanical properties :
#
#
# Convention : Reuss Voigt Hill
#
# Bulk Modulus (GPa) = 57.34749 67.85444 62.60096
# Shear Modulus (GPa) = 9.48818 19.44371 14.46595
#
# Velocity S-wave (km/s) = 2.34531 3.35736 2.89588
# Velocity P-wave (km/s) = 6.37018 7.37329 6.89002
#
# Compressibility (1/GPa) = 0.01743756
#
# Stress axis : x y z
#
# Youngs Moduli (GPa) = 52.33473 32.16600 57.66049
#
# Poissons Ratio (x) = 0.23458 0.41689
# Poissons Ratio (y) = 0.38166 0.60706
# Poissons Ratio (z) = 0.37838 0.33865
#
# Static dielectric constant tensor:
#      x y z
#    x 3.376130 0.000000 0.000000 
#    y 0.000000 2.868430 0.000000 
#    z 0.000000 0.000000 3.378060 
# 
# 
# High freq. dielectric constant tensor:
#      x y z
#    x 1.671710 0.000000 0.000000 
#    y 0.000000 1.625890 0.000000 
#    z 0.000000 0.000000 1.675850 
# 
# From -- ./inp_files/43443.got.cif
#   From: 2010.03.12/outbox.cif.g09.slc.cpg/sg67_22_cif.got.tgz:43443.got - 2010.04.10 22:41:39.
