data_PCOD8279373
_publ_section_title
;
Structure prediction by ZEFSAII (Michael W. Deem and Ramdas Pophale) SiO2 
 PCOD8279373
Probable space group: C M M A
;
_chemical_formula_sum "Si O2"
_cell_formula_units_Z 104
_cell_length_a 29.103659
_cell_length_b 16.229992
_cell_length_c 10.957847
_cell_angle_alpha 90.000000
_cell_angle_beta 90.000000
_cell_angle_gamma 90.000000
_cell_volume 5175.962620
_symmetry_space_group_name_H-M "C M M A"
_symmetry_group_IT_number 67
_symmetry_cell_setting 'orthorhombic'
loop_
_space_group_symop_operation_xyz
x,y,z
-x,1/2-y,z
x,-y,-z
-x,1/2+y,-z
-x,-y,-z
x,1/2+y,-z
-x,y,z
x,1/2-y,z
1/2+x,1/2+y,z
1/2-x,-y,z
1/2+x,1/2-y,-z
1/2-x,y,-z
1/2-x,1/2-y,-z
1/2+x,y,-z
1/2-x,1/2+y,z
1/2+x,-y,z
loop_
_atom_site_type_symbol
_atom_site_label
_atom_site_fract_x
_atom_site_fract_y
_atom_site_fract_z
Si Si1 0.500000 0.653379 0.263447
Si Si2 0.244505 0.659900 0.134071
Si Si3 0.907407 0.344222 0.387960
Si Si4 0.000000 0.652958 0.008308
Si Si5 0.843312 0.127066 0.162970
Si Si6 0.831309 0.549110 0.241664
Si Si7 0.097546 0.409785 0.944050
Si Si8 0.135420 0.000000 0.500000
O O1 0.500000 0.750000 0.244827
O O2 0.543640 0.625191 0.340181
O O3 0.500000 0.613391 0.128375
O O4 0.220509 0.750000 0.126736
O O5 0.296095 0.676017 0.180612
O O6 0.214449 0.603063 0.223594
O O7 0.250000 0.619200 0.000000
O O8 0.908374 0.250000 0.443311
O O9 0.873757 0.343851 0.274394
O O10 0.893647 0.415678 0.482997
O O11 0.000000 0.750000 0.002952
O O12 0.046320 0.625033 0.077368
O O13 0.827744 0.032215 0.160536
O O14 0.871778 0.145289 0.038289
O O15 0.877117 0.593936 0.188324
O O16 0.833819 0.522024 0.382821
O O17 0.092082 0.500000 0.000000
#
# Coordination Sequence:
#
# PCOD8279373 Si02
#       8
#     8  16  16   8  16  16  16   8
#     4   9  18  32  57  89 117 152 197 255 321 384
#     4  11  22  34  56  92 126 157 195 244 316 389
#     4  10  20  38  61  86 120 157 206 264 312 373
#     4  11  21  33  55  92 128 153 192 251 329 400
#     4  10  19  35  60  87 115 152 199 250 312 372
#     4  10  22  40  59  83 120 160 207 258 301 363
#     4  10  20  35  57  86 120 153 192 252 316 376
#     4  10  24  43  63  88 114 172 230 253 307 370
#
# _framework density 20.092880999999998
#
# number of rings (size 3 to 8) (size 9 to 14) (size 15 to 20)
#    0.000    1.846    3.077    1.154    0.000    2.769 
#    0.000    6.923    0.000    5.538    0.000    0.000 
#    0.000    0.000    0.000    0.000    0.000    0.000 
#
# Total GULP energy -644348.046868 kJ/mol
# GULP energy per Si atom -12391.308594 kJ/mol
# Density = 2.004715 g / cm^3
# Si number density = 20.092881 Si / 1000 Ang^3
#
#
#
# Elastic Constant Matrix: (Units=GPa)
#
#
# Indices 1 2 3 4 5 6 
#
# 1 147.8769 36.2810 40.8462 0.0000 0.0000 0.0000
# 2 36.2810 87.3201 25.1947 0.0000 0.0000 0.0000
# 3 40.8462 25.1947 92.1633 0.0000 0.0000 0.0000
# 4 0.0000 0.0000 0.0000 20.0509 0.0000 0.0000
# 5 0.0000 0.0000 0.0000 0.0000 7.7794 0.0000
# 6 0.0000 0.0000 0.0000 0.0000 0.0000 42.3958
#
#
#
# Elastic Compliance Matrix: (Units=1/GPa)
#
#
# Indices 1 2 3 4 5 6 
#
# 1 0.008201 -0.002561 -0.002935 0.000000 0.000000 0.000000
# 2 -0.002561 0.013232 -0.002482 0.000000 0.000000 0.000000
# 3 -0.002935 -0.002482 0.012830 0.000000 0.000000 0.000000
# 4 0.000000 0.000000 0.000000 0.049873 0.000000 0.000000
# 5 0.000000 0.000000 0.000000 0.000000 0.128544 0.000000
# 6 0.000000 0.000000 0.000000 0.000000 0.000000 0.023587
#
#
# Mechanical properties :
#
#
# Convention : Reuss Voigt Hill
#
# Bulk Modulus (GPa) = 54.62281 59.11156 56.86719
# Shear Modulus (GPa) = 19.35542 29.04781 24.20161
#
# Velocity S-wave (km/s) = 3.10707 3.80633 3.47434
# Velocity P-wave (km/s) = 6.33372 6.98574 6.66770
#
# Compressibility (1/GPa) = 0.01830737
#
# Stress axis : x y z
#
# Youngs Moduli (GPa) = 121.93211 75.57218 77.94501
#
# Poissons Ratio (x) = 0.19353 0.22875
# Poissons Ratio (y) = 0.31225 0.19349
# Poissons Ratio (z) = 0.35783 0.18760
#
# Static dielectric constant tensor:
#      x y z
#    x 3.973740 0.000000 0.000000 
#    y 0.000000 3.726120 0.000000 
#    z 0.000000 0.000000 3.387770 
# 
# 
# High freq. dielectric constant tensor:
#      x y z
#    x 1.792590 0.000000 0.000000 
#    y 0.000000 1.787070 0.000000 
#    z 0.000000 0.000000 1.749540 
# 
# From -- ./inp_files/23010.got.cif
#   From: 2010.03.12/outbox.cif.g09.slc.cpg/sg67_12_cif.got.tgz:23010.got - 2010.04.10 22:41:39.
