data_PCOD8279795
_publ_section_title
;
Structure prediction by ZEFSAII (Michael W. Deem and Ramdas Pophale) SiO2 
 PCOD8279795
Probable space group: C M M A
;
_chemical_formula_sum "Si O2"
_cell_formula_units_Z 72
_cell_length_a 9.203803
_cell_length_b 15.798749
_cell_length_c 25.015422
_cell_angle_alpha 90.000000
_cell_angle_beta 90.000000
_cell_angle_gamma 90.000000
_cell_volume 3637.456827
_symmetry_space_group_name_H-M "C M M A"
_symmetry_group_IT_number 67
_symmetry_cell_setting 'orthorhombic'
loop_
_space_group_symop_operation_xyz
x,y,z
-x,1/2-y,z
x,-y,-z
-x,1/2+y,-z
-x,-y,-z
x,1/2+y,-z
-x,y,z
x,1/2-y,z
1/2+x,1/2+y,z
1/2-x,-y,z
1/2+x,1/2-y,-z
1/2-x,y,-z
1/2-x,1/2-y,-z
1/2+x,y,-z
1/2-x,1/2+y,z
1/2+x,-y,z
loop_
_atom_site_type_symbol
_atom_site_label
_atom_site_fract_x
_atom_site_fract_y
_atom_site_fract_z
Si Si1 0.325446 0.590245 0.550764
Si Si2 0.840563 0.848727 0.335363
Si Si3 0.169368 0.152415 0.235149
Si Si4 0.171402 0.415304 0.122075
Si Si5 0.671734 0.250000 0.943855
O O1 0.500000 0.585720 0.543460
O O2 0.250000 0.500000 0.553706
O O3 0.250000 0.638115 0.500000
O O4 0.278406 0.636285 0.605364
O O5 0.848957 0.750000 0.325492
O O6 0.743134 0.887937 0.288048
O O7 0.000000 0.890468 0.331065
O O8 0.213097 0.250000 0.225870
O O9 0.219723 0.100384 0.183273
O O10 0.000000 0.144064 0.244496
O O11 0.250000 0.500000 0.100641
O O12 0.220979 0.334140 0.087757
O O13 0.000000 0.428606 0.117341
O O14 0.500000 0.250000 0.952208
O O15 0.750000 0.250000 0.000000
#
# Coordination Sequence:
#
# PCOD8279795 Si02
#       5
#    16  16  16  16   8
#     4  10  20  34  51  69  95 131 171 216 267 321
#     4   9  19  34  51  75 105 135 170 218 271 321
#     4   9  17  33  56  78 105 144 183 221 272 331
#     4  10  21  38  60  87 119 154 194 239 286 337
#     4  10  22  42  64  86 120 160 195 238 287 334
#
# _framework density 19.794048
#
# number of rings (size 3 to 8) (size 9 to 14) (size 15 to 20)
#    0.000    2.444    1.111    1.333    0.000    5.333 
#    0.000    6.667    0.000    0.000    0.000    0.000 
#    0.000    0.000    0.000    0.000    0.000    0.000 
#
# Total GULP energy -446188.801582 kJ/mol
# GULP energy per Si atom -12394.133377 kJ/mol
# Density = 1.974900 g / cm^3
# Si number density = 19.794048 Si / 1000 Ang^3
#
#
#
# Elastic Constant Matrix: (Units=GPa)
#
#
# Indices 1 2 3 4 5 6 
#
# 1 63.0467 40.7852 61.0096 0.0000 0.0000 0.0000
# 2 40.7852 88.3779 58.7380 0.0000 0.0000 0.0000
# 3 61.0096 58.7380 172.0180 0.0000 0.0000 0.0000
# 4 0.0000 0.0000 0.0000 16.7034 0.0000 0.0000
# 5 0.0000 0.0000 0.0000 0.0000 40.0375 0.0000
# 6 0.0000 0.0000 0.0000 0.0000 0.0000 25.2598
#
#
#
# Elastic Compliance Matrix: (Units=1/GPa)
#
#
# Indices 1 2 3 4 5 6 
#
# 1 0.028104 -0.008208 -0.007165 0.000000 0.000000 0.000000
# 2 -0.008208 0.017034 -0.002905 0.000000 0.000000 0.000000
# 3 -0.007165 -0.002905 0.009347 0.000000 0.000000 0.000000
# 4 0.000000 0.000000 0.000000 0.059868 0.000000 0.000000
# 5 0.000000 0.000000 0.000000 0.000000 0.024977 0.000000
# 6 0.000000 0.000000 0.000000 0.000000 0.000000 0.039589
#
#
# Mechanical properties :
#
#
# Convention : Reuss Voigt Hill
#
# Bulk Modulus (GPa) = 55.77733 71.61203 63.69468
# Shear Modulus (GPa) = 22.57838 27.26081 24.91959
#
# Velocity S-wave (km/s) = 3.38104 3.71512 3.55201
# Velocity P-wave (km/s) = 6.59408 7.39324 7.00506
#
# Compressibility (1/GPa) = 0.01792843
#
# Stress axis : x y z
#
# Youngs Moduli (GPa) = 35.58150 58.70687 106.98944
#
# Poissons Ratio (x) = 0.48185 0.76660
# Poissons Ratio (y) = 0.29204 0.31085
# Poissons Ratio (z) = 0.25495 0.17057
#
# Static dielectric constant tensor:
#      x y z
#    x 3.637440 0.000000 0.000000 
#    y 0.000000 3.437780 0.000000 
#    z 0.000000 0.000000 4.113120 
# 
# 
# High freq. dielectric constant tensor:
#      x y z
#    x 1.761630 0.000000 0.000000 
#    y 0.000000 1.755580 0.000000 
#    z 0.000000 0.000000 1.785430 
# 
# From -- ./inp_files/42108.got.cif
#   From: 2010.03.12/outbox.cif.g09.slc.cpg/sg67_22_cif.got.tgz:42108.got - 2010.04.10 22:41:39.
