data_PCOD8279277
_publ_section_title
;
Structure prediction by ZEFSAII (Michael W. Deem and Ramdas Pophale) SiO2 
 PCOD8279277
Probable space group: C M M A
;
_chemical_formula_sum "Si O2"
_cell_formula_units_Z 112
_cell_length_a 17.833195
_cell_length_b 28.133045
_cell_length_c 11.595421
_cell_angle_alpha 90.000000
_cell_angle_beta 90.000000
_cell_angle_gamma 90.000000
_cell_volume 5817.446804
_symmetry_space_group_name_H-M "C M M A"
_symmetry_group_IT_number 67
_symmetry_cell_setting 'orthorhombic'
loop_
_space_group_symop_operation_xyz
x,y,z
-x,1/2-y,z
x,-y,-z
-x,1/2+y,-z
-x,-y,-z
x,1/2+y,-z
-x,y,z
x,1/2-y,z
1/2+x,1/2+y,z
1/2-x,-y,z
1/2+x,1/2-y,-z
1/2-x,y,-z
1/2-x,1/2-y,-z
1/2+x,y,-z
1/2-x,1/2+y,z
1/2+x,-y,z
loop_
_atom_site_type_symbol
_atom_site_label
_atom_site_fract_x
_atom_site_fract_y
_atom_site_fract_z
Si Si1 0.415980 0.383618 0.606759
Si Si2 0.089633 0.697799 0.459315
Si Si3 0.171057 0.976534 0.192617
Si Si4 0.411217 0.570780 0.161685
Si Si5 0.169177 0.382825 0.957668
Si Si6 0.084260 0.539882 0.417150
Si Si7 0.912061 0.305413 0.801203
O O1 0.500000 0.372744 0.649325
O O2 0.376206 0.335149 0.562247
O O3 0.377391 0.410400 0.714590
O O4 0.417237 0.412130 0.487854
O O5 0.120099 0.750000 0.487451
O O6 0.113827 0.683307 0.329745
O O7 0.000000 0.695925 0.463376
O O8 0.180111 0.933114 0.105613
O O9 0.135714 0.954015 0.306732
O O10 0.250000 0.000000 0.222131
O O11 0.118899 0.017698 0.138809
O O12 0.500000 0.567532 0.162230
O O13 0.385181 0.608049 0.065762
O O14 0.134218 0.340779 0.882279
O O15 0.250000 0.364872 0.000000
O O16 0.119018 0.500000 0.500000
O O17 0.000000 0.524844 0.377740
O O18 0.895540 0.250000 0.831486
O O19 0.000000 0.316117 0.817434
#
# Coordination Sequence:
#
# PCOD8279277 Si02
#       7
#    16  16  16  16  16  16  16
#     4   9  17  32  53  82 116 146 187 242 291 348
#     4   8  14  28  55  88 117 144 178 234 300 349
#     4  12  24  39  56  81 119 158 199 251 295 349
#     4  11  23  39  59  82 114 159 203 243 291 352
#     4  12  25  40  58  82 119 161 200 249 302 355
#     4  10  19  34  56  81 109 145 192 245 297 351
#     4   9  19  38  65  94 117 145 199 256 296 353
#
# _framework density 19.252431999999999
#
# number of rings (size 3 to 8) (size 9 to 14) (size 15 to 20)
#    0.000    1.857    2.857    3.000    0.000    4.571 
#    0.000    0.714    0.000    2.571    0.000    2.000 
#    0.000    0.000    0.000    0.000    0.000    0.000 
#
# Total GULP energy -694059.457110 kJ/mol
# GULP energy per Si atom -12393.918877 kJ/mol
# Density = 1.920861 g / cm^3
# Si number density = 19.252432 Si / 1000 Ang^3
#
#
#
# Elastic Constant Matrix: (Units=GPa)
#
#
# Indices 1 2 3 4 5 6 
#
# 1 63.5997 22.5609 23.1331 0.0000 0.0000 0.0000
# 2 22.5609 98.4132 32.6167 0.0000 0.0000 0.0000
# 3 23.1331 32.6167 73.4012 0.0000 0.0000 0.0000
# 4 0.0000 0.0000 0.0000 37.8749 0.0000 0.0000
# 5 0.0000 0.0000 0.0000 0.0000 -8.7342 0.0000
# 6 0.0000 0.0000 0.0000 0.0000 0.0000 -7.0827
#
#
#
# Elastic Compliance Matrix: (Units=1/GPa)
#
#
# Indices 1 2 3 4 5 6 
#
# 1 0.018345 -0.002685 -0.004589 0.000000 0.000000 0.000000
# 2 -0.002685 0.012309 -0.004624 0.000000 0.000000 0.000000
# 3 -0.004589 -0.004624 0.017124 0.000000 0.000000 0.000000
# 4 0.000000 0.000000 0.000000 0.026403 0.000000 0.000000
# 5 0.000000 0.000000 0.000000 0.000000 -0.114492 0.000000
# 6 0.000000 0.000000 0.000000 0.000000 0.000000 -0.141189
#
#
# Mechanical properties :
#
#
# Convention : Reuss Voigt Hill
#
# Bulk Modulus (GPa) = 41.69346 43.55948 42.62647
# Shear Modulus (GPa) = -33.39744 14.88515 -9.25614
#
# Velocity S-wave (km/s) = -4.16951 2.78359 -2.19504
# Velocity P-wave (km/s) = 1.21511 5.74506 3.97047
#
# Compressibility (1/GPa) = 0.02398458
#
# Stress axis : x y z
#
# Youngs Moduli (GPa) = 54.51175 81.24091 58.39616
#
# Poissons Ratio (x) = 0.21811 0.26795
# Poissons Ratio (y) = 0.14635 0.27000
# Poissons Ratio (z) = 0.25013 0.37562
#
# Static dielectric constant tensor:
#      x y z
#    x 3.254480 0.000000 0.000000 
#    y 0.000000 3.752580 0.000000 
#    z 0.000000 0.000000 3.666370 
# 
# 
# High freq. dielectric constant tensor:
#      x y z
#    x 1.716300 0.000000 0.000000 
#    y 0.000000 1.753830 0.000000 
#    z 0.000000 0.000000 1.754360 
# 
# From -- ./inp_files/18654.got.cif
#   From: 2010.03.12/outbox.cif.g09.slc.cpg/sg67_10_cif.got.tgz:18654.got - 2010.04.10 22:41:39.
