data_PCOD8279468
_publ_section_title
;
Structure prediction by ZEFSAII (Michael W. Deem and Ramdas Pophale) SiO2 
 PCOD8279468
Probable space group: C M M A
;
_chemical_formula_sum "Si O2"
_cell_formula_units_Z 104
_cell_length_a 9.004724
_cell_length_b 26.610008
_cell_length_c 24.677948
_cell_angle_alpha 90.000000
_cell_angle_beta 90.000000
_cell_angle_gamma 90.000000
_cell_volume 5913.225702
_symmetry_space_group_name_H-M "C M M A"
_symmetry_group_IT_number 67
_symmetry_cell_setting 'orthorhombic'
loop_
_space_group_symop_operation_xyz
x,y,z
-x,1/2-y,z
x,-y,-z
-x,1/2+y,-z
-x,-y,-z
x,1/2+y,-z
-x,y,z
x,1/2-y,z
1/2+x,1/2+y,z
1/2-x,-y,z
1/2+x,1/2-y,-z
1/2-x,y,-z
1/2-x,1/2-y,-z
1/2+x,y,-z
1/2-x,1/2+y,z
1/2+x,-y,z
loop_
_atom_site_type_symbol
_atom_site_label
_atom_site_fract_x
_atom_site_fract_y
_atom_site_fract_z
Si Si1 0.325754 0.307037 0.948446
Si Si2 0.820685 0.750000 0.558763
Si Si3 0.176580 0.654186 0.384452
Si Si4 0.171440 0.145656 0.740205
Si Si5 0.330850 0.550300 0.389990
Si Si6 0.837703 0.191963 0.168173
Si Si7 0.835279 0.952548 0.738802
O O1 0.500000 0.310004 0.956829
O O2 0.266306 0.250000 0.948324
O O3 0.284197 0.332072 0.889575
O O4 0.250000 0.335363 0.000000
O O5 0.750000 0.750000 0.500000
O O6 0.762366 0.800166 0.587710
O O7 0.000000 0.750000 0.557056
O O8 0.212430 0.661061 0.320921
O O9 0.240166 0.600806 0.406591
O O10 0.000000 0.656489 0.396296
O O11 0.220164 0.187646 0.782929
O O12 0.256087 0.096624 0.760584
O O13 0.000000 0.134000 0.744159
O O14 0.500000 0.553133 0.412648
O O15 0.250000 0.500000 0.413554
O O16 0.333668 0.546392 0.325834
O O17 0.858376 0.250000 0.155463
O O18 0.000000 0.169979 0.185459
O O19 0.000000 0.953896 0.762081
O O20 0.750000 0.000000 0.762918
#
# Coordination Sequence:
#
# PCOD8279468 Si02
#       7
#    16   8  16  16  16  16  16
#     4   8  14  25  40  57  79 111 154 199 241 284
#     4  12  26  44  64  82 102 134 175 216 255 298
#     4  10  21  37  55  78 107 137 171 213 255 300
#     4  10  20  31  46  70 100 130 162 199 241 288
#     4   9  16  28  49  78 107 136 169 205 250 302
#     4   9  18  30  42  60  90 127 162 199 242 288
#     4   9  16  27  44  65  93 126 160 195 236 286
#
# _framework density 17.587693000000002
#
# number of rings (size 3 to 8) (size 9 to 14) (size 15 to 20)
#    0.000    2.615    0.000    3.462    1.077    6.462 
#    0.000    1.538    0.000    0.462    0.000    3.231 
#    0.000    0.615    0.000    6.462    0.000    4.154 
#
# Total GULP energy -644317.942405 kJ/mol
# GULP energy per Si atom -12390.729662 kJ/mol
# Density = 1.754766 g / cm^3
# Si number density = 17.587693 Si / 1000 Ang^3
#
#
#
# Elastic Constant Matrix: (Units=GPa)
#
#
# Indices 1 2 3 4 5 6 
#
# 1 116.8796 51.7615 52.3021 0.0000 0.0000 0.0000
# 2 51.7615 94.1120 38.8619 0.0000 0.0000 0.0000
# 3 52.3021 38.8619 78.9237 0.0000 0.0000 0.0000
# 4 0.0000 0.0000 0.0000 -0.5518 0.0000 0.0000
# 5 0.0000 0.0000 0.0000 0.0000 24.8949 0.0000
# 6 0.0000 0.0000 0.0000 0.0000 0.0000 32.9924
#
#
#
# Elastic Compliance Matrix: (Units=1/GPa)
#
#
# Indices 1 2 3 4 5 6 
#
# 1 0.013662 -0.004739 -0.006720 0.000000 0.000000 0.000000
# 2 -0.004739 0.014981 -0.004236 0.000000 0.000000 0.000000
# 3 -0.006720 -0.004236 0.019210 0.000000 0.000000 0.000000
# 4 0.000000 0.000000 0.000000 -1.812218 0.000000 0.000000
# 5 0.000000 0.000000 0.000000 0.000000 0.040169 0.000000
# 6 0.000000 0.000000 0.000000 0.000000 0.000000 0.030310
#
#
# Mechanical properties :
#
#
# Convention : Reuss Voigt Hill
#
# Bulk Modulus (GPa) = 60.74544 63.97401 62.35972
# Shear Modulus (GPa) = -3.01749 21.26641 9.12446
#
# Velocity S-wave (km/s) = -1.31126 3.48108 2.28018
# Velocity P-wave (km/s) = 5.68516 7.25331 6.51658
#
# Compressibility (1/GPa) = 0.01646214
#
# Stress axis : x y z
#
# Youngs Moduli (GPa) = 73.19774 66.74952 52.05698
#
# Poissons Ratio (x) = 0.31632 0.34982
# Poissons Ratio (y) = 0.34688 0.22053
# Poissons Ratio (z) = 0.49189 0.28277
#
# Static dielectric constant tensor:
#      x y z
#    x 3.512820 0.000000 0.000000 
#    y 0.000000 3.239970 0.000000 
#    z 0.000000 0.000000 3.191010 
# 
# 
# High freq. dielectric constant tensor:
#      x y z
#    x 1.692610 0.000000 0.000000 
#    y 0.000000 1.654220 0.000000 
#    z 0.000000 0.000000 1.654340 
# 
# From -- ./inp_files/41046.got.cif
#   From: 2010.03.12/outbox.cif.g09.slc.cpg/sg67_21_cif.got.tgz:41046.got - 2010.04.10 22:41:39.
