data_PCOD8279112
_publ_section_title
;
Structure prediction by ZEFSAII (Michael W. Deem and Ramdas Pophale) SiO2 
 PCOD8279112
Probable space group: C M M A
;
_chemical_formula_sum "Si O2"
_cell_formula_units_Z 96
_cell_length_a 19.025557
_cell_length_b 18.420371
_cell_length_c 14.769965
_cell_angle_alpha 90.000000
_cell_angle_beta 90.000000
_cell_angle_gamma 90.000000
_cell_volume 5176.249712
_symmetry_space_group_name_H-M "C M M A"
_symmetry_group_IT_number 67
_symmetry_cell_setting 'orthorhombic'
loop_
_space_group_symop_operation_xyz
x,y,z
-x,1/2-y,z
x,-y,-z
-x,1/2+y,-z
-x,-y,-z
x,1/2+y,-z
-x,y,z
x,1/2-y,z
1/2+x,1/2+y,z
1/2-x,-y,z
1/2+x,1/2-y,-z
1/2-x,y,-z
1/2-x,1/2-y,-z
1/2+x,y,-z
1/2-x,1/2+y,z
1/2+x,-y,z
loop_
_atom_site_type_symbol
_atom_site_label
_atom_site_fract_x
_atom_site_fract_y
_atom_site_fract_z
Si Si1 0.419344 0.536784 0.237386
Si Si2 0.821265 0.030605 0.899021
Si Si3 0.331018 0.830574 0.289686
Si Si4 0.681430 0.667423 0.793014
Si Si5 0.828983 0.832756 0.502389
Si Si6 0.917992 0.399623 0.651122
O O1 0.500000 0.554618 0.222098
O O2 0.391440 0.495302 0.149665
O O3 0.379124 0.612319 0.239276
O O4 0.407496 0.485128 0.325154
O O5 0.817250 0.118049 0.884448
O O6 0.750000 0.000000 0.852525
O O7 0.824570 0.000000 0.000000
O O8 0.348507 0.750000 0.252774
O O9 0.249043 0.847241 0.271127
O O10 0.352751 0.835262 0.394260
O O11 0.677416 0.750000 0.826862
O O12 0.614348 0.649301 0.730981
O O13 0.831141 0.750000 0.464034
O O14 0.750000 0.863507 0.500000
O O15 0.880365 0.883548 0.444152
O O16 0.000000 0.379971 0.642718
#
# Coordination Sequence:
#
# PCOD8279112 Si02
#       6
#    16  16  16  16  16  16
#     4  10  22  39  57  80 112 150 188 228 281 340
#     4  10  20  37  61  87 112 140 182 230 280 341
#     4  10  20  35  56  80 109 149 193 234 275 328
#     4  10  19  35  59  85 115 148 186 231 280 335
#     4  10  19  33  52  78 112 148 189 233 275 321
#     4  10  21  35  55  83 115 151 192 237 281 327
#
# _framework density 18.546246
#
# number of rings (size 3 to 8) (size 9 to 14) (size 15 to 20)
#    0.000    2.000    3.333    0.500    0.000    3.333 
#    0.000    6.667    0.000    0.000    0.000    0.000 
#    0.000    0.000    0.000    0.000    0.000    0.000 
#
# Total GULP energy -594999.117058 kJ/mol
# GULP energy per Si atom -12395.814939 kJ/mol
# Density = 1.850403 g / cm^3
# Si number density = 18.546246 Si / 1000 Ang^3
#
#
#
# Elastic Constant Matrix: (Units=GPa)
#
#
# Indices 1 2 3 4 5 6 
#
# 1 127.1791 59.0592 31.6585 0.0000 0.0000 0.0000
# 2 59.0592 128.4176 47.9920 0.0000 0.0000 0.0000
# 3 31.6585 47.9920 79.1500 0.0000 0.0000 0.0000
# 4 0.0000 0.0000 0.0000 -0.5794 0.0000 0.0000
# 5 0.0000 0.0000 0.0000 0.0000 23.1645 0.0000
# 6 0.0000 0.0000 0.0000 0.0000 0.0000 21.9296
#
#
#
# Elastic Compliance Matrix: (Units=1/GPa)
#
#
# Indices 1 2 3 4 5 6 
#
# 1 0.010151 -0.004074 -0.001590 0.000000 0.000000 0.000000
# 2 -0.004074 0.011704 -0.005467 0.000000 0.000000 0.000000
# 3 -0.001590 -0.005467 0.016585 0.000000 0.000000 0.000000
# 4 0.000000 0.000000 0.000000 -1.725797 0.000000 0.000000
# 5 0.000000 0.000000 0.000000 0.000000 0.043170 0.000000
# 6 0.000000 0.000000 0.000000 0.000000 0.000000 0.045600
#
#
# Mechanical properties :
#
#
# Convention : Reuss Voigt Hill
#
# Bulk Modulus (GPa) = 61.81327 68.01845 64.91586
# Shear Modulus (GPa) = -3.18282 21.97206 9.39462
#
# Velocity S-wave (km/s) = -1.31144 3.44571 2.25311
# Velocity P-wave (km/s) = 5.57749 7.25157 6.46891
#
# Compressibility (1/GPa) = 0.01617776
#
# Stress axis : x y z
#
# Youngs Moduli (GPa) = 98.51636 85.44157 60.29557
#
# Poissons Ratio (x) = 0.34810 0.09585
# Poissons Ratio (y) = 0.40137 0.32964
# Poissons Ratio (z) = 0.15661 0.46711
#
# Static dielectric constant tensor:
#      x y z
#    x 3.485850 0.000000 0.000000 
#    y 0.000000 3.550780 0.000000 
#    z 0.000000 0.000000 3.127040 
# 
# 
# High freq. dielectric constant tensor:
#      x y z
#    x 1.720800 0.000000 0.000000 
#    y 0.000000 1.723570 0.000000 
#    z 0.000000 0.000000 1.694770 
# 
# From -- ./inp_files/29311.got.cif
#   From: 2010.03.12/outbox.cif.g09.slc.cpg/sg67_15_cif.got.tgz:29311.got - 2010.04.10 22:41:39.
