data_PCOD8279427
_publ_section_title
;
Structure prediction by ZEFSAII (Michael W. Deem and Ramdas Pophale) SiO2 
 PCOD8279427
Probable space group: C M M A
;
_chemical_formula_sum "Si O2"
_cell_formula_units_Z 112
_cell_length_a 14.498939
_cell_length_b 22.610953
_cell_length_c 17.084938
_cell_angle_alpha 90.000000
_cell_angle_beta 90.000000
_cell_angle_gamma 90.000000
_cell_volume 5601.037715
_symmetry_space_group_name_H-M "C M M A"
_symmetry_group_IT_number 67
_symmetry_cell_setting 'orthorhombic'
loop_
_space_group_symop_operation_xyz
x,y,z
-x,1/2-y,z
x,-y,-z
-x,1/2+y,-z
-x,-y,-z
x,1/2+y,-z
-x,y,z
x,1/2-y,z
1/2+x,1/2+y,z
1/2-x,-y,z
1/2+x,1/2-y,-z
1/2-x,y,-z
1/2-x,1/2-y,-z
1/2+x,y,-z
1/2-x,1/2+y,z
1/2+x,-y,z
loop_
_atom_site_type_symbol
_atom_site_label
_atom_site_fract_x
_atom_site_fract_y
_atom_site_fract_z
Si Si1 0.738359 0.818312 0.729437
Si Si2 0.606348 0.004197 0.623419
Si Si3 0.603852 0.877958 0.847919
Si Si4 0.641356 0.683095 0.004961
Si Si5 0.394966 0.869059 0.172228
Si Si6 0.103951 0.002464 0.193813
Si Si7 0.256341 0.904011 0.586223
O O1 0.728457 0.750000 0.707838
O O2 0.662870 0.834014 0.794873
O O3 0.838911 0.829426 0.766416
O O4 0.721492 0.854261 0.649972
O O5 0.500000 0.008093 0.594537
O O6 0.612215 0.990753 0.714632
O O7 0.659817 0.951099 0.580492
O O8 0.658786 0.065519 0.607024
O O9 0.500000 0.880473 0.813306
O O10 0.648276 0.944366 0.846928
O O11 0.598502 0.855823 0.936439
O O12 0.605752 0.750000 0.996220
O O13 0.606413 0.658178 0.086620
O O14 0.750000 0.679876 0.000000
O O15 0.500000 0.871758 0.203641
O O16 0.348871 0.935066 0.170675
O O17 0.000000 0.007877 0.163922
O O18 0.250000 0.874716 0.500000
#
# Coordination Sequence:
#
# PCOD8279427 Si02
#       7
#    16  16  16  16  16  16  16
#     4  12  25  41  62  86 120 164 208 252 292 355
#     4  10  19  38  65  94 124 154 195 248 305 367
#     4  11  23  41  64  90 121 159 203 252 306 358
#     4  11  23  40  59  87 126 164 207 252 290 344
#     4  11  23  41  64  90 121 159 203 252 306 358
#     4   9  19  36  63  92 118 152 195 246 303 363
#     4  11  24  39  62  95 124 158 200 245 306 368
#
# _framework density 19.996295
#
# number of rings (size 3 to 8) (size 9 to 14) (size 15 to 20)
#    0.000    1.286    4.286    2.143    0.000    5.429 
#    0.000    2.857    0.000    0.000    0.000    4.000 
#    0.000    0.000    0.000    0.000    0.000    0.000 
#
# Total GULP energy -694374.777355 kJ/mol
# GULP energy per Si atom -12399.549596 kJ/mol
# Density = 1.995078 g / cm^3
# Si number density = 19.996295 Si / 1000 Ang^3
#
#
#
# Elastic Constant Matrix: (Units=GPa)
#
#
# Indices 1 2 3 4 5 6 
#
# 1 95.9674 9.1472 -8.3063 0.0000 0.0000 0.0000
# 2 9.1472 100.6400 8.1591 0.0000 0.0000 0.0000
# 3 -8.3063 8.1591 66.1853 0.0000 0.0000 0.0000
# 4 0.0000 0.0000 0.0000 15.3875 0.0000 0.0000
# 5 0.0000 0.0000 0.0000 0.0000 16.7523 0.0000
# 6 0.0000 0.0000 0.0000 0.0000 0.0000 23.3906
#
#
#
# Elastic Compliance Matrix: (Units=1/GPa)
#
#
# Indices 1 2 3 4 5 6 
#
# 1 0.010651 -0.001087 0.001471 0.000000 0.000000 0.000000
# 2 -0.001087 0.010148 -0.001387 0.000000 0.000000 0.000000
# 3 0.001471 -0.001387 0.015465 0.000000 0.000000 0.000000
# 4 0.000000 0.000000 0.000000 0.064988 0.000000 0.000000
# 5 0.000000 0.000000 0.000000 0.000000 0.059693 0.000000
# 6 0.000000 0.000000 0.000000 0.000000 0.000000 0.042752
#
#
# Mechanical properties :
#
#
# Convention : Reuss Voigt Hill
#
# Bulk Modulus (GPa) = 29.19231 31.19918 30.19575
# Shear Modulus (GPa) = 23.02839 28.02560 25.52699
#
# Velocity S-wave (km/s) = 3.39725 3.74778 3.57681
# Velocity P-wave (km/s) = 5.47896 5.86209 5.67376
#
# Compressibility (1/GPa) = 0.03425560
#
# Stress axis : x y z
#
# Youngs Moduli (GPa) = 93.88662 98.54430 64.66334
#
# Poissons Ratio (x) = 0.10715 -0.09510
# Poissons Ratio (y) = 0.10209 0.08972
# Poissons Ratio (z) = -0.13809 0.13672
#
# Static dielectric constant tensor:
#      x y z
#    x 4.317920 0.000000 0.000000 
#    y 0.000000 3.766570 0.000000 
#    z 0.000000 0.000000 3.567180 
# 
# 
# High freq. dielectric constant tensor:
#      x y z
#    x 1.786980 0.000000 0.000000 
#    y 0.000000 1.776830 0.000000 
#    z 0.000000 0.000000 1.773110 
# 
# From -- ./inp_files/27469.got.cif
#   From: 2010.03.12/outbox.cif.g09.slc.cpg/sg67_14_cif.got.tgz:27469.got - 2010.04.10 22:41:39.
