data_PCOD8279613
_publ_section_title
;
Structure prediction by ZEFSAII (Michael W. Deem and Ramdas Pophale) SiO2 
 PCOD8279613
Probable space group: C M M A
;
_chemical_formula_sum "Si O2"
_cell_formula_units_Z 64
_cell_length_a 26.936736
_cell_length_b 8.591791
_cell_length_c 14.439359
_cell_angle_alpha 90.000000
_cell_angle_beta 90.000000
_cell_angle_gamma 90.000000
_cell_volume 3341.770248
_symmetry_space_group_name_H-M "C M M A"
_symmetry_group_IT_number 67
_symmetry_cell_setting 'orthorhombic'
loop_
_space_group_symop_operation_xyz
x,y,z
-x,1/2-y,z
x,-y,-z
-x,1/2+y,-z
-x,-y,-z
x,1/2+y,-z
-x,y,z
x,1/2-y,z
1/2+x,1/2+y,z
1/2-x,-y,z
1/2+x,1/2-y,-z
1/2-x,y,-z
1/2-x,1/2-y,-z
1/2+x,y,-z
1/2-x,1/2+y,z
1/2+x,-y,z
loop_
_atom_site_type_symbol
_atom_site_label
_atom_site_fract_x
_atom_site_fract_y
_atom_site_fract_z
Si Si1 0.385286 0.430679 0.735154
Si Si2 0.803323 0.934018 0.399824
Si Si3 0.556435 0.933851 0.898921
Si Si4 0.057313 0.421026 0.589139
O O1 0.372477 0.250000 0.741791
O O2 0.340704 0.519002 0.682832
O O3 0.399588 0.494752 0.836117
O O4 0.434614 0.465195 0.675426
O O5 0.799949 0.750000 0.407467
O O6 0.820231 0.000000 0.500000
O O7 0.750000 0.000000 0.371272
O O8 0.500000 0.978334 0.866677
O O9 0.562644 0.750000 0.899011
O O10 0.566328 0.000000 0.000000
O O11 0.082836 0.500000 0.500000
O O12 0.081872 0.250000 0.605488
O O13 0.000000 0.397525 0.571063
#
# Coordination Sequence:
#
# PCOD8279613 Si02
#       4
#    16  16  16  16
#     4  12  23  35  54  80 109 144 185 227 274 327
#     4  11  22  39  60  84 114 147 186 231 280 333
#     4  10  21  38  59  84 114 148 187 232 281 332
#     4  10  20  33  48  70 103 141 179 220 267 321
#
# _framework density 19.151526
#
# number of rings (size 3 to 8) (size 9 to 14) (size 15 to 20)
#    0.000    1.250    0.000    8.250    0.000    6.000 
#    0.000    0.000    0.000    0.750    0.000    5.250 
#    0.000    0.000    0.000    0.000    0.000    0.000 
#
# Total GULP energy -396599.040634 kJ/mol
# GULP energy per Si atom -12393.720020 kJ/mol
# Density = 1.910794 g / cm^3
# Si number density = 19.151526 Si / 1000 Ang^3
#
#
#
# Elastic Constant Matrix: (Units=GPa)
#
#
# Indices 1 2 3 4 5 6 
#
# 1 99.2480 49.2070 56.4828 0.0000 0.0000 0.0000
# 2 49.2070 153.0783 55.1759 0.0000 0.0000 0.0000
# 3 56.4828 55.1759 120.0473 0.0000 0.0000 0.0000
# 4 0.0000 0.0000 0.0000 35.6041 0.0000 0.0000
# 5 0.0000 0.0000 0.0000 0.0000 35.0552 0.0000
# 6 0.0000 0.0000 0.0000 0.0000 0.0000 25.8802
#
#
#
# Elastic Compliance Matrix: (Units=1/GPa)
#
#
# Indices 1 2 3 4 5 6 
#
# 1 0.014611 -0.002659 -0.005652 0.000000 0.000000 0.000000
# 2 -0.002659 0.008314 -0.002570 0.000000 0.000000 0.000000
# 3 -0.005652 -0.002570 0.012171 0.000000 0.000000 0.000000
# 4 0.000000 0.000000 0.000000 0.028087 0.000000 0.000000
# 5 0.000000 0.000000 0.000000 0.000000 0.028526 0.000000
# 6 0.000000 0.000000 0.000000 0.000000 0.000000 0.038640
#
#
# Mechanical properties :
#
#
# Convention : Reuss Voigt Hill
#
# Bulk Modulus (GPa) = 75.00562 77.12278 76.06420
# Shear Modulus (GPa) = 31.93761 33.40843 32.67302
#
# Velocity S-wave (km/s) = 4.08809 4.18116 4.13489
# Velocity P-wave (km/s) = 7.84427 7.97914 7.91200
#
# Compressibility (1/GPa) = 0.01333233
#
# Stress axis : x y z
#
# Youngs Moduli (GPa) = 68.44145 120.28236 82.16501
#
# Poissons Ratio (x) = 0.31988 0.46442
# Poissons Ratio (y) = 0.18201 0.21116
# Poissons Ratio (z) = 0.38685 0.30911
#
# Static dielectric constant tensor:
#      x y z
#    x 3.472080 0.000000 0.000000 
#    y 0.000000 3.969940 0.000000 
#    z 0.000000 0.000000 3.498730 
# 
# 
# High freq. dielectric constant tensor:
#      x y z
#    x 1.734100 0.000000 0.000000 
#    y 0.000000 1.767540 0.000000 
#    z 0.000000 0.000000 1.733710 
# 
# From -- ./inp_files/23395.got.cif
#   From: 2010.03.12/outbox.cif.g09.slc.cpg/sg67_12_cif.got.tgz:23395.got - 2010.04.10 22:41:39.
