data_PCOD8279522
_publ_section_title
;
Structure prediction by ZEFSAII (Michael W. Deem and Ramdas Pophale) SiO2 
 PCOD8279522
Probable space group: C M M A
;
_chemical_formula_sum "Si O2"
_cell_formula_units_Z 96
_cell_length_a 30.784250
_cell_length_b 9.421577
_cell_length_c 18.618046
_cell_angle_alpha 90.000000
_cell_angle_beta 90.000000
_cell_angle_gamma 90.000000
_cell_volume 5399.906974
_symmetry_space_group_name_H-M "C M M A"
_symmetry_group_IT_number 67
_symmetry_cell_setting 'orthorhombic'
loop_
_space_group_symop_operation_xyz
x,y,z
-x,1/2-y,z
x,-y,-z
-x,1/2+y,-z
-x,-y,-z
x,1/2+y,-z
-x,y,z
x,1/2-y,z
1/2+x,1/2+y,z
1/2-x,-y,z
1/2+x,1/2-y,-z
1/2-x,y,-z
1/2-x,1/2-y,-z
1/2+x,y,-z
1/2-x,1/2+y,z
1/2+x,-y,z
loop_
_atom_site_type_symbol
_atom_site_label
_atom_site_fract_x
_atom_site_fract_y
_atom_site_fract_z
Si Si1 0.708307 0.414626 0.660053
Si Si2 0.548373 0.081790 0.679092
Si Si3 0.629548 0.917347 0.072371
Si Si4 0.208369 0.085717 0.175271
Si Si5 0.548199 0.081466 0.839337
Si Si6 0.877255 0.081956 0.426127
O O1 0.719201 0.250000 0.651664
O O2 0.750000 0.500000 0.631882
O O3 0.697510 0.453407 0.742443
O O4 0.667538 0.459152 0.612221
O O5 0.500000 0.035567 0.654134
O O6 0.552102 0.250000 0.681962
O O7 0.557700 0.021878 0.759216
O O8 0.583607 0.022776 0.623307
O O9 0.627975 0.750000 0.056722
O O10 0.666892 0.956808 0.128684
O O11 0.584070 0.975082 0.104954
O O12 0.639645 0.000000 0.000000
O O13 0.219785 0.250000 0.166788
O O14 0.250000 0.000000 0.147033
O O15 0.500000 0.032895 0.864701
O O16 0.550906 0.250000 0.836089
O O17 0.880892 0.250000 0.439293
O O18 0.880263 0.000000 0.500000
#
# Coordination Sequence:
#
# PCOD8279522 Si02
#       6
#    16  16  16  16  16  16
#     4   9  18  33  52  71  91 119 157 198 235 272
#     4   8  14  27  49  73  93 118 157 199 232 267
#     4  10  20  32  47  70  99 127 154 188 232 279
#     4   9  18  33  52  71  91 119 157 198 235 272
#     4   8  14  27  49  73  93 118 157 199 232 267
#     4  10  20  32  47  70  99 127 154 188 232 279
#
# _framework density 17.778082999999999
#
# number of rings (size 3 to 8) (size 9 to 14) (size 15 to 20)
#    0.000    3.000    0.000    2.000    0.000    6.667 
#    0.000    3.333    0.000    3.000    0.000    2.333 
#    0.000    0.000    0.000    0.000    0.000    0.000 
#
# Total GULP energy -595087.041931 kJ/mol
# GULP energy per Si atom -12397.646707 kJ/mol
# Density = 1.773762 g / cm^3
# Si number density = 17.778083 Si / 1000 Ang^3
#
#
#
# Elastic Constant Matrix: (Units=GPa)
#
#
# Indices 1 2 3 4 5 6 
#
# 1 76.6995 16.0406 9.6720 0.0000 0.0000 0.0000
# 2 16.0406 18.4469 12.0629 0.0000 0.0000 0.0000
# 3 9.6720 12.0629 43.8595 0.0000 0.0000 0.0000
# 4 0.0000 0.0000 0.0000 27.7781 0.0000 0.0000
# 5 0.0000 0.0000 0.0000 0.0000 13.4071 0.0000
# 6 0.0000 0.0000 0.0000 0.0000 0.0000 18.7205
#
#
#
# Elastic Compliance Matrix: (Units=1/GPa)
#
#
# Indices 1 2 3 4 5 6 
#
# 1 0.015941 -0.014098 0.000362 0.000000 0.000000 0.000000
# 2 -0.014098 0.078566 -0.018499 0.000000 0.000000 0.000000
# 3 0.000362 -0.018499 0.027808 0.000000 0.000000 0.000000
# 4 0.000000 0.000000 0.000000 0.036000 0.000000 0.000000
# 5 0.000000 0.000000 0.000000 0.000000 0.074587 0.000000
# 6 0.000000 0.000000 0.000000 0.000000 0.000000 0.053417
#
#
# Mechanical properties :
#
#
# Convention : Reuss Voigt Hill
#
# Bulk Modulus (GPa) = 17.28787 23.83965 20.56376
# Shear Modulus (GPa) = 13.51091 18.72982 16.12037
#
# Velocity S-wave (km/s) = 2.75976 3.24934 3.01450
# Velocity P-wave (km/s) = 4.46098 5.24560 4.86912
#
# Compressibility (1/GPa) = 0.05784402
#
# Stress axis : x y z
#
# Youngs Moduli (GPa) = 62.73274 12.72818 35.96056
#
# Poissons Ratio (x) = 0.17944 -0.01303
# Poissons Ratio (y) = 0.88441 0.66525
# Poissons Ratio (z) = -0.02272 0.23546
#
# Static dielectric constant tensor:
#      x y z
#    x 3.615320 0.000000 0.000000 
#    y 0.000000 2.894900 0.000000 
#    z 0.000000 0.000000 3.312950 
# 
# 
# High freq. dielectric constant tensor:
#      x y z
#    x 1.703970 0.000000 0.000000 
#    y 0.000000 1.643230 0.000000 
#    z 0.000000 0.000000 1.686040 
# 
# From -- ./inp_files/33120.got.cif
#   From: 2010.03.12/outbox.cif.g09.slc.cpg/sg67_17_cif.got.tgz:33120.got - 2010.04.10 22:41:39.
