data_PCOD8279426
_publ_section_title
;
Structure prediction by ZEFSAII (Michael W. Deem and Ramdas Pophale) SiO2 
 PCOD8279426
Probable space group: C M M A
;
_chemical_formula_sum "Si O2"
_cell_formula_units_Z 92
_cell_length_a 15.118730
_cell_length_b 13.902070
_cell_length_c 22.032629
_cell_angle_alpha 90.000000
_cell_angle_beta 90.000000
_cell_angle_gamma 90.000000
_cell_volume 4630.854158
_symmetry_space_group_name_H-M "C M M A"
_symmetry_group_IT_number 67
_symmetry_cell_setting 'orthorhombic'
loop_
_space_group_symop_operation_xyz
x,y,z
-x,1/2-y,z
x,-y,-z
-x,1/2+y,-z
-x,-y,-z
x,1/2+y,-z
-x,y,z
x,1/2-y,z
1/2+x,1/2+y,z
1/2-x,-y,z
1/2+x,1/2-y,-z
1/2-x,y,-z
1/2-x,1/2-y,-z
1/2+x,y,-z
1/2-x,1/2+y,z
1/2+x,-y,z
loop_
_atom_site_type_symbol
_atom_site_label
_atom_site_fract_x
_atom_site_fract_y
_atom_site_fract_z
Si Si1 0.000000 0.861135 0.657887
Si Si2 0.806781 0.638489 0.703836
Si Si3 0.172148 0.865068 0.403849
Si Si4 0.250000 0.500000 0.193675
Si Si5 0.902192 0.012959 0.899061
Si Si6 0.750000 0.500000 0.500000
Si Si7 0.500000 0.028470 0.427934
Si Si8 0.353650 0.140658 0.992199
O O1 0.910096 0.886851 0.693970
O O2 0.000000 0.750000 0.638483
O O3 0.000000 0.920274 0.596362
O O4 0.793583 0.750000 0.714555
O O5 0.742594 0.606016 0.648526
O O6 0.776556 0.589740 0.765507
O O7 0.171823 0.750000 0.415129
O O8 0.075191 0.907460 0.394715
O O9 0.192291 0.925058 0.463531
O O10 0.167912 0.534675 0.153251
O O11 0.000000 0.010605 0.869910
O O12 0.882315 0.910745 0.930278
O O13 0.900953 0.095994 0.949546
O O14 0.500000 0.000000 0.500000
O O15 0.383568 0.250000 0.986444
O O16 0.250000 0.127151 0.000000
#
# Coordination Sequence:
#
# PCOD8279426 Si02
#       8
#     8  16  16   8  16   4   8  16
#     4  10  22  43  68  93 121 160 213 261 305 375
#     4  10  24  44  65  88 120 165 208 254 310 363
#     4  11  24  42  62  91 129 165 208 256 307 376
#     4  12  23  41  62  89 125 158 206 262 302 362
#     4  11  23  38  60  92 123 158 204 255 308 364
#     4  12  20  38  64  94 118 162 202 256 320 366
#     4  12  23  39  62  98 129 164 203 246 316 377
#     4  10  19  38  63  86 124 167 200 246 311 375
#
# _framework density 19.866745000000002
#
# number of rings (size 3 to 8) (size 9 to 14) (size 15 to 20)
#    0.000    1.217    2.609    4.696    1.217    3.478 
#    1.565    0.000    0.000    0.000    0.000    0.000 
#    0.000    0.000    0.000    0.000    0.000    0.000 
#
# Total GULP energy -570012.906941 kJ/mol
# GULP energy per Si atom -12391.584933 kJ/mol
# Density = 1.982153 g / cm^3
# Si number density = 19.866745 Si / 1000 Ang^3
#
#
#
# Elastic Constant Matrix: (Units=GPa)
#
#
# Indices 1 2 3 4 5 6 
#
# 1 173.7474 46.6663 60.0030 0.0000 0.0000 0.0000
# 2 46.6663 117.6435 50.9799 0.0000 0.0000 0.0000
# 3 60.0030 50.9799 111.6709 0.0000 0.0000 0.0000
# 4 0.0000 0.0000 0.0000 9.8736 0.0000 0.0000
# 5 0.0000 0.0000 0.0000 0.0000 51.1579 0.0000
# 6 0.0000 0.0000 0.0000 0.0000 0.0000 -4.5021
#
#
#
# Elastic Compliance Matrix: (Units=1/GPa)
#
#
# Indices 1 2 3 4 5 6 
#
# 1 0.007269 -0.001485 -0.003228 0.000000 0.000000 0.000000
# 2 -0.001485 0.010900 -0.004178 0.000000 0.000000 0.000000
# 3 -0.003228 -0.004178 0.012597 0.000000 0.000000 0.000000
# 4 0.000000 0.000000 0.000000 0.101280 0.000000 0.000000
# 5 0.000000 0.000000 0.000000 0.000000 0.019547 0.000000
# 6 0.000000 0.000000 0.000000 0.000000 0.000000 -0.222117
#
#
# Mechanical properties :
#
#
# Convention : Reuss Voigt Hill
#
# Bulk Modulus (GPa) = 77.01881 79.81779 78.41830
# Shear Modulus (GPa) = -103.27434 27.66673 -37.80380
#
# Velocity S-wave (km/s) = -7.21778 3.73582 -4.36692
# Velocity P-wave (km/s) = 5.53263 7.67283 3.75915
#
# Compressibility (1/GPa) = 0.01298384
#
# Stress axis : x y z
#
# Youngs Moduli (GPa) = 137.57024 91.74501 79.38506
#
# Poissons Ratio (x) = 0.13620 0.25626
# Poissons Ratio (y) = 0.20424 0.33169
# Poissons Ratio (z) = 0.44408 0.38333
#
# Static dielectric constant tensor:
#      x y z
#    x 4.055100 0.000000 0.000000 
#    y 0.000000 3.952280 0.000000 
#    z 0.000000 0.000000 3.467810 
# 
# 
# High freq. dielectric constant tensor:
#      x y z
#    x 1.798610 0.000000 0.000000 
#    y 0.000000 1.785690 0.000000 
#    z 0.000000 0.000000 1.757590 
# 
# From -- ./inp_files/38575.got.cif
#   From: 2010.03.12/outbox.cif.g09.slc.cpg/sg67_20_cif.got.tgz:38575.got - 2010.04.10 22:41:39.
