data_PCOD8279285
_publ_section_title
;
Structure prediction by ZEFSAII (Michael W. Deem and Ramdas Pophale) SiO2 
 PCOD8279285
Probable space group: C M M A
;
_chemical_formula_sum "Si O2"
_cell_formula_units_Z 104
_cell_length_a 9.389926
_cell_length_b 29.276650
_cell_length_c 19.857079
_cell_angle_alpha 90.000000
_cell_angle_beta 90.000000
_cell_angle_gamma 90.000000
_cell_volume 5458.821761
_symmetry_space_group_name_H-M "C M M A"
_symmetry_group_IT_number 67
_symmetry_cell_setting 'orthorhombic'
loop_
_space_group_symop_operation_xyz
x,y,z
-x,1/2-y,z
x,-y,-z
-x,1/2+y,-z
-x,-y,-z
x,1/2+y,-z
-x,y,z
x,1/2-y,z
1/2+x,1/2+y,z
1/2-x,-y,z
1/2+x,1/2-y,-z
1/2-x,y,-z
1/2-x,1/2-y,-z
1/2+x,y,-z
1/2-x,1/2+y,z
1/2+x,-y,z
loop_
_atom_site_type_symbol
_atom_site_label
_atom_site_fract_x
_atom_site_fract_y
_atom_site_fract_z
Si Si1 0.344843 0.540288 0.410767
Si Si2 0.163999 0.151235 0.931681
Si Si3 0.659404 0.750000 0.935267
Si Si4 0.828356 0.643389 0.567056
Si Si5 0.163608 0.377099 0.788538
Si Si6 0.656676 0.459833 0.745607
Si Si7 0.336327 0.196827 0.318914
O O1 0.500000 0.538183 0.445228
O O2 0.250000 0.500000 0.443777
O O3 0.279511 0.590697 0.422453
O O4 0.361363 0.529720 0.332442
O O5 0.190703 0.201968 0.898845
O O6 0.207544 0.120775 0.867740
O O7 0.000000 0.143988 0.951255
O O8 0.250000 0.140240 0.000000
O O9 0.500000 0.750000 0.961644
O O10 0.750000 0.750000 0.000000
O O11 0.750000 0.661559 0.500000
O O12 0.770577 0.674270 0.627733
O O13 0.000000 0.648287 0.562903
O O14 0.266230 0.411704 0.751267
O O15 0.184249 0.327746 0.753482
O O16 0.000000 0.392894 0.780776
O O17 0.500000 0.458265 0.779728
O O18 0.750000 0.500000 0.780207
O O19 0.500000 0.191161 0.343592
O O20 0.297204 0.250000 0.309418
#
# Coordination Sequence:
#
# PCOD8279285 Si02
#       7
#    16  16   8  16  16  16  16
#     4   9  19  34  54  80 111 142 175 217 269 327
#     4   9  18  31  49  75 109 147 186 225 271 324
#     4   8  14  26  44  66  98 138 177 216 257 308
#     4  11  23  40  59  82 111 146 186 229 277 330
#     4  10  20  34  56  84 113 146 184 229 276 326
#     4  10  19  34  56  83 112 143 180 223 275 331
#     4  10  22  39  59  83 110 144 188 233 277 324
#
# _framework density 19.051731
#
# number of rings (size 3 to 8) (size 9 to 14) (size 15 to 20)
#    0.000    2.308    1.538    0.923    1.077    3.385 
#    0.000    1.538    0.000    0.462    0.000    3.231 
#    0.000    0.000    0.000    0.000    0.000    0.000 
#
# Total GULP energy -644244.373896 kJ/mol
# GULP energy per Si atom -12389.314883 kJ/mol
# Density = 1.900837 g / cm^3
# Si number density = 19.051731 Si / 1000 Ang^3
#
#
#
# Elastic Constant Matrix: (Units=GPa)
#
#
# Indices 1 2 3 4 5 6 
#
# 1 105.2668 53.6011 43.0531 0.0000 0.0000 0.0000
# 2 53.6011 105.5999 22.9047 0.0000 0.0000 0.0000
# 3 43.0531 22.9047 80.5893 0.0000 0.0000 0.0000
# 4 0.0000 0.0000 0.0000 -9.2205 0.0000 0.0000
# 5 0.0000 0.0000 0.0000 0.0000 20.2947 0.0000
# 6 0.0000 0.0000 0.0000 0.0000 0.0000 29.6722
#
#
#
# Elastic Compliance Matrix: (Units=1/GPa)
#
#
# Indices 1 2 3 4 5 6 
#
# 1 0.015385 -0.006422 -0.006394 0.000000 0.000000 0.000000
# 2 -0.006422 0.012773 -0.000199 0.000000 0.000000 0.000000
# 3 -0.006394 -0.000199 0.015881 0.000000 0.000000 0.000000
# 4 0.000000 0.000000 0.000000 -0.108454 0.000000 0.000000
# 5 0.000000 0.000000 0.000000 0.000000 0.049274 0.000000
# 6 0.000000 0.000000 0.000000 0.000000 0.000000 0.033702
#
#
# Mechanical properties :
#
#
# Convention : Reuss Voigt Hill
#
# Bulk Modulus (GPa) = 55.53076 58.95265 57.24171
# Shear Modulus (GPa) = 98.82790 19.60910 59.21850
#
# Velocity S-wave (km/s) = 7.21014 3.21168 5.58126
# Velocity P-wave (km/s) = 9.92600 6.69058 8.46431
#
# Compressibility (1/GPa) = 0.01800804
#
# Stress axis : x y z
#
# Youngs Moduli (GPa) = 64.99901 78.29127 62.96870
#
# Poissons Ratio (x) = 0.50281 0.40260
# Poissons Ratio (y) = 0.41745 0.01255
# Poissons Ratio (z) = 0.41558 0.01560
#
# Static dielectric constant tensor:
#      x y z
#    x 3.705790 0.000000 0.000000 
#    y 0.000000 3.395570 0.000000 
#    z 0.000000 0.000000 3.202580 
# 
# 
# High freq. dielectric constant tensor:
#      x y z
#    x 1.744370 0.000000 0.000000 
#    y 0.000000 1.733900 0.000000 
#    z 0.000000 0.000000 1.721000 
# 
# From -- ./inp_files/37305.got.cif
#   From: 2010.03.12/outbox.cif.g09.slc.cpg/sg67_19_cif.got.tgz:37305.got - 2010.04.10 22:41:39.
