data_PCOD8279465
_publ_section_title
;
Structure prediction by ZEFSAII (Michael W. Deem and Ramdas Pophale) SiO2 
 PCOD8279465
Probable space group: C M M A
;
_chemical_formula_sum "Si O2"
_cell_formula_units_Z 104
_cell_length_a 9.277130
_cell_length_b 24.479708
_cell_length_c 28.588861
_cell_angle_alpha 90.000000
_cell_angle_beta 90.000000
_cell_angle_gamma 90.000000
_cell_volume 6492.571315
_symmetry_space_group_name_H-M "C M M A"
_symmetry_group_IT_number 67
_symmetry_cell_setting 'orthorhombic'
loop_
_space_group_symop_operation_xyz
x,y,z
-x,1/2-y,z
x,-y,-z
-x,1/2+y,-z
-x,-y,-z
x,1/2+y,-z
-x,y,z
x,1/2-y,z
1/2+x,1/2+y,z
1/2-x,-y,z
1/2+x,1/2-y,-z
1/2-x,y,-z
1/2-x,1/2-y,-z
1/2+x,y,-z
1/2-x,1/2+y,z
1/2+x,-y,z
loop_
_atom_site_type_symbol
_atom_site_label
_atom_site_fract_x
_atom_site_fract_y
_atom_site_fract_z
Si Si1 0.823012 0.441503 0.547263
Si Si2 0.000000 0.814807 0.065826
Si Si3 0.666398 0.685202 0.697261
Si Si4 0.828525 0.144873 0.391160
Si Si5 0.165507 0.250000 0.452260
Si Si6 0.000000 0.314972 0.038210
Si Si7 0.840576 0.314370 0.215016
Si Si8 0.779817 0.314798 0.113036
O O1 0.750000 0.500000 0.555702
O O2 0.750000 0.417114 0.500000
O O3 0.769179 0.404366 0.589703
O O4 0.000000 0.444088 0.544144
O O5 0.124709 0.835357 0.099172
O O6 0.000000 0.750000 0.059512
O O7 0.000000 0.841145 0.013814
O O8 0.500000 0.667735 0.690605
O O9 0.684652 0.750000 0.691929
O O10 0.770924 0.655851 0.660619
O O11 0.720968 0.664803 0.748196
O O12 0.793493 0.197240 0.422470
O O13 0.000000 0.131351 0.390377
O O14 0.250000 0.250000 0.500000
O O15 0.000000 0.250000 0.466218
O O16 0.867674 0.336604 0.068640
O O17 0.000000 0.250000 0.032807
O O18 0.823175 0.250000 0.210001
O O19 0.819641 0.340763 0.163401
O O20 0.000000 0.329727 0.233513
O O21 0.799297 0.250000 0.116391
#
# Coordination Sequence:
#
# PCOD8279465 Si02
#       8
#    16   8  16  16   8   8  16  16
#     4  11  22  38  58  81 104 131 162 195 232 275
#     4   9  16  20  28  42  60  82 110 158 211 258
#     4  10  20  31  45  65  87 115 149 190 234 278
#     4  11  21  36  53  73 100 130 161 194 235 282
#     4  10  22  34  50  72  98 130 158 186 225 276
#     4   9  14  22  30  40  58  82 116 154 205 266
#     4   9  16  26  38  50  68  98 133 172 217 271
#     4   9  15  22  31  43  60  84 118 158 209 265
#
# _framework density 16.018308000000001
#
# number of rings (size 3 to 8) (size 9 to 14) (size 15 to 20)
#    0.000    2.154    1.538    3.692    1.077    4.923 
#    0.000    0.000    0.000    0.000    0.000    0.000 
#    0.000    0.000    0.000    0.000    0.000    0.000 
#
# Total GULP energy -644201.983357 kJ/mol
# GULP energy per Si atom -12388.499680 kJ/mol
# Density = 1.598185 g / cm^3
# Si number density = 16.018308 Si / 1000 Ang^3
#
#
#
# Elastic Constant Matrix: (Units=GPa)
#
#
# Indices 1 2 3 4 5 6 
#
# 1 121.7041 18.9045 46.2888 0.0000 0.0000 0.0000
# 2 18.9045 24.3232 17.6319 0.0000 0.0000 0.0000
# 3 46.2888 17.6319 109.5333 0.0000 0.0000 0.0000
# 4 0.0000 0.0000 0.0000 5.9855 0.0000 0.0000
# 5 0.0000 0.0000 0.0000 0.0000 44.1756 0.0000
# 6 0.0000 0.0000 0.0000 0.0000 0.0000 14.9414
#
#
#
# Elastic Compliance Matrix: (Units=1/GPa)
#
#
# Indices 1 2 3 4 5 6 
#
# 1 0.010413 -0.005551 -0.003507 0.000000 0.000000 0.000000
# 2 -0.005551 0.049503 -0.005623 0.000000 0.000000 0.000000
# 3 -0.003507 -0.005623 0.011517 0.000000 0.000000 0.000000
# 4 0.000000 0.000000 0.000000 0.167072 0.000000 0.000000
# 5 0.000000 0.000000 0.000000 0.000000 0.022637 0.000000
# 6 0.000000 0.000000 0.000000 0.000000 0.000000 0.066928
#
#
# Mechanical properties :
#
#
# Convention : Reuss Voigt Hill
#
# Bulk Modulus (GPa) = 23.76902 46.80122 35.28512
# Shear Modulus (GPa) = 13.46059 24.53618 18.99839
#
# Velocity S-wave (km/s) = 2.90198 3.91801 3.44763
# Velocity P-wave (km/s) = 5.10877 7.05326 6.15825
#
# Compressibility (1/GPa) = 0.04207157
#
# Stress axis : x y z
#
# Youngs Moduli (GPa) = 96.03698 20.20066 86.82974
#
# Poissons Ratio (x) = 0.11213 0.30450
# Poissons Ratio (y) = 0.53308 0.48824
# Poissons Ratio (z) = 0.33679 0.11359
#
# Static dielectric constant tensor:
#      x y z
#    x 3.236560 0.000000 0.000000 
#    y 0.000000 2.450190 0.000000 
#    z 0.000000 0.000000 3.267700 
# 
# 
# High freq. dielectric constant tensor:
#      x y z
#    x 1.638000 0.000000 0.000000 
#    y 0.000000 1.526870 0.000000 
#    z 0.000000 0.000000 1.632870 
# 
# From -- ./inp_files/45436.got.cif
#   From: 2010.03.12/outbox.cif.g09.slc.cpg/sg67_23_cif.got.tgz:45436.got - 2010.04.10 22:41:39.
