data_PCOD8279499
_publ_section_title
;
Structure prediction by ZEFSAII (Michael W. Deem and Ramdas Pophale) SiO2 
 PCOD8279499
Probable space group: C M M A
;
_chemical_formula_sum "Si O2"
_cell_formula_units_Z 96
_cell_length_a 9.162735
_cell_length_b 27.143710
_cell_length_c 24.372592
_cell_angle_alpha 90.000000
_cell_angle_beta 90.000000
_cell_angle_gamma 90.000000
_cell_volume 6061.722507
_symmetry_space_group_name_H-M "C M M A"
_symmetry_group_IT_number 67
_symmetry_cell_setting 'orthorhombic'
loop_
_space_group_symop_operation_xyz
x,y,z
-x,1/2-y,z
x,-y,-z
-x,1/2+y,-z
-x,-y,-z
x,1/2+y,-z
-x,y,z
x,1/2-y,z
1/2+x,1/2+y,z
1/2-x,-y,z
1/2+x,1/2-y,-z
1/2-x,y,-z
1/2-x,1/2-y,-z
1/2+x,y,-z
1/2-x,1/2+y,z
1/2+x,-y,z
loop_
_atom_site_type_symbol
_atom_site_label
_atom_site_fract_x
_atom_site_fract_y
_atom_site_fract_z
Si Si1 0.832395 0.450352 0.339338
Si Si2 0.338260 0.808752 0.051079
Si Si3 0.827340 0.611634 0.555374
Si Si4 0.671829 0.647478 0.280744
Si Si5 0.173340 0.195220 0.169968
Si Si6 0.831176 0.307064 0.620284
O O1 0.750000 0.500000 0.325222
O O2 0.792657 0.429962 0.399516
O O3 0.790677 0.409180 0.294198
O O4 0.000000 0.463925 0.335958
O O5 0.500000 0.830729 0.045925
O O6 0.341833 0.750000 0.047777
O O7 0.267993 0.823567 0.110435
O O8 0.250000 0.831481 0.000000
O O9 0.750000 0.593531 0.500000
O O10 0.757310 0.663238 0.574043
O O11 0.000000 0.618925 0.546974
O O12 0.500000 0.657919 0.290297
O O13 0.721160 0.658231 0.218323
O O14 0.761592 0.683544 0.320160
O O15 0.234132 0.250000 0.183214
O O16 0.000000 0.198025 0.165319
O O17 0.816433 0.250000 0.605338
O O18 0.000000 0.323841 0.620622
#
# Coordination Sequence:
#
# PCOD8279499 Si02
#       6
#    16  16  16  16  16  16
#     4   9  19  33  49  68  87 109 136 169 214 263
#     4   8  13  21  33  51  77 111 147 177 206 240
#     4  10  21  36  52  70  89 111 142 175 208 250
#     4   9  17  30  47  66  86 111 147 183 213 252
#     4   8  13  22  39  61  84 113 147 179 209 243
#     4  10  20  32  46  66  92 120 146 173 209 250
#
# _framework density 15.837083
#
# number of rings (size 3 to 8) (size 9 to 14) (size 15 to 20)
#    0.000    3.000    0.000    3.500    0.000    6.000 
#    0.000    2.500    0.000    3.000    0.000    0.000 
#    0.000    0.667    0.000    8.333    0.000    0.333 
#
# Total GULP energy -594950.505631 kJ/mol
# GULP energy per Si atom -12394.802201 kJ/mol
# Density = 1.580104 g / cm^3
# Si number density = 15.837083 Si / 1000 Ang^3
#
#
#
# Elastic Constant Matrix: (Units=GPa)
#
#
# Indices 1 2 3 4 5 6 
#
# 1 59.0733 31.2906 37.7495 0.0000 0.0000 0.0000
# 2 31.2906 74.7376 45.2208 0.0000 0.0000 0.0000
# 3 37.7495 45.2208 139.5066 0.0000 0.0000 0.0000
# 4 0.0000 0.0000 0.0000 11.6566 0.0000 0.0000
# 5 0.0000 0.0000 0.0000 0.0000 23.3365 0.0000
# 6 0.0000 0.0000 0.0000 0.0000 0.0000 23.0489
#
#
#
# Elastic Compliance Matrix: (Units=1/GPa)
#
#
# Indices 1 2 3 4 5 6 
#
# 1 0.023356 -0.007407 -0.003919 0.000000 0.000000 0.000000
# 2 -0.007407 0.018994 -0.004152 0.000000 0.000000 0.000000
# 3 -0.003919 -0.004152 0.009575 0.000000 0.000000 0.000000
# 4 0.000000 0.000000 0.000000 0.085788 0.000000 0.000000
# 5 0.000000 0.000000 0.000000 0.000000 0.042851 0.000000
# 6 0.000000 0.000000 0.000000 0.000000 0.000000 0.043386
#
#
# Mechanical properties :
#
#
# Convention : Reuss Voigt Hill
#
# Bulk Modulus (GPa) = 47.69385 55.75991 51.72688
# Shear Modulus (GPa) = 19.09150 22.21216 20.65183
#
# Velocity S-wave (km/s) = 3.47579 3.74911 3.61504
# Velocity P-wave (km/s) = 6.80359 7.35024 7.08219
#
# Compressibility (1/GPa) = 0.02096706
#
# Stress axis : x y z
#
# Youngs Moduli (GPa) = 42.81550 52.64850 104.44351
#
# Poissons Ratio (x) = 0.38999 0.40930
# Poissons Ratio (y) = 0.31715 0.43370
# Poissons Ratio (z) = 0.16779 0.21862
#
# Static dielectric constant tensor:
#      x y z
#    x 2.991000 0.000000 0.000000 
#    y 0.000000 2.707910 0.000000 
#    z 0.000000 0.000000 3.310820 
# 
# 
# High freq. dielectric constant tensor:
#      x y z
#    x 1.599410 0.000000 0.000000 
#    y 0.000000 1.570350 0.000000 
#    z 0.000000 0.000000 1.611770 
# 
# From -- ./inp_files/40781.got.cif
#   From: 2010.03.12/outbox.cif.g09.slc.cpg/sg67_21_cif.got.tgz:40781.got - 2010.04.10 22:41:39.
