data_PCOD8279260
_publ_section_title
;
Structure prediction by ZEFSAII (Michael W. Deem and Ramdas Pophale) SiO2 
 PCOD8279260
Probable space group: C M M A
;
_chemical_formula_sum "Si O2"
_cell_formula_units_Z 80
_cell_length_a 16.480788
_cell_length_b 16.390064
_cell_length_c 13.719224
_cell_angle_alpha 90.000000
_cell_angle_beta 90.000000
_cell_angle_gamma 90.000000
_cell_volume 3705.852840
_symmetry_space_group_name_H-M "C M M A"
_symmetry_group_IT_number 67
_symmetry_cell_setting 'orthorhombic'
loop_
_space_group_symop_operation_xyz
x,y,z
-x,1/2-y,z
x,-y,-z
-x,1/2+y,-z
-x,-y,-z
x,1/2+y,-z
-x,y,z
x,1/2-y,z
1/2+x,1/2+y,z
1/2-x,-y,z
1/2+x,1/2-y,-z
1/2-x,y,-z
1/2-x,1/2-y,-z
1/2+x,y,-z
1/2-x,1/2+y,z
1/2+x,-y,z
loop_
_atom_site_type_symbol
_atom_site_label
_atom_site_fract_x
_atom_site_fract_y
_atom_site_fract_z
Si Si1 0.500000 0.846880 0.033489
Si Si2 0.344148 0.157207 0.639993
Si Si3 0.593136 0.588371 0.541382
Si Si4 0.176670 0.652806 0.280267
Si Si5 0.169175 0.153263 0.944219
Si Si6 0.000000 0.152473 0.254885
O O1 0.500000 0.750000 0.023536
O O2 0.500000 0.876451 0.144199
O O3 0.416282 0.881473 0.986450
O O4 0.341806 0.250000 0.673698
O O5 0.352679 0.150444 0.523130
O O6 0.261772 0.118200 0.679498
O O7 0.421133 0.114229 0.692226
O O8 0.617008 0.500000 0.500000
O O9 0.500000 0.607907 0.521820
O O10 0.610528 0.603950 0.655473
O O11 0.164466 0.750000 0.293047
O O12 0.170580 0.626543 0.168213
O O13 0.170180 0.250000 0.955472
O O14 0.250000 0.118684 0.000000
O O15 0.000000 0.250000 0.264474
#
# Coordination Sequence:
#
# PCOD8279260 Si02
#       6
#     8  16  16  16  16   8
#     4   9  16  26  45  73 106 144 177 213 274 331
#     4  10  19  34  55  81 108 141 182 227 278 336
#     4  11  24  39  54  77 110 147 192 235 282 337
#     4  10  21  34  55  84 115 148 185 229 284 340
#     4   9  17  30  48  78 117 147 178 226 278 335
#     4   9  16  28  50  77 107 142 181 219 266 327
#
# _framework density 21.587474
#
# number of rings (size 3 to 8) (size 9 to 14) (size 15 to 20)
#    0.000    2.200    1.000    2.400    1.400    9.200 
#    0.000    0.000    0.000    0.000    0.000   11.200 
#    0.000    0.000    0.000    0.000    0.000    0.200 
#
# Total GULP energy -495823.735588 kJ/mol
# GULP energy per Si atom -12395.593390 kJ/mol
# Density = 2.153834 g / cm^3
# Si number density = 21.587474 Si / 1000 Ang^3
#
#
#
# Elastic Constant Matrix: (Units=GPa)
#
#
# Indices 1 2 3 4 5 6 
#
# 1 123.8656 13.3654 52.8418 0.0000 0.0000 0.0000
# 2 13.3654 21.9404 16.0207 0.0000 0.0000 0.0000
# 3 52.8418 16.0207 167.5487 0.0000 0.0000 0.0000
# 4 0.0000 0.0000 0.0000 12.1263 0.0000 0.0000
# 5 0.0000 0.0000 0.0000 0.0000 40.5053 0.0000
# 6 0.0000 0.0000 0.0000 0.0000 0.0000 12.4567
#
#
#
# Elastic Compliance Matrix: (Units=1/GPa)
#
#
# Indices 1 2 3 4 5 6 
#
# 1 0.009633 -0.003924 -0.002663 0.000000 0.000000 0.000000
# 2 -0.003924 0.050597 -0.003601 0.000000 0.000000 0.000000
# 3 -0.002663 -0.003601 0.007152 0.000000 0.000000 0.000000
# 4 0.000000 0.000000 0.000000 0.082465 0.000000 0.000000
# 5 0.000000 0.000000 0.000000 0.000000 0.024688 0.000000
# 6 0.000000 0.000000 0.000000 0.000000 0.000000 0.080278
#
#
# Mechanical properties :
#
#
# Convention : Reuss Voigt Hill
#
# Bulk Modulus (GPa) = 21.27273 53.09004 37.18138
# Shear Modulus (GPa) = 17.19057 28.42612 22.80835
#
# Velocity S-wave (km/s) = 2.82498 3.63269 3.25399
# Velocity P-wave (km/s) = 4.52949 6.49936 5.60169
#
# Compressibility (1/GPa) = 0.04700855
#
# Stress axis : x y z
#
# Youngs Moduli (GPa) = 103.81436 19.76391 139.81151
#
# Poissons Ratio (x) = 0.07754 0.37229
# Poissons Ratio (y) = 0.40732 0.50341
# Poissons Ratio (z) = 0.27643 0.07116
#
# Static dielectric constant tensor:
#      x y z
#    x 4.234610 0.000000 0.000000 
#    y 0.000000 3.187290 0.000000 
#    z 0.000000 0.000000 3.912500 
# 
# 
# High freq. dielectric constant tensor:
#      x y z
#    x 1.865420 0.000000 0.000000 
#    y 0.000000 1.784140 0.000000 
#    z 0.000000 0.000000 1.856790 
# 
# From -- ./inp_files/19355.got.cif
#   From: 2010.03.12/outbox.cif.g09.slc.cpg/sg67_10_cif.got.tgz:19355.got - 2010.04.10 22:41:39.
