data_PCOD8279305
_publ_section_title
;
Structure prediction by ZEFSAII (Michael W. Deem and Ramdas Pophale) SiO2 
 PCOD8279305
Probable space group: C M M A
;
_chemical_formula_sum "Si O2"
_cell_formula_units_Z 112
_cell_length_a 15.088472
_cell_length_b 30.741369
_cell_length_c 11.301189
_cell_angle_alpha 90.000000
_cell_angle_beta 90.000000
_cell_angle_gamma 90.000000
_cell_volume 5241.946731
_symmetry_space_group_name_H-M "C M M A"
_symmetry_group_IT_number 67
_symmetry_cell_setting 'orthorhombic'
loop_
_space_group_symop_operation_xyz
x,y,z
-x,1/2-y,z
x,-y,-z
-x,1/2+y,-z
-x,-y,-z
x,1/2+y,-z
-x,y,z
x,1/2-y,z
1/2+x,1/2+y,z
1/2-x,-y,z
1/2+x,1/2-y,-z
1/2-x,y,-z
1/2-x,1/2-y,-z
1/2+x,y,-z
1/2-x,1/2+y,z
1/2+x,-y,z
loop_
_atom_site_type_symbol
_atom_site_label
_atom_site_fract_x
_atom_site_fract_y
_atom_site_fract_z
Si Si1 0.394374 0.539102 0.419965
Si Si2 0.752072 0.698935 0.868330
Si Si3 0.396585 0.800733 0.320425
Si Si4 0.398470 0.143588 0.221848
Si Si5 0.895620 0.629426 0.488478
Si Si6 0.844697 0.932157 0.047075
Si Si7 0.399901 0.984069 0.162733
O O1 0.356060 0.500000 0.500000
O O2 0.500000 0.539999 0.429134
O O3 0.353538 0.585092 0.460621
O O4 0.362358 0.533007 0.286089
O O5 0.752128 0.750000 0.876609
O O6 0.838735 0.684027 0.793432
O O7 0.660851 0.684852 0.808582
O O8 0.750000 0.678329 0.000000
O O9 0.500000 0.809138 0.289802
O O10 0.380001 0.750000 0.350835
O O11 0.364392 0.828865 0.434085
O O12 0.500000 0.158957 0.222486
O O13 0.365843 0.130666 0.352547
O O14 0.388067 0.104719 0.127955
O O15 0.000000 0.626971 0.497109
O O16 0.836386 0.976393 0.123515
O O17 0.750000 0.916234 0.000000
O O18 0.902383 0.944207 0.931037
O O19 0.500000 0.002337 0.175954
#
# Coordination Sequence:
#
# PCOD8279305 Si02
#       7
#    16  16  16  16  16  16  16
#     4   9  17  30  51  80 113 147 186 238 295 352
#     4  10  23  42  62  89 121 153 196 245 297 361
#     4   9  19  39  66  92 121 157 195 242 300 361
#     4  11  23  39  60  86 119 158 198 247 303 357
#     4   9  19  35  57  88 121 155 201 249 297 362
#     4  11  22  37  55  78 113 151 194 246 297 351
#     4  10  19  34  58  82 106 145 195 242 294 359
#
# _framework density 21.366107
#
# number of rings (size 3 to 8) (size 9 to 14) (size 15 to 20)
#    0.000    2.143    0.000    3.857    0.000    6.571 
#    0.000    5.714    0.000    5.143    0.000    0.000 
#    0.000    0.000    0.000    0.000    0.000    0.000 
#
# Total GULP energy -694204.923070 kJ/mol
# GULP energy per Si atom -12396.516483 kJ/mol
# Density = 2.131748 g / cm^3
# Si number density = 21.366107 Si / 1000 Ang^3
#
#
#
# Elastic Constant Matrix: (Units=GPa)
#
#
# Indices 1 2 3 4 5 6 
#
# 1 73.2603 21.4461 36.5734 0.0000 0.0000 0.0000
# 2 21.4461 52.3142 48.5993 0.0000 0.0000 0.0000
# 3 36.5734 48.5993 178.4053 0.0000 0.0000 0.0000
# 4 0.0000 0.0000 0.0000 33.4913 0.0000 0.0000
# 5 0.0000 0.0000 0.0000 0.0000 17.6764 0.0000
# 6 0.0000 0.0000 0.0000 0.0000 0.0000 24.2921
#
#
#
# Elastic Compliance Matrix: (Units=1/GPa)
#
#
# Indices 1 2 3 4 5 6 
#
# 1 0.016029 -0.004710 -0.002003 0.000000 0.000000 0.000000
# 2 -0.004710 0.026976 -0.006383 0.000000 0.000000 0.000000
# 3 -0.002003 -0.006383 0.007755 0.000000 0.000000 0.000000
# 4 0.000000 0.000000 0.000000 0.029859 0.000000 0.000000
# 5 0.000000 0.000000 0.000000 0.000000 0.056573 0.000000
# 6 0.000000 0.000000 0.000000 0.000000 0.000000 0.041166
#
#
# Mechanical properties :
#
#
# Convention : Reuss Voigt Hill
#
# Bulk Modulus (GPa) = 40.70484 57.46862 49.08673
# Shear Modulus (GPa) = 23.50320 28.24934 25.87627
#
# Velocity S-wave (km/s) = 3.32026 3.64009 3.48385
# Velocity P-wave (km/s) = 5.81303 6.68001 6.26154
#
# Compressibility (1/GPa) = 0.02456710
#
# Stress axis : x y z
#
# Youngs Moduli (GPa) = 62.38810 37.07012 128.95674
#
# Poissons Ratio (x) = 0.17462 0.25827
# Poissons Ratio (y) = 0.29387 0.82311
# Poissons Ratio (z) = 0.12495 0.23661
#
# Static dielectric constant tensor:
#      x y z
#    x 3.627340 0.000000 0.000000 
#    y 0.000000 3.811770 0.000000 
#    z 0.000000 0.000000 4.253070 
# 
# 
# High freq. dielectric constant tensor:
#      x y z
#    x 1.823180 0.000000 0.000000 
#    y 0.000000 1.831400 0.000000 
#    z 0.000000 0.000000 1.852110 
# 
# From -- ./inp_files/18640.got.cif
#   From: 2010.03.12/outbox.cif.g09.slc.cpg/sg67_10_cif.got.tgz:18640.got - 2010.04.10 22:41:39.
