data_PCOD8279047
_publ_section_title
;
Structure prediction by ZEFSAII (Michael W. Deem and Ramdas Pophale) SiO2 
 PCOD8279047
Probable space group: C M M A
;
_chemical_formula_sum "Si O2"
_cell_formula_units_Z 52
_cell_length_a 30.836311
_cell_length_b 18.382830
_cell_length_c 5.181444
_cell_angle_alpha 90.000000
_cell_angle_beta 90.000000
_cell_angle_gamma 90.000000
_cell_volume 2937.146418
_symmetry_space_group_name_H-M "C M M A"
_symmetry_group_IT_number 67
_symmetry_cell_setting 'orthorhombic'
loop_
_space_group_symop_operation_xyz
x,y,z
-x,1/2-y,z
x,-y,-z
-x,1/2+y,-z
-x,-y,-z
x,1/2+y,-z
-x,y,z
x,1/2-y,z
1/2+x,1/2+y,z
1/2-x,-y,z
1/2+x,1/2-y,-z
1/2-x,y,-z
1/2-x,1/2-y,-z
1/2+x,y,-z
1/2-x,1/2+y,z
1/2+x,-y,z
loop_
_atom_site_type_symbol
_atom_site_label
_atom_site_fract_x
_atom_site_fract_y
_atom_site_fract_z
Si Si1 0.048334 0.836024 0.268859
Si Si2 0.399114 0.664254 0.228042
Si Si3 0.832695 0.956329 0.739649
Si Si4 0.250000 0.500000 0.500000
O O1 0.044528 0.750000 0.255152
O O2 0.072084 0.859827 0.529426
O O3 0.000000 0.870161 0.263875
O O4 0.075355 0.863588 0.023474
O O5 0.389446 0.750000 0.223417
O O6 0.352920 0.623900 0.239266
O O7 0.780869 0.949300 0.680590
O O8 0.854679 0.000000 0.500000
O O9 0.841378 0.000000 0.000000
#
# Coordination Sequence:
#
# PCOD8279047 Si02
#       4
#    16  16  16   4
#     4   9  17  30  50  77 109 142 175 208 250 305
#     4  10  19  32  54  82 106 134 175 221 257 288
#     4  10  20  36  57  77 103 135 179 207 257 325
#     4   8  22  36  60  76  92 144 180 196 258 340
#
# _framework density 17.704259
#
# number of rings (size 3 to 8) (size 9 to 14) (size 15 to 20)
#    0.923    1.538    0.000    3.231    0.000    3.692 
#    0.000    0.769    0.000   20.308    0.000    0.000 
#    0.000    0.000    0.000    0.000    0.000    0.000 
#
# Total GULP energy -322215.567341 kJ/mol
# GULP energy per Si atom -12392.906436 kJ/mol
# Density = 1.766396 g / cm^3
# Si number density = 17.704259 Si / 1000 Ang^3
#
#
#
# Elastic Constant Matrix: (Units=GPa)
#
#
# Indices 1 2 3 4 5 6 
#
# 1 137.3287 57.1862 48.6314 0.0000 0.0000 0.0000
# 2 57.1862 60.2404 35.5572 0.0000 0.0000 0.0000
# 3 48.6314 35.5572 153.4074 0.0000 0.0000 0.0000
# 4 0.0000 0.0000 0.0000 11.0194 0.0000 0.0000
# 5 0.0000 0.0000 0.0000 0.0000 -0.1029 0.0000
# 6 0.0000 0.0000 0.0000 0.0000 0.0000 25.9330
#
#
#
# Elastic Compliance Matrix: (Units=1/GPa)
#
#
# Indices 1 2 3 4 5 6 
#
# 1 0.012289 -0.010851 -0.001381 0.000000 0.000000 0.000000
# 2 -0.010851 0.028813 -0.003238 0.000000 0.000000 0.000000
# 3 -0.001381 -0.003238 0.007707 0.000000 0.000000 0.000000
# 4 0.000000 0.000000 0.000000 0.090749 0.000000 0.000000
# 5 0.000000 0.000000 0.000000 0.000000 -9.722592 0.000000
# 6 0.000000 0.000000 0.000000 0.000000 0.000000 0.038561
#
#
# Mechanical properties :
#
#
# Convention : Reuss Voigt Hill
#
# Bulk Modulus (GPa) = 55.96505 70.41400 63.18953
# Shear Modulus (GPa) = -0.52590 21.34337 10.40874
#
# Velocity S-wave (km/s) = -0.54561 3.47587 2.42734
# Velocity P-wave (km/s) = 5.59310 7.48115 6.60494
#
# Compressibility (1/GPa) = 0.01786829
#
# Stress axis : x y z
#
# Youngs Moduli (GPa) = 81.37056 34.70676 129.75435
#
# Poissons Ratio (x) = 0.37662 0.17915
# Poissons Ratio (y) = 0.88299 0.42019
# Poissons Ratio (z) = 0.11235 0.11239
#
# Static dielectric constant tensor:
#      x y z
#    x 3.266630 0.000000 0.000000 
#    y 0.000000 2.843460 0.000000 
#    z 0.000000 0.000000 3.565190 
# 
# 
# High freq. dielectric constant tensor:
#      x y z
#    x 1.680180 0.000000 0.000000 
#    y 0.000000 1.637350 0.000000 
#    z 0.000000 0.000000 1.709150 
# 
# From -- ./inp_files/3890.got.cif
#   From: 2010.03.12/outbox.cif.g09.slc.cpg/sg67_2_cif.got.tgz:3890.got - 2010.04.10 22:41:39.
