data_PCOD8279222
_publ_section_title
;
Structure prediction by ZEFSAII (Michael W. Deem and Ramdas Pophale) SiO2 
 PCOD8279222
Probable space group: C M M A
;
_chemical_formula_sum "Si O2"
_cell_formula_units_Z 96
_cell_length_a 24.885436
_cell_length_b 10.316244
_cell_length_c 22.883288
_cell_angle_alpha 90.000000
_cell_angle_beta 90.000000
_cell_angle_gamma 90.000000
_cell_volume 5874.694488
_symmetry_space_group_name_H-M "C M M A"
_symmetry_group_IT_number 67
_symmetry_cell_setting 'orthorhombic'
loop_
_space_group_symop_operation_xyz
x,y,z
-x,1/2-y,z
x,-y,-z
-x,1/2+y,-z
-x,-y,-z
x,1/2+y,-z
-x,y,z
x,1/2-y,z
1/2+x,1/2+y,z
1/2-x,-y,z
1/2+x,1/2-y,-z
1/2-x,y,-z
1/2-x,1/2-y,-z
1/2+x,y,-z
1/2-x,1/2+y,z
1/2+x,-y,z
loop_
_atom_site_type_symbol
_atom_site_label
_atom_site_fract_x
_atom_site_fract_y
_atom_site_fract_z
Si Si1 0.182937 0.250000 0.183199
Si Si2 0.436067 0.393571 0.455734
Si Si3 0.626257 0.750000 0.937458
Si Si4 0.872825 0.505930 0.218978
Si Si5 0.809543 0.250000 0.823725
Si Si6 0.118637 0.250000 0.067270
Si Si7 0.938570 0.098714 0.676173
Si Si8 0.936946 0.505564 0.104071
O O1 0.161179 0.374724 0.217150
O O2 0.246467 0.250000 0.184079
O O3 0.165106 0.250000 0.115650
O O4 0.411409 0.500000 0.500000
O O5 0.500000 0.393235 0.459014
O O6 0.414734 0.250000 0.473010
O O7 0.418487 0.427539 0.389800
O O8 0.676309 0.750000 0.892793
O O9 0.590073 0.624241 0.928923
O O10 0.647729 0.750000 0.004041
O O11 0.832828 0.624168 0.207732
O O12 0.900066 0.516164 0.282194
O O13 0.920489 0.504577 0.171845
O O14 0.080622 0.374106 0.072794
O O15 0.934170 0.250000 0.692082
O O16 0.000000 0.052102 0.683949
O O17 0.000000 0.522361 0.099662
#
# Coordination Sequence:
#
# PCOD8279222 Si02
#       8
#     8  16   8  16   8   8  16  16
#     4  10  22  36  51  68  95 122 148 200 261 296
#     4   8  14  25  41  64  97 135 168 193 221 259
#     4  10  21  33  50  73  89 113 163 197 225 286
#     4  10  19  34  50  72  96 121 160 199 238 291
#     4  10  20  36  55  70  87 118 156 204 251 288
#     4  10  21  35  48  67  95 123 151 189 237 294
#     4   9  16  28  49  73 100 135 167 196 228 269
#     4  10  20  32  48  69  96 127 152 186 233 279
#
# _framework density 16.341276000000001
#
# number of rings (size 3 to 8) (size 9 to 14) (size 15 to 20)
#    0.000    2.500    0.833    3.000    0.000    2.333 
#    1.500    1.250    0.000    6.000    0.000    0.000 
#    0.000    4.000    0.000    0.000    0.000    0.000 
#
# Total GULP energy -595196.258821 kJ/mol
# GULP energy per Si atom -12399.922059 kJ/mol
# Density = 1.630408 g / cm^3
# Si number density = 16.341276 Si / 1000 Ang^3
#
#
#
# Elastic Constant Matrix: (Units=GPa)
#
#
# Indices 1 2 3 4 5 6 
#
# 1 76.8636 42.6129 44.5184 0.0000 0.0000 0.0000
# 2 42.6129 134.9574 63.0382 0.0000 0.0000 0.0000
# 3 44.5184 63.0382 124.8067 0.0000 0.0000 0.0000
# 4 0.0000 0.0000 0.0000 20.5228 0.0000 0.0000
# 5 0.0000 0.0000 0.0000 0.0000 14.8422 0.0000
# 6 0.0000 0.0000 0.0000 0.0000 0.0000 326.0649
#
#
#
# Elastic Compliance Matrix: (Units=1/GPa)
#
#
# Indices 1 2 3 4 5 6 
#
# 1 0.017527 -0.003421 -0.004524 0.000000 0.000000 0.000000
# 2 -0.003421 0.010365 -0.004015 0.000000 0.000000 0.000000
# 3 -0.004524 -0.004015 0.011654 0.000000 0.000000 0.000000
# 4 0.000000 0.000000 0.000000 0.048726 0.000000 0.000000
# 5 0.000000 0.000000 0.000000 0.000000 0.067375 0.000000
# 6 0.000000 0.000000 0.000000 0.000000 0.000000 0.003067
#
#
# Mechanical properties :
#
#
# Convention : Reuss Voigt Hill
#
# Bulk Modulus (GPa) = 63.99521 70.77410 67.38466
# Shear Modulus (GPa) = 26.61787 84.71652 55.66719
#
# Velocity S-wave (km/s) = 4.04031 7.20795 5.84289
# Velocity P-wave (km/s) = 7.81103 10.61493 9.31904
#
# Compressibility (1/GPa) = 0.01562617
#
# Stress axis : x y z
#
# Youngs Moduli (GPa) = 57.05528 96.47478 85.80695
#
# Poissons Ratio (x) = 0.33004 0.38818
# Poissons Ratio (y) = 0.19519 0.34453
# Poissons Ratio (z) = 0.25811 0.38736
#
# Static dielectric constant tensor:
#      x y z
#    x 2.732100 0.000000 0.000000 
#    y 0.000000 3.315620 0.000000 
#    z 0.000000 0.000000 3.125420 
# 
# 
# High freq. dielectric constant tensor:
#      x y z
#    x 1.594650 0.000000 0.000000 
#    y 0.000000 1.641220 0.000000 
#    z 0.000000 0.000000 1.625130 
# 
# From -- ./inp_files/39337.got.cif
#   From: 2010.03.12/outbox.cif.g09.slc.cpg/sg67_20_cif.got.tgz:39337.got - 2010.04.10 22:41:39.
