data_PCOD8279618
_publ_section_title
;
Structure prediction by ZEFSAII (Michael W. Deem and Ramdas Pophale) SiO2 
 PCOD8279618
Probable space group: C M M A
;
_chemical_formula_sum "Si O2"
_cell_formula_units_Z 88
_cell_length_a 25.749633
_cell_length_b 9.786385
_cell_length_c 21.067374
_cell_angle_alpha 90.000000
_cell_angle_beta 90.000000
_cell_angle_gamma 90.000000
_cell_volume 5308.890232
_symmetry_space_group_name_H-M "C M M A"
_symmetry_group_IT_number 67
_symmetry_cell_setting 'orthorhombic'
loop_
_space_group_symop_operation_xyz
x,y,z
-x,1/2-y,z
x,-y,-z
-x,1/2+y,-z
-x,-y,-z
x,1/2+y,-z
-x,y,z
x,1/2-y,z
1/2+x,1/2+y,z
1/2-x,-y,z
1/2+x,1/2-y,-z
1/2-x,y,-z
1/2-x,1/2-y,-z
1/2+x,y,-z
1/2-x,1/2+y,z
1/2+x,-y,z
loop_
_atom_site_type_symbol
_atom_site_label
_atom_site_fract_x
_atom_site_fract_y
_atom_site_fract_z
Si Si1 0.798276 0.902116 0.615675
Si Si2 0.938542 0.099689 0.947193
Si Si3 0.060594 0.409141 0.803888
Si Si4 0.102919 0.410134 0.303885
Si Si5 0.637296 0.000000 0.500000
Si Si6 0.942377 0.600600 0.405685
O O1 0.775839 0.750000 0.619352
O O2 0.837874 0.929361 0.673386
O O3 0.826512 0.916812 0.548037
O O4 0.750000 0.000000 0.623531
O O5 0.914909 0.250000 0.958843
O O6 0.925396 0.050413 0.876128
O O7 0.000000 0.106403 0.955295
O O8 0.913664 0.000000 0.000000
O O9 0.073947 0.250000 0.791122
O O10 0.095659 0.510070 0.761955
O O11 0.000000 0.435715 0.789463
O O12 0.088463 0.250000 0.296979
O O13 0.065525 0.479284 0.355655
O O14 0.599888 0.101972 0.461690
O O15 0.937711 0.750000 0.372032
O O16 0.000000 0.582501 0.434708
#
# Coordination Sequence:
#
# PCOD8279618 Si02
#       6
#    16  16  16  16   8  16
#     4  10  22  37  52  69  88 110 141 184 232 280
#     4   8  14  24  38  59  89 124 160 193 220 249
#     4   9  17  29  45  66  94 128 162 191 220 259
#     4  10  21  34  47  67  92 117 150 191 230 269
#     4  10  20  34  52  72  92 112 144 184 224 268
#     4  10  20  33  49  68  92 123 153 180 217 266
#
# _framework density 16.575969000000001
#
# number of rings (size 3 to 8) (size 9 to 14) (size 15 to 20)
#    0.000    2.545    0.000    3.273    0.000    9.455 
#    0.000    1.818    0.000    0.000    0.000    0.000 
#    0.000    0.727    0.000    8.000    0.000    6.182 
#
# Total GULP energy -545381.163409 kJ/mol
# GULP energy per Si atom -12395.026441 kJ/mol
# Density = 1.653824 g / cm^3
# Si number density = 16.575969 Si / 1000 Ang^3
#
#
#
# Elastic Constant Matrix: (Units=GPa)
#
#
# Indices 1 2 3 4 5 6 
#
# 1 75.2231 58.2144 37.7726 0.0000 0.0000 0.0000
# 2 58.2144 132.7406 72.8030 0.0000 0.0000 0.0000
# 3 37.7726 72.8030 115.8059 0.0000 0.0000 0.0000
# 4 0.0000 0.0000 0.0000 29.7318 0.0000 0.0000
# 5 0.0000 0.0000 0.0000 0.0000 8.7025 0.0000
# 6 0.0000 0.0000 0.0000 0.0000 0.0000 13.4090
#
#
#
# Elastic Compliance Matrix: (Units=1/GPa)
#
#
# Indices 1 2 3 4 5 6 
#
# 1 0.020308 -0.008048 -0.001564 0.000000 0.000000 0.000000
# 2 -0.008048 0.014688 -0.006608 0.000000 0.000000 0.000000
# 3 -0.001564 -0.006608 0.013300 0.000000 0.000000 0.000000
# 4 0.000000 0.000000 0.000000 0.033634 0.000000 0.000000
# 5 0.000000 0.000000 0.000000 0.000000 0.114909 0.000000
# 6 0.000000 0.000000 0.000000 0.000000 0.000000 0.074577
#
#
# Mechanical properties :
#
#
# Convention : Reuss Voigt Hill
#
# Bulk Modulus (GPa) = 63.07795 73.48329 68.28062
# Shear Modulus (GPa) = 16.17385 20.70065 18.43725
#
# Velocity S-wave (km/s) = 3.12707 3.53772 3.33872
# Velocity P-wave (km/s) = 7.15364 7.81759 7.49297
#
# Compressibility (1/GPa) = 0.01585340
#
# Stress axis : x y z
#
# Youngs Moduli (GPa) = 49.24262 68.08489 75.18906
#
# Poissons Ratio (x) = 0.54796 0.11761
# Poissons Ratio (y) = 0.39631 0.49688
# Poissons Ratio (z) = 0.07702 0.44993
#
# Static dielectric constant tensor:
#      x y z
#    x 2.847040 0.000000 0.000000 
#    y 0.000000 3.355860 0.000000 
#    z 0.000000 0.000000 3.149190 
# 
# 
# High freq. dielectric constant tensor:
#      x y z
#    x 1.600600 0.000000 0.000000 
#    y 0.000000 1.650390 0.000000 
#    z 0.000000 0.000000 1.629470 
# 
# From -- ./inp_files/39858.got.cif
#   From: 2010.03.12/outbox.cif.g09.slc.cpg/sg67_20_cif.got.tgz:39858.got - 2010.04.10 22:41:39.
