data_PCOD8279550
_publ_section_title
;
Structure prediction by ZEFSAII (Michael W. Deem and Ramdas Pophale) SiO2 
 PCOD8279550
Probable space group: C M M A
;
_chemical_formula_sum "Si O2"
_cell_formula_units_Z 80
_cell_length_a 9.221371
_cell_length_b 27.295267
_cell_length_c 18.514189
_cell_angle_alpha 90.000000
_cell_angle_beta 90.000000
_cell_angle_gamma 90.000000
_cell_volume 4660.017364
_symmetry_space_group_name_H-M "C M M A"
_symmetry_group_IT_number 67
_symmetry_cell_setting 'orthorhombic'
loop_
_space_group_symop_operation_xyz
x,y,z
-x,1/2-y,z
x,-y,-z
-x,1/2+y,-z
-x,-y,-z
x,1/2+y,-z
-x,y,z
x,1/2-y,z
1/2+x,1/2+y,z
1/2-x,-y,z
1/2+x,1/2-y,-z
1/2-x,y,-z
1/2-x,1/2-y,-z
1/2+x,y,-z
1/2-x,1/2+y,z
1/2+x,-y,z
loop_
_atom_site_type_symbol
_atom_site_label
_atom_site_fract_x
_atom_site_fract_y
_atom_site_fract_z
Si Si1 0.331271 0.353055 0.296483
Si Si2 0.172247 0.803971 0.150395
Si Si3 0.828506 0.898777 0.072132
Si Si4 0.669553 0.193491 0.573398
Si Si5 0.832954 0.951720 0.216658
O O1 0.500000 0.343059 0.314211
O O2 0.276818 0.319186 0.230397
O O3 0.233074 0.341012 0.364733
O O4 0.305691 0.409610 0.275683
O O5 0.234328 0.750000 0.131267
O O6 0.225430 0.843520 0.091393
O O7 0.000000 0.804342 0.150643
O O8 0.780765 0.934068 0.137502
O O9 0.000000 0.900335 0.060341
O O10 0.750000 0.917009 0.000000
O O11 0.500000 0.182880 0.563875
O O12 0.699458 0.250000 0.593532
O O13 0.750000 0.179183 0.500000
O O14 0.000000 0.965399 0.212658
O O15 0.750000 0.000000 0.241619
#
# Coordination Sequence:
#
# PCOD8279550 Si02
#       5
#    16  16  16  16  16
#     4   9  17  31  51  72  94 123 160 199 238 282
#     4   8  14  26  45  66  89 121 157 190 229 280
#     4   9  18  31  45  65  92 120 154 194 236 284
#     4  10  20  32  48  74 106 136 163 190 224 269
#     4   9  19  34  51  71  93 120 157 199 244 293
#
# _framework density 17.167318000000002
#
# number of rings (size 3 to 8) (size 9 to 14) (size 15 to 20)
#    0.000    3.000    0.000    3.600    0.000    4.400 
#    0.000    5.000    0.000    1.800    0.000    4.200 
#    0.000    0.000    0.000    0.000    0.000    0.000 
#
# Total GULP energy -495897.446693 kJ/mol
# GULP energy per Si atom -12397.436167 kJ/mol
# Density = 1.712824 g / cm^3
# Si number density = 17.167318 Si / 1000 Ang^3
#
#
#
# Elastic Constant Matrix: (Units=GPa)
#
#
# Indices 1 2 3 4 5 6 
#
# 1 60.0673 32.3093 45.4093 0.0000 0.0000 0.0000
# 2 32.3093 80.9155 25.5257 0.0000 0.0000 0.0000
# 3 45.4093 25.5257 98.9450 0.0000 0.0000 0.0000
# 4 0.0000 0.0000 0.0000 15.8229 0.0000 0.0000
# 5 0.0000 0.0000 0.0000 0.0000 31.5008 0.0000
# 6 0.0000 0.0000 0.0000 0.0000 0.0000 26.2480
#
#
#
# Elastic Compliance Matrix: (Units=1/GPa)
#
#
# Indices 1 2 3 4 5 6 
#
# 1 0.029832 -0.008265 -0.011559 0.000000 0.000000 0.000000
# 2 -0.008265 0.015744 -0.000268 0.000000 0.000000 0.000000
# 3 -0.011559 -0.000268 0.015480 0.000000 0.000000 0.000000
# 4 0.000000 0.000000 0.000000 0.063200 0.000000 0.000000
# 5 0.000000 0.000000 0.000000 0.000000 0.031745 0.000000
# 6 0.000000 0.000000 0.000000 0.000000 0.000000 0.038098
#
#
# Mechanical properties :
#
#
# Convention : Reuss Voigt Hill
#
# Bulk Modulus (GPa) = 47.91247 49.60182 48.75715
# Shear Modulus (GPa) = 20.72621 23.82656 22.27639
#
# Velocity S-wave (km/s) = 3.47840 3.72950 3.60614
# Velocity P-wave (km/s) = 6.64094 6.89213 6.76770
#
# Compressibility (1/GPa) = 0.02087139
#
# Stress axis : x y z
#
# Youngs Moduli (GPa) = 33.52126 63.51814 64.59766
#
# Poissons Ratio (x) = 0.52501 0.74666
# Poissons Ratio (y) = 0.27707 0.01732
# Poissons Ratio (z) = 0.38746 0.01703
#
# Static dielectric constant tensor:
#      x y z
#    x 2.925170 0.000000 0.000000 
#    y 0.000000 3.288860 0.000000 
#    z 0.000000 0.000000 3.075000 
# 
# 
# High freq. dielectric constant tensor:
#      x y z
#    x 1.642220 0.000000 0.000000 
#    y 0.000000 1.658060 0.000000 
#    z 0.000000 0.000000 1.654320 
# 
# From -- ./inp_files/29868.got.cif
#   From: 2010.03.12/outbox.cif.g09.slc.cpg/sg67_15_cif.got.tgz:29868.got - 2010.04.10 22:41:39.
