data_PCOD8279909
_publ_section_title
;
Structure prediction by ZEFSAII (Michael W. Deem and Ramdas Pophale) SiO2 
 PCOD8279909
Probable space group: C M M A
;
_chemical_formula_sum "Si O2"
_cell_formula_units_Z 104
_cell_length_a 8.610581
_cell_length_b 24.867724
_cell_length_c 25.115286
_cell_angle_alpha 90.000000
_cell_angle_beta 90.000000
_cell_angle_gamma 90.000000
_cell_volume 5377.824473
_symmetry_space_group_name_H-M "C M M A"
_symmetry_group_IT_number 67
_symmetry_cell_setting 'orthorhombic'
loop_
_space_group_symop_operation_xyz
x,y,z
-x,1/2-y,z
x,-y,-z
-x,1/2+y,-z
-x,-y,-z
x,1/2+y,-z
-x,y,z
x,1/2-y,z
1/2+x,1/2+y,z
1/2-x,-y,z
1/2+x,1/2-y,-z
1/2-x,y,-z
1/2-x,1/2-y,-z
1/2+x,y,-z
1/2-x,1/2+y,z
1/2+x,-y,z
loop_
_atom_site_type_symbol
_atom_site_label
_atom_site_fract_x
_atom_site_fract_y
_atom_site_fract_z
Si Si1 0.815716 0.633324 0.059299
Si Si2 0.331455 0.750000 0.358717
Si Si3 0.180328 0.750000 0.057370
Si Si4 0.686217 0.864089 0.351640
Si Si5 0.328864 0.750000 0.232962
Si Si6 0.683646 0.940400 0.148515
Si Si7 0.683521 0.362602 0.236052
Si Si8 0.816449 0.441304 0.445318
O O1 0.773390 0.692870 0.084823
O O2 0.735000 0.587975 0.094161
O O3 0.000000 0.623893 0.059075
O O4 0.750000 0.628278 0.000000
O O5 0.500000 0.750000 0.386608
O O6 0.247626 0.693827 0.373429
O O7 0.349734 0.750000 0.295570
O O8 0.000000 0.750000 0.048128
O O9 0.250000 0.750000 0.000000
O O10 0.500000 0.861263 0.344617
O O11 0.761962 0.877871 0.295378
O O12 0.739831 0.907076 0.394960
O O13 0.500000 0.750000 0.205988
O O14 0.237701 0.803792 0.215910
O O15 0.500000 0.942793 0.151673
O O16 0.747606 0.908177 0.198735
O O17 0.750000 0.000000 0.149858
O O18 0.500000 0.364128 0.232995
O O19 0.750000 0.500000 0.436280
O O20 0.750000 0.416031 0.500000
O O21 0.000000 0.443513 0.449545
#
# Coordination Sequence:
#
# PCOD8279909 Si02
#       8
#    16   8   8  16   8  16  16  16
#     4  10  20  38  62  90 119 151 189 231 281 337
#     4   7  12  27  51  75 102 135 175 218 263 316
#     4   8  16  31  56  87 120 148 177 221 271 324
#     4   9  18  34  56  80 107 145 185 224 274 334
#     4   9  17  34  58  84 115 151 188 229 276 332
#     4  12  26  44  61  81 112 151 193 240 288 338
#     4  11  22  37  59  88 118 149 186 233 283 338
#     4  10  20  34  53  76 105 140 183 231 278 326
#
# _framework density 19.338674999999999
#
# number of rings (size 3 to 8) (size 9 to 14) (size 15 to 20)
#    0.000    2.154    0.000    5.308    0.000    3.385 
#    0.000    5.769    0.000    0.000    0.000    0.000 
#    0.000    0.000    0.000    0.000    0.000    0.000 
#
# Total GULP energy -644379.402650 kJ/mol
# GULP energy per Si atom -12391.911589 kJ/mol
# Density = 1.929466 g / cm^3
# Si number density = 19.338675 Si / 1000 Ang^3
#
#
#
# Elastic Constant Matrix: (Units=GPa)
#
#
# Indices 1 2 3 4 5 6 
#
# 1 122.2551 65.0538 53.0601 0.0000 0.0000 0.0000
# 2 65.0538 169.2279 85.9437 0.0000 0.0000 0.0000
# 3 53.0601 85.9437 114.2226 0.0000 0.0000 0.0000
# 4 0.0000 0.0000 0.0000 -49.4560 0.0000 0.0000
# 5 0.0000 0.0000 0.0000 0.0000 27.0456 0.0000
# 6 0.0000 0.0000 0.0000 0.0000 0.0000 26.7075
#
#
#
# Elastic Compliance Matrix: (Units=1/GPa)
#
#
# Indices 1 2 3 4 5 6 
#
# 1 0.010921 -0.002625 -0.003098 0.000000 0.000000 0.000000
# 2 -0.002625 0.010195 -0.006451 0.000000 0.000000 0.000000
# 3 -0.003098 -0.006451 0.015048 0.000000 0.000000 0.000000
# 4 0.000000 0.000000 0.000000 -0.020220 0.000000 0.000000
# 5 0.000000 0.000000 0.000000 0.000000 0.036975 0.000000
# 6 0.000000 0.000000 0.000000 0.000000 0.000000 0.037443
#
#
# Mechanical properties :
#
#
# Convention : Reuss Voigt Hill
#
# Bulk Modulus (GPa) = 84.63747 90.42453 87.53100
# Shear Modulus (GPa) = 42.14150 14.30261 28.22205
#
# Velocity S-wave (km/s) = 4.67318 2.72248 3.82430
# Velocity P-wave (km/s) = 8.54278 7.53276 8.05362
#
# Compressibility (1/GPa) = 0.01181510
#
# Stress axis : x y z
#
# Youngs Moduli (GPa) = 91.56725 98.09187 66.45319
#
# Poissons Ratio (x) = 0.25746 0.20589
# Poissons Ratio (y) = 0.24034 0.42871
# Poissons Ratio (z) = 0.28370 0.63282
#
# Static dielectric constant tensor:
#      x y z
#    x 4.300220 0.000000 0.000000 
#    y 0.000000 4.091700 0.000000 
#    z 0.000000 0.000000 3.417840 
# 
# 
# High freq. dielectric constant tensor:
#      x y z
#    x 1.755090 0.000000 0.000000 
#    y 0.000000 1.766790 0.000000 
#    z 0.000000 0.000000 1.737850 
# 
# From -- ./inp_files/43779.got.cif
#   From: 2010.03.12/outbox.cif.g09.slc.cpg/sg67_22_cif.got.tgz:43779.got - 2010.04.10 22:41:39.
