data_PCOD8279263
_publ_section_title
;
Structure prediction by ZEFSAII (Michael W. Deem and Ramdas Pophale) SiO2 
 PCOD8279263
Probable space group: C M M A
;
_chemical_formula_sum "Si O2"
_cell_formula_units_Z 104
_cell_length_a 9.503079
_cell_length_b 30.114169
_cell_length_c 19.254278
_cell_angle_alpha 90.000000
_cell_angle_beta 90.000000
_cell_angle_gamma 90.000000
_cell_volume 5510.137812
_symmetry_space_group_name_H-M "C M M A"
_symmetry_group_IT_number 67
_symmetry_cell_setting 'orthorhombic'
loop_
_space_group_symop_operation_xyz
x,y,z
-x,1/2-y,z
x,-y,-z
-x,1/2+y,-z
-x,-y,-z
x,1/2+y,-z
-x,y,z
x,1/2-y,z
1/2+x,1/2+y,z
1/2-x,-y,z
1/2+x,1/2-y,-z
1/2-x,y,-z
1/2-x,1/2-y,-z
1/2+x,y,-z
1/2-x,1/2+y,z
1/2+x,-y,z
loop_
_atom_site_type_symbol
_atom_site_label
_atom_site_fract_x
_atom_site_fract_y
_atom_site_fract_z
Si Si1 0.153365 0.127585 0.439645
Si Si2 0.330667 0.454925 0.770339
Si Si3 0.164013 0.199569 0.931324
Si Si4 0.662794 0.631697 0.811706
Si Si5 0.662164 0.250000 0.428362
Si Si6 0.841253 0.665315 0.336653
Si Si7 0.651372 0.536400 0.387372
O O1 0.250000 0.148598 0.500000
O O2 0.228027 0.130896 0.365493
O O3 0.138318 0.074821 0.445089
O O4 0.000000 0.150892 0.443138
O O5 0.500000 0.457133 0.785780
O O6 0.250000 0.500000 0.796169
O O7 0.262030 0.411877 0.808536
O O8 0.296459 0.448214 0.688937
O O9 0.197219 0.250000 0.905502
O O10 0.210545 0.163074 0.874848
O O11 0.000000 0.194857 0.948482
O O12 0.250000 0.188234 0.000000
O O13 0.500000 0.616135 0.818507
O O14 0.678218 0.665119 0.745858
O O15 0.500000 0.250000 0.450638
O O16 0.750000 0.250000 0.500000
O O17 0.700030 0.289924 0.376688
O O18 0.000000 0.651048 0.356585
O O19 0.500000 0.513894 0.376428
O O20 0.750000 0.500000 0.421357
#
# Coordination Sequence:
#
# PCOD8279263 Si02
#       7
#    16  16  16  16   8  16  16
#     4  11  22  36  51  71  99 133 175 223 276 329
#     4  10  19  34  55  81 112 147 186 231 284 338
#     4   9  19  36  59  88 123 160 193 227 271 329
#     4  10  20  34  57  87 116 148 189 235 281 331
#     4  10  22  38  54  74 101 138 182 228 281 336
#     4  10  21  36  55  78 103 136 179 227 276 329
#     4   9  19  33  49  69  97 131 169 216 267 322
#
# _framework density 18.874302
#
# number of rings (size 3 to 8) (size 9 to 14) (size 15 to 20)
#    0.000    2.154    1.538    1.385    1.077    4.615 
#    0.000    1.538    0.000    0.462    0.000    3.231 
#    0.000    0.000    0.000    0.000    0.000    0.000 
#
# Total GULP energy -644193.675500 kJ/mol
# GULP energy per Si atom -12388.339913 kJ/mol
# Density = 1.883134 g / cm^3
# Si number density = 18.874302 Si / 1000 Ang^3
#
#
#
# Elastic Constant Matrix: (Units=GPa)
#
#
# Indices 1 2 3 4 5 6 
#
# 1 109.5401 50.2602 50.4346 0.0000 0.0000 0.0000
# 2 50.2602 95.9689 44.4010 0.0000 0.0000 0.0000
# 3 50.4346 44.4010 87.1399 0.0000 0.0000 0.0000
# 4 0.0000 0.0000 0.0000 27.8180 0.0000 0.0000
# 5 0.0000 0.0000 0.0000 0.0000 17.0048 0.0000
# 6 0.0000 0.0000 0.0000 0.0000 0.0000 13.5777
#
#
#
# Elastic Compliance Matrix: (Units=1/GPa)
#
#
# Indices 1 2 3 4 5 6 
#
# 1 0.013865 -0.004643 -0.005659 0.000000 0.000000 0.000000
# 2 -0.004643 0.015189 -0.005052 0.000000 0.000000 0.000000
# 3 -0.005659 -0.005052 0.017325 0.000000 0.000000 0.000000
# 4 0.000000 0.000000 0.000000 0.035948 0.000000 0.000000
# 5 0.000000 0.000000 0.000000 0.000000 0.058807 0.000000
# 6 0.000000 0.000000 0.000000 0.000000 0.000000 0.073650
#
#
# Mechanical properties :
#
#
# Convention : Reuss Voigt Hill
#
# Bulk Modulus (GPa) = 63.81153 64.76006 64.28580
# Shear Modulus (GPa) = 19.94288 21.51698 20.72993
#
# Velocity S-wave (km/s) = 3.25409 3.38007 3.31768
# Velocity P-wave (km/s) = 6.92827 7.04407 6.98641
#
# Compressibility (1/GPa) = 0.01567115
#
# Stress axis : x y z
#
# Youngs Moduli (GPa) = 72.12429 65.83660 57.71928
#
# Poissons Ratio (x) = 0.30569 0.32663
# Poissons Ratio (y) = 0.33488 0.29160
# Poissons Ratio (z) = 0.40814 0.33261
#
# Static dielectric constant tensor:
#      x y z
#    x 3.652570 0.000000 0.000000 
#    y 0.000000 3.588150 0.000000 
#    z 0.000000 0.000000 3.210200 
# 
# 
# High freq. dielectric constant tensor:
#      x y z
#    x 1.742020 0.000000 0.000000 
#    y 0.000000 1.734010 0.000000 
#    z 0.000000 0.000000 1.703370 
# 
# From -- ./inp_files/37477.got.cif
#   From: 2010.03.12/outbox.cif.g09.slc.cpg/sg67_19_cif.got.tgz:37477.got - 2010.04.10 22:41:39.
