data_PCOD8279800
_publ_section_title
;
Structure prediction by ZEFSAII (Michael W. Deem and Ramdas Pophale) SiO2 
 PCOD8279800
Probable space group: C M M A
;
_chemical_formula_sum "Si O2"
_cell_formula_units_Z 104
_cell_length_a 8.905299
_cell_length_b 20.335453
_cell_length_c 29.877853
_cell_angle_alpha 90.000000
_cell_angle_beta 90.000000
_cell_angle_gamma 90.000000
_cell_volume 5410.678676
_symmetry_space_group_name_H-M "C M M A"
_symmetry_group_IT_number 67
_symmetry_cell_setting 'orthorhombic'
loop_
_space_group_symop_operation_xyz
x,y,z
-x,1/2-y,z
x,-y,-z
-x,1/2+y,-z
-x,-y,-z
x,1/2+y,-z
-x,y,z
x,1/2-y,z
1/2+x,1/2+y,z
1/2-x,-y,z
1/2+x,1/2-y,-z
1/2-x,y,-z
1/2-x,1/2-y,-z
1/2+x,y,-z
1/2-x,1/2+y,z
1/2+x,-y,z
loop_
_atom_site_type_symbol
_atom_site_label
_atom_site_fract_x
_atom_site_fract_y
_atom_site_fract_z
Si Si1 0.323219 0.107580 0.951105
Si Si2 0.179859 0.068506 0.547758
Si Si3 0.322922 0.826123 0.193362
Si Si4 0.665053 0.672140 0.292743
Si Si5 0.177552 0.935692 0.134836
Si Si6 0.676669 0.676013 0.619094
Si Si7 0.330673 0.250000 0.954203
O O1 0.500000 0.090564 0.953816
O O2 0.238381 0.061592 0.916167
O O3 0.295458 0.181190 0.929632
O O4 0.250000 0.099025 0.000000
O O5 0.250000 0.086462 0.500000
O O6 0.232714 0.126572 0.580781
O O7 0.000000 0.062315 0.544399
O O8 0.250000 0.000000 0.565272
O O9 0.500000 0.836815 0.185696
O O10 0.281099 0.750000 0.184698
O O11 0.276141 0.848798 0.243674
O O12 0.228420 0.870021 0.159709
O O13 0.500000 0.641987 0.301278
O O14 0.654303 0.750000 0.292718
O O15 0.772013 0.647854 0.332708
O O16 0.000000 0.940871 0.135289
O O17 0.250000 0.000000 0.158696
O O18 0.500000 0.678518 0.619674
O O19 0.740731 0.750000 0.610129
O O20 0.500000 0.250000 0.969426
O O21 0.250000 0.250000 0.000000
#
# Coordination Sequence:
#
# PCOD8279800 Si02
#       7
#    16  16  16  16  16  16   8
#     4  10  20  37  59  85 114 148 184 224 273 323
#     4  10  20  34  51  71 100 140 183 225 271 321
#     4   9  19  38  63  88 115 147 183 225 274 329
#     4   8  15  30  54  83 111 140 175 216 266 323
#     4  12  26  42  59  83 114 150 189 230 276 328
#     4   9  18  32  51  77 108 139 174 221 272 319
#     4   8  16  30  52  80 110 140 170 210 260 306
#
# _framework density 19.221247999999999
#
# number of rings (size 3 to 8) (size 9 to 14) (size 15 to 20)
#    0.000    2.462    0.000    3.692    1.077    3.385 
#    0.000    3.846    0.000    1.846    0.000    0.000 
#    0.000    0.000    0.000    0.000    0.000    0.000 
#
# Total GULP energy -644368.753074 kJ/mol
# GULP energy per Si atom -12391.706790 kJ/mol
# Density = 1.917750 g / cm^3
# Si number density = 19.221248 Si / 1000 Ang^3
#
#
#
# Elastic Constant Matrix: (Units=GPa)
#
#
# Indices 1 2 3 4 5 6 
#
# 1 90.5711 49.4739 52.1984 0.0000 0.0000 0.0000
# 2 49.4739 96.0763 60.1924 0.0000 0.0000 0.0000
# 3 52.1984 60.1924 115.9610 0.0000 0.0000 0.0000
# 4 0.0000 0.0000 0.0000 14.1564 0.0000 0.0000
# 5 0.0000 0.0000 0.0000 0.0000 34.9802 0.0000
# 6 0.0000 0.0000 0.0000 0.0000 0.0000 24.6779
#
#
#
# Elastic Compliance Matrix: (Units=1/GPa)
#
#
# Indices 1 2 3 4 5 6 
#
# 1 0.016849 -0.005816 -0.004565 0.000000 0.000000 0.000000
# 2 -0.005816 0.017432 -0.006431 0.000000 0.000000 0.000000
# 3 -0.004565 -0.006431 0.014017 0.000000 0.000000 0.000000
# 4 0.000000 0.000000 0.000000 0.070639 0.000000 0.000000
# 5 0.000000 0.000000 0.000000 0.000000 0.028588 0.000000
# 6 0.000000 0.000000 0.000000 0.000000 0.000000 0.040522
#
#
# Mechanical properties :
#
#
# Convention : Reuss Voigt Hill
#
# Bulk Modulus (GPa) = 68.14891 69.59309 68.87100
# Shear Modulus (GPa) = 22.06898 24.14583 23.10740
#
# Velocity S-wave (km/s) = 3.39212 3.54814 3.47101
# Velocity P-wave (km/s) = 7.13260 7.28496 7.20918
#
# Compressibility (1/GPa) = 0.01467375
#
# Stress axis : x y z
#
# Youngs Moduli (GPa) = 59.34972 57.36534 71.34400
#
# Poissons Ratio (x) = 0.33364 0.32572
# Poissons Ratio (y) = 0.34519 0.45878
# Poissons Ratio (z) = 0.27096 0.36889
#
# Static dielectric constant tensor:
#      x y z
#    x 3.510680 0.000000 0.000000 
#    y 0.000000 3.790570 0.000000 
#    z 0.000000 0.000000 3.602460 
# 
# 
# High freq. dielectric constant tensor:
#      x y z
#    x 1.745330 0.000000 0.000000 
#    y 0.000000 1.740430 0.000000 
#    z 0.000000 0.000000 1.743490 
# 
# From -- ./inp_files/45354.got.cif
#   From: 2010.03.12/outbox.cif.g09.slc.cpg/sg67_23_cif.got.tgz:45354.got - 2010.04.10 22:41:39.
