data_PCOD8279765
_publ_section_title
;
Structure prediction by ZEFSAII (Michael W. Deem and Ramdas Pophale) SiO2 
 PCOD8279765
Probable space group: C M M A
;
_chemical_formula_sum "Si O2"
_cell_formula_units_Z 96
_cell_length_a 28.527633
_cell_length_b 8.707133
_cell_length_c 20.599389
_cell_angle_alpha 90.000000
_cell_angle_beta 90.000000
_cell_angle_gamma 90.000000
_cell_volume 5116.762462
_symmetry_space_group_name_H-M "C M M A"
_symmetry_group_IT_number 67
_symmetry_cell_setting 'orthorhombic'
loop_
_space_group_symop_operation_xyz
x,y,z
-x,1/2-y,z
x,-y,-z
-x,1/2+y,-z
-x,-y,-z
x,1/2+y,-z
-x,y,z
x,1/2-y,z
1/2+x,1/2+y,z
1/2-x,-y,z
1/2+x,1/2-y,-z
1/2-x,y,-z
1/2-x,1/2-y,-z
1/2+x,y,-z
1/2-x,1/2+y,z
1/2+x,-y,z
loop_
_atom_site_type_symbol
_atom_site_label
_atom_site_fract_x
_atom_site_fract_y
_atom_site_fract_z
Si Si1 0.947285 0.427976 0.231617
Si Si2 0.300741 0.431135 0.689905
Si Si3 0.852920 0.929395 0.431745
Si Si4 0.856907 0.428636 0.806861
Si Si5 0.699772 0.569474 0.933055
Si Si6 0.052012 0.074374 0.632020
O O1 0.936478 0.250000 0.220138
O O2 0.911872 0.529944 0.189072
O O3 0.940277 0.463049 0.307454
O O4 0.000000 0.470520 0.209769
O O5 0.296679 0.250000 0.684444
O O6 0.250000 0.500000 0.703943
O O7 0.321365 0.495611 0.623408
O O8 0.334170 0.473674 0.749453
O O9 0.842280 0.750000 0.432350
O O10 0.908201 0.964330 0.420668
O O11 0.837672 0.000000 0.500000
O O12 0.849367 0.250000 0.791632
O O13 0.835241 0.475734 0.875651
O O14 0.705199 0.750000 0.941337
O O15 0.750000 0.500000 0.915650
O O16 0.679807 0.500000 0.000000
O O17 0.057584 0.250000 0.656424
O O18 0.000000 0.048340 0.601589
#
# Coordination Sequence:
#
# PCOD8279765 Si02
#       6
#    16  16  16  16  16  16
#     4  10  20  33  54  85 116 148 188 233 281 333
#     4  12  25  41  61  84 111 144 187 237 286 338
#     4  11  23  39  58  81 112 148 190 234 285 344
#     4  11  22  37  59  88 118 152 190 231 281 335
#     4  10  21  36  57  85 119 155 192 230 277 332
#     4   9  18  34  56  80 110 147 184 227 280 337
#
# _framework density 18.761863999999999
#
# number of rings (size 3 to 8) (size 9 to 14) (size 15 to 20)
#    0.000    1.500    1.667    4.500    0.000    6.333 
#    0.000    1.667    0.000    0.500    0.000    0.000 
#    0.000    0.000    0.000    0.000    0.000    0.000 
#
# Total GULP energy -595342.079185 kJ/mol
# GULP energy per Si atom -12402.959983 kJ/mol
# Density = 1.871916 g / cm^3
# Si number density = 18.761864 Si / 1000 Ang^3
#
#
#
# Elastic Constant Matrix: (Units=GPa)
#
#
# Indices 1 2 3 4 5 6 
#
# 1 102.8142 40.4115 52.4854 0.0000 0.0000 0.0000
# 2 40.4115 100.0816 47.8184 0.0000 0.0000 0.0000
# 3 52.4854 47.8184 115.4626 0.0000 0.0000 0.0000
# 4 0.0000 0.0000 0.0000 27.9215 0.0000 0.0000
# 5 0.0000 0.0000 0.0000 0.0000 29.2685 0.0000
# 6 0.0000 0.0000 0.0000 0.0000 0.0000 30.9506
#
#
#
# Elastic Compliance Matrix: (Units=1/GPa)
#
#
# Indices 1 2 3 4 5 6 
#
# 1 0.013403 -0.003118 -0.004801 0.000000 0.000000 0.000000
# 2 -0.003118 0.013182 -0.004042 0.000000 0.000000 0.000000
# 3 -0.004801 -0.004042 0.012517 0.000000 0.000000 0.000000
# 4 0.000000 0.000000 0.000000 0.035815 0.000000 0.000000
# 5 0.000000 0.000000 0.000000 0.000000 0.034166 0.000000
# 6 0.000000 0.000000 0.000000 0.000000 0.000000 0.032310
#
#
# Mechanical properties :
#
#
# Convention : Reuss Voigt Hill
#
# Bulk Modulus (GPa) = 65.87653 66.64323 66.25988
# Shear Modulus (GPa) = 29.34705 29.47097 29.40901
#
# Velocity S-wave (km/s) = 3.95927 3.96762 3.96345
# Velocity P-wave (km/s) = 7.48928 7.52244 7.50587
#
# Compressibility (1/GPa) = 0.01517991
#
# Stress axis : x y z
#
# Youngs Moduli (GPa) = 74.61176 75.86072 79.88966
#
# Poissons Ratio (x) = 0.23652 0.38356
# Poissons Ratio (y) = 0.23263 0.32292
# Poissons Ratio (z) = 0.35822 0.30663
#
# Static dielectric constant tensor:
#      x y z
#    x 3.769230 0.000000 0.000000 
#    y 0.000000 3.550680 0.000000 
#    z 0.000000 0.000000 3.312000 
# 
# 
# High freq. dielectric constant tensor:
#      x y z
#    x 1.737490 0.000000 0.000000 
#    y 0.000000 1.742920 0.000000 
#    z 0.000000 0.000000 1.707320 
# 
# From -- ./inp_files/39857.got.cif
#   From: 2010.03.12/outbox.cif.g09.slc.cpg/sg67_20_cif.got.tgz:39857.got - 2010.04.10 22:41:39.
