data_PCOD8279644
_publ_section_title
;
Structure prediction by ZEFSAII (Michael W. Deem and Ramdas Pophale) SiO2 
 PCOD8279644
Probable space group: C M M A
;
_chemical_formula_sum "Si O2"
_cell_formula_units_Z 96
_cell_length_a 18.886717
_cell_length_b 8.907789
_cell_length_c 30.865773
_cell_angle_alpha 90.000000
_cell_angle_beta 90.000000
_cell_angle_gamma 90.000000
_cell_volume 5192.823387
_symmetry_space_group_name_H-M "C M M A"
_symmetry_group_IT_number 67
_symmetry_cell_setting 'orthorhombic'
loop_
_space_group_symop_operation_xyz
x,y,z
-x,1/2-y,z
x,-y,-z
-x,1/2+y,-z
-x,-y,-z
x,1/2+y,-z
-x,y,z
x,1/2-y,z
1/2+x,1/2+y,z
1/2-x,-y,z
1/2+x,1/2-y,-z
1/2-x,y,-z
1/2-x,1/2-y,-z
1/2+x,y,-z
1/2-x,1/2+y,z
1/2+x,-y,z
loop_
_atom_site_type_symbol
_atom_site_label
_atom_site_fract_x
_atom_site_fract_y
_atom_site_fract_z
Si Si1 0.080734 0.073406 0.370589
Si Si2 0.915676 0.418844 0.542503
Si Si3 0.175332 0.072294 0.955247
Si Si4 0.916475 0.579551 0.885454
Si Si5 0.421494 0.572191 0.211572
Si Si6 0.326350 0.571878 0.289374
O O1 0.084513 0.250000 0.377168
O O2 0.128257 0.019277 0.330631
O O3 0.000000 0.022202 0.361564
O O4 0.111807 0.999145 0.414075
O O5 0.884335 0.500000 0.500000
O O6 0.887054 0.250000 0.542557
O O7 0.000000 0.425143 0.541276
O O8 0.183315 0.250000 0.960893
O O9 0.250000 0.000000 0.942141
O O10 0.119575 0.036447 0.917888
O O11 0.147737 0.000000 0.000000
O O12 0.890658 0.750000 0.894541
O O13 0.895686 0.529477 0.836713
O O14 0.000000 0.569107 0.891808
O O15 0.500000 0.504893 0.220547
O O16 0.426874 0.750000 0.215743
O O17 0.365909 0.509107 0.246530
O O18 0.318857 0.750000 0.287807
O O19 0.250000 0.500000 0.292232
#
# Coordination Sequence:
#
# PCOD8279644 Si02
#       6
#    16  16  16  16  16  16
#     4   9  17  30  49  71  95 127 167 206 243 287
#     4   9  16  26  43  69  99 127 157 197 244 292
#     4  11  22  37  56  77 105 139 177 217 258 306
#     4   9  18  34  56  81 108 137 171 212 258 307
#     4   8  15  31  55  78 100 131 171 210 247 293
#     4  10  20  33  50  73 101 132 167 206 248 294
#
# _framework density 18.487051999999998
#
# number of rings (size 3 to 8) (size 9 to 14) (size 15 to 20)
#    0.000    2.667    0.000    4.000    0.000    6.000 
#    0.000    2.500    0.000    3.000    0.000    3.500 
#    0.000    0.000    0.000    0.000    0.000    0.000 
#
# Total GULP energy -595151.444172 kJ/mol
# GULP energy per Si atom -12398.988420 kJ/mol
# Density = 1.844497 g / cm^3
# Si number density = 18.487052 Si / 1000 Ang^3
#
#
#
# Elastic Constant Matrix: (Units=GPa)
#
#
# Indices 1 2 3 4 5 6 
#
# 1 80.2412 34.7293 75.4101 0.0000 0.0000 0.0000
# 2 34.7293 74.4527 56.7150 0.0000 0.0000 0.0000
# 3 75.4101 56.7150 171.0983 0.0000 0.0000 0.0000
# 4 0.0000 0.0000 0.0000 26.6852 0.0000 0.0000
# 5 0.0000 0.0000 0.0000 0.0000 7.2881 0.0000
# 6 0.0000 0.0000 0.0000 0.0000 0.0000 24.0543
#
#
#
# Elastic Compliance Matrix: (Units=1/GPa)
#
#
# Indices 1 2 3 4 5 6 
#
# 1 0.022074 -0.003860 -0.008449 0.000000 0.000000 0.000000
# 2 -0.003860 0.018644 -0.004479 0.000000 0.000000 0.000000
# 3 -0.008449 -0.004479 0.011053 0.000000 0.000000 0.000000
# 4 0.000000 0.000000 0.000000 0.037474 0.000000 0.000000
# 5 0.000000 0.000000 0.000000 0.000000 0.137209 0.000000
# 6 0.000000 0.000000 0.000000 0.000000 0.000000 0.041573
#
#
# Mechanical properties :
#
#
# Convention : Reuss Voigt Hill
#
# Bulk Modulus (GPa) = 54.96225 73.27790 64.12007
# Shear Modulus (GPa) = 16.25136 22.20139 19.22637
#
# Velocity S-wave (km/s) = 2.96812 3.46918 3.22839
# Velocity P-wave (km/s) = 6.44523 7.46796 6.97537
#
# Compressibility (1/GPa) = 0.01819431
#
# Stress axis : x y z
#
# Youngs Moduli (GPa) = 45.30277 53.63775 90.47293
#
# Poissons Ratio (x) = 0.20706 0.76442
# Poissons Ratio (y) = 0.17488 0.40518
# Poissons Ratio (z) = 0.38277 0.24022
#
# Static dielectric constant tensor:
#      x y z
#    x 3.194680 0.000000 0.000000 
#    y 0.000000 3.215540 0.000000 
#    z 0.000000 0.000000 3.680320 
# 
# 
# High freq. dielectric constant tensor:
#      x y z
#    x 1.691060 0.000000 0.000000 
#    y 0.000000 1.697680 0.000000 
#    z 0.000000 0.000000 1.734160 
# 
# From -- ./inp_files/44615.got.cif
#   From: 2010.03.12/outbox.cif.g09.slc.cpg/sg67_23_cif.got.tgz:44615.got - 2010.04.10 22:41:39.
