data_PCOD8279332
_publ_section_title
;
Structure prediction by ZEFSAII (Michael W. Deem and Ramdas Pophale) SiO2 
 PCOD8279332
Probable space group: C M M A
;
_chemical_formula_sum "Si O2"
_cell_formula_units_Z 116
_cell_length_a 31.049735
_cell_length_b 9.183223
_cell_length_c 22.904055
_cell_angle_alpha 90.000000
_cell_angle_beta 90.000000
_cell_angle_gamma 90.000000
_cell_volume 6530.785299
_symmetry_space_group_name_H-M "C M M A"
_symmetry_group_IT_number 67
_symmetry_cell_setting 'orthorhombic'
loop_
_space_group_symop_operation_xyz
x,y,z
-x,1/2-y,z
x,-y,-z
-x,1/2+y,-z
-x,-y,-z
x,1/2+y,-z
-x,y,z
x,1/2-y,z
1/2+x,1/2+y,z
1/2-x,-y,z
1/2+x,1/2-y,-z
1/2-x,y,-z
1/2-x,1/2-y,-z
1/2+x,y,-z
1/2-x,1/2+y,z
1/2+x,-y,z
loop_
_atom_site_type_symbol
_atom_site_label
_atom_site_fract_x
_atom_site_fract_y
_atom_site_fract_z
Si Si1 0.687102 0.909902 0.597377
Si Si2 0.292635 0.921035 0.730321
Si Si3 0.050805 0.085597 0.055644
Si Si4 0.609650 0.909093 0.379632
Si Si5 0.050206 0.577159 0.174121
Si Si6 0.949382 0.089023 0.554970
Si Si7 0.250000 0.500000 0.500000
Si Si8 0.123411 0.084963 0.243873
O O1 0.666250 0.750000 0.601823
O O2 0.707174 0.948299 0.660513
O O3 0.721171 0.905220 0.544329
O O4 0.649716 0.025473 0.583974
O O5 0.291541 0.750000 0.745271
O O6 0.250000 0.000000 0.754837
O O7 0.332841 0.992824 0.765530
O O8 0.070112 0.250000 0.059744
O O9 0.000000 0.097614 0.048529
O O10 0.062915 0.991432 0.112089
O O11 0.070462 0.000000 0.000000
O O12 0.600431 0.750000 0.405651
O O13 0.618943 0.901142 0.312331
O O14 0.567846 0.010009 0.387339
O O15 0.058358 0.750000 0.172680
O O16 0.081659 0.500740 0.220395
O O17 0.000000 0.543957 0.189677
O O18 0.930377 0.250000 0.551069
O O19 0.000000 0.090283 0.558199
O O20 0.931744 0.000000 0.500000
O O21 0.126336 0.250000 0.217361
#
# Coordination Sequence:
#
# PCOD8279332 Si02
#       8
#    16  16  16  16  16  16   4  16
#     4  10  22  36  52  73  99 127 155 191 237 295
#     4  10  19  35  55  74  97 129 165 206 256 308
#     4   9  16  27  45  70 103 144 186 224 261 304
#     4  10  22  38  55  73  97 127 159 198 245 298
#     4  10  20  33  50  75 108 145 183 223 265 308
#     4  10  21  37  56  74  92 116 150 193 240 290
#     4  12  22  36  52  78 100 124 156 190 236 296
#     4  10  21  36  53  75 101 133 172 213 256 306
#
# _framework density 17.762029999999999
#
# number of rings (size 3 to 8) (size 9 to 14) (size 15 to 20)
#    0.000    2.069    0.690    2.690    0.966    7.172 
#    0.000    2.759    0.000    0.000    0.000    0.000 
#    0.000    0.552    0.000    5.517    0.000    3.586 
#
# Total GULP energy -718853.733596 kJ/mol
# GULP energy per Si atom -12394.029890 kJ/mol
# Density = 1.772160 g / cm^3
# Si number density = 17.762030 Si / 1000 Ang^3
#
#
#
# Elastic Constant Matrix: (Units=GPa)
#
#
# Indices 1 2 3 4 5 6 
#
# 1 74.0509 63.1149 38.5637 0.0000 0.0000 0.0000
# 2 63.1149 167.0582 31.9509 0.0000 0.0000 0.0000
# 3 38.5637 31.9509 40.3283 0.0000 0.0000 0.0000
# 4 0.0000 0.0000 0.0000 20.6583 0.0000 0.0000
# 5 0.0000 0.0000 0.0000 0.0000 11.3312 0.0000
# 6 0.0000 0.0000 0.0000 0.0000 0.0000 28.6807
#
#
#
# Elastic Compliance Matrix: (Units=1/GPa)
#
#
# Indices 1 2 3 4 5 6 
#
# 1 0.033676 -0.007736 -0.026074 0.000000 0.000000 0.000000
# 2 -0.007736 0.008832 0.000400 0.000000 0.000000 0.000000
# 3 -0.026074 0.000400 0.049412 0.000000 0.000000 0.000000
# 4 0.000000 0.000000 0.000000 0.048407 0.000000 0.000000
# 5 0.000000 0.000000 0.000000 0.000000 0.088252 0.000000
# 6 0.000000 0.000000 0.000000 0.000000 0.000000 0.034867
#
#
# Mechanical properties :
#
#
# Convention : Reuss Voigt Hill
#
# Bulk Modulus (GPa) = 39.83833 60.96626 50.40229
# Shear Modulus (GPa) = 14.76527 21.98790 18.37659
#
# Velocity S-wave (km/s) = 2.88633 3.52222 3.22001
# Velocity P-wave (km/s) = 5.79530 7.13721 6.50097
#
# Compressibility (1/GPa) = 0.02510145
#
# Stress axis : x y z
#
# Youngs Moduli (GPa) = 29.69437 113.22270 20.23795
#
# Poissons Ratio (x) = 0.87592 0.52768
# Poissons Ratio (y) = 0.22972 -0.00810
# Poissons Ratio (z) = 0.77424 -0.04532
#
# Static dielectric constant tensor:
#      x y z
#    x 3.150640 0.000000 0.000000 
#    y 0.000000 4.648340 0.000000 
#    z 0.000000 0.000000 3.071060 
# 
# 
# High freq. dielectric constant tensor:
#      x y z
#    x 1.668920 0.000000 0.000000 
#    y 0.000000 1.712660 0.000000 
#    z 0.000000 0.000000 1.650900 
# 
# From -- ./inp_files/42990.got.cif
#   From: 2010.03.12/outbox.cif.g09.slc.cpg/sg67_22_cif.got.tgz:42990.got - 2010.04.10 22:41:39.
