data_PCOD8279450
_publ_section_title
;
Structure prediction by ZEFSAII (Michael W. Deem and Ramdas Pophale) SiO2 
 PCOD8279450
Probable space group: C M M A
;
_chemical_formula_sum "Si O2"
_cell_formula_units_Z 96
_cell_length_a 29.480700
_cell_length_b 9.180247
_cell_length_c 25.821996
_cell_angle_alpha 90.000000
_cell_angle_beta 90.000000
_cell_angle_gamma 90.000000
_cell_volume 6988.467779
_symmetry_space_group_name_H-M "C M M A"
_symmetry_group_IT_number 67
_symmetry_cell_setting 'orthorhombic'
loop_
_space_group_symop_operation_xyz
x,y,z
-x,1/2-y,z
x,-y,-z
-x,1/2+y,-z
-x,-y,-z
x,1/2+y,-z
-x,y,z
x,1/2-y,z
1/2+x,1/2+y,z
1/2-x,-y,z
1/2+x,1/2-y,-z
1/2-x,y,-z
1/2-x,1/2-y,-z
1/2+x,y,-z
1/2-x,1/2+y,z
1/2+x,-y,z
loop_
_atom_site_type_symbol
_atom_site_label
_atom_site_fract_x
_atom_site_fract_y
_atom_site_fract_z
Si Si1 0.708902 0.580791 0.445400
Si Si2 0.446075 0.415274 0.360153
Si Si3 0.053899 0.413463 0.261522
Si Si4 0.608391 0.080355 0.554529
Si Si5 0.946077 0.586195 0.852582
Si Si6 0.054139 0.413470 0.950299
O O1 0.706519 0.500000 0.500000
O O2 0.721103 0.750000 0.452169
O O3 0.750000 0.500000 0.413490
O O4 0.658937 0.561978 0.420564
O O5 0.500000 0.423378 0.362610
O O6 0.428685 0.250000 0.365478
O O7 0.427548 0.478122 0.305528
O O8 0.427426 0.512163 0.406504
O O9 0.071986 0.250000 0.272545
O O10 0.070383 0.466605 0.204481
O O11 0.000000 0.411703 0.262449
O O12 0.597079 0.250000 0.545903
O O13 0.603708 0.000000 0.500000
O O14 0.928866 0.750000 0.862783
O O15 0.926012 0.483587 0.897532
O O16 0.000000 0.582628 0.854804
O O17 0.072641 0.250000 0.953828
O O18 0.000000 0.416934 0.949757
O O19 0.072812 0.500000 0.000000
#
# Coordination Sequence:
#
# PCOD8279450 Si02
#       6
#    16  16  16  16  16  16
#     4   9  16  26  42  62  80  97 115 136 165 203
#     4  10  20  31  42  56  73  94 121 152 184 216
#     4   8  14  25  39  51  63  82 108 139 175 211
#     4  10  20  32  45  60  77  97 120 144 174 214
#     4   8  13  21  32  44  57  74  98 128 163 203
#     4   9  15  20  26  37  54  75  97 123 158 200
#
# _framework density 13.736917
#
# number of rings (size 3 to 8) (size 9 to 14) (size 15 to 20)
#    0.000    3.000    0.000    3.500    0.000    6.000 
#    0.000    3.333    0.000    0.000    0.000    0.000 
#    0.000    0.000    0.000    0.000    0.000    0.000 
#
# Total GULP energy -594720.064719 kJ/mol
# GULP energy per Si atom -12390.001348 kJ/mol
# Density = 1.370565 g / cm^3
# Si number density = 13.736917 Si / 1000 Ang^3
#
#
#
# Elastic Constant Matrix: (Units=GPa)
#
#
# Indices 1 2 3 4 5 6 
#
# 1 17.5025 19.7309 17.7284 0.0000 0.0000 0.0000
# 2 19.7309 115.9922 60.7479 0.0000 0.0000 0.0000
# 3 17.7284 60.7479 101.8297 0.0000 0.0000 0.0000
# 4 0.0000 0.0000 0.0000 26.1388 0.0000 0.0000
# 5 0.0000 0.0000 0.0000 0.0000 0.0319 0.0000
# 6 0.0000 0.0000 0.0000 0.0000 0.0000 13.7365
#
#
#
# Elastic Compliance Matrix: (Units=1/GPa)
#
#
# Indices 1 2 3 4 5 6 
#
# 1 0.074822 -0.008589 -0.007903 0.000000 0.000000 0.000000
# 2 -0.008589 0.013525 -0.006573 0.000000 0.000000 0.000000
# 3 -0.007903 -0.006573 0.015117 0.000000 0.000000 0.000000
# 4 0.000000 0.000000 0.000000 0.038257 0.000000 0.000000
# 5 0.000000 0.000000 0.000000 0.000000 31.371349 0.000000
# 6 0.000000 0.000000 0.000000 0.000000 0.000000 0.072799
#
#
# Mechanical properties :
#
#
# Convention : Reuss Voigt Hill
#
# Bulk Modulus (GPa) = 17.44137 47.97097 32.70617
# Shear Modulus (GPa) = 0.15797 17.12257 8.64027
#
# Velocity S-wave (km/s) = 0.33948 3.53436 2.51067
# Velocity P-wave (km/s) = 3.58858 7.18697 5.68025
#
# Compressibility (1/GPa) = 0.05733495
#
# Stress axis : x y z
#
# Youngs Moduli (GPa) = 13.36511 73.93850 66.14888
#
# Poissons Ratio (x) = 0.63504 0.52275
# Poissons Ratio (y) = 0.11479 0.43480
# Poissons Ratio (z) = 0.10562 0.48600
#
# Static dielectric constant tensor:
#      x y z
#    x 2.574180 0.000000 0.000000 
#    y 0.000000 2.963770 0.000000 
#    z 0.000000 0.000000 2.840770 
# 
# 
# High freq. dielectric constant tensor:
#      x y z
#    x 1.454450 0.000000 0.000000 
#    y 0.000000 1.541490 0.000000 
#    z 0.000000 0.000000 1.514580 
# 
# From -- ./inp_files/43818.got.cif
#   From: 2010.03.12/outbox.cif.g09.slc.cpg/sg67_22_cif.got.tgz:43818.got - 2010.04.10 22:41:39.
