data_PCOD8279178
_publ_section_title
;
Structure prediction by ZEFSAII (Michael W. Deem and Ramdas Pophale) SiO2 
 PCOD8279178
Probable space group: C M M A
;
_chemical_formula_sum "Si O2"
_cell_formula_units_Z 80
_cell_length_a 25.289097
_cell_length_b 18.536631
_cell_length_c 9.041275
_cell_angle_alpha 90.000000
_cell_angle_beta 90.000000
_cell_angle_gamma 90.000000
_cell_volume 4238.320609
_symmetry_space_group_name_H-M "C M M A"
_symmetry_group_IT_number 67
_symmetry_cell_setting 'orthorhombic'
loop_
_space_group_symop_operation_xyz
x,y,z
-x,1/2-y,z
x,-y,-z
-x,1/2+y,-z
-x,-y,-z
x,1/2+y,-z
-x,y,z
x,1/2-y,z
1/2+x,1/2+y,z
1/2-x,-y,z
1/2+x,1/2-y,-z
1/2-x,y,-z
1/2-x,1/2-y,-z
1/2+x,y,-z
1/2-x,1/2+y,z
1/2+x,-y,z
loop_
_atom_site_type_symbol
_atom_site_label
_atom_site_fract_x
_atom_site_fract_y
_atom_site_fract_z
Si Si1 0.712992 0.421440 0.355232
Si Si2 0.346922 0.532237 0.160523
Si Si3 0.631154 0.170693 0.503037
Si Si4 0.796446 0.671459 0.778472
Si Si5 0.059505 0.556634 0.631301
O O1 0.750000 0.437164 0.500000
O O2 0.698253 0.496750 0.269092
O O3 0.655796 0.386247 0.388115
O O4 0.739016 0.363958 0.244076
O O5 0.331837 0.615570 0.128977
O O6 0.404132 0.527458 0.235945
O O7 0.349841 0.500000 0.000000
O O8 0.616441 0.250000 0.436112
O O9 0.677274 0.182991 0.620309
O O10 0.579133 0.134802 0.574125
O O11 0.791359 0.750000 0.857782
O O12 0.061792 0.500000 0.500000
O O13 0.000000 0.565659 0.691513
#
# Coordination Sequence:
#
# PCOD8279178 Si02
#       5
#    16  16  16  16  16
#     4  10  19  33  55  80 114 154 188 227 273 327
#     4  11  23  37  56  82 113 147 190 231 279 338
#     4   9  17  31  54  85 111 139 185 231 276 325
#     4   9  19  33  52  77 112 150 186 224 267 328
#     4  10  20  36  59  82 105 139 186 233 281 333
#
# _framework density 18.875401
#
# number of rings (size 3 to 8) (size 9 to 14) (size 15 to 20)
#    0.000    2.200    2.000    1.200    0.000    8.800 
#    0.000    3.000    0.000    0.000    0.000    0.000 
#    0.000    0.000    0.000    0.000    0.000    0.000 
#
# Total GULP energy -495610.402767 kJ/mol
# GULP energy per Si atom -12390.260069 kJ/mol
# Density = 1.883244 g / cm^3
# Si number density = 18.875401 Si / 1000 Ang^3
#
#
#
# Elastic Constant Matrix: (Units=GPa)
#
#
# Indices 1 2 3 4 5 6 
#
# 1 122.7141 44.3337 40.6324 0.0000 0.0000 0.0000
# 2 44.3337 156.6459 36.8173 0.0000 0.0000 0.0000
# 3 40.6324 36.8173 70.9957 0.0000 0.0000 0.0000
# 4 0.0000 0.0000 0.0000 17.5260 0.0000 0.0000
# 5 0.0000 0.0000 0.0000 0.0000 16.2736 0.0000
# 6 0.0000 0.0000 0.0000 0.0000 0.0000 50.0518
#
#
#
# Elastic Compliance Matrix: (Units=1/GPa)
#
#
# Indices 1 2 3 4 5 6 
#
# 1 0.010468 -0.001770 -0.005073 0.000000 0.000000 0.000000
# 2 -0.001770 0.007569 -0.002912 0.000000 0.000000 0.000000
# 3 -0.005073 -0.002912 0.018499 0.000000 0.000000 0.000000
# 4 0.000000 0.000000 0.000000 0.057058 0.000000 0.000000
# 5 0.000000 0.000000 0.000000 0.000000 0.061449 0.000000
# 6 0.000000 0.000000 0.000000 0.000000 0.000000 0.019979
#
#
# Mechanical properties :
#
#
# Convention : Reuss Voigt Hill
#
# Bulk Modulus (GPa) = 58.73582 65.99139 62.36361
# Shear Modulus (GPa) = 24.97377 32.00843 28.49110
#
# Velocity S-wave (km/s) = 3.64137 4.12245 3.88935
# Velocity P-wave (km/s) = 6.99033 7.59585 7.29937
#
# Compressibility (1/GPa) = 0.01702539
#
# Stress axis : x y z
#
# Youngs Moduli (GPa) = 95.52529 132.11217 54.05685
#
# Poissons Ratio (x) = 0.23389 0.27424
# Poissons Ratio (y) = 0.16912 0.15742
# Poissons Ratio (z) = 0.48462 0.38473
#
# Static dielectric constant tensor:
#      x y z
#    x 3.488460 0.000000 0.000000 
#    y 0.000000 4.088480 0.000000 
#    z 0.000000 0.000000 3.028520 
# 
# 
# High freq. dielectric constant tensor:
#      x y z
#    x 1.718760 0.000000 0.000000 
#    y 0.000000 1.756150 0.000000 
#    z 0.000000 0.000000 1.688170 
# 
# From -- ./inp_files/9913.got.cif
#   From: 2010.03.12/outbox.cif.g09.slc.cpg/sg67_5_cif.got.tgz:9913.got - 2010.04.10 22:41:39.
