data_PCOD8279412
_publ_section_title
;
Structure prediction by ZEFSAII (Michael W. Deem and Ramdas Pophale) SiO2 
 PCOD8279412
Probable space group: C M M A
;
_chemical_formula_sum "Si O2"
_cell_formula_units_Z 64
_cell_length_a 14.573458
_cell_length_b 17.077731
_cell_length_c 13.570160
_cell_angle_alpha 90.000000
_cell_angle_beta 90.000000
_cell_angle_gamma 90.000000
_cell_volume 3377.363071
_symmetry_space_group_name_H-M "C M M A"
_symmetry_group_IT_number 67
_symmetry_cell_setting 'orthorhombic'
loop_
_space_group_symop_operation_xyz
x,y,z
-x,1/2-y,z
x,-y,-z
-x,1/2+y,-z
-x,-y,-z
x,1/2+y,-z
-x,y,z
x,1/2-y,z
1/2+x,1/2+y,z
1/2-x,-y,z
1/2+x,1/2-y,-z
1/2-x,y,-z
1/2-x,1/2-y,-z
1/2+x,y,-z
1/2-x,1/2+y,z
1/2+x,-y,z
loop_
_atom_site_type_symbol
_atom_site_label
_atom_site_fract_x
_atom_site_fract_y
_atom_site_fract_z
Si Si1 0.854106 0.339437 0.737932
Si Si2 0.605495 0.018023 0.390594
Si Si3 0.687871 0.930224 0.213567
Si Si4 0.000000 0.579216 0.892427
Si Si5 0.000000 0.106289 0.890832
O O1 0.870613 0.250000 0.707804
O O2 0.882675 0.391567 0.643351
O O3 0.749102 0.353229 0.769693
O O4 0.911555 0.361778 0.834920
O O5 0.500000 0.993812 0.381377
O O6 0.641940 0.000000 0.500000
O O7 0.663202 0.962679 0.320512
O O8 0.596475 0.900008 0.159333
O O9 0.750000 0.000000 0.160994
O O10 0.000000 0.486440 0.895487
O O11 0.000000 0.629110 0.993883
#
# Coordination Sequence:
#
# PCOD8279412 Si02
#       5
#    16  16  16   8   8
#     4  11  22  39  60  89 122 156 191 242 303 353
#     4  10  19  36  63  90 114 151 199 246 287 348
#     4  10  19  37  58  87 120 154 199 246 284 348
#     4  11  20  38  60  87 117 154 204 247 290 327
#     4  11  21  36  60  89 115 153 202 250 287 349
#
# _framework density 18.949694999999998
#
# number of rings (size 3 to 8) (size 9 to 14) (size 15 to 20)
#    0.000    1.500    7.500    0.375    0.000    5.500 
#    0.000    6.875    0.000    1.500    0.000    0.000 
#    0.000    0.000    0.000    0.000    0.000    0.000 
#
# Total GULP energy -396507.582162 kJ/mol
# GULP energy per Si atom -12390.861943 kJ/mol
# Density = 1.890656 g / cm^3
# Si number density = 18.949695 Si / 1000 Ang^3
#
#
#
# Elastic Constant Matrix: (Units=GPa)
#
#
# Indices 1 2 3 4 5 6 
#
# 1 131.6458 29.4009 58.1800 0.0000 0.0000 0.0000
# 2 29.4009 94.0352 56.2199 0.0000 0.0000 0.0000
# 3 58.1800 56.2199 139.1136 0.0000 0.0000 0.0000
# 4 0.0000 0.0000 0.0000 17.3055 0.0000 0.0000
# 5 0.0000 0.0000 0.0000 0.0000 5.8737 0.0000
# 6 0.0000 0.0000 0.0000 0.0000 0.0000 26.1590
#
#
#
# Elastic Compliance Matrix: (Units=1/GPa)
#
#
# Indices 1 2 3 4 5 6 
#
# 1 0.009361 -0.000773 -0.003603 0.000000 0.000000 0.000000
# 2 -0.000773 0.014086 -0.005369 0.000000 0.000000 0.000000
# 3 -0.003603 -0.005369 0.010865 0.000000 0.000000 0.000000
# 4 0.000000 0.000000 0.000000 0.057785 0.000000 0.000000
# 5 0.000000 0.000000 0.000000 0.000000 0.170250 0.000000
# 6 0.000000 0.000000 0.000000 0.000000 0.000000 0.038228
#
#
# Mechanical properties :
#
#
# Convention : Reuss Voigt Hill
#
# Bulk Modulus (GPa) = 67.46611 72.48848 69.97730
# Shear Modulus (GPa) = 15.38437 24.60056 19.99247
#
# Velocity S-wave (km/s) = 2.85239 3.60697 3.25164
# Velocity P-wave (km/s) = 6.82116 7.46211 7.14882
#
# Compressibility (1/GPa) = 0.01482226
#
# Stress axis : x y z
#
# Youngs Moduli (GPa) = 106.82750 70.99191 92.03920
#
# Poissons Ratio (x) = 0.05487 0.33157
# Poissons Ratio (y) = 0.08257 0.49419
# Poissons Ratio (z) = 0.38485 0.38118
#
# Static dielectric constant tensor:
#      x y z
#    x 3.832800 0.000000 0.000000 
#    y 0.000000 3.224760 0.000000 
#    z 0.000000 0.000000 3.699420 
# 
# 
# High freq. dielectric constant tensor:
#      x y z
#    x 1.766320 0.000000 0.000000 
#    y 0.000000 1.699100 0.000000 
#    z 0.000000 0.000000 1.722840 
# 
# From -- ./inp_files/26812.got.cif
#   From: 2010.03.12/outbox.cif.g09.slc.cpg/sg67_14_cif.got.tgz:26812.got - 2010.04.10 22:41:39.
