data_PCOD8279430
_publ_section_title
;
Structure prediction by ZEFSAII (Michael W. Deem and Ramdas Pophale) SiO2 
 PCOD8279430
Probable space group: C M M A
;
_chemical_formula_sum "Si O2"
_cell_formula_units_Z 88
_cell_length_a 14.785382
_cell_length_b 14.325404
_cell_length_c 20.386161
_cell_angle_alpha 90.000000
_cell_angle_beta 90.000000
_cell_angle_gamma 90.000000
_cell_volume 4317.922846
_symmetry_space_group_name_H-M "C M M A"
_symmetry_group_IT_number 67
_symmetry_cell_setting 'orthorhombic'
loop_
_space_group_symop_operation_xyz
x,y,z
-x,1/2-y,z
x,-y,-z
-x,1/2+y,-z
-x,-y,-z
x,1/2+y,-z
-x,y,z
x,1/2-y,z
1/2+x,1/2+y,z
1/2-x,-y,z
1/2+x,1/2-y,-z
1/2-x,y,-z
1/2-x,1/2-y,-z
1/2+x,y,-z
1/2-x,1/2+y,z
1/2+x,-y,z
loop_
_atom_site_type_symbol
_atom_site_label
_atom_site_fract_x
_atom_site_fract_y
_atom_site_fract_z
Si Si1 0.099364 0.986839 0.606682
Si Si2 0.500000 0.147388 0.133331
Si Si3 0.808864 0.361862 0.817440
Si Si4 0.250000 0.000000 0.708630
Si Si5 0.196321 0.357340 0.061064
Si Si6 0.500000 0.393061 0.985412
Si Si7 0.144015 0.144263 0.509373
O O1 0.168824 0.962300 0.663920
O O2 0.121226 0.087578 0.575160
O O3 0.000000 0.991169 0.638349
O O4 0.098717 0.905474 0.552566
O O5 0.500000 0.250000 0.163802
O O6 0.407498 0.099650 0.158663
O O7 0.500000 0.159191 0.054605
O O8 0.807342 0.250000 0.807665
O O9 0.783707 0.411476 0.749954
O O10 0.735241 0.397691 0.870871
O O11 0.223978 0.250000 0.060979
O O12 0.088290 0.368339 0.057008
O O13 0.250000 0.405347 0.000000
O O14 0.500000 0.500000 0.000000
O O15 0.107156 0.250000 0.515846
O O16 0.250000 0.142715 0.500000
#
# Coordination Sequence:
#
# PCOD8279430 Si02
#       7
#    16   8  16   8  16   8  16
#     4  11  23  41  63  93 127 166 204 247 311 357
#     4  10  20  42  66  88 116 151 202 261 313 367
#     4  10  24  42  64  88 118 164 209 251 308 369
#     4  12  26  43  61  84 132 168 206 256 294 360
#     4  10  20  39  62  83 113 151 194 254 316 364
#     4  12  24  32  60  96 120 144 192 252 323 387
#     4  10  19  38  69  98 129 160 199 254 307 359
#
# _framework density 20.38017
#
# number of rings (size 3 to 8) (size 9 to 14) (size 15 to 20)
#    0.000    1.455    3.636    2.455    3.818    3.273 
#    1.636    0.000    0.000    0.000    0.000    0.000 
#    0.000    0.000    0.000    0.000    0.000    0.000 
#
# Total GULP energy -545542.637858 kJ/mol
# GULP energy per Si atom -12398.696315 kJ/mol
# Density = 2.033378 g / cm^3
# Si number density = 20.380170 Si / 1000 Ang^3
#
#
#
# Elastic Constant Matrix: (Units=GPa)
#
#
# Indices 1 2 3 4 5 6 
#
# 1 176.5867 19.0591 62.3549 0.0000 0.0000 0.0000
# 2 19.0591 89.1442 23.8498 0.0000 0.0000 0.0000
# 3 62.3549 23.8498 108.2792 0.0000 0.0000 0.0000
# 4 0.0000 0.0000 0.0000 32.1830 0.0000 0.0000
# 5 0.0000 0.0000 0.0000 0.0000 5.1969 0.0000
# 6 0.0000 0.0000 0.0000 0.0000 0.0000 34.1982
#
#
#
# Elastic Compliance Matrix: (Units=1/GPa)
#
#
# Indices 1 2 3 4 5 6 
#
# 1 0.007126 -0.000452 -0.004004 0.000000 0.000000 0.000000
# 2 -0.000452 0.011949 -0.002371 0.000000 0.000000 0.000000
# 3 -0.004004 -0.002371 0.012063 0.000000 0.000000 0.000000
# 4 0.000000 0.000000 0.000000 0.031072 0.000000 0.000000
# 5 0.000000 0.000000 0.000000 0.000000 0.192423 0.000000
# 6 0.000000 0.000000 0.000000 0.000000 0.000000 0.029241
#
#
# Mechanical properties :
#
#
# Convention : Reuss Voigt Hill
#
# Bulk Modulus (GPa) = 57.19883 64.94864 61.07374
# Shear Modulus (GPa) = 16.48222 32.23204 24.35713
#
# Velocity S-wave (km/s) = 2.84692 3.98117 3.46083
# Velocity P-wave (km/s) = 6.23967 7.28496 6.78248
#
# Compressibility (1/GPa) = 0.01748287
#
# Stress axis : x y z
#
# Youngs Moduli (GPa) = 140.34025 83.68943 82.89549
#
# Poissons Ratio (x) = 0.03785 0.33190
# Poissons Ratio (y) = 0.06347 0.19658
# Poissons Ratio (z) = 0.56189 0.19846
#
# Static dielectric constant tensor:
#      x y z
#    x 3.863700 0.000000 0.000000 
#    y 0.000000 3.725830 0.000000 
#    z 0.000000 0.000000 3.493560 
# 
# 
# High freq. dielectric constant tensor:
#      x y z
#    x 1.815370 0.000000 0.000000 
#    y 0.000000 1.791840 0.000000 
#    z 0.000000 0.000000 1.775790 
# 
# From -- ./inp_files/38344.got.cif
#   From: 2010.03.12/outbox.cif.g09.slc.cpg/sg67_20_cif.got.tgz:38344.got - 2010.04.10 22:41:39.
