data_PCOD8279214
_publ_section_title
;
Structure prediction by ZEFSAII (Michael W. Deem and Ramdas Pophale) SiO2 
 PCOD8279214
Probable space group: C M M A
;
_chemical_formula_sum "Si O2"
_cell_formula_units_Z 116
_cell_length_a 23.282761
_cell_length_b 26.051858
_cell_length_c 9.940194
_cell_angle_alpha 90.000000
_cell_angle_beta 90.000000
_cell_angle_gamma 90.000000
_cell_volume 6029.315956
_symmetry_space_group_name_H-M "C M M A"
_symmetry_group_IT_number 67
_symmetry_cell_setting 'orthorhombic'
loop_
_space_group_symop_operation_xyz
x,y,z
-x,1/2-y,z
x,-y,-z
-x,1/2+y,-z
-x,-y,-z
x,1/2+y,-z
-x,y,z
x,1/2-y,z
1/2+x,1/2+y,z
1/2-x,-y,z
1/2+x,1/2-y,-z
1/2-x,y,-z
1/2-x,1/2-y,-z
1/2+x,y,-z
1/2-x,1/2+y,z
1/2+x,-y,z
loop_
_atom_site_type_symbol
_atom_site_label
_atom_site_fract_x
_atom_site_fract_y
_atom_site_fract_z
Si Si1 0.312396 0.060438 0.527849
Si Si2 0.904172 0.876065 0.377122
Si Si3 0.937363 0.016736 0.650600
Si Si4 0.933395 0.868188 0.877760
Si Si5 0.933960 0.806576 0.624036
Si Si6 0.649850 0.546173 0.184640
Si Si7 0.750000 0.500000 0.000000
Si Si8 0.566224 0.191561 0.146674
O O1 0.250000 0.081573 0.500000
O O2 0.347852 0.093880 0.422436
O O3 0.328526 0.074232 0.680887
O O4 0.316559 0.000000 0.500000
O O5 0.948398 0.922161 0.345330
O O6 0.927640 0.837028 0.486678
O O7 0.893871 0.842766 0.243184
O O8 0.000000 0.990785 0.678434
O O9 0.915735 0.000000 0.500000
O O10 0.890616 0.000977 0.763842
O O11 0.908691 0.840124 0.745391
O O12 0.891985 0.917090 0.901931
O O13 0.000000 0.886123 0.863506
O O14 0.926176 0.827803 0.996183
O O15 0.904388 0.750000 0.613987
O O16 0.000000 0.797970 0.656854
O O17 0.706070 0.531494 0.096240
O O18 0.500000 0.187049 0.193999
O O19 0.587475 0.250000 0.153203
#
# Coordination Sequence:
#
# PCOD8279214 Si02
#       8
#    16  16  16  16  16  16   4  16
#     4  11  22  39  63  85 119 158 207 257 307 357
#     4  12  20  35  58  91 116 166 203 243 306 363
#     4  11  21  35  59  92 131 161 188 240 315 385
#     4  10  21  38  62  89 123 165 202 244 316 377
#     4  10  19  33  57  90 123 154 200 253 300 367
#     4  12  23  43  58  90 121 160 209 263 296 363
#     4  12  32  40  64  84 122 164 228 260 296 356
#     4  10  22  38  57  87 127 164 199 242 299 374
#
# _framework density 19.239329999999999
#
# number of rings (size 3 to 8) (size 9 to 14) (size 15 to 20)
#    0.000    1.103    4.138    3.310    1.931    4.966 
#    0.000    0.690    0.000    1.655    0.000    1.931 
#    0.000    0.000    0.000    0.000    0.000    0.000 
#
# Total GULP energy -718711.805743 kJ/mol
# GULP energy per Si atom -12391.582858 kJ/mol
# Density = 1.919554 g / cm^3
# Si number density = 19.239330 Si / 1000 Ang^3
#
#
#
# Elastic Constant Matrix: (Units=GPa)
#
#
# Indices 1 2 3 4 5 6 
#
# 1 102.7726 37.2145 25.8244 0.0000 0.0000 0.0000
# 2 37.2145 122.2112 38.9087 0.0000 0.0000 0.0000
# 3 25.8244 38.9087 82.2786 0.0000 0.0000 0.0000
# 4 0.0000 0.0000 0.0000 27.3474 0.0000 0.0000
# 5 0.0000 0.0000 0.0000 0.0000 27.0614 0.0000
# 6 0.0000 0.0000 0.0000 0.0000 0.0000 16.5695
#
#
#
# Elastic Compliance Matrix: (Units=1/GPa)
#
#
# Indices 1 2 3 4 5 6 
#
# 1 0.011281 -0.002717 -0.002256 0.000000 0.000000 0.000000
# 2 -0.002717 0.010287 -0.004012 0.000000 0.000000 0.000000
# 3 -0.002256 -0.004012 0.014759 0.000000 0.000000 0.000000
# 4 0.000000 0.000000 0.000000 0.036566 0.000000 0.000000
# 5 0.000000 0.000000 0.000000 0.000000 0.036953 0.000000
# 6 0.000000 0.000000 0.000000 0.000000 0.000000 0.060352
#
#
# Mechanical properties :
#
#
# Convention : Reuss Voigt Hill
#
# Bulk Modulus (GPa) = 54.47321 56.79526 55.63424
# Shear Modulus (GPa) = 25.73510 27.88332 26.80921
#
# Velocity S-wave (km/s) = 3.66133 3.81108 3.73696
# Velocity P-wave (km/s) = 6.80064 6.99645 6.89924
#
# Compressibility (1/GPa) = 0.01835765
#
# Stress axis : x y z
#
# Youngs Moduli (GPa) = 88.64554 97.20833 67.75489
#
# Poissons Ratio (x) = 0.26411 0.15285
# Poissons Ratio (y) = 0.24084 0.27183
# Poissons Ratio (z) = 0.19997 0.39000
#
# Static dielectric constant tensor:
#      x y z
#    x 3.546980 0.000000 0.000000 
#    y 0.000000 3.681870 0.000000 
#    z 0.000000 0.000000 3.533800 
# 
# 
# High freq. dielectric constant tensor:
#      x y z
#    x 1.727240 0.000000 0.000000 
#    y 0.000000 1.745110 0.000000 
#    z 0.000000 0.000000 1.753260 
# 
# From -- ./inp_files/14043.got.cif
#   From: 2010.03.12/outbox.cif.g09.slc.cpg/sg67_8_cif.got.tgz:14043.got - 2010.04.10 22:41:39.
