data_PCOD8279925
_publ_section_title
;
Structure prediction by ZEFSAII (Michael W. Deem and Ramdas Pophale) SiO2 
 PCOD8279925
Probable space group: C M M A
;
_chemical_formula_sum "Si O2"
_cell_formula_units_Z 96
_cell_length_a 8.801204
_cell_length_b 19.315151
_cell_length_c 30.658599
_cell_angle_alpha 90.000000
_cell_angle_beta 90.000000
_cell_angle_gamma 90.000000
_cell_volume 5211.857108
_symmetry_space_group_name_H-M "C M M A"
_symmetry_group_IT_number 67
_symmetry_cell_setting 'orthorhombic'
loop_
_space_group_symop_operation_xyz
x,y,z
-x,1/2-y,z
x,-y,-z
-x,1/2+y,-z
-x,-y,-z
x,1/2+y,-z
-x,y,z
x,1/2-y,z
1/2+x,1/2+y,z
1/2-x,-y,z
1/2+x,1/2-y,-z
1/2-x,y,-z
1/2-x,1/2-y,-z
1/2+x,y,-z
1/2-x,1/2+y,z
1/2+x,-y,z
loop_
_atom_site_type_symbol
_atom_site_label
_atom_site_fract_x
_atom_site_fract_y
_atom_site_fract_z
Si Si1 0.325661 0.668467 0.884347
Si Si2 0.168565 0.667721 0.796873
Si Si3 0.168466 0.167730 0.712264
Si Si4 0.679209 0.426990 0.545653
Si Si5 0.679782 0.572587 0.046250
Si Si6 0.823372 0.330890 0.615240
O O1 0.500000 0.647500 0.891915
O O2 0.300202 0.750000 0.889762
O O3 0.277465 0.643532 0.836075
O O4 0.219151 0.631778 0.919373
O O5 0.167091 0.750000 0.794187
O O6 0.226166 0.637009 0.750639
O O7 0.000000 0.638707 0.805548
O O8 0.162306 0.250000 0.715075
O O9 0.227329 0.146639 0.664170
O O10 0.000000 0.137712 0.719579
O O11 0.500000 0.434997 0.540205
O O12 0.750000 0.500000 0.560006
O O13 0.750000 0.401850 0.500000
O O14 0.716165 0.370785 0.582069
O O15 0.500000 0.565084 0.041560
O O16 0.750000 0.500000 0.062252
O O17 0.750000 0.594460 0.000000
O O18 0.795580 0.250000 0.607901
O O19 0.000000 0.349334 0.607589
#
# Coordination Sequence:
#
# PCOD8279925 Si02
#       6
#    16  16  16  16  16  16
#     4  10  20  34  53  78 107 138 174 215 258 302
#     4   9  16  26  43  70 103 136 170 209 252 299
#     4   8  14  26  45  69  99 135 169 202 245 298
#     4  11  22  37  56  75  99 132 171 211 254 307
#     4  11  22  38  58  78 103 135 173 212 255 309
#     4   9  18  33  53  78 107 136 169 210 254 299
#
# _framework density 18.419539
#
# number of rings (size 3 to 8) (size 9 to 14) (size 15 to 20)
#    0.000    2.333    0.000    6.000    0.000    4.667 
#    0.000    1.667    0.000    1.000    0.000    2.333 
#    0.000    0.000    0.000    0.000    0.000    0.000 
#
# Total GULP energy -595147.123700 kJ/mol
# GULP energy per Si atom -12398.898410 kJ/mol
# Density = 1.837762 g / cm^3
# Si number density = 18.419539 Si / 1000 Ang^3
#
#
#
# Elastic Constant Matrix: (Units=GPa)
#
#
# Indices 1 2 3 4 5 6 
#
# 1 137.8248 35.5665 62.0312 0.0000 0.0000 0.0000
# 2 35.5665 39.8034 46.7941 0.0000 0.0000 0.0000
# 3 62.0312 46.7941 129.9861 0.0000 0.0000 0.0000
# 4 0.0000 0.0000 0.0000 5.5016 0.0000 0.0000
# 5 0.0000 0.0000 0.0000 0.0000 35.1380 0.0000
# 6 0.0000 0.0000 0.0000 0.0000 0.0000 23.3382
#
#
#
# Elastic Compliance Matrix: (Units=1/GPa)
#
#
# Indices 1 2 3 4 5 6 
#
# 1 0.009941 -0.005731 -0.002681 0.000000 0.000000 0.000000
# 2 -0.005731 0.046862 -0.014135 0.000000 0.000000 0.000000
# 3 -0.002681 -0.014135 0.014061 0.000000 0.000000 0.000000
# 4 0.000000 0.000000 0.000000 0.181766 0.000000 0.000000
# 5 0.000000 0.000000 0.000000 0.000000 0.028459 0.000000
# 6 0.000000 0.000000 0.000000 0.000000 0.000000 0.042848
#
#
# Mechanical properties :
#
#
# Convention : Reuss Voigt Hill
#
# Bulk Modulus (GPa) = 38.80465 66.26643 52.53554
# Shear Modulus (GPa) = 13.24073 23.67705 18.45889
#
# Velocity S-wave (km/s) = 2.68403 3.58918 3.16909
# Velocity P-wave (km/s) = 5.54240 7.29593 6.47876
#
# Compressibility (1/GPa) = 0.02577011
#
# Stress axis : x y z
#
# Youngs Moduli (GPa) = 100.59194 21.33910 71.11878
#
# Poissons Ratio (x) = 0.12230 0.19066
# Poissons Ratio (y) = 0.57652 1.00527
# Poissons Ratio (z) = 0.26967 0.30163
#
# Static dielectric constant tensor:
#      x y z
#    x 3.530690 0.000000 0.000000 
#    y 0.000000 2.968750 0.000000 
#    z 0.000000 0.000000 3.581280 
# 
# 
# High freq. dielectric constant tensor:
#      x y z
#    x 1.724250 0.000000 0.000000 
#    y 0.000000 1.667830 0.000000 
#    z 0.000000 0.000000 1.728670 
# 
# From -- ./inp_files/43508.got.cif
#   From: 2010.03.12/outbox.cif.g09.slc.cpg/sg67_22_cif.got.tgz:43508.got - 2010.04.10 22:41:39.
