data_PCOD8279479
_publ_section_title
;
Structure prediction by ZEFSAII (Michael W. Deem and Ramdas Pophale) SiO2 
 PCOD8279479
Probable space group: C M M A
;
_chemical_formula_sum "Si O2"
_cell_formula_units_Z 104
_cell_length_a 30.353368
_cell_length_b 9.061431
_cell_length_c 22.733483
_cell_angle_alpha 90.000000
_cell_angle_beta 90.000000
_cell_angle_gamma 90.000000
_cell_volume 6252.729689
_symmetry_space_group_name_H-M "C M M A"
_symmetry_group_IT_number 67
_symmetry_cell_setting 'orthorhombic'
loop_
_space_group_symop_operation_xyz
x,y,z
-x,1/2-y,z
x,-y,-z
-x,1/2+y,-z
-x,-y,-z
x,1/2+y,-z
-x,y,z
x,1/2-y,z
1/2+x,1/2+y,z
1/2-x,-y,z
1/2+x,1/2-y,-z
1/2-x,y,-z
1/2-x,1/2-y,-z
1/2+x,y,-z
1/2-x,1/2+y,z
1/2+x,-y,z
loop_
_atom_site_type_symbol
_atom_site_label
_atom_site_fract_x
_atom_site_fract_y
_atom_site_fract_z
Si Si1 0.378028 0.918420 0.733522
Si Si2 0.826440 0.422895 0.442092
Si Si3 0.704859 0.074495 0.687074
Si Si4 0.449526 0.925785 0.185016
Si Si5 0.500000 0.922434 0.560980
Si Si6 0.592730 0.916169 0.601449
Si Si7 0.448188 0.088996 0.945871
O O1 0.368780 0.750000 0.753934
O O2 0.398077 0.922157 0.669553
O O3 0.332584 0.010556 0.730586
O O4 0.413817 0.993285 0.775303
O O5 0.804839 0.500000 0.500000
O O6 0.824295 0.250000 0.452271
O O7 0.802250 0.469840 0.381593
O O8 0.876883 0.475281 0.436564
O O9 0.706541 0.250000 0.694507
O O10 0.750000 0.000000 0.707919
O O11 0.500000 0.968919 0.202506
O O12 0.443915 0.750000 0.189993
O O13 0.439546 0.981058 0.118391
O O14 0.500000 0.750000 0.550217
O O15 0.542925 0.972873 0.596434
O O16 0.500000 0.000000 0.500000
O O17 0.599539 0.750000 0.576913
O O18 0.500000 0.102696 0.956061
O O19 0.426278 0.250000 0.947887
O O20 0.426422 0.000000 0.000000
#
# Coordination Sequence:
#
# PCOD8279479 Si02
#       7
#    16  16  16  16   8  16  16
#     4  10  20  33  51  72  95 124 160 201 242 285
#     4  10  20  33  50  70  92 115 143 182 230 287
#     4  10  21  37  55  73  95 121 152 191 240 295
#     4   9  18  31  46  68 101 138 171 205 243 282
#     4  10  20  32  44  60  82 110 147 190 231 272
#     4   9  19  33  47  62  86 117 150 192 236 278
#     4   8  14  25  41  62  92 130 169 206 242 277
#
# _framework density 16.632736999999999
#
# number of rings (size 3 to 8) (size 9 to 14) (size 15 to 20)
#    0.000    2.615    0.000    2.769    1.077    5.538 
#    0.000    3.077    0.000    0.000    0.000    0.000 
#    0.000    0.615    0.000    6.462    0.000    3.846 
#
# Total GULP energy -644480.476702 kJ/mol
# GULP energy per Si atom -12393.855321 kJ/mol
# Density = 1.659488 g / cm^3
# Si number density = 16.632737 Si / 1000 Ang^3
#
#
#
# Elastic Constant Matrix: (Units=GPa)
#
#
# Indices 1 2 3 4 5 6 
#
# 1 103.1693 43.4187 33.0585 0.0000 0.0000 0.0000
# 2 43.4187 74.2393 37.6825 0.0000 0.0000 0.0000
# 3 33.0585 37.6825 65.7256 0.0000 0.0000 0.0000
# 4 0.0000 0.0000 0.0000 27.7034 0.0000 0.0000
# 5 0.0000 0.0000 0.0000 0.0000 7.2917 0.0000
# 6 0.0000 0.0000 0.0000 0.0000 0.0000 26.1756
#
#
#
# Elastic Compliance Matrix: (Units=1/GPa)
#
#
# Indices 1 2 3 4 5 6 
#
# 1 0.013303 -0.006183 -0.003146 0.000000 0.000000 0.000000
# 2 -0.006183 0.021873 -0.009430 0.000000 0.000000 0.000000
# 3 -0.003146 -0.009430 0.022204 0.000000 0.000000 0.000000
# 4 0.000000 0.000000 0.000000 0.036097 0.000000 0.000000
# 5 0.000000 0.000000 0.000000 0.000000 0.137142 0.000000
# 6 0.000000 0.000000 0.000000 0.000000 0.000000 0.038204
#
#
# Mechanical properties :
#
#
# Convention : Reuss Voigt Hill
#
# Bulk Modulus (GPa) = 50.35146 52.38373 51.36760
# Shear Modulus (GPa) = 15.97639 20.83245 18.40442
#
# Velocity S-wave (km/s) = 3.10262 3.54290 3.33004
# Velocity P-wave (km/s) = 6.57063 6.94974 6.76285
#
# Compressibility (1/GPa) = 0.01986040
#
# Stress axis : x y z
#
# Youngs Moduli (GPa) = 75.16997 45.71846 45.03722
#
# Poissons Ratio (x) = 0.28270 0.14169
# Poissons Ratio (y) = 0.46481 0.42472
# Poissons Ratio (z) = 0.23649 0.43114
#
# Static dielectric constant tensor:
#      x y z
#    x 3.038370 0.000000 0.000000 
#    y 0.000000 3.281070 0.000000 
#    z 0.000000 0.000000 3.118440 
# 
# 
# High freq. dielectric constant tensor:
#      x y z
#    x 1.618930 0.000000 0.000000 
#    y 0.000000 1.646550 0.000000 
#    z 0.000000 0.000000 1.623140 
# 
# From -- ./inp_files/40234.got.cif
#   From: 2010.03.12/outbox.cif.g09.slc.cpg/sg67_21_cif.got.tgz:40234.got - 2010.04.10 22:41:39.
