data_PCOD8279444
_publ_section_title
;
Structure prediction by ZEFSAII (Michael W. Deem and Ramdas Pophale) SiO2 
 PCOD8279444
Probable space group: C M M A
;
_chemical_formula_sum "Si O2"
_cell_formula_units_Z 76
_cell_length_a 22.652229
_cell_length_b 29.315532
_cell_length_c 6.412608
_cell_angle_alpha 90.000000
_cell_angle_beta 90.000000
_cell_angle_gamma 90.000000
_cell_volume 4258.370218
_symmetry_space_group_name_H-M "C M M A"
_symmetry_group_IT_number 67
_symmetry_cell_setting 'orthorhombic'
loop_
_space_group_symop_operation_xyz
x,y,z
-x,1/2-y,z
x,-y,-z
-x,1/2+y,-z
-x,-y,-z
x,1/2+y,-z
-x,y,z
x,1/2-y,z
1/2+x,1/2+y,z
1/2-x,-y,z
1/2+x,1/2-y,-z
1/2-x,y,-z
1/2-x,1/2-y,-z
1/2+x,y,-z
1/2-x,1/2+y,z
1/2+x,-y,z
loop_
_atom_site_type_symbol
_atom_site_label
_atom_site_fract_x
_atom_site_fract_y
_atom_site_fract_z
Si Si1 0.846024 0.361672 0.694801
Si Si2 0.250000 0.000000 0.000000
Si Si3 0.568626 0.302827 0.042020
Si Si4 0.809283 0.543358 0.377522
Si Si5 0.250000 0.169305 0.000000
Si Si6 0.343139 0.699968 0.307812
O O1 0.855960 0.414770 0.632679
O O2 0.828276 0.336021 0.484445
O O3 0.903908 0.337284 0.787868
O O4 0.791891 0.362025 0.857288
O O5 0.207274 0.030640 0.858272
O O6 0.500000 0.313883 0.027092
O O7 0.580258 0.250000 0.107959
O O8 0.596606 0.312476 0.814998
O O9 0.837945 0.500000 0.500000
O O10 0.750000 0.558542 0.500000
O O11 0.210073 0.201628 0.142630
O O12 0.348654 0.750000 0.409933
#
# Coordination Sequence:
#
# PCOD8279444 Si02
#       6
#    16   4  16  16   8  16
#     4  11  20  32  52  76 102 133 167 208 256 300
#     4   8  16  32  52  68 100 140 162 198 246 288
#     4   9  20  37  53  72  98 132 179 221 250 293
#     4   9  18  30  47  74 103 132 167 202 245 306
#     4  10  20  30  46  72 104 134 166 200 240 308
#     4  10  20  32  48  71 101 135 165 201 251 303
#
# _framework density 17.847204000000001
#
# number of rings (size 3 to 8) (size 9 to 14) (size 15 to 20)
#    0.000    2.526    0.000    3.474    0.000    9.263 
#    0.000    2.105    0.000    0.632    0.000    2.211 
#    0.000    0.000    0.000    0.000    0.000    0.000 
#
# Total GULP energy -471048.823931 kJ/mol
# GULP energy per Si atom -12396.021682 kJ/mol
# Density = 1.780658 g / cm^3
# Si number density = 17.847204 Si / 1000 Ang^3
#
#
#
# Elastic Constant Matrix: (Units=GPa)
#
#
# Indices 1 2 3 4 5 6 
#
# 1 94.8716 37.2879 34.5963 0.0000 0.0000 0.0000
# 2 37.2879 137.0888 55.2089 0.0000 0.0000 0.0000
# 3 34.5963 55.2089 110.2094 0.0000 0.0000 0.0000
# 4 0.0000 0.0000 0.0000 16.7046 0.0000 0.0000
# 5 0.0000 0.0000 0.0000 0.0000 12.6630 0.0000
# 6 0.0000 0.0000 0.0000 0.0000 0.0000 19.6163
#
#
#
# Elastic Compliance Matrix: (Units=1/GPa)
#
#
# Indices 1 2 3 4 5 6 
#
# 1 0.012442 -0.002269 -0.002769 0.000000 0.000000 0.000000
# 2 -0.002269 0.009552 -0.004073 0.000000 0.000000 0.000000
# 3 -0.002769 -0.004073 0.011983 0.000000 0.000000 0.000000
# 4 0.000000 0.000000 0.000000 0.059864 0.000000 0.000000
# 5 0.000000 0.000000 0.000000 0.000000 0.078971 0.000000
# 6 0.000000 0.000000 0.000000 0.000000 0.000000 0.050978
#
#
# Mechanical properties :
#
#
# Convention : Reuss Voigt Hill
#
# Bulk Modulus (GPa) = 63.47006 66.26177 64.86592
# Shear Modulus (GPa) = 20.22138 24.13521 22.17830
#
# Velocity S-wave (km/s) = 3.36970 3.68139 3.52899
# Velocity P-wave (km/s) = 7.12601 7.43492 7.28210
#
# Compressibility (1/GPa) = 0.01575546
#
# Stress axis : x y z
#
# Youngs Moduli (GPa) = 80.37178 104.69126 83.45090
#
# Poissons Ratio (x) = 0.23755 0.23108
# Poissons Ratio (y) = 0.18237 0.33987
# Poissons Ratio (z) = 0.22256 0.42637
#
# Static dielectric constant tensor:
#      x y z
#    x 3.023590 0.000000 0.000000 
#    y 0.000000 3.245200 0.000000 
#    z 0.000000 0.000000 3.419960 
# 
# 
# High freq. dielectric constant tensor:
#      x y z
#    x 1.648960 0.000000 0.000000 
#    y 0.000000 1.686010 0.000000 
#    z 0.000000 0.000000 1.703840 
# 
# From -- ./inp_files/3564.got.cif
#   From: 2010.03.12/outbox.cif.g09.slc.cpg/sg67_2_cif.got.tgz:3564.got - 2010.04.10 22:41:39.
