data_PCOD8279022
_publ_section_title
;
Structure prediction by ZEFSAII (Michael W. Deem and Ramdas Pophale) SiO2 
 PCOD8279022
Probable space group: C M M A
;
_chemical_formula_sum "Si O2"
_cell_formula_units_Z 120
_cell_length_a 26.715878
_cell_length_b 8.920296
_cell_length_c 28.094524
_cell_angle_alpha 90.000000
_cell_angle_beta 90.000000
_cell_angle_gamma 90.000000
_cell_volume 6695.305459
_symmetry_space_group_name_H-M "C M M A"
_symmetry_group_IT_number 67
_symmetry_cell_setting 'orthorhombic'
loop_
_space_group_symop_operation_xyz
x,y,z
-x,1/2-y,z
x,-y,-z
-x,1/2+y,-z
-x,-y,-z
x,1/2+y,-z
-x,y,z
x,1/2-y,z
1/2+x,1/2+y,z
1/2-x,-y,z
1/2+x,1/2-y,-z
1/2-x,y,-z
1/2-x,1/2-y,-z
1/2+x,y,-z
1/2-x,1/2+y,z
1/2+x,-y,z
loop_
_atom_site_type_symbol
_atom_site_label
_atom_site_fract_x
_atom_site_fract_y
_atom_site_fract_z
Si Si1 0.197501 0.425699 0.111568
Si Si2 0.000000 0.422858 0.950166
Si Si3 0.198375 0.924620 0.778108
Si Si4 0.351251 0.926448 0.695133
Si Si5 0.055689 0.421031 0.634984
Si Si6 0.609317 0.427546 0.051913
Si Si7 0.602852 0.075877 0.550114
Si Si8 0.699936 0.073710 0.608483
O O1 0.200396 0.250000 0.099875
O O2 0.250000 0.500000 0.095576
O O3 0.187106 0.456751 0.166893
O O4 0.151435 0.499847 0.084529
O O5 0.053557 0.462443 0.924924
O O6 0.000000 0.250000 0.962058
O O7 0.000000 0.500000 0.000000
O O8 0.201687 0.750000 0.766980
O O9 0.250000 0.000000 0.762221
O O10 0.154455 0.999390 0.747015
O O11 0.342201 0.750000 0.698669
O O12 0.406812 0.968451 0.677086
O O13 0.311264 0.997214 0.659043
O O14 0.066099 0.250000 0.619948
O O15 0.062099 0.520105 0.587945
O O16 0.000000 0.444270 0.655127
O O17 0.618764 0.250000 0.048261
O O18 0.613364 0.500000 0.000000
O O19 0.595360 0.250000 0.542796
O O20 0.657622 0.035295 0.569932
O O21 0.593484 0.000000 0.500000
O O22 0.706094 0.250000 0.616311
O O23 0.750000 0.000000 0.587499
#
# Coordination Sequence:
#
# PCOD8279022 Si02
#       8
#    16   8  16  16  16  16  16  16
#     4  10  21  36  53  76 106 142 180 220 266 316
#     4   8  16  30  50  76 102 132 172 216 262 306
#     4  10  20  34  53  76 104 135 169 207 250 300
#     4  10  19  32  53  77 100 127 161 203 248 295
#     4   9  19  36  56  76  98 126 162 204 248 293
#     4  10  19  33  54  79 108 141 180 224 268 316
#     4  10  21  35  51  72  98 129 164 201 242 290
#     4  10  20  33  49  71  99 129 162 199 241 291
#
# _framework density 17.923005
#
# number of rings (size 3 to 8) (size 9 to 14) (size 15 to 20)
#    0.000    2.267    0.000    2.800    0.000    5.333 
#    0.000    2.667    1.467    0.000    0.000    0.000 
#    0.000    0.000    0.000    0.000    0.000    0.000 
#
# Total GULP energy -743877.779098 kJ/mol
# GULP energy per Si atom -12397.962985 kJ/mol
# Density = 1.788221 g / cm^3
# Si number density = 17.923005 Si / 1000 Ang^3
#
#
#
# Elastic Constant Matrix: (Units=GPa)
#
#
# Indices 1 2 3 4 5 6 
#
# 1 138.9241 57.9352 60.0097 0.0000 0.0000 0.0000
# 2 57.9352 94.1199 48.5459 0.0000 0.0000 0.0000
# 3 60.0097 48.5459 84.4476 0.0000 0.0000 0.0000
# 4 0.0000 0.0000 0.0000 31.0038 0.0000 0.0000
# 5 0.0000 0.0000 0.0000 0.0000 16.1017 0.0000
# 6 0.0000 0.0000 0.0000 0.0000 0.0000 26.1470
#
#
#
# Elastic Compliance Matrix: (Units=1/GPa)
#
#
# Indices 1 2 3 4 5 6 
#
# 1 0.011366 -0.004023 -0.005764 0.000000 0.000000 0.000000
# 2 -0.004023 0.016527 -0.006642 0.000000 0.000000 0.000000
# 3 -0.005764 -0.006642 0.019756 0.000000 0.000000 0.000000
# 4 0.000000 0.000000 0.000000 0.032254 0.000000 0.000000
# 5 0.000000 0.000000 0.000000 0.000000 0.062105 0.000000
# 6 0.000000 0.000000 0.000000 0.000000 0.000000 0.038245
#
#
# Mechanical properties :
#
#
# Convention : Reuss Voigt Hill
#
# Bulk Modulus (GPa) = 67.61036 72.27482 69.94259
# Shear Modulus (GPa) = 22.93148 24.71723 23.82435
#
# Velocity S-wave (km/s) = 3.58081 3.71762 3.64986
# Velocity P-wave (km/s) = 7.40951 7.67075 7.54126
#
# Compressibility (1/GPa) = 0.01479063
#
# Stress axis : x y z
#
# Youngs Moduli (GPa) = 87.98385 60.50709 50.61831
#
# Poissons Ratio (x) = 0.24343 0.29176
# Poissons Ratio (y) = 0.35398 0.33620
# Poissons Ratio (z) = 0.50713 0.40188
#
# Static dielectric constant tensor:
#      x y z
#    x 3.539200 0.000000 0.000000 
#    y 0.000000 3.454040 0.000000 
#    z 0.000000 0.000000 3.132180 
# 
# 
# High freq. dielectric constant tensor:
#      x y z
#    x 1.698660 0.000000 0.000000 
#    y 0.000000 1.710470 0.000000 
#    z 0.000000 0.000000 1.671870 
# 
# From -- ./inp_files/44992.got.cif
#   From: 2010.03.12/outbox.cif.g09.slc.cpg/sg67_23_cif.got.tgz:44992.got - 2010.04.10 22:41:39.
