data_PCOD8279445
_publ_section_title
;
Structure prediction by ZEFSAII (Michael W. Deem and Ramdas Pophale) SiO2 
 PCOD8279445
Probable space group: C M M A
;
_chemical_formula_sum "Si O2"
_cell_formula_units_Z 80
_cell_length_a 16.849557
_cell_length_b 24.826625
_cell_length_c 10.257032
_cell_angle_alpha 90.000000
_cell_angle_beta 90.000000
_cell_angle_gamma 90.000000
_cell_volume 4290.697348
_symmetry_space_group_name_H-M "C M M A"
_symmetry_group_IT_number 67
_symmetry_cell_setting 'orthorhombic'
loop_
_space_group_symop_operation_xyz
x,y,z
-x,1/2-y,z
x,-y,-z
-x,1/2+y,-z
-x,-y,-z
x,1/2+y,-z
-x,y,z
x,1/2-y,z
1/2+x,1/2+y,z
1/2-x,-y,z
1/2+x,1/2-y,-z
1/2-x,y,-z
1/2-x,1/2-y,-z
1/2+x,y,-z
1/2-x,1/2+y,z
1/2+x,-y,z
loop_
_atom_site_type_symbol
_atom_site_label
_atom_site_fract_x
_atom_site_fract_y
_atom_site_fract_z
Si Si1 0.411584 0.973226 0.694872
Si Si2 0.195846 0.448947 0.184013
Si Si3 0.912588 0.906202 0.040481
Si Si4 0.301436 0.386083 0.374444
Si Si5 0.408828 0.188527 0.221404
O O1 0.500000 0.980160 0.638550
O O2 0.360241 0.936607 0.595051
O O3 0.371392 0.031525 0.713380
O O4 0.411637 0.944698 0.835039
O O5 0.250000 0.500000 0.145140
O O6 0.156595 0.424046 0.055659
O O7 0.245995 0.401959 0.252101
O O8 0.000000 0.910349 0.973651
O O9 0.896367 0.845234 0.088266
O O10 0.250000 0.371643 0.500000
O O11 0.352560 0.333645 0.336544
O O12 0.500000 0.182555 0.268757
O O13 0.386375 0.250000 0.191460
#
# Coordination Sequence:
#
# PCOD8279445 Si02
#       5
#    16  16  16  16  16
#     4   9  18  32  50  70  98 140 176 199 234 298
#     4  10  20  30  47  75 108 140 167 200 249 298
#     4   9  17  31  50  74 101 127 164 209 251 304
#     4  10  21  35  49  72 104 132 169 218 253 283
#     4   9  19  37  59  76  93 127 170 209 256 316
#
# _framework density 18.644988000000001
#
# number of rings (size 3 to 8) (size 9 to 14) (size 15 to 20)
#    0.000    2.600    0.000    3.000    0.000   16.800 
#    0.000    7.000    0.000    0.000    0.000    2.800 
#    0.000    0.000    0.000    0.000    0.000    0.000 
#
# Total GULP energy -495860.303202 kJ/mol
# GULP energy per Si atom -12396.507580 kJ/mol
# Density = 1.860255 g / cm^3
# Si number density = 18.644988 Si / 1000 Ang^3
#
#
#
# Elastic Constant Matrix: (Units=GPa)
#
#
# Indices 1 2 3 4 5 6 
#
# 1 129.0656 48.6608 46.9939 0.0000 0.0000 0.0000
# 2 48.6608 102.0390 33.1300 0.0000 0.0000 0.0000
# 3 46.9939 33.1300 73.2288 0.0000 0.0000 0.0000
# 4 0.0000 0.0000 0.0000 14.1443 0.0000 0.0000
# 5 0.0000 0.0000 0.0000 0.0000 13.2239 0.0000
# 6 0.0000 0.0000 0.0000 0.0000 0.0000 29.2741
#
#
#
# Elastic Compliance Matrix: (Units=1/GPa)
#
#
# Indices 1 2 3 4 5 6 
#
# 1 0.011076 -0.003486 -0.005531 0.000000 0.000000 0.000000
# 2 -0.003486 0.012585 -0.003456 0.000000 0.000000 0.000000
# 3 -0.005531 -0.003456 0.018769 0.000000 0.000000 0.000000
# 4 0.000000 0.000000 0.000000 0.070700 0.000000 0.000000
# 5 0.000000 0.000000 0.000000 0.000000 0.075621 0.000000
# 6 0.000000 0.000000 0.000000 0.000000 0.000000 0.034160
#
#
# Mechanical properties :
#
#
# Convention : Reuss Voigt Hill
#
# Bulk Modulus (GPa) = 57.19797 62.43363 59.81580
# Shear Modulus (GPa) = 19.70949 23.03172 21.37061
#
# Velocity S-wave (km/s) = 3.25482 3.51846 3.38921
# Velocity P-wave (km/s) = 6.69845 7.07561 6.88961
#
# Compressibility (1/GPa) = 0.01748314
#
# Stress axis : x y z
#
# Youngs Moduli (GPa) = 90.28328 79.45995 53.27974
#
# Poissons Ratio (x) = 0.27703 0.29468
# Poissons Ratio (y) = 0.31476 0.18415
# Poissons Ratio (z) = 0.49934 0.27464
#
# Static dielectric constant tensor:
#      x y z
#    x 4.035630 0.000000 0.000000 
#    y 0.000000 3.385720 0.000000 
#    z 0.000000 0.000000 3.008510 
# 
# 
# High freq. dielectric constant tensor:
#      x y z
#    x 1.750770 0.000000 0.000000 
#    y 0.000000 1.697790 0.000000 
#    z 0.000000 0.000000 1.689110 
# 
# From -- ./inp_files/9972.got.cif
#   From: 2010.03.12/outbox.cif.g09.slc.cpg/sg67_5_cif.got.tgz:9972.got - 2010.04.10 22:41:39.
