data_PCOD8279870
_publ_section_title
;
Structure prediction by ZEFSAII (Michael W. Deem and Ramdas Pophale) SiO2 
 PCOD8279870
Probable space group: C M M A
;
_chemical_formula_sum "Si O2"
_cell_formula_units_Z 120
_cell_length_a 9.029590
_cell_length_b 26.141778
_cell_length_c 27.325274
_cell_angle_alpha 90.000000
_cell_angle_beta 90.000000
_cell_angle_gamma 90.000000
_cell_volume 6450.118282
_symmetry_space_group_name_H-M "C M M A"
_symmetry_group_IT_number 67
_symmetry_cell_setting 'orthorhombic'
loop_
_space_group_symop_operation_xyz
x,y,z
-x,1/2-y,z
x,-y,-z
-x,1/2+y,-z
-x,-y,-z
x,1/2+y,-z
-x,y,z
x,1/2-y,z
1/2+x,1/2+y,z
1/2-x,-y,z
1/2+x,1/2-y,-z
1/2-x,y,-z
1/2-x,1/2-y,-z
1/2+x,y,-z
1/2-x,1/2+y,z
1/2+x,-y,z
loop_
_atom_site_type_symbol
_atom_site_label
_atom_site_fract_x
_atom_site_fract_y
_atom_site_fract_z
Si Si1 0.173584 0.901309 0.048315
Si Si2 0.825808 0.052087 0.849407
Si Si3 0.826547 0.151895 0.613254
Si Si4 0.829988 0.192016 0.089843
Si Si5 0.323532 0.552152 0.551920
Si Si6 0.671113 0.854236 0.192814
Si Si7 0.325205 0.750000 0.552009
Si Si8 0.325244 0.307751 0.704692
O O1 0.221945 0.934923 0.094930
O O2 0.226607 0.843217 0.056455
O O3 0.000000 0.901647 0.040238
O O4 0.250000 0.924753 0.000000
O O5 0.769661 0.095260 0.812464
O O6 0.000000 0.046887 0.844361
O O7 0.750000 0.000000 0.833134
O O8 0.783761 0.098327 0.588224
O O9 0.771233 0.199341 0.580360
O O10 0.747104 0.154194 0.665543
O O11 0.000000 0.156051 0.622248
O O12 0.789273 0.250000 0.077057
O O13 0.800322 0.183424 0.147353
O O14 0.000000 0.179299 0.077167
O O15 0.500000 0.545319 0.545809
O O16 0.250000 0.500000 0.572839
O O17 0.250000 0.565275 0.500000
O O18 0.500000 0.870757 0.195840
O O19 0.723323 0.825175 0.241358
O O20 0.500000 0.750000 0.544479
O O21 0.250000 0.750000 0.500000
O O22 0.500000 0.310332 0.698706
O O23 0.267141 0.250000 0.696368
#
# Coordination Sequence:
#
# PCOD8279870 Si02
#       8
#    16  16  16  16  16  16   8  16
#     4  10  21  35  51  74 104 136 172 212 257 314
#     4  10  21  37  57  80 104 133 172 217 265 316
#     4  10  21  36  53  77 111 147 182 222 271 325
#     4   9  17  31  52  75 101 135 173 214 260 309
#     4  10  20  35  56  80 105 139 182 226 271 319
#     4   9  18  34  55  79 106 136 173 217 262 311
#     4  10  20  34  52  76 108 144 182 224 271 324
#     4  10  20  34  55  83 112 143 178 216 262 317
#
# _framework density 18.604310999999999
#
# number of rings (size 3 to 8) (size 9 to 14) (size 15 to 20)
#    0.000    2.267    0.667    2.400    0.000    6.133 
#    0.000    2.000    0.000    4.000    0.000    0.000 
#    0.000    0.000    0.000    0.000    0.000    0.000 
#
# Total GULP energy -744159.289477 kJ/mol
# GULP energy per Si atom -12402.654825 kJ/mol
# Density = 1.856197 g / cm^3
# Si number density = 18.604311 Si / 1000 Ang^3
#
#
#
# Elastic Constant Matrix: (Units=GPa)
#
#
# Indices 1 2 3 4 5 6 
#
# 1 54.2534 34.1927 29.1933 0.0000 0.0000 0.0000
# 2 34.1927 105.5187 28.1863 0.0000 0.0000 0.0000
# 3 29.1933 28.1863 87.3811 0.0000 0.0000 0.0000
# 4 0.0000 0.0000 0.0000 16.5380 0.0000 0.0000
# 5 0.0000 0.0000 0.0000 0.0000 31.8464 0.0000
# 6 0.0000 0.0000 0.0000 0.0000 0.0000 29.3040
#
#
#
# Elastic Compliance Matrix: (Units=1/GPa)
#
#
# Indices 1 2 3 4 5 6 
#
# 1 0.026223 -0.006738 -0.006588 0.000000 0.000000 0.000000
# 2 -0.006738 0.012102 -0.001653 0.000000 0.000000 0.000000
# 3 -0.006588 -0.001653 0.014178 0.000000 0.000000 0.000000
# 4 0.000000 0.000000 0.000000 0.060467 0.000000 0.000000
# 5 0.000000 0.000000 0.000000 0.000000 0.031401 0.000000
# 6 0.000000 0.000000 0.000000 0.000000 0.000000 0.034125
#
#
# Mechanical properties :
#
#
# Convention : Reuss Voigt Hill
#
# Bulk Modulus (GPa) = 44.35160 47.81087 46.08124
# Shear Modulus (GPa) = 23.15168 25.90974 24.53071
#
# Velocity S-wave (km/s) = 3.53147 3.73590 3.63512
# Velocity P-wave (km/s) = 6.36550 6.66062 6.51473
#
# Compressibility (1/GPa) = 0.02254710
#
# Stress axis : x y z
#
# Youngs Moduli (GPa) = 38.13422 82.63250 70.53161
#
# Poissons Ratio (x) = 0.55676 0.46463
# Poissons Ratio (y) = 0.25694 0.11656
# Poissons Ratio (z) = 0.25121 0.13656
#
# Static dielectric constant tensor:
#      x y z
#    x 3.357250 0.000000 0.000000 
#    y 0.000000 3.469490 0.000000 
#    z 0.000000 0.000000 3.360260 
# 
# 
# High freq. dielectric constant tensor:
#      x y z
#    x 1.720500 0.000000 0.000000 
#    y 0.000000 1.723000 0.000000 
#    z 0.000000 0.000000 1.716350 
# 
# From -- ./inp_files/43886.got.cif
#   From: 2010.03.12/outbox.cif.g09.slc.cpg/sg67_22_cif.got.tgz:43886.got - 2010.04.10 22:41:39.
