data_PCOD8279841
_publ_section_title
;
Structure prediction by ZEFSAII (Michael W. Deem and Ramdas Pophale) SiO2 
 PCOD8279841
Probable space group: C M M A
;
_chemical_formula_sum "Si O2"
_cell_formula_units_Z 96
_cell_length_a 8.763634
_cell_length_b 27.403491
_cell_length_c 23.548846
_cell_angle_alpha 90.000000
_cell_angle_beta 90.000000
_cell_angle_gamma 90.000000
_cell_volume 5655.353458
_symmetry_space_group_name_H-M "C M M A"
_symmetry_group_IT_number 67
_symmetry_cell_setting 'orthorhombic'
loop_
_space_group_symop_operation_xyz
x,y,z
-x,1/2-y,z
x,-y,-z
-x,1/2+y,-z
-x,-y,-z
x,1/2+y,-z
-x,y,z
x,1/2-y,z
1/2+x,1/2+y,z
1/2-x,-y,z
1/2+x,1/2-y,-z
1/2-x,y,-z
1/2-x,1/2-y,-z
1/2+x,y,-z
1/2-x,1/2+y,z
1/2+x,-y,z
loop_
_atom_site_type_symbol
_atom_site_label
_atom_site_fract_x
_atom_site_fract_y
_atom_site_fract_z
Si Si1 0.675859 0.194877 0.731192
Si Si2 0.179165 0.306161 0.059919
Si Si3 0.175503 0.896233 0.660133
Si Si4 0.678672 0.447886 0.776441
Si Si5 0.320487 0.948246 0.559333
Si Si6 0.820304 0.356786 0.833585
O O1 0.500000 0.187155 0.749625
O O2 0.708526 0.250000 0.711214
O O3 0.713868 0.159197 0.678717
O O4 0.777373 0.182658 0.785621
O O5 0.217632 0.250000 0.074141
O O6 0.254286 0.340280 0.106641
O O7 0.000000 0.315455 0.058215
O O8 0.250000 0.321430 0.000000
O O9 0.214188 0.932427 0.711850
O O10 0.282940 0.908601 0.607259
O O11 0.000000 0.901681 0.641441
O O12 0.500000 0.449431 0.788016
O O13 0.750000 0.500000 0.788977
O O14 0.752335 0.409560 0.819439
O O15 0.500000 0.954128 0.552382
O O16 0.250000 0.930198 0.500000
O O17 0.250000 0.000000 0.577685
O O18 0.000000 0.360872 0.837794
#
# Coordination Sequence:
#
# PCOD8279841 Si02
#       6
#    16  16  16  16  16  16
#     4   9  18  33  52  73  99 132 166 202 246 292
#     4  10  20  34  52  74 101 132 166 205 249 295
#     4   9  18  32  50  73 100 128 160 198 242 291
#     4  10  20  34  52  74 101 132 165 203 246 292
#     4  11  21  33  50  71  97 127 160 198 241 289
#     4  11  21  32  49  74 103 134 167 203 244 291
#
# _framework density 16.975066000000002
#
# number of rings (size 3 to 8) (size 9 to 14) (size 15 to 20)
#    0.000    2.000    0.000    6.500    0.000    8.000 
#    0.000    0.000    0.000    1.000    0.000    3.500 
#    0.000    0.000    0.000    0.000    0.000    0.000 
#
# Total GULP energy -595369.641647 kJ/mol
# GULP energy per Si atom -12403.534201 kJ/mol
# Density = 1.693643 g / cm^3
# Si number density = 16.975066 Si / 1000 Ang^3
#
#
#
# Elastic Constant Matrix: (Units=GPa)
#
#
# Indices 1 2 3 4 5 6 
#
# 1 119.7220 55.4065 68.5820 0.0000 0.0000 0.0000
# 2 55.4065 125.1511 71.0224 0.0000 0.0000 0.0000
# 3 68.5820 71.0224 122.2384 0.0000 0.0000 0.0000
# 4 0.0000 0.0000 0.0000 25.9119 0.0000 0.0000
# 5 0.0000 0.0000 0.0000 0.0000 31.0348 0.0000
# 6 0.0000 0.0000 0.0000 0.0000 0.0000 25.9829
#
#
#
# Elastic Compliance Matrix: (Units=1/GPa)
#
#
# Indices 1 2 3 4 5 6 
#
# 1 0.012762 -0.002367 -0.005785 0.000000 0.000000 0.000000
# 2 -0.002367 0.012360 -0.005853 0.000000 0.000000 0.000000
# 3 -0.005785 -0.005853 0.014827 0.000000 0.000000 0.000000
# 4 0.000000 0.000000 0.000000 0.038592 0.000000 0.000000
# 5 0.000000 0.000000 0.000000 0.000000 0.032222 0.000000
# 6 0.000000 0.000000 0.000000 0.000000 0.000000 0.038487
#
#
# Mechanical properties :
#
#
# Convention : Reuss Voigt Hill
#
# Bulk Modulus (GPa) = 83.76089 84.12593 83.94341
# Shear Modulus (GPa) = 27.58771 28.05928 27.82350
#
# Velocity S-wave (km/s) = 4.03574 4.07008 4.05295
# Velocity P-wave (km/s) = 8.43604 8.47075 8.45341
#
# Compressibility (1/GPa) = 0.01193875
#
# Stress axis : x y z
#
# Youngs Moduli (GPa) = 78.35797 80.90613 67.44387
#
# Poissons Ratio (x) = 0.19151 0.39015
# Poissons Ratio (y) = 0.18548 0.39477
# Poissons Ratio (z) = 0.45328 0.47357
#
# Static dielectric constant tensor:
#      x y z
#    x 3.254430 0.000000 0.000000 
#    y 0.000000 3.179420 0.000000 
#    z 0.000000 0.000000 3.081750 
# 
# 
# High freq. dielectric constant tensor:
#      x y z
#    x 1.667270 0.000000 0.000000 
#    y 0.000000 1.647260 0.000000 
#    z 0.000000 0.000000 1.644320 
# 
# From -- ./inp_files/37211.got.cif
#   From: 2010.03.12/outbox.cif.g09.slc.cpg/sg67_19_cif.got.tgz:37211.got - 2010.04.10 22:41:39.
