data_PCOD8279767
_publ_section_title
;
Structure prediction by ZEFSAII (Michael W. Deem and Ramdas Pophale) SiO2 
 PCOD8279767
Probable space group: C M M A
;
_chemical_formula_sum "Si O2"
_cell_formula_units_Z 96
_cell_length_a 19.131968
_cell_length_b 17.236863
_cell_length_c 14.500876
_cell_angle_alpha 90.000000
_cell_angle_beta 90.000000
_cell_angle_gamma 90.000000
_cell_volume 4782.027997
_symmetry_space_group_name_H-M "C M M A"
_symmetry_group_IT_number 67
_symmetry_cell_setting 'orthorhombic'
loop_
_space_group_symop_operation_xyz
x,y,z
-x,1/2-y,z
x,-y,-z
-x,1/2+y,-z
-x,-y,-z
x,1/2+y,-z
-x,y,z
x,1/2-y,z
1/2+x,1/2+y,z
1/2-x,-y,z
1/2+x,1/2-y,-z
1/2-x,y,-z
1/2-x,1/2-y,-z
1/2+x,y,-z
1/2-x,1/2+y,z
1/2+x,-y,z
loop_
_atom_site_type_symbol
_atom_site_label
_atom_site_fract_x
_atom_site_fract_y
_atom_site_fract_z
Si Si1 0.343562 0.838479 0.537212
Si Si2 0.921184 0.839486 0.287649
Si Si3 0.216834 0.414944 0.374796
Si Si4 0.420262 0.838929 0.032319
Si Si5 0.183574 0.593750 0.835418
Si Si6 0.338231 0.083017 0.131437
O O1 0.344335 0.750000 0.501078
O O2 0.409792 0.854738 0.603287
O O3 0.275450 0.850898 0.602148
O O4 0.343894 0.898886 0.451185
O O5 0.905930 0.750000 0.263267
O O6 0.869664 0.892946 0.229456
O O7 0.000000 0.862167 0.262232
O O8 0.250000 0.500000 0.385018
O O9 0.183830 0.402446 0.274891
O O10 0.500000 0.866747 0.048716
O O11 0.419071 0.750000 0.001385
O O12 0.375612 0.848588 0.126093
O O13 0.385860 0.888433 0.951454
O O14 0.259643 0.617143 0.875538
O O15 0.163874 0.509169 0.871849
#
# Coordination Sequence:
#
# PCOD8279767 Si02
#       6
#    16  16  16  16  16  16
#     4  10  20  33  55  86 119 156 199 239 289 348
#     4  10  20  35  58  89 125 162 202 247 294 347
#     4  11  19  36  58  84 116 155 192 244 299 346
#     4  11  26  44  61  86 121 159 197 242 299 360
#     4  11  23  39  62  92 118 154 197 252 299 352
#     4  11  21  40  62  91 119 154 202 249 298 348
#
# _framework density 20.075164999999998
#
# number of rings (size 3 to 8) (size 9 to 14) (size 15 to 20)
#    0.000    1.333    3.333    4.000    0.000    8.000 
#    0.000    0.833    0.000    7.000    0.000    0.000 
#    0.000    0.000    0.000    0.000    0.000    0.000 
#
# Total GULP energy -595157.760497 kJ/mol
# GULP energy per Si atom -12399.120010 kJ/mol
# Density = 2.002947 g / cm^3
# Si number density = 20.075165 Si / 1000 Ang^3
#
#
#
# Elastic Constant Matrix: (Units=GPa)
#
#
# Indices 1 2 3 4 5 6 
#
# 1 121.6358 37.1412 48.3701 0.0000 0.0000 0.0000
# 2 37.1412 58.9870 40.0655 0.0000 0.0000 0.0000
# 3 48.3701 40.0655 132.4304 0.0000 0.0000 0.0000
# 4 0.0000 0.0000 0.0000 31.4449 0.0000 0.0000
# 5 0.0000 0.0000 0.0000 0.0000 26.8716 0.0000
# 6 0.0000 0.0000 0.0000 0.0000 0.0000 27.8550
#
#
#
# Elastic Compliance Matrix: (Units=1/GPa)
#
#
# Indices 1 2 3 4 5 6 
#
# 1 0.010734 -0.005155 -0.002361 0.000000 0.000000 0.000000
# 2 -0.005155 0.023813 -0.005322 0.000000 0.000000 0.000000
# 3 -0.002361 -0.005322 0.010023 0.000000 0.000000 0.000000
# 4 0.000000 0.000000 0.000000 0.031802 0.000000 0.000000
# 5 0.000000 0.000000 0.000000 0.000000 0.037214 0.000000
# 6 0.000000 0.000000 0.000000 0.000000 0.000000 0.035900
#
#
# Mechanical properties :
#
#
# Convention : Reuss Voigt Hill
#
# Bulk Modulus (GPa) = 52.92239 62.68963 57.80601
# Shear Modulus (GPa) = 27.55411 29.73273 28.64342
#
# Velocity S-wave (km/s) = 3.70881 3.85264 3.78141
# Velocity P-wave (km/s) = 6.69027 7.14743 6.92262
#
# Compressibility (1/GPa) = 0.01889559
#
# Stress axis : x y z
#
# Youngs Moduli (GPa) = 93.15948 41.99318 99.76555
#
# Poissons Ratio (x) = 0.21648 0.23555
# Poissons Ratio (y) = 0.48025 0.53091
# Poissons Ratio (z) = 0.21995 0.22347
#
# Static dielectric constant tensor:
#      x y z
#    x 3.729460 0.000000 0.000000 
#    y 0.000000 3.618120 0.000000 
#    z 0.000000 0.000000 3.817580 
# 
# 
# High freq. dielectric constant tensor:
#      x y z
#    x 1.770240 0.000000 0.000000 
#    y 0.000000 1.779690 0.000000 
#    z 0.000000 0.000000 1.791860 
# 
# From -- ./inp_files/29278.got.cif
#   From: 2010.03.12/outbox.cif.g09.slc.cpg/sg67_15_cif.got.tgz:29278.got - 2010.04.10 22:41:39.
