data_PCOD8279619
_publ_section_title
;
Structure prediction by ZEFSAII (Michael W. Deem and Ramdas Pophale) SiO2 
 PCOD8279619
Probable space group: C M M A
;
_chemical_formula_sum "Si O2"
_cell_formula_units_Z 96
_cell_length_a 9.016023
_cell_length_b 18.470037
_cell_length_c 31.341060
_cell_angle_alpha 90.000000
_cell_angle_beta 90.000000
_cell_angle_gamma 90.000000
_cell_volume 5219.110083
_symmetry_space_group_name_H-M "C M M A"
_symmetry_group_IT_number 67
_symmetry_cell_setting 'orthorhombic'
loop_
_space_group_symop_operation_xyz
x,y,z
-x,1/2-y,z
x,-y,-z
-x,1/2+y,-z
-x,-y,-z
x,1/2+y,-z
-x,y,z
x,1/2-y,z
1/2+x,1/2+y,z
1/2-x,-y,z
1/2+x,1/2-y,-z
1/2-x,y,-z
1/2-x,1/2-y,-z
1/2+x,y,-z
1/2-x,1/2+y,z
1/2+x,-y,z
loop_
_atom_site_type_symbol
_atom_site_label
_atom_site_fract_x
_atom_site_fract_y
_atom_site_fract_z
Si Si1 0.667480 0.836334 0.541927
Si Si2 0.830932 0.664144 0.794000
Si Si3 0.832448 0.163649 0.374176
Si Si4 0.832451 0.836267 0.290369
Si Si5 0.671856 0.922879 0.960621
Si Si6 0.327177 0.577284 0.866147
O O1 0.500000 0.865937 0.542091
O O2 0.668408 0.750000 0.541907
O O3 0.750000 0.866277 0.500000
O O4 0.751010 0.866204 0.583701
O O5 0.821982 0.750000 0.795872
O O6 0.755327 0.634562 0.750827
O O7 0.743573 0.634404 0.834364
O O8 0.000000 0.636867 0.794798
O O9 0.831597 0.250000 0.374092
O O10 0.747545 0.133518 0.332663
O O11 0.000000 0.134090 0.373670
O O12 0.831846 0.750000 0.290941
O O13 0.000000 0.866095 0.289061
O O14 0.500000 0.931575 0.971504
O O15 0.694733 0.888397 0.913702
O O16 0.750000 0.000000 0.958717
O O17 0.750000 0.878518 0.000000
O O18 0.500000 0.566981 0.855864
O O19 0.250000 0.500000 0.860988
#
# Coordination Sequence:
#
# PCOD8279619 Si02
#       6
#    16  16  16  16  16  16
#     4   9  15  21  28  39  57  83 117 158 205 255
#     4  10  20  33  49  69  93 122 156 194 235 278
#     4   9  15  22  32  46  65  90 123 165 210 255
#     4   9  16  26  40  57  77 103 137 177 219 263
#     4   9  16  26  43  67  93 120 150 185 224 266
#     4  10  20  33  50  73  99 126 156 191 231 275
#
# _framework density 18.393939
#
# number of rings (size 3 to 8) (size 9 to 14) (size 15 to 20)
#    0.000    2.667    0.000    3.500    0.000    9.000 
#    0.000    0.000    0.000    0.500    0.000    0.000 
#    0.000    0.000    0.000    0.000    0.000    0.833 
#
# Total GULP energy -594968.813021 kJ/mol
# GULP energy per Si atom -12395.183605 kJ/mol
# Density = 1.835207 g / cm^3
# Si number density = 18.393939 Si / 1000 Ang^3
#
#
#
# Elastic Constant Matrix: (Units=GPa)
#
#
# Indices 1 2 3 4 5 6 
#
# 1 191.5804 13.9667 106.7298 0.0000 0.0000 0.0000
# 2 13.9667 6.4415 14.9337 0.0000 0.0000 0.0000
# 3 106.7298 14.9337 193.5076 0.0000 0.0000 0.0000
# 4 0.0000 0.0000 0.0000 -1.6144 0.0000 0.0000
# 5 0.0000 0.0000 0.0000 0.0000 42.8459 0.0000
# 6 0.0000 0.0000 0.0000 0.0000 0.0000 14.1001
#
#
#
# Elastic Compliance Matrix: (Units=1/GPa)
#
#
# Indices 1 2 3 4 5 6 
#
# 1 0.007905 -0.008564 -0.003699 0.000000 0.000000 0.000000
# 2 -0.008564 0.198350 -0.010584 0.000000 0.000000 0.000000
# 3 -0.003699 -0.010584 0.008025 0.000000 0.000000 0.000000
# 4 0.000000 0.000000 0.000000 -0.619407 0.000000 0.000000
# 5 0.000000 0.000000 0.000000 0.000000 0.023339 0.000000
# 6 0.000000 0.000000 0.000000 0.000000 0.000000 0.070921
#
#
# Mechanical properties :
#
#
# Convention : Reuss Voigt Hill
#
# Bulk Modulus (GPa) = 5.93169 73.64331 39.78750
# Shear Modulus (GPa) = -23.92598 28.12627 2.10014
#
# Velocity S-wave (km/s) = -3.61051 3.91462 1.06969
# Velocity P-wave (km/s) = 3.76155 7.78177 4.81699
#
# Compressibility (1/GPa) = 0.16858595
#
# Stress axis : x y z
#
# Youngs Moduli (GPa) = 126.50560 5.04159 124.61419
#
# Poissons Ratio (x) = 0.04318 0.46095
# Poissons Ratio (y) = 1.08337 1.31892
# Poissons Ratio (z) = 0.46795 0.05336
#
# Static dielectric constant tensor:
#      x y z
#    x 3.676830 0.000000 0.000000 
#    y 0.000000 2.536280 0.000000 
#    z 0.000000 0.000000 4.033680 
# 
# 
# High freq. dielectric constant tensor:
#      x y z
#    x 1.737640 0.000000 0.000000 
#    y 0.000000 1.616240 0.000000 
#    z 0.000000 0.000000 1.740570 
# 
# From -- ./inp_files/43667.got.cif
#   From: 2010.03.12/outbox.cif.g09.slc.cpg/sg67_22_cif.got.tgz:43667.got - 2010.04.10 22:41:39.
