data_PCOD8279982
_publ_section_title
;
Structure prediction by ZEFSAII (Michael W. Deem and Ramdas Pophale) SiO2 
 PCOD8279982
Probable space group: C M M A
;
_chemical_formula_sum "Si O2"
_cell_formula_units_Z 104
_cell_length_a 20.520155
_cell_length_b 8.744451
_cell_length_c 29.854743
_cell_angle_alpha 90.000000
_cell_angle_beta 90.000000
_cell_angle_gamma 90.000000
_cell_volume 5357.060146
_symmetry_space_group_name_H-M "C M M A"
_symmetry_group_IT_number 67
_symmetry_cell_setting 'orthorhombic'
loop_
_space_group_symop_operation_xyz
x,y,z
-x,1/2-y,z
x,-y,-z
-x,1/2+y,-z
-x,-y,-z
x,1/2+y,-z
-x,y,z
x,1/2-y,z
1/2+x,1/2+y,z
1/2-x,-y,z
1/2+x,1/2-y,-z
1/2-x,y,-z
1/2-x,1/2-y,-z
1/2+x,y,-z
1/2-x,1/2+y,z
1/2+x,-y,z
loop_
_atom_site_type_symbol
_atom_site_label
_atom_site_fract_x
_atom_site_fract_y
_atom_site_fract_z
Si Si1 0.423963 0.572440 0.888432
Si Si2 0.927365 0.067744 0.299797
Si Si3 0.000000 0.574311 0.452866
Si Si4 0.923105 0.081275 0.201669
Si Si5 0.817627 0.431317 0.048686
Si Si6 0.859226 0.569486 0.450719
Si Si7 0.814637 0.431010 0.363798
O O1 0.500000 0.529795 0.896440
O O2 0.411431 0.750000 0.897461
O O3 0.402094 0.534025 0.837626
O O4 0.379567 0.473396 0.921234
O O5 0.930054 0.250000 0.300515
O O6 0.901959 0.015947 0.250405
O O7 0.876970 0.004717 0.336639
O O8 0.000000 0.002161 0.310301
O O9 0.000000 0.500000 0.500000
O O10 0.931573 0.529637 0.429938
O O11 0.000000 0.750000 0.463707
O O12 0.892442 0.250000 0.192648
O O13 0.000000 0.098714 0.203095
O O14 0.810960 0.250000 0.045559
O O15 0.750000 0.500000 0.068527
O O16 0.830708 0.500000 0.000000
O O17 0.847734 0.500000 0.500000
O O18 0.845921 0.750000 0.453144
O O19 0.812675 0.489955 0.415030
O O20 0.812414 0.250000 0.362837
O O21 0.750000 0.500000 0.340591
#
# Coordination Sequence:
#
# PCOD8279982 Si02
#       7
#    16  16   8  16  16  16  16
#     4  10  20  34  54  83 117 149 186 233 281 330
#     4   8  16  33  58  84 106 136 181 226 268 320
#     4   8  16  30  50  76 106 132 160 204 252 298
#     4   8  14  29  54  81 108 139 179 226 275 327
#     4  11  22  38  58  79 109 149 193 237 285 338
#     4  10  20  36  56  80 108 139 175 214 261 313
#     4  11  23  38  56  79 110 144 178 219 267 319
#
# _framework density 19.413632
#
# number of rings (size 3 to 8) (size 9 to 14) (size 15 to 20)
#    0.000    2.462    0.000    4.154    1.077    2.154 
#    0.000    3.846    0.000    3.692    0.000    0.000 
#    0.000    0.000    0.000    0.000    0.000    0.000 
#
# Total GULP energy -644354.460966 kJ/mol
# GULP energy per Si atom -12391.431942 kJ/mol
# Density = 1.936945 g / cm^3
# Si number density = 19.413632 Si / 1000 Ang^3
#
#
#
# Elastic Constant Matrix: (Units=GPa)
#
#
# Indices 1 2 3 4 5 6 
#
# 1 107.2298 40.6539 60.5025 0.0000 0.0000 0.0000
# 2 40.6539 88.7261 40.3154 0.0000 0.0000 0.0000
# 3 60.5025 40.3154 111.9804 0.0000 0.0000 0.0000
# 4 0.0000 0.0000 0.0000 24.5605 0.0000 0.0000
# 5 0.0000 0.0000 0.0000 0.0000 14.1606 0.0000
# 6 0.0000 0.0000 0.0000 0.0000 0.0000 27.4857
#
#
#
# Elastic Compliance Matrix: (Units=1/GPa)
#
#
# Indices 1 2 3 4 5 6 
#
# 1 0.014339 -0.003646 -0.006434 0.000000 0.000000 0.000000
# 2 -0.003646 0.014402 -0.003215 0.000000 0.000000 0.000000
# 3 -0.006434 -0.003215 0.013564 0.000000 0.000000 0.000000
# 4 0.000000 0.000000 0.000000 0.040716 0.000000 0.000000
# 5 0.000000 0.000000 0.000000 0.000000 0.070618 0.000000
# 6 0.000000 0.000000 0.000000 0.000000 0.000000 0.036383
#
#
# Mechanical properties :
#
#
# Convention : Reuss Voigt Hill
#
# Bulk Modulus (GPa) = 63.63928 65.65334 64.64631
# Shear Modulus (GPa) = 22.53765 24.33899 23.43832
#
# Velocity S-wave (km/s) = 3.41092 3.54461 3.47841
# Velocity P-wave (km/s) = 6.95445 7.11646 7.03592
#
# Compressibility (1/GPa) = 0.01571357
#
# Stress axis : x y z
#
# Youngs Moduli (GPa) = 69.74152 69.43382 73.72407
#
# Poissons Ratio (x) = 0.25317 0.47437
# Poissons Ratio (y) = 0.25430 0.23703
# Poissons Ratio (z) = 0.44874 0.22323
#
# Static dielectric constant tensor:
#      x y z
#    x 3.816870 0.000000 0.000000 
#    y 0.000000 3.404980 0.000000 
#    z 0.000000 0.000000 3.677390 
# 
# 
# High freq. dielectric constant tensor:
#      x y z
#    x 1.749140 0.000000 0.000000 
#    y 0.000000 1.746680 0.000000 
#    z 0.000000 0.000000 1.749720 
# 
# From -- ./inp_files/45861.got.cif
#   From: 2010.03.12/outbox.cif.g09.slc.cpg/sg67_23_cif.got.tgz:45861.got - 2010.04.10 22:41:39.
