data_PCOD8279384
_publ_section_title
;
Structure prediction by ZEFSAII (Michael W. Deem and Ramdas Pophale) SiO2 
 PCOD8279384
Probable space group: C M M A
;
_chemical_formula_sum "Si O2"
_cell_formula_units_Z 104
_cell_length_a 9.094560
_cell_length_b 21.452531
_cell_length_c 27.821403
_cell_angle_alpha 90.000000
_cell_angle_beta 90.000000
_cell_angle_gamma 90.000000
_cell_volume 5427.992737
_symmetry_space_group_name_H-M "C M M A"
_symmetry_group_IT_number 67
_symmetry_cell_setting 'orthorhombic'
loop_
_space_group_symop_operation_xyz
x,y,z
-x,1/2-y,z
x,-y,-z
-x,1/2+y,-z
-x,-y,-z
x,1/2+y,-z
-x,y,z
x,1/2-y,z
1/2+x,1/2+y,z
1/2-x,-y,z
1/2+x,1/2-y,-z
1/2-x,y,-z
1/2-x,1/2-y,-z
1/2+x,y,-z
1/2-x,1/2+y,z
1/2+x,-y,z
loop_
_atom_site_type_symbol
_atom_site_label
_atom_site_fract_x
_atom_site_fract_y
_atom_site_fract_z
Si Si1 0.665176 0.323186 0.045868
Si Si2 0.250000 0.500000 0.617837
Si Si3 0.660254 0.407195 0.306121
Si Si4 0.674881 0.322657 0.855459
Si Si5 0.825691 0.818576 0.630688
Si Si6 0.674347 0.936324 0.801035
Si Si7 0.161394 0.400737 0.452407
O O1 0.500000 0.351900 0.050579
O O2 0.649680 0.250000 0.038410
O O3 0.762691 0.338565 0.092141
O O4 0.750000 0.352541 0.000000
O O5 0.352542 0.540653 0.652578
O O6 0.146817 0.540100 0.582765
O O7 0.500000 0.375916 0.300849
O O8 0.776409 0.355214 0.321922
O O9 0.707948 0.436584 0.255689
O O10 0.500000 0.332979 0.854948
O O11 0.711738 0.250000 0.841375
O O12 0.752828 0.372400 0.820528
O O13 0.760828 0.750000 0.635069
O O14 0.764756 0.846475 0.580212
O O15 0.000000 0.820542 0.629488
O O16 0.500000 0.937285 0.812865
O O17 0.750000 0.000000 0.821841
O O18 0.250000 0.415975 0.500000
O O19 0.000000 0.381118 0.469718
#
# Coordination Sequence:
#
# PCOD8279384 Si02
#       7
#    16   8  16  16  16  16  16
#     4   9  16  28  50  81 116 154 197 246 297 346
#     4  10  19  36  56  76 104 132 169 212 264 318
#     4  10  21  36  57  82 104 133 175 222 270 320
#     4  10  21  37  57  84 119 158 200 245 294 347
#     4   9  20  38  56  75 103 139 175 212 260 319
#     4  11  23  39  59  84 115 152 194 239 291 350
#     4  10  21  34  52  76 103 134 168 209 257 313
#
# _framework density 19.159935999999998
#
# number of rings (size 3 to 8) (size 9 to 14) (size 15 to 20)
#    0.000    2.154    0.769    2.077    0.000    9.538 
#    0.000    3.077    0.000    0.462    0.000    3.231 
#    0.000    0.000    0.000    0.000    0.000    0.000 
#
# Total GULP energy -644376.694482 kJ/mol
# GULP energy per Si atom -12391.859509 kJ/mol
# Density = 1.911633 g / cm^3
# Si number density = 19.159936 Si / 1000 Ang^3
#
#
#
# Elastic Constant Matrix: (Units=GPa)
#
#
# Indices 1 2 3 4 5 6 
#
# 1 102.0307 43.2260 50.2977 0.0000 0.0000 0.0000
# 2 43.2260 112.1687 41.2041 0.0000 0.0000 0.0000
# 3 50.2977 41.2041 91.2813 0.0000 0.0000 0.0000
# 4 0.0000 0.0000 0.0000 13.0526 0.0000 0.0000
# 5 0.0000 0.0000 0.0000 0.0000 26.2124 0.0000
# 6 0.0000 0.0000 0.0000 0.0000 0.0000 24.6652
#
#
#
# Elastic Compliance Matrix: (Units=1/GPa)
#
#
# Indices 1 2 3 4 5 6 
#
# 1 0.014324 -0.003141 -0.006475 0.000000 0.000000 0.000000
# 2 -0.003141 0.011376 -0.003404 0.000000 0.000000 0.000000
# 3 -0.006475 -0.003404 0.016059 0.000000 0.000000 0.000000
# 4 0.000000 0.000000 0.000000 0.076613 0.000000 0.000000
# 5 0.000000 0.000000 0.000000 0.000000 0.038150 0.000000
# 6 0.000000 0.000000 0.000000 0.000000 0.000000 0.040543
#
#
# Mechanical properties :
#
#
# Convention : Reuss Voigt Hill
#
# Bulk Modulus (GPa) = 63.61789 63.88181 63.74985
# Shear Modulus (GPa) = 21.89669 24.16957 23.03313
#
# Velocity S-wave (km/s) = 3.38426 3.55556 3.47097
# Velocity P-wave (km/s) = 6.96754 7.09012 7.02909
#
# Compressibility (1/GPa) = 0.01571885
#
# Stress axis : x y z
#
# Youngs Moduli (GPa) = 69.81483 87.90238 62.26889
#
# Poissons Ratio (x) = 0.27614 0.40316
# Poissons Ratio (y) = 0.21932 0.21198
# Poissons Ratio (z) = 0.45202 0.29924
#
# Static dielectric constant tensor:
#      x y z
#    x 3.544510 0.000000 0.000000 
#    y 0.000000 3.550420 0.000000 
#    z 0.000000 0.000000 3.504650 
# 
# 
# High freq. dielectric constant tensor:
#      x y z
#    x 1.749000 0.000000 0.000000 
#    y 0.000000 1.725130 0.000000 
#    z 0.000000 0.000000 1.743050 
# 
# From -- ./inp_files/43603.got.cif
#   From: 2010.03.12/outbox.cif.g09.slc.cpg/sg67_22_cif.got.tgz:43603.got - 2010.04.10 22:41:39.
