data_PCOD8279026
_publ_section_title
;
Structure prediction by ZEFSAII (Michael W. Deem and Ramdas Pophale) SiO2 
 PCOD8279026
Probable space group: C M M A
;
_chemical_formula_sum "Si O2"
_cell_formula_units_Z 112
_cell_length_a 14.142146
_cell_length_b 15.402157
_cell_length_c 22.459985
_cell_angle_alpha 90.000000
_cell_angle_beta 90.000000
_cell_angle_gamma 90.000000
_cell_volume 4892.223893
_symmetry_space_group_name_H-M "C M M A"
_symmetry_group_IT_number 67
_symmetry_cell_setting 'orthorhombic'
loop_
_space_group_symop_operation_xyz
x,y,z
-x,1/2-y,z
x,-y,-z
-x,1/2+y,-z
-x,-y,-z
x,1/2+y,-z
-x,y,z
x,1/2-y,z
1/2+x,1/2+y,z
1/2-x,-y,z
1/2+x,1/2-y,-z
1/2-x,y,-z
1/2-x,1/2-y,-z
1/2+x,y,-z
1/2-x,1/2+y,z
1/2+x,-y,z
loop_
_atom_site_type_symbol
_atom_site_label
_atom_site_fract_x
_atom_site_fract_y
_atom_site_fract_z
Si Si1 0.226661 0.596416 0.408260
Si Si2 0.611998 0.023065 0.194730
Si Si3 0.604742 0.159342 0.106722
Si Si4 0.609414 0.654103 0.147841
Si Si5 0.107847 0.150542 0.484200
Si Si6 0.140842 0.594039 0.986410
Si Si7 0.608869 0.152437 0.298894
O O1 0.250000 0.500000 0.386872
O O2 0.153537 0.592404 0.463678
O O3 0.326262 0.641848 0.425679
O O4 0.177401 0.648487 0.355357
O O5 0.500000 0.014359 0.189118
O O6 0.655445 0.077351 0.138273
O O7 0.640774 0.076104 0.253646
O O8 0.653883 0.924167 0.189382
O O9 0.500000 0.163876 0.134670
O O10 0.657766 0.250000 0.123025
O O11 0.595313 0.156058 0.035602
O O12 0.500000 0.661319 0.163239
O O13 0.655239 0.750000 0.160344
O O14 0.620116 0.628847 0.078922
O O15 0.109092 0.250000 0.505729
O O16 0.000000 0.120426 0.470488
O O17 0.095823 0.500000 0.000000
O O18 0.250000 0.592322 0.000000
O O19 0.500000 0.136813 0.318516
O O20 0.619054 0.250000 0.271364
#
# Coordination Sequence:
#
# PCOD8279026 Si02
#       7
#    16  16  16  16  16  16  16
#     4  11  22  35  56  90 130 171 207 257 308 370
#     4   9  18  34  57  84 112 141 185 244 299 354
#     4  10  19  32  53  78 104 137 178 226 286 353
#     4  10  20  35  57  82 109 147 192 236 294 369
#     4  10  20  36  61  92 129 172 214 256 304 360
#     4  11  22  34  49  74 107 146 181 230 289 358
#     4  10  20  37  63  91 120 158 206 262 321 376
#
# _framework density 22.893476
#
# number of rings (size 3 to 8) (size 9 to 14) (size 15 to 20)
#    0.000    1.857    1.429    4.286    0.000    7.429 
#    0.000    1.429    0.000    4.286    0.000    2.000 
#    0.000    0.000    0.000    0.000    0.000    0.143 
#
# Total GULP energy -693736.703727 kJ/mol
# GULP energy per Si atom -12388.155424 kJ/mol
# Density = 2.284137 g / cm^3
# Si number density = 22.893476 Si / 1000 Ang^3
#
#
#
# Elastic Constant Matrix: (Units=GPa)
#
#
# Indices 1 2 3 4 5 6 
#
# 1 94.8582 24.3384 30.6490 0.0000 0.0000 0.0000
# 2 24.3384 194.3196 56.3928 0.0000 0.0000 0.0000
# 3 30.6490 56.3928 108.0604 0.0000 0.0000 0.0000
# 4 0.0000 0.0000 0.0000 23.2865 0.0000 0.0000
# 5 0.0000 0.0000 0.0000 0.0000 7.7205 0.0000
# 6 0.0000 0.0000 0.0000 0.0000 0.0000 17.8777
#
#
#
# Elastic Compliance Matrix: (Units=1/GPa)
#
#
# Indices 1 2 3 4 5 6 
#
# 1 0.011663 -0.000590 -0.003000 0.000000 0.000000 0.000000
# 2 -0.000590 0.006095 -0.003013 0.000000 0.000000 0.000000
# 3 -0.003000 -0.003013 0.011677 0.000000 0.000000 0.000000
# 4 0.000000 0.000000 0.000000 0.042943 0.000000 0.000000
# 5 0.000000 0.000000 0.000000 0.000000 0.129525 0.000000
# 6 0.000000 0.000000 0.000000 0.000000 0.000000 0.055936
#
#
# Mechanical properties :
#
#
# Convention : Reuss Voigt Hill
#
# Bulk Modulus (GPa) = 61.62086 68.88875 65.25480
# Shear Modulus (GPa) = 18.08620 28.83416 23.46018
#
# Velocity S-wave (km/s) = 2.81377 3.55278 3.20465
# Velocity P-wave (km/s) = 6.12627 6.85463 6.50066
#
# Compressibility (1/GPa) = 0.01622827
#
# Stress axis : x y z
#
# Youngs Moduli (GPa) = 85.74302 164.08222 85.63567
#
# Poissons Ratio (x) = 0.09683 0.25690
# Poissons Ratio (y) = 0.05060 0.25803
# Poissons Ratio (z) = 0.25722 0.49440
#
# Static dielectric constant tensor:
#      x y z
#    x 4.025980 0.000000 0.000000 
#    y 0.000000 4.723330 0.000000 
#    z 0.000000 0.000000 3.723950 
# 
# 
# High freq. dielectric constant tensor:
#      x y z
#    x 1.897200 0.000000 0.000000 
#    y 0.000000 1.923750 0.000000 
#    z 0.000000 0.000000 1.867260 
# 
# From -- ./inp_files/41922.got.cif
#   From: 2010.03.12/outbox.cif.g09.slc.cpg/sg67_21_cif.got.tgz:41922.got - 2010.04.10 22:41:39.
