data_PCOD8279637
_publ_section_title
;
Structure prediction by ZEFSAII (Michael W. Deem and Ramdas Pophale) SiO2 
 PCOD8279637
Probable space group: C M M A
;
_chemical_formula_sum "Si O2"
_cell_formula_units_Z 80
_cell_length_a 8.944051
_cell_length_b 27.284157
_cell_length_c 20.764456
_cell_angle_alpha 90.000000
_cell_angle_beta 90.000000
_cell_angle_gamma 90.000000
_cell_volume 5067.168713
_symmetry_space_group_name_H-M "C M M A"
_symmetry_group_IT_number 67
_symmetry_cell_setting 'orthorhombic'
loop_
_space_group_symop_operation_xyz
x,y,z
-x,1/2-y,z
x,-y,-z
-x,1/2+y,-z
-x,-y,-z
x,1/2+y,-z
-x,y,z
x,1/2-y,z
1/2+x,1/2+y,z
1/2-x,-y,z
1/2+x,1/2-y,-z
1/2-x,y,-z
1/2-x,1/2-y,-z
1/2+x,y,-z
1/2-x,1/2+y,z
1/2+x,-y,z
loop_
_atom_site_type_symbol
_atom_site_label
_atom_site_fract_x
_atom_site_fract_y
_atom_site_fract_z
Si Si1 0.668902 0.949876 0.253502
Si Si2 0.322410 0.135398 0.310424
Si Si3 0.669203 0.355274 0.815131
Si Si4 0.175881 0.305880 0.565020
Si Si5 0.674898 0.306464 0.066591
O O1 0.500000 0.960508 0.276703
O O2 0.757844 0.920435 0.310099
O O3 0.668619 0.914907 0.189955
O O4 0.750000 0.000000 0.235785
O O5 0.500000 0.135007 0.303882
O O6 0.252422 0.165128 0.249316
O O7 0.268009 0.161557 0.375412
O O8 0.500000 0.334648 0.817928
O O9 0.758743 0.340077 0.877878
O O10 0.226413 0.250000 0.577611
O O11 0.250000 0.326487 0.500000
O O12 0.000000 0.309868 0.556837
O O13 0.500000 0.316152 0.060866
O O14 0.711071 0.250000 0.082553
O O15 0.750000 0.322461 0.000000
#
# Coordination Sequence:
#
# PCOD8279637 Si02
#       5
#    16  16  16  16  16
#     4   9  18  31  50  73  96 123 156 196 243 290
#     4   9  17  30  48  71  98 127 160 199 240 283
#     4   9  19  32  48  73  98 125 161 199 239 284
#     4   9  18  31  47  68  96 131 165 196 234 282
#     4  10  20  33  50  71  98 133 166 197 237 283
#
# _framework density 15.787909000000001
#
# number of rings (size 3 to 8) (size 9 to 14) (size 15 to 20)
#    1.200    1.600    0.000    1.800    0.000    3.600 
#    0.000    2.000    0.000    1.200    0.000    8.400 
#    0.000    0.000    0.000    0.000    0.000    0.000 
#
# Total GULP energy -495671.703041 kJ/mol
# GULP energy per Si atom -12391.792576 kJ/mol
# Density = 1.575198 g / cm^3
# Si number density = 15.787909 Si / 1000 Ang^3
#
#
#
# Elastic Constant Matrix: (Units=GPa)
#
#
# Indices 1 2 3 4 5 6 
#
# 1 95.3831 38.2112 57.4393 0.0000 0.0000 0.0000
# 2 38.2112 69.0427 55.7524 0.0000 0.0000 0.0000
# 3 57.4393 55.7524 129.0960 0.0000 0.0000 0.0000
# 4 0.0000 0.0000 0.0000 4.7228 0.0000 0.0000
# 5 0.0000 0.0000 0.0000 0.0000 31.4615 0.0000
# 6 0.0000 0.0000 0.0000 0.0000 0.0000 21.8244
#
#
#
# Elastic Compliance Matrix: (Units=1/GPa)
#
#
# Indices 1 2 3 4 5 6 
#
# 1 0.015191 -0.004529 -0.004803 0.000000 0.000000 0.000000
# 2 -0.004529 0.023590 -0.008173 0.000000 0.000000 0.000000
# 3 -0.004803 -0.008173 0.013413 0.000000 0.000000 0.000000
# 4 0.000000 0.000000 0.000000 0.211738 0.000000 0.000000
# 5 0.000000 0.000000 0.000000 0.000000 0.031785 0.000000
# 6 0.000000 0.000000 0.000000 0.000000 0.000000 0.045820
#
#
# Mechanical properties :
#
#
# Convention : Reuss Voigt Hill
#
# Bulk Modulus (GPa) = 58.19282 66.25863 62.22573
# Shear Modulus (GPa) = 13.07966 21.07632 17.07799
#
# Velocity S-wave (km/s) = 2.88142 3.65768 3.29251
# Velocity P-wave (km/s) = 6.92887 7.73933 7.34529
#
# Compressibility (1/GPa) = 0.01718425
#
# Stress axis : x y z
#
# Youngs Moduli (GPa) = 65.83003 42.39163 74.55614
#
# Poissons Ratio (x) = 0.19198 0.35810
# Poissons Ratio (y) = 0.29812 0.60932
# Poissons Ratio (z) = 0.31619 0.34645
#
# Static dielectric constant tensor:
#      x y z
#    x 3.090280 0.000000 0.000000 
#    y 0.000000 2.812430 0.000000 
#    z 0.000000 0.000000 2.890940 
# 
# 
# High freq. dielectric constant tensor:
#      x y z
#    x 1.624780 0.000000 0.000000 
#    y 0.000000 1.582220 0.000000 
#    z 0.000000 0.000000 1.591510 
# 
# From -- ./inp_files/37397.got.cif
#   From: 2010.03.12/outbox.cif.g09.slc.cpg/sg67_19_cif.got.tgz:37397.got - 2010.04.10 22:41:39.
