data_PCOD8279785
_publ_section_title
;
Structure prediction by ZEFSAII (Michael W. Deem and Ramdas Pophale) SiO2 
 PCOD8279785
Probable space group: C M M A
;
_chemical_formula_sum "Si O2"
_cell_formula_units_Z 80
_cell_length_a 18.531985
_cell_length_b 14.505316
_cell_length_c 16.365829
_cell_angle_alpha 90.000000
_cell_angle_beta 90.000000
_cell_angle_gamma 90.000000
_cell_volume 4399.336111
_symmetry_space_group_name_H-M "C M M A"
_symmetry_group_IT_number 67
_symmetry_cell_setting 'orthorhombic'
loop_
_space_group_symop_operation_xyz
x,y,z
-x,1/2-y,z
x,-y,-z
-x,1/2+y,-z
-x,-y,-z
x,1/2+y,-z
-x,y,z
x,1/2-y,z
1/2+x,1/2+y,z
1/2-x,-y,z
1/2+x,1/2-y,-z
1/2-x,y,-z
1/2-x,1/2-y,-z
1/2+x,y,-z
1/2-x,1/2+y,z
1/2+x,-y,z
loop_
_atom_site_type_symbol
_atom_site_label
_atom_site_fract_x
_atom_site_fract_y
_atom_site_fract_z
Si Si1 0.164281 0.146771 0.992204
Si Si2 0.821254 0.354720 0.453144
Si Si3 0.335681 0.992056 0.127316
Si Si4 0.581921 0.645199 0.603907
Si Si5 0.165974 0.490430 0.308259
O O1 0.131363 0.250000 0.987980
O O2 0.138136 0.089538 0.912070
O O3 0.250000 0.151842 0.000000
O O4 0.136132 0.093109 0.072618
O O5 0.803663 0.250000 0.427146
O O6 0.750000 0.395683 0.500000
O O7 0.889941 0.362127 0.511564
O O8 0.846441 0.408624 0.372558
O O9 0.250000 0.000000 0.127762
O O10 0.367252 0.973003 0.218149
O O11 0.500000 0.608960 0.605567
O O12 0.587220 0.750000 0.635251
O O13 0.631917 0.585494 0.662086
O O14 0.250000 0.500000 0.297274
#
# Coordination Sequence:
#
# PCOD8279785 Si02
#       5
#    16  16  16  16  16
#     4   8  13  25  42  59  92 133 162 199 253 306
#     4  10  20  34  50  71 102 138 176 216 260 311
#     4   8  16  26  38  67  98 124 164 206 250 310
#     4  10  22  38  54  74 103 141 182 220 260 311
#     4  11  20  30  51  77 104 135 171 218 267 310
#
# _framework density 18.184560999999999
#
# number of rings (size 3 to 8) (size 9 to 14) (size 15 to 20)
#    0.000    2.600    2.000    1.800    0.000    3.200 
#    0.000    4.000    0.000    0.000    0.000    2.800 
#    0.000    1.600    0.000    0.000    0.000    0.000 
#
# Total GULP energy -495684.261017 kJ/mol
# GULP energy per Si atom -12392.106525 kJ/mol
# Density = 1.814317 g / cm^3
# Si number density = 18.184561 Si / 1000 Ang^3
#
#
#
# Elastic Constant Matrix: (Units=GPa)
#
#
# Indices 1 2 3 4 5 6 
#
# 1 53.0872 24.6146 20.8107 0.0000 0.0000 0.0000
# 2 24.6146 136.4230 80.8922 0.0000 0.0000 0.0000
# 3 20.8107 80.8922 154.7680 0.0000 0.0000 0.0000
# 4 0.0000 0.0000 0.0000 -3.0587 0.0000 0.0000
# 5 0.0000 0.0000 0.0000 0.0000 205.9749 0.0000
# 6 0.0000 0.0000 0.0000 0.0000 0.0000 17.8759
#
#
#
# Elastic Compliance Matrix: (Units=1/GPa)
#
#
# Indices 1 2 3 4 5 6 
#
# 1 0.020711 -0.003022 -0.001205 0.000000 0.000000 0.000000
# 2 -0.003022 0.011063 -0.005376 0.000000 0.000000 0.000000
# 3 -0.001205 -0.005376 0.009433 0.000000 0.000000 0.000000
# 4 0.000000 0.000000 0.000000 -0.326937 0.000000 0.000000
# 5 0.000000 0.000000 0.000000 0.000000 0.004855 0.000000
# 6 0.000000 0.000000 0.000000 0.000000 0.000000 0.055941
#
#
# Mechanical properties :
#
#
# Convention : Reuss Voigt Hill
#
# Bulk Modulus (GPa) = 45.45406 66.32368 55.88887
# Shear Modulus (GPa) = -25.20239 58.68915 16.74338
#
# Velocity S-wave (km/s) = -3.72684 5.68720 3.03767
# Velocity P-wave (km/s) = 2.55561 8.92622 6.56538
#
# Compressibility (1/GPa) = 0.02200023
#
# Stress axis : x y z
#
# Youngs Moduli (GPa) = 48.28435 90.39060 106.00878
#
# Poissons Ratio (x) = 0.27317 0.12777
# Poissons Ratio (y) = 0.14592 0.56990
# Poissons Ratio (z) = 0.05820 0.48594
#
# Static dielectric constant tensor:
#      x y z
#    x 2.897040 0.000000 0.000000 
#    y 0.000000 3.558730 0.000000 
#    z 0.000000 0.000000 3.748240 
# 
# 
# High freq. dielectric constant tensor:
#      x y z
#    x 1.652010 0.000000 0.000000 
#    y 0.000000 1.710840 0.000000 
#    z 0.000000 0.000000 1.704420 
# 
# From -- ./inp_files/33550.got.cif
#   From: 2010.03.12/outbox.cif.g09.slc.cpg/sg67_17_cif.got.tgz:33550.got - 2010.04.10 22:41:39.
