data_PCOD8279013
_publ_section_title
;
Structure prediction by ZEFSAII (Michael W. Deem and Ramdas Pophale) SiO2 
 PCOD8279013
Probable space group: C M M A
;
_chemical_formula_sum "Si O2"
_cell_formula_units_Z 96
_cell_length_a 8.810804
_cell_length_b 18.858439
_cell_length_c 31.192947
_cell_angle_alpha 90.000000
_cell_angle_beta 90.000000
_cell_angle_gamma 90.000000
_cell_volume 5182.957993
_symmetry_space_group_name_H-M "C M M A"
_symmetry_group_IT_number 67
_symmetry_cell_setting 'orthorhombic'
loop_
_space_group_symop_operation_xyz
x,y,z
-x,1/2-y,z
x,-y,-z
-x,1/2+y,-z
-x,-y,-z
x,1/2+y,-z
-x,y,z
x,1/2-y,z
1/2+x,1/2+y,z
1/2-x,-y,z
1/2+x,1/2-y,-z
1/2-x,y,-z
1/2-x,1/2-y,-z
1/2+x,y,-z
1/2-x,1/2+y,z
1/2+x,-y,z
loop_
_atom_site_type_symbol
_atom_site_label
_atom_site_fract_x
_atom_site_fract_y
_atom_site_fract_z
Si Si1 0.319659 0.926161 0.453987
Si Si2 0.820908 0.077534 0.881966
Si Si3 0.676543 0.424680 0.210863
Si Si4 0.824812 0.333258 0.043787
Si Si5 0.322424 0.832525 0.616652
Si Si6 0.678662 0.076972 0.303278
O O1 0.500000 0.933139 0.457611
O O2 0.250000 0.907621 0.500000
O O3 0.274945 0.863199 0.422303
O O4 0.250000 0.000000 0.436590
O O5 0.779872 0.111764 0.834700
O O6 0.754464 0.130764 0.916223
O O7 0.000000 0.070961 0.888644
O O8 0.750000 0.000000 0.887719
O O9 0.500000 0.437843 0.211125
O O10 0.750000 0.500000 0.210782
O O11 0.723768 0.388426 0.256377
O O12 0.798967 0.250000 0.048684
O O13 0.000000 0.354320 0.042869
O O14 0.750000 0.361427 0.000000
O O15 0.500000 0.846710 0.608274
O O16 0.286419 0.750000 0.620637
O O17 0.264684 0.869067 0.660456
O O18 0.500000 0.066691 0.306638
O O19 0.750000 0.000000 0.310657
#
# Coordination Sequence:
#
# PCOD8279013 Si02
#       6
#    16  16  16  16  16  16
#     4  11  22  38  60  83 107 135 172 216 260 309
#     4  10  19  32  52  78 107 136 169 211 257 305
#     4   8  15  28  47  73 102 132 168 209 253 300
#     4  10  21  37  55  74  99 132 170 211 256 308
#     4  10  21  36  53  76 109 145 178 214 258 306
#     4   9  17  31  52  76 101 134 175 215 255 300
#
# _framework density 18.522241999999999
#
# number of rings (size 3 to 8) (size 9 to 14) (size 15 to 20)
#    0.000    2.333    0.000    3.500    0.000    4.667 
#    0.000    2.500    0.000    3.000    0.000    0.000 
#    0.000    0.000    0.000    0.000    0.000    0.000 
#
# Total GULP energy -594792.891638 kJ/mol
# GULP energy per Si atom -12391.518576 kJ/mol
# Density = 1.848008 g / cm^3
# Si number density = 18.522242 Si / 1000 Ang^3
#
#
#
# Elastic Constant Matrix: (Units=GPa)
#
#
# Indices 1 2 3 4 5 6 
#
# 1 86.6345 40.4786 63.1569 0.0000 0.0000 0.0000
# 2 40.4786 69.8033 68.8321 0.0000 0.0000 0.0000
# 3 63.1569 68.8321 169.7195 0.0000 0.0000 0.0000
# 4 0.0000 0.0000 0.0000 1.1583 0.0000 0.0000
# 5 0.0000 0.0000 0.0000 0.0000 29.0101 0.0000
# 6 0.0000 0.0000 0.0000 0.0000 0.0000 25.7866
#
#
#
# Elastic Compliance Matrix: (Units=1/GPa)
#
#
# Indices 1 2 3 4 5 6 
#
# 1 0.017284 -0.006133 -0.003944 0.000000 0.000000 0.000000
# 2 -0.006133 0.026050 -0.008283 0.000000 0.000000 0.000000
# 3 -0.003944 -0.008283 0.010719 0.000000 0.000000 0.000000
# 4 0.000000 0.000000 0.000000 0.863300 0.000000 0.000000
# 5 0.000000 0.000000 0.000000 0.000000 0.034471 0.000000
# 6 0.000000 0.000000 0.000000 0.000000 0.000000 0.038780
#
#
# Mechanical properties :
#
#
# Convention : Reuss Voigt Hill
#
# Bulk Modulus (GPa) = 57.69561 74.56582 66.13071
# Shear Modulus (GPa) = 4.83980 21.43701 13.13840
#
# Velocity S-wave (km/s) = 1.61822 3.40570 2.66622
# Velocity P-wave (km/s) = 5.89139 7.47060 6.72750
#
# Compressibility (1/GPa) = 0.01733234
#
# Stress axis : x y z
#
# Youngs Moduli (GPa) = 57.85743 38.38769 93.29289
#
# Poissons Ratio (x) = 0.23545 0.36797
# Poissons Ratio (y) = 0.35487 0.77270
# Poissons Ratio (z) = 0.22820 0.31795
#
# Static dielectric constant tensor:
#      x y z
#    x 3.452940 0.000000 0.000000 
#    y 0.000000 3.109880 0.000000 
#    z 0.000000 0.000000 4.160530 
# 
# 
# High freq. dielectric constant tensor:
#      x y z
#    x 1.723200 0.000000 0.000000 
#    y 0.000000 1.684640 0.000000 
#    z 0.000000 0.000000 1.746950 
# 
# From -- ./inp_files/43455.got.cif
#   From: 2010.03.12/outbox.cif.g09.slc.cpg/sg67_22_cif.got.tgz:43455.got - 2010.04.10 22:41:39.
