data_PCOD8279378
_publ_section_title
;
Structure prediction by ZEFSAII (Michael W. Deem and Ramdas Pophale) SiO2 
 PCOD8279378
Probable space group: C M M A
;
_chemical_formula_sum "Si O2"
_cell_formula_units_Z 116
_cell_length_a 31.286544
_cell_length_b 16.783424
_cell_length_c 11.240473
_cell_angle_alpha 90.000000
_cell_angle_beta 90.000000
_cell_angle_gamma 90.000000
_cell_volume 5902.319918
_symmetry_space_group_name_H-M "C M M A"
_symmetry_group_IT_number 67
_symmetry_cell_setting 'orthorhombic'
loop_
_space_group_symop_operation_xyz
x,y,z
-x,1/2-y,z
x,-y,-z
-x,1/2+y,-z
-x,-y,-z
x,1/2+y,-z
-x,y,z
x,1/2-y,z
1/2+x,1/2+y,z
1/2-x,-y,z
1/2+x,1/2-y,-z
1/2-x,y,-z
1/2-x,1/2-y,-z
1/2+x,y,-z
1/2-x,1/2+y,z
1/2+x,-y,z
loop_
_atom_site_type_symbol
_atom_site_label
_atom_site_fract_x
_atom_site_fract_y
_atom_site_fract_z
Si Si1 0.369192 0.407773 0.541513
Si Si2 0.114911 0.658968 0.039397
Si Si3 0.288742 0.157581 0.417202
Si Si4 0.951390 0.052696 0.829149
Si Si5 0.750000 0.000000 0.000000
Si Si6 0.121938 0.935899 0.808086
Si Si7 0.813529 0.580910 0.174309
Si Si8 0.954476 0.912630 0.443363
O O1 0.363869 0.500000 0.500000
O O2 0.331434 0.354241 0.492377
O O3 0.372298 0.394343 0.681780
O O4 0.412761 0.367645 0.490798
O O5 0.101709 0.750000 0.027157
O O6 0.072714 0.613020 0.083071
O O7 0.155174 0.650972 0.128789
O O8 0.130879 0.626566 0.912169
O O9 0.282591 0.250000 0.384357
O O10 0.250000 0.126663 0.500000
O O11 0.290513 0.106233 0.296498
O O12 0.951313 0.087999 0.697884
O O13 0.000000 0.038531 0.874086
O O14 0.925995 0.969300 0.826798
O O15 0.722700 0.060139 0.079885
O O16 0.156774 0.004794 0.809871
O O17 0.000000 0.872224 0.480019
O O18 0.953128 0.000000 0.500000
#
# Coordination Sequence:
#
# PCOD8279378 Si02
#       8
#    16  16  16  16   4  16  16  16
#     4  11  19  36  63  90 119 161 202 249 308 369
#     4  11  24  41  59  85 128 168 202 252 310 366
#     4  11  26  42  60  93 129 162 201 249 313 384
#     4  10  19  35  62  91 121 161 209 257 298 357
#     4  12  24  40  68  96 110 148 222 266 292 372
#     4  11  21  38  61  92 122 156 212 256 307 358
#     4  11  22  42  65  89 117 157 202 259 307 359
#     4   9  16  30  56  91 120 143 191 253 304 352
#
# _framework density 19.653289999999998
#
# number of rings (size 3 to 8) (size 9 to 14) (size 15 to 20)
#    0.000    1.379    5.517    2.483    1.931    2.207 
#    0.000    2.759    0.000    1.241    0.000    1.931 
#    0.000    0.000    0.000    0.000    0.000    0.000 
#
# Total GULP energy -719013.433261 kJ/mol
# GULP energy per Si atom -12396.783332 kJ/mol
# Density = 1.960856 g / cm^3
# Si number density = 19.653290 Si / 1000 Ang^3
#
#
#
# Elastic Constant Matrix: (Units=GPa)
#
#
# Indices 1 2 3 4 5 6 
#
# 1 149.3450 10.4606 55.4957 0.0000 0.0000 0.0000
# 2 10.4606 19.0388 34.3908 0.0000 0.0000 0.0000
# 3 55.4957 34.3908 145.5670 0.0000 0.0000 0.0000
# 4 0.0000 0.0000 0.0000 19.5280 0.0000 0.0000
# 5 0.0000 0.0000 0.0000 0.0000 30.4062 0.0000
# 6 0.0000 0.0000 0.0000 0.0000 0.0000 13.0295
#
#
#
# Elastic Compliance Matrix: (Units=1/GPa)
#
#
# Indices 1 2 3 4 5 6 
#
# 1 0.007840 0.001904 -0.003439 0.000000 0.000000 0.000000
# 2 0.001904 0.092089 -0.022482 0.000000 0.000000 0.000000
# 3 -0.003439 -0.022482 0.013492 0.000000 0.000000 0.000000
# 4 0.000000 0.000000 0.000000 0.051209 0.000000 0.000000
# 5 0.000000 0.000000 0.000000 0.000000 0.032888 0.000000
# 6 0.000000 0.000000 0.000000 0.000000 0.000000 0.076749
#
#
# Mechanical properties :
#
#
# Convention : Reuss Voigt Hill
#
# Bulk Modulus (GPa) = 15.29341 57.18278 36.23809
# Shear Modulus (GPa) = 14.53075 26.83298 20.68187
#
# Velocity S-wave (km/s) = 2.72206 3.69903 3.24749
# Velocity P-wave (km/s) = 4.20452 6.88496 5.70441
#
# Compressibility (1/GPa) = 0.06538763
#
# Stress axis : x y z
#
# Youngs Moduli (GPa) = 127.54425 10.85902 74.11636
#
# Poissons Ratio (x) = -0.02068 0.25488
# Poissons Ratio (y) = -0.24286 1.66631
# Poissons Ratio (z) = 0.43861 0.24414
#
# Static dielectric constant tensor:
#      x y z
#    x 4.123130 0.000000 0.000000 
#    y 0.000000 3.152710 0.000000 
#    z 0.000000 0.000000 3.671530 
# 
# 
# High freq. dielectric constant tensor:
#      x y z
#    x 1.784520 0.000000 0.000000 
#    y 0.000000 1.718960 0.000000 
#    z 0.000000 0.000000 1.783550 
# 
# From -- ./inp_files/23963.got.cif
#   From: 2010.03.12/outbox.cif.g09.slc.cpg/sg67_12_cif.got.tgz:23963.got - 2010.04.10 22:41:39.
