data_PCOD8279500
_publ_section_title
;
Structure prediction by ZEFSAII (Michael W. Deem and Ramdas Pophale) SiO2 
 PCOD8279500
Probable space group: C M M A
;
_chemical_formula_sum "Si O2"
_cell_formula_units_Z 120
_cell_length_a 31.001867
_cell_length_b 9.628579
_cell_length_c 23.735199
_cell_angle_alpha 90.000000
_cell_angle_beta 90.000000
_cell_angle_gamma 90.000000
_cell_volume 7085.050075
_symmetry_space_group_name_H-M "C M M A"
_symmetry_group_IT_number 67
_symmetry_cell_setting 'orthorhombic'
loop_
_space_group_symop_operation_xyz
x,y,z
-x,1/2-y,z
x,-y,-z
-x,1/2+y,-z
-x,-y,-z
x,1/2+y,-z
-x,y,z
x,1/2-y,z
1/2+x,1/2+y,z
1/2-x,-y,z
1/2+x,1/2-y,-z
1/2-x,y,-z
1/2-x,1/2-y,-z
1/2+x,y,-z
1/2-x,1/2+y,z
1/2+x,-y,z
loop_
_atom_site_type_symbol
_atom_site_label
_atom_site_fract_x
_atom_site_fract_y
_atom_site_fract_z
Si Si1 0.371263 0.086412 0.055756
Si Si2 0.209263 0.088364 0.736807
Si Si3 0.374985 0.415004 0.327090
Si Si4 0.047788 0.414663 0.874117
Si Si5 0.290246 0.909101 0.867095
Si Si6 0.093921 0.089835 0.556134
Si Si7 0.500000 0.403593 0.447925
Si Si8 0.452132 0.415361 0.252330
O O1 0.373560 0.250000 0.041931
O O2 0.415666 0.029926 0.083454
O O3 0.332574 0.052050 0.098178
O O4 0.362504 0.000000 0.000000
O O5 0.218555 0.250000 0.725295
O O6 0.169023 0.032073 0.700778
O O7 0.198869 0.060478 0.802084
O O8 0.250000 0.000000 0.716417
O O9 0.377990 0.250000 0.323127
O O10 0.375348 0.460834 0.392961
O O11 0.415719 0.479455 0.293281
O O12 0.050523 0.250000 0.872162
O O13 0.056312 0.471338 0.811037
O O14 0.000000 0.462102 0.894859
O O15 0.276925 0.750000 0.876243
O O16 0.250000 0.000000 0.888376
O O17 0.102770 0.250000 0.539900
O O18 0.045501 0.072531 0.583901
O O19 0.101669 0.000000 0.500000
O O20 0.500000 0.250000 0.473205
O O21 0.500000 0.500000 0.500000
O O22 0.500000 0.462086 0.272726
O O23 0.449547 0.250000 0.252290
#
# Coordination Sequence:
#
# PCOD8279500 Si02
#       8
#    16  16  16  16  16  16   8  16
#     4  10  20  32  46  66  92 120 151 185 220 260
#     4   9  17  31  50  71  92 114 144 183 229 273
#     4   9  16  25  42  66  92 119 146 184 227 265
#     4   8  14  26  43  63  89 119 148 182 224 266
#     4   9  18  32  50  69  91 118 145 179 224 274
#     4   9  17  28  42  62  90 123 154 183 216 257
#     4   8  14  24  38  56  82 116 150 178 205 242
#     4   8  13  21  38  66  94 116 142 180 226 270
#
# _framework density 16.937072000000001
#
# number of rings (size 3 to 8) (size 9 to 14) (size 15 to 20)
#    0.000    3.200    0.000    1.600    0.933    4.267 
#    0.000    2.000    0.000    0.400    0.000    3.733 
#    0.000    2.133    0.000    0.000    0.000    0.000 
#
# Total GULP energy -743468.524401 kJ/mol
# GULP energy per Si atom -12391.142073 kJ/mol
# Density = 1.689852 g / cm^3
# Si number density = 16.937072 Si / 1000 Ang^3
#
#
#
# Elastic Constant Matrix: (Units=GPa)
#
#
# Indices 1 2 3 4 5 6 
#
# 1 143.6355 41.3996 77.1300 0.0000 0.0000 0.0000
# 2 41.3996 33.9801 34.7362 0.0000 0.0000 0.0000
# 3 77.1300 34.7362 97.9898 0.0000 0.0000 0.0000
# 4 0.0000 0.0000 0.0000 18.3756 0.0000 0.0000
# 5 0.0000 0.0000 0.0000 0.0000 19.5187 0.0000
# 6 0.0000 0.0000 0.0000 0.0000 0.0000 18.4610
#
#
#
# Elastic Compliance Matrix: (Units=1/GPa)
#
#
# Indices 1 2 3 4 5 6 
#
# 1 0.013549 -0.008791 -0.007549 0.000000 0.000000 0.000000
# 2 -0.008791 0.051858 -0.011463 0.000000 0.000000 0.000000
# 3 -0.007549 -0.011463 0.020210 0.000000 0.000000 0.000000
# 4 0.000000 0.000000 0.000000 0.054420 0.000000 0.000000
# 5 0.000000 0.000000 0.000000 0.000000 0.051233 0.000000
# 6 0.000000 0.000000 0.000000 0.000000 0.000000 0.054168
#
#
# Mechanical properties :
#
#
# Convention : Reuss Voigt Hill
#
# Bulk Modulus (GPa) = 33.32045 64.68189 49.00117
# Shear Modulus (GPa) = 16.07460 19.42704 17.75082
#
# Velocity S-wave (km/s) = 3.08405 3.39043 3.24087
# Velocity P-wave (km/s) = 5.69189 7.32114 6.55732
#
# Compressibility (1/GPa) = 0.03001160
#
# Stress axis : x y z
#
# Youngs Moduli (GPa) = 73.80363 19.28336 49.47930
#
# Poissons Ratio (x) = 0.16953 0.37350
# Poissons Ratio (y) = 0.64883 0.56720
# Poissons Ratio (z) = 0.55712 0.22105
#
# Static dielectric constant tensor:
#      x y z
#    x 3.206530 0.000000 0.000000 
#    y 0.000000 2.772720 0.000000 
#    z 0.000000 0.000000 3.095010 
# 
# 
# High freq. dielectric constant tensor:
#      x y z
#    x 1.657790 0.000000 0.000000 
#    y 0.000000 1.604370 0.000000 
#    z 0.000000 0.000000 1.646330 
# 
# From -- ./inp_files/38112.got.cif
#   From: 2010.03.12/outbox.cif.g09.slc.cpg/sg67_20_cif.got.tgz:38112.got - 2010.04.10 22:41:39.
