data_PCOD8279725
_publ_section_title
;
Structure prediction by ZEFSAII (Michael W. Deem and Ramdas Pophale) SiO2 
 PCOD8279725
Probable space group: C M M A
;
_chemical_formula_sum "Si O2"
_cell_formula_units_Z 116
_cell_length_a 24.989010
_cell_length_b 9.294406
_cell_length_c 24.817989
_cell_angle_alpha 90.000000
_cell_angle_beta 90.000000
_cell_angle_gamma 90.000000
_cell_volume 5764.176600
_symmetry_space_group_name_H-M "C M M A"
_symmetry_group_IT_number 67
_symmetry_cell_setting 'orthorhombic'
loop_
_space_group_symop_operation_xyz
x,y,z
-x,1/2-y,z
x,-y,-z
-x,1/2+y,-z
-x,-y,-z
x,1/2+y,-z
-x,y,z
x,1/2-y,z
1/2+x,1/2+y,z
1/2-x,-y,z
1/2+x,1/2-y,-z
1/2-x,y,-z
1/2-x,1/2-y,-z
1/2+x,y,-z
1/2-x,1/2+y,z
1/2+x,-y,z
loop_
_atom_site_type_symbol
_atom_site_label
_atom_site_fract_x
_atom_site_fract_y
_atom_site_fract_z
Si Si1 0.942150 0.915260 0.945722
Si Si2 0.411241 0.085733 0.655363
Si Si3 0.168575 0.417317 0.805767
Si Si4 0.937466 0.089614 0.549582
Si Si5 0.558686 0.412292 0.242138
Si Si6 0.202431 0.414296 0.299178
Si Si7 0.750000 0.000000 0.000000
Si Si8 0.327663 0.911988 0.092567
O O1 0.933164 0.750000 0.960791
O O2 0.888648 0.968086 0.915772
O O3 0.000000 0.935623 0.914475
O O4 0.946753 0.000000 0.000000
O O5 0.430778 0.250000 0.648035
O O6 0.347599 0.078083 0.661250
O O7 0.427788 0.993330 0.604617
O O8 0.438573 0.022311 0.708468
O O9 0.183976 0.250000 0.803040
O O10 0.104123 0.442746 0.802569
O O11 0.194203 0.501633 0.756495
O O12 0.193366 0.481540 0.860876
O O13 0.911799 0.250000 0.551872
O O14 0.000000 0.105359 0.539560
O O15 0.911600 0.000000 0.500000
O O16 0.500000 0.429692 0.215016
O O17 0.566433 0.250000 0.264916
O O18 0.217949 0.250000 0.286352
O O19 0.250000 0.500000 0.329469
O O20 0.790050 0.912242 0.960758
O O21 0.328358 0.750000 0.114962
#
# Coordination Sequence:
#
# PCOD8279725 Si02
#       8
#    16  16  16  16  16  16   4  16
#     4   9  18  35  58  81 104 133 170 214 262 315
#     4  10  20  33  52  81 114 149 190 236 285 336
#     4  10  22  38  58  83 112 145 180 221 272 328
#     4  10  20  33  51  78 114 156 198 238 281 332
#     4   9  18  34  55  81 114 150 187 225 270 330
#     4  10  21  38  59  82 109 142 184 232 282 335
#     4  12  26  44  62  82 106 152 184 228 272 332
#     4  11  24  41  60  84 112 141 180 226 275 332
#
# _framework density 20.124296999999999
#
# number of rings (size 3 to 8) (size 9 to 14) (size 15 to 20)
#    0.000    2.069    0.690    2.276    0.966    7.172 
#    0.000    0.000    0.000    0.414    0.000    2.897 
#    0.000    0.000    0.000    0.000    0.000    0.000 
#
# Total GULP energy -718760.200151 kJ/mol
# GULP energy per Si atom -12392.417244 kJ/mol
# Density = 2.007849 g / cm^3
# Si number density = 20.124297 Si / 1000 Ang^3
#
#
#
# Elastic Constant Matrix: (Units=GPa)
#
#
# Indices 1 2 3 4 5 6 
#
# 1 81.4919 22.3341 -2.4207 0.0000 0.0000 0.0000
# 2 22.3341 124.0601 35.5851 0.0000 0.0000 0.0000
# 3 -2.4207 35.5851 70.2933 0.0000 0.0000 0.0000
# 4 0.0000 0.0000 0.0000 27.6172 0.0000 0.0000
# 5 0.0000 0.0000 0.0000 0.0000 10.6489 0.0000
# 6 0.0000 0.0000 0.0000 0.0000 0.0000 25.8477
#
#
#
# Elastic Compliance Matrix: (Units=1/GPa)
#
#
# Indices 1 2 3 4 5 6 
#
# 1 0.013128 -0.002917 0.001929 0.000000 0.000000 0.000000
# 2 -0.002917 0.010078 -0.005202 0.000000 0.000000 0.000000
# 3 0.001929 -0.005202 0.016926 0.000000 0.000000 0.000000
# 4 0.000000 0.000000 0.000000 0.036209 0.000000 0.000000
# 5 0.000000 0.000000 0.000000 0.000000 0.093907 0.000000
# 6 0.000000 0.000000 0.000000 0.000000 0.000000 0.038688
#
#
# Mechanical properties :
#
#
# Convention : Reuss Voigt Hill
#
# Bulk Modulus (GPa) = 36.03441 42.98249 39.50845
# Shear Modulus (GPa) = 21.68570 27.51254 24.59912
#
# Velocity S-wave (km/s) = 3.28622 3.70148 3.50002
# Velocity P-wave (km/s) = 5.68716 6.29864 6.00069
#
# Compressibility (1/GPa) = 0.02775126
#
# Stress axis : x y z
#
# Youngs Moduli (GPa) = 76.17451 99.22756 59.08045
#
# Poissons Ratio (x) = 0.28940 -0.11394
# Poissons Ratio (y) = 0.22216 0.30735
# Poissons Ratio (z) = -0.14690 0.51620
#
# Static dielectric constant tensor:
#      x y z
#    x 4.189860 0.000000 0.000000 
#    y 0.000000 3.742790 0.000000 
#    z 0.000000 0.000000 3.259000 
# 
# 
# High freq. dielectric constant tensor:
#      x y z
#    x 1.794310 0.000000 0.000000 
#    y 0.000000 1.798330 0.000000 
#    z 0.000000 0.000000 1.752780 
# 
# From -- ./inp_files/42856.got.cif
#   From: 2010.03.12/outbox.cif.g09.slc.cpg/sg67_22_cif.got.tgz:42856.got - 2010.04.10 22:41:39.
