data_PCOD8279404
_publ_section_title
;
Structure prediction by ZEFSAII (Michael W. Deem and Ramdas Pophale) SiO2 
 PCOD8279404
Probable space group: C M M A
;
_chemical_formula_sum "Si O2"
_cell_formula_units_Z 80
_cell_length_a 17.387703
_cell_length_b 22.978586
_cell_length_c 10.283213
_cell_angle_alpha 90.000000
_cell_angle_beta 90.000000
_cell_angle_gamma 90.000000
_cell_volume 4108.604577
_symmetry_space_group_name_H-M "C M M A"
_symmetry_group_IT_number 67
_symmetry_cell_setting 'orthorhombic'
loop_
_space_group_symop_operation_xyz
x,y,z
-x,1/2-y,z
x,-y,-z
-x,1/2+y,-z
-x,-y,-z
x,1/2+y,-z
-x,y,z
x,1/2-y,z
1/2+x,1/2+y,z
1/2-x,-y,z
1/2+x,1/2-y,-z
1/2-x,y,-z
1/2-x,1/2-y,-z
1/2+x,y,-z
1/2-x,1/2+y,z
1/2+x,-y,z
loop_
_atom_site_type_symbol
_atom_site_label
_atom_site_fract_x
_atom_site_fract_y
_atom_site_fract_z
Si Si1 0.159754 0.867639 0.002416
Si Si2 0.590376 0.423708 0.250904
Si Si3 0.091067 0.750000 0.901466
Si Si4 0.908539 0.750000 0.607445
Si Si5 0.908691 0.373926 0.477272
Si Si6 0.590305 0.441195 0.776397
O O1 0.135480 0.887004 0.145231
O O2 0.250000 0.858801 0.000000
O O3 0.119671 0.806683 0.975050
O O4 0.134769 0.916598 0.900099
O O5 0.500000 0.411735 0.236251
O O6 0.622170 0.402849 0.390851
O O7 0.609427 0.491238 0.235017
O O8 0.123379 0.750000 0.754419
O O9 0.000000 0.750000 0.901602
O O10 0.878637 0.692597 0.532606
O O11 0.000000 0.750000 0.612180
O O12 0.878418 0.409918 0.353311
O O13 0.000000 0.376439 0.476626
O O14 0.500000 0.429541 0.796882
#
# Coordination Sequence:
#
# PCOD8279404 Si02
#       6
#    16  16   8   8  16  16
#     4  12  25  39  57  85 124 158 196 240 293 352
#     4  10  21  36  58  89 119 149 197 255 302 341
#     4  11  21  40  67  87 110 153 203 245 290 357
#     4   9  16  30  59  89 112 143 189 239 296 355
#     4   9  17  32  57  89 116 145 195 257 303 343
#     4  10  19  36  61  85 114 158 204 244 293 358
#
# _framework density 19.471332
#
# number of rings (size 3 to 8) (size 9 to 14) (size 15 to 20)
#    0.000    1.800    2.000    3.300    0.000    6.400 
#    0.000    3.000    0.000    3.600    0.000    0.000 
#    0.000    0.000    0.000    0.000    0.000    0.000 
#
# Total GULP energy -496108.778224 kJ/mol
# GULP energy per Si atom -12402.719456 kJ/mol
# Density = 1.942701 g / cm^3
# Si number density = 19.471332 Si / 1000 Ang^3
#
#
#
# Elastic Constant Matrix: (Units=GPa)
#
#
# Indices 1 2 3 4 5 6 
#
# 1 49.6226 29.3803 22.1260 0.0000 0.0000 0.0000
# 2 29.3803 128.0620 43.2357 0.0000 0.0000 0.0000
# 3 22.1260 43.2357 120.6301 0.0000 0.0000 0.0000
# 4 0.0000 0.0000 0.0000 66.4467 0.0000 0.0000
# 5 0.0000 0.0000 0.0000 0.0000 0.7070 0.0000
# 6 0.0000 0.0000 0.0000 0.0000 0.0000 -31.0976
#
#
#
# Elastic Compliance Matrix: (Units=1/GPa)
#
#
# Indices 1 2 3 4 5 6 
#
# 1 0.024110 -0.004594 -0.002776 0.000000 0.000000 0.000000
# 2 -0.004594 0.009759 -0.002655 0.000000 0.000000 0.000000
# 3 -0.002776 -0.002655 0.009751 0.000000 0.000000 0.000000
# 4 0.000000 0.000000 0.000000 0.015050 0.000000 0.000000
# 5 0.000000 0.000000 0.000000 0.000000 1.414388 0.000000
# 6 0.000000 0.000000 0.000000 0.000000 0.000000 -0.032157
#
#
# Mechanical properties :
#
#
# Convention : Reuss Voigt Hill
#
# Bulk Modulus (GPa) = 42.42759 54.19986 48.31372
# Shear Modulus (GPa) = 3.40412 20.78273 12.09343
#
# Velocity S-wave (km/s) = 1.32366 3.27058 2.49487
# Velocity P-wave (km/s) = 4.91662 6.49295 5.75897
#
# Compressibility (1/GPa) = 0.02356957
#
# Stress axis : x y z
#
# Youngs Moduli (GPa) = 41.47683 102.46774 102.55835
#
# Poissons Ratio (x) = 0.47076 0.28466
# Poissons Ratio (y) = 0.19056 0.27231
# Poissons Ratio (z) = 0.11512 0.27207
#
# Static dielectric constant tensor:
#      x y z
#    x 3.169020 0.000000 0.000000 
#    y 0.000000 3.810120 0.000000 
#    z 0.000000 0.000000 3.772890 
# 
# 
# High freq. dielectric constant tensor:
#      x y z
#    x 1.715580 0.000000 0.000000 
#    y 0.000000 1.777550 0.000000 
#    z 0.000000 0.000000 1.771280 
# 
# From -- ./inp_files/11128.got.cif
#   From: 2010.03.12/outbox.cif.g09.slc.cpg/sg67_6_cif.got.tgz:11128.got - 2010.04.10 22:41:39.
