data_PCOD8279088
_publ_section_title
;
Structure prediction by ZEFSAII (Michael W. Deem and Ramdas Pophale) SiO2 
 PCOD8279088
Probable space group: C M M A
;
_chemical_formula_sum "Si O2"
_cell_formula_units_Z 104
_cell_length_a 21.606061
_cell_length_b 8.981169
_cell_length_c 29.625266
_cell_angle_alpha 90.000000
_cell_angle_beta 90.000000
_cell_angle_gamma 90.000000
_cell_volume 5748.714293
_symmetry_space_group_name_H-M "C M M A"
_symmetry_group_IT_number 67
_symmetry_cell_setting 'orthorhombic'
loop_
_space_group_symop_operation_xyz
x,y,z
-x,1/2-y,z
x,-y,-z
-x,1/2+y,-z
-x,-y,-z
x,1/2+y,-z
-x,y,z
x,1/2-y,z
1/2+x,1/2+y,z
1/2-x,-y,z
1/2+x,1/2-y,-z
1/2-x,y,-z
1/2-x,1/2-y,-z
1/2+x,y,-z
1/2-x,1/2+y,z
1/2+x,-y,z
loop_
_atom_site_type_symbol
_atom_site_label
_atom_site_fract_x
_atom_site_fract_y
_atom_site_fract_z
Si Si1 0.926761 0.915295 0.702008
Si Si2 0.313285 0.928329 0.548751
Si Si3 0.500000 0.922307 0.952189
Si Si4 0.315387 0.926739 0.042522
Si Si5 0.110769 0.074118 0.887237
Si Si6 0.570567 0.425148 0.389353
Si Si7 0.426546 0.918343 0.789147
O O1 0.899252 0.750000 0.697098
O O2 0.000000 0.911637 0.706475
O O3 0.907763 0.008075 0.658170
O O4 0.898860 0.987839 0.747441
O O5 0.305575 0.750000 0.545974
O O6 0.376181 0.973220 0.575340
O O7 0.322422 0.000000 0.500000
O O8 0.250000 0.000000 0.570240
O O9 0.500000 0.750000 0.962846
O O10 0.443304 0.970371 0.921204
O O11 0.500000 0.000000 0.000000
O O12 0.315596 0.750000 0.038183
O O13 0.250000 0.000000 0.036320
O O14 0.333755 0.977967 0.092756
O O15 0.354754 0.000000 0.000000
O O16 0.123963 0.250000 0.887541
O O17 0.098469 0.017862 0.836438
O O18 0.500000 0.479393 0.403056
O O19 0.569301 0.250000 0.383612
O O20 0.500000 0.926030 0.790764
O O21 0.404141 0.750000 0.782074
#
# Coordination Sequence:
#
# PCOD8279088 Si02
#       7
#    16  16   8  16  16  16  16
#     4   9  17  28  45  72 103 132 165 210 256 297
#     4  10  20  34  53  76 105 142 181 219 261 313
#     4  10  20  32  46  68 100 132 160 190 233 288
#     4  11  22  37  55  73  92 120 158 201 245 291
#     4  10  19  33  51  73 100 129 162 198 238 290
#     4   9  18  33  52  75 103 137 178 220 264 315
#     4   9  16  29  49  71  99 136 169 198 239 296
#
# _framework density 18.091003000000001
#
# number of rings (size 3 to 8) (size 9 to 14) (size 15 to 20)
#    0.000    2.308    0.769    3.692    0.000    5.846 
#    0.000    0.000    0.000    0.923    0.000    4.308 
#    0.000    0.000    0.000    0.000    0.000    0.000 
#
# Total GULP energy -644242.077257 kJ/mol
# GULP energy per Si atom -12389.270716 kJ/mol
# Density = 1.804983 g / cm^3
# Si number density = 18.091003 Si / 1000 Ang^3
#
#
#
# Elastic Constant Matrix: (Units=GPa)
#
#
# Indices 1 2 3 4 5 6 
#
# 1 73.1292 33.6374 58.1888 0.0000 0.0000 0.0000
# 2 33.6374 62.0016 49.9511 0.0000 0.0000 0.0000
# 3 58.1888 49.9511 137.6466 0.0000 0.0000 0.0000
# 4 0.0000 0.0000 0.0000 53.7175 0.0000 0.0000
# 5 0.0000 0.0000 0.0000 0.0000 18.1907 0.0000
# 6 0.0000 0.0000 0.0000 0.0000 0.0000 45.4749
#
#
#
# Elastic Compliance Matrix: (Units=1/GPa)
#
#
# Indices 1 2 3 4 5 6 
#
# 1 0.022243 -0.006348 -0.007100 0.000000 0.000000 0.000000
# 2 -0.006348 0.024604 -0.006245 0.000000 0.000000 0.000000
# 3 -0.007100 -0.006245 0.012533 0.000000 0.000000 0.000000
# 4 0.000000 0.000000 0.000000 0.018616 0.000000 0.000000
# 5 0.000000 0.000000 0.000000 0.000000 0.054973 0.000000
# 6 0.000000 0.000000 0.000000 0.000000 0.000000 0.021990
#
#
# Mechanical properties :
#
#
# Convention : Reuss Voigt Hill
#
# Bulk Modulus (GPa) = 50.01323 61.81467 55.91395
# Shear Modulus (GPa) = 24.87452 32.20995 28.54223
#
# Velocity S-wave (km/s) = 3.71208 4.22410 3.97634
# Velocity P-wave (km/s) = 6.78808 7.61798 7.21497
#
# Compressibility (1/GPa) = 0.01999471
#
# Stress axis : x y z
#
# Youngs Moduli (GPa) = 44.95718 40.64421 79.79214
#
# Poissons Ratio (x) = 0.25800 0.56649
# Poissons Ratio (y) = 0.28538 0.49831
# Poissons Ratio (z) = 0.31918 0.25383
#
# Static dielectric constant tensor:
#      x y z
#    x 3.342600 0.000000 0.000000 
#    y 0.000000 3.375550 0.000000 
#    z 0.000000 0.000000 3.501710 
# 
# 
# High freq. dielectric constant tensor:
#      x y z
#    x 1.670730 0.000000 0.000000 
#    y 0.000000 1.701180 0.000000 
#    z 0.000000 0.000000 1.707140 
# 
# From -- ./inp_files/44957.got.cif
#   From: 2010.03.12/outbox.cif.g09.slc.cpg/sg67_23_cif.got.tgz:44957.got - 2010.04.10 22:41:39.
