data_PCOD8279996
_publ_section_title
;
Structure prediction by ZEFSAII (Michael W. Deem and Ramdas Pophale) SiO2 
 PCOD8279996
Probable space group: C M M A
;
_chemical_formula_sum "Si O2"
_cell_formula_units_Z 88
_cell_length_a 24.652940
_cell_length_b 8.866612
_cell_length_c 21.574104
_cell_angle_alpha 90.000000
_cell_angle_beta 90.000000
_cell_angle_gamma 90.000000
_cell_volume 4715.841402
_symmetry_space_group_name_H-M "C M M A"
_symmetry_group_IT_number 67
_symmetry_cell_setting 'orthorhombic'
loop_
_space_group_symop_operation_xyz
x,y,z
-x,1/2-y,z
x,-y,-z
-x,1/2+y,-z
-x,-y,-z
x,1/2+y,-z
-x,y,z
x,1/2-y,z
1/2+x,1/2+y,z
1/2-x,-y,z
1/2+x,1/2-y,-z
1/2-x,y,-z
1/2-x,1/2-y,-z
1/2+x,y,-z
1/2-x,1/2+y,z
1/2+x,-y,z
loop_
_atom_site_type_symbol
_atom_site_label
_atom_site_fract_x
_atom_site_fract_y
_atom_site_fract_z
Si Si1 0.305924 0.073675 0.801284
Si Si2 0.694486 0.074235 0.656743
Si Si3 0.500000 0.424879 0.066059
Si Si4 0.500000 0.072201 0.745240
Si Si5 0.000000 0.079178 0.616575
Si Si6 0.884771 0.924165 0.436250
Si Si7 0.585153 0.571472 0.832483
O O1 0.304674 0.250000 0.816228
O O2 0.314540 0.040461 0.728935
O O3 0.250000 0.000000 0.824701
O O4 0.354786 0.995840 0.838531
O O5 0.697165 0.250000 0.642376
O O6 0.750000 0.000000 0.632980
O O7 0.644523 0.001351 0.621408
O O8 0.500000 0.250000 0.053486
O O9 0.553417 0.471668 0.104658
O O10 0.500000 0.500000 0.000000
O O11 0.500000 0.250000 0.756517
O O12 0.500000 0.038651 0.672538
O O13 0.445762 0.001635 0.774359
O O14 0.051414 0.051092 0.572876
O O15 0.000000 0.250000 0.643340
O O16 0.868384 0.750000 0.438523
O O17 0.865848 0.000000 0.500000
O O18 0.587195 0.750000 0.821909
#
# Coordination Sequence:
#
# PCOD8279996 Si02
#       7
#    16  16   8   8   8  16  16
#     4  10  20  34  55  83 112 144 178 217 266 318
#     4  10  21  37  56  79 105 133 170 214 262 315
#     4   9  20  36  56  82 112 149 187 225 267 306
#     4  11  21  32  52  81 108 137 174 218 267 320
#     4  10  22  38  55  75 102 136 169 209 266 324
#     4  11  23  38  55  74  98 131 171 214 263 318
#     4  10  20  35  54  80 114 147 181 221 265 314
#
# _framework density 18.660509000000001
#
# number of rings (size 3 to 8) (size 9 to 14) (size 15 to 20)
#    0.000    1.818    0.000    4.909    0.000    9.091 
#    0.000    1.818    0.000    0.545    0.000    3.818 
#    0.000    0.000    0.000    0.000    0.000    0.000 
#
# Total GULP energy -545830.420011 kJ/mol
# GULP energy per Si atom -12405.236818 kJ/mol
# Density = 1.861804 g / cm^3
# Si number density = 18.660509 Si / 1000 Ang^3
#
#
#
# Elastic Constant Matrix: (Units=GPa)
#
#
# Indices 1 2 3 4 5 6 
#
# 1 141.1739 62.4220 35.4488 0.0000 0.0000 0.0000
# 2 62.4220 119.7498 46.4960 0.0000 0.0000 0.0000
# 3 35.4488 46.4960 74.6355 0.0000 0.0000 0.0000
# 4 0.0000 0.0000 0.0000 30.8159 0.0000 0.0000
# 5 0.0000 0.0000 0.0000 0.0000 14.0641 0.0000
# 6 0.0000 0.0000 0.0000 0.0000 0.0000 36.0083
#
#
#
# Elastic Compliance Matrix: (Units=1/GPa)
#
#
# Indices 1 2 3 4 5 6 
#
# 1 0.009397 -0.004176 -0.001862 0.000000 0.000000 0.000000
# 2 -0.004176 0.012870 -0.006035 0.000000 0.000000 0.000000
# 3 -0.001862 -0.006035 0.018042 0.000000 0.000000 0.000000
# 4 0.000000 0.000000 0.000000 0.032451 0.000000 0.000000
# 5 0.000000 0.000000 0.000000 0.000000 0.071103 0.000000
# 6 0.000000 0.000000 0.000000 0.000000 0.000000 0.027771
#
#
# Mechanical properties :
#
#
# Convention : Reuss Voigt Hill
#
# Bulk Modulus (GPa) = 61.86059 69.36584 65.61322
# Shear Modulus (GPa) = 24.85479 28.92383 26.88931
#
# Velocity S-wave (km/s) = 3.65354 3.94128 3.80013
# Velocity P-wave (km/s) = 7.14285 7.61346 7.38191
#
# Compressibility (1/GPa) = 0.01616538
#
# Stress axis : x y z
#
# Youngs Moduli (GPa) = 106.41353 77.69717 55.42514
#
# Poissons Ratio (x) = 0.32443 0.10321
# Poissons Ratio (y) = 0.44433 0.33448
# Poissons Ratio (z) = 0.19815 0.46888
#
# Static dielectric constant tensor:
#      x y z
#    x 3.581360 0.000000 0.000000 
#    y 0.000000 3.516200 0.000000 
#    z 0.000000 0.000000 3.262370 
# 
# 
# High freq. dielectric constant tensor:
#      x y z
#    x 1.734500 0.000000 0.000000 
#    y 0.000000 1.739460 0.000000 
#    z 0.000000 0.000000 1.696380 
# 
# From -- ./inp_files/37004.got.cif
#   From: 2010.03.12/outbox.cif.g09.slc.cpg/sg67_19_cif.got.tgz:37004.got - 2010.04.10 22:41:39.
