data_PCOD8279671
_publ_section_title
;
Structure prediction by ZEFSAII (Michael W. Deem and Ramdas Pophale) SiO2 
 PCOD8279671
Probable space group: C M M A
;
_chemical_formula_sum "Si O2"
_cell_formula_units_Z 128
_cell_length_a 22.791843
_cell_length_b 17.471252
_cell_length_c 17.927561
_cell_angle_alpha 90.000000
_cell_angle_beta 90.000000
_cell_angle_gamma 90.000000
_cell_volume 7138.791230
_symmetry_space_group_name_H-M "C M M A"
_symmetry_group_IT_number 67
_symmetry_cell_setting 'orthorhombic'
loop_
_space_group_symop_operation_xyz
x,y,z
-x,1/2-y,z
x,-y,-z
-x,1/2+y,-z
-x,-y,-z
x,1/2+y,-z
-x,y,z
x,1/2-y,z
1/2+x,1/2+y,z
1/2-x,-y,z
1/2+x,1/2-y,-z
1/2-x,y,-z
1/2-x,1/2-y,-z
1/2+x,y,-z
1/2-x,1/2+y,z
1/2+x,-y,z
loop_
_atom_site_type_symbol
_atom_site_label
_atom_site_fract_x
_atom_site_fract_y
_atom_site_fract_z
Si Si1 0.569104 0.161515 0.234684
Si Si2 0.931542 0.337853 0.226172
Si Si3 0.872816 0.906476 0.635830
Si Si4 0.932592 0.838123 0.500360
Si Si5 0.362712 0.414037 0.367697
Si Si6 0.747964 0.160500 0.585937
Si Si7 0.430386 0.584463 0.914516
Si Si8 0.930475 0.587365 0.922448
O O1 0.500000 0.145263 0.243429
O O2 0.583621 0.250000 0.248911
O O3 0.603156 0.110297 0.293830
O O4 0.592466 0.138273 0.152377
O O5 0.919398 0.250000 0.245684
O O6 0.894658 0.391422 0.280714
O O7 0.909468 0.354560 0.141824
O O8 0.000000 0.358307 0.234246
O O9 0.923538 0.878192 0.579892
O O10 0.814638 0.858303 0.620638
O O11 0.861082 0.995356 0.624873
O O12 0.912827 0.750000 0.505522
O O13 0.893514 0.879433 0.439719
O O14 0.000000 0.845331 0.476609
O O15 0.296245 0.384174 0.365517
O O16 0.760971 0.250000 0.592427
O O17 0.750000 0.133318 0.500000
O O18 0.500000 0.586645 0.913906
O O19 0.407723 0.497792 0.902521
O O20 0.407078 0.613869 0.995657
O O21 0.000000 0.585500 0.926543
#
# Coordination Sequence:
#
# PCOD8279671 Si02
#       8
#    16  16  16  16  16  16  16  16
#     4  10  20  33  50  75 109 145 179 216 260 312
#     4  10  20  33  50  75 109 145 179 216 260 312
#     4  12  24  37  56  79 104 134 174 219 263 310
#     4  11  23  38  55  76 105 139 173 209 256 313
#     4  12  24  37  56  79 104 134 174 219 263 310
#     4  11  23  41  63  79  99 132 171 218 268 314
#     4   8  14  26  45  70 102 139 176 214 258 308
#     4   8  14  26  45  70 102 139 176 214 258 308
#
# _framework density 17.930205999999998
#
# number of rings (size 3 to 8) (size 9 to 14) (size 15 to 20)
#    0.000    1.750    1.250    5.250    0.000    6.500 
#    0.000    2.500    0.000    0.000    0.000    0.875 
#    0.000    7.000    0.000    0.000    0.000    0.000 
#
# Total GULP energy -793636.458311 kJ/mol
# GULP energy per Si atom -12400.569661 kJ/mol
# Density = 1.788940 g / cm^3
# Si number density = 17.930206 Si / 1000 Ang^3
#
#
#
# Elastic Constant Matrix: (Units=GPa)
#
#
# Indices 1 2 3 4 5 6 
#
# 1 49.8919 20.6186 21.7437 0.0000 0.0000 0.0000
# 2 20.6186 82.7906 27.2949 0.0000 0.0000 0.0000
# 3 21.7437 27.2949 107.2778 0.0000 0.0000 0.0000
# 4 0.0000 0.0000 0.0000 33.0740 0.0000 0.0000
# 5 0.0000 0.0000 0.0000 0.0000 4.6964 0.0000
# 6 0.0000 0.0000 0.0000 0.0000 0.0000 22.7163
#
#
#
# Elastic Compliance Matrix: (Units=1/GPa)
#
#
# Indices 1 2 3 4 5 6 
#
# 1 0.023538 -0.004682 -0.003580 0.000000 0.000000 0.000000
# 2 -0.004682 0.014116 -0.002643 0.000000 0.000000 0.000000
# 3 -0.003580 -0.002643 0.010719 0.000000 0.000000 0.000000
# 4 0.000000 0.000000 0.000000 0.030235 0.000000 0.000000
# 5 0.000000 0.000000 0.000000 0.000000 0.212927 0.000000
# 6 0.000000 0.000000 0.000000 0.000000 0.000000 0.044021
#
#
# Mechanical properties :
#
#
# Convention : Reuss Voigt Hill
#
# Bulk Modulus (GPa) = 37.64302 42.14163 39.89232
# Shear Modulus (GPa) = 13.65297 23.45091 18.55194
#
# Velocity S-wave (km/s) = 2.76243 3.62041 3.22013
# Velocity P-wave (km/s) = 5.58699 6.40552 6.01021
#
# Compressibility (1/GPa) = 0.02656535
#
# Stress axis : x y z
#
# Youngs Moduli (GPa) = 42.48402 70.84210 93.28801
#
# Poissons Ratio (x) = 0.33168 0.33394
# Poissons Ratio (y) = 0.19891 0.24652
# Poissons Ratio (z) = 0.15208 0.18721
#
# Static dielectric constant tensor:
#      x y z
#    x 3.025020 0.000000 0.000000 
#    y 0.000000 3.399530 0.000000 
#    z 0.000000 0.000000 3.698970 
# 
# 
# High freq. dielectric constant tensor:
#      x y z
#    x 1.652100 0.000000 0.000000 
#    y 0.000000 1.703510 0.000000 
#    z 0.000000 0.000000 1.704170 
# 
# From -- ./inp_files/35604.got.cif
#   From: 2010.03.12/outbox.cif.g09.slc.cpg/sg67_18_cif.got.tgz:35604.got - 2010.04.10 22:41:39.
