data_PCOD8279202
_publ_section_title
;
Structure prediction by ZEFSAII (Michael W. Deem and Ramdas Pophale) SiO2 
 PCOD8279202
Probable space group: C M M A
;
_chemical_formula_sum "Si O2"
_cell_formula_units_Z 112
_cell_length_a 22.837705
_cell_length_b 14.883719
_cell_length_c 15.176419
_cell_angle_alpha 90.000000
_cell_angle_beta 90.000000
_cell_angle_gamma 90.000000
_cell_volume 5158.616337
_symmetry_space_group_name_H-M "C M M A"
_symmetry_group_IT_number 67
_symmetry_cell_setting 'orthorhombic'
loop_
_space_group_symop_operation_xyz
x,y,z
-x,1/2-y,z
x,-y,-z
-x,1/2+y,-z
-x,-y,-z
x,1/2+y,-z
-x,y,z
x,1/2-y,z
1/2+x,1/2+y,z
1/2-x,-y,z
1/2+x,1/2-y,-z
1/2-x,y,-z
1/2-x,1/2-y,-z
1/2+x,y,-z
1/2-x,1/2+y,z
1/2+x,-y,z
loop_
_atom_site_type_symbol
_atom_site_label
_atom_site_fract_x
_atom_site_fract_y
_atom_site_fract_z
Si Si1 0.368767 0.149567 0.377702
Si Si2 0.567245 0.514817 0.295511
Si Si3 0.379807 0.148061 0.579361
Si Si4 0.244270 0.393777 0.332556
Si Si5 0.840281 0.849838 0.997631
Si Si6 0.242148 0.102442 0.862100
Si Si7 0.568322 0.144704 0.862590
O O1 0.390079 0.250000 0.350218
O O2 0.387359 0.126570 0.476609
O O3 0.298645 0.148328 0.383755
O O4 0.394318 0.075910 0.308533
O O5 0.500000 0.485752 0.284323
O O6 0.573967 0.579986 0.378595
O O7 0.589507 0.575893 0.213486
O O8 0.398803 0.250000 0.599387
O O9 0.314962 0.133589 0.618494
O O10 0.250000 0.500000 0.333011
O O11 0.250459 0.351980 0.233461
O O12 0.854547 0.750000 0.025519
O O13 0.788158 0.852368 0.926857
O O14 0.898495 0.889154 0.951124
O O15 0.821907 0.895092 0.090157
O O16 0.250000 0.000000 0.844392
O O17 0.500000 0.134604 0.879880
O O18 0.583983 0.250000 0.839859
#
# Coordination Sequence:
#
# PCOD8279202 Si02
#       7
#    16  16  16  16  16  16  16
#     4  11  25  41  59  88 124 163 207 254 306 370
#     4  11  23  40  62  88 122 162 208 257 307 362
#     4  11  23  39  62  92 124 158 201 257 316 369
#     4  11  22  38  63  89 120 163 204 247 307 370
#     4  10  19  33  56  84 118 153 187 236 297 358
#     4  10  21  34  53  86 120 152 191 239 289 360
#     4   9  19  36  61  92 121 154 202 258 309 359
#
# _framework density 21.711248000000001
#
# number of rings (size 3 to 8) (size 9 to 14) (size 15 to 20)
#    0.000    1.571    1.429    4.286    2.000    7.429 
#    0.000    1.429    0.000    2.571    0.000    2.000 
#    0.000    0.000    0.000    0.000    0.000    0.000 
#
# Total GULP energy -693903.045460 kJ/mol
# GULP energy per Si atom -12391.125812 kJ/mol
# Density = 2.166183 g / cm^3
# Si number density = 21.711248 Si / 1000 Ang^3
#
#
#
# Elastic Constant Matrix: (Units=GPa)
#
#
# Indices 1 2 3 4 5 6 
#
# 1 60.5943 25.8336 20.2412 0.0000 0.0000 0.0000
# 2 25.8336 100.6931 42.0882 0.0000 0.0000 0.0000
# 3 20.2412 42.0882 66.0445 0.0000 0.0000 0.0000
# 4 0.0000 0.0000 0.0000 19.4725 0.0000 0.0000
# 5 0.0000 0.0000 0.0000 0.0000 40.6055 0.0000
# 6 0.0000 0.0000 0.0000 0.0000 0.0000 41.6918
#
#
#
# Elastic Compliance Matrix: (Units=1/GPa)
#
#
# Indices 1 2 3 4 5 6 
#
# 1 0.019184 -0.003359 -0.003739 0.000000 0.000000 0.000000
# 2 -0.003359 0.014125 -0.007972 0.000000 0.000000 0.000000
# 3 -0.003739 -0.007972 0.021368 0.000000 0.000000 0.000000
# 4 0.000000 0.000000 0.000000 0.051355 0.000000 0.000000
# 5 0.000000 0.000000 0.000000 0.000000 0.024627 0.000000
# 6 0.000000 0.000000 0.000000 0.000000 0.000000 0.023986
#
#
# Mechanical properties :
#
#
# Convention : Reuss Voigt Hill
#
# Bulk Modulus (GPa) = 40.75496 44.85087 42.80292
# Shear Modulus (GPa) = 25.91165 29.63188 27.77177
#
# Velocity S-wave (km/s) = 3.45841 3.69835 3.58039
# Velocity P-wave (km/s) = 5.89572 6.24018 6.07039
#
# Compressibility (1/GPa) = 0.02453689
#
# Stress axis : x y z
#
# Youngs Moduli (GPa) = 52.12611 70.79555 46.79984
#
# Poissons Ratio (x) = 0.23781 0.17498
# Poissons Ratio (y) = 0.17509 0.37309
# Poissons Ratio (z) = 0.19490 0.56439
#
# Static dielectric constant tensor:
#      x y z
#    x 3.890090 0.000000 0.000000 
#    y 0.000000 4.026200 0.000000 
#    z 0.000000 0.000000 4.276050 
# 
# 
# High freq. dielectric constant tensor:
#      x y z
#    x 1.836940 0.000000 0.000000 
#    y 0.000000 1.859910 0.000000 
#    z 0.000000 0.000000 1.851400 
# 
# From -- ./inp_files/27494.got.cif
#   From: 2010.03.12/outbox.cif.g09.slc.cpg/sg67_14_cif.got.tgz:27494.got - 2010.04.10 22:41:39.
