data_PCOD8279455
_publ_section_title
;
Structure prediction by ZEFSAII (Michael W. Deem and Ramdas Pophale) SiO2 
 PCOD8279455
Probable space group: C M M A
;
_chemical_formula_sum "Si O2"
_cell_formula_units_Z 96
_cell_length_a 9.260805
_cell_length_b 26.082728
_cell_length_c 24.948482
_cell_angle_alpha 90.000000
_cell_angle_beta 90.000000
_cell_angle_gamma 90.000000
_cell_volume 6026.232426
_symmetry_space_group_name_H-M "C M M A"
_symmetry_group_IT_number 67
_symmetry_cell_setting 'orthorhombic'
loop_
_space_group_symop_operation_xyz
x,y,z
-x,1/2-y,z
x,-y,-z
-x,1/2+y,-z
-x,-y,-z
x,1/2+y,-z
-x,y,z
x,1/2-y,z
1/2+x,1/2+y,z
1/2-x,-y,z
1/2+x,1/2-y,-z
1/2-x,y,-z
1/2-x,1/2-y,-z
1/2+x,y,-z
1/2-x,1/2+y,z
1/2+x,-y,z
loop_
_atom_site_type_symbol
_atom_site_label
_atom_site_fract_x
_atom_site_fract_y
_atom_site_fract_z
Si Si1 0.665732 0.690954 0.757759
Si Si2 0.837241 0.689080 0.653901
Si Si3 0.664371 0.353836 0.130479
Si Si4 0.163726 0.811131 0.448285
Si Si5 0.844546 0.691393 0.953877
Si Si6 0.171584 0.947854 0.054682
O O1 0.500000 0.687603 0.739053
O O2 0.702066 0.750000 0.774087
O O3 0.764711 0.671303 0.709287
O O4 0.696163 0.651145 0.806280
O O5 0.838778 0.750000 0.650891
O O6 0.744686 0.667207 0.604278
O O7 0.000000 0.667264 0.650961
O O8 0.500000 0.338031 0.118776
O O9 0.765917 0.311967 0.102856
O O10 0.698933 0.409054 0.104339
O O11 0.162029 0.750000 0.447780
O O12 0.250000 0.831570 0.500000
O O13 0.000000 0.832296 0.449600
O O14 0.868165 0.750000 0.969192
O O15 0.000000 0.663427 0.951994
O O16 0.750000 0.663792 0.000000
O O17 0.000000 0.955890 0.044818
O O18 0.250000 0.000000 0.072833
O O19 0.250000 0.928593 0.000000
#
# Coordination Sequence:
#
# PCOD8279455 Si02
#       6
#    16  16  16  16  16  16
#     4   9  17  29  43  58  79 108 138 167 200 238
#     4   9  16  25  36  51  73 101 134 171 206 239
#     4  10  20  32  47  65  83 105 134 166 201 243
#     4   9  15  22  33  49  69  95 130 172 214 249
#     4  10  20  31  43  60  82 107 133 161 195 235
#     4  10  20  34  51  69  86 104 128 161 204 252
#
# _framework density 15.930351
#
# number of rings (size 3 to 8) (size 9 to 14) (size 15 to 20)
#    0.000    2.500    0.000    3.500    0.000    9.000 
#    0.000    1.667    0.000    0.000    0.000    0.000 
#    0.000    0.000    0.000    0.000    0.000    0.833 
#
# Total GULP energy -594890.206633 kJ/mol
# GULP energy per Si atom -12393.545972 kJ/mol
# Density = 1.589409 g / cm^3
# Si number density = 15.930351 Si / 1000 Ang^3
#
#
#
# Elastic Constant Matrix: (Units=GPa)
#
#
# Indices 1 2 3 4 5 6 
#
# 1 142.8380 24.0975 83.7477 0.0000 0.0000 0.0000
# 2 24.0975 36.9696 30.2158 0.0000 0.0000 0.0000
# 3 83.7477 30.2158 137.2969 0.0000 0.0000 0.0000
# 4 0.0000 0.0000 0.0000 10.9071 0.0000 0.0000
# 5 0.0000 0.0000 0.0000 0.0000 31.8927 0.0000
# 6 0.0000 0.0000 0.0000 0.0000 0.0000 10.6511
#
#
#
# Elastic Compliance Matrix: (Units=1/GPa)
#
#
# Indices 1 2 3 4 5 6 
#
# 1 0.011026 -0.002061 -0.006272 0.000000 0.000000 0.000000
# 2 -0.002061 0.033367 -0.006086 0.000000 0.000000 0.000000
# 3 -0.006272 -0.006086 0.012449 0.000000 0.000000 0.000000
# 4 0.000000 0.000000 0.000000 0.091683 0.000000 0.000000
# 5 0.000000 0.000000 0.000000 0.000000 0.031355 0.000000
# 6 0.000000 0.000000 0.000000 0.000000 0.000000 0.093887
#
#
# Mechanical properties :
#
#
# Convention : Reuss Voigt Hill
#
# Bulk Modulus (GPa) = 35.70987 65.91407 50.81197
# Shear Modulus (GPa) = 16.02874 22.62641 19.32757
#
# Velocity S-wave (km/s) = 3.17547 3.77282 3.48696
# Velocity P-wave (km/s) = 5.99247 7.77465 6.94100
#
# Compressibility (1/GPa) = 0.02800346
#
# Stress axis : x y z
#
# Youngs Moduli (GPa) = 90.69483 29.96989 80.32941
#
# Poissons Ratio (x) = 0.06176 0.50383
# Poissons Ratio (y) = 0.18690 0.48891
# Poissons Ratio (z) = 0.56884 0.18240
#
# Static dielectric constant tensor:
#      x y z
#    x 3.394010 0.000000 0.000000 
#    y 0.000000 2.527460 0.000000 
#    z 0.000000 0.000000 3.063920 
# 
# 
# High freq. dielectric constant tensor:
#      x y z
#    x 1.634140 0.000000 0.000000 
#    y 0.000000 1.542510 0.000000 
#    z 0.000000 0.000000 1.608950 
# 
# From -- ./inp_files/40919.got.cif
#   From: 2010.03.12/outbox.cif.g09.slc.cpg/sg67_21_cif.got.tgz:40919.got - 2010.04.10 22:41:39.
