data_PCOD8279034
_publ_section_title
;
Structure prediction by ZEFSAII (Michael W. Deem and Ramdas Pophale) SiO2 
 PCOD8279034
Probable space group: C M M A
;
_chemical_formula_sum "Si O2"
_cell_formula_units_Z 80
_cell_length_a 14.134294
_cell_length_b 25.574656
_cell_length_c 11.531699
_cell_angle_alpha 90.000000
_cell_angle_beta 90.000000
_cell_angle_gamma 90.000000
_cell_volume 4168.475174
_symmetry_space_group_name_H-M "C M M A"
_symmetry_group_IT_number 67
_symmetry_cell_setting 'orthorhombic'
loop_
_space_group_symop_operation_xyz
x,y,z
-x,1/2-y,z
x,-y,-z
-x,1/2+y,-z
-x,-y,-z
x,1/2+y,-z
-x,y,z
x,1/2-y,z
1/2+x,1/2+y,z
1/2-x,-y,z
1/2+x,1/2-y,-z
1/2-x,y,-z
1/2-x,1/2-y,-z
1/2+x,y,-z
1/2-x,1/2+y,z
1/2+x,-y,z
loop_
_atom_site_type_symbol
_atom_site_label
_atom_site_fract_x
_atom_site_fract_y
_atom_site_fract_z
Si Si1 0.890474 0.648757 0.947159
Si Si2 0.209106 0.690773 0.157852
Si Si3 0.890213 0.973160 0.379353
Si Si4 0.892599 0.571525 0.756647
Si Si5 0.735319 0.871636 0.628562
O O1 0.820155 0.687407 0.877143
O O2 0.879658 0.589849 0.891641
O O3 0.000000 0.667194 0.937461
O O4 0.855110 0.651004 0.080362
O O5 0.173886 0.750000 0.140486
O O6 0.194279 0.674568 0.291250
O O7 0.834841 0.920099 0.364322
O O8 0.000000 0.959099 0.379980
O O9 0.859270 0.000000 0.500000
O O10 0.863101 0.011507 0.270861
O O11 0.836853 0.611147 0.675163
O O12 0.000000 0.578359 0.716097
O O13 0.750000 0.849396 0.500000
#
# Coordination Sequence:
#
# PCOD8279034 Si02
#       5
#    16  16  16  16  16
#     4   9  18  36  60  81 106 140 180 229 281 332
#     4  10  22  37  54  81 109 140 190 236 275 330
#     4  10  19  32  53  81 111 143 180 221 268 329
#     4   9  18  32  53  83 110 137 180 227 272 330
#     4  11  21  33  54  79 110 150 183 223 275 331
#
# _framework density 19.191669999999998
#
# number of rings (size 3 to 8) (size 9 to 14) (size 15 to 20)
#    0.000    2.200    2.000    1.800    0.000    2.800 
#    0.000    1.000    0.000    8.400    0.000    5.600 
#    0.000    0.000    0.000    0.000    0.000    0.000 
#
# Total GULP energy -495644.883181 kJ/mol
# GULP energy per Si atom -12391.122080 kJ/mol
# Density = 1.914799 g / cm^3
# Si number density = 19.191670 Si / 1000 Ang^3
#
#
#
# Elastic Constant Matrix: (Units=GPa)
#
#
# Indices 1 2 3 4 5 6 
#
# 1 78.3761 26.3273 34.5197 0.0000 0.0000 0.0000
# 2 26.3273 79.7664 62.5944 0.0000 0.0000 0.0000
# 3 34.5197 62.5944 150.3571 0.0000 0.0000 0.0000
# 4 0.0000 0.0000 0.0000 28.9576 0.0000 0.0000
# 5 0.0000 0.0000 0.0000 0.0000 21.8401 0.0000
# 6 0.0000 0.0000 0.0000 0.0000 0.0000 15.2837
#
#
#
# Elastic Compliance Matrix: (Units=1/GPa)
#
#
# Indices 1 2 3 4 5 6 
#
# 1 0.014752 -0.003284 -0.002020 0.000000 0.000000 0.000000
# 2 -0.003284 0.019350 -0.007302 0.000000 0.000000 0.000000
# 3 -0.002020 -0.007302 0.010154 0.000000 0.000000 0.000000
# 4 0.000000 0.000000 0.000000 0.034533 0.000000 0.000000
# 5 0.000000 0.000000 0.000000 0.000000 0.045787 0.000000
# 6 0.000000 0.000000 0.000000 0.000000 0.000000 0.065429
#
#
# Mechanical properties :
#
#
# Convention : Reuss Voigt Hill
#
# Bulk Modulus (GPa) = 52.50563 61.70915 57.10739
# Shear Modulus (GPa) = 22.56673 25.55348 24.06011
#
# Velocity S-wave (km/s) = 3.43280 3.65291 3.54457
# Velocity P-wave (km/s) = 6.56735 7.07217 6.82443
#
# Compressibility (1/GPa) = 0.01904558
#
# Stress axis : x y z
#
# Youngs Moduli (GPa) = 67.78914 51.67888 98.48129
#
# Poissons Ratio (x) = 0.16971 0.19889
# Poissons Ratio (y) = 0.22262 0.71908
# Poissons Ratio (z) = 0.13691 0.37734
#
# Static dielectric constant tensor:
#      x y z
#    x 3.612280 0.000000 0.000000 
#    y 0.000000 3.355330 0.000000 
#    z 0.000000 0.000000 3.792970 
# 
# 
# High freq. dielectric constant tensor:
#      x y z
#    x 1.755550 0.000000 0.000000 
#    y 0.000000 1.716000 0.000000 
#    z 0.000000 0.000000 1.740080 
# 
# From -- ./inp_files/17914.got.cif
#   From: 2010.03.12/outbox.cif.g09.slc.cpg/sg67_9_cif.got.tgz:17914.got - 2010.04.10 22:41:39.
