data_PCOD8279920
_publ_section_title
;
Structure prediction by ZEFSAII (Michael W. Deem and Ramdas Pophale) SiO2 
 PCOD8279920
Probable space group: C M M A
;
_chemical_formula_sum "Si O2"
_cell_formula_units_Z 72
_cell_length_a 8.781971
_cell_length_b 31.989311
_cell_length_c 13.330754
_cell_angle_alpha 90.000000
_cell_angle_beta 90.000000
_cell_angle_gamma 90.000000
_cell_volume 3744.998077
_symmetry_space_group_name_H-M "C M M A"
_symmetry_group_IT_number 67
_symmetry_cell_setting 'orthorhombic'
loop_
_space_group_symop_operation_xyz
x,y,z
-x,1/2-y,z
x,-y,-z
-x,1/2+y,-z
-x,-y,-z
x,1/2+y,-z
-x,y,z
x,1/2-y,z
1/2+x,1/2+y,z
1/2-x,-y,z
1/2+x,1/2-y,-z
1/2-x,y,-z
1/2-x,1/2-y,-z
1/2+x,y,-z
1/2-x,1/2+y,z
1/2+x,-y,z
loop_
_atom_site_type_symbol
_atom_site_label
_atom_site_fract_x
_atom_site_fract_y
_atom_site_fract_z
Si Si1 0.821562 0.667905 0.194594
Si Si2 0.322146 0.376667 0.398650
Si Si3 0.179931 0.250000 0.110045
Si Si4 0.321456 0.088449 0.898957
Si Si5 0.177846 0.544242 0.695374
O O1 0.785638 0.655442 0.309200
O O2 0.732869 0.710134 0.172708
O O3 0.761331 0.632332 0.120354
O O4 0.000000 0.674263 0.175406
O O5 0.500000 0.383073 0.412667
O O6 0.250000 0.357775 0.500000
O O7 0.249046 0.421668 0.378087
O O8 0.000000 0.250000 0.099525
O O9 0.250000 0.250000 0.000000
O O10 0.500000 0.096532 0.910895
O O11 0.285717 0.055915 0.810505
O O12 0.250000 0.068981 0.000000
O O13 0.250000 0.500000 0.669457
O O14 0.000000 0.542386 0.674449
#
# Coordination Sequence:
#
# PCOD8279920 Si02
#       5
#    16  16   8  16  16
#     4  10  21  38  58  82 112 144 181 225 270 320
#     4  10  21  38  61  84 109 142 180 224 274 326
#     4  12  24  38  59  86 117 150 183 222 266 316
#     4  10  20  34  53  77 107 145 184 224 271 326
#     4  10  21  36  54  78 109 142 182 229 275 324
#
# _framework density 19.225643000000002
#
# number of rings (size 3 to 8) (size 9 to 14) (size 15 to 20)
#    0.000    1.778    0.000    4.333    0.000    6.222 
#    0.000    5.000    0.000    0.000    0.000    0.000 
#    0.000    0.000    0.000    0.000    0.000    0.000 
#
# Total GULP energy -446589.367830 kJ/mol
# GULP energy per Si atom -12405.260217 kJ/mol
# Density = 1.918189 g / cm^3
# Si number density = 19.225643 Si / 1000 Ang^3
#
#
#
# Elastic Constant Matrix: (Units=GPa)
#
#
# Indices 1 2 3 4 5 6 
#
# 1 120.7910 50.7397 51.1156 0.0000 0.0000 0.0000
# 2 50.7397 103.6615 27.3869 0.0000 0.0000 0.0000
# 3 51.1156 27.3869 110.8228 0.0000 0.0000 0.0000
# 4 0.0000 0.0000 0.0000 16.1527 0.0000 0.0000
# 5 0.0000 0.0000 0.0000 0.0000 37.5997 0.0000
# 6 0.0000 0.0000 0.0000 0.0000 0.0000 34.0361
#
#
#
# Elastic Compliance Matrix: (Units=1/GPa)
#
#
# Indices 1 2 3 4 5 6 
#
# 1 0.012161 -0.004783 -0.004427 0.000000 0.000000 0.000000
# 2 -0.004783 0.012202 -0.000809 0.000000 0.000000 0.000000
# 3 -0.004427 -0.000809 0.011265 0.000000 0.000000 0.000000
# 4 0.000000 0.000000 0.000000 0.061909 0.000000 0.000000
# 5 0.000000 0.000000 0.000000 0.000000 0.026596 0.000000
# 6 0.000000 0.000000 0.000000 0.000000 0.000000 0.029381
#
#
# Mechanical properties :
#
#
# Convention : Reuss Voigt Hill
#
# Bulk Modulus (GPa) = 64.14579 65.97329 65.05954
# Shear Modulus (GPa) = 27.97204 31.29325 29.63265
#
# Velocity S-wave (km/s) = 3.81850 4.03883 3.93021
# Velocity P-wave (km/s) = 7.27175 7.49262 7.38301
#
# Compressibility (1/GPa) = 0.01558949
#
# Stress axis : x y z
#
# Youngs Moduli (GPa) = 82.22690 81.95538 88.76709
#
# Poissons Ratio (x) = 0.39200 0.39300
# Poissons Ratio (y) = 0.39330 0.07183
# Poissons Ratio (z) = 0.36404 0.06632
#
# Static dielectric constant tensor:
#      x y z
#    x 3.652210 0.000000 0.000000 
#    y 0.000000 3.304650 0.000000 
#    z 0.000000 0.000000 3.645620 
# 
# 
# High freq. dielectric constant tensor:
#      x y z
#    x 1.767790 0.000000 0.000000 
#    y 0.000000 1.734870 0.000000 
#    z 0.000000 0.000000 1.756030 
# 
# From -- ./inp_files/25292.got.cif
#   From: 2010.03.12/outbox.cif.g09.slc.cpg/sg67_13_cif.got.tgz:25292.got - 2010.04.10 22:41:39.
