data_PCOD8279528
_publ_section_title
;
Structure prediction by ZEFSAII (Michael W. Deem and Ramdas Pophale) SiO2 
 PCOD8279528
Probable space group: C M M A
;
_chemical_formula_sum "Si O2"
_cell_formula_units_Z 104
_cell_length_a 9.226242
_cell_length_b 26.412934
_cell_length_c 26.576440
_cell_angle_alpha 90.000000
_cell_angle_beta 90.000000
_cell_angle_gamma 90.000000
_cell_volume 6476.469033
_symmetry_space_group_name_H-M "C M M A"
_symmetry_group_IT_number 67
_symmetry_cell_setting 'orthorhombic'
loop_
_space_group_symop_operation_xyz
x,y,z
-x,1/2-y,z
x,-y,-z
-x,1/2+y,-z
-x,-y,-z
x,1/2+y,-z
-x,y,z
x,1/2-y,z
1/2+x,1/2+y,z
1/2-x,-y,z
1/2+x,1/2-y,-z
1/2-x,y,-z
1/2-x,1/2-y,-z
1/2+x,y,-z
1/2-x,1/2+y,z
1/2+x,-y,z
loop_
_atom_site_type_symbol
_atom_site_label
_atom_site_fract_x
_atom_site_fract_y
_atom_site_fract_z
Si Si1 0.331211 0.691816 0.744075
Si Si2 0.332861 0.448155 0.904186
Si Si3 0.335723 0.810371 0.548729
Si Si4 0.836750 0.310073 0.355031
Si Si5 0.250000 0.385041 0.000000
Si Si6 0.841202 0.303951 0.930704
Si Si7 0.327773 0.369042 0.157267
O O1 0.500000 0.688027 0.730442
O O2 0.293049 0.750000 0.759086
O O3 0.240261 0.673035 0.696317
O O4 0.289259 0.652689 0.788067
O O5 0.500000 0.458088 0.890695
O O6 0.250000 0.500000 0.913630
O O7 0.326126 0.418132 0.957096
O O8 0.256834 0.420698 0.856424
O O9 0.500000 0.831287 0.547723
O O10 0.337473 0.750000 0.549312
O O11 0.250000 0.830531 0.500000
O O12 0.254057 0.831862 0.597948
O O13 0.840322 0.250000 0.358592
O O14 0.000000 0.332004 0.356485
O O15 0.139286 0.345308 0.974760
O O16 0.765122 0.250000 0.946114
O O17 0.762509 0.328439 0.882472
O O18 0.000000 0.290405 0.911701
O O19 0.500000 0.378612 0.151134
#
# Coordination Sequence:
#
# PCOD8279528 Si02
#       7
#    16  16  16  16   8  16  16
#     4   9  16  27  44  64  86 114 146 177 211 254
#     4  11  23  37  53  70  88 110 138 174 215 258
#     4   9  15  22  32  46  67  98 138 183 226 264
#     4   9  16  24  34  51  76 106 141 181 221 256
#     4  10  20  32  48  68  92 114 140 170 206 248
#     4   9  16  27  44  65  89 116 143 168 197 240
#     4   9  18  32  49  68  89 113 142 174 210 254
#
# _framework density 16.058133000000002
#
# number of rings (size 3 to 8) (size 9 to 14) (size 15 to 20)
#    0.000    2.615    0.000    2.769    0.000    8.615 
#    0.000    0.000    0.000    8.769    0.000    0.000 
#    0.000    0.000    0.000    0.000    0.000    0.769 
#
# Total GULP energy -644201.168105 kJ/mol
# GULP energy per Si atom -12388.484002 kJ/mol
# Density = 1.602158 g / cm^3
# Si number density = 16.058133 Si / 1000 Ang^3
#
#
#
# Elastic Constant Matrix: (Units=GPa)
#
#
# Indices 1 2 3 4 5 6 
#
# 1 102.6563 31.3320 59.1032 0.0000 0.0000 0.0000
# 2 31.3320 71.9073 38.2880 0.0000 0.0000 0.0000
# 3 59.1032 38.2880 128.9350 0.0000 0.0000 0.0000
# 4 0.0000 0.0000 0.0000 7.0987 0.0000 0.0000
# 5 0.0000 0.0000 0.0000 0.0000 26.2311 0.0000
# 6 0.0000 0.0000 0.0000 0.0000 0.0000 14.5893
#
#
#
# Elastic Compliance Matrix: (Units=1/GPa)
#
#
# Indices 1 2 3 4 5 6 
#
# 1 0.013807 -0.003143 -0.005396 0.000000 0.000000 0.000000
# 2 -0.003143 0.017234 -0.003677 0.000000 0.000000 0.000000
# 3 -0.005396 -0.003677 0.011321 0.000000 0.000000 0.000000
# 4 0.000000 0.000000 0.000000 0.140870 0.000000 0.000000
# 5 0.000000 0.000000 0.000000 0.000000 0.038123 0.000000
# 6 0.000000 0.000000 0.000000 0.000000 0.000000 0.068543
#
#
# Mechanical properties :
#
#
# Convention : Reuss Voigt Hill
#
# Bulk Modulus (GPa) = 55.77018 62.32721 59.04870
# Shear Modulus (GPa) = 15.61001 21.23553 18.42277
#
# Velocity S-wave (km/s) = 3.12122 3.64045 3.39079
# Velocity P-wave (km/s) = 6.91339 7.52119 7.22368
#
# Compressibility (1/GPa) = 0.01793073
#
# Stress axis : x y z
#
# Youngs Moduli (GPa) = 72.42657 58.02417 88.33036
#
# Poissons Ratio (x) = 0.18238 0.47661
# Poissons Ratio (y) = 0.22764 0.32479
# Poissons Ratio (z) = 0.39080 0.21336
#
# Static dielectric constant tensor:
#      x y z
#    x 3.064470 0.000000 0.000000 
#    y 0.000000 2.858670 0.000000 
#    z 0.000000 0.000000 3.086700 
# 
# 
# High freq. dielectric constant tensor:
#      x y z
#    x 1.615560 0.000000 0.000000 
#    y 0.000000 1.566920 0.000000 
#    z 0.000000 0.000000 1.615230 
# 
# From -- ./inp_files/43848.got.cif
#   From: 2010.03.12/outbox.cif.g09.slc.cpg/sg67_22_cif.got.tgz:43848.got - 2010.04.10 22:41:39.
