data_PCOD8279949
_publ_section_title
;
Structure prediction by ZEFSAII (Michael W. Deem and Ramdas Pophale) SiO2 
 PCOD8279949
Probable space group: C M M A
;
_chemical_formula_sum "Si O2"
_cell_formula_units_Z 72
_cell_length_a 26.877082
_cell_length_b 22.715303
_cell_length_c 6.188731
_cell_angle_alpha 90.000000
_cell_angle_beta 90.000000
_cell_angle_gamma 90.000000
_cell_volume 3778.350619
_symmetry_space_group_name_H-M "C M M A"
_symmetry_group_IT_number 67
_symmetry_cell_setting 'orthorhombic'
loop_
_space_group_symop_operation_xyz
x,y,z
-x,1/2-y,z
x,-y,-z
-x,1/2+y,-z
-x,-y,-z
x,1/2+y,-z
-x,y,z
x,1/2-y,z
1/2+x,1/2+y,z
1/2-x,-y,z
1/2+x,1/2-y,-z
1/2-x,y,-z
1/2-x,1/2-y,-z
1/2+x,y,-z
1/2-x,1/2+y,z
1/2+x,-y,z
loop_
_atom_site_type_symbol
_atom_site_label
_atom_site_fract_x
_atom_site_fract_y
_atom_site_fract_z
Si Si1 0.886023 0.183120 0.384076
Si Si2 0.941738 0.414578 0.158158
Si Si3 0.127043 0.102042 0.772375
Si Si4 0.808355 0.184742 0.034046
Si Si5 0.107764 0.000000 0.500000
O O1 0.903204 0.250000 0.404043
O O2 0.925416 0.150707 0.229872
O O3 0.890596 0.155088 0.619904
O O4 0.829938 0.178000 0.279350
O O5 0.926268 0.463320 0.333811
O O6 0.000000 0.418219 0.122006
O O7 0.916449 0.423831 0.924612
O O8 0.143352 0.045923 0.626927
O O9 0.172731 0.128358 0.903525
O O10 0.825893 0.250000 0.950007
O O11 0.750000 0.181209 0.000000
#
# Coordination Sequence:
#
# PCOD8279949 Si02
#       5
#    16  16  16  16   8
#     4   9  19  35  54  79 110 140 173 217 270 327
#     4  10  21  36  55  78 104 139 183 227 270 319
#     4  10  20  34  54  78 108 140 175 220 270 322
#     4   9  18  34  58  84 107 136 177 223 269 320
#     4  10  21  36  56  75 100 140 186 229 267 314
#
# _framework density 19.055935000000002
#
# number of rings (size 3 to 8) (size 9 to 14) (size 15 to 20)
#    0.000    2.444    0.000    1.667    0.000    7.556 
#    0.000    3.333    0.000   38.667    0.000    0.000 
#    0.000    0.000    0.000    0.000    0.000    0.000 
#
# Total GULP energy -445971.734479 kJ/mol
# GULP energy per Si atom -12388.103736 kJ/mol
# Density = 1.901256 g / cm^3
# Si number density = 19.055935 Si / 1000 Ang^3
#
#
#
# Elastic Constant Matrix: (Units=GPa)
#
#
# Indices 1 2 3 4 5 6 
#
# 1 83.2702 43.6965 35.3187 0.0000 0.0000 0.0000
# 2 43.6965 149.7044 62.1414 0.0000 0.0000 0.0000
# 3 35.3187 62.1414 109.3217 0.0000 0.0000 0.0000
# 4 0.0000 0.0000 0.0000 37.6543 0.0000 0.0000
# 5 0.0000 0.0000 0.0000 0.0000 12.3294 0.0000
# 6 0.0000 0.0000 0.0000 0.0000 0.0000 16.9460
#
#
#
# Elastic Compliance Matrix: (Units=1/GPa)
#
#
# Indices 1 2 3 4 5 6 
#
# 1 0.014929 -0.003083 -0.003071 0.000000 0.000000 0.000000
# 2 -0.003083 0.009379 -0.004335 0.000000 0.000000 0.000000
# 3 -0.003071 -0.004335 0.012604 0.000000 0.000000 0.000000
# 4 0.000000 0.000000 0.000000 0.026557 0.000000 0.000000
# 5 0.000000 0.000000 0.000000 0.000000 0.081107 0.000000
# 6 0.000000 0.000000 0.000000 0.000000 0.000000 0.059011
#
#
# Mechanical properties :
#
#
# Convention : Reuss Voigt Hill
#
# Bulk Modulus (GPa) = 62.75879 69.40107 66.07993
# Shear Modulus (GPa) = 21.75072 26.79525 24.27299
#
# Velocity S-wave (km/s) = 3.38215 3.75392 3.57287
# Velocity P-wave (km/s) = 6.94675 7.43558 7.19532
#
# Compressibility (1/GPa) = 0.01593402
#
# Stress axis : x y z
#
# Youngs Moduli (GPa) = 66.98204 106.61748 79.34128
#
# Poissons Ratio (x) = 0.32870 0.24364
# Poissons Ratio (y) = 0.20651 0.34398
# Poissons Ratio (z) = 0.20569 0.46223
#
# Static dielectric constant tensor:
#      x y z
#    x 3.103350 0.000000 0.000000 
#    y 0.000000 3.907900 0.000000 
#    z 0.000000 0.000000 3.791700 
# 
# 
# High freq. dielectric constant tensor:
#      x y z
#    x 1.697520 0.000000 0.000000 
#    y 0.000000 1.764410 0.000000 
#    z 0.000000 0.000000 1.752650 
# 
# From -- ./inp_files/3440.got.cif
#   From: 2010.03.12/outbox.cif.g09.slc.cpg/sg67_2_cif.got.tgz:3440.got - 2010.04.10 22:41:39.
