data_PCOD8279428
_publ_section_title
;
Structure prediction by ZEFSAII (Michael W. Deem and Ramdas Pophale) SiO2 
 PCOD8279428
Probable space group: C M M A
;
_chemical_formula_sum "Si O2"
_cell_formula_units_Z 80
_cell_length_a 22.795000
_cell_length_b 18.529577
_cell_length_c 9.598011
_cell_angle_alpha 90.000000
_cell_angle_beta 90.000000
_cell_angle_gamma 90.000000
_cell_volume 4054.024277
_symmetry_space_group_name_H-M "C M M A"
_symmetry_group_IT_number 67
_symmetry_cell_setting 'orthorhombic'
loop_
_space_group_symop_operation_xyz
x,y,z
-x,1/2-y,z
x,-y,-z
-x,1/2+y,-z
-x,-y,-z
x,1/2+y,-z
-x,y,z
x,1/2-y,z
1/2+x,1/2+y,z
1/2-x,-y,z
1/2+x,1/2-y,-z
1/2-x,y,-z
1/2-x,1/2-y,-z
1/2+x,y,-z
1/2-x,1/2+y,z
1/2+x,-y,z
loop_
_atom_site_type_symbol
_atom_site_label
_atom_site_fract_x
_atom_site_fract_y
_atom_site_fract_z
Si Si1 0.000000 0.667793 0.017157
Si Si2 0.183553 0.525747 0.144181
Si Si3 0.616831 0.332953 0.192600
Si Si4 0.000000 0.464996 0.150437
Si Si5 0.398276 0.463072 0.647306
Si Si6 0.567444 0.667982 0.504637
O O1 0.000000 0.621342 0.875291
O O2 0.000000 0.750000 0.968606
O O3 0.942088 0.649823 0.106773
O O4 0.250000 0.500000 0.134297
O O5 0.169979 0.611983 0.154886
O O6 0.163034 0.484083 0.283573
O O7 0.152416 0.500000 0.000000
O O8 0.637293 0.250000 0.166440
O O9 0.602485 0.345943 0.353792
O O10 0.944527 0.490801 0.238780
O O11 0.000000 0.500000 0.000000
O O12 0.410207 0.500000 0.500000
O O13 0.403222 0.377595 0.620263
O O14 0.500000 0.644718 0.526202
O O15 0.572397 0.750000 0.456738
#
# Coordination Sequence:
#
# PCOD8279428 Si02
#       6
#     8  16  16   8  16  16
#     4  10  20  34  59  91 128 163 197 241 302 377
#     4  11  25  45  64  88 123 162 211 267 315 362
#     4  10  19  38  65  94 126 165 205 250 314 381
#     4  12  25  34  55  90 130 162 199 250 308 371
#     4  12  23  38  61  89 121 160 208 256 310 366
#     4  10  20  36  59  91 131 163 196 248 311 377
#
# _framework density 19.733478000000002
#
# number of rings (size 3 to 8) (size 9 to 14) (size 15 to 20)
#    0.000    1.200    4.000    3.300    0.000    1.200 
#    0.000    4.000    0.000    2.400    0.000    0.000 
#    0.000    0.000    0.000    0.000    0.000    0.000 
#
# Total GULP energy -495822.874209 kJ/mol
# GULP energy per Si atom -12395.571855 kJ/mol
# Density = 1.968856 g / cm^3
# Si number density = 19.733478 Si / 1000 Ang^3
#
#
#
# Elastic Constant Matrix: (Units=GPa)
#
#
# Indices 1 2 3 4 5 6 
#
# 1 82.8979 58.7749 36.5719 0.0000 0.0000 0.0000
# 2 58.7749 134.1755 56.1731 0.0000 0.0000 0.0000
# 3 36.5719 56.1731 126.1016 0.0000 0.0000 0.0000
# 4 0.0000 0.0000 0.0000 41.6219 0.0000 0.0000
# 5 0.0000 0.0000 0.0000 0.0000 27.4810 0.0000
# 6 0.0000 0.0000 0.0000 0.0000 0.0000 31.9634
#
#
#
# Elastic Compliance Matrix: (Units=1/GPa)
#
#
# Indices 1 2 3 4 5 6 
#
# 1 0.017935 -0.006981 -0.002092 0.000000 0.000000 0.000000
# 2 -0.006981 0.011878 -0.003267 0.000000 0.000000 0.000000
# 3 -0.002092 -0.003267 0.009992 0.000000 0.000000 0.000000
# 4 0.000000 0.000000 0.000000 0.024026 0.000000 0.000000
# 5 0.000000 0.000000 0.000000 0.000000 0.036389 0.000000
# 6 0.000000 0.000000 0.000000 0.000000 0.000000 0.031286
#
#
# Mechanical properties :
#
#
# Convention : Reuss Voigt Hill
#
# Bulk Modulus (GPa) = 66.10764 71.80166 68.95465
# Shear Modulus (GPa) = 31.01211 32.99025 32.00118
#
# Velocity S-wave (km/s) = 3.96858 4.09319 4.03136
# Velocity P-wave (km/s) = 7.38732 7.66835 7.52915
#
# Compressibility (1/GPa) = 0.01512684
#
# Stress axis : x y z
#
# Youngs Moduli (GPa) = 55.75612 84.18616 100.07932
#
# Poissons Ratio (x) = 0.58767 0.20936
# Poissons Ratio (y) = 0.38921 0.32694
# Poissons Ratio (z) = 0.11664 0.27502
#
# Static dielectric constant tensor:
#      x y z
#    x 3.241860 0.000000 0.000000 
#    y 0.000000 3.996810 0.000000 
#    z 0.000000 0.000000 3.758380 
# 
# 
# High freq. dielectric constant tensor:
#      x y z
#    x 1.732280 0.000000 0.000000 
#    y 0.000000 1.786460 0.000000 
#    z 0.000000 0.000000 1.781280 
# 
# From -- ./inp_files/22892.got.cif
#   From: 2010.03.12/outbox.cif.g09.slc.cpg/sg67_12_cif.got.tgz:22892.got - 2010.04.10 22:41:39.
