data_PCOD8279314
_publ_section_title
;
Structure prediction by ZEFSAII (Michael W. Deem and Ramdas Pophale) SiO2 
 PCOD8279314
Probable space group: C M M A
;
_chemical_formula_sum "Si O2"
_cell_formula_units_Z 60
_cell_length_a 22.750793
_cell_length_b 10.290526
_cell_length_c 13.763799
_cell_angle_alpha 90.000000
_cell_angle_beta 90.000000
_cell_angle_gamma 90.000000
_cell_volume 3222.347959
_symmetry_space_group_name_H-M "C M M A"
_symmetry_group_IT_number 67
_symmetry_cell_setting 'orthorhombic'
loop_
_space_group_symop_operation_xyz
x,y,z
-x,1/2-y,z
x,-y,-z
-x,1/2+y,-z
-x,-y,-z
x,1/2+y,-z
-x,y,z
x,1/2-y,z
1/2+x,1/2+y,z
1/2-x,-y,z
1/2+x,1/2-y,-z
1/2-x,y,-z
1/2-x,1/2-y,-z
1/2+x,y,-z
1/2-x,1/2+y,z
1/2+x,-y,z
loop_
_atom_site_type_symbol
_atom_site_label
_atom_site_fract_x
_atom_site_fract_y
_atom_site_fract_z
Si Si1 0.750000 0.000000 0.667564
Si Si2 0.000000 0.750000 0.700371
Si Si3 0.793750 0.250000 0.247439
Si Si4 0.613761 0.250000 0.580246
Si Si5 0.895338 0.500000 0.000000
Si Si6 0.341814 0.500000 0.500000
Si Si7 0.000000 0.396240 0.116647
Si Si8 0.319434 0.250000 0.973426
O O1 0.745719 0.121769 0.740637
O O2 0.694922 0.978237 0.597796
O O3 0.947500 0.750000 0.628821
O O4 0.000000 0.879901 0.766960
O O5 0.838230 0.250000 0.336027
O O6 0.826187 0.250000 0.143518
O O7 0.618267 0.126039 0.510876
O O8 0.852631 0.623736 0.017363
O O9 0.940246 0.526296 0.910487
O O10 0.000000 0.250000 0.068003
O O11 0.250000 0.250000 0.000000
#
# Coordination Sequence:
#
# PCOD8279314 Si02
#       8
#     8   4   8   8   8   8   8   8
#     4   9  18  34  57  80 116 146 197 230 268 357
#     4  10  20  38  56  90 106 148 188 252 292 354
#     4  10  21  36  54  81 111 155 192 233 283 342
#     4  10  19  34  59  79 115 141 190 236 283 352
#     4  11  21  40  62  82 113 155 200 258 294 349
#     4   9  18  33  56  88 108 153 184 229 290 342
#     4   9  19  39  65  85 103 146 216 255 284 336
#     4  12  26  38  55  88 127 162 193 242 314 373
#
# _framework density 18.619962999999998
#
# number of rings (size 3 to 8) (size 9 to 14) (size 15 to 20)
#    0.400    1.600    1.333    2.800    3.733    3.733 
#    0.000    0.000    0.000    1.600    0.000    0.000 
#    0.000    0.000    0.000    0.000    0.000    0.000 
#
# Total GULP energy -371786.117204 kJ/mol
# GULP energy per Si atom -12392.870573 kJ/mol
# Density = 1.857758 g / cm^3
# Si number density = 18.619963 Si / 1000 Ang^3
#
#
#
# Elastic Constant Matrix: (Units=GPa)
#
#
# Indices 1 2 3 4 5 6 
#
# 1 120.4133 77.7048 29.2623 0.0000 0.0000 0.0000
# 2 77.7048 178.6998 56.4902 0.0000 0.0000 0.0000
# 3 29.2623 56.4902 72.9760 0.0000 0.0000 0.0000
# 4 0.0000 0.0000 0.0000 1039.3726 0.0000 0.0000
# 5 0.0000 0.0000 0.0000 0.0000 13.5013 0.0000
# 6 0.0000 0.0000 0.0000 0.0000 0.0000 31.2457
#
#
#
# Elastic Compliance Matrix: (Units=1/GPa)
#
#
# Indices 1 2 3 4 5 6 
#
# 1 0.011598 -0.004731 -0.000989 0.000000 0.000000 0.000000
# 2 -0.004731 0.009339 -0.005332 0.000000 0.000000 0.000000
# 3 -0.000989 -0.005332 0.018227 0.000000 0.000000 0.000000
# 4 0.000000 0.000000 0.000000 0.000962 0.000000 0.000000
# 5 0.000000 0.000000 0.000000 0.000000 0.074067 0.000000
# 6 0.000000 0.000000 0.000000 0.000000 0.000000 0.032004
#
#
# Mechanical properties :
#
#
# Convention : Reuss Voigt Hill
#
# Bulk Modulus (GPa) = 58.61361 77.66710 68.14035
# Shear Modulus (GPa) = 28.73799 230.73272 129.73536
#
# Velocity S-wave (km/s) = 3.93287 11.14387 8.35624
# Velocity P-wave (km/s) = 7.22292 14.40081 11.39197
#
# Compressibility (1/GPa) = 0.01706088
#
# Stress axis : x y z
#
# Youngs Moduli (GPa) = 86.22407 107.08323 54.86363
#
# Poissons Ratio (x) = 0.50656 0.05424
# Poissons Ratio (y) = 0.40789 0.29253
# Poissons Ratio (z) = 0.08524 0.57097
#
# Static dielectric constant tensor:
#      x y z
#    x 3.274680 0.000000 0.000000 
#    y 0.000000 3.750320 0.000000 
#    z 0.000000 0.000000 3.257950 
# 
# 
# High freq. dielectric constant tensor:
#      x y z
#    x 1.719290 0.000000 0.000000 
#    y 0.000000 1.731340 0.000000 
#    z 0.000000 0.000000 1.705300 
# 
# From -- ./inp_files/20348.got.cif
#   From: 2010.03.12/outbox.cif.g09.slc.cpg/sg67_11_cif.got.tgz:20348.got - 2010.04.10 22:41:39.
