data_PCOD8279067
_publ_section_title
;
Structure prediction by ZEFSAII (Michael W. Deem and Ramdas Pophale) SiO2 
 PCOD8279067
Probable space group: C M M A
;
_chemical_formula_sum "Si O2"
_cell_formula_units_Z 104
_cell_length_a 9.463020
_cell_length_b 26.457037
_cell_length_c 21.513807
_cell_angle_alpha 90.000000
_cell_angle_beta 90.000000
_cell_angle_gamma 90.000000
_cell_volume 5386.271379
_symmetry_space_group_name_H-M "C M M A"
_symmetry_group_IT_number 67
_symmetry_cell_setting 'orthorhombic'
loop_
_space_group_symop_operation_xyz
x,y,z
-x,1/2-y,z
x,-y,-z
-x,1/2+y,-z
-x,-y,-z
x,1/2+y,-z
-x,y,z
x,1/2-y,z
1/2+x,1/2+y,z
1/2-x,-y,z
1/2+x,1/2-y,-z
1/2-x,y,-z
1/2-x,1/2-y,-z
1/2+x,y,-z
1/2-x,1/2+y,z
1/2+x,-y,z
loop_
_atom_site_type_symbol
_atom_site_label
_atom_site_fract_x
_atom_site_fract_y
_atom_site_fract_z
Si Si1 0.833465 0.250000 0.856784
Si Si2 0.167628 0.345622 0.936808
Si Si3 0.169470 0.750000 0.284955
Si Si4 0.250000 0.500000 0.642375
Si Si5 0.655937 0.425320 0.259921
Si Si6 0.666480 0.654414 0.325032
Si Si7 0.844276 0.087973 0.439824
Si Si8 0.662730 0.952573 0.878926
O O1 0.780874 0.198920 0.890559
O O2 0.777427 0.250000 0.786311
O O3 0.000000 0.250000 0.855333
O O4 0.212749 0.399816 0.909104
O O5 0.000000 0.342689 0.948344
O O6 0.250000 0.336401 0.000000
O O7 0.237229 0.796823 0.320280
O O8 0.000000 0.750000 0.291332
O O9 0.352997 0.532250 0.686625
O O10 0.158079 0.535801 0.598266
O O11 0.500000 0.399139 0.256626
O O12 0.778798 0.385200 0.273593
O O13 0.691494 0.450506 0.194410
O O14 0.500000 0.664630 0.313733
O O15 0.697112 0.633536 0.393984
O O16 0.750000 0.087060 0.500000
O O17 0.000000 0.096078 0.465854
O O18 0.500000 0.962715 0.894537
O O19 0.750000 0.000000 0.906788
#
# Coordination Sequence:
#
# PCOD8279067 Si02
#       8
#     8  16   8   8  16  16  16  16
#     4   9  19  38  64  89 115 142 179 235 292 347
#     4  10  21  38  59  83 113 150 191 236 284 339
#     4  11  21  38  65  91 112 142 184 227 284 347
#     4  10  19  32  56  84 113 144 186 236 288 332
#     4  10  19  34  56  82 112 149 191 232 284 345
#     4  10  22  38  56  82 117 149 183 232 286 334
#     4  10  22  37  54  79 112 150 189 231 275 328
#     4  10  21  36  55  81 114 153 197 240 286 342
#
# _framework density 19.308347999999999
#
# number of rings (size 3 to 8) (size 9 to 14) (size 15 to 20)
#    0.000    2.000    0.769    2.538    0.000    8.923 
#    0.000    5.000    0.000    0.000    0.000    0.000 
#    0.000    0.000    0.000    0.000    0.000    0.000 
#
# Total GULP energy -644724.579295 kJ/mol
# GULP energy per Si atom -12398.549602 kJ/mol
# Density = 1.926440 g / cm^3
# Si number density = 19.308348 Si / 1000 Ang^3
#
#
#
# Elastic Constant Matrix: (Units=GPa)
#
#
# Indices 1 2 3 4 5 6 
#
# 1 67.3563 45.8461 28.5691 0.0000 0.0000 0.0000
# 2 45.8461 144.8283 44.4752 0.0000 0.0000 0.0000
# 3 28.5691 44.4752 84.9004 0.0000 0.0000 0.0000
# 4 0.0000 0.0000 0.0000 15.9581 0.0000 0.0000
# 5 0.0000 0.0000 0.0000 0.0000 28.5006 0.0000
# 6 0.0000 0.0000 0.0000 0.0000 0.0000 29.2477
#
#
#
# Elastic Compliance Matrix: (Units=1/GPa)
#
#
# Indices 1 2 3 4 5 6 
#
# 1 0.020042 -0.005092 -0.004076 0.000000 0.000000 0.000000
# 2 -0.005092 0.009522 -0.003275 0.000000 0.000000 0.000000
# 3 -0.004076 -0.003275 0.014866 0.000000 0.000000 0.000000
# 4 0.000000 0.000000 0.000000 0.062664 0.000000 0.000000
# 5 0.000000 0.000000 0.000000 0.000000 0.035087 0.000000
# 6 0.000000 0.000000 0.000000 0.000000 0.000000 0.034191
#
#
# Mechanical properties :
#
#
# Convention : Reuss Voigt Hill
#
# Bulk Modulus (GPa) = 51.17012 59.42953 55.29983
# Shear Modulus (GPa) = 24.06478 26.62093 25.34286
#
# Velocity S-wave (km/s) = 3.53419 3.71715 3.62682
# Velocity P-wave (km/s) = 6.57366 7.01918 6.80007
#
# Compressibility (1/GPa) = 0.01954265
#
# Stress axis : x y z
#
# Youngs Moduli (GPa) = 49.89631 105.01559 67.26918
#
# Poissons Ratio (x) = 0.53479 0.27421
# Poissons Ratio (y) = 0.25410 0.22029
# Poissons Ratio (z) = 0.20339 0.34389
#
# Static dielectric constant tensor:
#      x y z
#    x 3.440550 0.000000 0.000000 
#    y 0.000000 3.738000 0.000000 
#    z 0.000000 0.000000 3.506210 
# 
# 
# High freq. dielectric constant tensor:
#      x y z
#    x 1.744320 0.000000 0.000000 
#    y 0.000000 1.756340 0.000000 
#    z 0.000000 0.000000 1.749710 
# 
# From -- ./inp_files/37362.got.cif
#   From: 2010.03.12/outbox.cif.g09.slc.cpg/sg67_19_cif.got.tgz:37362.got - 2010.04.10 22:41:39.
