data_PCOD8279122
_publ_section_title
;
Structure prediction by ZEFSAII (Michael W. Deem and Ramdas Pophale) SiO2 
 PCOD8279122
Probable space group: C M M A
;
_chemical_formula_sum "Si O2"
_cell_formula_units_Z 88
_cell_length_a 27.128689
_cell_length_b 9.177800
_cell_length_c 18.750412
_cell_angle_alpha 90.000000
_cell_angle_beta 90.000000
_cell_angle_gamma 90.000000
_cell_volume 4668.509116
_symmetry_space_group_name_H-M "C M M A"
_symmetry_group_IT_number 67
_symmetry_cell_setting 'orthorhombic'
loop_
_space_group_symop_operation_xyz
x,y,z
-x,1/2-y,z
x,-y,-z
-x,1/2+y,-z
-x,-y,-z
x,1/2+y,-z
-x,y,z
x,1/2-y,z
1/2+x,1/2+y,z
1/2-x,-y,z
1/2+x,1/2-y,-z
1/2-x,y,-z
1/2-x,1/2-y,-z
1/2+x,y,-z
1/2-x,1/2+y,z
1/2+x,-y,z
loop_
_atom_site_type_symbol
_atom_site_label
_atom_site_fract_x
_atom_site_fract_y
_atom_site_fract_z
Si Si1 0.298894 0.078584 0.843644
Si Si2 0.383854 0.918161 0.927945
Si Si3 0.000000 0.576985 0.575217
Si Si4 0.905707 0.921030 0.666216
Si Si5 0.945138 0.415728 0.793871
Si Si6 0.701998 0.917464 0.322843
O O1 0.296812 0.250000 0.859747
O O2 0.306085 0.046395 0.760085
O O3 0.250000 0.000000 0.871056
O O4 0.340840 0.004218 0.889313
O O5 0.368842 0.750000 0.942557
O O6 0.430980 0.926932 0.876583
O O7 0.398407 0.000000 0.000000
O O8 0.000000 0.500000 0.500000
O O9 0.950050 0.523698 0.615298
O O10 0.000000 0.750000 0.565163
O O11 0.910138 0.750000 0.677021
O O12 0.850098 0.960070 0.637819
O O13 0.909756 0.989753 0.744314
O O14 0.941503 0.250000 0.767170
O O15 0.000000 0.477739 0.785608
O O16 0.714175 0.750000 0.335270
O O17 0.750000 0.000000 0.354310
#
# Coordination Sequence:
#
# PCOD8279122 Si02
#       6
#    16  16   8  16  16  16
#     4  10  19  33  53  76 104 137 176 226 282 335
#     4  11  23  37  52  72 102 140 184 231 282 336
#     4  10  22  38  60  90 125 154 185 224 269 324
#     4  10  19  35  59  86 114 150 188 226 272 330
#     4  10  21  36  55  80 107 137 179 230 279 333
#     4   9  18  31  52  82 113 143 183 229 276 327
#
# _framework density 18.849701
#
# number of rings (size 3 to 8) (size 9 to 14) (size 15 to 20)
#    0.000    2.000    2.727    1.091    0.000    3.636 
#    0.000    1.818    0.000    0.545    0.000    3.818 
#    0.000    0.000    0.000    0.000    0.000    0.000 
#
# Total GULP energy -545394.973317 kJ/mol
# GULP energy per Si atom -12395.340303 kJ/mol
# Density = 1.880680 g / cm^3
# Si number density = 18.849701 Si / 1000 Ang^3
#
#
#
# Elastic Constant Matrix: (Units=GPa)
#
#
# Indices 1 2 3 4 5 6 
#
# 1 154.5540 48.2507 39.1928 0.0000 0.0000 0.0000
# 2 48.2507 71.3169 32.1677 0.0000 0.0000 0.0000
# 3 39.1928 32.1677 60.9987 0.0000 0.0000 0.0000
# 4 0.0000 0.0000 0.0000 25.0849 0.0000 0.0000
# 5 0.0000 0.0000 0.0000 0.0000 20.2565 0.0000
# 6 0.0000 0.0000 0.0000 0.0000 0.0000 29.2306
#
#
#
# Elastic Compliance Matrix: (Units=1/GPa)
#
#
# Indices 1 2 3 4 5 6 
#
# 1 0.008667 -0.004398 -0.003249 0.000000 0.000000 0.000000
# 2 -0.004398 0.020630 -0.008053 0.000000 0.000000 0.000000
# 3 -0.003249 -0.008053 0.022729 0.000000 0.000000 0.000000
# 4 0.000000 0.000000 0.000000 0.039865 0.000000 0.000000
# 5 0.000000 0.000000 0.000000 0.000000 0.049367 0.000000
# 6 0.000000 0.000000 0.000000 0.000000 0.000000 0.034211
#
#
# Mechanical properties :
#
#
# Convention : Reuss Voigt Hill
#
# Bulk Modulus (GPa) = 48.48764 58.45470 53.47117
# Shear Modulus (GPa) = 23.39233 26.06496 24.72865
#
# Velocity S-wave (km/s) = 3.52659 3.72261 3.62593
# Velocity P-wave (km/s) = 6.50858 7.03956 6.77927
#
# Compressibility (1/GPa) = 0.02062381
#
# Stress axis : x y z
#
# Youngs Moduli (GPa) = 115.37480 48.47263 43.99751
#
# Poissons Ratio (x) = 0.21320 0.14297
# Poissons Ratio (y) = 0.50746 0.35433
# Poissons Ratio (z) = 0.37491 0.39036
#
# Static dielectric constant tensor:
#      x y z
#    x 3.912280 0.000000 0.000000 
#    y 0.000000 3.480920 0.000000 
#    z 0.000000 0.000000 3.217990 
# 
# 
# High freq. dielectric constant tensor:
#      x y z
#    x 1.750710 0.000000 0.000000 
#    y 0.000000 1.734100 0.000000 
#    z 0.000000 0.000000 1.694310 
# 
# From -- ./inp_files/32433.got.cif
#   From: 2010.03.12/outbox.cif.g09.slc.cpg/sg67_17_cif.got.tgz:32433.got - 2010.04.10 22:41:39.
