data_PCOD8279878
_publ_section_title
;
Structure prediction by ZEFSAII (Michael W. Deem and Ramdas Pophale) SiO2 
 PCOD8279878
Probable space group: C M M A
;
_chemical_formula_sum "Si O2"
_cell_formula_units_Z 104
_cell_length_a 28.458029
_cell_length_b 9.113038
_cell_length_c 20.400048
_cell_angle_alpha 90.000000
_cell_angle_beta 90.000000
_cell_angle_gamma 90.000000
_cell_volume 5290.530082
_symmetry_space_group_name_H-M "C M M A"
_symmetry_group_IT_number 67
_symmetry_cell_setting 'orthorhombic'
loop_
_space_group_symop_operation_xyz
x,y,z
-x,1/2-y,z
x,-y,-z
-x,1/2+y,-z
-x,-y,-z
x,1/2+y,-z
-x,y,z
x,1/2-y,z
1/2+x,1/2+y,z
1/2-x,-y,z
1/2+x,1/2-y,-z
1/2-x,y,-z
1/2-x,1/2-y,-z
1/2+x,y,-z
1/2-x,1/2+y,z
1/2+x,-y,z
loop_
_atom_site_type_symbol
_atom_site_label
_atom_site_fract_x
_atom_site_fract_y
_atom_site_fract_z
Si Si1 0.897147 0.421643 0.569806
Si Si2 0.053239 0.579895 0.103846
Si Si3 0.200574 0.423385 0.190934
Si Si4 0.551758 0.412837 0.766265
Si Si5 0.500000 0.417333 0.433386
Si Si6 0.641723 0.417382 0.684640
Si Si7 0.357553 0.922874 0.062758
O O1 0.891556 0.500000 0.500000
O O2 0.887508 0.250000 0.560329
O O3 0.949672 0.451856 0.601440
O O4 0.857111 0.484804 0.618948
O O5 0.066634 0.750000 0.095769
O O6 0.058378 0.537639 0.179827
O O7 0.088830 0.480159 0.062732
O O8 0.000000 0.548631 0.079694
O O9 0.207513 0.250000 0.191259
O O10 0.250000 0.500000 0.182246
O O11 0.177064 0.476205 0.259142
O O12 0.167972 0.470542 0.129904
O O13 0.500000 0.425778 0.734246
O O14 0.558664 0.250000 0.798718
O O15 0.588834 0.433408 0.709485
O O16 0.500000 0.250000 0.453902
O O17 0.500000 0.500000 0.500000
O O18 0.654191 0.250000 0.666696
O O19 0.356588 0.750000 0.052535
O O20 0.332398 0.000000 0.000000
#
# Coordination Sequence:
#
# PCOD8279878 Si02
#       7
#    16  16  16  16   8  16  16
#     4  10  20  34  52  79 115 157 198 238 281 330
#     4  10  20  34  54  83 118 156 197 238 281 331
#     4  10  23  43  65  88 115 145 185 237 295 354
#     4   9  17  31  52  78 112 153 192 233 283 337
#     4   8  16  30  46  70 110 154 197 234 271 318
#     4  10  20  36  57  84 115 149 190 234 284 342
#     4  11  23  41  62  87 118 153 193 236 285 344
#
# _framework density 19.657764
#
# number of rings (size 3 to 8) (size 9 to 14) (size 15 to 20)
#    0.000    2.154    1.538    1.385    1.077    4.615 
#    0.000    1.538    0.000    0.462    0.000    3.231 
#    0.000    0.000    0.000    0.000    0.000    0.000 
#
# Total GULP energy -644427.030743 kJ/mol
# GULP energy per Si atom -12392.827514 kJ/mol
# Density = 1.961302 g / cm^3
# Si number density = 19.657764 Si / 1000 Ang^3
#
#
#
# Elastic Constant Matrix: (Units=GPa)
#
#
# Indices 1 2 3 4 5 6 
#
# 1 90.3655 44.3377 45.7948 0.0000 0.0000 0.0000
# 2 44.3377 78.9317 54.5610 0.0000 0.0000 0.0000
# 3 45.7948 54.5610 107.6745 0.0000 0.0000 0.0000
# 4 0.0000 0.0000 0.0000 34.0170 0.0000 0.0000
# 5 0.0000 0.0000 0.0000 0.0000 10.2712 0.0000
# 6 0.0000 0.0000 0.0000 0.0000 0.0000 28.3498
#
#
#
# Elastic Compliance Matrix: (Units=1/GPa)
#
#
# Indices 1 2 3 4 5 6 
#
# 1 0.016082 -0.006627 -0.003482 0.000000 0.000000 0.000000
# 2 -0.006627 0.022230 -0.008446 0.000000 0.000000 0.000000
# 3 -0.003482 -0.008446 0.015048 0.000000 0.000000 0.000000
# 4 0.000000 0.000000 0.000000 0.029397 0.000000 0.000000
# 5 0.000000 0.000000 0.000000 0.000000 0.097360 0.000000
# 6 0.000000 0.000000 0.000000 0.000000 0.000000 0.035274
#
#
# Mechanical properties :
#
#
# Convention : Reuss Voigt Hill
#
# Bulk Modulus (GPa) = 61.53644 62.92875 62.23260
# Shear Modulus (GPa) = 19.38614 23.34613 21.36613
#
# Velocity S-wave (km/s) = 3.14376 3.44994 3.30040
# Velocity P-wave (km/s) = 6.67454 6.92467 6.80076
#
# Compressibility (1/GPa) = 0.01625053
#
# Stress axis : x y z
#
# Youngs Moduli (GPa) = 62.18068 44.98469 66.45478
#
# Poissons Ratio (x) = 0.29811 0.23139
# Poissons Ratio (y) = 0.41206 0.56127
# Poissons Ratio (z) = 0.21651 0.37993
#
# Static dielectric constant tensor:
#      x y z
#    x 3.574630 0.000000 0.000000 
#    y 0.000000 3.551050 0.000000 
#    z 0.000000 0.000000 3.442410 
# 
# 
# High freq. dielectric constant tensor:
#      x y z
#    x 1.743630 0.000000 0.000000 
#    y 0.000000 1.767180 0.000000 
#    z 0.000000 0.000000 1.758240 
# 
# From -- ./inp_files/40219.got.cif
#   From: 2010.03.12/outbox.cif.g09.slc.cpg/sg67_21_cif.got.tgz:40219.got - 2010.04.10 22:41:39.
