data_PCOD8279071
_publ_section_title
;
Structure prediction by ZEFSAII (Michael W. Deem and Ramdas Pophale) SiO2 
 PCOD8279071
Probable space group: C M M A
;
_chemical_formula_sum "Si O2"
_cell_formula_units_Z 104
_cell_length_a 22.349551
_cell_length_b 9.679504
_cell_length_c 29.003587
_cell_angle_alpha 90.000000
_cell_angle_beta 90.000000
_cell_angle_gamma 90.000000
_cell_volume 6274.420466
_symmetry_space_group_name_H-M "C M M A"
_symmetry_group_IT_number 67
_symmetry_cell_setting 'orthorhombic'
loop_
_space_group_symop_operation_xyz
x,y,z
-x,1/2-y,z
x,-y,-z
-x,1/2+y,-z
-x,-y,-z
x,1/2+y,-z
-x,y,z
x,1/2-y,z
1/2+x,1/2+y,z
1/2-x,-y,z
1/2+x,1/2-y,-z
1/2-x,y,-z
1/2-x,1/2-y,-z
1/2+x,y,-z
1/2-x,1/2+y,z
1/2+x,-y,z
loop_
_atom_site_type_symbol
_atom_site_label
_atom_site_fract_x
_atom_site_fract_y
_atom_site_fract_z
Si Si1 0.928676 0.092600 0.542516
Si Si2 0.500000 0.400712 0.042386
Si Si3 0.382983 0.481594 0.094265
Si Si4 0.429004 0.595761 0.272768
Si Si5 0.928842 0.094869 0.375301
Si Si6 0.666100 0.750000 0.047547
Si Si7 0.693555 0.750000 0.941963
Si Si8 0.070726 0.911824 0.189225
O O1 0.903805 0.250000 0.539555
O O2 0.000000 0.096600 0.542405
O O3 0.905264 0.000000 0.500000
O O4 0.903871 0.018596 0.588846
O O5 0.500000 0.250000 0.020117
O O6 0.442497 0.415503 0.074019
O O7 0.500000 0.500000 0.000000
O O8 0.369385 0.623930 0.069366
O O9 0.326199 0.385301 0.085157
O O10 0.393776 0.492562 0.148936
O O11 0.500000 0.595031 0.273447
O O12 0.406585 0.750000 0.259142
O O13 0.405453 0.556646 0.323956
O O14 0.405848 0.482182 0.236380
O O15 0.907299 0.250000 0.388832
O O16 0.000000 0.092149 0.376362
O O17 0.735474 0.750000 0.059442
O O18 0.662266 0.750000 0.992277
O O19 0.087330 0.750000 0.189654
O O20 0.000000 0.933381 0.182740
#
# Coordination Sequence:
#
# PCOD8279071 Si02
#       8
#    16   8  16  16  16   8   8  16
#     4   9  15  20  27  40  60  87 124 170 220 267
#     4  12  24  38  56  78 108 134 156 190 239 290
#     4  12  23  38  57  79 105 129 158 195 240 287
#     4   8  15  26  41  58  79 106 139 178 219 272
#     4   8  13  22  33  46  65  92 126 167 217 266
#     4  11  26  39  61  83  95 130 167 199 232 277
#     4  11  22  45  61  75 103 128 163 199 234 281
#     4  10  19  33  47  66  94 125 149 179 231 284
#
# _framework density 16.575236
#
# number of rings (size 3 to 8) (size 9 to 14) (size 15 to 20)
#    0.000    2.154    2.308    3.231    2.154    3.692 
#    0.000    3.077    0.000    0.000    0.000    0.000 
#    0.000    0.000    0.000    0.000    0.000    0.000 
#
# Total GULP energy -644546.408938 kJ/mol
# GULP energy per Si atom -12395.123249 kJ/mol
# Density = 1.653751 g / cm^3
# Si number density = 16.575236 Si / 1000 Ang^3
#
#
#
# Elastic Constant Matrix: (Units=GPa)
#
#
# Indices 1 2 3 4 5 6 
#
# 1 28.1370 16.6439 15.5935 0.0000 0.0000 0.0000
# 2 16.6439 115.8379 60.4046 0.0000 0.0000 0.0000
# 3 15.5935 60.4046 128.6119 0.0000 0.0000 0.0000
# 4 0.0000 0.0000 0.0000 29.2599 0.0000 0.0000
# 5 0.0000 0.0000 0.0000 0.0000 5.1762 0.0000
# 6 0.0000 0.0000 0.0000 0.0000 0.0000 21.2014
#
#
#
# Elastic Compliance Matrix: (Units=1/GPa)
#
#
# Indices 1 2 3 4 5 6 
#
# 1 0.039599 -0.004219 -0.002819 0.000000 0.000000 0.000000
# 2 -0.004219 0.011882 -0.005069 0.000000 0.000000 0.000000
# 3 -0.002819 -0.005069 0.010498 0.000000 0.000000 0.000000
# 4 0.000000 0.000000 0.000000 0.034177 0.000000 0.000000
# 5 0.000000 0.000000 0.000000 0.000000 0.193193 0.000000
# 6 0.000000 0.000000 0.000000 0.000000 0.000000 0.047167
#
#
# Mechanical properties :
#
#
# Convention : Reuss Voigt Hill
#
# Bulk Modulus (GPa) = 26.48085 50.87454 38.67769
# Shear Modulus (GPa) = 13.39337 23.12380 18.25858
#
# Velocity S-wave (km/s) = 2.84568 3.73913 3.32257
# Velocity P-wave (km/s) = 5.17765 7.02860 6.17289
#
# Compressibility (1/GPa) = 0.03776313
#
# Stress axis : x y z
#
# Youngs Moduli (GPa) = 25.25325 84.15824 95.25642
#
# Poissons Ratio (x) = 0.35510 0.26857
# Poissons Ratio (y) = 0.10656 0.48287
# Poissons Ratio (z) = 0.07120 0.42661
#
# Static dielectric constant tensor:
#      x y z
#    x 2.566270 0.000000 0.000000 
#    y 0.000000 3.251880 0.000000 
#    z 0.000000 0.000000 3.453410 
# 
# 
# High freq. dielectric constant tensor:
#      x y z
#    x 1.564030 0.000000 0.000000 
#    y 0.000000 1.652530 0.000000 
#    z 0.000000 0.000000 1.646930 
# 
# From -- ./inp_files/45997.got.cif
#   From: 2010.03.12/outbox.cif.g09.slc.cpg/sg67_23_cif.got.tgz:45997.got - 2010.04.10 22:41:39.
