data_PCOD8279910
_publ_section_title
;
Structure prediction by ZEFSAII (Michael W. Deem and Ramdas Pophale) SiO2 
 PCOD8279910
Probable space group: C M M A
;
_chemical_formula_sum "Si O2"
_cell_formula_units_Z 96
_cell_length_a 20.546278
_cell_length_b 18.495125
_cell_length_c 13.949305
_cell_angle_alpha 90.000000
_cell_angle_beta 90.000000
_cell_angle_gamma 90.000000
_cell_volume 5300.819315
_symmetry_space_group_name_H-M "C M M A"
_symmetry_group_IT_number 67
_symmetry_cell_setting 'orthorhombic'
loop_
_space_group_symop_operation_xyz
x,y,z
-x,1/2-y,z
x,-y,-z
-x,1/2+y,-z
-x,-y,-z
x,1/2+y,-z
-x,y,z
x,1/2-y,z
1/2+x,1/2+y,z
1/2-x,-y,z
1/2+x,1/2-y,-z
1/2-x,y,-z
1/2-x,1/2-y,-z
1/2+x,y,-z
1/2-x,1/2+y,z
1/2+x,-y,z
loop_
_atom_site_type_symbol
_atom_site_label
_atom_site_fract_x
_atom_site_fract_y
_atom_site_fract_z
Si Si1 0.293339 0.830759 0.298222
Si Si2 0.324579 0.921496 0.470042
Si Si3 0.351886 0.329352 0.365058
Si Si4 0.074397 0.831475 0.187449
Si Si5 0.425651 0.084761 0.995576
Si Si6 0.195463 0.834620 0.921751
O O1 0.326047 0.750000 0.305253
O O2 0.332748 0.893056 0.359065
O O3 0.224459 0.826020 0.348567
O O4 0.282133 0.851911 0.186908
O O5 0.250000 0.919578 0.500000
O O6 0.367312 0.868508 0.535649
O O7 0.352418 0.000000 0.500000
O O8 0.382605 0.250000 0.373861
O O9 0.386351 0.367659 0.274913
O O10 0.100055 0.750000 0.162759
O O11 0.086910 0.883665 0.099777
O O12 0.000000 0.828427 0.217391
O O13 0.500000 0.101181 0.960606
O O14 0.372775 0.122748 0.928206
O O15 0.412554 0.000000 0.000000
O O16 0.182176 0.750000 0.937811
O O17 0.250000 0.860758 0.000000
#
# Coordination Sequence:
#
# PCOD8279910 Si02
#       6
#    16  16  16  16  16  16
#     4   9  17  29  46  69  96 124 156 196 241 291
#     4   9  17  28  43  66  93 122 154 188 232 290
#     4   9  16  28  47  67  89 117 150 193 243 288
#     4   9  17  30  49  70  89 115 157 205 246 286
#     4  10  21  35  50  71 101 136 171 205 247 304
#     4  10  20  34  53  77 104 134 171 214 257 301
#
# _framework density 18.110408
#
# number of rings (size 3 to 8) (size 9 to 14) (size 15 to 20)
#    0.000    2.667    0.000    2.000    0.000    7.333 
#    0.000    3.333    0.000    1.500    0.000    2.333 
#    0.000    0.000    0.000    0.000    0.000    0.000 
#
# Total GULP energy -594627.947311 kJ/mol
# GULP energy per Si atom -12388.082236 kJ/mol
# Density = 1.806919 g / cm^3
# Si number density = 18.110408 Si / 1000 Ang^3
#
#
#
# Elastic Constant Matrix: (Units=GPa)
#
#
# Indices 1 2 3 4 5 6 
#
# 1 33.8589 24.6470 20.0230 0.0000 0.0000 0.0000
# 2 24.6470 89.1191 61.1161 0.0000 0.0000 0.0000
# 3 20.0230 61.1161 125.8466 0.0000 0.0000 0.0000
# 4 0.0000 0.0000 0.0000 15.0502 0.0000 0.0000
# 5 0.0000 0.0000 0.0000 0.0000 21.4299 0.0000
# 6 0.0000 0.0000 0.0000 0.0000 0.0000 20.0595
#
#
#
# Elastic Compliance Matrix: (Units=1/GPa)
#
#
# Indices 1 2 3 4 5 6 
#
# 1 0.037138 -0.009324 -0.001381 0.000000 0.000000 0.000000
# 2 -0.009324 0.019165 -0.007824 0.000000 0.000000 0.000000
# 3 -0.001381 -0.007824 0.011965 0.000000 0.000000 0.000000
# 4 0.000000 0.000000 0.000000 0.066444 0.000000 0.000000
# 5 0.000000 0.000000 0.000000 0.000000 0.046664 0.000000
# 6 0.000000 0.000000 0.000000 0.000000 0.000000 0.049852
#
#
# Mechanical properties :
#
#
# Convention : Reuss Voigt Hill
#
# Bulk Modulus (GPa) = 32.03967 51.15521 41.59744
# Shear Modulus (GPa) = 17.94110 20.84381 19.39246
#
# Velocity S-wave (km/s) = 3.15088 3.39622 3.27584
# Velocity P-wave (km/s) = 5.56481 6.60959 6.10957
#
# Compressibility (1/GPa) = 0.03121131
#
# Stress axis : x y z
#
# Youngs Moduli (GPa) = 26.92641 52.17830 83.57426
#
# Poissons Ratio (x) = 0.48652 0.11540
# Poissons Ratio (y) = 0.25107 0.65387
# Poissons Ratio (z) = 0.03718 0.40823
#
# Static dielectric constant tensor:
#      x y z
#    x 3.123820 0.000000 0.000000 
#    y 0.000000 3.596130 0.000000 
#    z 0.000000 0.000000 3.461360 
# 
# 
# High freq. dielectric constant tensor:
#      x y z
#    x 1.663230 0.000000 0.000000 
#    y 0.000000 1.697010 0.000000 
#    z 0.000000 0.000000 1.704540 
# 
# From -- ./inp_files/22065.got.cif
#   From: 2010.03.12/outbox.cif.g09.slc.cpg/sg67_12_cif.got.tgz:22065.got - 2010.04.10 22:41:39.
