data_PCOD8279239
_publ_section_title
;
Structure prediction by ZEFSAII (Michael W. Deem and Ramdas Pophale) SiO2 
 PCOD8279239
Probable space group: C M M A
;
_chemical_formula_sum "Si O2"
_cell_formula_units_Z 128
_cell_length_a 18.087576
_cell_length_b 23.088342
_cell_length_c 18.119395
_cell_angle_alpha 90.000000
_cell_angle_beta 90.000000
_cell_angle_gamma 90.000000
_cell_volume 7566.879333
_symmetry_space_group_name_H-M "C M M A"
_symmetry_group_IT_number 67
_symmetry_cell_setting 'orthorhombic'
loop_
_space_group_symop_operation_xyz
x,y,z
-x,1/2-y,z
x,-y,-z
-x,1/2+y,-z
-x,-y,-z
x,1/2+y,-z
-x,y,z
x,1/2-y,z
1/2+x,1/2+y,z
1/2-x,-y,z
1/2+x,1/2-y,-z
1/2-x,y,-z
1/2-x,1/2-y,-z
1/2+x,y,-z
1/2-x,1/2+y,z
1/2+x,-y,z
loop_
_atom_site_type_symbol
_atom_site_label
_atom_site_fract_x
_atom_site_fract_y
_atom_site_fract_z
Si Si1 0.584217 0.814589 0.462050
Si Si2 0.583692 0.054845 0.844605
Si Si3 0.325868 0.520811 0.293076
Si Si4 0.580781 0.579078 0.876435
Si Si5 0.086019 0.910378 0.282461
Si Si6 0.216347 0.891980 0.579533
Si Si7 0.351044 0.314827 0.378104
Si Si8 0.332050 0.568428 0.012858
O O1 0.500000 0.835770 0.451187
O O2 0.594858 0.750000 0.428379
O O3 0.637563 0.860478 0.424180
O O4 0.603294 0.811992 0.547481
O O5 0.500000 0.081294 0.837339
O O6 0.626067 0.058413 0.765403
O O7 0.632902 0.086869 0.907800
O O8 0.576241 0.989971 0.872441
O O9 0.250000 0.500000 0.252868
O O10 0.371963 0.464533 0.320611
O O11 0.299375 0.554645 0.366330
O O12 0.500000 0.606681 0.883331
O O13 0.618360 0.599588 0.800021
O O14 0.623340 0.600618 0.948245
O O15 0.097178 0.850414 0.323470
O O16 0.000000 0.927576 0.278983
O O17 0.250000 0.912560 0.500000
O O18 0.272320 0.845897 0.614460
O O19 0.337320 0.250000 0.347649
O O20 0.334194 0.500000 0.000000
O O21 0.250000 0.592248 0.000000
#
# Coordination Sequence:
#
# PCOD8279239 Si02
#       8
#    16  16  16  16  16  16  16  16
#     4   9  18  33  53  75  97 121 157 210 263 306
#     4   9  18  29  43  64  93 129 169 206 241 285
#     4  11  21  33  50  68  97 138 168 207 246 308
#     4   8  15  27  41  58  91 128 157 192 236 279
#     4  10  20  33  49  72 101 135 170 205 248 299
#     4  10  21  36  53  72  99 130 169 206 256 315
#     4  10  19  34  54  75  98 127 164 210 262 309
#     4   9  16  22  39  64  90 125 165 199 232 283
#
# _framework density 16.915824000000001
#
# number of rings (size 3 to 8) (size 9 to 14) (size 15 to 20)
#    0.000    2.500    1.250    2.250    5.250    5.000 
#    0.000    0.000    0.000    2.250    0.000    0.000 
#    0.000    5.500    0.000    3.125    0.000    1.250 
#
# Total GULP energy -793015.786932 kJ/mol
# GULP energy per Si atom -12390.871671 kJ/mol
# Density = 1.687732 g / cm^3
# Si number density = 16.915824 Si / 1000 Ang^3
#
#
#
# Elastic Constant Matrix: (Units=GPa)
#
#
# Indices 1 2 3 4 5 6 
#
# 1 120.2838 28.1815 44.8802 0.0000 0.0000 0.0000
# 2 28.1815 54.8850 34.7832 0.0000 0.0000 0.0000
# 3 44.8802 34.7832 78.3473 0.0000 0.0000 0.0000
# 4 0.0000 0.0000 0.0000 6.0630 0.0000 0.0000
# 5 0.0000 0.0000 0.0000 0.0000 24.9955 0.0000
# 6 0.0000 0.0000 0.0000 0.0000 0.0000 12.7651
#
#
#
# Elastic Compliance Matrix: (Units=1/GPa)
#
#
# Indices 1 2 3 4 5 6 
#
# 1 0.010770 -0.002255 -0.005169 0.000000 0.000000 0.000000
# 2 -0.002255 0.025825 -0.010174 0.000000 0.000000 0.000000
# 3 -0.005169 -0.010174 0.020241 0.000000 0.000000 0.000000
# 4 0.000000 0.000000 0.000000 0.164936 0.000000 0.000000
# 5 0.000000 0.000000 0.000000 0.000000 0.040007 0.000000
# 6 0.000000 0.000000 0.000000 0.000000 0.000000 0.078339
#
#
# Mechanical properties :
#
#
# Convention : Reuss Voigt Hill
#
# Bulk Modulus (GPa) = 46.20525 52.13398 49.16961
# Shear Modulus (GPa) = 13.07096 18.47613 15.77355
#
# Velocity S-wave (km/s) = 2.78277 3.30849 3.05695
# Velocity P-wave (km/s) = 6.13997 6.74399 6.44905
#
# Compressibility (1/GPa) = 0.02164256
#
# Stress axis : x y z
#
# Youngs Moduli (GPa) = 92.84650 38.72185 49.40375
#
# Poissons Ratio (x) = 0.08730 0.25536
# Poissons Ratio (y) = 0.20933 0.50263
# Poissons Ratio (z) = 0.47990 0.39395
#
# Static dielectric constant tensor:
#      x y z
#    x 3.456860 0.000000 0.000000 
#    y 0.000000 2.829850 0.000000 
#    z 0.000000 0.000000 3.219330 
# 
# 
# High freq. dielectric constant tensor:
#      x y z
#    x 1.673280 0.000000 0.000000 
#    y 0.000000 1.591630 0.000000 
#    z 0.000000 0.000000 1.646310 
# 
# From -- ./inp_files/34550.got.cif
#   From: 2010.03.12/outbox.cif.g09.slc.cpg/sg67_18_cif.got.tgz:34550.got - 2010.04.10 22:41:39.
