data_PCOD8279248
_publ_section_title
;
Structure prediction by ZEFSAII (Michael W. Deem and Ramdas Pophale) SiO2 
 PCOD8279248
Probable space group: C M M A
;
_chemical_formula_sum "Si O2"
_cell_formula_units_Z 104
_cell_length_a 8.789168
_cell_length_b 26.600734
_cell_length_c 23.961522
_cell_angle_alpha 90.000000
_cell_angle_beta 90.000000
_cell_angle_gamma 90.000000
_cell_volume 5602.163589
_symmetry_space_group_name_H-M "C M M A"
_symmetry_group_IT_number 67
_symmetry_cell_setting 'orthorhombic'
loop_
_space_group_symop_operation_xyz
x,y,z
-x,1/2-y,z
x,-y,-z
-x,1/2+y,-z
-x,-y,-z
x,1/2+y,-z
-x,y,z
x,1/2-y,z
1/2+x,1/2+y,z
1/2-x,-y,z
1/2+x,1/2-y,-z
1/2-x,y,-z
1/2-x,1/2-y,-z
1/2+x,y,-z
1/2-x,1/2+y,z
1/2+x,-y,z
loop_
_atom_site_type_symbol
_atom_site_label
_atom_site_fract_x
_atom_site_fract_y
_atom_site_fract_z
Si Si1 0.178963 0.550596 0.230943
Si Si2 0.178958 0.192775 0.057873
Si Si3 0.181609 0.250000 0.561058
Si Si4 0.319327 0.552418 0.640831
Si Si5 0.679070 0.653928 0.378092
Si Si6 0.677232 0.353583 0.163418
Si Si7 0.169693 0.693807 0.739579
O O1 0.250000 0.500000 0.206244
O O2 0.231343 0.558804 0.294679
O O3 0.238039 0.594957 0.191012
O O4 0.000000 0.546801 0.228020
O O5 0.231392 0.250000 0.070766
O O6 0.235035 0.156068 0.106295
O O7 0.000000 0.189076 0.052732
O O8 0.250000 0.173897 0.000000
O O9 0.250000 0.250000 0.500000
O O10 0.237341 0.199056 0.590489
O O11 0.000000 0.250000 0.559649
O O12 0.500000 0.551892 0.633144
O O13 0.250000 0.500000 0.617602
O O14 0.248919 0.599336 0.605792
O O15 0.500000 0.656050 0.392016
O O16 0.711997 0.658545 0.312120
O O17 0.500000 0.354220 0.150050
O O18 0.713236 0.311128 0.209365
O O19 0.178829 0.750000 0.716016
O O20 0.000000 0.681735 0.761992
#
# Coordination Sequence:
#
# PCOD8279248 Si02
#       7
#    16  16   8  16  16  16  16
#     4   9  19  32  48  73 107 143 182 223 270 329
#     4  10  21  37  55  75 100 135 178 222 269 325
#     4  12  26  44  66  90 120 160 203 246 289 344
#     4  10  19  34  54  83 118 157 199 241 291 347
#     4  11  21  37  59  86 119 156 195 241 290 342
#     4  11  21  33  50  77 108 140 178 223 273 332
#     4  10  20  33  49  75 111 148 182 221 274 333
#
# _framework density 18.564257000000001
#
# number of rings (size 3 to 8) (size 9 to 14) (size 15 to 20)
#    0.000    1.692    2.308    3.000    0.000    5.538 
#    0.000    0.000    0.000    0.923    0.000    6.462 
#    0.000    0.000    0.000    0.000    0.000    0.000 
#
# Total GULP energy -644784.526867 kJ/mol
# GULP energy per Si atom -12399.702440 kJ/mol
# Density = 1.852200 g / cm^3
# Si number density = 18.564257 Si / 1000 Ang^3
#
#
#
# Elastic Constant Matrix: (Units=GPa)
#
#
# Indices 1 2 3 4 5 6 
#
# 1 85.4644 50.6669 37.1448 0.0000 0.0000 0.0000
# 2 50.6669 137.6218 43.0423 0.0000 0.0000 0.0000
# 3 37.1448 43.0423 64.3837 0.0000 0.0000 0.0000
# 4 0.0000 0.0000 0.0000 -105.1966 0.0000 0.0000
# 5 0.0000 0.0000 0.0000 0.0000 28.8553 0.0000
# 6 0.0000 0.0000 0.0000 0.0000 0.0000 34.7450
#
#
#
# Elastic Compliance Matrix: (Units=1/GPa)
#
#
# Indices 1 2 3 4 5 6 
#
# 1 0.017270 -0.004099 -0.007223 0.000000 0.000000 0.000000
# 2 -0.004099 0.010160 -0.004427 0.000000 0.000000 0.000000
# 3 -0.007223 -0.004427 0.022659 0.000000 0.000000 0.000000
# 4 0.000000 0.000000 0.000000 -0.009506 0.000000 0.000000
# 5 0.000000 0.000000 0.000000 0.000000 0.034656 0.000000
# 6 0.000000 0.000000 0.000000 0.000000 0.000000 0.028781
#
#
# Mechanical properties :
#
#
# Convention : Reuss Voigt Hill
#
# Bulk Modulus (GPa) = 53.79310 61.01976 57.40643
# Shear Modulus (GPa) = 35.28160 2.12179 18.70170
#
# Velocity S-wave (km/s) = 4.36422 1.07025 3.17741
# Velocity P-wave (km/s) = 7.37799 5.87095 6.66719
#
# Compressibility (1/GPa) = 0.01858975
#
# Stress axis : x y z
#
# Youngs Moduli (GPa) = 57.90268 98.42390 44.13227
#
# Poissons Ratio (x) = 0.40345 0.31879
# Poissons Ratio (y) = 0.23735 0.19539
# Poissons Ratio (z) = 0.41825 0.43577
#
# Static dielectric constant tensor:
#      x y z
#    x 3.451300 0.000000 0.000000 
#    y 0.000000 3.674700 0.000000 
#    z 0.000000 0.000000 3.342500 
# 
# 
# High freq. dielectric constant tensor:
#      x y z
#    x 1.729480 0.000000 0.000000 
#    y 0.000000 1.725200 0.000000 
#    z 0.000000 0.000000 1.690270 
# 
# From -- ./inp_files/40997.got.cif
#   From: 2010.03.12/outbox.cif.g09.slc.cpg/sg67_21_cif.got.tgz:40997.got - 2010.04.10 22:41:39.
