data_PCOD8279341
_publ_section_title
;
Structure prediction by ZEFSAII (Michael W. Deem and Ramdas Pophale) SiO2 
 PCOD8279341
Probable space group: C M M A
;
_chemical_formula_sum "Si O2"
_cell_formula_units_Z 96
_cell_length_a 8.886563
_cell_length_b 28.609433
_cell_length_c 20.527824
_cell_angle_alpha 90.000000
_cell_angle_beta 90.000000
_cell_angle_gamma 90.000000
_cell_volume 5218.984300
_symmetry_space_group_name_H-M "C M M A"
_symmetry_group_IT_number 67
_symmetry_cell_setting 'orthorhombic'
loop_
_space_group_symop_operation_xyz
x,y,z
-x,1/2-y,z
x,-y,-z
-x,1/2+y,-z
-x,-y,-z
x,1/2+y,-z
-x,y,z
x,1/2-y,z
1/2+x,1/2+y,z
1/2-x,-y,z
1/2+x,1/2-y,-z
1/2-x,y,-z
1/2-x,1/2-y,-z
1/2+x,y,-z
1/2-x,1/2+y,z
1/2+x,-y,z
loop_
_atom_site_type_symbol
_atom_site_label
_atom_site_fract_x
_atom_site_fract_y
_atom_site_fract_z
Si Si1 0.323094 0.645918 0.186853
Si Si2 0.673415 0.304669 0.306294
Si Si3 0.323107 0.196518 0.067350
Si Si4 0.677561 0.640104 0.564792
Si Si5 0.324389 0.453326 0.762601
Si Si6 0.678585 0.047864 0.613516
O O1 0.500000 0.651809 0.176161
O O2 0.278082 0.675093 0.250139
O O3 0.236227 0.663889 0.124220
O O4 0.276698 0.591756 0.195607
O O5 0.500000 0.315680 0.289140
O O6 0.702823 0.250000 0.311979
O O7 0.721059 0.327344 0.374565
O O8 0.500000 0.190648 0.061227
O O9 0.277925 0.250000 0.082952
O O10 0.250000 0.179829 0.000000
O O11 0.500000 0.635433 0.556635
O O12 0.750000 0.663023 0.500000
O O13 0.750594 0.589331 0.572254
O O14 0.500000 0.461585 0.764987
O O15 0.250000 0.500000 0.792406
O O16 0.271510 0.444989 0.688519
O O17 0.500000 0.047170 0.604810
O O18 0.750000 0.000000 0.586679
#
# Coordination Sequence:
#
# PCOD8279341 Si02
#       6
#    16  16  16  16  16  16
#     4  11  21  35  57  87 117 147 183 226 274 325
#     4  10  22  39  57  79 107 141 184 230 275 327
#     4  10  21  37  57  84 118 155 192 229 272 323
#     4  11  23  38  56  77 105 142 182 228 281 334
#     4   9  19  33  53  81 112 143 179 222 270 324
#     4  10  19  35  56  80 109 139 177 223 275 332
#
# _framework density 18.394383000000001
#
# number of rings (size 3 to 8) (size 9 to 14) (size 15 to 20)
#    0.000    1.833    1.667    2.500    0.000    6.667 
#    0.000    1.667    0.000    0.500    0.000    3.500 
#    0.000    0.000    0.000    0.000    0.000    0.000 
#
# Total GULP energy -595391.795643 kJ/mol
# GULP energy per Si atom -12403.995743 kJ/mol
# Density = 1.835252 g / cm^3
# Si number density = 18.394383 Si / 1000 Ang^3
#
#
#
# Elastic Constant Matrix: (Units=GPa)
#
#
# Indices 1 2 3 4 5 6 
#
# 1 66.1992 33.7149 44.1132 0.0000 0.0000 0.0000
# 2 33.7149 97.9703 53.2580 0.0000 0.0000 0.0000
# 3 44.1132 53.2580 116.8140 0.0000 0.0000 0.0000
# 4 0.0000 0.0000 0.0000 28.5963 0.0000 0.0000
# 5 0.0000 0.0000 0.0000 0.0000 35.2258 0.0000
# 6 0.0000 0.0000 0.0000 0.0000 0.0000 28.2120
#
#
#
# Elastic Compliance Matrix: (Units=1/GPa)
#
#
# Indices 1 2 3 4 5 6 
#
# 1 0.021263 -0.003925 -0.006240 0.000000 0.000000 0.000000
# 2 -0.003925 0.014295 -0.005035 0.000000 0.000000 0.000000
# 3 -0.006240 -0.005035 0.013213 0.000000 0.000000 0.000000
# 4 0.000000 0.000000 0.000000 0.034970 0.000000 0.000000
# 5 0.000000 0.000000 0.000000 0.000000 0.028388 0.000000
# 6 0.000000 0.000000 0.000000 0.000000 0.000000 0.035446
#
#
# Mechanical properties :
#
#
# Convention : Reuss Voigt Hill
#
# Bulk Modulus (GPa) = 54.43628 60.35066 57.39347
# Shear Modulus (GPa) = 27.15924 28.39999 27.77961
#
# Velocity S-wave (km/s) = 3.84669 3.93357 3.89037
# Velocity P-wave (km/s) = 7.02763 7.31513 7.17282
#
# Compressibility (1/GPa) = 0.01837010
#
# Stress axis : x y z
#
# Youngs Moduli (GPa) = 47.02943 69.95380 75.68406
#
# Poissons Ratio (x) = 0.27458 0.47229
# Poissons Ratio (y) = 0.18460 0.38108
# Poissons Ratio (z) = 0.29348 0.35223
#
# Static dielectric constant tensor:
#      x y z
#    x 3.393530 0.000000 0.000000 
#    y 0.000000 3.491560 0.000000 
#    z 0.000000 0.000000 3.792930 
# 
# 
# High freq. dielectric constant tensor:
#      x y z
#    x 1.722580 0.000000 0.000000 
#    y 0.000000 1.715060 0.000000 
#    z 0.000000 0.000000 1.703610 
# 
# From -- ./inp_files/37141.got.cif
#   From: 2010.03.12/outbox.cif.g09.slc.cpg/sg67_19_cif.got.tgz:37141.got - 2010.04.10 22:41:39.
