data_PCOD8279167
_publ_section_title
;
Structure prediction by ZEFSAII (Michael W. Deem and Ramdas Pophale) SiO2 
 PCOD8279167
Probable space group: C M M A
;
_chemical_formula_sum "Si O2"
_cell_formula_units_Z 80
_cell_length_a 28.421492
_cell_length_b 16.987746
_cell_length_c 8.743316
_cell_angle_alpha 90.000000
_cell_angle_beta 90.000000
_cell_angle_gamma 90.000000
_cell_volume 4221.422362
_symmetry_space_group_name_H-M "C M M A"
_symmetry_group_IT_number 67
_symmetry_cell_setting 'orthorhombic'
loop_
_space_group_symop_operation_xyz
x,y,z
-x,1/2-y,z
x,-y,-z
-x,1/2+y,-z
-x,-y,-z
x,1/2+y,-z
-x,y,z
x,1/2-y,z
1/2+x,1/2+y,z
1/2-x,-y,z
1/2+x,1/2-y,-z
1/2-x,y,-z
1/2-x,1/2-y,-z
1/2+x,y,-z
1/2-x,1/2+y,z
1/2+x,-y,z
loop_
_atom_site_type_symbol
_atom_site_label
_atom_site_fract_x
_atom_site_fract_y
_atom_site_fract_z
Si Si1 0.393949 0.839955 0.810361
Si Si2 0.303507 0.903019 0.665711
Si Si3 0.880290 0.926388 0.898780
Si Si4 0.197537 0.588585 0.677803
Si Si5 0.055060 0.980957 0.326844
O O1 0.407550 0.750000 0.781412
O O2 0.339059 0.855385 0.772323
O O3 0.427283 0.892500 0.703508
O O4 0.402578 0.861802 0.987862
O O5 0.250472 0.887410 0.724569
O O6 0.311460 0.875293 0.490295
O O7 0.312298 0.995619 0.673784
O O8 0.838880 0.881226 0.805717
O O9 0.920437 0.956216 0.783994
O O10 0.860739 0.000000 0.000000
O O11 0.000000 0.986593 0.296423
O O12 0.068837 0.000000 0.500000
#
# Coordination Sequence:
#
# PCOD8279167 Si02
#       5
#    16  16  16  16  16
#     4  11  23  37  53  84 125 153 179 225 291 345
#     4   9  17  31  54  80 108 145 191 237 273 319
#     4  10  19  33  54  81 112 147 187 226 275 332
#     4   9  16  31  55  80 104 143 199 239 266 315
#     4  10  21  40  66  88 105 137 194 244 276 327
#
# _framework density 18.950958
#
# number of rings (size 3 to 8) (size 9 to 14) (size 15 to 20)
#    0.000    2.200    4.000    2.400    0.000    4.800 
#    0.000    8.000    0.000    1.200    0.000    0.000 
#    0.000    0.000    0.000    0.000    0.000    0.000 
#
# Total GULP energy -495893.680086 kJ/mol
# GULP energy per Si atom -12397.342002 kJ/mol
# Density = 1.890783 g / cm^3
# Si number density = 18.950958 Si / 1000 Ang^3
#
#
#
# Elastic Constant Matrix: (Units=GPa)
#
#
# Indices 1 2 3 4 5 6 
#
# 1 100.2131 34.0812 71.4465 0.0000 0.0000 0.0000
# 2 34.0812 77.0353 50.6687 0.0000 0.0000 0.0000
# 3 71.4465 50.6687 127.8229 0.0000 0.0000 0.0000
# 4 0.0000 0.0000 0.0000 13.7430 0.0000 0.0000
# 5 0.0000 0.0000 0.0000 0.0000 20.6724 0.0000
# 6 0.0000 0.0000 0.0000 0.0000 0.0000 11.8796
#
#
#
# Elastic Compliance Matrix: (Units=1/GPa)
#
#
# Indices 1 2 3 4 5 6 
#
# 1 0.016752 -0.001694 -0.008692 0.000000 0.000000 0.000000
# 2 -0.001694 0.017731 -0.006081 0.000000 0.000000 0.000000
# 3 -0.008692 -0.006081 0.015092 0.000000 0.000000 0.000000
# 4 0.000000 0.000000 0.000000 0.072764 0.000000 0.000000
# 5 0.000000 0.000000 0.000000 0.000000 0.048374 0.000000
# 6 0.000000 0.000000 0.000000 0.000000 0.000000 0.084178
#
#
# Mechanical properties :
#
#
# Convention : Reuss Voigt Hill
#
# Bulk Modulus (GPa) = 60.09715 68.60713 64.35214
# Shear Modulus (GPa) = 17.04324 19.18400 18.11362
#
# Velocity S-wave (km/s) = 3.00214 3.18511 3.09498
# Velocity P-wave (km/s) = 6.61800 7.05745 6.84126
#
# Compressibility (1/GPa) = 0.01663972
#
# Stress axis : x y z
#
# Youngs Moduli (GPa) = 59.69562 56.39992 66.25949
#
# Poissons Ratio (x) = 0.09556 0.57591
# Poissons Ratio (y) = 0.10114 0.40295
# Poissons Ratio (z) = 0.51886 0.34299
#
# Static dielectric constant tensor:
#      x y z
#    x 3.500650 0.000000 0.000000 
#    y 0.000000 3.035400 0.000000 
#    z 0.000000 0.000000 3.873380 
# 
# 
# High freq. dielectric constant tensor:
#      x y z
#    x 1.734660 0.000000 0.000000 
#    y 0.000000 1.686040 0.000000 
#    z 0.000000 0.000000 1.749020 
# 
# From -- ./inp_files/9912.got.cif
#   From: 2010.03.12/outbox.cif.g09.slc.cpg/sg67_5_cif.got.tgz:9912.got - 2010.04.10 22:41:39.
