data_PCOD8279844
_publ_section_title
;
Structure prediction by ZEFSAII (Michael W. Deem and Ramdas Pophale) SiO2 
 PCOD8279844
Probable space group: C M M A
;
_chemical_formula_sum "Si O2"
_cell_formula_units_Z 96
_cell_length_a 19.678159
_cell_length_b 8.682033
_cell_length_c 30.315192
_cell_angle_alpha 90.000000
_cell_angle_beta 90.000000
_cell_angle_gamma 90.000000
_cell_volume 5179.242201
_symmetry_space_group_name_H-M "C M M A"
_symmetry_group_IT_number 67
_symmetry_cell_setting 'orthorhombic'
loop_
_space_group_symop_operation_xyz
x,y,z
-x,1/2-y,z
x,-y,-z
-x,1/2+y,-z
-x,-y,-z
x,1/2+y,-z
-x,y,z
x,1/2-y,z
1/2+x,1/2+y,z
1/2-x,-y,z
1/2+x,1/2-y,-z
1/2-x,y,-z
1/2-x,1/2-y,-z
1/2+x,y,-z
1/2-x,1/2+y,z
1/2+x,-y,z
loop_
_atom_site_type_symbol
_atom_site_label
_atom_site_fract_x
_atom_site_fract_y
_atom_site_fract_z
Si Si1 0.076836 0.568100 0.954289
Si Si2 0.079049 0.072111 0.384289
Si Si3 0.922141 0.071712 0.707424
Si Si4 0.178434 0.930965 0.453063
Si Si5 0.177084 0.567024 0.878245
Si Si6 0.177577 0.932207 0.214971
O O1 0.079787 0.750000 0.957694
O O2 0.123363 0.508371 0.914391
O O3 0.000000 0.509917 0.945679
O O4 0.105191 0.500000 0.000000
O O5 0.096351 0.250000 0.392378
O O6 0.000000 0.036076 0.392084
O O7 0.100010 0.027948 0.334685
O O8 0.120549 0.968390 0.418034
O O9 0.910199 0.250000 0.695773
O O10 0.876775 0.018485 0.748412
O O11 0.000000 0.039541 0.720395
O O12 0.186607 0.750000 0.458124
O O13 0.156626 0.000000 0.500000
O O14 0.250000 0.000000 0.436800
O O15 0.181523 0.750000 0.875991
O O16 0.250000 0.500000 0.891437
O O17 0.152782 0.503345 0.831128
O O18 0.183674 0.750000 0.209809
O O19 0.250000 0.000000 0.229279
#
# Coordination Sequence:
#
# PCOD8279844 Si02
#       6
#    16  16  16  16  16  16
#     4   9  19  35  53  74 100 131 167 207 251 299
#     4  10  21  37  57  82 111 143 181 222 265 316
#     4   9  19  36  55  76 104 138 176 217 261 309
#     4  11  22  38  59  82 111 144 180 223 269 318
#     4  10  20  34  52  74 102 133 167 208 252 302
#     4  10  20  34  53  76 103 135 171 212 257 307
#
# _framework density 18.535530000000001
#
# number of rings (size 3 to 8) (size 9 to 14) (size 15 to 20)
#    0.000    2.167    0.000    4.500    0.000    5.667 
#    0.000    3.333    0.000    0.000    0.000    0.000 
#    0.000    0.000    0.000    0.000    0.000    0.000 
#
# Total GULP energy -595367.619401 kJ/mol
# GULP energy per Si atom -12403.492071 kJ/mol
# Density = 1.849334 g / cm^3
# Si number density = 18.535530 Si / 1000 Ang^3
#
#
#
# Elastic Constant Matrix: (Units=GPa)
#
#
# Indices 1 2 3 4 5 6 
#
# 1 98.3393 42.9747 92.3661 0.0000 0.0000 0.0000
# 2 42.9747 92.6368 52.4321 0.0000 0.0000 0.0000
# 3 92.3661 52.4321 141.5892 0.0000 0.0000 0.0000
# 4 0.0000 0.0000 0.0000 34.7082 0.0000 0.0000
# 5 0.0000 0.0000 0.0000 0.0000 42.3203 0.0000
# 6 0.0000 0.0000 0.0000 0.0000 0.0000 27.7511
#
#
#
# Elastic Compliance Matrix: (Units=1/GPa)
#
#
# Indices 1 2 3 4 5 6 
#
# 1 0.027003 -0.003234 -0.016417 0.000000 0.000000 0.000000
# 2 -0.003234 0.014045 -0.003091 0.000000 0.000000 0.000000
# 3 -0.016417 -0.003091 0.018917 0.000000 0.000000 0.000000
# 4 0.000000 0.000000 0.000000 0.028812 0.000000 0.000000
# 5 0.000000 0.000000 0.000000 0.000000 0.023629 0.000000
# 6 0.000000 0.000000 0.000000 0.000000 0.000000 0.036035
#
#
# Mechanical properties :
#
#
# Convention : Reuss Voigt Hill
#
# Bulk Modulus (GPa) = 69.06576 78.67902 73.87239
# Shear Modulus (GPa) = 25.15696 30.60873 27.88285
#
# Velocity S-wave (km/s) = 3.68806 4.06809 3.88273
# Velocity P-wave (km/s) = 7.44834 8.03777 7.74866
#
# Compressibility (1/GPa) = 0.01447896
#
# Stress axis : x y z
#
# Youngs Moduli (GPa) = 37.03355 71.20077 52.86181
#
# Poissons Ratio (x) = 0.23029 0.86785
# Poissons Ratio (y) = 0.11978 0.16339
# Poissons Ratio (z) = 0.60800 0.22008
#
# Static dielectric constant tensor:
#      x y z
#    x 3.469230 0.000000 0.000000 
#    y 0.000000 3.441280 0.000000 
#    z 0.000000 0.000000 3.486320 
# 
# 
# High freq. dielectric constant tensor:
#      x y z
#    x 1.718060 0.000000 0.000000 
#    y 0.000000 1.728040 0.000000 
#    z 0.000000 0.000000 1.724720 
# 
# From -- ./inp_files/43506.got.cif
#   From: 2010.03.12/outbox.cif.g09.slc.cpg/sg67_22_cif.got.tgz:43506.got - 2010.04.10 22:41:39.
