data_PCOD8279381
_publ_section_title
;
Structure prediction by ZEFSAII (Michael W. Deem and Ramdas Pophale) SiO2 
 PCOD8279381
Probable space group: C M M A
;
_chemical_formula_sum "Si O2"
_cell_formula_units_Z 72
_cell_length_a 7.642638
_cell_length_b 15.926795
_cell_length_c 28.377657
_cell_angle_alpha 90.000000
_cell_angle_beta 90.000000
_cell_angle_gamma 90.000000
_cell_volume 3454.205844
_symmetry_space_group_name_H-M "C M M A"
_symmetry_group_IT_number 67
_symmetry_cell_setting 'orthorhombic'
loop_
_space_group_symop_operation_xyz
x,y,z
-x,1/2-y,z
x,-y,-z
-x,1/2+y,-z
-x,-y,-z
x,1/2+y,-z
-x,y,z
x,1/2-y,z
1/2+x,1/2+y,z
1/2-x,-y,z
1/2+x,1/2-y,-z
1/2-x,y,-z
1/2-x,1/2-y,-z
1/2+x,y,-z
1/2-x,1/2+y,z
1/2+x,-y,z
loop_
_atom_site_type_symbol
_atom_site_label
_atom_site_fract_x
_atom_site_fract_y
_atom_site_fract_z
Si Si1 0.804633 0.153577 0.789382
Si Si2 0.204806 0.250000 0.054323
Si Si3 0.204985 0.407964 0.112230
Si Si4 0.500000 0.349961 0.722539
Si Si5 0.703463 0.403333 0.449177
Si Si6 0.000000 0.845820 0.619004
O O1 0.757974 0.250000 0.802076
O O2 0.792959 0.099296 0.836699
O O3 0.672221 0.118069 0.750061
O O4 0.000000 0.145652 0.768545
O O5 0.282303 0.334842 0.078230
O O6 0.000000 0.250000 0.061493
O O7 0.250000 0.250000 0.000000
O O8 0.250000 0.500000 0.091091
O O9 0.000000 0.396149 0.118084
O O10 0.500000 0.250000 0.720044
O O11 0.500000 0.391548 0.670099
O O12 0.500000 0.388411 0.436866
O O13 0.750000 0.500000 0.451966
O O14 0.750000 0.362256 0.500000
O O15 0.822587 0.364102 0.408981
O O16 0.000000 0.750000 0.631584
#
# Coordination Sequence:
#
# PCOD8279381 Si02
#       6
#    16   8  16   8  16   8
#     4  10  19  35  64  91 115 161 213 253 306 374
#     4  10  24  42  64  90 130 170 208 260 318 373
#     4  11  22  39  63  93 125 163 209 264 313 370
#     4   9  20  38  59  85 129 164 202 259 312 379
#     4  11  20  39  66  88 116 165 219 256 307 388
#     4  11  24  39  59  95 130 161 200 267 329 361
#
# _framework density 20.844155000000001
#
# number of rings (size 3 to 8) (size 9 to 14) (size 15 to 20)
#    0.000    1.556    4.444    1.333    0.000    4.000 
#    0.000    5.556    0.000    0.000    0.000    0.000 
#    0.000    0.000    0.000    0.000    0.000    0.000 
#
# Total GULP energy -446361.733006 kJ/mol
# GULP energy per Si atom -12398.937028 kJ/mol
# Density = 2.079671 g / cm^3
# Si number density = 20.844155 Si / 1000 Ang^3
#
#
#
# Elastic Constant Matrix: (Units=GPa)
#
#
# Indices 1 2 3 4 5 6 
#
# 1 154.1217 23.6981 62.2590 0.0000 0.0000 0.0000
# 2 23.6981 93.4419 49.4717 0.0000 0.0000 0.0000
# 3 62.2590 49.4717 173.6596 0.0000 0.0000 0.0000
# 4 0.0000 0.0000 0.0000 10.9216 0.0000 0.0000
# 5 0.0000 0.0000 0.0000 0.0000 30.2236 0.0000
# 6 0.0000 0.0000 0.0000 0.0000 0.0000 20.8427
#
#
#
# Elastic Compliance Matrix: (Units=1/GPa)
#
#
# Indices 1 2 3 4 5 6 
#
# 1 0.007613 -0.000572 -0.002566 0.000000 0.000000 0.000000
# 2 -0.000572 0.012646 -0.003397 0.000000 0.000000 0.000000
# 3 -0.002566 -0.003397 0.007646 0.000000 0.000000 0.000000
# 4 0.000000 0.000000 0.000000 0.091561 0.000000 0.000000
# 5 0.000000 0.000000 0.000000 0.000000 0.033087 0.000000
# 6 0.000000 0.000000 0.000000 0.000000 0.000000 0.047978
#
#
# Mechanical properties :
#
#
# Convention : Reuss Voigt Hill
#
# Bulk Modulus (GPa) = 67.41556 76.89788 72.15672
# Shear Modulus (GPa) = 22.87832 31.45055 27.16444
#
# Velocity S-wave (km/s) = 3.31658 3.88860 3.61392
# Velocity P-wave (km/s) = 6.86143 7.55867 7.21847
#
# Compressibility (1/GPa) = 0.01483337
#
# Stress axis : x y z
#
# Youngs Moduli (GPa) = 131.35313 79.07885 130.78192
#
# Poissons Ratio (x) = 0.04523 0.33564
# Poissons Ratio (y) = 0.07514 0.44431
# Poissons Ratio (z) = 0.33711 0.26866
#
# Static dielectric constant tensor:
#      x y z
#    x 3.785110 0.000000 0.000000 
#    y 0.000000 3.667640 0.000000 
#    z 0.000000 0.000000 3.792050 
# 
# 
# High freq. dielectric constant tensor:
#      x y z
#    x 1.825980 0.000000 0.000000 
#    y 0.000000 1.799480 0.000000 
#    z 0.000000 0.000000 1.807380 
# 
# From -- ./inp_files/43148.got.cif
#   From: 2010.03.12/outbox.cif.g09.slc.cpg/sg67_22_cif.got.tgz:43148.got - 2010.04.10 22:41:39.
