data_PCOD8279640
_publ_section_title
;
Structure prediction by ZEFSAII (Michael W. Deem and Ramdas Pophale) SiO2 
 PCOD8279640
Probable space group: C M M A
;
_chemical_formula_sum "Si O2"
_cell_formula_units_Z 80
_cell_length_a 8.739137
_cell_length_b 27.490186
_cell_length_c 18.489751
_cell_angle_alpha 90.000000
_cell_angle_beta 90.000000
_cell_angle_gamma 90.000000
_cell_volume 4441.987055
_symmetry_space_group_name_H-M "C M M A"
_symmetry_group_IT_number 67
_symmetry_cell_setting 'orthorhombic'
loop_
_space_group_symop_operation_xyz
x,y,z
-x,1/2-y,z
x,-y,-z
-x,1/2+y,-z
-x,-y,-z
x,1/2+y,-z
-x,y,z
x,1/2-y,z
1/2+x,1/2+y,z
1/2-x,-y,z
1/2+x,1/2-y,-z
1/2-x,y,-z
1/2-x,1/2-y,-z
1/2+x,y,-z
1/2-x,1/2+y,z
1/2+x,-y,z
loop_
_atom_site_type_symbol
_atom_site_label
_atom_site_fract_x
_atom_site_fract_y
_atom_site_fract_z
Si Si1 0.821331 0.194244 0.281748
Si Si2 0.179591 0.552547 0.347985
Si Si3 0.320822 0.860047 0.425878
Si Si4 0.178435 0.391603 0.796658
Si Si5 0.818982 0.948640 0.923017
O O1 0.773778 0.250000 0.271615
O O2 0.778815 0.178230 0.363104
O O3 0.725219 0.163211 0.224028
O O4 0.000000 0.185638 0.266973
O O5 0.250000 0.500000 0.358225
O O6 0.249904 0.587424 0.408602
O O7 0.222121 0.572432 0.268693
O O8 0.000000 0.550135 0.359752
O O9 0.500000 0.866232 0.435277
O O10 0.250000 0.839597 0.500000
O O11 0.275270 0.407202 0.866144
O O12 0.000000 0.393566 0.815355
O O13 0.000000 0.953665 0.929517
O O14 0.750000 0.000000 0.896790
O O15 0.750000 0.933411 0.000000
#
# Coordination Sequence:
#
# PCOD8279640 Si02
#       5
#    16  16  16  16  16
#     4   9  19  36  56  77 101 132 170 212 260 310
#     4  10  20  33  50  72  99 132 170 209 250 300
#     4  10  20  34  51  72 100 131 166 209 256 307
#     4  10  20  34  53  78 106 136 172 213 256 303
#     4  11  21  34  53  79 112 146 178 211 249 296
#
# _framework density 18.009958999999998
#
# number of rings (size 3 to 8) (size 9 to 14) (size 15 to 20)
#    0.000    2.000    0.000    4.800    0.000    6.000 
#    0.000    2.000    0.000    0.600    0.000    0.000 
#    0.000    0.000    0.000    0.000    0.000    0.000 
#
# Total GULP energy -496192.365833 kJ/mol
# GULP energy per Si atom -12404.809146 kJ/mol
# Density = 1.796897 g / cm^3
# Si number density = 18.009959 Si / 1000 Ang^3
#
#
#
# Elastic Constant Matrix: (Units=GPa)
#
#
# Indices 1 2 3 4 5 6 
#
# 1 100.0640 36.8393 48.4375 0.0000 0.0000 0.0000
# 2 36.8393 98.1270 43.0337 0.0000 0.0000 0.0000
# 3 48.4375 43.0337 100.8860 0.0000 0.0000 0.0000
# 4 0.0000 0.0000 0.0000 20.0226 0.0000 0.0000
# 5 0.0000 0.0000 0.0000 0.0000 32.7772 0.0000
# 6 0.0000 0.0000 0.0000 0.0000 0.0000 28.9082
#
#
#
# Elastic Compliance Matrix: (Units=1/GPa)
#
#
# Indices 1 2 3 4 5 6 
#
# 1 0.013600 -0.002758 -0.005353 0.000000 0.000000 0.000000
# 2 -0.002758 0.013095 -0.004262 0.000000 0.000000 0.000000
# 3 -0.005353 -0.004262 0.014300 0.000000 0.000000 0.000000
# 4 0.000000 0.000000 0.000000 0.049944 0.000000 0.000000
# 5 0.000000 0.000000 0.000000 0.000000 0.030509 0.000000
# 6 0.000000 0.000000 0.000000 0.000000 0.000000 0.034592
#
#
# Mechanical properties :
#
#
# Convention : Reuss Voigt Hill
#
# Bulk Modulus (GPa) = 61.53974 61.74421 61.64197
# Shear Modulus (GPa) = 26.85230 27.72603 27.28917
#
# Velocity S-wave (km/s) = 3.86550 3.92788 3.89681
# Velocity P-wave (km/s) = 7.35981 7.41140 7.38565
#
# Compressibility (1/GPa) = 0.01624966
#
# Stress axis : x y z
#
# Youngs Moduli (GPa) = 73.52720 76.36308 69.92892
#
# Poissons Ratio (x) = 0.21063 0.37435
# Poissons Ratio (y) = 0.20281 0.29801
# Poissons Ratio (z) = 0.39361 0.32543
#
# Static dielectric constant tensor:
#      x y z
#    x 3.406170 0.000000 0.000000 
#    y 0.000000 3.233240 0.000000 
#    z 0.000000 0.000000 3.302820 
# 
# 
# High freq. dielectric constant tensor:
#      x y z
#    x 1.712120 0.000000 0.000000 
#    y 0.000000 1.685910 0.000000 
#    z 0.000000 0.000000 1.691560 
# 
# From -- ./inp_files/32120.got.cif
#   From: 2010.03.12/outbox.cif.g09.slc.cpg/sg67_17_cif.got.tgz:32120.got - 2010.04.10 22:41:39.
