data_PCOD8279612
_publ_section_title
;
Structure prediction by ZEFSAII (Michael W. Deem and Ramdas Pophale) SiO2 
 PCOD8279612
Probable space group: C M M A
;
_chemical_formula_sum "Si O2"
_cell_formula_units_Z 72
_cell_length_a 25.232491
_cell_length_b 8.840830
_cell_length_c 16.752831
_cell_angle_alpha 90.000000
_cell_angle_beta 90.000000
_cell_angle_gamma 90.000000
_cell_volume 3737.157266
_symmetry_space_group_name_H-M "C M M A"
_symmetry_group_IT_number 67
_symmetry_cell_setting 'orthorhombic'
loop_
_space_group_symop_operation_xyz
x,y,z
-x,1/2-y,z
x,-y,-z
-x,1/2+y,-z
-x,-y,-z
x,1/2+y,-z
-x,y,z
x,1/2-y,z
1/2+x,1/2+y,z
1/2-x,-y,z
1/2+x,1/2-y,-z
1/2-x,y,-z
1/2-x,1/2-y,-z
1/2+x,y,-z
1/2-x,1/2+y,z
1/2+x,-y,z
loop_
_atom_site_type_symbol
_atom_site_label
_atom_site_fract_x
_atom_site_fract_y
_atom_site_fract_z
Si Si1 0.084187 0.574265 0.802556
Si Si2 0.302454 0.427882 0.745431
Si Si3 0.832248 0.924792 0.419602
Si Si4 0.000000 0.428516 0.913621
Si Si5 0.557540 0.079637 0.356015
O O1 0.075324 0.750000 0.821055
O O2 0.146847 0.531971 0.800735
O O3 0.053700 0.479072 0.869197
O O4 0.060301 0.538215 0.716209
O O5 0.295922 0.250000 0.736830
O O6 0.250000 0.500000 0.785998
O O7 0.307293 0.496304 0.657107
O O8 0.816135 0.750000 0.418683
O O9 0.895962 0.949668 0.419352
O O10 0.809578 0.000000 0.500000
O O11 0.000000 0.250000 0.920808
O O12 0.000000 0.500000 0.000000
O O13 0.500000 0.059943 0.398022
O O14 0.563584 0.250000 0.320832
#
# Coordination Sequence:
#
# PCOD8279612 Si02
#       5
#    16  16  16   8  16
#     4  10  20  35  56  84 115 145 181 225 269 320
#     4  10  21  37  58  82 108 142 187 233 278 328
#     4  10  20  33  48  70 103 140 184 235 286 336
#     4  12  24  38  60  90 123 154 181 214 262 318
#     4   9  17  30  49  72 100 140 184 224 272 329
#
# _framework density 19.265981
#
# number of rings (size 3 to 8) (size 9 to 14) (size 15 to 20)
#    0.000    2.000    1.111    3.000    0.000    4.444 
#    0.000    2.222    0.000    0.667    0.000    4.667 
#    0.000    0.000    0.000    0.000    0.000    0.000 
#
# Total GULP energy -446306.582467 kJ/mol
# GULP energy per Si atom -12397.405069 kJ/mol
# Density = 1.922213 g / cm^3
# Si number density = 19.265981 Si / 1000 Ang^3
#
#
#
# Elastic Constant Matrix: (Units=GPa)
#
#
# Indices 1 2 3 4 5 6 
#
# 1 135.0522 57.5866 28.8981 0.0000 0.0000 0.0000
# 2 57.5866 123.9942 49.1788 0.0000 0.0000 0.0000
# 3 28.8981 49.1788 79.8237 0.0000 0.0000 0.0000
# 4 0.0000 0.0000 0.0000 28.8461 0.0000 0.0000
# 5 0.0000 0.0000 0.0000 0.0000 7.6697 0.0000
# 6 0.0000 0.0000 0.0000 0.0000 0.0000 30.9394
#
#
#
# Elastic Compliance Matrix: (Units=1/GPa)
#
#
# Indices 1 2 3 4 5 6 
#
# 1 0.009285 -0.003942 -0.000933 0.000000 0.000000 0.000000
# 2 -0.003942 0.012347 -0.006180 0.000000 0.000000 0.000000
# 3 -0.000933 -0.006180 0.016672 0.000000 0.000000 0.000000
# 4 0.000000 0.000000 0.000000 0.034667 0.000000 0.000000
# 5 0.000000 0.000000 0.000000 0.000000 0.130384 0.000000
# 6 0.000000 0.000000 0.000000 0.000000 0.000000 0.032321
#
#
# Mechanical properties :
#
#
# Convention : Reuss Voigt Hill
#
# Bulk Modulus (GPa) = 61.74618 67.79966 64.77292
# Shear Modulus (GPa) = 18.99815 27.03815 23.01815
#
# Velocity S-wave (km/s) = 3.14363 3.75028 3.46027
# Velocity P-wave (km/s) = 6.73019 7.34987 7.04684
#
# Compressibility (1/GPa) = 0.01619533
#
# Stress axis : x y z
#
# Youngs Moduli (GPa) = 107.69890 80.99268 59.97948
#
# Poissons Ratio (x) = 0.31931 0.05593
# Poissons Ratio (y) = 0.42459 0.37064
# Poissons Ratio (z) = 0.10043 0.50050
#
# Static dielectric constant tensor:
#      x y z
#    x 3.983200 0.000000 0.000000 
#    y 0.000000 3.622830 0.000000 
#    z 0.000000 0.000000 3.098100 
# 
# 
# High freq. dielectric constant tensor:
#      x y z
#    x 1.769680 0.000000 0.000000 
#    y 0.000000 1.763330 0.000000 
#    z 0.000000 0.000000 1.696730 
# 
# From -- ./inp_files/25090.got.cif
#   From: 2010.03.12/outbox.cif.g09.slc.cpg/sg67_13_cif.got.tgz:25090.got - 2010.04.10 22:41:39.
