data_PCOD8279344
_publ_section_title
;
Structure prediction by ZEFSAII (Michael W. Deem and Ramdas Pophale) SiO2 
 PCOD8279344
Probable space group: C M M A
;
_chemical_formula_sum "Si O2"
_cell_formula_units_Z 56
_cell_length_a 13.453796
_cell_length_b 18.894143
_cell_length_c 11.296718
_cell_angle_alpha 90.000000
_cell_angle_beta 90.000000
_cell_angle_gamma 90.000000
_cell_volume 2871.602507
_symmetry_space_group_name_H-M "C M M A"
_symmetry_group_IT_number 67
_symmetry_cell_setting 'orthorhombic'
loop_
_space_group_symop_operation_xyz
x,y,z
-x,1/2-y,z
x,-y,-z
-x,1/2+y,-z
-x,-y,-z
x,1/2+y,-z
-x,y,z
x,1/2-y,z
1/2+x,1/2+y,z
1/2-x,-y,z
1/2+x,1/2-y,-z
1/2-x,y,-z
1/2-x,1/2-y,-z
1/2+x,y,-z
1/2-x,1/2+y,z
1/2+x,-y,z
loop_
_atom_site_type_symbol
_atom_site_label
_atom_site_fract_x
_atom_site_fract_y
_atom_site_fract_z
Si Si1 0.792229 0.898503 0.245013
Si Si2 0.888630 0.250000 0.757029
Si Si3 0.892381 0.250000 0.477643
Si Si4 0.887394 0.475666 0.131514
Si Si5 0.750000 0.631196 0.500000
O O1 0.826688 0.819880 0.206458
O O2 0.877290 0.953837 0.209873
O O3 0.786959 0.912871 0.387284
O O4 0.688434 0.915490 0.178123
O O5 0.901383 0.250000 0.617811
O O6 0.000000 0.250000 0.814522
O O7 0.834421 0.320016 0.438242
O O8 0.000000 0.250000 0.416272
O O9 0.000000 0.446457 0.139925
O O10 0.859035 0.500000 0.000000
#
# Coordination Sequence:
#
# PCOD8279344 Si02
#       5
#    16   8   8  16   8
#     4  10  19  35  56  81 110 141 174 218 267 316
#     4   9  17  31  55  84 110 140 176 212 259 318
#     4   8  15  29  46  69 111 153 170 193 251 323
#     4  10  22  40  57  73 101 146 190 223 265 318
#     4   9  18  29  48  82 112 134 170 212 260 322
#
# _framework density 19.501307000000001
#
# number of rings (size 3 to 8) (size 9 to 14) (size 15 to 20)
#    0.000    2.571    0.000    3.429    0.000    4.571 
#    0.000    5.000    0.000    3.429    0.000    2.000 
#    0.000    0.000    0.000    0.000    0.000    0.000 
#
# Total GULP energy -346963.620958 kJ/mol
# GULP energy per Si atom -12391.557891 kJ/mol
# Density = 1.945692 g / cm^3
# Si number density = 19.501307 Si / 1000 Ang^3
#
#
#
# Elastic Constant Matrix: (Units=GPa)
#
#
# Indices 1 2 3 4 5 6 
#
# 1 131.6193 46.5802 27.7977 0.0000 0.0000 0.0000
# 2 46.5802 120.0550 34.5029 0.0000 0.0000 0.0000
# 3 27.7977 34.5029 102.0768 0.0000 0.0000 0.0000
# 4 0.0000 0.0000 0.0000 -10.1069 0.0000 0.0000
# 5 0.0000 0.0000 0.0000 0.0000 23.9706 0.0000
# 6 0.0000 0.0000 0.0000 0.0000 0.0000 19.7334
#
#
#
# Elastic Compliance Matrix: (Units=1/GPa)
#
#
# Indices 1 2 3 4 5 6 
#
# 1 0.008985 -0.003082 -0.001405 0.000000 0.000000 0.000000
# 2 -0.003082 0.010283 -0.002636 0.000000 0.000000 0.000000
# 3 -0.001405 -0.002636 0.011070 0.000000 0.000000 0.000000
# 4 0.000000 0.000000 0.000000 -0.098943 0.000000 0.000000
# 5 0.000000 0.000000 0.000000 0.000000 0.041718 0.000000
# 6 0.000000 0.000000 0.000000 0.000000 0.000000 0.050675
#
#
# Mechanical properties :
#
#
# Convention : Reuss Voigt Hill
#
# Bulk Modulus (GPa) = 62.14618 63.50139 62.82379
# Shear Modulus (GPa) = 115.20601 23.04412 69.12507
#
# Velocity S-wave (km/s) = 7.69443 3.44127 5.96014
# Velocity P-wave (km/s) = 10.52976 6.95867 8.92466
#
# Compressibility (1/GPa) = 0.01609109
#
# Stress axis : x y z
#
# Youngs Moduli (GPa) = 111.29330 97.24657 90.33197
#
# Poissons Ratio (x) = 0.29975 0.12692
# Poissons Ratio (y) = 0.34305 0.23815
# Poissons Ratio (z) = 0.15637 0.25638
#
# Static dielectric constant tensor:
#      x y z
#    x 3.903320 0.000000 0.000000 
#    y 0.000000 3.483190 0.000000 
#    z 0.000000 0.000000 3.380790 
# 
# 
# High freq. dielectric constant tensor:
#      x y z
#    x 1.769610 0.000000 0.000000 
#    y 0.000000 1.745250 0.000000 
#    z 0.000000 0.000000 1.740260 
# 
# From -- ./inp_files/17424.got.cif
#   From: 2010.03.12/outbox.cif.g09.slc.cpg/sg67_9_cif.got.tgz:17424.got - 2010.04.10 22:41:39.
