data_PCOD8279783
_publ_section_title
;
Structure prediction by ZEFSAII (Michael W. Deem and Ramdas Pophale) SiO2 
 PCOD8279783
Probable space group: C M M A
;
_chemical_formula_sum "Si O2"
_cell_formula_units_Z 120
_cell_length_a 8.791746
_cell_length_b 27.183699
_cell_length_c 28.560521
_cell_angle_alpha 90.000000
_cell_angle_beta 90.000000
_cell_angle_gamma 90.000000
_cell_volume 6825.741089
_symmetry_space_group_name_H-M "C M M A"
_symmetry_group_IT_number 67
_symmetry_cell_setting 'orthorhombic'
loop_
_space_group_symop_operation_xyz
x,y,z
-x,1/2-y,z
x,-y,-z
-x,1/2+y,-z
-x,-y,-z
x,1/2+y,-z
-x,y,z
x,1/2-y,z
1/2+x,1/2+y,z
1/2-x,-y,z
1/2+x,1/2-y,-z
1/2-x,y,-z
1/2-x,1/2-y,-z
1/2+x,y,-z
1/2-x,1/2+y,z
1/2+x,-y,z
loop_
_atom_site_type_symbol
_atom_site_label
_atom_site_fract_x
_atom_site_fract_y
_atom_site_fract_z
Si Si1 0.179875 0.897415 0.310287
Si Si2 0.819881 0.142701 0.948856
Si Si3 0.822227 0.550185 0.218832
Si Si4 0.319437 0.552065 0.886342
Si Si5 0.321529 0.803095 0.639238
Si Si6 0.679044 0.638655 0.548684
Si Si7 0.822057 0.250000 0.949835
Si Si8 0.819566 0.051450 0.396082
O O1 0.221329 0.907353 0.255993
O O2 0.239882 0.842792 0.323175
O O3 0.263127 0.935989 0.343787
O O4 0.000000 0.902406 0.319839
O O5 0.757443 0.098096 0.916745
O O6 0.775537 0.197038 0.926270
O O7 0.000000 0.138362 0.953307
O O8 0.750000 0.136405 0.000000
O O9 0.750000 0.500000 0.237243
O O10 0.763953 0.563437 0.166741
O O11 0.000000 0.541649 0.217299
O O12 0.500000 0.547827 0.889995
O O13 0.250000 0.500000 0.903916
O O14 0.500000 0.798464 0.645935
O O15 0.244112 0.750000 0.648730
O O16 0.283820 0.819177 0.586417
O O17 0.500000 0.629270 0.543869
O O18 0.750000 0.656531 0.500000
O O19 0.759901 0.589092 0.565178
O O20 0.000000 0.250000 0.956805
O O21 0.750000 0.250000 0.000000
O O22 0.000000 0.049715 0.396678
O O23 0.750000 0.000000 0.411439
#
# Coordination Sequence:
#
# PCOD8279783 Si02
#       8
#    16  16  16  16  16  16   8  16
#     4   9  17  30  49  71  94 120 152 191 229 270
#     4   9  17  29  46  66  90 121 157 199 240 283
#     4   9  17  29  46  67  92 122 154 188 227 273
#     4   9  18  31  45  64  93 126 158 193 236 284
#     4   8  15  29  49  70  93 121 151 185 226 269
#     4  10  20  34  50  70  95 124 157 191 227 268
#     4   8  14  26  44  64  84 112 150 192 236 276
#     4  11  21  33  49  70  96 123 153 188 228 275
#
# _framework density 17.580507999999998
#
# number of rings (size 3 to 8) (size 9 to 14) (size 15 to 20)
#    0.000    2.800    0.000    2.800    0.000    2.933 
#    0.000    2.667    1.467    9.600    0.000    0.000 
#    0.000    0.000    0.267    0.000    0.533    0.000 
#
# Total GULP energy -743480.184847 kJ/mol
# GULP energy per Si atom -12391.336414 kJ/mol
# Density = 1.754049 g / cm^3
# Si number density = 17.580508 Si / 1000 Ang^3
#
#
#
# Elastic Constant Matrix: (Units=GPa)
#
#
# Indices 1 2 3 4 5 6 
#
# 1 44.0776 30.2572 22.3777 0.0000 0.0000 0.0000
# 2 30.2572 150.9647 66.7091 0.0000 0.0000 0.0000
# 3 22.3777 66.7091 96.0827 0.0000 0.0000 0.0000
# 4 0.0000 0.0000 0.0000 9.8311 0.0000 0.0000
# 5 0.0000 0.0000 0.0000 0.0000 22.0019 0.0000
# 6 0.0000 0.0000 0.0000 0.0000 0.0000 16.5174
#
#
#
# Elastic Compliance Matrix: (Units=1/GPa)
#
#
# Indices 1 2 3 4 5 6 
#
# 1 0.027177 -0.003823 -0.003675 0.000000 0.000000 0.000000
# 2 -0.003823 0.010093 -0.006117 0.000000 0.000000 0.000000
# 3 -0.003675 -0.006117 0.015511 0.000000 0.000000 0.000000
# 4 0.000000 0.000000 0.000000 0.101718 0.000000 0.000000
# 5 0.000000 0.000000 0.000000 0.000000 0.045451 0.000000
# 6 0.000000 0.000000 0.000000 0.000000 0.000000 0.060542
#
#
# Mechanical properties :
#
#
# Convention : Reuss Voigt Hill
#
# Bulk Modulus (GPa) = 39.13842 58.86812 49.00327
# Shear Modulus (GPa) = 16.87817 21.12216 19.00017
#
# Velocity S-wave (km/s) = 3.10183 3.46996 3.29105
# Velocity P-wave (km/s) = 5.92783 7.04356 6.50964
#
# Compressibility (1/GPa) = 0.02555034
#
# Stress axis : x y z
#
# Youngs Moduli (GPa) = 36.79517 99.07383 64.47047
#
# Poissons Ratio (x) = 0.37875 0.23696
# Poissons Ratio (y) = 0.14067 0.39439
# Poissons Ratio (z) = 0.13524 0.60608
#
# Static dielectric constant tensor:
#      x y z
#    x 3.199510 0.000000 0.000000 
#    y 0.000000 3.989760 0.000000 
#    z 0.000000 0.000000 3.286550 
# 
# 
# High freq. dielectric constant tensor:
#      x y z
#    x 1.665190 0.000000 0.000000 
#    y 0.000000 1.686330 0.000000 
#    z 0.000000 0.000000 1.661910 
# 
# From -- ./inp_files/43925.got.cif
#   From: 2010.03.12/outbox.cif.g09.slc.cpg/sg67_22_cif.got.tgz:43925.got - 2010.04.10 22:41:39.
