data_PCOD8279247
_publ_section_title
;
Structure prediction by ZEFSAII (Michael W. Deem and Ramdas Pophale) SiO2 
 PCOD8279247
Probable space group: C M M A
;
_chemical_formula_sum "Si O2"
_cell_formula_units_Z 128
_cell_length_a 28.649272
_cell_length_b 25.429505
_cell_length_c 9.640859
_cell_angle_alpha 90.000000
_cell_angle_beta 90.000000
_cell_angle_gamma 90.000000
_cell_volume 7023.720619
_symmetry_space_group_name_H-M "C M M A"
_symmetry_group_IT_number 67
_symmetry_cell_setting 'orthorhombic'
loop_
_space_group_symop_operation_xyz
x,y,z
-x,1/2-y,z
x,-y,-z
-x,1/2+y,-z
-x,-y,-z
x,1/2+y,-z
-x,y,z
x,1/2-y,z
1/2+x,1/2+y,z
1/2-x,-y,z
1/2+x,1/2-y,-z
1/2-x,y,-z
1/2-x,1/2-y,-z
1/2+x,y,-z
1/2-x,1/2+y,z
1/2+x,-y,z
loop_
_atom_site_type_symbol
_atom_site_label
_atom_site_fract_x
_atom_site_fract_y
_atom_site_fract_z
Si Si1 0.299037 0.811564 0.141993
Si Si2 0.880880 0.810069 0.336875
Si Si3 0.552082 0.400748 0.334291
Si Si4 0.948227 0.598250 0.662697
Si Si5 0.698956 0.355572 0.152946
Si Si6 0.698780 0.519801 0.846926
Si Si7 0.616698 0.190664 0.660785
Si Si8 0.387860 0.500113 0.664902
O O1 0.290590 0.750000 0.121747
O O2 0.251257 0.838393 0.189149
O O3 0.336447 0.824495 0.259249
O O4 0.316903 0.835818 0.997959
O O5 0.892440 0.750000 0.296982
O O6 0.924501 0.845726 0.287994
O O7 0.833782 0.829195 0.266262
O O8 0.872116 0.816917 0.499744
O O9 0.500000 0.404202 0.269098
O O10 0.547962 0.404283 0.498322
O O11 0.584311 0.448527 0.281957
O O12 0.924808 0.652781 0.710676
O O13 0.917709 0.549640 0.716103
O O14 0.000000 0.595178 0.728266
O O15 0.696210 0.417812 0.158470
O O16 0.750000 0.500000 0.803399
O O17 0.662275 0.496280 0.737374
O O18 0.685719 0.500000 0.000000
O O19 0.600691 0.250000 0.694578
O O20 0.380049 0.500000 0.500000
#
# Coordination Sequence:
#
# PCOD8279247 Si02
#       8
#    16  16  16  16  16  16  16  16
#     4  10  20  35  55  79 103 142 183 217 259 319
#     4  10  19  34  54  83 113 142 177 221 269 318
#     4   9  17  33  53  81 111 139 175 222 268 318
#     4   9  18  31  55  81 107 141 178 219 269 318
#     4  11  21  36  56  77 104 143 181 221 261 324
#     4  11  24  39  54  80 110 144 177 218 275 322
#     4   9  20  34  53  82 114 139 174 223 272 316
#     4  10  20  36  58  82 107 139 182 225 266 316
#
# _framework density 18.223960000000002
#
# number of rings (size 3 to 8) (size 9 to 14) (size 15 to 20)
#    0.000    2.125    1.250    3.375    3.500    2.750 
#    0.000    5.625    0.000    3.750    0.000    1.750 
#    0.000    0.000    0.000    0.000    0.000    0.000 
#
# Total GULP energy -793664.232782 kJ/mol
# GULP energy per Si atom -12401.003637 kJ/mol
# Density = 1.818248 g / cm^3
# Si number density = 18.223960 Si / 1000 Ang^3
#
#
#
# Elastic Constant Matrix: (Units=GPa)
#
#
# Indices 1 2 3 4 5 6 
#
# 1 145.1907 77.1448 56.3917 0.0000 0.0000 0.0000
# 2 77.1448 146.7033 39.6465 0.0000 0.0000 0.0000
# 3 56.3917 39.6465 45.5450 0.0000 0.0000 0.0000
# 4 0.0000 0.0000 0.0000 19.9889 0.0000 0.0000
# 5 0.0000 0.0000 0.0000 0.0000 -1.1481 0.0000
# 6 0.0000 0.0000 0.0000 0.0000 0.0000 31.8475
#
#
#
# Elastic Compliance Matrix: (Units=1/GPa)
#
#
# Indices 1 2 3 4 5 6 
#
# 1 0.014630 -0.003659 -0.014929 0.000000 0.000000 0.000000
# 2 -0.003659 0.009828 -0.004026 0.000000 0.000000 0.000000
# 3 -0.014929 -0.004026 0.043945 0.000000 0.000000 0.000000
# 4 0.000000 0.000000 0.000000 0.050028 0.000000 0.000000
# 5 0.000000 0.000000 0.000000 0.000000 -0.870978 0.000000
# 6 0.000000 0.000000 0.000000 0.000000 0.000000 0.031400
#
#
# Mechanical properties :
#
#
# Convention : Reuss Voigt Hill
#
# Bulk Modulus (GPa) = 43.14689 75.97835 59.56262
# Shear Modulus (GPa) = -7.48286 21.08805 6.80260
#
# Velocity S-wave (km/s) = -2.02854 3.40540 1.93414
# Velocity P-wave (km/s) = 4.27091 7.56599 6.14349
#
# Compressibility (1/GPa) = 0.02317664
#
# Stress axis : x y z
#
# Youngs Moduli (GPa) = 68.35277 101.74730 22.75548
#
# Poissons Ratio (x) = 0.37225 0.33973
# Poissons Ratio (y) = 0.25008 0.09160
# Poissons Ratio (z) = 1.02047 0.40959
#
# Static dielectric constant tensor:
#      x y z
#    x 3.668270 0.000000 0.000000 
#    y 0.000000 3.630530 0.000000 
#    z 0.000000 0.000000 3.101770 
# 
# 
# High freq. dielectric constant tensor:
#      x y z
#    x 1.710990 0.000000 0.000000 
#    y 0.000000 1.727840 0.000000 
#    z 0.000000 0.000000 1.673010 
# 
# From -- ./inp_files/22367.got.cif
#   From: 2010.03.12/outbox.cif.g09.slc.cpg/sg67_12_cif.got.tgz:22367.got - 2010.04.10 22:41:39.
