data_PCOD8279050
_publ_section_title
;
Structure prediction by ZEFSAII (Michael W. Deem and Ramdas Pophale) SiO2 
 PCOD8279050
Probable space group: C M M A
;
_chemical_formula_sum "Si O2"
_cell_formula_units_Z 88
_cell_length_a 29.105630
_cell_length_b 14.854039
_cell_length_c 11.362373
_cell_angle_alpha 90.000000
_cell_angle_beta 90.000000
_cell_angle_gamma 90.000000
_cell_volume 4912.364747
_symmetry_space_group_name_H-M "C M M A"
_symmetry_group_IT_number 67
_symmetry_cell_setting 'orthorhombic'
loop_
_space_group_symop_operation_xyz
x,y,z
-x,1/2-y,z
x,-y,-z
-x,1/2+y,-z
-x,-y,-z
x,1/2+y,-z
-x,y,z
x,1/2-y,z
1/2+x,1/2+y,z
1/2-x,-y,z
1/2+x,1/2-y,-z
1/2-x,y,-z
1/2-x,1/2-y,-z
1/2+x,y,-z
1/2-x,1/2+y,z
1/2+x,-y,z
loop_
_atom_site_type_symbol
_atom_site_label
_atom_site_fract_x
_atom_site_fract_y
_atom_site_fract_z
Si Si1 0.357095 0.750000 0.334852
Si Si2 0.700536 0.250000 0.439795
Si Si3 0.549589 0.392947 0.997168
Si Si4 0.353208 0.848056 0.975049
Si Si5 0.309506 0.590307 0.201714
Si Si6 0.794839 0.610038 0.240768
Si Si7 0.551260 0.250000 0.795686
O O1 0.342848 0.750000 0.471856
O O2 0.336660 0.659194 0.281747
O O3 0.411998 0.750000 0.311367
O O4 0.750000 0.250000 0.500000
O O5 0.697382 0.340221 0.363271
O O6 0.500000 0.357370 0.047495
O O7 0.557580 0.342586 0.871467
O O8 0.546695 0.500000 0.000000
O O9 0.595058 0.369576 0.070643
O O10 0.352537 0.750000 0.037614
O O11 0.324091 0.842002 0.858386
O O12 0.332476 0.916941 0.071502
O O13 0.256863 0.620258 0.193349
O O14 0.311376 0.492058 0.260142
O O15 0.500000 0.250000 0.740463
#
# Coordination Sequence:
#
# PCOD8279050 Si02
#       7
#     8   8  16  16  16  16   8
#     4  12  22  39  60  80 111 152 196 251 280 324
#     4  12  24  42  58  79 113 152 202 246 277 329
#     4  10  19  32  54  83 115 144 176 230 295 351
#     4  12  21  34  58  84 122 152 183 231 292 356
#     4  11  21  37  58  84 113 152 190 229 289 341
#     4  11  24  37  55  84 117 154 190 233 283 346
#     4  10  20  37  58  87 113 147 199 241 288 345
#
# _framework density 17.913979999999999
#
# number of rings (size 3 to 8) (size 9 to 14) (size 15 to 20)
#    0.000    0.909    6.364    2.182    0.000    2.909 
#    0.000    0.000    0.000    1.091    0.000    1.273 
#    0.000    0.000    0.000    0.000    0.000    0.000 
#
# Total GULP energy -545220.899259 kJ/mol
# GULP energy per Si atom -12391.384074 kJ/mol
# Density = 1.787321 g / cm^3
# Si number density = 17.913980 Si / 1000 Ang^3
#
#
#
# Elastic Constant Matrix: (Units=GPa)
#
#
# Indices 1 2 3 4 5 6 
#
# 1 148.5549 54.9379 53.6550 0.0000 0.0000 0.0000
# 2 54.9379 111.0632 46.0156 0.0000 0.0000 0.0000
# 3 53.6550 46.0156 94.3145 0.0000 0.0000 0.0000
# 4 0.0000 0.0000 0.0000 22.3686 0.0000 0.0000
# 5 0.0000 0.0000 0.0000 0.0000 15.0416 0.0000
# 6 0.0000 0.0000 0.0000 0.0000 0.0000 19.7165
#
#
#
# Elastic Compliance Matrix: (Units=1/GPa)
#
#
# Indices 1 2 3 4 5 6 
#
# 1 0.009200 -0.002986 -0.003777 0.000000 0.000000 0.000000
# 2 -0.002986 0.012254 -0.004280 0.000000 0.000000 0.000000
# 3 -0.003777 -0.004280 0.014840 0.000000 0.000000 0.000000
# 4 0.000000 0.000000 0.000000 0.044706 0.000000 0.000000
# 5 0.000000 0.000000 0.000000 0.000000 0.066482 0.000000
# 6 0.000000 0.000000 0.000000 0.000000 0.000000 0.050719
#
#
# Mechanical properties :
#
#
# Convention : Reuss Voigt Hill
#
# Bulk Modulus (GPa) = 70.38329 73.68329 72.03329
# Shear Modulus (GPa) = 22.21997 24.71360 23.46679
#
# Velocity S-wave (km/s) = 3.52571 3.71829 3.62328
# Velocity P-wave (km/s) = 7.47991 7.72368 7.60277
#
# Compressibility (1/GPa) = 0.01420792
#
# Stress axis : x y z
#
# Youngs Moduli (GPa) = 108.69659 81.60461 67.38650
#
# Poissons Ratio (x) = 0.24366 0.25452
# Poissons Ratio (y) = 0.32456 0.28842
# Poissons Ratio (z) = 0.41054 0.34928
#
# Static dielectric constant tensor:
#      x y z
#    x 3.837440 0.000000 0.000000 
#    y 0.000000 3.904880 0.000000 
#    z 0.000000 0.000000 3.087400 
# 
# 
# High freq. dielectric constant tensor:
#      x y z
#    x 1.708310 0.000000 0.000000 
#    y 0.000000 1.716750 0.000000 
#    z 0.000000 0.000000 1.643690 
# 
# From -- ./inp_files/18354.got.cif
#   From: 2010.03.12/outbox.cif.g09.slc.cpg/sg67_10_cif.got.tgz:18354.got - 2010.04.10 22:41:39.
