data_PCOD8279565
_publ_section_title
;
Structure prediction by ZEFSAII (Michael W. Deem and Ramdas Pophale) SiO2 
 PCOD8279565
Probable space group: C M M A
;
_chemical_formula_sum "Si O2"
_cell_formula_units_Z 72
_cell_length_a 15.838311
_cell_length_b 9.745745
_cell_length_c 24.613441
_cell_angle_alpha 90.000000
_cell_angle_beta 90.000000
_cell_angle_gamma 90.000000
_cell_volume 3799.235751
_symmetry_space_group_name_H-M "C M M A"
_symmetry_group_IT_number 67
_symmetry_cell_setting 'orthorhombic'
loop_
_space_group_symop_operation_xyz
x,y,z
-x,1/2-y,z
x,-y,-z
-x,1/2+y,-z
-x,-y,-z
x,1/2+y,-z
-x,y,z
x,1/2-y,z
1/2+x,1/2+y,z
1/2-x,-y,z
1/2+x,1/2-y,-z
1/2-x,y,-z
1/2-x,1/2-y,-z
1/2+x,y,-z
1/2-x,1/2+y,z
1/2+x,-y,z
loop_
_atom_site_type_symbol
_atom_site_label
_atom_site_fract_x
_atom_site_fract_y
_atom_site_fract_z
Si Si1 0.000000 0.409317 0.946819
Si Si2 0.093144 0.587562 0.230245
Si Si3 0.830744 0.088981 0.657069
Si Si4 0.902026 0.898981 0.456057
Si Si5 0.829461 0.910789 0.118855
O O1 0.915337 0.444964 0.913405
O O2 0.000000 0.250000 0.963100
O O3 0.000000 0.500000 0.000000
O O4 0.085220 0.750000 0.231444
O O5 0.127843 0.532979 0.287512
O O6 0.154730 0.544056 0.181253
O O7 0.000000 0.524309 0.220785
O O8 0.808826 0.250000 0.662093
O O9 0.892021 0.056249 0.606592
O O10 0.750000 0.000000 0.644766
O O11 0.859440 0.750000 0.464459
O O12 0.000000 0.889929 0.469221
O O13 0.858430 0.000000 0.500000
O O14 0.806736 0.750000 0.113506
O O15 0.750000 0.000000 0.096717
#
# Coordination Sequence:
#
# PCOD8279565 Si02
#       5
#     8  16  16  16  16
#     4  10  22  40  60  84 116 154 193 230 272 326
#     4   9  16  31  56  80 104 138 178 220 266 320
#     4  10  20  32  49  74 102 131 167 211 260 315
#     4   9  18  33  51  70  92 124 168 212 255 308
#     4  10  20  36  59  86 115 148 188 231 278 330
#
# _framework density 18.951180000000001
#
# number of rings (size 3 to 8) (size 9 to 14) (size 15 to 20)
#    0.000    2.444    1.111    1.333    0.000    5.333 
#    0.000    4.444    0.000    3.333    0.000    0.000 
#    0.000    0.000    0.000    0.000    0.000    0.000 
#
# Total GULP energy -446205.561837 kJ/mol
# GULP energy per Si atom -12394.598940 kJ/mol
# Density = 1.890805 g / cm^3
# Si number density = 18.951180 Si / 1000 Ang^3
#
#
#
# Elastic Constant Matrix: (Units=GPa)
#
#
# Indices 1 2 3 4 5 6 
#
# 1 98.3908 48.5897 38.5922 0.0000 0.0000 0.0000
# 2 48.5897 58.1149 54.4465 0.0000 0.0000 0.0000
# 3 38.5922 54.4465 139.7959 0.0000 0.0000 0.0000
# 4 0.0000 0.0000 0.0000 28.0682 0.0000 0.0000
# 5 0.0000 0.0000 0.0000 0.0000 16.4274 0.0000
# 6 0.0000 0.0000 0.0000 0.0000 0.0000 22.3031
#
#
#
# Elastic Compliance Matrix: (Units=1/GPa)
#
#
# Indices 1 2 3 4 5 6 
#
# 1 0.017475 -0.015889 0.001364 0.000000 0.000000 0.000000
# 2 -0.015889 0.041540 -0.011792 0.000000 0.000000 0.000000
# 3 0.001364 -0.011792 0.011369 0.000000 0.000000 0.000000
# 4 0.000000 0.000000 0.000000 0.035627 0.000000 0.000000
# 5 0.000000 0.000000 0.000000 0.000000 0.060874 0.000000
# 6 0.000000 0.000000 0.000000 0.000000 0.000000 0.044837
#
#
# Mechanical properties :
#
#
# Convention : Reuss Voigt Hill
#
# Bulk Modulus (GPa) = 56.33718 64.39538 60.36628
# Shear Modulus (GPa) = 18.49976 23.67129 21.08552
#
# Velocity S-wave (km/s) = 3.12778 3.53805 3.33922
# Velocity P-wave (km/s) = 6.54493 7.12347 6.84031
#
# Compressibility (1/GPa) = 0.01775027
#
# Stress axis : x y z
#
# Youngs Moduli (GPa) = 57.22414 24.07327 87.95466
#
# Poissons Ratio (x) = 0.38250 -0.11998
# Poissons Ratio (y) = 0.90923 1.03719
# Poissons Ratio (z) = -0.07806 0.28388
#
# Static dielectric constant tensor:
#      x y z
#    x 3.395790 0.000000 0.000000 
#    y 0.000000 3.411530 0.000000 
#    z 0.000000 0.000000 3.657610 
# 
# 
# High freq. dielectric constant tensor:
#      x y z
#    x 1.733130 0.000000 0.000000 
#    y 0.000000 1.706670 0.000000 
#    z 0.000000 0.000000 1.746660 
# 
# From -- ./inp_files/40495.got.cif
#   From: 2010.03.12/outbox.cif.g09.slc.cpg/sg67_21_cif.got.tgz:40495.got - 2010.04.10 22:41:39.
