data_PCOD8279660
_publ_section_title
;
Structure prediction by ZEFSAII (Michael W. Deem and Ramdas Pophale) SiO2 
 PCOD8279660
Probable space group: C M M A
;
_chemical_formula_sum "Si O2"
_cell_formula_units_Z 64
_cell_length_a 17.098810
_cell_length_b 16.977807
_cell_length_c 11.826040
_cell_angle_alpha 90.000000
_cell_angle_beta 90.000000
_cell_angle_gamma 90.000000
_cell_volume 3433.102914
_symmetry_space_group_name_H-M "C M M A"
_symmetry_group_IT_number 67
_symmetry_cell_setting 'orthorhombic'
loop_
_space_group_symop_operation_xyz
x,y,z
-x,1/2-y,z
x,-y,-z
-x,1/2+y,-z
-x,-y,-z
x,1/2+y,-z
-x,y,z
x,1/2-y,z
1/2+x,1/2+y,z
1/2-x,-y,z
1/2+x,1/2-y,-z
1/2-x,y,-z
1/2-x,1/2-y,-z
1/2+x,y,-z
1/2-x,1/2+y,z
1/2+x,-y,z
loop_
_atom_site_type_symbol
_atom_site_label
_atom_site_fract_x
_atom_site_fract_y
_atom_site_fract_z
Si Si1 0.164158 0.838527 0.742100
Si Si2 0.658035 0.014079 0.878113
Si Si3 0.807797 0.072224 0.671727
Si Si4 0.090280 0.839726 0.504461
O O1 0.156482 0.750000 0.788085
O O2 0.137817 0.896600 0.842768
O O3 0.254150 0.854006 0.707508
O O4 0.107656 0.853156 0.635924
O O5 0.750000 0.000000 0.891590
O O6 0.634461 0.954234 0.775874
O O7 0.616418 0.000000 0.000000
O O8 0.859670 0.097638 0.566062
O O9 0.750000 0.000000 0.638326
O O10 0.111890 0.750000 0.469980
O O11 0.000000 0.857191 0.481216
#
# Coordination Sequence:
#
# PCOD8279660 Si02
#       4
#    16  16  16  16
#     4   9  17  30  50  72  95 128 166 202 244 296
#     4   8  16  31  47  68  98 125 158 206 250 289
#     4   9  18  31  49  73 101 132 164 203 249 293
#     4  10  20  33  50  74 104 134 165 204 249 298
#
# _framework density 18.642026999999999
#
# number of rings (size 3 to 8) (size 9 to 14) (size 15 to 20)
#    0.000    3.500    0.000    1.500    0.000   10.000 
#    0.000   21.250    0.000    3.000    0.000    3.500 
#    0.000    0.000    0.000    0.000    0.000    0.000 
#
# Total GULP energy -396481.575206 kJ/mol
# GULP energy per Si atom -12390.049225 kJ/mol
# Density = 1.859960 g / cm^3
# Si number density = 18.642027 Si / 1000 Ang^3
#
#
#
# Elastic Constant Matrix: (Units=GPa)
#
#
# Indices 1 2 3 4 5 6 
#
# 1 43.2373 34.4990 33.5753 0.0000 0.0000 0.0000
# 2 34.4990 116.5844 86.6332 0.0000 0.0000 0.0000
# 3 33.5753 86.6332 119.7164 0.0000 0.0000 0.0000
# 4 0.0000 0.0000 0.0000 24.2667 0.0000 0.0000
# 5 0.0000 0.0000 0.0000 0.0000 0.7139 0.0000
# 6 0.0000 0.0000 0.0000 0.0000 0.0000 18.4816
#
#
#
# Elastic Compliance Matrix: (Units=1/GPa)
#
#
# Indices 1 2 3 4 5 6 
#
# 1 0.031358 -0.005936 -0.004499 0.000000 0.000000 0.000000
# 2 -0.005936 0.019679 -0.012576 0.000000 0.000000 0.000000
# 3 -0.004499 -0.012576 0.018716 0.000000 0.000000 0.000000
# 4 0.000000 0.000000 0.000000 0.041209 0.000000 0.000000
# 5 0.000000 0.000000 0.000000 0.000000 1.400799 0.000000
# 6 0.000000 0.000000 0.000000 0.000000 0.000000 0.054108
#
#
# Mechanical properties :
#
#
# Convention : Reuss Voigt Hill
#
# Bulk Modulus (GPa) = 42.13966 65.43924 53.78945
# Shear Modulus (GPa) = 3.08680 17.01446 10.05063
#
# Velocity S-wave (km/s) = 1.28819 3.02436 2.32445
# Velocity P-wave (km/s) = 4.98661 6.88295 6.01004
#
# Compressibility (1/GPa) = 0.02373061
#
# Stress axis : x y z
#
# Youngs Moduli (GPa) = 31.88954 50.81456 53.43141
#
# Poissons Ratio (x) = 0.30165 0.24038
# Poissons Ratio (y) = 0.18931 0.67196
# Poissons Ratio (z) = 0.14347 0.63905
#
# Static dielectric constant tensor:
#      x y z
#    x 3.053630 0.000000 0.000000 
#    y 0.000000 3.594360 0.000000 
#    z 0.000000 0.000000 4.010300 
# 
# 
# High freq. dielectric constant tensor:
#      x y z
#    x 1.677270 0.000000 0.000000 
#    y 0.000000 1.728810 0.000000 
#    z 0.000000 0.000000 1.719880 
# 
# From -- ./inp_files/19087.got.cif
#   From: 2010.03.12/outbox.cif.g09.slc.cpg/sg67_10_cif.got.tgz:19087.got - 2010.04.10 22:41:39.
