data_PCOD8279411
_publ_section_title
;
Structure prediction by ZEFSAII (Michael W. Deem and Ramdas Pophale) SiO2 
 PCOD8279411
Probable space group: C M M A
;
_chemical_formula_sum "Si O2"
_cell_formula_units_Z 96
_cell_length_a 20.573153
_cell_length_b 16.030242
_cell_length_c 14.232193
_cell_angle_alpha 90.000000
_cell_angle_beta 90.000000
_cell_angle_gamma 90.000000
_cell_volume 4693.672236
_symmetry_space_group_name_H-M "C M M A"
_symmetry_group_IT_number 67
_symmetry_cell_setting 'orthorhombic'
loop_
_space_group_symop_operation_xyz
x,y,z
-x,1/2-y,z
x,-y,-z
-x,1/2+y,-z
-x,-y,-z
x,1/2+y,-z
-x,y,z
x,1/2-y,z
1/2+x,1/2+y,z
1/2-x,-y,z
1/2+x,1/2-y,-z
1/2-x,y,-z
1/2-x,1/2-y,-z
1/2+x,y,-z
1/2-x,1/2+y,z
1/2+x,-y,z
loop_
_atom_site_type_symbol
_atom_site_label
_atom_site_fract_x
_atom_site_fract_y
_atom_site_fract_z
Si Si1 0.313425 0.091546 0.043788
Si Si2 0.875129 0.152552 0.264370
Si Si3 0.807583 0.154946 0.561842
Si Si4 0.277166 0.846889 0.761779
Si Si5 0.429206 0.652725 0.068762
Si Si6 0.574654 0.590892 0.456337
O O1 0.305561 0.094322 0.156041
O O2 0.250000 0.138417 0.000000
O O3 0.380074 0.135880 0.016045
O O4 0.315711 0.000000 0.000000
O O5 0.892023 0.250000 0.282981
O O6 0.798772 0.139734 0.254793
O O7 0.905557 0.116130 0.168345
O O8 0.905247 0.096071 0.347231
O O9 0.785643 0.250000 0.575845
O O10 0.750000 0.111100 0.500000
O O11 0.811779 0.118455 0.667296
O O12 0.877710 0.151716 0.513299
O O13 0.292808 0.750000 0.785552
O O14 0.500000 0.614613 0.043420
O O15 0.434733 0.750000 0.082962
O O16 0.585962 0.500000 0.500000
O O17 0.500000 0.619399 0.469216
#
# Coordination Sequence:
#
# PCOD8279411 Si02
#       6
#    16  16  16  16  16  16
#     4  11  23  38  57  88 123 160 195 240 299 369
#     4  10  19  36  63  89 114 149 199 259 300 336
#     4  10  20  38  61  88 117 151 202 254 300 352
#     4  10  20  37  63  90 117 152 202 256 300 349
#     4  10  21  37  60  89 117 152 202 253 300 350
#     4  11  24  39  55  85 126 164 198 237 298 365
#
# _framework density 20.453067999999998
#
# number of rings (size 3 to 8) (size 9 to 14) (size 15 to 20)
#    0.000    1.667    3.333    1.500    0.000    4.667 
#    0.000    0.833    0.000    1.000    0.000    0.000 
#    0.000    0.000    0.000    0.000    0.000    0.000 
#
# Total GULP energy -595012.807689 kJ/mol
# GULP energy per Si atom -12396.100160 kJ/mol
# Density = 2.040652 g / cm^3
# Si number density = 20.453068 Si / 1000 Ang^3
#
#
#
# Elastic Constant Matrix: (Units=GPa)
#
#
# Indices 1 2 3 4 5 6 
#
# 1 146.1125 13.1985 68.8131 0.0000 0.0000 0.0000
# 2 13.1985 37.1960 26.9111 0.0000 0.0000 0.0000
# 3 68.8131 26.9111 172.8165 0.0000 0.0000 0.0000
# 4 0.0000 0.0000 0.0000 26.7312 0.0000 0.0000
# 5 0.0000 0.0000 0.0000 0.0000 19.8976 0.0000
# 6 0.0000 0.0000 0.0000 0.0000 0.0000 17.7880
#
#
#
# Elastic Compliance Matrix: (Units=1/GPa)
#
#
# Indices 1 2 3 4 5 6 
#
# 1 0.008437 -0.000635 -0.003261 0.000000 0.000000 0.000000
# 2 -0.000635 0.030346 -0.004473 0.000000 0.000000 0.000000
# 3 -0.003261 -0.004473 0.007781 0.000000 0.000000 0.000000
# 4 0.000000 0.000000 0.000000 0.037409 0.000000 0.000000
# 5 0.000000 0.000000 0.000000 0.000000 0.050257 0.000000
# 6 0.000000 0.000000 0.000000 0.000000 0.000000 0.056218
#
#
# Mechanical properties :
#
#
# Convention : Reuss Voigt Hill
#
# Bulk Modulus (GPa) = 33.52555 63.77450 48.65002
# Shear Modulus (GPa) = 23.02795 29.36352 26.19574
#
# Velocity S-wave (km/s) = 3.35907 3.79311 3.58267
# Velocity P-wave (km/s) = 5.60995 7.10156 6.39936
#
# Compressibility (1/GPa) = 0.02982800
#
# Stress axis : x y z
#
# Youngs Moduli (GPa) = 118.52525 32.95341 128.51265
#
# Poissons Ratio (x) = 0.02092 0.41904
# Poissons Ratio (y) = 0.07523 0.57480
# Poissons Ratio (z) = 0.38647 0.14739
#
# Static dielectric constant tensor:
#      x y z
#    x 4.128350 0.000000 0.000000 
#    y 0.000000 3.373310 0.000000 
#    z 0.000000 0.000000 3.901500 
# 
# 
# High freq. dielectric constant tensor:
#      x y z
#    x 1.801700 0.000000 0.000000 
#    y 0.000000 1.767170 0.000000 
#    z 0.000000 0.000000 1.811260 
# 
# From -- ./inp_files/29260.got.cif
#   From: 2010.03.12/outbox.cif.g09.slc.cpg/sg67_15_cif.got.tgz:29260.got - 2010.04.10 22:41:39.
