data_PCOD8279808
_publ_section_title
;
Structure prediction by ZEFSAII (Michael W. Deem and Ramdas Pophale) SiO2 
 PCOD8279808
Probable space group: C M M A
;
_chemical_formula_sum "Si O2"
_cell_formula_units_Z 112
_cell_length_a 20.970699
_cell_length_b 18.564124
_cell_length_c 14.794212
_cell_angle_alpha 90.000000
_cell_angle_beta 90.000000
_cell_angle_gamma 90.000000
_cell_volume 5759.426034
_symmetry_space_group_name_H-M "C M M A"
_symmetry_group_IT_number 67
_symmetry_cell_setting 'orthorhombic'
loop_
_space_group_symop_operation_xyz
x,y,z
-x,1/2-y,z
x,-y,-z
-x,1/2+y,-z
-x,-y,-z
x,1/2+y,-z
-x,y,z
x,1/2-y,z
1/2+x,1/2+y,z
1/2-x,-y,z
1/2+x,1/2-y,-z
1/2-x,y,-z
1/2-x,1/2-y,-z
1/2+x,y,-z
1/2-x,1/2+y,z
1/2+x,-y,z
loop_
_atom_site_type_symbol
_atom_site_label
_atom_site_fract_x
_atom_site_fract_y
_atom_site_fract_z
Si Si1 0.571146 0.952480 0.578797
Si Si2 0.192303 0.057812 0.198084
Si Si3 0.159711 0.670092 0.446755
Si Si4 0.070938 0.969176 0.215280
Si Si5 0.290613 0.832454 0.357965
Si Si6 0.317884 0.671424 0.043748
Si Si7 0.572932 0.167553 0.099461
O O1 0.500000 0.938595 0.545603
O O2 0.602238 0.875671 0.589189
O O3 0.574843 0.985718 0.678044
O O4 0.605300 0.000000 0.500000
O O5 0.187983 0.106765 0.287601
O O6 0.199217 0.111912 0.116471
O O7 0.250000 0.000000 0.204207
O O8 0.126346 0.017923 0.174470
O O9 0.133702 0.750000 0.452164
O O10 0.215093 0.663349 0.372525
O O11 0.179025 0.645452 0.546855
O O12 0.082282 0.885945 0.185181
O O13 0.000000 0.993050 0.181633
O O14 0.309324 0.750000 0.328870
O O15 0.338359 0.750000 0.084537
O O16 0.250000 0.683223 0.000000
O O17 0.375048 0.646012 0.976864
O O18 0.500000 0.160216 0.061726
O O19 0.585404 0.250000 0.131922
#
# Coordination Sequence:
#
# PCOD8279808 Si02
#       7
#    16  16  16  16  16  16  16
#     4  10  20  34  51  74 110 148 176 210 264 326
#     4  12  23  35  56  83 109 142 182 220 265 330
#     4   9  18  33  54  78 102 134 180 229 270 310
#     4  10  22  37  54  81 113 144 179 223 270 312
#     4   9  19  36  55  76 105 139 178 226 272 316
#     4  10  22  39  57  79 109 141 173 219 278 329
#     4   9  19  38  61  81 105 141 184 225 267 321
#
# _framework density 19.446382
#
# number of rings (size 3 to 8) (size 9 to 14) (size 15 to 20)
#    0.000    2.143    0.000    3.857    0.000    3.429 
#    0.000    7.857    0.000    2.143    0.000    0.000 
#    0.000    0.000    0.000    0.000    0.000    0.000 
#
# Total GULP energy -693742.586414 kJ/mol
# GULP energy per Si atom -12388.260472 kJ/mol
# Density = 1.940212 g / cm^3
# Si number density = 19.446382 Si / 1000 Ang^3
#
#
#
# Elastic Constant Matrix: (Units=GPa)
#
#
# Indices 1 2 3 4 5 6 
#
# 1 84.2084 37.2849 10.8148 0.0000 0.0000 0.0000
# 2 37.2849 87.5708 20.2929 0.0000 0.0000 0.0000
# 3 10.8148 20.2929 42.1961 0.0000 0.0000 0.0000
# 4 0.0000 0.0000 0.0000 26.3641 0.0000 0.0000
# 5 0.0000 0.0000 0.0000 0.0000 22.5202 0.0000
# 6 0.0000 0.0000 0.0000 0.0000 0.0000 28.4616
#
#
#
# Elastic Compliance Matrix: (Units=1/GPa)
#
#
# Indices 1 2 3 4 5 6 
#
# 1 0.014661 -0.006045 -0.000850 0.000000 0.000000 0.000000
# 2 -0.006045 0.015344 -0.005830 0.000000 0.000000 0.000000
# 3 -0.000850 -0.005830 0.026721 0.000000 0.000000 0.000000
# 4 0.000000 0.000000 0.000000 0.037930 0.000000 0.000000
# 5 0.000000 0.000000 0.000000 0.000000 0.044404 0.000000
# 6 0.000000 0.000000 0.000000 0.000000 0.000000 0.035135
#
#
# Mechanical properties :
#
#
# Convention : Reuss Voigt Hill
#
# Bulk Modulus (GPa) = 31.97457 38.97339 35.47398
# Shear Modulus (GPa) = 23.80140 25.17471 24.48805
#
# Velocity S-wave (km/s) = 3.50230 3.60192 3.55246
# Velocity P-wave (km/s) = 5.73000 6.11419 5.92521
#
# Compressibility (1/GPa) = 0.03127486
#
# Stress axis : x y z
#
# Youngs Moduli (GPa) = 68.20754 65.17137 37.42437
#
# Poissons Ratio (x) = 0.39397 0.03183
# Poissons Ratio (y) = 0.41233 0.21818
# Poissons Ratio (z) = 0.05800 0.37994
#
# Static dielectric constant tensor:
#      x y z
#    x 3.661410 0.000000 0.000000 
#    y 0.000000 3.683410 0.000000 
#    z 0.000000 0.000000 3.456870 
# 
# 
# High freq. dielectric constant tensor:
#      x y z
#    x 1.759250 0.000000 0.000000 
#    y 0.000000 1.763470 0.000000 
#    z 0.000000 0.000000 1.744770 
# 
# From -- ./inp_files/30187.got.cif
#   From: 2010.03.12/outbox.cif.g09.slc.cpg/sg67_16_cif.got.tgz:30187.got - 2010.04.10 22:41:39.
