data_PCOD8279114
_publ_section_title
;
Structure prediction by ZEFSAII (Michael W. Deem and Ramdas Pophale) SiO2 
 PCOD8279114
Probable space group: C M M A
;
_chemical_formula_sum "Si O2"
_cell_formula_units_Z 80
_cell_length_a 7.865027
_cell_length_b 19.689406
_cell_length_c 29.108309
_cell_angle_alpha 90.000000
_cell_angle_beta 90.000000
_cell_angle_gamma 90.000000
_cell_volume 4507.646068
_symmetry_space_group_name_H-M "C M M A"
_symmetry_group_IT_number 67
_symmetry_cell_setting 'orthorhombic'
loop_
_space_group_symop_operation_xyz
x,y,z
-x,1/2-y,z
x,-y,-z
-x,1/2+y,-z
-x,-y,-z
x,1/2+y,-z
-x,y,z
x,1/2-y,z
1/2+x,1/2+y,z
1/2-x,-y,z
1/2+x,1/2-y,-z
1/2-x,y,-z
1/2-x,1/2-y,-z
1/2+x,y,-z
1/2-x,1/2+y,z
1/2+x,-y,z
loop_
_atom_site_type_symbol
_atom_site_label
_atom_site_fract_x
_atom_site_fract_y
_atom_site_fract_z
Si Si1 0.691425 0.830838 0.950286
Si Si2 0.302042 0.076339 0.448606
Si Si3 0.186990 0.669389 0.274212
Si Si4 0.000000 0.669039 0.888386
Si Si5 0.500000 0.668826 0.215274
Si Si6 0.694009 0.174432 0.629425
O O1 0.500000 0.857399 0.938849
O O2 0.690874 0.750000 0.950472
O O3 0.828376 0.858085 0.913186
O O4 0.750000 0.857983 0.000000
O O5 0.500000 0.085745 0.442007
O O6 0.250000 0.095921 0.500000
O O7 0.208196 0.126802 0.414515
O O8 0.250000 0.000000 0.436655
O O9 0.205917 0.750000 0.275313
O O10 0.331626 0.639621 0.240569
O O11 0.207293 0.643254 0.326675
O O12 0.000000 0.647327 0.256171
O O13 0.000000 0.640899 0.836578
O O14 0.000000 0.750000 0.889421
O O15 0.500000 0.750000 0.215361
O O16 0.500000 0.179130 0.644963
O O17 0.762410 0.250000 0.616803
#
# Coordination Sequence:
#
# PCOD8279114 Si02
#       6
#    16  16  16   8   8  16
#     4   9  14  20  29  39  54  80 117 161 207 257
#     4  11  22  37  54  73 100 131 160 193 240 291
#     4   9  16  27  43  61  82 109 140 179 228 276
#     4   9  16  22  30  44  62  88 121 161 215 266
#     4   9  16  26  36  52  78 101 129 175 224 275
#     4  10  19  33  53  75  97 124 160 199 239 286
#
# _framework density 17.747620999999999
#
# number of rings (size 3 to 8) (size 9 to 14) (size 15 to 20)
#    0.000    2.400    2.000    3.000    0.000    2.400 
#    0.000    4.000    0.000    0.000    0.000    0.000 
#    0.000    0.000    0.000    0.000    0.000    0.000 
#
# Total GULP energy -495831.062014 kJ/mol
# GULP energy per Si atom -12395.776550 kJ/mol
# Density = 1.770723 g / cm^3
# Si number density = 17.747621 Si / 1000 Ang^3
#
#
#
# Elastic Constant Matrix: (Units=GPa)
#
#
# Indices 1 2 3 4 5 6 
#
# 1 148.5869 14.0290 64.6760 0.0000 0.0000 0.0000
# 2 14.0290 20.3752 35.1113 0.0000 0.0000 0.0000
# 3 64.6760 35.1113 142.6713 0.0000 0.0000 0.0000
# 4 0.0000 0.0000 0.0000 1.1560 0.0000 0.0000
# 5 0.0000 0.0000 0.0000 0.0000 27.1921 0.0000
# 6 0.0000 0.0000 0.0000 0.0000 0.0000 10.7347
#
#
#
# Elastic Compliance Matrix: (Units=1/GPa)
#
#
# Indices 1 2 3 4 5 6 
#
# 1 0.008406 0.001352 -0.004143 0.000000 0.000000 0.000000
# 2 0.001352 0.085438 -0.021639 0.000000 0.000000 0.000000
# 3 -0.004143 -0.021639 0.014213 0.000000 0.000000 0.000000
# 4 0.000000 0.000000 0.000000 0.865082 0.000000 0.000000
# 5 0.000000 0.000000 0.000000 0.000000 0.036775 0.000000
# 6 0.000000 0.000000 0.000000 0.000000 0.000000 0.093156
#
#
# Mechanical properties :
#
#
# Convention : Reuss Voigt Hill
#
# Bulk Modulus (GPa) = 16.89306 59.91843 38.40574
# Shear Modulus (GPa) = 4.26744 21.00434 12.63589
#
# Velocity S-wave (km/s) = 1.55233 3.44394 2.67118
# Velocity P-wave (km/s) = 3.57101 7.04620 5.58575
#
# Compressibility (1/GPa) = 0.05919592
#
# Stress axis : x y z
#
# Youngs Moduli (GPa) = 118.96411 11.70443 70.35924
#
# Poissons Ratio (x) = -0.01583 0.29152
# Poissons Ratio (y) = -0.16087 1.52251
# Poissons Ratio (z) = 0.49291 0.25327
#
# Static dielectric constant tensor:
#      x y z
#    x 3.616440 0.000000 0.000000 
#    y 0.000000 2.570610 0.000000 
#    z 0.000000 0.000000 3.312390 
# 
# 
# High freq. dielectric constant tensor:
#      x y z
#    x 1.711900 0.000000 0.000000 
#    y 0.000000 1.599590 0.000000 
#    z 0.000000 0.000000 1.688470 
# 
# From -- ./inp_files/43403.got.cif
#   From: 2010.03.12/outbox.cif.g09.slc.cpg/sg67_22_cif.got.tgz:43403.got - 2010.04.10 22:41:39.
