data_PCOD8279323
_publ_section_title
;
Structure prediction by ZEFSAII (Michael W. Deem and Ramdas Pophale) SiO2 
 PCOD8279323
Probable space group: C M M A
;
_chemical_formula_sum "Si O2"
_cell_formula_units_Z 112
_cell_length_a 19.991178
_cell_length_b 18.066262
_cell_length_c 16.994999
_cell_angle_alpha 90.000000
_cell_angle_beta 90.000000
_cell_angle_gamma 90.000000
_cell_volume 6138.013420
_symmetry_space_group_name_H-M "C M M A"
_symmetry_group_IT_number 67
_symmetry_cell_setting 'orthorhombic'
loop_
_space_group_symop_operation_xyz
x,y,z
-x,1/2-y,z
x,-y,-z
-x,1/2+y,-z
-x,-y,-z
x,1/2+y,-z
-x,y,z
x,1/2-y,z
1/2+x,1/2+y,z
1/2-x,-y,z
1/2+x,1/2-y,-z
1/2-x,y,-z
1/2-x,1/2-y,-z
1/2+x,y,-z
1/2-x,1/2+y,z
1/2+x,-y,z
loop_
_atom_site_type_symbol
_atom_site_label
_atom_site_fract_x
_atom_site_fract_y
_atom_site_fract_z
Si Si1 0.315797 0.080981 0.462365
Si Si2 0.607870 0.167940 0.724297
Si Si3 0.424802 0.664176 0.451021
Si Si4 0.762868 0.666326 0.824628
Si Si5 0.074519 0.978086 0.796066
Si Si6 0.313257 0.962642 0.085417
Si Si7 0.191469 0.441348 0.719831
O O1 0.250000 0.119548 0.500000
O O2 0.382861 0.125152 0.481194
O O3 0.306616 0.085094 0.369287
O O4 0.322574 0.000000 0.500000
O O5 0.576003 0.250000 0.737013
O O6 0.609635 0.147752 0.632561
O O7 0.683235 0.165912 0.754881
O O8 0.564510 0.107165 0.770202
O O9 0.500000 0.631883 0.450400
O O10 0.426098 0.750000 0.470765
O O11 0.743598 0.750000 0.850171
O O12 0.794601 0.624793 0.902506
O O13 0.699647 0.625546 0.783645
O O14 0.115139 0.981903 0.877922
O O15 0.000000 0.012385 0.806649
O O16 0.118168 0.022369 0.732205
O O17 0.250000 0.000000 0.131117
O O18 0.314816 0.000000 0.000000
O O19 0.250000 0.500000 0.734148
#
# Coordination Sequence:
#
# PCOD8279323 Si02
#       7
#    16  16  16  16  16  16  16
#     4  11  22  33  52  76 106 145 190 241 291 325
#     4   9  17  31  53  81 112 144 184 235 286 330
#     4  10  21  36  51  72 108 150 188 230 284 341
#     4  10  19  34  60  89 110 139 185 232 275 324
#     4  11  21  33  55  84 111 146 184 219 271 334
#     4  10  19  37  62  83 115 146 171 217 271 323
#     4  12  19  37  57  76 112 146 190 239 278 326
#
# _framework density 18.246945
#
# number of rings (size 3 to 8) (size 9 to 14) (size 15 to 20)
#    0.000    1.571    5.714    2.143    0.000    2.857 
#    0.000    1.429    0.000    0.429    0.000    0.000 
#    0.000    0.000    0.000    0.000    0.000    0.000 
#
# Total GULP energy -693818.955687 kJ/mol
# GULP energy per Si atom -12389.624209 kJ/mol
# Density = 1.820541 g / cm^3
# Si number density = 18.246945 Si / 1000 Ang^3
#
#
#
# Elastic Constant Matrix: (Units=GPa)
#
#
# Indices 1 2 3 4 5 6 
#
# 1 124.7140 41.6220 32.0720 0.0000 0.0000 0.0000
# 2 41.6220 84.0920 49.2497 0.0000 0.0000 0.0000
# 3 32.0720 49.2497 115.9443 0.0000 0.0000 0.0000
# 4 0.0000 0.0000 0.0000 24.1909 0.0000 0.0000
# 5 0.0000 0.0000 0.0000 0.0000 10.3719 0.0000
# 6 0.0000 0.0000 0.0000 0.0000 0.0000 19.5818
#
#
#
# Elastic Compliance Matrix: (Units=1/GPa)
#
#
# Indices 1 2 3 4 5 6 
#
# 1 0.009668 -0.004285 -0.000854 0.000000 0.000000 0.000000
# 2 -0.004285 0.017729 -0.006345 0.000000 0.000000 0.000000
# 3 -0.000854 -0.006345 0.011556 0.000000 0.000000 0.000000
# 4 0.000000 0.000000 0.000000 0.041338 0.000000 0.000000
# 5 0.000000 0.000000 0.000000 0.000000 0.096414 0.000000
# 6 0.000000 0.000000 0.000000 0.000000 0.000000 0.051068
#
#
# Mechanical properties :
#
#
# Convention : Reuss Voigt Hill
#
# Bulk Modulus (GPa) = 62.56173 63.40417 62.98295
# Shear Modulus (GPa) = 19.52587 24.28271 21.90429
#
# Velocity S-wave (km/s) = 3.27477 3.65195 3.46849
# Velocity P-wave (km/s) = 6.97563 7.25297 7.11565
#
# Compressibility (1/GPa) = 0.01598421
#
# Stress axis : x y z
#
# Youngs Moduli (GPa) = 103.43297 56.40496 86.53172
#
# Poissons Ratio (x) = 0.24170 0.07391
# Poissons Ratio (y) = 0.44321 0.54908
# Poissons Ratio (z) = 0.08835 0.35791
#
# Static dielectric constant tensor:
#      x y z
#    x 3.456340 0.000000 0.000000 
#    y 0.000000 3.509400 0.000000 
#    z 0.000000 0.000000 3.188410 
# 
# 
# High freq. dielectric constant tensor:
#      x y z
#    x 1.699400 0.000000 0.000000 
#    y 0.000000 1.697000 0.000000 
#    z 0.000000 0.000000 1.696940 
# 
# From -- ./inp_files/35131.got.cif
#   From: 2010.03.12/outbox.cif.g09.slc.cpg/sg67_18_cif.got.tgz:35131.got - 2010.04.10 22:41:39.
