data_PCOD8279771
_publ_section_title
;
Structure prediction by ZEFSAII (Michael W. Deem and Ramdas Pophale) SiO2 
 PCOD8279771
Probable space group: C M M A
;
_chemical_formula_sum "Si O2"
_cell_formula_units_Z 52
_cell_length_a 23.636418
_cell_length_b 5.277544
_cell_length_c 20.116741
_cell_angle_alpha 90.000000
_cell_angle_beta 90.000000
_cell_angle_gamma 90.000000
_cell_volume 2509.407253
_symmetry_space_group_name_H-M "C M M A"
_symmetry_group_IT_number 67
_symmetry_cell_setting 'orthorhombic'
loop_
_space_group_symop_operation_xyz
x,y,z
-x,1/2-y,z
x,-y,-z
-x,1/2+y,-z
-x,-y,-z
x,1/2+y,-z
-x,y,z
x,1/2-y,z
1/2+x,1/2+y,z
1/2-x,-y,z
1/2+x,1/2-y,-z
1/2-x,y,-z
1/2-x,1/2-y,-z
1/2+x,y,-z
1/2-x,1/2+y,z
1/2+x,-y,z
loop_
_atom_site_type_symbol
_atom_site_label
_atom_site_fract_x
_atom_site_fract_y
_atom_site_fract_z
Si Si1 0.061764 0.750000 0.713471
Si Si2 0.127191 0.750000 0.038326
Si Si3 0.215407 0.250000 0.689480
Si Si4 0.212935 0.750000 0.156605
Si Si5 0.000000 0.250000 0.543769
Si Si6 0.099056 0.250000 0.648508
Si Si7 0.500000 0.750000 0.923131
Si Si8 0.000000 0.250000 0.160857
O O1 0.092886 0.497838 0.692989
O O2 0.056243 0.750000 0.793354
O O3 0.000000 0.750000 0.678281
O O4 0.155927 0.750000 0.111449
O O5 0.058305 0.750000 0.035828
O O6 0.148554 0.500000 0.000000
O O7 0.250000 0.500000 0.674425
O O8 0.193544 0.250000 0.766117
O O9 0.165618 0.250000 0.633601
O O10 0.250000 0.500000 0.141011
O O11 0.000000 0.500000 0.500000
O O12 0.942285 0.250000 0.585884
O O13 0.500000 0.499386 0.880861
#
# Coordination Sequence:
#
# PCOD8279771 Si02
#       8
#     8   8   8   8   4   8   4   4
#     4  10  20  33  57  94 131 152 205 249 320 385
#     4  12  26  43  63  83 117 165 206 255 316 383
#     4  10  23  42  64  95 128 169 208 262 328 382
#     4  10  23  41  63  92 118 148 206 267 316 369
#     4  12  24  40  66 100 140 176 222 260 310 352
#     4  12  21  41  65  93 139 173 206 264 314 379
#     4  12  24  42  58  84 121 155 206 250 310 388
#     4  10  22  34  56  90 119 151 194 244 312 378
#
# _framework density 20.722024000000001
#
# number of rings (size 3 to 8) (size 9 to 14) (size 15 to 20)
#    0.462    0.615    1.538    5.077    4.308    1.846 
#    0.000    0.000    0.000    2.769    0.000    0.000 
#    0.000    0.000    0.000    0.000    0.000    0.000 
#
# Total GULP energy -322195.096778 kJ/mol
# GULP energy per Si atom -12392.119107 kJ/mol
# Density = 2.067486 g / cm^3
# Si number density = 20.722024 Si / 1000 Ang^3
#
#
#
# Elastic Constant Matrix: (Units=GPa)
#
#
# Indices 1 2 3 4 5 6 
#
# 1 138.8841 42.6923 44.4152 0.0000 0.0000 0.0000
# 2 42.6923 215.4480 48.9377 0.0000 0.0000 0.0000
# 3 44.4152 48.9377 78.9766 0.0000 0.0000 0.0000
# 4 0.0000 0.0000 0.0000 22.0363 0.0000 0.0000
# 5 0.0000 0.0000 0.0000 0.0000 3.4755 0.0000
# 6 0.0000 0.0000 0.0000 0.0000 0.0000 35.2771
#
#
#
# Elastic Compliance Matrix: (Units=1/GPa)
#
#
# Indices 1 2 3 4 5 6 
#
# 1 0.008876 -0.000727 -0.004541 0.000000 0.000000 0.000000
# 2 -0.000727 0.005461 -0.002975 0.000000 0.000000 0.000000
# 3 -0.004541 -0.002975 0.017059 0.000000 0.000000 0.000000
# 4 0.000000 0.000000 0.000000 0.045380 0.000000 0.000000
# 5 0.000000 0.000000 0.000000 0.000000 0.287726 0.000000
# 6 0.000000 0.000000 0.000000 0.000000 0.000000 0.028347
#
#
# Mechanical properties :
#
#
# Convention : Reuss Voigt Hill
#
# Bulk Modulus (GPa) = 67.07017 78.37769 72.72393
# Shear Modulus (GPa) = 12.06836 31.97536 22.02186
#
# Velocity S-wave (km/s) = 2.41590 3.93244 3.26349
# Velocity P-wave (km/s) = 6.34184 7.65012 7.02650
#
# Compressibility (1/GPa) = 0.01490976
#
# Stress axis : x y z
#
# Youngs Moduli (GPa) = 112.66251 183.10339 58.61905
#
# Poissons Ratio (x) = 0.13318 0.26619
# Poissons Ratio (y) = 0.08195 0.17440
# Poissons Ratio (z) = 0.51161 0.54475
#
# Static dielectric constant tensor:
#      x y z
#    x 3.873280 0.000000 0.000000 
#    y 0.000000 4.045610 0.000000 
#    z 0.000000 0.000000 3.502210 
# 
# 
# High freq. dielectric constant tensor:
#      x y z
#    x 1.809130 0.000000 0.000000 
#    y 0.000000 1.847440 0.000000 
#    z 0.000000 0.000000 1.778400 
# 
# From -- ./inp_files/39200.got.cif
#   From: 2010.03.12/outbox.cif.g09.slc.cpg/sg67_20_cif.got.tgz:39200.got - 2010.04.10 22:41:39.
