data_PCOD8279967
_publ_section_title
;
Structure prediction by ZEFSAII (Michael W. Deem and Ramdas Pophale) SiO2 
 PCOD8279967
Probable space group: C M M A
;
_chemical_formula_sum "Si O2"
_cell_formula_units_Z 96
_cell_length_a 28.589783
_cell_length_b 9.033778
_cell_length_c 20.632809
_cell_angle_alpha 90.000000
_cell_angle_beta 90.000000
_cell_angle_gamma 90.000000
_cell_volume 5328.913009
_symmetry_space_group_name_H-M "C M M A"
_symmetry_group_IT_number 67
_symmetry_cell_setting 'orthorhombic'
loop_
_space_group_symop_operation_xyz
x,y,z
-x,1/2-y,z
x,-y,-z
-x,1/2+y,-z
-x,-y,-z
x,1/2+y,-z
-x,y,z
x,1/2-y,z
1/2+x,1/2+y,z
1/2-x,-y,z
1/2+x,1/2-y,-z
1/2-x,y,-z
1/2-x,1/2-y,-z
1/2+x,y,-z
1/2-x,1/2+y,z
1/2+x,-y,z
loop_
_atom_site_type_symbol
_atom_site_label
_atom_site_fract_x
_atom_site_fract_y
_atom_site_fract_z
Si Si1 0.639946 0.924243 0.064434
Si Si2 0.799916 0.924835 0.811565
Si Si3 0.053202 0.921495 0.118062
Si Si4 0.052077 0.076532 0.733064
Si Si5 0.859280 0.077161 0.310397
Si Si6 0.201003 0.425466 0.434335
O O1 0.639698 0.750000 0.054749
O O2 0.671957 0.973209 0.124547
O O3 0.586908 0.978676 0.074646
O O4 0.660845 0.000000 0.000000
O O5 0.792780 0.750000 0.807972
O O6 0.828047 0.984215 0.748941
O O7 0.750000 0.000000 0.813010
O O8 0.066507 0.750000 0.108911
O O9 0.059538 0.969856 0.192506
O O10 0.000000 0.950372 0.095756
O O11 0.058671 0.250000 0.724946
O O12 0.000000 0.029205 0.710538
O O13 0.089727 0.995734 0.688326
O O14 0.866410 0.250000 0.301375
O O15 0.835190 0.036864 0.377930
O O16 0.181532 0.500000 0.500000
O O17 0.207863 0.250000 0.443713
O O18 0.250000 0.500000 0.415378
#
# Coordination Sequence:
#
# PCOD8279967 Si02
#       6
#    16  16  16  16  16  16
#     4  11  23  38  55  75 103 137 176 219 266 320
#     4  10  22  38  55  77 103 133 174 219 264 313
#     4   9  18  34  55  79 106 135 171 214 263 319
#     4   9  18  32  53  82 111 139 173 215 263 315
#     4  10  20  35  55  82 111 140 177 219 262 311
#     4  10  20  34  54  80 114 148 182 220 261 314
#
# _framework density 18.01493
#
# number of rings (size 3 to 8) (size 9 to 14) (size 15 to 20)
#    0.000    2.167    1.667    3.000    0.000    4.667 
#    0.000    3.333    0.000    0.500    0.000    0.000 
#    0.000    0.000    0.000    0.000    0.000    0.000 
#
# Total GULP energy -595295.561668 kJ/mol
# GULP energy per Si atom -12401.990868 kJ/mol
# Density = 1.797393 g / cm^3
# Si number density = 18.014930 Si / 1000 Ang^3
#
#
#
# Elastic Constant Matrix: (Units=GPa)
#
#
# Indices 1 2 3 4 5 6 
#
# 1 128.2020 47.5437 72.4245 0.0000 0.0000 0.0000
# 2 47.5437 59.1326 51.0539 0.0000 0.0000 0.0000
# 3 72.4245 51.0539 122.4525 0.0000 0.0000 0.0000
# 4 0.0000 0.0000 0.0000 28.8480 0.0000 0.0000
# 5 0.0000 0.0000 0.0000 0.0000 25.6235 0.0000
# 6 0.0000 0.0000 0.0000 0.0000 0.0000 35.0385
#
#
#
# Elastic Compliance Matrix: (Units=1/GPa)
#
#
# Indices 1 2 3 4 5 6 
#
# 1 0.012917 -0.005921 -0.005171 0.000000 0.000000 0.000000
# 2 -0.005921 0.029136 -0.008646 0.000000 0.000000 0.000000
# 3 -0.005171 -0.008646 0.014830 0.000000 0.000000 0.000000
# 4 0.000000 0.000000 0.000000 0.034664 0.000000 0.000000
# 5 0.000000 0.000000 0.000000 0.000000 0.039027 0.000000
# 6 0.000000 0.000000 0.000000 0.000000 0.000000 0.028540
#
#
# Mechanical properties :
#
#
# Convention : Reuss Voigt Hill
#
# Bulk Modulus (GPa) = 57.44762 72.42569 64.93666
# Shear Modulus (GPa) = 24.46263 27.15299 25.80781
#
# Velocity S-wave (km/s) = 3.68898 3.88654 3.78905
# Velocity P-wave (km/s) = 7.07834 7.77372 7.43416
#
# Compressibility (1/GPa) = 0.01740716
#
# Stress axis : x y z
#
# Youngs Moduli (GPa) = 77.41477 34.32142 67.43212
#
# Poissons Ratio (x) = 0.20322 0.34872
# Poissons Ratio (y) = 0.45837 0.58300
# Poissons Ratio (z) = 0.40034 0.29674
#
# Static dielectric constant tensor:
#      x y z
#    x 3.314300 0.000000 0.000000 
#    y 0.000000 3.245000 0.000000 
#    z 0.000000 0.000000 3.347190 
# 
# 
# High freq. dielectric constant tensor:
#      x y z
#    x 1.698040 0.000000 0.000000 
#    y 0.000000 1.696690 0.000000 
#    z 0.000000 0.000000 1.689390 
# 
# From -- ./inp_files/37150.got.cif
#   From: 2010.03.12/outbox.cif.g09.slc.cpg/sg67_19_cif.got.tgz:37150.got - 2010.04.10 22:41:39.
