data_PCOD8279493
_publ_section_title
;
Structure prediction by ZEFSAII (Michael W. Deem and Ramdas Pophale) SiO2 
 PCOD8279493
Probable space group: C M M A
;
_chemical_formula_sum "Si O2"
_cell_formula_units_Z 112
_cell_length_a 9.600294
_cell_length_b 29.491315
_cell_length_c 22.969859
_cell_angle_alpha 90.000000
_cell_angle_beta 90.000000
_cell_angle_gamma 90.000000
_cell_volume 6503.348093
_symmetry_space_group_name_H-M "C M M A"
_symmetry_group_IT_number 67
_symmetry_cell_setting 'orthorhombic'
loop_
_space_group_symop_operation_xyz
x,y,z
-x,1/2-y,z
x,-y,-z
-x,1/2+y,-z
-x,-y,-z
x,1/2+y,-z
-x,y,z
x,1/2-y,z
1/2+x,1/2+y,z
1/2-x,-y,z
1/2+x,1/2-y,-z
1/2-x,y,-z
1/2-x,1/2-y,-z
1/2+x,y,-z
1/2-x,1/2+y,z
1/2+x,-y,z
loop_
_atom_site_type_symbol
_atom_site_label
_atom_site_fract_x
_atom_site_fract_y
_atom_site_fract_z
Si Si1 0.662150 0.697973 0.443058
Si Si2 0.165150 0.639160 0.664887
Si Si3 0.834434 0.799459 0.895763
Si Si4 0.837649 0.301091 0.232892
Si Si5 0.659711 0.957519 0.156966
Si Si6 0.837997 0.956342 0.709563
Si Si7 0.162189 0.108507 0.053389
O O1 0.500000 0.689672 0.456877
O O2 0.686348 0.750000 0.422676
O O3 0.750000 0.686639 0.500000
O O4 0.718437 0.663195 0.393938
O O5 0.232217 0.665157 0.720317
O O6 0.207130 0.586100 0.668956
O O7 0.000000 0.644463 0.667545
O O8 0.784054 0.750000 0.919164
O O9 0.771181 0.807877 0.831171
O O10 0.786836 0.839447 0.938643
O O11 0.000000 0.799824 0.890136
O O12 0.813460 0.250000 0.255087
O O13 0.000000 0.312423 0.228524
O O14 0.500000 0.972123 0.150961
O O15 0.693600 0.943021 0.223257
O O16 0.695874 0.916503 0.113831
O O17 0.750000 0.000000 0.137003
O O18 0.000000 0.968087 0.701164
O O19 0.750000 0.000000 0.689889
O O20 0.000000 0.104718 0.037510
O O21 0.250000 0.087473 0.000000
#
# Coordination Sequence:
#
# PCOD8279493 Si02
#       7
#    16  16  16  16  16  16  16
#     4   9  17  29  45  67  96 127 156 184 214 252
#     4   9  15  24  42  66  91 118 147 181 220 259
#     4   8  14  25  41  61  86 113 139 172 216 262
#     4   8  12  19  36  64  91 110 134 174 221 263
#     4   9  18  32  49  67  88 113 140 175 221 269
#     4   9  17  30  48  69  91 114 142 179 223 267
#     4  10  20  32  45  63  86 112 144 179 214 255
#
# _framework density 17.221897999999999
#
# number of rings (size 3 to 8) (size 9 to 14) (size 15 to 20)
#    0.000    3.143    0.000    2.143    0.000    6.286 
#    0.000    2.143    0.000    0.429    0.000    4.000 
#    0.000    2.286    0.000    0.000    0.000    0.000 
#
# Total GULP energy -694019.664595 kJ/mol
# GULP energy per Si atom -12393.208296 kJ/mol
# Density = 1.718270 g / cm^3
# Si number density = 17.221898 Si / 1000 Ang^3
#
#
#
# Elastic Constant Matrix: (Units=GPa)
#
#
# Indices 1 2 3 4 5 6 
#
# 1 30.8211 34.3270 28.9015 0.0000 0.0000 0.0000
# 2 34.3270 103.3055 53.2589 0.0000 0.0000 0.0000
# 3 28.9015 53.2589 80.4077 0.0000 0.0000 0.0000
# 4 0.0000 0.0000 0.0000 22.2868 0.0000 0.0000
# 5 0.0000 0.0000 0.0000 0.0000 19.3950 0.0000
# 6 0.0000 0.0000 0.0000 0.0000 0.0000 19.2407
#
#
#
# Elastic Compliance Matrix: (Units=1/GPa)
#
#
# Indices 1 2 3 4 5 6 
#
# 1 0.058672 -0.013095 -0.012415 0.000000 0.000000 0.000000
# 2 -0.013095 0.017622 -0.006965 0.000000 0.000000 0.000000
# 3 -0.012415 -0.006965 0.021513 0.000000 0.000000 0.000000
# 4 0.000000 0.000000 0.000000 0.044870 0.000000 0.000000
# 5 0.000000 0.000000 0.000000 0.000000 0.051560 0.000000
# 6 0.000000 0.000000 0.000000 0.000000 0.000000 0.051973
#
#
# Mechanical properties :
#
#
# Convention : Reuss Voigt Hill
#
# Bulk Modulus (GPa) = 30.43628 49.72324 40.07976
# Shear Modulus (GPa) = 15.52248 18.72097 17.12172
#
# Velocity S-wave (km/s) = 3.00546 3.30061 3.15649
# Velocity P-wave (km/s) = 5.45482 6.59243 6.05042
#
# Compressibility (1/GPa) = 0.03285552
#
# Stress axis : x y z
#
# Youngs Moduli (GPa) = 17.04383 56.74567 46.48416
#
# Poissons Ratio (x) = 0.74311 0.57710
# Poissons Ratio (y) = 0.22320 0.32378
# Poissons Ratio (z) = 0.21160 0.39526
#
# Static dielectric constant tensor:
#      x y z
#    x 2.764090 0.000000 0.000000 
#    y 0.000000 3.385090 0.000000 
#    z 0.000000 0.000000 3.219380 
# 
# 
# High freq. dielectric constant tensor:
#      x y z
#    x 1.611300 0.000000 0.000000 
#    y 0.000000 1.669590 0.000000 
#    z 0.000000 0.000000 1.654690 
# 
# From -- ./inp_files/38015.got.cif
#   From: 2010.03.12/outbox.cif.g09.slc.cpg/sg67_20_cif.got.tgz:38015.got - 2010.04.10 22:41:39.
