data_PCOD8279584
_publ_section_title
;
Structure prediction by ZEFSAII (Michael W. Deem and Ramdas Pophale) SiO2 
 PCOD8279584
Probable space group: C M M A
;
_chemical_formula_sum "Si O2"
_cell_formula_units_Z 68
_cell_length_a 29.620016
_cell_length_b 18.878118
_cell_length_c 6.822716
_cell_angle_alpha 90.000000
_cell_angle_beta 90.000000
_cell_angle_gamma 90.000000
_cell_volume 3815.059178
_symmetry_space_group_name_H-M "C M M A"
_symmetry_group_IT_number 67
_symmetry_cell_setting 'orthorhombic'
loop_
_space_group_symop_operation_xyz
x,y,z
-x,1/2-y,z
x,-y,-z
-x,1/2+y,-z
-x,-y,-z
x,1/2+y,-z
-x,y,z
x,1/2-y,z
1/2+x,1/2+y,z
1/2-x,-y,z
1/2+x,1/2-y,-z
1/2-x,y,-z
1/2-x,1/2-y,-z
1/2+x,y,-z
1/2-x,1/2+y,z
1/2+x,-y,z
loop_
_atom_site_type_symbol
_atom_site_label
_atom_site_fract_x
_atom_site_fract_y
_atom_site_fract_z
Si Si1 0.550308 0.073014 0.911991
Si Si2 0.887950 0.917851 0.555859
Si Si3 0.710642 0.070701 0.623819
Si Si4 0.949803 0.332268 0.721806
Si Si5 0.750000 0.000000 0.000000
O O1 0.500000 0.057119 0.830284
O O2 0.582159 0.099076 0.741826
O O3 0.549193 0.137795 0.060452
O O4 0.570119 0.000000 0.000000
O O5 0.837394 0.889843 0.607686
O O6 0.909022 0.871825 0.383823
O O7 0.889703 0.000000 0.500000
O O8 0.750000 0.113222 0.500000
O O9 0.704360 0.000000 0.500000
O O10 0.721305 0.051582 0.853366
O O11 0.937939 0.250000 0.729012
O O12 0.000000 0.344554 0.626982
#
# Coordination Sequence:
#
# PCOD8279584 Si02
#       5
#    16  16  16  16   4
#     4  10  20  32  50  78 108 138 177 220 260 309
#     4  11  20  31  56  82 105 137 182 221 267 313
#     4   8  17  29  46  75 106 134 170 217 270 317
#     4  10  22  38  53  75 111 147 177 216 264 314
#     4   8  14  28  44  66 108 140 158 212 280 312
#
# _framework density 17.824100000000001
#
# number of rings (size 3 to 8) (size 9 to 14) (size 15 to 20)
#    0.000    2.588    2.353    0.706    1.647    3.765 
#    0.000    2.353    0.000    0.706    0.000    2.471 
#    0.000    0.000    0.000    0.000    0.000    0.000 
#
# Total GULP energy -421194.864355 kJ/mol
# GULP energy per Si atom -12388.084246 kJ/mol
# Density = 1.778353 g / cm^3
# Si number density = 17.824100 Si / 1000 Ang^3
#
#
#
# Elastic Constant Matrix: (Units=GPa)
#
#
# Indices 1 2 3 4 5 6 
#
# 1 135.9653 29.9689 56.3613 0.0000 0.0000 0.0000
# 2 29.9689 73.3710 16.9014 0.0000 0.0000 0.0000
# 3 56.3613 16.9014 96.6524 0.0000 0.0000 0.0000
# 4 0.0000 0.0000 0.0000 16.3296 0.0000 0.0000
# 5 0.0000 0.0000 0.0000 0.0000 71.2748 0.0000
# 6 0.0000 0.0000 0.0000 0.0000 0.0000 56.5040
#
#
#
# Elastic Compliance Matrix: (Units=1/GPa)
#
#
# Indices 1 2 3 4 5 6 
#
# 1 0.010272 -0.002934 -0.005477 0.000000 0.000000 0.000000
# 2 -0.002934 0.015039 -0.000919 0.000000 0.000000 0.000000
# 3 -0.005477 -0.000919 0.013701 0.000000 0.000000 0.000000
# 4 0.000000 0.000000 0.000000 0.061238 0.000000 0.000000
# 5 0.000000 0.000000 0.000000 0.000000 0.014030 0.000000
# 6 0.000000 0.000000 0.000000 0.000000 0.000000 0.017698
#
#
# Mechanical properties :
#
#
# Convention : Reuss Voigt Hill
#
# Bulk Modulus (GPa) = 49.13405 56.93909 53.03657
# Shear Modulus (GPa) = 31.76173 42.33882 37.05027
#
# Velocity S-wave (km/s) = 4.22590 4.87906 4.56418
# Velocity P-wave (km/s) = 7.17195 7.98465 7.58919
#
# Compressibility (1/GPa) = 0.02035248
#
# Stress axis : x y z
#
# Youngs Moduli (GPa) = 97.35409 66.49170 72.98868
#
# Poissons Ratio (x) = 0.19509 0.39974
# Poissons Ratio (y) = 0.28564 0.06708
# Poissons Ratio (z) = 0.53319 0.06111
#
# Static dielectric constant tensor:
#      x y z
#    x 4.484580 0.000000 0.000000 
#    y 0.000000 2.892340 0.000000 
#    z 0.000000 0.000000 3.327560 
# 
# 
# High freq. dielectric constant tensor:
#      x y z
#    x 1.701430 0.000000 0.000000 
#    y 0.000000 1.641200 0.000000 
#    z 0.000000 0.000000 1.692530 
# 
# From -- ./inp_files/4637.got.cif
#   From: 2010.03.12/outbox.cif.g09.slc.cpg/sg67_3_cif.got.tgz:4637.got - 2010.04.10 22:41:39.
