data_PCOD8279485
_publ_section_title
;
Structure prediction by ZEFSAII (Michael W. Deem and Ramdas Pophale) SiO2 
 PCOD8279485
Probable space group: C M M A
;
_chemical_formula_sum "Si O2"
_cell_formula_units_Z 88
_cell_length_a 30.507524
_cell_length_b 8.834609
_cell_length_c 17.404287
_cell_angle_alpha 90.000000
_cell_angle_beta 90.000000
_cell_angle_gamma 90.000000
_cell_volume 4690.839043
_symmetry_space_group_name_H-M "C M M A"
_symmetry_group_IT_number 67
_symmetry_cell_setting 'orthorhombic'
loop_
_space_group_symop_operation_xyz
x,y,z
-x,1/2-y,z
x,-y,-z
-x,1/2+y,-z
-x,-y,-z
x,1/2+y,-z
-x,y,z
x,1/2-y,z
1/2+x,1/2+y,z
1/2-x,-y,z
1/2+x,1/2-y,-z
1/2-x,y,-z
1/2-x,1/2-y,-z
1/2+x,y,-z
1/2-x,1/2+y,z
1/2+x,-y,z
loop_
_atom_site_type_symbol
_atom_site_label
_atom_site_fract_x
_atom_site_fract_y
_atom_site_fract_z
Si Si1 0.450234 0.571640 0.082504
Si Si2 0.091961 0.921313 0.365720
Si Si3 0.000000 0.928167 0.418414
Si Si4 0.825774 0.073115 0.422499
Si Si5 0.620741 0.077289 0.193043
Si Si6 0.295510 0.930075 0.255203
O O1 0.500000 0.533147 0.110683
O O2 0.443403 0.750000 0.076817
O O3 0.413747 0.504576 0.138443
O O4 0.441919 0.500000 0.000000
O O5 0.097682 0.750000 0.396627
O O6 0.100758 0.930112 0.276627
O O7 0.042925 0.984267 0.373919
O O8 0.123341 0.027495 0.416166
O O9 0.000000 0.750000 0.425963
O O10 0.000000 0.000000 0.500000
O O11 0.820644 0.250000 0.431343
O O12 0.802646 0.015463 0.343885
O O13 0.804986 0.000000 0.500000
O O14 0.627980 0.250000 0.165596
O O15 0.667442 0.991733 0.196873
O O16 0.294879 0.750000 0.250124
O O17 0.250000 0.000000 0.226307
#
# Coordination Sequence:
#
# PCOD8279485 Si02
#       6
#    16  16   8  16  16  16
#     4  10  21  37  58  87 121 154 187 224 266 317
#     4   9  19  33  49  69  97 134 178 222 268 323
#     4  10  20  32  44  64  93 130 175 222 267 312
#     4  10  20  33  50  71  99 133 174 226 280 333
#     4  10  20  35  58  83 110 145 182 225 275 327
#     4  10  21  37  56  79 108 141 183 231 280 334
#
# _framework density 18.759969999999999
#
# number of rings (size 3 to 8) (size 9 to 14) (size 15 to 20)
#    0.000    2.182    0.000    2.727    1.273    6.545 
#    0.000    1.818    0.000    0.545    0.000    3.818 
#    0.000    0.000    0.000    0.000    0.000    0.000 
#
# Total GULP energy -545497.871937 kJ/mol
# GULP energy per Si atom -12397.678908 kJ/mol
# Density = 1.871727 g / cm^3
# Si number density = 18.759970 Si / 1000 Ang^3
#
#
#
# Elastic Constant Matrix: (Units=GPa)
#
#
# Indices 1 2 3 4 5 6 
#
# 1 140.2337 48.6889 39.8587 0.0000 0.0000 0.0000
# 2 48.6889 87.5488 37.4069 0.0000 0.0000 0.0000
# 3 39.8587 37.4069 60.5662 0.0000 0.0000 0.0000
# 4 0.0000 0.0000 0.0000 32.7956 0.0000 0.0000
# 5 0.0000 0.0000 0.0000 0.0000 20.3000 0.0000
# 6 0.0000 0.0000 0.0000 0.0000 0.0000 32.0010
#
#
#
# Elastic Compliance Matrix: (Units=1/GPa)
#
#
# Indices 1 2 3 4 5 6 
#
# 1 0.009523 -0.003557 -0.004070 0.000000 0.000000 0.000000
# 2 -0.003557 0.016846 -0.008063 0.000000 0.000000 0.000000
# 3 -0.004070 -0.008063 0.024169 0.000000 0.000000 0.000000
# 4 0.000000 0.000000 0.000000 0.030492 0.000000 0.000000
# 5 0.000000 0.000000 0.000000 0.000000 0.049261 0.000000
# 6 0.000000 0.000000 0.000000 0.000000 0.000000 0.031249
#
#
# Mechanical properties :
#
#
# Convention : Reuss Voigt Hill
#
# Bulk Modulus (GPa) = 52.20009 60.02864 56.11437
# Shear Modulus (GPa) = 25.08703 27.84560 26.46632
#
# Velocity S-wave (km/s) = 3.66083 3.85685 3.76012
# Velocity P-wave (km/s) = 6.76421 7.20427 6.98770
#
# Compressibility (1/GPa) = 0.01915705
#
# Stress axis : x y z
#
# Youngs Moduli (GPa) = 105.01153 59.36300 41.37448
#
# Poissons Ratio (x) = 0.21115 0.16840
# Poissons Ratio (y) = 0.37351 0.33362
# Poissons Ratio (z) = 0.42741 0.47866
#
# Static dielectric constant tensor:
#      x y z
#    x 3.622120 0.000000 0.000000 
#    y 0.000000 3.303230 0.000000 
#    z 0.000000 0.000000 3.115530 
# 
# 
# High freq. dielectric constant tensor:
#      x y z
#    x 1.734560 0.000000 0.000000 
#    y 0.000000 1.736220 0.000000 
#    z 0.000000 0.000000 1.706760 
# 
# From -- ./inp_files/32436.got.cif
#   From: 2010.03.12/outbox.cif.g09.slc.cpg/sg67_17_cif.got.tgz:32436.got - 2010.04.10 22:41:39.
