data_PCOD8279871
_publ_section_title
;
Structure prediction by ZEFSAII (Michael W. Deem and Ramdas Pophale) SiO2 
 PCOD8279871
Probable space group: C M M A
;
_chemical_formula_sum "Si O2"
_cell_formula_units_Z 96
_cell_length_a 29.922948
_cell_length_b 8.838332
_cell_length_c 20.082794
_cell_angle_alpha 90.000000
_cell_angle_beta 90.000000
_cell_angle_gamma 90.000000
_cell_volume 5311.275419
_symmetry_space_group_name_H-M "C M M A"
_symmetry_group_IT_number 67
_symmetry_cell_setting 'orthorhombic'
loop_
_space_group_symop_operation_xyz
x,y,z
-x,1/2-y,z
x,-y,-z
-x,1/2+y,-z
-x,-y,-z
x,1/2+y,-z
-x,y,z
x,1/2-y,z
1/2+x,1/2+y,z
1/2-x,-y,z
1/2+x,1/2-y,-z
1/2-x,y,-z
1/2-x,1/2-y,-z
1/2+x,y,-z
1/2-x,1/2+y,z
1/2+x,-y,z
loop_
_atom_site_type_symbol
_atom_site_label
_atom_site_fract_x
_atom_site_fract_y
_atom_site_fract_z
Si Si1 0.110326 0.430844 0.679748
Si Si2 0.792520 0.415535 0.670382
Si Si3 0.552838 0.423290 0.568000
Si Si4 0.793814 0.580829 0.171649
Si Si5 0.947484 0.575108 0.069308
Si Si6 0.613947 0.429542 0.822161
O O1 0.110177 0.250000 0.687463
O O2 0.159082 0.487915 0.653099
O O3 0.072771 0.484722 0.629309
O O4 0.100299 0.502369 0.751108
O O5 0.790323 0.250000 0.638910
O O6 0.750000 0.500000 0.638605
O O7 0.788424 0.410049 0.749501
O O8 0.569632 0.500000 0.500000
O O9 0.500000 0.435078 0.574469
O O10 0.569093 0.250000 0.569259
O O11 0.797761 0.750000 0.141890
O O12 0.750000 0.500000 0.140777
O O13 0.837844 0.486928 0.152509
O O14 0.932515 0.750000 0.069699
O O15 0.923619 0.482937 0.127172
O O16 0.000000 0.558943 0.081442
O O17 0.933151 0.500000 0.000000
O O18 0.614937 0.250000 0.817063
#
# Coordination Sequence:
#
# PCOD8279871 Si02
#       6
#    16  16  16  16  16  16
#     4  10  20  34  52  77 107 137 172 215 260 304
#     4   8  15  26  43  68  98 131 165 202 246 296
#     4  10  21  37  56  77 101 133 172 211 256 313
#     4   9  16  28  46  71 103 137 173 212 256 305
#     4  10  21  38  58  78 102 135 174 215 261 314
#     4  11  21  33  52  79 109 140 175 216 261 307
#
# _framework density 18.074753999999999
#
# number of rings (size 3 to 8) (size 9 to 14) (size 15 to 20)
#    0.000    2.333    0.000    4.500    0.000    7.333 
#    0.000    0.000    0.000    1.000    0.000    7.000 
#    0.000    0.000    0.000    0.000    0.000    0.000 
#
# Total GULP energy -595102.136548 kJ/mol
# GULP energy per Si atom -12397.961178 kJ/mol
# Density = 1.803361 g / cm^3
# Si number density = 18.074754 Si / 1000 Ang^3
#
#
#
# Elastic Constant Matrix: (Units=GPa)
#
#
# Indices 1 2 3 4 5 6 
#
# 1 62.4528 45.8520 45.9561 0.0000 0.0000 0.0000
# 2 45.8520 139.6419 49.3573 0.0000 0.0000 0.0000
# 3 45.9561 49.3573 81.5461 0.0000 0.0000 0.0000
# 4 0.0000 0.0000 0.0000 25.8846 0.0000 0.0000
# 5 0.0000 0.0000 0.0000 0.0000 25.6761 0.0000
# 6 0.0000 0.0000 0.0000 0.0000 0.0000 33.9513
#
#
#
# Elastic Compliance Matrix: (Units=1/GPa)
#
#
# Indices 1 2 3 4 5 6 
#
# 1 0.029771 -0.004892 -0.013817 0.000000 0.000000 0.000000
# 2 -0.004892 0.009914 -0.003244 0.000000 0.000000 0.000000
# 3 -0.013817 -0.003244 0.022013 0.000000 0.000000 0.000000
# 4 0.000000 0.000000 0.000000 0.038633 0.000000 0.000000
# 5 0.000000 0.000000 0.000000 0.000000 0.038947 0.000000
# 6 0.000000 0.000000 0.000000 0.000000 0.000000 0.029454
#
#
# Mechanical properties :
#
#
# Convention : Reuss Voigt Hill
#
# Bulk Modulus (GPa) = 56.20193 62.88572 59.54383
# Shear Modulus (GPa) = 22.87633 26.60077 24.73855
#
# Velocity S-wave (km/s) = 3.56146 3.84045 3.70358
# Velocity P-wave (km/s) = 6.93352 7.38464 7.16263
#
# Compressibility (1/GPa) = 0.01779298
#
# Stress axis : x y z
#
# Youngs Moduli (GPa) = 33.59020 100.86808 45.42786
#
# Poissons Ratio (x) = 0.49342 0.62766
# Poissons Ratio (y) = 0.16431 0.14736
# Poissons Ratio (z) = 0.46411 0.32720
#
# Static dielectric constant tensor:
#      x y z
#    x 3.518440 0.000000 0.000000 
#    y 0.000000 3.605940 0.000000 
#    z 0.000000 0.000000 3.026100 
# 
# 
# High freq. dielectric constant tensor:
#      x y z
#    x 1.708760 0.000000 0.000000 
#    y 0.000000 1.716700 0.000000 
#    z 0.000000 0.000000 1.658470 
# 
# From -- ./inp_files/39852.got.cif
#   From: 2010.03.12/outbox.cif.g09.slc.cpg/sg67_20_cif.got.tgz:39852.got - 2010.04.10 22:41:39.
