data_PCOD8279733
_publ_section_title
;
Structure prediction by ZEFSAII (Michael W. Deem and Ramdas Pophale) SiO2 
 PCOD8279733
Probable space group: C M M A
;
_chemical_formula_sum "Si O2"
_cell_formula_units_Z 100
_cell_length_a 25.128882
_cell_length_b 9.456159
_cell_length_c 22.598294
_cell_angle_alpha 90.000000
_cell_angle_beta 90.000000
_cell_angle_gamma 90.000000
_cell_volume 5369.867719
_symmetry_space_group_name_H-M "C M M A"
_symmetry_group_IT_number 67
_symmetry_cell_setting 'orthorhombic'
loop_
_space_group_symop_operation_xyz
x,y,z
-x,1/2-y,z
x,-y,-z
-x,1/2+y,-z
-x,-y,-z
x,1/2+y,-z
-x,y,z
x,1/2-y,z
1/2+x,1/2+y,z
1/2-x,-y,z
1/2+x,1/2-y,-z
1/2-x,y,-z
1/2-x,1/2-y,-z
1/2+x,y,-z
1/2-x,1/2+y,z
1/2+x,-y,z
loop_
_atom_site_type_symbol
_atom_site_label
_atom_site_fract_x
_atom_site_fract_y
_atom_site_fract_z
Si Si1 0.299082 0.588319 0.257826
Si Si2 0.352712 0.589664 0.946602
Si Si3 0.799971 0.414172 0.393153
Si Si4 0.000000 0.916984 0.649243
Si Si5 0.087300 0.583846 0.557398
Si Si6 0.250000 0.500000 0.000000
Si Si7 0.000000 0.082634 0.218660
Si Si8 0.389046 0.585407 0.165201
O O1 0.281551 0.750000 0.253230
O O2 0.250000 0.500000 0.231020
O O3 0.310665 0.543485 0.325166
O O4 0.352817 0.559274 0.222340
O O5 0.374458 0.750000 0.945630
O O6 0.366750 0.512268 0.886266
O O7 0.380115 0.500000 0.000000
O O8 0.288484 0.593372 0.957423
O O9 0.786686 0.250000 0.399393
O O10 0.750000 0.500000 0.419175
O O11 0.851742 0.456301 0.430176
O O12 0.947646 0.965479 0.613480
O O13 0.000000 0.750000 0.656305
O O14 0.000000 0.984858 0.715149
O O15 0.067380 0.500000 0.500000
O O16 0.079656 0.750000 0.545812
O O17 0.051804 0.034106 0.182163
O O18 0.000000 0.250000 0.225311
O O19 0.387794 0.750000 0.145541
#
# Coordination Sequence:
#
# PCOD8279733 Si02
#       8
#    16  16  16   8  16   4   8  16
#     4   9  18  31  49  75 104 135 172 217 266 320
#     4  10  21  36  56  81 111 144 179 218 262 309
#     4   9  18  33  50  70 100 137 175 213 260 316
#     4   9  17  33  58  81 103 134 175 221 268 313
#     4  10  20  33  52  77 103 133 172 219 266 318
#     4   8  22  36  58  78 110 148 186 212 258 304
#     4   9  18  35  59  83 106 140 184 225 262 313
#     4  10  20  34  55  82 110 140 180 224 267 316
#
# _framework density 18.622432
#
# number of rings (size 3 to 8) (size 9 to 14) (size 15 to 20)
#    0.480    2.080    0.000    1.920    1.120    5.440 
#    0.000    2.400    0.000    3.840    0.000    0.000 
#    0.000    0.000    0.000    0.000    0.000    0.000 
#
# Total GULP energy -619848.138471 kJ/mol
# GULP energy per Si atom -12396.962769 kJ/mol
# Density = 1.858005 g / cm^3
# Si number density = 18.622432 Si / 1000 Ang^3
#
#
#
# Elastic Constant Matrix: (Units=GPa)
#
#
# Indices 1 2 3 4 5 6 
#
# 1 112.8460 33.7235 37.7148 0.0000 0.0000 0.0000
# 2 33.7235 66.0050 37.6593 0.0000 0.0000 0.0000
# 3 37.7148 37.6593 91.6910 0.0000 0.0000 0.0000
# 4 0.0000 0.0000 0.0000 26.0261 0.0000 0.0000
# 5 0.0000 0.0000 0.0000 0.0000 17.8042 0.0000
# 6 0.0000 0.0000 0.0000 0.0000 0.0000 11.8296
#
#
#
# Elastic Compliance Matrix: (Units=1/GPa)
#
#
# Indices 1 2 3 4 5 6 
#
# 1 0.011019 -0.003975 -0.002900 0.000000 0.000000 0.000000
# 2 -0.003975 0.021222 -0.007081 0.000000 0.000000 0.000000
# 3 -0.002900 -0.007081 0.015007 0.000000 0.000000 0.000000
# 4 0.000000 0.000000 0.000000 0.038423 0.000000 0.000000
# 5 0.000000 0.000000 0.000000 0.000000 0.056166 0.000000
# 6 0.000000 0.000000 0.000000 0.000000 0.000000 0.084533
#
#
# Mechanical properties :
#
#
# Convention : Reuss Voigt Hill
#
# Bulk Modulus (GPa) = 51.71780 54.30415 53.01098
# Shear Modulus (GPa) = 19.17715 21.89496 20.53606
#
# Velocity S-wave (km/s) = 3.21251 3.43261 3.32438
# Velocity P-wave (km/s) = 6.44922 6.70331 6.57749
#
# Compressibility (1/GPa) = 0.01933570
#
# Stress axis : x y z
#
# Youngs Moduli (GPa) = 90.75456 47.12195 66.63505
#
# Poissons Ratio (x) = 0.18733 0.19321
# Poissons Ratio (y) = 0.36079 0.47184
# Poissons Ratio (z) = 0.26314 0.33367
#
# Static dielectric constant tensor:
#      x y z
#    x 3.498150 0.000000 0.000000 
#    y 0.000000 3.170060 0.000000 
#    z 0.000000 0.000000 3.400110 
# 
# 
# High freq. dielectric constant tensor:
#      x y z
#    x 1.720830 0.000000 0.000000 
#    y 0.000000 1.696600 0.000000 
#    z 0.000000 0.000000 1.723070 
# 
# From -- ./inp_files/40015.got.cif
#   From: 2010.03.12/outbox.cif.g09.slc.cpg/sg67_21_cif.got.tgz:40015.got - 2010.04.10 22:41:39.
