data_PCOD8279906
_publ_section_title
;
Structure prediction by ZEFSAII (Michael W. Deem and Ramdas Pophale) SiO2 
 PCOD8279906
Probable space group: C M M A
;
_chemical_formula_sum "Si O2"
_cell_formula_units_Z 96
_cell_length_a 18.765258
_cell_length_b 8.901551
_cell_length_c 30.855413
_cell_angle_alpha 90.000000
_cell_angle_beta 90.000000
_cell_angle_gamma 90.000000
_cell_volume 5154.085136
_symmetry_space_group_name_H-M "C M M A"
_symmetry_group_IT_number 67
_symmetry_cell_setting 'orthorhombic'
loop_
_space_group_symop_operation_xyz
x,y,z
-x,1/2-y,z
x,-y,-z
-x,1/2+y,-z
-x,-y,-z
x,1/2+y,-z
-x,y,z
x,1/2-y,z
1/2+x,1/2+y,z
1/2-x,-y,z
1/2+x,1/2-y,-z
1/2-x,y,-z
1/2-x,1/2-y,-z
1/2+x,y,-z
1/2-x,1/2+y,z
1/2+x,-y,z
loop_
_atom_site_type_symbol
_atom_site_label
_atom_site_fract_x
_atom_site_fract_y
_atom_site_fract_z
Si Si1 0.917670 0.421685 0.625941
Si Si2 0.326204 0.428237 0.456247
Si Si3 0.082745 0.425053 0.285894
Si Si4 0.418841 0.573062 0.870401
Si Si5 0.584867 0.581019 0.042547
Si Si6 0.327207 0.427858 0.211431
O O1 0.899661 0.250000 0.638382
O O2 0.875814 0.474459 0.583604
O O3 0.894952 0.527204 0.665757
O O4 0.000000 0.441701 0.614724
O O5 0.359057 0.500000 0.500000
O O6 0.319666 0.250000 0.461838
O O7 0.250000 0.500000 0.446894
O O8 0.098586 0.250000 0.279635
O O9 0.130263 0.519856 0.253368
O O10 0.000000 0.463800 0.277432
O O11 0.500000 0.520092 0.861475
O O12 0.415671 0.750000 0.876550
O O13 0.387596 0.500047 0.914098
O O14 0.370556 0.517718 0.830731
O O15 0.500000 0.575111 0.041224
O O16 0.613734 0.750000 0.042804
O O17 0.616435 0.500000 0.000000
O O18 0.319566 0.250000 0.212764
O O19 0.250000 0.500000 0.210306
#
# Coordination Sequence:
#
# PCOD8279906 Si02
#       6
#    16  16  16  16  16  16
#     4   9  19  36  56  78 105 138 175 214 260 312
#     4  10  20  34  53  76 104 139 176 215 258 307
#     4  10  21  37  58  83 109 138 175 219 265 316
#     4   9  18  33  53  76 102 135 174 213 258 312
#     4   9  16  26  44  72 104 135 168 210 257 304
#     4  11  23  38  56  78 107 142 178 219 266 316
#
# _framework density 18.626003000000001
#
# number of rings (size 3 to 8) (size 9 to 14) (size 15 to 20)
#    0.000    2.333    0.000    3.000    0.000    7.333 
#    0.000    3.333    0.000    0.500    0.000    3.500 
#    0.000    0.000    0.000    0.000    0.000    0.000 
#
# Total GULP energy -595292.386694 kJ/mol
# GULP energy per Si atom -12401.924723 kJ/mol
# Density = 1.858361 g / cm^3
# Si number density = 18.626003 Si / 1000 Ang^3
#
#
#
# Elastic Constant Matrix: (Units=GPa)
#
#
# Indices 1 2 3 4 5 6 
#
# 1 74.9202 39.3978 75.6594 0.0000 0.0000 0.0000
# 2 39.3978 74.7994 58.2152 0.0000 0.0000 0.0000
# 3 75.6594 58.2152 168.3878 0.0000 0.0000 0.0000
# 4 0.0000 0.0000 0.0000 36.3611 0.0000 0.0000
# 5 0.0000 0.0000 0.0000 0.0000 -1.0506 0.0000
# 6 0.0000 0.0000 0.0000 0.0000 0.0000 22.5896
#
#
#
# Elastic Compliance Matrix: (Units=1/GPa)
#
#
# Indices 1 2 3 4 5 6 
#
# 1 0.026512 -0.006421 -0.009693 0.000000 0.000000 0.000000
# 2 -0.006421 0.019845 -0.003976 0.000000 0.000000 0.000000
# 3 -0.009693 -0.003976 0.011668 0.000000 0.000000 0.000000
# 4 0.000000 0.000000 0.000000 0.027502 0.000000 0.000000
# 5 0.000000 0.000000 0.000000 0.000000 -0.951864 0.000000
# 6 0.000000 0.000000 0.000000 0.000000 0.000000 0.044268
#
#
# Mechanical properties :
#
#
# Convention : Reuss Voigt Hill
#
# Bulk Modulus (GPa) = 56.03105 73.85022 64.94064
# Shear Modulus (GPa) = -6.44380 21.23568 7.39594
#
# Velocity S-wave (km/s) = -1.86201 3.38021 1.99484
# Velocity P-wave (km/s) = 5.05220 7.41414 6.34406
#
# Compressibility (1/GPa) = 0.01784725
#
# Stress axis : x y z
#
# Youngs Moduli (GPa) = 37.71853 50.38932 85.70217
#
# Poissons Ratio (x) = 0.32354 0.83067
# Poissons Ratio (y) = 0.24218 0.34076
# Poissons Ratio (z) = 0.36559 0.20035
#
# Static dielectric constant tensor:
#      x y z
#    x 3.229230 0.000000 0.000000 
#    y 0.000000 3.477690 0.000000 
#    z 0.000000 0.000000 3.623220 
# 
# 
# High freq. dielectric constant tensor:
#      x y z
#    x 1.696240 0.000000 0.000000 
#    y 0.000000 1.730660 0.000000 
#    z 0.000000 0.000000 1.738730 
# 
# From -- ./inp_files/44592.got.cif
#   From: 2010.03.12/outbox.cif.g09.slc.cpg/sg67_23_cif.got.tgz:44592.got - 2010.04.10 22:41:39.
