data_PCOD8279242
_publ_section_title
;
Structure prediction by ZEFSAII (Michael W. Deem and Ramdas Pophale) SiO2 
 PCOD8279242
Probable space group: C M M A
;
_chemical_formula_sum "Si O2"
_cell_formula_units_Z 88
_cell_length_a 21.688272
_cell_length_b 8.609007
_cell_length_c 24.291986
_cell_angle_alpha 90.000000
_cell_angle_beta 90.000000
_cell_angle_gamma 90.000000
_cell_volume 4535.665667
_symmetry_space_group_name_H-M "C M M A"
_symmetry_group_IT_number 67
_symmetry_cell_setting 'orthorhombic'
loop_
_space_group_symop_operation_xyz
x,y,z
-x,1/2-y,z
x,-y,-z
-x,1/2+y,-z
-x,-y,-z
x,1/2+y,-z
-x,y,z
x,1/2-y,z
1/2+x,1/2+y,z
1/2-x,-y,z
1/2+x,1/2-y,-z
1/2-x,y,-z
1/2-x,1/2-y,-z
1/2+x,y,-z
1/2-x,1/2+y,z
1/2+x,-y,z
loop_
_atom_site_type_symbol
_atom_site_label
_atom_site_fract_x
_atom_site_fract_y
_atom_site_fract_z
Si Si1 0.893196 0.066165 0.640188
Si Si2 0.500000 0.434153 0.439035
Si Si3 0.428321 0.076204 0.242387
Si Si4 0.816132 0.066599 0.446507
Si Si5 0.428932 0.568601 0.127660
Si Si6 0.814714 0.434155 0.939221
O O1 0.896949 0.250000 0.644487
O O2 0.943078 0.001939 0.596739
O O3 0.898612 0.001751 0.702506
O O4 0.831192 0.003463 0.613426
O O5 0.500000 0.250000 0.442815
O O6 0.500000 0.500000 0.500000
O O7 0.500000 0.087264 0.255037
O O8 0.402827 0.250000 0.229333
O O9 0.414031 0.964155 0.191412
O O10 0.820299 0.250000 0.445614
O O11 0.855183 0.000000 0.500000
O O12 0.750000 0.000000 0.457440
O O13 0.500000 0.513665 0.113788
O O14 0.422698 0.750000 0.115694
O O15 0.377000 0.480066 0.092905
O O16 0.809635 0.250000 0.940556
O O17 0.750000 0.500000 0.913389
O O18 0.822337 0.500000 0.000000
#
# Coordination Sequence:
#
# PCOD8279242 Si02
#       6
#    16   8  16  16  16  16
#     4  10  19  34  54  77 106 138 174 217 267 325
#     4  10  20  32  48  74 106 138 169 210 263 320
#     4   9  17  33  56  80 109 148 188 228 278 333
#     4  11  22  37  55  74  97 130 171 218 271 329
#     4  10  21  37  58  87 122 158 200 248 292 343
#     4  11  22  39  63  90 123 161 200 243 295 353
#
# _framework density 19.401783999999999
#
# number of rings (size 3 to 8) (size 9 to 14) (size 15 to 20)
#    0.000    1.818    0.909    5.455    0.000    4.364 
#    0.000    0.909    0.000    4.364    0.000    0.000 
#    0.000    0.000    0.000    0.000    0.000    0.000 
#
# Total GULP energy -545139.246448 kJ/mol
# GULP energy per Si atom -12389.528328 kJ/mol
# Density = 1.935762 g / cm^3
# Si number density = 19.401784 Si / 1000 Ang^3
#
#
#
# Elastic Constant Matrix: (Units=GPa)
#
#
# Indices 1 2 3 4 5 6 
#
# 1 95.1985 33.3956 63.5025 0.0000 0.0000 0.0000
# 2 33.3956 68.7354 41.2336 0.0000 0.0000 0.0000
# 3 63.5025 41.2336 118.7959 0.0000 0.0000 0.0000
# 4 0.0000 0.0000 0.0000 19.3985 0.0000 0.0000
# 5 0.0000 0.0000 0.0000 0.0000 26.6803 0.0000
# 6 0.0000 0.0000 0.0000 0.0000 0.0000 21.6651
#
#
#
# Elastic Compliance Matrix: (Units=1/GPa)
#
#
# Indices 1 2 3 4 5 6 
#
# 1 0.016982 -0.003543 -0.007848 0.000000 0.000000 0.000000
# 2 -0.003543 0.019114 -0.004740 0.000000 0.000000 0.000000
# 3 -0.007848 -0.004740 0.014258 0.000000 0.000000 0.000000
# 4 0.000000 0.000000 0.000000 0.051550 0.000000 0.000000
# 5 0.000000 0.000000 0.000000 0.000000 0.037481 0.000000
# 6 0.000000 0.000000 0.000000 0.000000 0.000000 0.046157
#
#
# Mechanical properties :
#
#
# Convention : Reuss Voigt Hill
#
# Bulk Modulus (GPa) = 55.27503 62.11037 58.69270
# Shear Modulus (GPa) = 22.33774 23.18866 22.76320
#
# Velocity S-wave (km/s) = 3.39680 3.46089 3.42899
# Velocity P-wave (km/s) = 6.62841 6.93200 6.78190
#
# Compressibility (1/GPa) = 0.01809135
#
# Stress axis : x y z
#
# Youngs Moduli (GPa) = 58.88437 52.31876 70.13387
#
# Poissons Ratio (x) = 0.18536 0.55043
# Poissons Ratio (y) = 0.20863 0.33246
# Poissons Ratio (z) = 0.46214 0.24801
#
# Static dielectric constant tensor:
#      x y z
#    x 3.688720 0.000000 0.000000 
#    y 0.000000 3.430110 0.000000 
#    z 0.000000 0.000000 3.725060 
# 
# 
# High freq. dielectric constant tensor:
#      x y z
#    x 1.745500 0.000000 0.000000 
#    y 0.000000 1.751270 0.000000 
#    z 0.000000 0.000000 1.760860 
# 
# From -- ./inp_files/42374.got.cif
#   From: 2010.03.12/outbox.cif.g09.slc.cpg/sg67_22_cif.got.tgz:42374.got - 2010.04.10 22:41:39.
