data_PCOD8279673
_publ_section_title
;
Structure prediction by ZEFSAII (Michael W. Deem and Ramdas Pophale) SiO2 
 PCOD8279673
Probable space group: C M M A
;
_chemical_formula_sum "Si O2"
_cell_formula_units_Z 104
_cell_length_a 8.605250
_cell_length_b 26.876934
_cell_length_c 24.415916
_cell_angle_alpha 90.000000
_cell_angle_beta 90.000000
_cell_angle_gamma 90.000000
_cell_volume 5646.979862
_symmetry_space_group_name_H-M "C M M A"
_symmetry_group_IT_number 67
_symmetry_cell_setting 'orthorhombic'
loop_
_space_group_symop_operation_xyz
x,y,z
-x,1/2-y,z
x,-y,-z
-x,1/2+y,-z
-x,-y,-z
x,1/2+y,-z
-x,y,z
x,1/2-y,z
1/2+x,1/2+y,z
1/2-x,-y,z
1/2+x,1/2-y,-z
1/2-x,y,-z
1/2-x,1/2-y,-z
1/2+x,y,-z
1/2-x,1/2+y,z
1/2+x,-y,z
loop_
_atom_site_type_symbol
_atom_site_label
_atom_site_fract_x
_atom_site_fract_y
_atom_site_fract_z
Si Si1 0.183367 0.446398 0.850297
Si Si2 0.683441 0.052508 0.275626
Si Si3 0.183751 0.653680 0.877721
Si Si4 0.816015 0.303988 0.235109
Si Si5 0.316449 0.140692 0.660201
Si Si6 0.816963 0.306188 0.557784
Si Si7 0.684573 0.250000 0.060475
O O1 0.250000 0.500000 0.869310
O O2 0.232072 0.435729 0.787191
O O3 0.251083 0.402091 0.889580
O O4 0.000000 0.448105 0.857597
O O5 0.500000 0.055317 0.282807
O O6 0.766494 0.086591 0.320424
O O7 0.750000 0.000000 0.292586
O O8 0.233720 0.661152 0.814709
O O9 0.257672 0.698679 0.912061
O O10 0.000000 0.655121 0.887824
O O11 0.743545 0.250000 0.223882
O O12 0.749770 0.323023 0.292590
O O13 0.000000 0.301262 0.238328
O O14 0.500000 0.144146 0.653852
O O15 0.240095 0.155378 0.603187
O O16 0.758158 0.250000 0.571049
O O17 0.750000 0.324393 0.500000
O O18 0.000000 0.307808 0.554421
O O19 0.500000 0.250000 0.060468
O O20 0.750000 0.250000 0.000000
#
# Coordination Sequence:
#
# PCOD8279673 Si02
#       7
#    16  16  16  16  16  16   8
#     4  10  20  34  54  83 118 157 198 242 291 348
#     4  10  20  33  50  75 110 147 186 229 277 332
#     4  11  20  36  60  86 118 156 194 240 290 342
#     4   9  17  29  48  77 111 146 181 219 274 336
#     4  11  20  32  53  79 108 144 183 225 278 339
#     4  10  21  37  55  76 103 139 182 230 277 329
#     4  12  26  44  64  90 120 160 205 246 289 342
#
# _framework density 18.416923000000001
#
# number of rings (size 3 to 8) (size 9 to 14) (size 15 to 20)
#    0.000    1.692    2.308    3.462    0.000    2.769 
#    0.000    0.000    0.000    0.923    0.000    6.462 
#    0.000    0.000    0.000    0.000    0.000    0.000 
#
# Total GULP energy -644571.750812 kJ/mol
# GULP energy per Si atom -12395.610593 kJ/mol
# Density = 1.837501 g / cm^3
# Si number density = 18.416923 Si / 1000 Ang^3
#
#
#
# Elastic Constant Matrix: (Units=GPa)
#
#
# Indices 1 2 3 4 5 6 
#
# 1 83.8991 44.7439 36.9332 0.0000 0.0000 0.0000
# 2 44.7439 151.7758 55.5161 0.0000 0.0000 0.0000
# 3 36.9332 55.5161 85.7956 0.0000 0.0000 0.0000
# 4 0.0000 0.0000 0.0000 11.7217 0.0000 0.0000
# 5 0.0000 0.0000 0.0000 0.0000 25.5978 0.0000
# 6 0.0000 0.0000 0.0000 0.0000 0.0000 32.6579
#
#
#
# Elastic Compliance Matrix: (Units=1/GPa)
#
#
# Indices 1 2 3 4 5 6 
#
# 1 0.015564 -0.002800 -0.004888 0.000000 0.000000 0.000000
# 2 -0.002800 0.009136 -0.004706 0.000000 0.000000 0.000000
# 3 -0.004888 -0.004706 0.016805 0.000000 0.000000 0.000000
# 4 0.000000 0.000000 0.000000 0.085312 0.000000 0.000000
# 5 0.000000 0.000000 0.000000 0.000000 0.039066 0.000000
# 6 0.000000 0.000000 0.000000 0.000000 0.000000 0.030620
#
#
# Mechanical properties :
#
#
# Convention : Reuss Voigt Hill
#
# Bulk Modulus (GPa) = 59.82268 66.20633 63.01451
# Shear Modulus (GPa) = 22.03970 26.28063 24.16017
#
# Velocity S-wave (km/s) = 3.46310 3.78164 3.62587
# Velocity P-wave (km/s) = 6.96733 7.42256 7.19855
#
# Compressibility (1/GPa) = 0.01671607
#
# Stress axis : x y z
#
# Youngs Moduli (GPa) = 64.24936 109.46256 59.50674
#
# Poissons Ratio (x) = 0.30655 0.29087
# Poissons Ratio (y) = 0.17993 0.28003
# Poissons Ratio (z) = 0.31405 0.51511
#
# Static dielectric constant tensor:
#      x y z
#    x 3.382230 0.000000 0.000000 
#    y 0.000000 3.621170 0.000000 
#    z 0.000000 0.000000 3.189670 
# 
# 
# High freq. dielectric constant tensor:
#      x y z
#    x 1.716980 0.000000 0.000000 
#    y 0.000000 1.724210 0.000000 
#    z 0.000000 0.000000 1.687460 
# 
# From -- ./inp_files/37282.got.cif
#   From: 2010.03.12/outbox.cif.g09.slc.cpg/sg67_19_cif.got.tgz:37282.got - 2010.04.10 22:41:39.
