data_PCOD8279327
_publ_section_title
;
Structure prediction by ZEFSAII (Michael W. Deem and Ramdas Pophale) SiO2 
 PCOD8279327
Probable space group: C M M A
;
_chemical_formula_sum "Si O2"
_cell_formula_units_Z 80
_cell_length_a 18.149970
_cell_length_b 17.554565
_cell_length_c 13.718514
_cell_angle_alpha 90.000000
_cell_angle_beta 90.000000
_cell_angle_gamma 90.000000
_cell_volume 4370.921980
_symmetry_space_group_name_H-M "C M M A"
_symmetry_group_IT_number 67
_symmetry_cell_setting 'orthorhombic'
loop_
_space_group_symop_operation_xyz
x,y,z
-x,1/2-y,z
x,-y,-z
-x,1/2+y,-z
-x,-y,-z
x,1/2+y,-z
-x,y,z
x,1/2-y,z
1/2+x,1/2+y,z
1/2-x,-y,z
1/2+x,1/2-y,-z
1/2-x,y,-z
1/2-x,1/2-y,-z
1/2+x,y,-z
1/2-x,1/2+y,z
1/2+x,-y,z
loop_
_atom_site_type_symbol
_atom_site_label
_atom_site_fract_x
_atom_site_fract_y
_atom_site_fract_z
Si Si1 0.823308 0.662993 0.555014
Si Si2 0.916004 0.603661 0.388406
Si Si3 0.164179 0.978946 0.103600
Si Si4 0.084899 0.662997 0.177458
Si Si5 0.332008 0.030225 0.694438
O O1 0.816929 0.750000 0.588234
O O2 0.750000 0.634707 0.500000
O O3 0.890826 0.651853 0.481655
O O4 0.834203 0.615809 0.654424
O O5 0.901941 0.654620 0.292958
O O6 0.874062 0.523250 0.382073
O O7 0.000000 0.582640 0.403396
O O8 0.143954 0.889975 0.121050
O O9 0.250000 0.000000 0.095857
O O10 0.131205 0.025852 0.196850
O O11 0.126473 0.000000 0.000000
O O12 0.101192 0.750000 0.147537
O O13 0.000000 0.640859 0.151841
O O14 0.250000 0.000000 0.706258
#
# Coordination Sequence:
#
# PCOD8279327 Si02
#       5
#    16  16  16  16  16
#     4  11  22  33  49  76 108 143 176 208 257 313
#     4  10  20  34  55  79 104 138 178 219 261 309
#     4   9  19  36  54  78 109 142 179 222 272 325
#     4   9  18  34  57  83 107 136 180 231 274 311
#     4  10  19  35  54  74 103 141 179 221 258 311
#
# _framework density 18.302773999999999
#
# number of rings (size 3 to 8) (size 9 to 14) (size 15 to 20)
#    0.000    2.200    2.000    1.200    0.000    3.200 
#    0.000    3.000    0.000    0.000    0.000    0.000 
#    0.000    0.000    0.000    0.000    0.000    0.000 
#
# Total GULP energy -495813.852725 kJ/mol
# GULP energy per Si atom -12395.346318 kJ/mol
# Density = 1.826112 g / cm^3
# Si number density = 18.302774 Si / 1000 Ang^3
#
#
#
# Elastic Constant Matrix: (Units=GPa)
#
#
# Indices 1 2 3 4 5 6 
#
# 1 69.8972 39.6715 22.6559 0.0000 0.0000 0.0000
# 2 39.6715 123.6591 60.2059 0.0000 0.0000 0.0000
# 3 22.6559 60.2059 114.4613 0.0000 0.0000 0.0000
# 4 0.0000 0.0000 0.0000 19.0123 0.0000 0.0000
# 5 0.0000 0.0000 0.0000 0.0000 13.4363 0.0000
# 6 0.0000 0.0000 0.0000 0.0000 0.0000 27.6874
#
#
#
# Elastic Compliance Matrix: (Units=1/GPa)
#
#
# Indices 1 2 3 4 5 6 
#
# 1 0.017532 -0.005290 -0.000688 0.000000 0.000000 0.000000
# 2 -0.005290 0.012467 -0.005510 0.000000 0.000000 0.000000
# 3 -0.000688 -0.005510 0.011771 0.000000 0.000000 0.000000
# 4 0.000000 0.000000 0.000000 0.052597 0.000000 0.000000
# 5 0.000000 0.000000 0.000000 0.000000 0.074425 0.000000
# 6 0.000000 0.000000 0.000000 0.000000 0.000000 0.036117
#
#
# Mechanical properties :
#
#
# Convention : Reuss Voigt Hill
#
# Bulk Modulus (GPa) = 53.20849 61.45380 57.33115
# Shear Modulus (GPa) = 21.35383 24.39282 22.87333
#
# Velocity S-wave (km/s) = 3.41940 3.65463 3.53897
# Velocity P-wave (km/s) = 6.68761 7.17339 6.93476
#
# Compressibility (1/GPa) = 0.01879399
#
# Stress axis : x y z
#
# Youngs Moduli (GPa) = 57.03889 80.21482 84.95364
#
# Poissons Ratio (x) = 0.42430 0.05844
# Poissons Ratio (y) = 0.30171 0.46812
# Poissons Ratio (z) = 0.03924 0.44201
#
# Static dielectric constant tensor:
#      x y z
#    x 3.251180 0.000000 0.000000 
#    y 0.000000 3.284800 0.000000 
#    z 0.000000 0.000000 3.780040 
# 
# 
# High freq. dielectric constant tensor:
#      x y z
#    x 1.697750 0.000000 0.000000 
#    y 0.000000 1.699270 0.000000 
#    z 0.000000 0.000000 1.703050 
# 
# From -- ./inp_files/28366.got.cif
#   From: 2010.03.12/outbox.cif.g09.slc.cpg/sg67_15_cif.got.tgz:28366.got - 2010.04.10 22:41:39.
