data_PCOD8279937
_publ_section_title
;
Structure prediction by ZEFSAII (Michael W. Deem and Ramdas Pophale) SiO2 
 PCOD8279937
Probable space group: C M M A
;
_chemical_formula_sum "Si O2"
_cell_formula_units_Z 80
_cell_length_a 21.323131
_cell_length_b 17.337771
_cell_length_c 10.239347
_cell_angle_alpha 90.000000
_cell_angle_beta 90.000000
_cell_angle_gamma 90.000000
_cell_volume 3785.441147
_symmetry_space_group_name_H-M "C M M A"
_symmetry_group_IT_number 67
_symmetry_cell_setting 'orthorhombic'
loop_
_space_group_symop_operation_xyz
x,y,z
-x,1/2-y,z
x,-y,-z
-x,1/2+y,-z
-x,-y,-z
x,1/2+y,-z
-x,y,z
x,1/2-y,z
1/2+x,1/2+y,z
1/2-x,-y,z
1/2+x,1/2-y,-z
1/2-x,y,-z
1/2-x,1/2-y,-z
1/2+x,y,-z
1/2-x,1/2+y,z
1/2+x,-y,z
loop_
_atom_site_type_symbol
_atom_site_label
_atom_site_fract_x
_atom_site_fract_y
_atom_site_fract_z
Si Si1 0.071668 0.437365 0.780130
Si Si2 0.724842 0.162392 0.792998
Si Si3 0.845613 0.448272 0.377780
Si Si4 0.928907 0.335029 0.532008
Si Si5 0.649631 0.662702 0.948931
O O1 0.117799 0.505095 0.734324
O O2 0.075548 0.369081 0.675946
O O3 0.095625 0.399678 0.916168
O O4 0.000000 0.467129 0.796773
O O5 0.718495 0.250000 0.738689
O O6 0.713980 0.097604 0.681680
O O7 0.793977 0.149013 0.847376
O O8 0.673239 0.148430 0.904907
O O9 0.822620 0.500000 0.500000
O O10 0.894100 0.385020 0.425641
O O11 0.898832 0.250000 0.536250
O O12 0.000000 0.332008 0.483983
O O13 0.624008 0.750000 0.935976
#
# Coordination Sequence:
#
# PCOD8279937 Si02
#       5
#    16  16  16  16  16
#     4  10  20  34  53  79 112 145 178 221 274 330
#     4   9  19  38  61  81 105 141 184 228 272 318
#     4  10  20  34  53  79 114 146 179 220 269 325
#     4   9  17  31  52  75 103 145 190 228 270 319
#     4   9  19  37  60  82 104 138 185 230 272 319
#
# _framework density 21.133600000000001
#
# number of rings (size 3 to 8) (size 9 to 14) (size 15 to 20)
#    0.000    2.600    0.000    3.000    0.000    5.200 
#    0.000   12.000    0.000   13.200    0.000    0.000 
#    0.000    0.000    0.000    0.000    0.000    0.000 
#
# Total GULP energy -495933.125563 kJ/mol
# GULP energy per Si atom -12398.328139 kJ/mol
# Density = 2.108550 g / cm^3
# Si number density = 21.133600 Si / 1000 Ang^3
#
#
#
# Elastic Constant Matrix: (Units=GPa)
#
#
# Indices 1 2 3 4 5 6 
#
# 1 40.1720 21.6016 14.0448 0.0000 0.0000 0.0000
# 2 21.6016 107.9996 26.6317 0.0000 0.0000 0.0000
# 3 14.0448 26.6317 45.8272 0.0000 0.0000 0.0000
# 4 0.0000 0.0000 0.0000 35.5491 0.0000 0.0000
# 5 0.0000 0.0000 0.0000 0.0000 30.4064 0.0000
# 6 0.0000 0.0000 0.0000 0.0000 0.0000 19.6286
#
#
#
# Elastic Compliance Matrix: (Units=1/GPa)
#
#
# Indices 1 2 3 4 5 6 
#
# 1 0.029485 -0.004283 -0.006547 0.000000 0.000000 0.000000
# 2 -0.004283 0.011430 -0.005330 0.000000 0.000000 0.000000
# 3 -0.006547 -0.005330 0.026925 0.000000 0.000000 0.000000
# 4 0.000000 0.000000 0.000000 0.028130 0.000000 0.000000
# 5 0.000000 0.000000 0.000000 0.000000 0.032888 0.000000
# 6 0.000000 0.000000 0.000000 0.000000 0.000000 0.050946
#
#
# Mechanical properties :
#
#
# Convention : Reuss Voigt Hill
#
# Bulk Modulus (GPa) = 28.15321 35.39500 31.77410
# Shear Modulus (GPa) = 22.32494 25.89820 24.11157
#
# Velocity S-wave (km/s) = 3.25371 3.50444 3.38140
# Velocity P-wave (km/s) = 5.24080 5.75842 5.50570
#
# Compressibility (1/GPa) = 0.03551993
#
# Stress axis : x y z
#
# Youngs Moduli (GPa) = 33.91543 87.48715 37.14016
#
# Poissons Ratio (x) = 0.37470 0.24317
# Poissons Ratio (y) = 0.14526 0.19795
# Poissons Ratio (z) = 0.22206 0.46630
#
# Static dielectric constant tensor:
#      x y z
#    x 3.680290 0.000000 0.000000 
#    y 0.000000 3.938580 0.000000 
#    z 0.000000 0.000000 3.616100 
# 
# 
# High freq. dielectric constant tensor:
#      x y z
#    x 1.815410 0.000000 0.000000 
#    y 0.000000 1.838720 0.000000 
#    z 0.000000 0.000000 1.811540 
# 
# From -- ./inp_files/21624.got.cif
#   From: 2010.03.12/outbox.cif.g09.slc.cpg/sg67_11_cif.got.tgz:21624.got - 2010.04.10 22:41:39.
