data_PCOD8279944
_publ_section_title
;
Structure prediction by ZEFSAII (Michael W. Deem and Ramdas Pophale) SiO2 
 PCOD8279944
Probable space group: C M M A
;
_chemical_formula_sum "Si O2"
_cell_formula_units_Z 104
_cell_length_a 8.764756
_cell_length_b 28.630232
_cell_length_c 24.655952
_cell_angle_alpha 90.000000
_cell_angle_beta 90.000000
_cell_angle_gamma 90.000000
_cell_volume 6187.090570
_symmetry_space_group_name_H-M "C M M A"
_symmetry_group_IT_number 67
_symmetry_cell_setting 'orthorhombic'
loop_
_space_group_symop_operation_xyz
x,y,z
-x,1/2-y,z
x,-y,-z
-x,1/2+y,-z
-x,-y,-z
x,1/2+y,-z
-x,y,z
x,1/2-y,z
1/2+x,1/2+y,z
1/2-x,-y,z
1/2+x,1/2-y,-z
1/2-x,y,-z
1/2-x,1/2-y,-z
1/2+x,y,-z
1/2-x,1/2+y,z
1/2+x,-y,z
loop_
_atom_site_type_symbol
_atom_site_label
_atom_site_fract_x
_atom_site_fract_y
_atom_site_fract_z
Si Si1 0.677708 0.141894 0.752794
Si Si2 0.177067 0.548655 0.277173
Si Si3 0.819890 0.141967 0.444389
Si Si4 0.823386 0.250000 0.941896
Si Si5 0.322894 0.695444 0.653936
Si Si6 0.176777 0.048667 0.595636
Si Si7 0.828005 0.301986 0.841042
O O1 0.500000 0.144309 0.738616
O O2 0.733209 0.088676 0.754803
O O3 0.772996 0.170463 0.708822
O O4 0.708907 0.163988 0.811818
O O5 0.250000 0.500000 0.258703
O O6 0.201697 0.557142 0.340791
O O7 0.000000 0.549231 0.261393
O O8 0.750000 0.162103 0.500000
O O9 0.771854 0.176056 0.396270
O O10 0.760455 0.089612 0.436044
O O11 0.000000 0.141081 0.448605
O O12 0.782668 0.295989 0.905149
O O13 0.000000 0.250000 0.953315
O O14 0.750000 0.250000 0.000000
O O15 0.500000 0.684285 0.643878
O O16 0.290116 0.750000 0.659718
O O17 0.000000 0.048506 0.579935
O O18 0.250000 0.000000 0.576999
O O19 0.822454 0.250000 0.814188
O O20 0.000000 0.322096 0.835087
#
# Coordination Sequence:
#
# PCOD8279944 Si02
#       7
#    16  16  16   8  16  16  16
#     4  12  22  32  52  80 109 138 175 218 261 309
#     4  10  20  34  54  76 105 137 169 209 258 316
#     4  12  25  41  60  79 102 128 164 209 257 315
#     4   8  16  30  50  74 108 152 191 228 269 310
#     4  11  24  41  59  77 100 133 169 209 261 314
#     4  10  20  36  58  81 105 131 163 202 254 312
#     4   8  17  32  48  71 105 147 186 220 262 305
#
# _framework density 16.809193
#
# number of rings (size 3 to 8) (size 9 to 14) (size 15 to 20)
#    0.462    1.231    1.538    4.615    0.000    5.846 
#    0.000    1.538    0.000    0.000    0.000    0.000 
#    0.000    0.615    0.000    6.462    0.000    3.538 
#
# Total GULP energy -644762.224642 kJ/mol
# GULP energy per Si atom -12399.273551 kJ/mol
# Density = 1.677093 g / cm^3
# Si number density = 16.809193 Si / 1000 Ang^3
#
#
#
# Elastic Constant Matrix: (Units=GPa)
#
#
# Indices 1 2 3 4 5 6 
#
# 1 104.0381 44.0965 34.0919 0.0000 0.0000 0.0000
# 2 44.0965 89.6966 39.8950 0.0000 0.0000 0.0000
# 3 34.0919 39.8950 88.7028 0.0000 0.0000 0.0000
# 4 0.0000 0.0000 0.0000 11.0818 0.0000 0.0000
# 5 0.0000 0.0000 0.0000 0.0000 28.1600 0.0000
# 6 0.0000 0.0000 0.0000 0.0000 0.0000 29.5796
#
#
#
# Elastic Compliance Matrix: (Units=1/GPa)
#
#
# Indices 1 2 3 4 5 6 
#
# 1 0.012594 -0.005048 -0.002570 0.000000 0.000000 0.000000
# 2 -0.005048 0.015960 -0.005238 0.000000 0.000000 0.000000
# 3 -0.002570 -0.005238 0.014617 0.000000 0.000000 0.000000
# 4 0.000000 0.000000 0.000000 0.090238 0.000000 0.000000
# 5 0.000000 0.000000 0.000000 0.000000 0.035511 0.000000
# 6 0.000000 0.000000 0.000000 0.000000 0.000000 0.033807
#
#
# Mechanical properties :
#
#
# Convention : Reuss Voigt Hill
#
# Bulk Modulus (GPa) = 57.27728 57.62271 57.44999
# Shear Modulus (GPa) = 21.34388 24.72121 23.03255
#
# Velocity S-wave (km/s) = 3.56725 3.83913 3.70568
# Velocity P-wave (km/s) = 7.14955 7.34893 7.24992
#
# Compressibility (1/GPa) = 0.01745893
#
# Stress axis : x y z
#
# Youngs Moduli (GPa) = 79.40510 62.65545 68.41303
#
# Poissons Ratio (x) = 0.31631 0.17580
# Poissons Ratio (y) = 0.40086 0.35835
# Poissons Ratio (z) = 0.20405 0.32819
#
# Static dielectric constant tensor:
#      x y z
#    x 3.216190 0.000000 0.000000 
#    y 0.000000 3.183240 0.000000 
#    z 0.000000 0.000000 1.581420 
# 
# 
# High freq. dielectric constant tensor:
#      x y z
#    x 1.662350 0.000000 0.000000 
#    y 0.000000 1.643080 0.000000 
#    z 0.000000 0.000000 1.616900 
# 
# From -- ./inp_files/40990.got.cif
#   From: 2010.03.12/outbox.cif.g09.slc.cpg/sg67_21_cif.got.tgz:40990.got - 2010.04.10 22:41:39.
