data_PCOD8279626
_publ_section_title
;
Structure prediction by ZEFSAII (Michael W. Deem and Ramdas Pophale) SiO2 
 PCOD8279626
Probable space group: C M M A
;
_chemical_formula_sum "Si O2"
_cell_formula_units_Z 120
_cell_length_a 26.495702
_cell_length_b 8.931394
_cell_length_c 29.419391
_cell_angle_alpha 90.000000
_cell_angle_beta 90.000000
_cell_angle_gamma 90.000000
_cell_volume 6961.909239
_symmetry_space_group_name_H-M "C M M A"
_symmetry_group_IT_number 67
_symmetry_cell_setting 'orthorhombic'
loop_
_space_group_symop_operation_xyz
x,y,z
-x,1/2-y,z
x,-y,-z
-x,1/2+y,-z
-x,-y,-z
x,1/2+y,-z
-x,y,z
x,1/2-y,z
1/2+x,1/2+y,z
1/2-x,-y,z
1/2+x,1/2-y,-z
1/2-x,y,-z
1/2-x,1/2-y,-z
1/2+x,y,-z
1/2-x,1/2+y,z
1/2+x,-y,z
loop_
_atom_site_type_symbol
_atom_site_label
_atom_site_fract_x
_atom_site_fract_y
_atom_site_fract_z
Si Si1 0.697674 0.424092 0.119699
Si Si2 0.801617 0.924541 0.226201
Si Si3 0.603526 0.926824 0.270368
Si Si4 0.000000 0.927546 0.951092
Si Si5 0.942671 0.581549 0.190747
Si Si6 0.939892 0.918615 0.455511
Si Si7 0.597866 0.073159 0.894604
Si Si8 0.942590 0.424542 0.365338
O O1 0.700971 0.250000 0.107791
O O2 0.750000 0.500000 0.104107
O O3 0.688044 0.452744 0.173018
O O4 0.650999 0.496275 0.091193
O O5 0.800026 0.750000 0.237809
O O6 0.750000 0.000000 0.241357
O O7 0.843103 0.005729 0.256518
O O8 0.601769 0.750000 0.261713
O O9 0.592149 0.966474 0.322549
O O10 0.560719 0.007488 0.240245
O O11 0.051004 0.981828 0.925644
O O12 0.000000 0.750000 0.955099
O O13 0.000000 0.000000 0.000000
O O14 0.919067 0.750000 0.190831
O O15 0.912348 0.476271 0.156751
O O16 0.000000 0.589497 0.175006
O O17 0.920219 0.750000 0.456611
O O18 0.000000 0.928905 0.456048
O O19 0.917542 0.000000 0.500000
O O20 0.919525 0.994087 0.409418
O O21 0.604434 0.250000 0.896981
O O22 0.941366 0.250000 0.375847
O O23 0.000000 0.476615 0.355333
#
# Coordination Sequence:
#
# PCOD8279626 Si02
#       8
#    16  16  16   8  16  16  16  16
#     4  10  20  34  54  81 110 142 177 218 265 309
#     4  10  20  33  49  70  98 130 170 210 252 299
#     4  11  21  32  48  68  97 135 170 207 253 300
#     4  10  24  42  62  88 114 146 180 218 267 314
#     4  11  22  33  47  71 102 138 176 212 250 295
#     4   9  16  26  42  62  84 115 156 203 251 296
#     4  11  21  36  57  82 110 140 177 217 259 311
#     4   9  18  31  44  62  91 128 167 203 244 295
#
# _framework density 17.236650999999998
#
# number of rings (size 3 to 8) (size 9 to 14) (size 15 to 20)
#    0.000    1.867    2.000    2.800    0.000    6.133 
#    0.000    1.333    0.000    0.400    0.000    2.800 
#    0.000    0.533    0.000    5.600    0.000    2.667 
#
# Total GULP energy -743981.247191 kJ/mol
# GULP energy per Si atom -12399.687453 kJ/mol
# Density = 1.719742 g / cm^3
# Si number density = 17.236651 Si / 1000 Ang^3
#
#
#
# Elastic Constant Matrix: (Units=GPa)
#
#
# Indices 1 2 3 4 5 6 
#
# 1 114.6251 49.0390 40.2096 0.0000 0.0000 0.0000
# 2 49.0390 93.5275 43.7132 0.0000 0.0000 0.0000
# 3 40.2096 43.7132 80.6983 0.0000 0.0000 0.0000
# 4 0.0000 0.0000 0.0000 28.5071 0.0000 0.0000
# 5 0.0000 0.0000 0.0000 0.0000 13.4067 0.0000
# 6 0.0000 0.0000 0.0000 0.0000 0.0000 28.6769
#
#
#
# Elastic Compliance Matrix: (Units=1/GPa)
#
#
# Indices 1 2 3 4 5 6 
#
# 1 0.011911 -0.004648 -0.003417 0.000000 0.000000 0.000000
# 2 -0.004648 0.016131 -0.006422 0.000000 0.000000 0.000000
# 3 -0.003417 -0.006422 0.017573 0.000000 0.000000 0.000000
# 4 0.000000 0.000000 0.000000 0.035079 0.000000 0.000000
# 5 0.000000 0.000000 0.000000 0.000000 0.074589 0.000000
# 6 0.000000 0.000000 0.000000 0.000000 0.000000 0.034871
#
#
# Mechanical properties :
#
#
# Convention : Reuss Voigt Hill
#
# Bulk Modulus (GPa) = 60.09320 61.64163 60.86742
# Shear Modulus (GPa) = 22.25424 24.51074 23.38249
#
# Velocity S-wave (km/s) = 3.59709 3.77505 3.68714
# Velocity P-wave (km/s) = 7.22436 7.40547 7.31547
#
# Compressibility (1/GPa) = 0.01664082
#
# Stress axis : x y z
#
# Youngs Moduli (GPa) = 83.95258 61.99367 56.90532
#
# Poissons Ratio (x) = 0.28817 0.19446
# Poissons Ratio (y) = 0.39024 0.36543
# Poissons Ratio (z) = 0.28688 0.39810
#
# Static dielectric constant tensor:
#      x y z
#    x 3.210750 0.000000 0.000000 
#    y 0.000000 3.320860 0.000000 
#    z 0.000000 0.000000 3.075310 
# 
# 
# High freq. dielectric constant tensor:
#      x y z
#    x 1.648790 0.000000 0.000000 
#    y 0.000000 1.680640 0.000000 
#    z 0.000000 0.000000 1.641290 
# 
# From -- ./inp_files/44997.got.cif
#   From: 2010.03.12/outbox.cif.g09.slc.cpg/sg67_23_cif.got.tgz:44997.got - 2010.04.10 22:41:39.
