data_PCOD8279730
_publ_section_title
;
Structure prediction by ZEFSAII (Michael W. Deem and Ramdas Pophale) SiO2 
 PCOD8279730
Probable space group: C M M A
;
_chemical_formula_sum "Si O2"
_cell_formula_units_Z 112
_cell_length_a 25.994568
_cell_length_b 15.291314
_cell_length_c 15.563219
_cell_angle_alpha 90.000000
_cell_angle_beta 90.000000
_cell_angle_gamma 90.000000
_cell_volume 6186.241064
_symmetry_space_group_name_H-M "C M M A"
_symmetry_group_IT_number 67
_symmetry_cell_setting 'orthorhombic'
loop_
_space_group_symop_operation_xyz
x,y,z
-x,1/2-y,z
x,-y,-z
-x,1/2+y,-z
-x,-y,-z
x,1/2+y,-z
-x,y,z
x,1/2-y,z
1/2+x,1/2+y,z
1/2-x,-y,z
1/2+x,1/2-y,-z
1/2-x,y,-z
1/2-x,1/2-y,-z
1/2+x,y,-z
1/2-x,1/2+y,z
1/2+x,-y,z
loop_
_atom_site_type_symbol
_atom_site_label
_atom_site_fract_x
_atom_site_fract_y
_atom_site_fract_z
Si Si1 0.715350 0.915714 0.755806
Si Si2 0.154050 0.000711 0.100443
Si Si3 0.588815 0.352339 0.684307
Si Si4 0.316085 0.156576 0.790546
Si Si5 0.885530 0.354599 0.673999
Si Si6 0.057600 0.987780 0.206366
Si Si7 0.442806 0.352733 0.496117
O O1 0.756419 0.837920 0.762681
O O2 0.672694 0.890646 0.684859
O O3 0.750000 0.000000 0.729258
O O4 0.686610 0.927707 0.847727
O O5 0.175988 0.092855 0.130647
O O6 0.093637 0.993020 0.122189
O O7 0.163901 0.000000 0.000000
O O8 0.571956 0.250000 0.697935
O O9 0.648755 0.368012 0.707970
O O10 0.556914 0.418971 0.743973
O O11 0.580736 0.383268 0.586688
O O12 0.333590 0.250000 0.825770
O O13 0.888564 0.250000 0.691263
O O14 0.923723 0.405741 0.737137
O O15 0.903628 0.380952 0.578486
O O16 0.000000 0.968030 0.175061
O O17 0.500000 0.394132 0.482882
O O18 0.448823 0.250000 0.495647
#
# Coordination Sequence:
#
# PCOD8279730 Si02
#       7
#    16  16  16  16  16  16  16
#     4   9  18  33  53  73  97 130 166 205 251 300
#     4   9  19  35  51  71  99 125 157 206 254 299
#     4   9  18  33  52  76 104 131 167 216 260 296
#     4   9  17  31  52  74  96 124 159 201 250 302
#     4  10  20  34  51  74 107 141 172 206 244 294
#     4  10  20  33  52  75  99 135 174 205 249 304
#     4   9  17  30  50  75 103 136 172 210 250 291
#
# _framework density 18.104693999999999
#
# number of rings (size 3 to 8) (size 9 to 14) (size 15 to 20)
#    0.000    2.714    0.000    2.143    0.000    5.143 
#    0.000    6.429    0.000    7.714    0.000    6.000 
#    0.000    0.000    0.000    0.000    0.000    0.000 
#
# Total GULP energy -693828.667803 kJ/mol
# GULP energy per Si atom -12389.797639 kJ/mol
# Density = 1.806349 g / cm^3
# Si number density = 18.104694 Si / 1000 Ang^3
#
#
#
# Elastic Constant Matrix: (Units=GPa)
#
#
# Indices 1 2 3 4 5 6 
#
# 1 151.7345 26.6727 55.4057 0.0000 0.0000 0.0000
# 2 26.6727 65.2743 21.8889 0.0000 0.0000 0.0000
# 3 55.4057 21.8889 105.9964 0.0000 0.0000 0.0000
# 4 0.0000 0.0000 0.0000 18.8716 0.0000 0.0000
# 5 0.0000 0.0000 0.0000 0.0000 11.0540 0.0000
# 6 0.0000 0.0000 0.0000 0.0000 0.0000 11.6044
#
#
#
# Elastic Compliance Matrix: (Units=1/GPa)
#
#
# Indices 1 2 3 4 5 6 
#
# 1 0.008407 -0.002108 -0.003959 0.000000 0.000000 0.000000
# 2 -0.002108 0.016988 -0.002407 0.000000 0.000000 0.000000
# 3 -0.003959 -0.002407 0.012001 0.000000 0.000000 0.000000
# 4 0.000000 0.000000 0.000000 0.052990 0.000000 0.000000
# 5 0.000000 0.000000 0.000000 0.000000 0.090465 0.000000
# 6 0.000000 0.000000 0.000000 0.000000 0.000000 0.086174
#
#
# Mechanical properties :
#
#
# Convention : Reuss Voigt Hill
#
# Bulk Modulus (GPa) = 48.90150 58.99331 53.94740
# Shear Modulus (GPa) = 17.19474 22.90854 20.05164
#
# Velocity S-wave (km/s) = 3.08513 3.56102 3.33158
# Velocity P-wave (km/s) = 6.30553 7.04010 6.68292
#
# Compressibility (1/GPa) = 0.02044927
#
# Stress axis : x y z
#
# Youngs Moduli (GPa) = 118.95479 58.86452 83.32878
#
# Poissons Ratio (x) = 0.12406 0.32990
# Poissons Ratio (y) = 0.25070 0.20053
# Poissons Ratio (z) = 0.47094 0.14166
#
# Static dielectric constant tensor:
#      x y z
#    x 3.662260 0.000000 0.000000 
#    y 0.000000 3.474500 0.000000 
#    z 0.000000 0.000000 3.112970 
# 
# 
# High freq. dielectric constant tensor:
#      x y z
#    x 1.713990 0.000000 0.000000 
#    y 0.000000 1.704820 0.000000 
#    z 0.000000 0.000000 1.669230 
# 
# From -- ./inp_files/30128.got.cif
#   From: 2010.03.12/outbox.cif.g09.slc.cpg/sg67_16_cif.got.tgz:30128.got - 2010.04.10 22:41:39.
