data_PCOD8279019
_publ_section_title
;
Structure prediction by ZEFSAII (Michael W. Deem and Ramdas Pophale) SiO2 
 PCOD8279019
Probable space group: C M M A
;
_chemical_formula_sum "Si O2"
_cell_formula_units_Z 112
_cell_length_a 26.653060
_cell_length_b 14.800234
_cell_length_c 16.696811
_cell_angle_alpha 90.000000
_cell_angle_beta 90.000000
_cell_angle_gamma 90.000000
_cell_volume 6586.416495
_symmetry_space_group_name_H-M "C M M A"
_symmetry_group_IT_number 67
_symmetry_cell_setting 'orthorhombic'
loop_
_space_group_symop_operation_xyz
x,y,z
-x,1/2-y,z
x,-y,-z
-x,1/2+y,-z
-x,-y,-z
x,1/2+y,-z
-x,y,z
x,1/2-y,z
1/2+x,1/2+y,z
1/2-x,-y,z
1/2+x,1/2-y,-z
1/2-x,y,-z
1/2-x,1/2-y,-z
1/2+x,y,-z
1/2-x,1/2+y,z
1/2+x,-y,z
loop_
_atom_site_type_symbol
_atom_site_label
_atom_site_fract_x
_atom_site_fract_y
_atom_site_fract_z
Si Si1 0.396654 0.353573 0.201851
Si Si2 0.630547 0.486871 0.588839
Si Si3 0.319310 0.852226 0.672831
Si Si4 0.559568 0.350918 0.865856
Si Si5 0.057895 0.978601 0.725694
Si Si6 0.444136 0.643444 0.959498
Si Si7 0.722870 0.646267 0.416933
O O1 0.414457 0.250000 0.213200
O O2 0.339032 0.365873 0.234759
O O3 0.433426 0.416145 0.254058
O O4 0.403145 0.381842 0.108540
O O5 0.609347 0.500000 0.500000
O O6 0.648512 0.585226 0.615307
O O7 0.586029 0.450568 0.644594
O O8 0.675445 0.416175 0.595179
O O9 0.330316 0.750000 0.644680
O O10 0.260240 0.871919 0.658935
O O11 0.500000 0.346187 0.861069
O O12 0.582110 0.250000 0.853091
O O13 0.580599 0.417342 0.797546
O O14 0.574196 0.392747 0.953450
O O15 0.000000 0.958862 0.711444
O O16 0.500000 0.604953 0.936814
O O17 0.449010 0.750000 0.969808
O O18 0.705233 0.750000 0.419171
O O19 0.750000 0.619741 0.500000
#
# Coordination Sequence:
#
# PCOD8279019 Si02
#       7
#    16  16  16  16  16  16  16
#     4   9  17  29  45  68  99 128 157 192 232 282
#     4  11  21  32  50  70  93 124 158 200 240 284
#     4   9  18  31  47  71  99 123 147 187 244 294
#     4   8  15  29  46  64  90 123 162 207 243 272
#     4  10  21  33  45  66  95 131 167 194 233 282
#     4   8  13  23  43  68  91 122 162 199 236 276
#     4  10  19  32  53  76  93 113 148 196 246 291
#
# _framework density 17.004694000000001
#
# number of rings (size 3 to 8) (size 9 to 14) (size 15 to 20)
#    0.000    2.714    1.429    1.714    0.000    2.286 
#    0.000    2.143    0.000    0.000    0.000    5.000 
#    0.000   10.286    0.000    2.000    0.000    2.571 
#
# Total GULP energy -693883.859866 kJ/mol
# GULP energy per Si atom -12390.783212 kJ/mol
# Density = 1.696599 g / cm^3
# Si number density = 17.004694 Si / 1000 Ang^3
#
#
#
# Elastic Constant Matrix: (Units=GPa)
#
#
# Indices 1 2 3 4 5 6 
#
# 1 75.3651 33.2766 69.5467 0.0000 0.0000 0.0000
# 2 33.2766 60.7839 45.5891 0.0000 0.0000 0.0000
# 3 69.5467 45.5891 153.3121 0.0000 0.0000 0.0000
# 4 0.0000 0.0000 0.0000 23.2196 0.0000 0.0000
# 5 0.0000 0.0000 0.0000 0.0000 25.5224 0.0000
# 6 0.0000 0.0000 0.0000 0.0000 0.0000 14.2963
#
#
#
# Elastic Compliance Matrix: (Units=1/GPa)
#
#
# Indices 1 2 3 4 5 6 
#
# 1 0.024717 -0.006592 -0.009252 0.000000 0.000000 0.000000
# 2 -0.006592 0.022932 -0.003829 0.000000 0.000000 0.000000
# 3 -0.009252 -0.003829 0.011858 0.000000 0.000000 0.000000
# 4 0.000000 0.000000 0.000000 0.043067 0.000000 0.000000
# 5 0.000000 0.000000 0.000000 0.000000 0.039181 0.000000
# 6 0.000000 0.000000 0.000000 0.000000 0.000000 0.069948
#
#
# Mechanical properties :
#
#
# Convention : Reuss Voigt Hill
#
# Bulk Modulus (GPa) = 49.59970 65.14288 57.37129
# Shear Modulus (GPa) = 19.39701 22.01091 20.70396
#
# Velocity S-wave (km/s) = 3.38107 3.60168 3.49312
# Velocity P-wave (km/s) = 6.66886 7.46244 7.07679
#
# Compressibility (1/GPa) = 0.02016141
#
# Stress axis : x y z
#
# Youngs Moduli (GPa) = 40.45725 43.60645 84.32978
#
# Poissons Ratio (x) = 0.28747 0.78024
# Poissons Ratio (y) = 0.26671 0.32287
# Poissons Ratio (z) = 0.37432 0.16696
#
# Static dielectric constant tensor:
#      x y z
#    x 2.980030 0.000000 0.000000 
#    y 0.000000 3.316420 0.000000 
#    z 0.000000 0.000000 3.535140 
# 
# 
# High freq. dielectric constant tensor:
#      x y z
#    x 1.608810 0.000000 0.000000 
#    y 0.000000 1.666590 0.000000 
#    z 0.000000 0.000000 1.654180 
# 
# From -- ./inp_files/27883.got.cif
#   From: 2010.03.12/outbox.cif.g09.slc.cpg/sg67_14_cif.got.tgz:27883.got - 2010.04.10 22:41:39.
