data_PCOD8279525
_publ_section_title
;
Structure prediction by ZEFSAII (Michael W. Deem and Ramdas Pophale) SiO2 
 PCOD8279525
Probable space group: C M M A
;
_chemical_formula_sum "Si O2"
_cell_formula_units_Z 104
_cell_length_a 24.485798
_cell_length_b 8.986894
_cell_length_c 26.497529
_cell_angle_alpha 90.000000
_cell_angle_beta 90.000000
_cell_angle_gamma 90.000000
_cell_volume 5830.814938
_symmetry_space_group_name_H-M "C M M A"
_symmetry_group_IT_number 67
_symmetry_cell_setting 'orthorhombic'
loop_
_space_group_symop_operation_xyz
x,y,z
-x,1/2-y,z
x,-y,-z
-x,1/2+y,-z
-x,-y,-z
x,1/2+y,-z
-x,y,z
x,1/2-y,z
1/2+x,1/2+y,z
1/2-x,-y,z
1/2+x,1/2-y,-z
1/2-x,y,-z
1/2-x,1/2-y,-z
1/2+x,y,-z
1/2-x,1/2+y,z
1/2+x,-y,z
loop_
_atom_site_type_symbol
_atom_site_label
_atom_site_fract_x
_atom_site_fract_y
_atom_site_fract_z
Si Si1 0.617587 0.076056 0.144719
Si Si2 0.912272 0.925208 0.365361
Si Si3 0.500000 0.925063 0.826579
Si Si4 0.500000 0.926894 0.713779
Si Si5 0.306457 0.926283 0.947446
Si Si6 0.500000 0.423157 0.446627
Si Si7 0.694873 0.076162 0.662583
Si Si8 0.194982 0.423732 0.220554
O O1 0.623917 0.250000 0.156662
O O2 0.553935 0.026809 0.142295
O O3 0.645967 0.035001 0.091999
O O4 0.643719 0.986829 0.190592
O O5 0.900840 0.750000 0.362409
O O6 0.945899 0.980054 0.316036
O O7 0.946213 0.968068 0.415212
O O8 0.855503 0.011960 0.368900
O O9 0.500000 0.750000 0.819143
O O10 0.500000 0.995760 0.770142
O O11 0.500000 0.750000 0.713974
O O12 0.298089 0.750000 0.954136
O O13 0.250000 0.000000 0.928425
O O14 0.324462 0.000000 0.000000
O O15 0.500000 0.250000 0.456635
O O16 0.500000 0.500000 0.500000
O O17 0.699867 0.250000 0.653016
O O18 0.685772 0.036877 0.721175
O O19 0.750000 0.000000 0.642550
O O20 0.200719 0.250000 0.210626
O O21 0.250000 0.500000 0.199912
#
# Coordination Sequence:
#
# PCOD8279525 Si02
#       8
#    16  16   8   8  16   8  16  16
#     4  10  20  33  51  73  97 128 165 201 240 288
#     4   9  17  31  51  75 101 132 171 210 247 290
#     4   9  17  30  48  71  99 132 166 195 228 280
#     4   8  14  26  48  73  97 129 166 202 238 277
#     4  10  20  34  53  75  94 116 150 196 248 298
#     4   9  19  34  54  80 106 133 168 211 259 303
#     4  10  20  32  47  71 102 137 171 203 243 293
#     4  10  20  32  48  72 102 133 166 203 245 292
#
# _framework density 17.836272999999998
#
# number of rings (size 3 to 8) (size 9 to 14) (size 15 to 20)
#    0.000    2.462    0.000    4.154    0.000    6.154 
#    0.000    1.923    0.000    5.077    0.000    3.231 
#    0.000    0.000    0.000    0.000    0.000    0.000 
#
# Total GULP energy -644811.997168 kJ/mol
# GULP energy per Si atom -12400.230715 kJ/mol
# Density = 1.779568 g / cm^3
# Si number density = 17.836273 Si / 1000 Ang^3
#
#
#
# Elastic Constant Matrix: (Units=GPa)
#
#
# Indices 1 2 3 4 5 6 
#
# 1 170.5676 54.9929 73.9109 0.0000 0.0000 0.0000
# 2 54.9929 66.7564 40.9567 0.0000 0.0000 0.0000
# 3 73.9109 40.9567 101.9803 0.0000 0.0000 0.0000
# 4 0.0000 0.0000 0.0000 25.7550 0.0000 0.0000
# 5 0.0000 0.0000 0.0000 0.0000 17.0660 0.0000
# 6 0.0000 0.0000 0.0000 0.0000 0.0000 26.8629
#
#
#
# Elastic Compliance Matrix: (Units=1/GPa)
#
#
# Indices 1 2 3 4 5 6 
#
# 1 0.009591 -0.004825 -0.005013 0.000000 0.000000 0.000000
# 2 -0.004825 0.022305 -0.005461 0.000000 0.000000 0.000000
# 3 -0.005013 -0.005461 0.015632 0.000000 0.000000 0.000000
# 4 0.000000 0.000000 0.000000 0.038827 0.000000 0.000000
# 5 0.000000 0.000000 0.000000 0.000000 0.058596 0.000000
# 6 0.000000 0.000000 0.000000 0.000000 0.000000 0.037226
#
#
# Mechanical properties :
#
#
# Convention : Reuss Voigt Hill
#
# Bulk Modulus (GPa) = 59.06773 75.44728 67.25750
# Shear Modulus (GPa) = 22.89174 25.23305 24.06240
#
# Velocity S-wave (km/s) = 3.58640 3.76534 3.67695
# Velocity P-wave (km/s) = 7.09494 7.82914 7.47106
#
# Compressibility (1/GPa) = 0.01692972
#
# Stress axis : x y z
#
# Youngs Moduli (GPa) = 104.26736 44.83279 63.96974
#
# Poissons Ratio (x) = 0.21632 0.32069
# Poissons Ratio (y) = 0.50309 0.34934
# Poissons Ratio (z) = 0.52271 0.24484
#
# Static dielectric constant tensor:
#      x y z
#    x 3.466390 0.000000 0.000000 
#    y 0.000000 3.140540 0.000000 
#    z 0.000000 0.000000 2.987970 
# 
# 
# High freq. dielectric constant tensor:
#      x y z
#    x 1.696240 0.000000 0.000000 
#    y 0.000000 1.679220 0.000000 
#    z 0.000000 0.000000 1.669640 
# 
# From -- ./inp_files/44887.got.cif
#   From: 2010.03.12/outbox.cif.g09.slc.cpg/sg67_23_cif.got.tgz:44887.got - 2010.04.10 22:41:39.
