data_PCOD8279045
_publ_section_title
;
Structure prediction by ZEFSAII (Michael W. Deem and Ramdas Pophale) SiO2 
 PCOD8279045
Probable space group: C M M A
;
_chemical_formula_sum "Si O2"
_cell_formula_units_Z 112
_cell_length_a 13.926666
_cell_length_b 14.125121
_cell_length_c 28.634285
_cell_angle_alpha 90.000000
_cell_angle_beta 90.000000
_cell_angle_gamma 90.000000
_cell_volume 5632.817495
_symmetry_space_group_name_H-M "C M M A"
_symmetry_group_IT_number 67
_symmetry_cell_setting 'orthorhombic'
loop_
_space_group_symop_operation_xyz
x,y,z
-x,1/2-y,z
x,-y,-z
-x,1/2+y,-z
-x,-y,-z
x,1/2+y,-z
-x,y,z
x,1/2-y,z
1/2+x,1/2+y,z
1/2-x,-y,z
1/2+x,1/2-y,-z
1/2-x,y,-z
1/2-x,1/2-y,-z
1/2+x,y,-z
1/2-x,1/2+y,z
1/2+x,-y,z
loop_
_atom_site_type_symbol
_atom_site_label
_atom_site_fract_x
_atom_site_fract_y
_atom_site_fract_z
Si Si1 0.110556 0.007418 0.054355
Si Si2 0.771557 0.141607 0.793424
Si Si3 0.110290 0.359443 0.339455
Si Si4 0.603315 0.896802 0.515325
Si Si5 0.888383 0.471160 0.246042
Si Si6 0.269018 0.858572 0.902624
Si Si7 0.776672 0.854037 0.571669
O O1 0.173691 0.087069 0.080223
O O2 0.000000 0.031640 0.064012
O O3 0.136752 0.903980 0.074123
O O4 0.134569 0.000000 0.000000
O O5 0.785094 0.250000 0.776721
O O6 0.662083 0.106821 0.786752
O O7 0.789968 0.131190 0.847985
O O8 0.842431 0.075078 0.762667
O O9 0.136189 0.250000 0.325388
O O10 0.130066 0.434464 0.298468
O O11 0.171545 0.398454 0.383273
O O12 0.000000 0.363124 0.354831
O O13 0.500000 0.848945 0.529132
O O14 0.678207 0.908034 0.558410
O O15 0.651911 0.842540 0.472333
O O16 0.578193 0.000000 0.500000
O O17 0.000000 0.475076 0.233169
O O18 0.258618 0.750000 0.918001
O O19 0.742658 0.750000 0.585714
#
# Coordination Sequence:
#
# PCOD8279045 Si02
#       7
#    16  16  16  16  16  16  16
#     4  10  21  36  55  82 116 153 198 247 288 336
#     4  10  22  38  57  88 120 147 188 243 293 345
#     4   9  18  33  55  84 112 139 181 232 279 335
#     4  10  20  34  50  74 109 144 180 220 260 317
#     4  10  20  37  61  85 112 152 191 232 290 349
#     4  10  21  37  57  81 115 155 193 236 293 351
#     4  10  19  32  54  80 105 137 175 221 274 321
#
# _framework density 19.883478
#
# number of rings (size 3 to 8) (size 9 to 14) (size 15 to 20)
#    0.000    2.143    0.000    5.143    0.000    6.857 
#    5.143    4.286    0.000    0.000    0.000    4.000 
#    0.000    0.000    0.000    0.000    0.000    0.000 
#
# Total GULP energy -693938.838040 kJ/mol
# GULP energy per Si atom -12391.764965 kJ/mol
# Density = 1.983822 g / cm^3
# Si number density = 19.883478 Si / 1000 Ang^3
#
#
#
# Elastic Constant Matrix: (Units=GPa)
#
#
# Indices 1 2 3 4 5 6 
#
# 1 126.5906 53.3635 50.6193 0.0000 0.0000 0.0000
# 2 53.3635 133.6830 56.0568 0.0000 0.0000 0.0000
# 3 50.6193 56.0568 99.0109 0.0000 0.0000 0.0000
# 4 0.0000 0.0000 0.0000 27.2269 0.0000 0.0000
# 5 0.0000 0.0000 0.0000 0.0000 24.1717 0.0000
# 6 0.0000 0.0000 0.0000 0.0000 0.0000 25.8234
#
#
#
# Elastic Compliance Matrix: (Units=1/GPa)
#
#
# Indices 1 2 3 4 5 6 
#
# 1 0.010557 -0.002558 -0.003949 0.000000 0.000000 0.000000
# 2 -0.002558 0.010429 -0.004597 0.000000 0.000000 0.000000
# 3 -0.003949 -0.004597 0.014721 0.000000 0.000000 0.000000
# 4 0.000000 0.000000 0.000000 0.036728 0.000000 0.000000
# 5 0.000000 0.000000 0.000000 0.000000 0.041371 0.000000
# 6 0.000000 0.000000 0.000000 0.000000 0.000000 0.038725
#
#
# Mechanical properties :
#
#
# Convention : Reuss Voigt Hill
#
# Bulk Modulus (GPa) = 74.07584 75.48486 74.78035
# Shear Modulus (GPa) = 27.89580 28.72738 28.31159
#
# Velocity S-wave (km/s) = 3.74968 3.80516 3.77752
# Velocity P-wave (km/s) = 7.48883 7.57309 7.53108
#
# Compressibility (1/GPa) = 0.01349968
#
# Stress axis : x y z
#
# Youngs Moduli (GPa) = 94.72486 95.88539 67.92898
#
# Poissons Ratio (x) = 0.24530 0.26824
# Poissons Ratio (y) = 0.24233 0.31225
# Poissons Ratio (z) = 0.37405 0.44076
#
# Static dielectric constant tensor:
#      x y z
#    x 3.759400 0.000000 0.000000 
#    y 0.000000 3.702490 0.000000 
#    z 0.000000 0.000000 3.626010 
# 
# 
# High freq. dielectric constant tensor:
#      x y z
#    x 1.777780 0.000000 0.000000 
#    y 0.000000 1.778040 0.000000 
#    z 0.000000 0.000000 1.769180 
# 
# From -- ./inp_files/44377.got.cif
#   From: 2010.03.12/outbox.cif.g09.slc.cpg/sg67_23_cif.got.tgz:44377.got - 2010.04.10 22:41:39.
