data_PCOD8279078
_publ_section_title
;
Structure prediction by ZEFSAII (Michael W. Deem and Ramdas Pophale) SiO2 
 PCOD8279078
Probable space group: C M M A
;
_chemical_formula_sum "Si O2"
_cell_formula_units_Z 72
_cell_length_a 25.160682
_cell_length_b 8.910893
_cell_length_c 19.670829
_cell_angle_alpha 90.000000
_cell_angle_beta 90.000000
_cell_angle_gamma 90.000000
_cell_volume 4410.281400
_symmetry_space_group_name_H-M "C M M A"
_symmetry_group_IT_number 67
_symmetry_cell_setting 'orthorhombic'
loop_
_space_group_symop_operation_xyz
x,y,z
-x,1/2-y,z
x,-y,-z
-x,1/2+y,-z
-x,-y,-z
x,1/2+y,-z
-x,y,z
x,1/2-y,z
1/2+x,1/2+y,z
1/2-x,-y,z
1/2+x,1/2-y,-z
1/2-x,y,-z
1/2-x,1/2-y,-z
1/2+x,y,-z
1/2-x,1/2+y,z
1/2+x,-y,z
loop_
_atom_site_type_symbol
_atom_site_label
_atom_site_fract_x
_atom_site_fract_y
_atom_site_fract_z
Si Si1 0.939699 0.424642 0.298785
Si Si2 0.563286 0.580784 0.566691
Si Si3 0.306563 0.929033 0.929298
Si Si4 0.395971 0.074173 0.845743
Si Si5 0.500000 0.573682 0.072854
O O1 0.939632 0.250000 0.315290
O O2 0.914680 0.506691 0.364224
O O3 0.903823 0.461781 0.233647
O O4 0.000000 0.478653 0.284098
O O5 0.586870 0.500000 0.500000
O O6 0.500000 0.567874 0.566497
O O7 0.583446 0.750000 0.564600
O O8 0.301956 0.750000 0.936113
O O9 0.250000 0.000000 0.910382
O O10 0.347063 0.973473 0.870126
O O11 0.327377 0.000000 0.000000
O O12 0.384339 0.250000 0.857773
O O13 0.448268 0.021962 0.885972
O O14 0.500000 0.750000 0.063293
O O15 0.500000 0.500000 0.000000
#
# Coordination Sequence:
#
# PCOD8279078 Si02
#       5
#    16  16  16  16   8
#     4   9  16  28  45  64  91 127 159 190 231 278
#     4   9  16  25  38  58  85 119 159 198 231 271
#     4  11  22  37  55  73  92 119 156 201 248 291
#     4  10  19  33  50  70  97 127 159 194 236 286
#     4  10  20  32  46  66  93 126 159 190 229 278
#
# _framework density 16.325488
#
# number of rings (size 3 to 8) (size 9 to 14) (size 15 to 20)
#    0.000    2.222    1.111    4.000    0.000    6.222 
#    0.000    0.000    0.000    0.000    0.000    0.000 
#    0.000    0.889    0.000    9.333    0.000    4.444 
#
# Total GULP energy -446413.117781 kJ/mol
# GULP energy per Si atom -12400.364383 kJ/mol
# Density = 1.628833 g / cm^3
# Si number density = 16.325488 Si / 1000 Ang^3
#
#
#
# Elastic Constant Matrix: (Units=GPa)
#
#
# Indices 1 2 3 4 5 6 
#
# 1 59.0248 38.0416 47.3962 0.0000 0.0000 0.0000
# 2 38.0416 98.7759 69.0319 0.0000 0.0000 0.0000
# 3 47.3962 69.0319 143.2866 0.0000 0.0000 0.0000
# 4 0.0000 0.0000 0.0000 32.8939 0.0000 0.0000
# 5 0.0000 0.0000 0.0000 0.0000 11.0836 0.0000
# 6 0.0000 0.0000 0.0000 0.0000 0.0000 19.4681
#
#
#
# Elastic Compliance Matrix: (Units=1/GPa)
#
#
# Indices 1 2 3 4 5 6 
#
# 1 0.025115 -0.005829 -0.005499 0.000000 0.000000 0.000000
# 2 -0.005829 0.016616 -0.006077 0.000000 0.000000 0.000000
# 3 -0.005499 -0.006077 0.011726 0.000000 0.000000 0.000000
# 4 0.000000 0.000000 0.000000 0.030401 0.000000 0.000000
# 5 0.000000 0.000000 0.000000 0.000000 0.090224 0.000000
# 6 0.000000 0.000000 0.000000 0.000000 0.000000 0.051366
#
#
# Mechanical properties :
#
#
# Convention : Reuss Voigt Hill
#
# Bulk Modulus (GPa) = 53.63128 67.78073 60.70600
# Shear Modulus (GPa) = 18.76366 22.46362 20.61364
#
# Velocity S-wave (km/s) = 3.39388 3.71345 3.55726
# Velocity P-wave (km/s) = 6.94842 7.74563 7.35783
#
# Compressibility (1/GPa) = 0.01864584
#
# Stress axis : x y z
#
# Youngs Moduli (GPa) = 39.81744 60.18293 85.28281
#
# Poissons Ratio (x) = 0.35082 0.46897
# Poissons Ratio (y) = 0.23211 0.51826
# Poissons Ratio (z) = 0.21895 0.36573
#
# Static dielectric constant tensor:
#      x y z
#    x 2.739900 0.000000 0.000000 
#    y 0.000000 3.082450 0.000000 
#    z 0.000000 0.000000 3.198260 
# 
# 
# High freq. dielectric constant tensor:
#      x y z
#    x 1.578570 0.000000 0.000000 
#    y 0.000000 1.633290 0.000000 
#    z 0.000000 0.000000 1.637020 
# 
# From -- ./inp_files/31952.got.cif
#   From: 2010.03.12/outbox.cif.g09.slc.cpg/sg67_16_cif.got.tgz:31952.got - 2010.04.10 22:41:39.
