data_PCOD8279230
_publ_section_title
;
Structure prediction by ZEFSAII (Michael W. Deem and Ramdas Pophale) SiO2 
 PCOD8279230
Probable space group: C M M A
;
_chemical_formula_sum "Si O2"
_cell_formula_units_Z 96
_cell_length_a 30.727209
_cell_length_b 33.669320
_cell_length_c 4.951612
_cell_angle_alpha 90.000000
_cell_angle_beta 90.000000
_cell_angle_gamma 90.000000
_cell_volume 5122.760669
_symmetry_space_group_name_H-M "C M M A"
_symmetry_group_IT_number 67
_symmetry_cell_setting 'orthorhombic'
loop_
_space_group_symop_operation_xyz
x,y,z
-x,1/2-y,z
x,-y,-z
-x,1/2+y,-z
-x,-y,-z
x,1/2+y,-z
-x,y,z
x,1/2-y,z
1/2+x,1/2+y,z
1/2-x,-y,z
1/2+x,1/2-y,-z
1/2-x,y,-z
1/2-x,1/2-y,-z
1/2+x,y,-z
1/2-x,1/2+y,z
1/2+x,-y,z
loop_
_atom_site_type_symbol
_atom_site_label
_atom_site_fract_x
_atom_site_fract_y
_atom_site_fract_z
Si Si1 0.592158 0.647588 0.108758
Si Si2 0.000000 0.130172 0.218816
Si Si3 0.373143 0.605767 0.613749
Si Si4 0.000000 0.575748 0.268513
Si Si5 0.169188 0.203622 0.122612
Si Si6 0.296243 0.838256 0.624915
Si Si7 0.413265 0.472615 0.249571
O O1 0.543844 0.657003 0.226094
O O2 0.613696 0.614777 0.305875
O O3 0.619813 0.688031 0.087877
O O4 0.592650 0.628212 0.811073
O O5 0.000000 0.093280 0.427399
O O6 0.000000 0.113454 0.919725
O O7 0.323986 0.621316 0.654566
O O8 0.375038 0.558865 0.677805
O O9 0.958113 0.549879 0.195120
O O10 0.170068 0.250000 0.067185
O O11 0.182455 0.194226 0.427952
O O12 0.203616 0.182408 0.919450
O O13 0.250000 0.850332 0.500000
O O14 0.422290 0.500000 0.500000
O O15 0.398748 0.500000 0.000000
#
# Coordination Sequence:
#
# PCOD8279230 Si02
#       7
#    16   8  16   8  16  16  16
#     4  10  19  34  53  73 102 145 184 213 254 309
#     4  12  18  33  55  72 100 145 190 221 250 302
#     4  10  20  37  52  74 105 139 177 215 260 319
#     4  12  22  33  50  76 109 135 180 229 261 308
#     4  10  21  35  54  82 115 138 166 217 273 319
#     4  10  21  36  59  83 104 137 176 214 264 325
#     4  12  22  34  50  76 110 141 172 218 273 316
#
# _framework density 18.739894
#
# number of rings (size 3 to 8) (size 9 to 14) (size 15 to 20)
#    0.000    1.333    3.333    3.500    0.000    2.000 
#    0.000    0.417    0.000    0.500    0.000    9.333 
#    0.000    0.000    0.000    0.000    0.000    0.000 
#
# Total GULP energy -595019.457605 kJ/mol
# GULP energy per Si atom -12396.238700 kJ/mol
# Density = 1.869724 g / cm^3
# Si number density = 18.739894 Si / 1000 Ang^3
#
#
#
# Elastic Constant Matrix: (Units=GPa)
#
#
# Indices 1 2 3 4 5 6 
#
# 1 94.4341 48.8407 6.3718 0.0000 0.0000 0.0000
# 2 48.8407 77.4653 9.7126 0.0000 0.0000 0.0000
# 3 6.3718 9.7126 71.6702 0.0000 0.0000 0.0000
# 4 0.0000 0.0000 0.0000 24.8840 0.0000 0.0000
# 5 0.0000 0.0000 0.0000 0.0000 23.6838 0.0000
# 6 0.0000 0.0000 0.0000 0.0000 0.0000 17.6544
#
#
#
# Elastic Compliance Matrix: (Units=1/GPa)
#
#
# Indices 1 2 3 4 5 6 
#
# 1 0.015713 -0.009900 -0.000055 0.000000 0.000000 0.000000
# 2 -0.009900 0.019370 -0.001745 0.000000 0.000000 0.000000
# 3 -0.000055 -0.001745 0.014194 0.000000 0.000000 0.000000
# 4 0.000000 0.000000 0.000000 0.040186 0.000000 0.000000
# 5 0.000000 0.000000 0.000000 0.000000 0.042223 0.000000
# 6 0.000000 0.000000 0.000000 0.000000 0.000000 0.056643
#
#
# Mechanical properties :
#
#
# Convention : Reuss Voigt Hill
#
# Bulk Modulus (GPa) = 38.64474 41.49107 40.06791
# Shear Modulus (GPa) = 22.69058 25.15408 23.92233
#
# Velocity S-wave (km/s) = 3.48345 3.66768 3.57675
# Velocity P-wave (km/s) = 6.07006 6.33438 6.20363
#
# Compressibility (1/GPa) = 0.02587675
#
# Stress axis : x y z
#
# Youngs Moduli (GPa) = 63.63991 51.62719 70.45150
#
# Poissons Ratio (x) = 0.51112 0.00390
# Poissons Ratio (y) = 0.63004 0.12292
# Poissons Ratio (z) = 0.00352 0.09008
#
# Static dielectric constant tensor:
#      x y z
#    x 3.553330 0.000000 0.000000 
#    y 0.000000 3.233480 0.000000 
#    z 0.000000 0.000000 3.638720 
# 
# 
# High freq. dielectric constant tensor:
#      x y z
#    x 1.714350 0.000000 0.000000 
#    y 0.000000 1.699150 0.000000 
#    z 0.000000 0.000000 1.752940 
# 
# From -- ./inp_files/4908.got.cif
#   From: 2010.03.12/outbox.cif.g09.slc.cpg/sg67_3_cif.got.tgz:4908.got - 2010.04.10 22:41:39.
