data_PCOD8279845
_publ_section_title
;
Structure prediction by ZEFSAII (Michael W. Deem and Ramdas Pophale) SiO2 
 PCOD8279845
Probable space group: C M M A
;
_chemical_formula_sum "Si O2"
_cell_formula_units_Z 96
_cell_length_a 8.834482
_cell_length_b 18.597000
_cell_length_c 30.772608
_cell_angle_alpha 90.000000
_cell_angle_beta 90.000000
_cell_angle_gamma 90.000000
_cell_volume 5055.781377
_symmetry_space_group_name_H-M "C M M A"
_symmetry_group_IT_number 67
_symmetry_cell_setting 'orthorhombic'
loop_
_space_group_symop_operation_xyz
x,y,z
-x,1/2-y,z
x,-y,-z
-x,1/2+y,-z
-x,-y,-z
x,1/2+y,-z
-x,y,z
x,1/2-y,z
1/2+x,1/2+y,z
1/2-x,-y,z
1/2+x,1/2-y,-z
1/2-x,y,-z
1/2-x,1/2-y,-z
1/2+x,y,-z
1/2-x,1/2+y,z
1/2+x,-y,z
loop_
_atom_site_type_symbol
_atom_site_label
_atom_site_fract_x
_atom_site_fract_y
_atom_site_fract_z
Si Si1 0.321397 0.078036 0.703403
Si Si2 0.676875 0.167705 0.126681
Si Si3 0.319831 0.577692 0.955989
Si Si4 0.820931 0.668488 0.785124
Si Si5 0.324771 0.333307 0.371990
Si Si6 0.822975 0.574889 0.454927
O O1 0.500000 0.069277 0.704821
O O2 0.259988 0.118225 0.746449
O O3 0.278195 0.125385 0.662156
O O4 0.250000 0.000000 0.699959
O O5 0.500000 0.157524 0.133934
O O6 0.722629 0.250000 0.119240
O O7 0.733118 0.125678 0.084372
O O8 0.758841 0.137018 0.169512
O O9 0.500000 0.573151 0.960318
O O10 0.250000 0.500000 0.948197
O O11 0.250000 0.611705 0.000000
O O12 0.760759 0.750000 0.777649
O O13 0.000000 0.667788 0.786648
O O14 0.500000 0.344762 0.359671
O O15 0.279319 0.250000 0.371743
O O16 0.289727 0.364028 0.419627
O O17 0.750000 0.500000 0.439140
O O18 0.750000 0.601109 0.500000
O O19 0.000000 0.562203 0.461914
#
# Coordination Sequence:
#
# PCOD8279845 Si02
#       6
#    16  16  16  16  16  16
#     4  11  23  38  57  82 111 143 182 225 269 320
#     4   9  19  35  54  77 104 135 172 213 258 310
#     4  10  20  34  52  74 102 135 172 213 257 307
#     4   9  19  36  56  78 105 137 174 216 262 314
#     4  10  22  39  58  82 112 145 182 225 273 324
#     4  10  20  35  56  81 110 144 182 224 269 319
#
# _framework density 18.988163
#
# number of rings (size 3 to 8) (size 9 to 14) (size 15 to 20)
#    0.000    2.167    0.000    3.500    0.000    7.667 
#    0.000    5.000    0.000    0.000    0.000    0.000 
#    0.000    0.000    0.000    0.000    0.000    0.000 
#
# Total GULP energy -595316.273853 kJ/mol
# GULP energy per Si atom -12402.422372 kJ/mol
# Density = 1.894495 g / cm^3
# Si number density = 18.988163 Si / 1000 Ang^3
#
#
#
# Elastic Constant Matrix: (Units=GPa)
#
#
# Indices 1 2 3 4 5 6 
#
# 1 65.1333 38.9008 51.3750 0.0000 0.0000 0.0000
# 2 38.9008 113.8902 82.7531 0.0000 0.0000 0.0000
# 3 51.3750 82.7531 156.1422 0.0000 0.0000 0.0000
# 4 0.0000 0.0000 0.0000 42.2869 0.0000 0.0000
# 5 0.0000 0.0000 0.0000 0.0000 33.3757 0.0000
# 6 0.0000 0.0000 0.0000 0.0000 0.0000 18.6954
#
#
#
# Elastic Compliance Matrix: (Units=1/GPa)
#
#
# Indices 1 2 3 4 5 6 
#
# 1 0.021606 -0.003601 -0.005200 0.000000 0.000000 0.000000
# 2 -0.003601 0.014879 -0.006701 0.000000 0.000000 0.000000
# 3 -0.005200 -0.006701 0.011667 0.000000 0.000000 0.000000
# 4 0.000000 0.000000 0.000000 0.023648 0.000000 0.000000
# 5 0.000000 0.000000 0.000000 0.000000 0.029962 0.000000
# 6 0.000000 0.000000 0.000000 0.000000 0.000000 0.053489
#
#
# Mechanical properties :
#
#
# Convention : Reuss Voigt Hill
#
# Bulk Modulus (GPa) = 58.31893 75.69151 67.00522
# Shear Modulus (GPa) = 26.04551 29.68071 27.86311
#
# Velocity S-wave (km/s) = 3.70763 3.95792 3.83481
# Velocity P-wave (km/s) = 7.00775 7.79973 7.41433
#
# Compressibility (1/GPa) = 0.01714709
#
# Stress axis : x y z
#
# Youngs Moduli (GPa) = 46.28396 67.20717 85.71286
#
# Poissons Ratio (x) = 0.24203 0.44573
# Poissons Ratio (y) = 0.16668 0.57436
# Poissons Ratio (z) = 0.24069 0.45035
#
# Static dielectric constant tensor:
#      x y z
#    x 3.457400 0.000000 0.000000 
#    y 0.000000 3.518000 0.000000 
#    z 0.000000 0.000000 3.734710 
# 
# 
# High freq. dielectric constant tensor:
#      x y z
#    x 1.739060 0.000000 0.000000 
#    y 0.000000 1.734590 0.000000 
#    z 0.000000 0.000000 1.753030 
# 
# From -- ./inp_files/43522.got.cif
#   From: 2010.03.12/outbox.cif.g09.slc.cpg/sg67_22_cif.got.tgz:43522.got - 2010.04.10 22:41:39.
