data_PCOD8279766
_publ_section_title
;
Structure prediction by ZEFSAII (Michael W. Deem and Ramdas Pophale) SiO2 
 PCOD8279766
Probable space group: C M M A
;
_chemical_formula_sum "Si O2"
_cell_formula_units_Z 96
_cell_length_a 15.570680
_cell_length_b 26.559080
_cell_length_c 12.087219
_cell_angle_alpha 90.000000
_cell_angle_beta 90.000000
_cell_angle_gamma 90.000000
_cell_volume 4998.584031
_symmetry_space_group_name_H-M "C M M A"
_symmetry_group_IT_number 67
_symmetry_cell_setting 'orthorhombic'
loop_
_space_group_symop_operation_xyz
x,y,z
-x,1/2-y,z
x,-y,-z
-x,1/2+y,-z
-x,-y,-z
x,1/2+y,-z
-x,y,z
x,1/2-y,z
1/2+x,1/2+y,z
1/2-x,-y,z
1/2+x,1/2-y,-z
1/2-x,y,-z
1/2-x,1/2-y,-z
1/2+x,y,-z
1/2-x,1/2+y,z
1/2+x,-y,z
loop_
_atom_site_type_symbol
_atom_site_label
_atom_site_fract_x
_atom_site_fract_y
_atom_site_fract_z
Si Si1 0.153328 0.627179 0.794498
Si Si2 0.000000 0.057185 0.873912
Si Si3 0.653494 0.622746 0.813403
Si Si4 0.500000 0.938970 0.133494
Si Si5 0.594988 0.805939 0.639545
Si Si6 0.168556 0.306801 0.420534
Si Si7 0.351104 0.805026 0.006559
O O1 0.247458 0.605565 0.831542
O O2 0.084780 0.582189 0.804697
O O3 0.156939 0.651000 0.672715
O O4 0.121648 0.670661 0.877351
O O5 0.912928 0.076498 0.813770
O O6 0.000000 0.998332 0.852505
O O7 0.000000 0.073289 0.002714
O O8 0.655328 0.652844 0.697396
O O9 0.617181 0.660306 0.906665
O O10 0.500000 0.812333 0.688247
O O11 0.631743 0.750000 0.667033
O O12 0.590112 0.812969 0.506775
O O13 0.171503 0.250000 0.369330
O O14 0.250000 0.316544 0.500000
O O15 0.394737 0.750000 0.997288
O O16 0.250000 0.799253 0.000000
#
# Coordination Sequence:
#
# PCOD8279766 Si02
#       7
#    16   8  16   8  16  16  16
#     4  11  22  38  60  87 122 161 198 241 296 363
#     4  11  24  44  65  86 115 145 202 268 310 374
#     4  11  20  37  62  88 116 153 199 244 304 356
#     4  11  26  44  61  88 117 151 202 258 320 366
#     4  10  20  33  54  89 126 163 202 237 280 351
#     4  10  20  35  57  89 127 169 205 235 279 348
#     4   9  18  31  52  85 122 154 182 226 285 354
#
# _framework density 19.205438000000001
#
# number of rings (size 3 to 8) (size 9 to 14) (size 15 to 20)
#    0.000    1.667    4.167    1.000    1.167    2.000 
#    0.000    3.750    0.000    2.000    0.000    0.000 
#    0.000    0.000    0.000    0.000    0.000    0.000 
#
# Total GULP energy -594922.667412 kJ/mol
# GULP energy per Si atom -12394.222238 kJ/mol
# Density = 1.916173 g / cm^3
# Si number density = 19.205438 Si / 1000 Ang^3
#
#
#
# Elastic Constant Matrix: (Units=GPa)
#
#
# Indices 1 2 3 4 5 6 
#
# 1 107.8782 54.4169 25.7425 0.0000 0.0000 0.0000
# 2 54.4169 110.4297 48.1017 0.0000 0.0000 0.0000
# 3 25.7425 48.1017 96.7855 0.0000 0.0000 0.0000
# 4 0.0000 0.0000 0.0000 25.2938 0.0000 0.0000
# 5 0.0000 0.0000 0.0000 0.0000 24.1194 0.0000
# 6 0.0000 0.0000 0.0000 0.0000 0.0000 4.9594
#
#
#
# Elastic Compliance Matrix: (Units=1/GPa)
#
#
# Indices 1 2 3 4 5 6 
#
# 1 0.012344 -0.005938 -0.000332 0.000000 0.000000 0.000000
# 2 -0.005938 0.014414 -0.005584 0.000000 0.000000 0.000000
# 3 -0.000332 -0.005584 0.013196 0.000000 0.000000 0.000000
# 4 0.000000 0.000000 0.000000 0.039535 0.000000 0.000000
# 5 0.000000 0.000000 0.000000 0.000000 0.041460 0.000000
# 6 0.000000 0.000000 0.000000 0.000000 0.000000 0.201637
#
#
# Mechanical properties :
#
#
# Convention : Reuss Voigt Hill
#
# Bulk Modulus (GPa) = 61.55700 63.51284 62.53492
# Shear Modulus (GPa) = 14.21617 23.33001 18.77309
#
# Velocity S-wave (km/s) = 2.72364 3.48912 3.12987
# Velocity P-wave (km/s) = 6.48170 7.02666 6.75967
#
# Compressibility (1/GPa) = 0.01624511
#
# Stress axis : x y z
#
# Youngs Moduli (GPa) = 81.00820 69.37562 75.78174
#
# Poissons Ratio (x) = 0.41198 0.02516
# Poissons Ratio (y) = 0.48106 0.42319
# Poissons Ratio (z) = 0.02689 0.38742
#
# Static dielectric constant tensor:
#      x y z
#    x 3.568140 0.000000 0.000000 
#    y 0.000000 3.286980 0.000000 
#    z 0.000000 0.000000 3.582740 
# 
# 
# High freq. dielectric constant tensor:
#      x y z
#    x 1.754330 0.000000 0.000000 
#    y 0.000000 1.713550 0.000000 
#    z 0.000000 0.000000 1.743630 
# 
# From -- ./inp_files/19708.got.cif
#   From: 2010.03.12/outbox.cif.g09.slc.cpg/sg67_10_cif.got.tgz:19708.got - 2010.04.10 22:41:39.
