data_PCOD8279589
_publ_section_title
;
Structure prediction by ZEFSAII (Michael W. Deem and Ramdas Pophale) SiO2 
 PCOD8279589
Probable space group: C M M A
;
_chemical_formula_sum "Si O2"
_cell_formula_units_Z 80
_cell_length_a 7.603299
_cell_length_b 18.053922
_cell_length_c 29.645568
_cell_angle_alpha 90.000000
_cell_angle_beta 90.000000
_cell_angle_gamma 90.000000
_cell_volume 4069.428356
_symmetry_space_group_name_H-M "C M M A"
_symmetry_group_IT_number 67
_symmetry_cell_setting 'orthorhombic'
loop_
_space_group_symop_operation_xyz
x,y,z
-x,1/2-y,z
x,-y,-z
-x,1/2+y,-z
-x,-y,-z
x,1/2+y,-z
-x,y,z
x,1/2-y,z
1/2+x,1/2+y,z
1/2-x,-y,z
1/2+x,1/2-y,-z
1/2-x,y,-z
1/2-x,1/2-y,-z
1/2+x,y,-z
1/2-x,1/2+y,z
1/2+x,-y,z
loop_
_atom_site_type_symbol
_atom_site_label
_atom_site_fract_x
_atom_site_fract_y
_atom_site_fract_z
Si Si1 0.201975 0.585372 0.048756
Si Si2 0.298708 0.837370 0.863347
Si Si3 0.500000 0.338342 0.694981
Si Si4 0.000000 0.162309 0.202915
Si Si5 0.207383 0.914137 0.362794
Si Si6 0.295012 0.667794 0.548857
O O1 0.250000 0.500000 0.050295
O O2 0.287135 0.628461 0.090859
O O3 0.000000 0.596954 0.056091
O O4 0.250000 0.619761 0.000000
O O5 0.500000 0.862932 0.853752
O O6 0.288725 0.750000 0.869016
O O7 0.176624 0.865769 0.822326
O O8 0.500000 0.250000 0.691161
O O9 0.500000 0.367709 0.746286
O O10 0.679336 0.369063 0.673376
O O11 0.000000 0.250000 0.203579
O O12 0.273404 0.886468 0.412005
O O13 0.000000 0.899178 0.354415
O O14 0.250000 0.000000 0.358680
O O15 0.500000 0.676349 0.554465
O O16 0.207649 0.750000 0.553241
O O17 0.250000 0.632980 0.500000
#
# Coordination Sequence:
#
# PCOD8279589 Si02
#       6
#    16  16   8   8  16  16
#     4  10  20  32  51  76 109 150 185 226 273 332
#     4   9  19  36  57  82 113 144 183 234 285 339
#     4  11  24  42  68  95 117 159 213 254 309 376
#     4   9  20  38  62  87 110 145 189 240 294 345
#     4  11  23  41  63  89 128 166 201 256 313 366
#     4   9  19  34  55  86 121 160 205 249 297 356
#
# _framework density 19.65878
#
# number of rings (size 3 to 8) (size 9 to 14) (size 15 to 20)
#    0.000    2.200    1.000    1.800    4.200    2.800 
#    0.000    5.000    0.000    0.000    0.000    0.000 
#    0.000    0.000    0.000    0.000    0.000    0.000 
#
# Total GULP energy -495793.669912 kJ/mol
# GULP energy per Si atom -12394.841748 kJ/mol
# Density = 1.961404 g / cm^3
# Si number density = 19.658780 Si / 1000 Ang^3
#
#
#
# Elastic Constant Matrix: (Units=GPa)
#
#
# Indices 1 2 3 4 5 6 
#
# 1 101.4988 29.7928 71.8245 0.0000 0.0000 0.0000
# 2 29.7928 70.3921 56.7414 0.0000 0.0000 0.0000
# 3 71.8245 56.7414 198.0281 0.0000 0.0000 0.0000
# 4 0.0000 0.0000 0.0000 14.7006 0.0000 0.0000
# 5 0.0000 0.0000 0.0000 0.0000 34.7432 0.0000
# 6 0.0000 0.0000 0.0000 0.0000 0.0000 17.1957
#
#
#
# Elastic Compliance Matrix: (Units=1/GPa)
#
#
# Indices 1 2 3 4 5 6 
#
# 1 0.013535 -0.002304 -0.004249 0.000000 0.000000 0.000000
# 2 -0.002304 0.018865 -0.004570 0.000000 0.000000 0.000000
# 3 -0.004249 -0.004570 0.007900 0.000000 0.000000 0.000000
# 4 0.000000 0.000000 0.000000 0.068024 0.000000 0.000000
# 5 0.000000 0.000000 0.000000 0.000000 0.028783 0.000000
# 6 0.000000 0.000000 0.000000 0.000000 0.000000 0.058154
#
#
# Mechanical properties :
#
#
# Convention : Reuss Voigt Hill
#
# Bulk Modulus (GPa) = 55.38543 76.29293 65.83918
# Shear Modulus (GPa) = 22.36883 27.43193 24.90038
#
# Velocity S-wave (km/s) = 3.37687 3.73956 3.56283
# Velocity P-wave (km/s) = 6.59082 7.58542 7.10554
#
# Compressibility (1/GPa) = 0.01805529
#
# Stress axis : x y z
#
# Youngs Moduli (GPa) = 73.88027 53.00889 126.57596
#
# Poissons Ratio (x) = 0.12211 0.53785
# Poissons Ratio (y) = 0.17019 0.57844
# Poissons Ratio (z) = 0.31394 0.24224
#
# Static dielectric constant tensor:
#      x y z
#    x 3.772880 0.000000 0.000000 
#    y 0.000000 3.431760 0.000000 
#    z 0.000000 0.000000 6.062780 
# 
# 
# High freq. dielectric constant tensor:
#      x y z
#    x 1.774020 0.000000 0.000000 
#    y 0.000000 1.745160 0.000000 
#    z 0.000000 0.000000 1.771820 
# 
# From -- ./inp_files/45184.got.cif
#   From: 2010.03.12/outbox.cif.g09.slc.cpg/sg67_23_cif.got.tgz:45184.got - 2010.04.10 22:41:39.
