data_PCOD8279763
_publ_section_title
;
Structure prediction by ZEFSAII (Michael W. Deem and Ramdas Pophale) SiO2 
 PCOD8279763
Probable space group: C M M A
;
_chemical_formula_sum "Si O2"
_cell_formula_units_Z 80
_cell_length_a 17.038073
_cell_length_b 16.062505
_cell_length_c 14.649714
_cell_angle_alpha 90.000000
_cell_angle_beta 90.000000
_cell_angle_gamma 90.000000
_cell_volume 4009.247774
_symmetry_space_group_name_H-M "C M M A"
_symmetry_group_IT_number 67
_symmetry_cell_setting 'orthorhombic'
loop_
_space_group_symop_operation_xyz
x,y,z
-x,1/2-y,z
x,-y,-z
-x,1/2+y,-z
-x,-y,-z
x,1/2+y,-z
-x,y,z
x,1/2-y,z
1/2+x,1/2+y,z
1/2-x,-y,z
1/2+x,1/2-y,-z
1/2-x,y,-z
1/2-x,1/2-y,-z
1/2+x,y,-z
1/2-x,1/2+y,z
1/2+x,-y,z
loop_
_atom_site_type_symbol
_atom_site_label
_atom_site_fract_x
_atom_site_fract_y
_atom_site_fract_z
Si Si1 0.090632 0.653480 0.701570
Si Si2 0.093153 0.917535 0.889552
Si Si3 0.659221 0.408019 0.523251
Si Si4 0.906603 0.102897 0.910742
Si Si5 0.592270 0.750000 0.581262
Si Si6 0.406109 0.250000 0.213633
O O1 0.099013 0.750000 0.679821
O O2 0.123395 0.635192 0.803207
O O3 0.144322 0.603491 0.630747
O O4 0.000000 0.624843 0.691729
O O5 0.000000 0.916944 0.891405
O O6 0.123528 0.012246 0.879832
O O7 0.123202 0.878439 0.985507
O O8 0.625991 0.500000 0.500000
O O9 0.750000 0.402162 0.500000
O O10 0.616540 0.334619 0.468740
O O11 0.872397 0.169788 0.839851
O O12 0.000000 0.106364 0.909296
O O13 0.500000 0.750000 0.585874
O O14 0.627813 0.750000 0.683698
O O15 0.500000 0.250000 0.214492
#
# Coordination Sequence:
#
# PCOD8279763 Si02
#       6
#    16  16  16  16   8   8
#     4  10  20  33  54  85 112 141 183 235 288 331
#     4   8  15  26  44  70 107 144 177 219 273 326
#     4  11  25  43  61  80 110 153 197 234 285 345
#     4   8  14  26  41  67 107 148 177 210 265 332
#     4  11  23  39  60  89 117 147 187 240 292 334
#     4   9  18  27  44  73 109 143 175 210 266 332
#
# _framework density 19.953869000000001
#
# number of rings (size 3 to 8) (size 9 to 14) (size 15 to 20)
#    0.000    2.600    1.000    2.100    4.200    1.600 
#    0.000    0.000    0.000    0.000    0.000    2.800 
#    0.000    0.000    0.000    0.000    0.000    0.000 
#
# Total GULP energy -495779.864482 kJ/mol
# GULP energy per Si atom -12394.496612 kJ/mol
# Density = 1.990845 g / cm^3
# Si number density = 19.953869 Si / 1000 Ang^3
#
#
#
# Elastic Constant Matrix: (Units=GPa)
#
#
# Indices 1 2 3 4 5 6 
#
# 1 28.8049 16.0506 20.6682 0.0000 0.0000 0.0000
# 2 16.0506 116.0546 58.4529 0.0000 0.0000 0.0000
# 3 20.6682 58.4529 148.8793 0.0000 0.0000 0.0000
# 4 0.0000 0.0000 0.0000 42.5511 0.0000 0.0000
# 5 0.0000 0.0000 0.0000 0.0000 2.7658 0.0000
# 6 0.0000 0.0000 0.0000 0.0000 0.0000 12.6309
#
#
#
# Elastic Compliance Matrix: (Units=1/GPa)
#
#
# Indices 1 2 3 4 5 6 
#
# 1 0.039590 -0.003374 -0.004171 0.000000 0.000000 0.000000
# 2 -0.003374 0.011028 -0.003861 0.000000 0.000000 0.000000
# 3 -0.004171 -0.003861 0.008812 0.000000 0.000000 0.000000
# 4 0.000000 0.000000 0.000000 0.023501 0.000000 0.000000
# 5 0.000000 0.000000 0.000000 0.000000 0.361556 0.000000
# 6 0.000000 0.000000 0.000000 0.000000 0.000000 0.079171
#
#
# Mechanical properties :
#
#
# Convention : Reuss Voigt Hill
#
# Bulk Modulus (GPa) = 27.31069 53.78692 40.54881
# Shear Modulus (GPa) = 8.94971 24.82738 16.88854
#
# Velocity S-wave (km/s) = 2.12013 3.53120 2.91242
# Velocity P-wave (km/s) = 4.43958 6.60606 5.62805
#
# Compressibility (1/GPa) = 0.03661569
#
# Stress axis : x y z
#
# Youngs Moduli (GPa) = 25.25917 90.67659 113.48181
#
# Poissons Ratio (x) = 0.30598 0.47335
# Poissons Ratio (y) = 0.08524 0.43820
# Poissons Ratio (z) = 0.10536 0.35014
#
# Static dielectric constant tensor:
#      x y z
#    x 4.120680 0.000000 0.000000 
#    y 0.000000 3.905650 0.000000 
#    z 0.000000 0.000000 4.127920 
# 
# 
# High freq. dielectric constant tensor:
#      x y z
#    x 1.715100 0.000000 0.000000 
#    y 0.000000 1.785600 0.000000 
#    z 0.000000 0.000000 1.797680 
# 
# From -- ./inp_files/28418.got.cif
#   From: 2010.03.12/outbox.cif.g09.slc.cpg/sg67_15_cif.got.tgz:28418.got - 2010.04.10 22:41:39.
