data_PCOD8279104
_publ_section_title
;
Structure prediction by ZEFSAII (Michael W. Deem and Ramdas Pophale) SiO2 
 PCOD8279104
Probable space group: C M M A
;
_chemical_formula_sum "Si O2"
_cell_formula_units_Z 116
_cell_length_a 16.966834
_cell_length_b 16.966908
_cell_length_c 22.638309
_cell_angle_alpha 90.000000
_cell_angle_beta 90.000000
_cell_angle_gamma 90.000000
_cell_volume 6516.996673
_symmetry_space_group_name_H-M "C M M A"
_symmetry_group_IT_number 67
_symmetry_cell_setting 'orthorhombic'
loop_
_space_group_symop_operation_xyz
x,y,z
-x,1/2-y,z
x,-y,-z
-x,1/2+y,-z
-x,-y,-z
x,1/2+y,-z
-x,y,z
x,1/2-y,z
1/2+x,1/2+y,z
1/2-x,-y,z
1/2+x,1/2-y,-z
1/2-x,y,-z
1/2-x,1/2-y,-z
1/2+x,y,-z
1/2-x,1/2+y,z
1/2+x,-y,z
loop_
_atom_site_type_symbol
_atom_site_label
_atom_site_fract_x
_atom_site_fract_y
_atom_site_fract_z
Si Si1 0.909016 0.533369 0.436380
Si Si2 0.410447 0.839552 0.256390
Si Si3 0.500000 0.250000 0.931034
Si Si4 0.718490 0.159915 0.064188
Si Si5 0.119756 0.369756 0.120688
Si Si6 0.090086 0.531509 0.064188
Si Si7 0.216631 0.340983 0.563621
Si Si8 0.315216 0.434785 0.652242
O O1 0.884991 0.500000 0.500000
O O2 0.865186 0.615187 0.425621
O O3 0.885364 0.471601 0.386133
O O4 0.000000 0.552317 0.431655
O O5 0.500000 0.859651 0.274806
O O6 0.390346 0.750000 0.274806
O O7 0.402208 0.847792 0.186742
O O8 0.350845 0.899156 0.288135
O O9 0.567171 0.182829 0.922628
O O10 0.687959 0.250000 0.064591
O O11 0.787801 0.147459 0.111207
O O12 0.644200 0.105799 0.081355
O O13 0.750000 0.135512 0.000000
O O14 0.102542 0.462199 0.111206
O O15 0.000000 0.562039 0.064591
O O16 0.114489 0.500000 0.000000
O O17 0.197683 0.250000 0.568353
O O18 0.250000 0.365001 0.500000
O O19 0.278402 0.364639 0.613866
O O20 0.250000 0.500000 0.669045
#
# Coordination Sequence:
#
# PCOD8279104 Si02
#       8
#    16  16   4  16  16  16  16  16
#     4  10  19  33  52  74 106 146 184 225 273 326
#     4  11  21  38  59  85 117 149 186 239 290 337
#     4  12  20  40  60  92 112 164 196 240 280 374
#     4  11  23  38  56  84 116 151 195 242 287 343
#     4  12  21  39  61  83 118 153 199 233 299 347
#     4  11  23  38  56  84 116 151 195 242 287 343
#     4  10  19  33  52  74 106 146 184 225 273 326
#     4  10  21  34  55  82 110 145 190 229 277 331
#
# _framework density 17.799610000000001
#
# number of rings (size 3 to 8) (size 9 to 14) (size 15 to 20)
#    0.000    1.241    5.517    1.241    0.000    1.655 
#    0.000    0.000    0.000    0.000    0.000    0.000 
#    0.000    6.621    0.000    0.000    0.000    0.000 
#
# Total GULP energy -718547.688203 kJ/mol
# GULP energy per Si atom -12388.753245 kJ/mol
# Density = 1.775910 g / cm^3
# Si number density = 17.799610 Si / 1000 Ang^3
#
#
#
# Elastic Constant Matrix: (Units=GPa)
#
#
# Indices 1 2 3 4 5 6 
#
# 1 92.6002 64.3576 16.3611 0.0000 0.0000 0.0000
# 2 64.3576 92.5910 16.3638 0.0000 0.0000 0.0000
# 3 16.3611 16.3638 42.7502 0.0000 0.0000 0.0000
# 4 0.0000 0.0000 0.0000 34.4210 0.0000 0.0000
# 5 0.0000 0.0000 0.0000 0.0000 34.4181 0.0000
# 6 0.0000 0.0000 0.0000 0.0000 0.0000 29.7093
#
#
#
# Elastic Compliance Matrix: (Units=1/GPa)
#
#
# Indices 1 2 3 4 5 6 
#
# 1 0.021167 -0.014245 -0.002648 0.000000 0.000000 0.000000
# 2 -0.014245 0.021170 -0.002652 0.000000 0.000000 0.000000
# 3 -0.002648 -0.002652 0.025420 0.000000 0.000000 0.000000
# 4 0.000000 0.000000 0.000000 0.029052 0.000000 0.000000
# 5 0.000000 0.000000 0.000000 0.000000 0.029054 0.000000
# 6 0.000000 0.000000 0.000000 0.000000 0.000000 0.033660
#
#
# Mechanical properties :
#
#
# Convention : Reuss Voigt Hill
#
# Bulk Modulus (GPa) = 34.88245 46.90073 40.89159
# Shear Modulus (GPa) = 24.01893 28.43360 26.22627
#
# Velocity S-wave (km/s) = 3.67741 4.00112 3.84268
# Velocity P-wave (km/s) = 6.13767 6.91027 6.53540
#
# Compressibility (1/GPa) = 0.02866772
#
# Stress axis : x y z
#
# Youngs Moduli (GPa) = 47.24294 47.23680 39.33864
#
# Poissons Ratio (x) = 0.67287 0.10419
# Poissons Ratio (y) = 0.67296 0.10432
# Poissons Ratio (z) = 0.12512 0.12526
#
# Static dielectric constant tensor:
#      x y z
#    x 3.555460 0.000000 0.000000 
#    y 0.000000 3.555490 0.000000 
#    z 0.000000 0.000000 3.028480 
# 
# 
# High freq. dielectric constant tensor:
#      x y z
#    x 1.702540 0.000000 0.000000 
#    y 0.000000 1.702540 0.000000 
#    z 0.000000 0.000000 1.656750 
# 
# From -- ./inp_files/34352.got.cif
#   From: 2010.03.12/outbox.cif.g09.slc.cpg/sg67_18_cif.got.tgz:34352.got - 2010.04.10 22:41:39.
