data_PCOD8279200
_publ_section_title
;
Structure prediction by ZEFSAII (Michael W. Deem and Ramdas Pophale) SiO2 
 PCOD8279200
Probable space group: C M M A
;
_chemical_formula_sum "Si O2"
_cell_formula_units_Z 96
_cell_length_a 20.996365
_cell_length_b 18.033028
_cell_length_c 13.137929
_cell_angle_alpha 90.000000
_cell_angle_beta 90.000000
_cell_angle_gamma 90.000000
_cell_volume 4974.388280
_symmetry_space_group_name_H-M "C M M A"
_symmetry_group_IT_number 67
_symmetry_cell_setting 'orthorhombic'
loop_
_space_group_symop_operation_xyz
x,y,z
-x,1/2-y,z
x,-y,-z
-x,1/2+y,-z
-x,-y,-z
x,1/2+y,-z
-x,y,z
x,1/2-y,z
1/2+x,1/2+y,z
1/2-x,-y,z
1/2+x,1/2-y,-z
1/2-x,y,-z
1/2-x,1/2-y,-z
1/2+x,y,-z
1/2-x,1/2+y,z
1/2+x,-y,z
loop_
_atom_site_type_symbol
_atom_site_label
_atom_site_fract_x
_atom_site_fract_y
_atom_site_fract_z
Si Si1 0.238194 0.418381 0.263787
Si Si2 0.071605 0.336165 0.588393
Si Si3 0.315586 0.336423 0.556074
Si Si4 0.623232 0.896986 0.787579
Si Si5 0.926429 0.166186 0.989888
Si Si6 0.354810 0.957341 0.101120
O O1 0.250000 0.500000 0.310274
O O2 0.188018 0.375750 0.334883
O O3 0.305541 0.377018 0.251198
O O4 0.208164 0.422990 0.151156
O O5 0.085585 0.250000 0.610932
O O6 0.123401 0.366470 0.506984
O O7 0.076176 0.380369 0.694366
O O8 0.000000 0.347638 0.545013
O O9 0.323336 0.250000 0.575940
O O10 0.250000 0.356147 0.500000
O O11 0.609351 0.844369 0.883129
O O12 0.614468 0.983248 0.820083
O O13 0.914360 0.250000 0.028630
O O14 0.000000 0.150261 0.969838
O O15 0.903616 0.108777 0.076247
O O16 0.333379 0.000000 0.000000
#
# Coordination Sequence:
#
# PCOD8279200 Si02
#       6
#    16  16  16  16  16  16
#     4  10  21  37  58  85 111 147 190 231 288 341
#     4  10  20  35  56  84 118 152 186 233 288 339
#     4  10  20  36  58  86 117 149 190 236 284 344
#     4  10  19  33  56  84 110 143 188 237 282 339
#     4  10  21  36  54  78 110 149 190 232 285 345
#     4   9  21  38  56  80 113 148 187 235 288 340
#
# _framework density 19.298855
#
# number of rings (size 3 to 8) (size 9 to 14) (size 15 to 20)
#    0.000    2.167    1.667    1.000    0.000   14.333 
#    0.000    1.667    0.000    8.000    0.000    0.000 
#    0.000    0.000    0.000    0.000    0.000    0.000 
#
# Total GULP energy -595190.670696 kJ/mol
# GULP energy per Si atom -12399.805640 kJ/mol
# Density = 1.925493 g / cm^3
# Si number density = 19.298855 Si / 1000 Ang^3
#
#
#
# Elastic Constant Matrix: (Units=GPa)
#
#
# Indices 1 2 3 4 5 6 
#
# 1 115.1444 43.9583 52.2785 0.0000 0.0000 0.0000
# 2 43.9583 70.5232 49.1532 0.0000 0.0000 0.0000
# 3 52.2785 49.1532 101.7019 0.0000 0.0000 0.0000
# 4 0.0000 0.0000 0.0000 28.4045 0.0000 0.0000
# 5 0.0000 0.0000 0.0000 0.0000 34.3797 0.0000
# 6 0.0000 0.0000 0.0000 0.0000 0.0000 26.9355
#
#
#
# Elastic Compliance Matrix: (Units=1/GPa)
#
#
# Indices 1 2 3 4 5 6 
#
# 1 0.012376 -0.004946 -0.003971 0.000000 0.000000 0.000000
# 2 -0.004946 0.023360 -0.008747 0.000000 0.000000 0.000000
# 3 -0.003971 -0.008747 0.016102 0.000000 0.000000 0.000000
# 4 0.000000 0.000000 0.000000 0.035206 0.000000 0.000000
# 5 0.000000 0.000000 0.000000 0.000000 0.029087 0.000000
# 6 0.000000 0.000000 0.000000 0.000000 0.000000 0.037126
#
#
# Mechanical properties :
#
#
# Convention : Reuss Voigt Hill
#
# Bulk Modulus (GPa) = 60.57780 64.23884 62.40832
# Shear Modulus (GPa) = 25.76155 27.40923 26.58539
#
# Velocity S-wave (km/s) = 3.65756 3.77271 3.71558
# Velocity P-wave (km/s) = 7.02100 7.23439 7.12849
#
# Compressibility (1/GPa) = 0.01650770
#
# Stress axis : x y z
#
# Youngs Moduli (GPa) = 80.80061 42.80901 62.10594
#
# Poissons Ratio (x) = 0.21175 0.24663
# Poissons Ratio (y) = 0.39968 0.54325
# Poissons Ratio (z) = 0.32087 0.37446
#
# Static dielectric constant tensor:
#      x y z
#    x 3.547650 0.000000 0.000000 
#    y 0.000000 3.507840 0.000000 
#    z 0.000000 0.000000 3.456250 
# 
# 
# High freq. dielectric constant tensor:
#      x y z
#    x 1.749670 0.000000 0.000000 
#    y 0.000000 1.742900 0.000000 
#    z 0.000000 0.000000 1.742970 
# 
# From -- ./inp_files/21955.got.cif
#   From: 2010.03.12/outbox.cif.g09.slc.cpg/sg67_11_cif.got.tgz:21955.got - 2010.04.10 22:41:39.
