data_PCOD8279094
_publ_section_title
;
Structure prediction by ZEFSAII (Michael W. Deem and Ramdas Pophale) SiO2 
 PCOD8279094
Probable space group: C M M A
;
_chemical_formula_sum "Si O2"
_cell_formula_units_Z 128
_cell_length_a 17.050294
_cell_length_b 18.240201
_cell_length_c 22.884528
_cell_angle_alpha 90.000000
_cell_angle_beta 90.000000
_cell_angle_gamma 90.000000
_cell_volume 7117.106279
_symmetry_space_group_name_H-M "C M M A"
_symmetry_group_IT_number 67
_symmetry_cell_setting 'orthorhombic'
loop_
_space_group_symop_operation_xyz
x,y,z
-x,1/2-y,z
x,-y,-z
-x,1/2+y,-z
-x,-y,-z
x,1/2+y,-z
-x,y,z
x,1/2-y,z
1/2+x,1/2+y,z
1/2-x,-y,z
1/2+x,1/2-y,-z
1/2-x,y,-z
1/2-x,1/2-y,-z
1/2+x,y,-z
1/2-x,1/2+y,z
1/2+x,-y,z
loop_
_atom_site_type_symbol
_atom_site_label
_atom_site_fract_x
_atom_site_fract_y
_atom_site_fract_z
Si Si1 0.264641 0.414043 0.740827
Si Si2 0.588622 0.572330 0.530496
Si Si3 0.858037 0.334081 0.429062
Si Si4 0.824805 0.169974 0.041445
Si Si5 0.280979 0.582002 0.617970
Si Si6 0.909800 0.663435 0.069360
Si Si7 0.732822 0.586197 0.868282
Si Si8 0.411311 0.665782 0.300976
O O1 0.250000 0.500000 0.743863
O O2 0.218770 0.382592 0.683553
O O3 0.234283 0.381643 0.802236
O O4 0.355965 0.391156 0.733505
O O5 0.624710 0.500000 0.500000
O O6 0.500000 0.558372 0.549641
O O7 0.593456 0.638707 0.484910
O O8 0.632836 0.587286 0.591166
O O9 0.840277 0.250000 0.438960
O O10 0.774550 0.374010 0.426019
O O11 0.907244 0.349388 0.370360
O O12 0.842812 0.250000 0.067920
O O13 0.807030 0.117120 0.095488
O O14 0.750000 0.172946 0.000000
O O15 0.896863 0.144764 0.999659
O O16 0.250000 0.500000 0.623971
O O17 0.890612 0.750000 0.080344
O O18 0.851576 0.611552 0.106730
O O19 0.000000 0.645603 0.085877
O O20 0.750000 0.500000 0.869934
O O21 0.500000 0.651257 0.280061
O O22 0.386209 0.750000 0.287941
#
# Coordination Sequence:
#
# PCOD8279094 Si02
#       8
#    16  16  16  16  16  16  16  16
#     4   9  20  36  51  74 106 146 183 213 255 316
#     4  11  22  33  50  78 104 129 166 212 264 318
#     4  10  20  34  55  78 100 129 164 208 267 325
#     4   8  15  29  50  74  99 132 172 214 259 303
#     4  10  19  36  54  71 100 137 174 217 253 305
#     4   9  18  34  56  81 108 140 180 224 266 311
#     4  10  19  33  51  76 110 145 183 217 258 317
#     4   9  18  34  56  80 103 130 171 225 277 317
#
# _framework density 17.984836999999999
#
# number of rings (size 3 to 8) (size 9 to 14) (size 15 to 20)
#    0.000    2.500    1.250    1.875    0.000    5.000 
#    0.000    5.000    0.000    1.500    0.000    0.000 
#    0.000    0.000    0.000    0.000    0.000    0.000 
#
# Total GULP energy -793123.137271 kJ/mol
# GULP energy per Si atom -12392.549020 kJ/mol
# Density = 1.794390 g / cm^3
# Si number density = 17.984837 Si / 1000 Ang^3
#
#
#
# Elastic Constant Matrix: (Units=GPa)
#
#
# Indices 1 2 3 4 5 6 
#
# 1 106.3691 42.5591 52.0490 0.0000 0.0000 0.0000
# 2 42.5591 78.2889 38.0250 0.0000 0.0000 0.0000
# 3 52.0490 38.0250 115.8122 0.0000 0.0000 0.0000
# 4 0.0000 0.0000 0.0000 -12.5559 0.0000 0.0000
# 5 0.0000 0.0000 0.0000 0.0000 7.7208 0.0000
# 6 0.0000 0.0000 0.0000 0.0000 0.0000 26.7418
#
#
#
# Elastic Compliance Matrix: (Units=1/GPa)
#
#
# Indices 1 2 3 4 5 6 
#
# 1 0.013676 -0.005293 -0.004408 0.000000 0.000000 0.000000
# 2 -0.005293 0.017245 -0.003283 0.000000 0.000000 0.000000
# 3 -0.004408 -0.003283 0.011694 0.000000 0.000000 0.000000
# 4 0.000000 0.000000 0.000000 -0.079644 0.000000 0.000000
# 5 0.000000 0.000000 0.000000 0.000000 0.129520 0.000000
# 6 0.000000 0.000000 0.000000 0.000000 0.000000 0.037395
#
#
# Mechanical properties :
#
#
# Convention : Reuss Voigt Hill
#
# Bulk Modulus (GPa) = 60.07666 62.85957 61.46811
# Shear Modulus (GPa) = 30.97792 15.57048 23.27420
#
# Velocity S-wave (km/s) = 4.15474 2.94557 3.60126
# Velocity P-wave (km/s) = 7.51614 6.82611 7.17942
#
# Compressibility (1/GPa) = 0.01664540
#
# Stress axis : x y z
#
# Youngs Moduli (GPa) = 73.11881 57.98615 85.51424
#
# Poissons Ratio (x) = 0.30695 0.37699
# Poissons Ratio (y) = 0.38705 0.28076
# Poissons Ratio (z) = 0.32234 0.19038
#
# Static dielectric constant tensor:
#      x y z
#    x 3.272750 0.000000 0.000000 
#    y 0.000000 3.280650 0.000000 
#    z 0.000000 0.000000 3.608930 
# 
# 
# High freq. dielectric constant tensor:
#      x y z
#    x 1.680580 0.000000 0.000000 
#    y 0.000000 1.688430 0.000000 
#    z 0.000000 0.000000 1.690390 
# 
# From -- ./inp_files/42261.got.cif
#   From: 2010.03.12/outbox.cif.g09.slc.cpg/sg67_22_cif.got.tgz:42261.got - 2010.04.10 22:41:39.
