data_PCOD8279881
_publ_section_title
;
Structure prediction by ZEFSAII (Michael W. Deem and Ramdas Pophale) SiO2 
 PCOD8279881
Probable space group: C M M A
;
_chemical_formula_sum "Si O2"
_cell_formula_units_Z 88
_cell_length_a 25.260465
_cell_length_b 9.028403
_cell_length_c 24.845960
_cell_angle_alpha 90.000000
_cell_angle_beta 90.000000
_cell_angle_gamma 90.000000
_cell_volume 5666.410832
_symmetry_space_group_name_H-M "C M M A"
_symmetry_group_IT_number 67
_symmetry_cell_setting 'orthorhombic'
loop_
_space_group_symop_operation_xyz
x,y,z
-x,1/2-y,z
x,-y,-z
-x,1/2+y,-z
-x,-y,-z
x,1/2+y,-z
-x,y,z
x,1/2-y,z
1/2+x,1/2+y,z
1/2-x,-y,z
1/2+x,1/2-y,-z
1/2-x,y,-z
1/2-x,1/2-y,-z
1/2+x,y,-z
1/2-x,1/2+y,z
1/2+x,-y,z
loop_
_atom_site_type_symbol
_atom_site_label
_atom_site_fract_x
_atom_site_fract_y
_atom_site_fract_z
Si Si1 0.500000 0.074405 0.442151
Si Si2 0.803524 0.423580 0.444413
Si Si3 0.436861 0.583102 0.052667
Si Si4 0.563090 0.082989 0.157589
Si Si5 0.939121 0.579453 0.737427
Si Si6 0.092587 0.920865 0.620322
O O1 0.500000 0.250000 0.449077
O O2 0.500000 0.000000 0.500000
O O3 0.447840 0.026302 0.410357
O O4 0.821309 0.500000 0.500000
O O5 0.793760 0.250000 0.454509
O O6 0.750000 0.500000 0.422740
O O7 0.848592 0.451380 0.400524
O O8 0.500000 0.579363 0.052849
O O9 0.415485 0.750000 0.051480
O O10 0.414334 0.504873 0.106193
O O11 0.414841 0.500000 0.000000
O O12 0.500000 0.074085 0.157716
O O13 0.583620 0.250000 0.153441
O O14 0.584859 0.013462 0.213019
O O15 0.933729 0.750000 0.753699
O O16 0.906735 0.540873 0.683604
O O17 0.000000 0.537510 0.726110
O O18 0.075251 0.750000 0.611175
#
# Coordination Sequence:
#
# PCOD8279881 Si02
#       6
#     8  16  16  16  16  16
#     4  12  24  34  48  68  92 118 143 176 217 262
#     4  10  20  34  53  71  90 113 142 178 219 263
#     4   9  15  22  32  46  65  92 129 171 215 252
#     4   9  16  24  34  50  73  99 132 171 208 248
#     4   9  16  28  44  58  79 109 139 171 208 252
#     4  10  20  35  51  68  90 117 146 179 218 264
#
# _framework density 15.530113
#
# number of rings (size 3 to 8) (size 9 to 14) (size 15 to 20)
#    0.000    2.364    0.909    3.545    0.000    8.000 
#    0.000    0.000    0.000    0.000    0.000    0.000 
#    0.000    0.000    0.000    0.000    0.000    0.909 
#
# Total GULP energy -545594.188614 kJ/mol
# GULP energy per Si atom -12399.867923 kJ/mol
# Density = 1.549477 g / cm^3
# Si number density = 15.530113 Si / 1000 Ang^3
#
#
#
# Elastic Constant Matrix: (Units=GPa)
#
#
# Indices 1 2 3 4 5 6 
#
# 1 47.6415 33.9417 43.4817 0.0000 0.0000 0.0000
# 2 33.9417 129.4099 79.5609 0.0000 0.0000 0.0000
# 3 43.4817 79.5609 150.0479 0.0000 0.0000 0.0000
# 4 0.0000 0.0000 0.0000 30.1290 0.0000 0.0000
# 5 0.0000 0.0000 0.0000 0.0000 8.7579 0.0000
# 6 0.0000 0.0000 0.0000 0.0000 0.0000 13.4330
#
#
#
# Elastic Compliance Matrix: (Units=1/GPa)
#
#
# Indices 1 2 3 4 5 6 
#
# 1 0.029689 -0.003705 -0.006639 0.000000 0.000000 0.000000
# 2 -0.003705 0.011927 -0.005250 0.000000 0.000000 0.000000
# 3 -0.006639 -0.005250 0.011372 0.000000 0.000000 0.000000
# 4 0.000000 0.000000 0.000000 0.033191 0.000000 0.000000
# 5 0.000000 0.000000 0.000000 0.000000 0.114182 0.000000
# 6 0.000000 0.000000 0.000000 0.000000 0.000000 0.074444
#
#
# Mechanical properties :
#
#
# Convention : Reuss Voigt Hill
#
# Bulk Modulus (GPa) = 45.87280 71.22976 58.55128
# Shear Modulus (GPa) = 15.96116 21.80499 18.88307
#
# Velocity S-wave (km/s) = 3.20934 3.75112 3.49076
# Velocity P-wave (km/s) = 6.58295 8.04527 7.35057
#
# Compressibility (1/GPa) = 0.02179941
#
# Stress axis : x y z
#
# Youngs Moduli (GPa) = 33.68251 83.84188 87.93266
#
# Poissons Ratio (x) = 0.31066 0.58376
# Poissons Ratio (y) = 0.12481 0.46169
# Poissons Ratio (z) = 0.22361 0.44021
#
# Static dielectric constant tensor:
#      x y z
#    x 2.480740 0.000000 0.000000 
#    y 0.000000 3.125220 0.000000 
#    z 0.000000 0.000000 3.134830 
# 
# 
# High freq. dielectric constant tensor:
#      x y z
#    x 1.524760 0.000000 0.000000 
#    y 0.000000 1.610410 0.000000 
#    z 0.000000 0.000000 1.607290 
# 
# From -- ./inp_files/41112.got.cif
#   From: 2010.03.12/outbox.cif.g09.slc.cpg/sg67_21_cif.got.tgz:41112.got - 2010.04.10 22:41:39.
