data_PCOD8279494
_publ_section_title
;
Structure prediction by ZEFSAII (Michael W. Deem and Ramdas Pophale) SiO2 
 PCOD8279494
Probable space group: C M M A
;
_chemical_formula_sum "Si O2"
_cell_formula_units_Z 80
_cell_length_a 27.459980
_cell_length_b 9.015103
_cell_length_c 17.875469
_cell_angle_alpha 90.000000
_cell_angle_beta 90.000000
_cell_angle_gamma 90.000000
_cell_volume 4425.153650
_symmetry_space_group_name_H-M "C M M A"
_symmetry_group_IT_number 67
_symmetry_cell_setting 'orthorhombic'
loop_
_space_group_symop_operation_xyz
x,y,z
-x,1/2-y,z
x,-y,-z
-x,1/2+y,-z
-x,-y,-z
x,1/2+y,-z
-x,y,z
x,1/2-y,z
1/2+x,1/2+y,z
1/2-x,-y,z
1/2+x,1/2-y,-z
1/2-x,y,-z
1/2-x,1/2-y,-z
1/2+x,y,-z
1/2-x,1/2+y,z
1/2+x,-y,z
loop_
_atom_site_type_symbol
_atom_site_label
_atom_site_fract_x
_atom_site_fract_y
_atom_site_fract_z
Si Si1 0.000000 0.075464 0.419069
Si Si2 0.401391 0.426136 0.660971
Si Si3 0.697635 0.428722 0.923210
Si Si4 0.750000 0.500000 0.306309
Si Si5 0.842659 0.419366 0.784741
Si Si6 0.313217 0.091381 0.567877
O O1 0.045837 0.026473 0.368718
O O2 0.000000 0.250000 0.433839
O O3 0.000000 0.000000 0.500000
O O4 0.397168 0.250000 0.676237
O O5 0.387126 0.513833 0.736342
O O6 0.363673 0.479010 0.597037
O O7 0.701411 0.250000 0.928315
O O8 0.750000 0.500000 0.905423
O O9 0.660687 0.477417 0.858111
O O10 0.677648 0.500000 0.000000
O O11 0.790363 0.581725 0.256672
O O12 0.723265 0.614025 0.362176
O O13 0.855149 0.250000 0.806226
O O14 0.324333 0.250000 0.532641
O O15 0.290305 0.000000 0.500000
#
# Coordination Sequence:
#
# PCOD8279494 Si02
#       6
#     8  16  16   8  16  16
#     4  10  20  36  58  80 105 138 177 228 284 334
#     4   9  20  36  52  73 101 133 172 218 273 326
#     4  11  21  34  53  78 110 145 182 218 256 304
#     4  10  21  32  47  64  96 132 174 208 253 306
#     4  11  21  34  53  76 104 139 178 217 262 312
#     4  10  20  32  45  64  90 124 165 211 256 306
#
# _framework density 18.078468000000001
#
# number of rings (size 3 to 8) (size 9 to 14) (size 15 to 20)
#    0.000    1.800    1.000    4.500    0.000    7.200 
#    0.000    0.000    0.000    0.000    0.000    0.700 
#    0.000    0.000    0.000    0.000    0.000    0.000 
#
# Total GULP energy -495718.340446 kJ/mol
# GULP energy per Si atom -12392.958511 kJ/mol
# Density = 1.803732 g / cm^3
# Si number density = 18.078468 Si / 1000 Ang^3
#
#
#
# Elastic Constant Matrix: (Units=GPa)
#
#
# Indices 1 2 3 4 5 6 
#
# 1 105.3591 27.3816 50.7282 0.0000 0.0000 0.0000
# 2 27.3816 114.0562 58.0764 0.0000 0.0000 0.0000
# 3 50.7282 58.0764 132.3468 0.0000 0.0000 0.0000
# 4 0.0000 0.0000 0.0000 30.5910 0.0000 0.0000
# 5 0.0000 0.0000 0.0000 0.0000 23.4179 0.0000
# 6 0.0000 0.0000 0.0000 0.0000 0.0000 17.9185
#
#
#
# Elastic Compliance Matrix: (Units=1/GPa)
#
#
# Indices 1 2 3 4 5 6 
#
# 1 0.011680 -0.000675 -0.004180 0.000000 0.000000 0.000000
# 2 -0.000675 0.011329 -0.004713 0.000000 0.000000 0.000000
# 3 -0.004180 -0.004713 0.011226 0.000000 0.000000 0.000000
# 4 0.000000 0.000000 0.000000 0.032689 0.000000 0.000000
# 5 0.000000 0.000000 0.000000 0.000000 0.042702 0.000000
# 6 0.000000 0.000000 0.000000 0.000000 0.000000 0.055808
#
#
# Mechanical properties :
#
#
# Convention : Reuss Voigt Hill
#
# Bulk Modulus (GPa) = 66.23215 69.34828 67.79022
# Shear Modulus (GPa) = 26.37060 28.75722 27.56391
#
# Velocity S-wave (km/s) = 3.82340 3.99267 3.90895
# Velocity P-wave (km/s) = 7.49711 7.72645 7.61265
#
# Compressibility (1/GPa) = 0.01509841
#
# Stress axis : x y z
#
# Youngs Moduli (GPa) = 85.61910 88.26589 89.07660
#
# Poissons Ratio (x) = 0.05961 0.37238
# Poissons Ratio (y) = 0.05782 0.41979
# Poissons Ratio (z) = 0.35793 0.41597
#
# Static dielectric constant tensor:
#      x y z
#    x 3.207520 0.000000 0.000000 
#    y 0.000000 3.265540 0.000000 
#    z 0.000000 0.000000 3.418990 
# 
# 
# High freq. dielectric constant tensor:
#      x y z
#    x 1.667680 0.000000 0.000000 
#    y 0.000000 1.703730 0.000000 
#    z 0.000000 0.000000 1.699760 
# 
# From -- ./inp_files/35776.got.cif
#   From: 2010.03.12/outbox.cif.g09.slc.cpg/sg67_18_cif.got.tgz:35776.got - 2010.04.10 22:41:39.
