data_PCOD8279151
_publ_section_title
;
Structure prediction by ZEFSAII (Michael W. Deem and Ramdas Pophale) SiO2 
 PCOD8279151
Probable space group: C M M A
;
_chemical_formula_sum "Si O2"
_cell_formula_units_Z 96
_cell_length_a 8.687338
_cell_length_b 18.723755
_cell_length_c 30.779239
_cell_angle_alpha 90.000000
_cell_angle_beta 90.000000
_cell_angle_gamma 90.000000
_cell_volume 5006.538344
_symmetry_space_group_name_H-M "C M M A"
_symmetry_group_IT_number 67
_symmetry_cell_setting 'orthorhombic'
loop_
_space_group_symop_operation_xyz
x,y,z
-x,1/2-y,z
x,-y,-z
-x,1/2+y,-z
-x,-y,-z
x,1/2+y,-z
-x,y,z
x,1/2-y,z
1/2+x,1/2+y,z
1/2-x,-y,z
1/2+x,1/2-y,-z
1/2-x,y,-z
1/2-x,1/2-y,-z
1/2+x,y,-z
1/2-x,1/2+y,z
1/2+x,-y,z
loop_
_atom_site_type_symbol
_atom_site_label
_atom_site_fract_x
_atom_site_fract_y
_atom_site_fract_z
Si Si1 0.817191 0.830180 0.626603
Si Si2 0.182696 0.076818 0.454295
Si Si3 0.681400 0.578408 0.292631
Si Si4 0.320766 0.167587 0.216678
Si Si5 0.323342 0.167451 0.873261
Si Si6 0.817637 0.422323 0.044519
O O1 0.748682 0.750000 0.628549
O O2 0.763376 0.866969 0.581970
O O3 0.752206 0.875532 0.667108
O O4 0.000000 0.827346 0.628888
O O5 0.250000 0.103896 0.500000
O O6 0.000000 0.070634 0.457578
O O7 0.250000 0.000000 0.441577
O O8 0.500000 0.571361 0.295818
O O9 0.750000 0.500000 0.294244
O O10 0.724577 0.617737 0.248382
O O11 0.500000 0.155023 0.224897
O O12 0.273532 0.250000 0.224667
O O13 0.279671 0.144666 0.167728
O O14 0.500000 0.148789 0.862427
O O15 0.302214 0.250000 0.884188
O O16 0.263359 0.125725 0.915309
O O17 0.750000 0.500000 0.052606
O O18 0.000000 0.426071 0.040605
O O19 0.750000 0.389219 0.000000
#
# Coordination Sequence:
#
# PCOD8279151 Si02
#       6
#    16  16  16  16  16  16
#     4   9  19  35  55  79 106 139 178 219 266 319
#     4  10  19  33  54  78 107 140 176 218 262 313
#     4  11  22  37  58  81 108 142 180 222 268 320
#     4  10  21  37  57  82 111 141 176 220 268 319
#     4   9  19  36  56  78 105 140 180 218 261 315
#     4  10  20  34  53  76 104 138 175 217 263 313
#
# _framework density 19.174925000000002
#
# number of rings (size 3 to 8) (size 9 to 14) (size 15 to 20)
#    0.000    2.167    0.000    4.000    0.000    4.333 
#    0.000    4.167    0.000    5.500    0.000    0.000 
#    0.000    0.000    0.000    0.000    0.000    0.000 
#
# Total GULP energy -595316.104703 kJ/mol
# GULP energy per Si atom -12402.418848 kJ/mol
# Density = 1.913128 g / cm^3
# Si number density = 19.174925 Si / 1000 Ang^3
#
#
#
# Elastic Constant Matrix: (Units=GPa)
#
#
# Indices 1 2 3 4 5 6 
#
# 1 64.4013 35.8468 39.4888 0.0000 0.0000 0.0000
# 2 35.8468 126.9010 96.3779 0.0000 0.0000 0.0000
# 3 39.4888 96.3779 158.8957 0.0000 0.0000 0.0000
# 4 0.0000 0.0000 0.0000 42.0977 0.0000 0.0000
# 5 0.0000 0.0000 0.0000 0.0000 24.2811 0.0000
# 6 0.0000 0.0000 0.0000 0.0000 0.0000 20.7299
#
#
#
# Elastic Compliance Matrix: (Units=1/GPa)
#
#
# Indices 1 2 3 4 5 6 
#
# 1 0.019040 -0.003309 -0.002725 0.000000 0.000000 0.000000
# 2 -0.003309 0.015186 -0.008389 0.000000 0.000000 0.000000
# 3 -0.002725 -0.008389 0.012059 0.000000 0.000000 0.000000
# 4 0.000000 0.000000 0.000000 0.023754 0.000000 0.000000
# 5 0.000000 0.000000 0.000000 0.000000 0.041184 0.000000
# 6 0.000000 0.000000 0.000000 0.000000 0.000000 0.048239
#
#
# Mechanical properties :
#
#
# Convention : Reuss Voigt Hill
#
# Bulk Modulus (GPa) = 57.33972 77.06946 67.20459
# Shear Modulus (GPa) = 25.75717 29.32070 27.53894
#
# Velocity S-wave (km/s) = 3.66905 3.91463 3.79383
# Velocity P-wave (km/s) = 6.92225 7.79183 7.36988
#
# Compressibility (1/GPa) = 0.01743992
#
# Stress axis : x y z
#
# Youngs Moduli (GPa) = 52.52024 65.85119 82.92807
#
# Poissons Ratio (x) = 0.21791 0.22596
# Poissons Ratio (y) = 0.17379 0.69564
# Poissons Ratio (z) = 0.14311 0.55239
#
# Static dielectric constant tensor:
#      x y z
#    x 3.393340 0.000000 0.000000 
#    y 0.000000 3.580510 0.000000 
#    z 0.000000 0.000000 3.727920 
# 
# 
# High freq. dielectric constant tensor:
#      x y z
#    x 1.737700 0.000000 0.000000 
#    y 0.000000 1.744840 0.000000 
#    z 0.000000 0.000000 1.760810 
# 
# From -- ./inp_files/43421.got.cif
#   From: 2010.03.12/outbox.cif.g09.slc.cpg/sg67_22_cif.got.tgz:43421.got - 2010.04.10 22:41:39.
