data_PCOD8279857
_publ_section_title
;
Structure prediction by ZEFSAII (Michael W. Deem and Ramdas Pophale) SiO2 
 PCOD8279857
Probable space group: C M M A
;
_chemical_formula_sum "Si O2"
_cell_formula_units_Z 80
_cell_length_a 18.746532
_cell_length_b 8.859682
_cell_length_c 25.911745
_cell_angle_alpha 90.000000
_cell_angle_beta 90.000000
_cell_angle_gamma 90.000000
_cell_volume 4303.637991
_symmetry_space_group_name_H-M "C M M A"
_symmetry_group_IT_number 67
_symmetry_cell_setting 'orthorhombic'
loop_
_space_group_symop_operation_xyz
x,y,z
-x,1/2-y,z
x,-y,-z
-x,1/2+y,-z
-x,-y,-z
x,1/2+y,-z
-x,y,z
x,1/2-y,z
1/2+x,1/2+y,z
1/2-x,-y,z
1/2+x,1/2-y,-z
1/2-x,y,-z
1/2-x,1/2-y,-z
1/2+x,y,-z
1/2-x,1/2+y,z
1/2+x,-y,z
loop_
_atom_site_type_symbol
_atom_site_label
_atom_site_fract_x
_atom_site_fract_y
_atom_site_fract_z
Si Si1 0.585095 0.920037 0.653931
Si Si2 0.085065 0.419959 0.448712
Si Si3 0.084891 0.580320 0.756263
Si Si4 0.825174 0.070615 0.054256
Si Si5 0.084520 0.077856 0.859757
O O1 0.500000 0.923060 0.653978
O O2 0.613869 0.750000 0.656365
O O3 0.614896 0.996112 0.601883
O O4 0.615234 0.009000 0.703516
O O5 0.115058 0.500000 0.500000
O O6 0.113863 0.250000 0.447935
O O7 0.000000 0.423574 0.448802
O O8 0.114559 0.750000 0.761824
O O9 0.111918 0.481187 0.804390
O O10 0.000000 0.580946 0.754562
O O11 0.818396 0.250000 0.048894
O O12 0.750000 0.000000 0.071548
O O13 0.883936 0.028818 0.096280
O O14 0.849748 0.000000 0.000000
O O15 0.110335 0.250000 0.866849
O O16 0.000000 0.065441 0.863602
#
# Coordination Sequence:
#
# PCOD8279857 Si02
#       5
#    16  16  16  16  16
#     4   9  15  22  32  46  66  95 131 172 219 269
#     4   9  15  21  28  39  57  84 122 169 217 264
#     4   9  16  26  40  59  83 111 144 183 228 276
#     4  11  22  38  58  78 102 131 164 199 238 286
#     4  10  20  34  52  75 102 130 162 201 243 286
#
# _framework density 18.588923999999999
#
# number of rings (size 3 to 8) (size 9 to 14) (size 15 to 20)
#    0.000    2.400    0.000    4.800    0.000    8.800 
#    0.000    0.000    0.000    0.000    0.000    0.000 
#    0.000    0.000    0.000    0.000    0.000    1.000 
#
# Total GULP energy -496004.953142 kJ/mol
# GULP energy per Si atom -12400.123829 kJ/mol
# Density = 1.854661 g / cm^3
# Si number density = 18.588924 Si / 1000 Ang^3
#
#
#
# Elastic Constant Matrix: (Units=GPa)
#
#
# Indices 1 2 3 4 5 6 
#
# 1 12.1079 19.9734 26.1775 0.0000 0.0000 0.0000
# 2 19.9734 175.6990 75.5637 0.0000 0.0000 0.0000
# 3 26.1775 75.5637 159.2937 0.0000 0.0000 0.0000
# 4 0.0000 0.0000 0.0000 43.4543 0.0000 0.0000
# 5 0.0000 0.0000 0.0000 0.0000 -0.7191 0.0000
# 6 0.0000 0.0000 0.0000 0.0000 0.0000 14.3461
#
#
#
# Elastic Compliance Matrix: (Units=1/GPa)
#
#
# Indices 1 2 3 4 5 6 
#
# 1 0.135175 -0.007303 -0.018750 0.000000 0.000000 0.000000
# 2 -0.007303 0.007545 -0.002379 0.000000 0.000000 0.000000
# 3 -0.018750 -0.002379 0.010487 0.000000 0.000000 0.000000
# 4 0.000000 0.000000 0.000000 0.023013 0.000000 0.000000
# 5 0.000000 0.000000 0.000000 0.000000 -1.390598 0.000000
# 6 0.000000 0.000000 0.000000 0.000000 0.000000 0.069705
#
#
# Mechanical properties :
#
#
# Convention : Reuss Voigt Hill
#
# Bulk Modulus (GPa) = 10.37944 65.61443 37.99694
# Shear Modulus (GPa) = -4.73622 26.44199 10.85289
#
# Velocity S-wave (km/s) = -1.59794 3.77564 2.41889
# Velocity P-wave (km/s) = 1.48029 7.37438 5.31850
#
# Compressibility (1/GPa) = 0.09634430
#
# Stress axis : x y z
#
# Youngs Moduli (GPa) = 7.39781 132.54071 95.35229
#
# Poissons Ratio (x) = 0.96793 1.78783
# Poissons Ratio (y) = 0.05403 0.22683
# Poissons Ratio (z) = 0.13871 0.31530
#
# Static dielectric constant tensor:
#      x y z
#    x 2.653270 0.000000 0.000000 
#    y 0.000000 3.676840 0.000000 
#    z 0.000000 0.000000 3.646760 
# 
# 
# High freq. dielectric constant tensor:
#      x y z
#    x 1.634950 0.000000 0.000000 
#    y 0.000000 1.744330 0.000000 
#    z 0.000000 0.000000 1.741670 
# 
# From -- ./inp_files/43224.got.cif
#   From: 2010.03.12/outbox.cif.g09.slc.cpg/sg67_22_cif.got.tgz:43224.got - 2010.04.10 22:41:39.
