data_PCOD8279558
_publ_section_title
;
Structure prediction by ZEFSAII (Michael W. Deem and Ramdas Pophale) SiO2 
 PCOD8279558
Probable space group: C M M A
;
_chemical_formula_sum "Si O2"
_cell_formula_units_Z 88
_cell_length_a 24.076061
_cell_length_b 10.504383
_cell_length_c 18.686331
_cell_angle_alpha 90.000000
_cell_angle_beta 90.000000
_cell_angle_gamma 90.000000
_cell_volume 4725.850955
_symmetry_space_group_name_H-M "C M M A"
_symmetry_group_IT_number 67
_symmetry_cell_setting 'orthorhombic'
loop_
_space_group_symop_operation_xyz
x,y,z
-x,1/2-y,z
x,-y,-z
-x,1/2+y,-z
-x,-y,-z
x,1/2+y,-z
-x,y,z
x,1/2-y,z
1/2+x,1/2+y,z
1/2-x,-y,z
1/2+x,1/2-y,-z
1/2-x,y,-z
1/2-x,1/2-y,-z
1/2+x,y,-z
1/2-x,1/2+y,z
1/2+x,-y,z
loop_
_atom_site_type_symbol
_atom_site_label
_atom_site_fract_x
_atom_site_fract_y
_atom_site_fract_z
Si Si1 0.500000 0.386380 0.445374
Si Si2 0.438102 0.610777 0.304969
Si Si3 0.394950 0.106549 0.210779
Si Si4 0.704549 0.390760 0.311525
Si Si5 0.064269 0.393619 0.943278
Si Si6 0.615843 0.970174 0.582791
O O1 0.500000 0.250000 0.485299
O O2 0.500000 0.500000 0.500000
O O3 0.441893 0.393150 0.401833
O O4 0.500000 0.602142 0.337966
O O5 0.428294 0.750000 0.269693
O O6 0.433237 0.501086 0.245721
O O7 0.393478 0.597678 0.369898
O O8 0.416197 0.250000 0.229662
O O9 0.332450 0.088433 0.240463
O O10 0.396627 0.087009 0.125643
O O11 0.732289 0.250000 0.309319
O O12 0.750000 0.500000 0.314674
O O13 0.667266 0.393964 0.383872
O O14 0.072427 0.250000 0.974334
O O15 0.000000 0.414170 0.921213
O O16 0.083154 0.500000 0.000000
O O17 0.627569 0.000000 0.500000
#
# Coordination Sequence:
#
# PCOD8279558 Si02
#       6
#     8  16  16  16  16  16
#     4  10  20  34  54  78 106 138 171 212 271 336
#     4  10  20  32  48  76 109 140 177 225 272 320
#     4   9  19  36  56  77 104 144 188 225 263 324
#     4  10  22  40  59  79 102 136 187 236 283 330
#     4   9  17  30  51  82 119 152 180 211 255 312
#     4  10  21  37  55  79 106 143 179 226 280 344
#
# _framework density 18.620984
#
# number of rings (size 3 to 8) (size 9 to 14) (size 15 to 20)
#    0.000    2.364    0.909    1.091    0.000    9.455 
#    0.000    2.727    0.000    0.545    0.000    3.818 
#    0.000    0.000    0.000    0.000    0.000    0.000 
#
# Total GULP energy -545126.536373 kJ/mol
# GULP energy per Si atom -12389.239463 kJ/mol
# Density = 1.857860 g / cm^3
# Si number density = 18.620984 Si / 1000 Ang^3
#
#
#
# Elastic Constant Matrix: (Units=GPa)
#
#
# Indices 1 2 3 4 5 6 
#
# 1 78.5834 53.9274 35.4951 0.0000 0.0000 0.0000
# 2 53.9274 160.4231 63.0012 0.0000 0.0000 0.0000
# 3 35.4951 63.0012 117.7739 0.0000 0.0000 0.0000
# 4 0.0000 0.0000 0.0000 26.4249 0.0000 0.0000
# 5 0.0000 0.0000 0.0000 0.0000 17.3910 0.0000
# 6 0.0000 0.0000 0.0000 0.0000 0.0000 18.4550
#
#
#
# Elastic Compliance Matrix: (Units=1/GPa)
#
#
# Indices 1 2 3 4 5 6 
#
# 1 0.017167 -0.004733 -0.002642 0.000000 0.000000 0.000000
# 2 -0.004733 0.009196 -0.003493 0.000000 0.000000 0.000000
# 3 -0.002642 -0.003493 0.011156 0.000000 0.000000 0.000000
# 4 0.000000 0.000000 0.000000 0.037843 0.000000 0.000000
# 5 0.000000 0.000000 0.000000 0.000000 0.057501 0.000000
# 6 0.000000 0.000000 0.000000 0.000000 0.000000 0.054186
#
#
# Mechanical properties :
#
#
# Convention : Reuss Voigt Hill
#
# Bulk Modulus (GPa) = 63.36052 73.51421 68.43737
# Shear Modulus (GPa) = 23.35951 26.07796 24.71873
#
# Velocity S-wave (km/s) = 3.54570 3.74633 3.64739
# Velocity P-wave (km/s) = 7.13182 7.63402 7.38719
#
# Compressibility (1/GPa) = 0.01578270
#
# Stress axis : x y z
#
# Youngs Moduli (GPa) = 58.25212 108.73860 89.64175
#
# Poissons Ratio (x) = 0.51469 0.23682
# Poissons Ratio (y) = 0.27572 0.31311
# Poissons Ratio (z) = 0.15389 0.37982
#
# Static dielectric constant tensor:
#      x y z
#    x 3.322290 0.000000 0.000000 
#    y 0.000000 3.678210 0.000000 
#    z 0.000000 0.000000 3.218150 
# 
# 
# High freq. dielectric constant tensor:
#      x y z
#    x 1.691240 0.000000 0.000000 
#    y 0.000000 1.740620 0.000000 
#    z 0.000000 0.000000 1.700020 
# 
# From -- ./inp_files/34866.got.cif
#   From: 2010.03.12/outbox.cif.g09.slc.cpg/sg67_18_cif.got.tgz:34866.got - 2010.04.10 22:41:39.
