data_PCOD8279049
_publ_section_title
;
Structure prediction by ZEFSAII (Michael W. Deem and Ramdas Pophale) SiO2 
 PCOD8279049
Probable space group: C M M A
;
_chemical_formula_sum "Si O2"
_cell_formula_units_Z 96
_cell_length_a 28.461095
_cell_length_b 8.939229
_cell_length_c 20.530995
_cell_angle_alpha 90.000000
_cell_angle_beta 90.000000
_cell_angle_gamma 90.000000
_cell_volume 5223.500794
_symmetry_space_group_name_H-M "C M M A"
_symmetry_group_IT_number 67
_symmetry_cell_setting 'orthorhombic'
loop_
_space_group_symop_operation_xyz
x,y,z
-x,1/2-y,z
x,-y,-z
-x,1/2+y,-z
-x,-y,-z
x,1/2+y,-z
-x,y,z
x,1/2-y,z
1/2+x,1/2+y,z
1/2-x,-y,z
1/2+x,1/2-y,-z
1/2-x,y,-z
1/2-x,1/2-y,-z
1/2+x,y,-z
1/2-x,1/2+y,z
1/2+x,-y,z
loop_
_atom_site_type_symbol
_atom_site_label
_atom_site_fract_x
_atom_site_fract_y
_atom_site_fract_z
Si Si1 0.702903 0.926494 0.373039
Si Si2 0.894901 0.425047 0.433050
Si Si3 0.604169 0.922084 0.816559
Si Si4 0.945105 0.077831 0.684564
Si Si5 0.446420 0.074460 0.933595
Si Si6 0.704020 0.423478 0.234940
O O1 0.709875 0.750000 0.366012
O O2 0.659260 0.967017 0.419083
O O3 0.750000 0.000000 0.403403
O O4 0.692468 0.995878 0.302660
O O5 0.910981 0.500000 0.500000
O O6 0.902085 0.250000 0.439846
O O7 0.928596 0.480634 0.376015
O O8 0.590169 0.750000 0.829245
O O9 0.581138 0.978583 0.749384
O O10 0.660311 0.942929 0.813508
O O11 0.586080 0.022747 0.874885
O O12 0.932236 0.250000 0.670593
O O13 0.000000 0.053953 0.695657
O O14 0.500000 0.025386 0.919186
O O15 0.441809 0.250000 0.941963
O O16 0.428181 0.000000 0.000000
O O17 0.714181 0.250000 0.249286
O O18 0.750000 0.500000 0.202583
#
# Coordination Sequence:
#
# PCOD8279049 Si02
#       6
#    16  16  16  16  16  16
#     4  10  20  34  54  79 106 138 175 221 274 328
#     4  11  24  39  56  77 105 141 181 227 278 332
#     4  10  20  35  58  85 114 148 183 223 272 324
#     4  10  21  38  59  81 107 141 181 226 275 327
#     4  10  21  36  56  84 118 154 189 227 271 321
#     4  10  19  32  54  82 112 145 179 221 270 322
#
# _framework density 18.37848
#
# number of rings (size 3 to 8) (size 9 to 14) (size 15 to 20)
#    0.000    1.833    1.667    3.500    0.000    6.667 
#    0.000    1.667    0.000    0.500    0.000    3.500 
#    0.000    0.000    0.000    0.000    0.000    0.000 
#
# Total GULP energy -595366.166486 kJ/mol
# GULP energy per Si atom -12403.461802 kJ/mol
# Density = 1.833665 g / cm^3
# Si number density = 18.378480 Si / 1000 Ang^3
#
#
#
# Elastic Constant Matrix: (Units=GPa)
#
#
# Indices 1 2 3 4 5 6 
#
# 1 90.9857 41.7488 47.6738 0.0000 0.0000 0.0000
# 2 41.7488 84.7466 41.1770 0.0000 0.0000 0.0000
# 3 47.6738 41.1770 106.6877 0.0000 0.0000 0.0000
# 4 0.0000 0.0000 0.0000 32.5782 0.0000 0.0000
# 5 0.0000 0.0000 0.0000 0.0000 24.2275 0.0000
# 6 0.0000 0.0000 0.0000 0.0000 0.0000 30.8408
#
#
#
# Elastic Compliance Matrix: (Units=1/GPa)
#
#
# Indices 1 2 3 4 5 6 
#
# 1 0.016190 -0.005490 -0.005116 0.000000 0.000000 0.000000
# 2 -0.005490 0.016385 -0.003871 0.000000 0.000000 0.000000
# 3 -0.005116 -0.003871 0.013153 0.000000 0.000000 0.000000
# 4 0.000000 0.000000 0.000000 0.030695 0.000000 0.000000
# 5 0.000000 0.000000 0.000000 0.000000 0.041275 0.000000
# 6 0.000000 0.000000 0.000000 0.000000 0.000000 0.032425
#
#
# Mechanical properties :
#
#
# Convention : Reuss Voigt Hill
#
# Bulk Modulus (GPa) = 59.61113 60.40212 60.00663
# Shear Modulus (GPa) = 27.07542 27.65066 27.36304
#
# Velocity S-wave (km/s) = 3.84241 3.88301 3.86276
# Velocity P-wave (km/s) = 7.22435 7.28291 7.25369
#
# Compressibility (1/GPa) = 0.01677539
#
# Stress axis : x y z
#
# Youngs Moduli (GPa) = 61.76489 61.03050 76.02795
#
# Poissons Ratio (x) = 0.33507 0.38894
# Poissons Ratio (y) = 0.33910 0.29428
# Poissons Ratio (z) = 0.31597 0.23623
#
# Static dielectric constant tensor:
#      x y z
#    x 3.585210 0.000000 0.000000 
#    y 0.000000 3.457400 0.000000 
#    z 0.000000 0.000000 3.176330 
# 
# 
# High freq. dielectric constant tensor:
#      x y z
#    x 1.718850 0.000000 0.000000 
#    y 0.000000 1.722250 0.000000 
#    z 0.000000 0.000000 1.693560 
# 
# From -- ./inp_files/37126.got.cif
#   From: 2010.03.12/outbox.cif.g09.slc.cpg/sg67_19_cif.got.tgz:37126.got - 2010.04.10 22:41:39.
