data_PCOD8279667
_publ_section_title
;
Structure prediction by ZEFSAII (Michael W. Deem and Ramdas Pophale) SiO2 
 PCOD8279667
Probable space group: C M M A
;
_chemical_formula_sum "Si O2"
_cell_formula_units_Z 96
_cell_length_a 19.656192
_cell_length_b 9.016221
_cell_length_c 30.464882
_cell_angle_alpha 90.000000
_cell_angle_beta 90.000000
_cell_angle_gamma 90.000000
_cell_volume 5399.125646
_symmetry_space_group_name_H-M "C M M A"
_symmetry_group_IT_number 67
_symmetry_cell_setting 'orthorhombic'
loop_
_space_group_symop_operation_xyz
x,y,z
-x,1/2-y,z
x,-y,-z
-x,1/2+y,-z
-x,-y,-z
x,1/2+y,-z
-x,y,z
x,1/2-y,z
1/2+x,1/2+y,z
1/2-x,-y,z
1/2+x,1/2-y,-z
1/2-x,y,-z
1/2-x,1/2-y,-z
1/2+x,y,-z
1/2-x,1/2+y,z
1/2+x,-y,z
loop_
_atom_site_type_symbol
_atom_site_label
_atom_site_fract_x
_atom_site_fract_y
_atom_site_fract_z
Si Si1 0.419996 0.922663 0.631186
Si Si2 0.179750 0.074592 0.303215
Si Si3 0.081056 0.082789 0.957279
Si Si4 0.818314 0.076923 0.202723
Si Si5 0.922542 0.924241 0.870151
Si Si6 0.580889 0.082497 0.542913
O O1 0.500000 0.947738 0.637809
O O2 0.400884 0.750000 0.631472
O O3 0.382804 0.007335 0.670239
O O4 0.394596 0.992079 0.585391
O O5 0.184279 0.250000 0.310913
O O6 0.164994 0.032929 0.252701
O O7 0.250000 0.000000 0.319037
O O8 0.108533 0.250000 0.957673
O O9 0.000000 0.077415 0.958381
O O10 0.107563 0.003234 0.913290
O O11 0.110859 0.000000 0.000000
O O12 0.806120 0.250000 0.198355
O O13 0.880250 0.023549 0.172223
O O14 0.750000 0.000000 0.185917
O O15 0.916998 0.750000 0.878343
O O16 0.000000 0.972850 0.861233
O O17 0.500000 0.085838 0.540649
O O18 0.609777 0.250000 0.544840
O O19 0.610399 0.000000 0.500000
#
# Coordination Sequence:
#
# PCOD8279667 Si02
#       6
#    16  16  16  16  16  16
#     4  10  20  33  50  75 105 134 167 209 253 294
#     4  10  20  35  54  74  98 131 170 208 249 300
#     4   9  16  26  42  66  95 126 158 192 233 281
#     4   9  19  34  52  72  95 127 163 199 241 291
#     4   9  17  30  48  71  98 126 158 197 239 282
#     4   9  16  27  45  70 100 133 167 203 245 293
#
# _framework density 17.780656
#
# number of rings (size 3 to 8) (size 9 to 14) (size 15 to 20)
#    0.000    2.667    0.000    2.000    0.000    7.000 
#    0.000    1.667    0.000    3.000    0.000    7.000 
#    0.000    0.000    0.000    0.000    0.000    0.000 
#
# Total GULP energy -595239.080965 kJ/mol
# GULP energy per Si atom -12400.814187 kJ/mol
# Density = 1.774019 g / cm^3
# Si number density = 17.780656 Si / 1000 Ang^3
#
#
#
# Elastic Constant Matrix: (Units=GPa)
#
#
# Indices 1 2 3 4 5 6 
#
# 1 56.8049 39.4054 57.6952 0.0000 0.0000 0.0000
# 2 39.4054 104.2354 63.7513 0.0000 0.0000 0.0000
# 3 57.6952 63.7513 135.0224 0.0000 0.0000 0.0000
# 4 0.0000 0.0000 0.0000 34.6449 0.0000 0.0000
# 5 0.0000 0.0000 0.0000 0.0000 4.5908 0.0000
# 6 0.0000 0.0000 0.0000 0.0000 0.0000 23.8321
#
#
#
# Elastic Compliance Matrix: (Units=1/GPa)
#
#
# Indices 1 2 3 4 5 6 
#
# 1 0.033161 -0.005441 -0.011601 0.000000 0.000000 0.000000
# 2 -0.005441 0.014382 -0.004465 0.000000 0.000000 0.000000
# 3 -0.011601 -0.004465 0.014472 0.000000 0.000000 0.000000
# 4 0.000000 0.000000 0.000000 0.028864 0.000000 0.000000
# 5 0.000000 0.000000 0.000000 0.000000 0.217828 0.000000
# 6 0.000000 0.000000 0.000000 0.000000 0.000000 0.041960
#
#
# Mechanical properties :
#
#
# Convention : Reuss Voigt Hill
#
# Bulk Modulus (GPa) = 52.63197 68.64073 60.63635
# Shear Modulus (GPa) = 12.49952 21.62759 17.06356
#
# Velocity S-wave (km/s) = 2.65426 3.49141 3.10121
# Velocity P-wave (km/s) = 6.24967 7.41224 6.85564
#
# Compressibility (1/GPa) = 0.01899986
#
# Stress axis : x y z
#
# Youngs Moduli (GPa) = 30.15568 69.53262 69.10127
#
# Poissons Ratio (x) = 0.37834 0.80163
# Poissons Ratio (y) = 0.16408 0.30856
# Poissons Ratio (z) = 0.34983 0.31049
#
# Static dielectric constant tensor:
#      x y z
#    x 2.973230 0.000000 0.000000 
#    y 0.000000 3.418200 0.000000 
#    z 0.000000 0.000000 3.484130 
# 
# 
# High freq. dielectric constant tensor:
#      x y z
#    x 1.643650 0.000000 0.000000 
#    y 0.000000 1.699560 0.000000 
#    z 0.000000 0.000000 1.698690 
# 
# From -- ./inp_files/42559.got.cif
#   From: 2010.03.12/outbox.cif.g09.slc.cpg/sg67_22_cif.got.tgz:42559.got - 2010.04.10 22:41:39.
