data_PCOD8279147
_publ_section_title
;
Structure prediction by ZEFSAII (Michael W. Deem and Ramdas Pophale) SiO2 
 PCOD8279147
Probable space group: C M M A
;
_chemical_formula_sum "Si O2"
_cell_formula_units_Z 80
_cell_length_a 8.874310
_cell_length_b 27.387307
_cell_length_c 18.569590
_cell_angle_alpha 90.000000
_cell_angle_beta 90.000000
_cell_angle_gamma 90.000000
_cell_volume 4513.217263
_symmetry_space_group_name_H-M "C M M A"
_symmetry_group_IT_number 67
_symmetry_cell_setting 'orthorhombic'
loop_
_space_group_symop_operation_xyz
x,y,z
-x,1/2-y,z
x,-y,-z
-x,1/2+y,-z
-x,-y,-z
x,1/2+y,-z
-x,y,z
x,1/2-y,z
1/2+x,1/2+y,z
1/2-x,-y,z
1/2+x,1/2-y,-z
1/2-x,y,-z
1/2-x,1/2-y,-z
1/2+x,y,-z
1/2-x,1/2+y,z
1/2+x,-y,z
loop_
_atom_site_type_symbol
_atom_site_label
_atom_site_fract_x
_atom_site_fract_y
_atom_site_fract_z
Si Si1 0.176854 0.306285 0.424613
Si Si2 0.321801 0.052282 0.783691
Si Si3 0.676895 0.639776 0.707260
Si Si4 0.823561 0.107944 0.073205
Si Si5 0.675603 0.805564 0.852028
O O1 0.212559 0.250000 0.406629
O O2 0.250000 0.321394 0.500000
O O3 0.251463 0.339795 0.364833
O O4 0.000000 0.316362 0.428031
O O5 0.500000 0.049824 0.773894
O O6 0.253038 0.087940 0.723839
O O7 0.276503 0.071272 0.863057
O O8 0.250000 0.000000 0.771326
O O9 0.500000 0.632189 0.696551
O O10 0.713058 0.677634 0.771130
O O11 0.765898 0.162354 0.090431
O O12 0.000000 0.110108 0.062265
O O13 0.750000 0.088028 0.000000
O O14 0.500000 0.811725 0.868737
O O15 0.729397 0.750000 0.860587
#
# Coordination Sequence:
#
# PCOD8279147 Si02
#       5
#    16  16  16  16  16
#     4  10  20  33  51  78 112 147 180 213 250 295
#     4  10  21  37  56  78 101 129 168 212 260 310
#     4  10  19  33  54  78 105 136 171 213 258 304
#     4  10  21  35  51  72  99 130 166 209 256 307
#     4   9  18  32  50  72  99 133 171 208 249 300
#
# _framework density 17.725715000000001
#
# number of rings (size 3 to 8) (size 9 to 14) (size 15 to 20)
#    0.000    2.200    0.000    3.000    0.000    6.400 
#    0.000    2.000    0.000    0.600    0.000    4.200 
#    0.000    0.000    0.000    0.000    0.000    0.000 
#
# Total GULP energy -496170.477246 kJ/mol
# GULP energy per Si atom -12404.261931 kJ/mol
# Density = 1.768537 g / cm^3
# Si number density = 17.725715 Si / 1000 Ang^3
#
#
#
# Elastic Constant Matrix: (Units=GPa)
#
#
# Indices 1 2 3 4 5 6 
#
# 1 87.4126 50.0319 56.6729 0.0000 0.0000 0.0000
# 2 50.0319 113.3983 54.2523 0.0000 0.0000 0.0000
# 3 56.6729 54.2523 120.3420 0.0000 0.0000 0.0000
# 4 0.0000 0.0000 0.0000 18.1516 0.0000 0.0000
# 5 0.0000 0.0000 0.0000 0.0000 34.2566 0.0000
# 6 0.0000 0.0000 0.0000 0.0000 0.0000 30.9347
#
#
#
# Elastic Compliance Matrix: (Units=1/GPa)
#
#
# Indices 1 2 3 4 5 6 
#
# 1 0.018524 -0.005099 -0.006425 0.000000 0.000000 0.000000
# 2 -0.005099 0.012647 -0.003300 0.000000 0.000000 0.000000
# 3 -0.006425 -0.003300 0.012823 0.000000 0.000000 0.000000
# 4 0.000000 0.000000 0.000000 0.055091 0.000000 0.000000
# 5 0.000000 0.000000 0.000000 0.000000 0.029191 0.000000
# 6 0.000000 0.000000 0.000000 0.000000 0.000000 0.032326
#
#
# Mechanical properties :
#
#
# Convention : Reuss Voigt Hill
#
# Bulk Modulus (GPa) = 69.70587 71.45189 70.57888
# Shear Modulus (GPa) = 25.63663 27.34830 26.49246
#
# Velocity S-wave (km/s) = 3.80715 3.93219 3.87017
# Velocity P-wave (km/s) = 7.66393 7.81111 7.73787
#
# Compressibility (1/GPa) = 0.01434599
#
# Stress axis : x y z
#
# Youngs Moduli (GPa) = 53.98410 79.06936 77.98444
#
# Poissons Ratio (x) = 0.40318 0.50103
# Poissons Ratio (y) = 0.27527 0.25737
# Poissons Ratio (z) = 0.34683 0.26095
#
# Static dielectric constant tensor:
#      x y z
#    x 3.379550 0.000000 0.000000 
#    y 0.000000 3.185300 0.000000 
#    z 0.000000 0.000000 3.251680 
# 
# 
# High freq. dielectric constant tensor:
#      x y z
#    x 1.700220 0.000000 0.000000 
#    y 0.000000 1.677270 0.000000 
#    z 0.000000 0.000000 1.680450 
# 
# From -- ./inp_files/32106.got.cif
#   From: 2010.03.12/outbox.cif.g09.slc.cpg/sg67_17_cif.got.tgz:32106.got - 2010.04.10 22:41:39.
