data_PCOD8279338
_publ_section_title
;
Structure prediction by ZEFSAII (Michael W. Deem and Ramdas Pophale) SiO2 
 PCOD8279338
Probable space group: C M M A
;
_chemical_formula_sum "Si O2"
_cell_formula_units_Z 72
_cell_length_a 8.692057
_cell_length_b 15.487905
_cell_length_c 28.076059
_cell_angle_alpha 90.000000
_cell_angle_beta 90.000000
_cell_angle_gamma 90.000000
_cell_volume 3779.648282
_symmetry_space_group_name_H-M "C M M A"
_symmetry_group_IT_number 67
_symmetry_cell_setting 'orthorhombic'
loop_
_space_group_symop_operation_xyz
x,y,z
-x,1/2-y,z
x,-y,-z
-x,1/2+y,-z
-x,-y,-z
x,1/2+y,-z
-x,y,z
x,1/2-y,z
1/2+x,1/2+y,z
1/2-x,-y,z
1/2+x,1/2-y,-z
1/2-x,y,-z
1/2-x,1/2-y,-z
1/2+x,y,-z
1/2-x,1/2+y,z
1/2+x,-y,z
loop_
_atom_site_type_symbol
_atom_site_label
_atom_site_fract_x
_atom_site_fract_y
_atom_site_fract_z
Si Si1 0.817873 0.250000 0.385796
Si Si2 0.817798 0.409377 0.778220
Si Si3 0.682904 0.250000 0.052233
Si Si4 0.317317 0.250000 0.722038
Si Si5 0.183296 0.909381 0.551599
Si Si6 0.181265 0.589294 0.112968
O O1 0.755724 0.250000 0.332035
O O2 0.758086 0.335566 0.412481
O O3 0.000000 0.250000 0.386171
O O4 0.750000 0.500000 0.759918
O O5 0.746488 0.334718 0.746841
O O6 0.766973 0.393303 0.832797
O O7 0.000000 0.409621 0.772529
O O8 0.500000 0.250000 0.050194
O O9 0.744999 0.166207 0.080173
O O10 0.750000 0.250000 0.000000
O O11 0.500000 0.250000 0.724769
O O12 0.250000 0.886943 0.500000
O O13 0.000000 0.914760 0.548468
O O14 0.250000 0.000000 0.570521
O O15 0.250000 0.500000 0.093483
O O16 0.000000 0.583002 0.109610
#
# Coordination Sequence:
#
# PCOD8279338 Si02
#       6
#     8  16   8   8  16  16
#     4   9  21  37  53  75 109 144 175 213 261 313
#     4  10  20  37  59  83 108 140 181 227 272 320
#     4  10  21  36  52  75 107 142 173 211 260 314
#     4  11  22  37  55  80 113 148 181 220 269 323
#     4  10  19  35  56  79 104 135 174 218 262 309
#     4   9  19  36  57  78 104 136 175 219 265 312
#
# _framework density 19.049391
#
# number of rings (size 3 to 8) (size 9 to 14) (size 15 to 20)
#    0.000    2.222    0.000    3.333    0.000    4.889 
#    0.000   11.667    0.000    0.000    0.000    0.000 
#    0.000    0.000    0.000    0.000    0.000    0.000 
#
# Total GULP energy -446479.435990 kJ/mol
# GULP energy per Si atom -12402.206555 kJ/mol
# Density = 1.900603 g / cm^3
# Si number density = 19.049391 Si / 1000 Ang^3
#
#
#
# Elastic Constant Matrix: (Units=GPa)
#
#
# Indices 1 2 3 4 5 6 
#
# 1 60.0286 47.7612 37.3613 0.0000 0.0000 0.0000
# 2 47.7612 212.0248 118.1482 0.0000 0.0000 0.0000
# 3 37.3613 118.1482 134.3497 0.0000 0.0000 0.0000
# 4 0.0000 0.0000 0.0000 -64.7154 0.0000 0.0000
# 5 0.0000 0.0000 0.0000 0.0000 26.7109 0.0000
# 6 0.0000 0.0000 0.0000 0.0000 0.0000 35.6702
#
#
#
# Elastic Compliance Matrix: (Units=1/GPa)
#
#
# Indices 1 2 3 4 5 6 
#
# 1 0.021015 -0.002897 -0.003296 0.000000 0.000000 0.000000
# 2 -0.002897 0.009648 -0.007679 0.000000 0.000000 0.000000
# 3 -0.003296 -0.007679 0.015113 0.000000 0.000000 0.000000
# 4 0.000000 0.000000 0.000000 -0.015452 0.000000 0.000000
# 5 0.000000 0.000000 0.000000 0.000000 0.037438 0.000000
# 6 0.000000 0.000000 0.000000 0.000000 0.000000 0.028035
#
#
# Mechanical properties :
#
#
# Convention : Reuss Voigt Hill
#
# Bulk Modulus (GPa) = 55.45872 90.32720 72.89296
# Shear Modulus (GPa) = 38.59459 13.07529 25.83494
#
# Velocity S-wave (km/s) = 4.50602 2.62275 3.68667
# Velocity P-wave (km/s) = 7.49991 7.52941 7.51468
#
# Compressibility (1/GPa) = 0.01803143
#
# Stress axis : x y z
#
# Youngs Moduli (GPa) = 47.58406 103.64856 66.16889
#
# Poissons Ratio (x) = 0.30028 0.21812
# Poissons Ratio (y) = 0.13785 0.50810
# Poissons Ratio (z) = 0.15686 0.79590
#
# Static dielectric constant tensor:
#      x y z
#    x 3.392910 0.000000 0.000000 
#    y 0.000000 3.651940 0.000000 
#    z 0.000000 0.000000 3.599180 
# 
# 
# High freq. dielectric constant tensor:
#      x y z
#    x 1.734630 0.000000 0.000000 
#    y 0.000000 1.759160 0.000000 
#    z 0.000000 0.000000 1.736130 
# 
# From -- ./inp_files/43123.got.cif
#   From: 2010.03.12/outbox.cif.g09.slc.cpg/sg67_22_cif.got.tgz:43123.got - 2010.04.10 22:41:39.
