data_PCOD8279221
_publ_section_title
;
Structure prediction by ZEFSAII (Michael W. Deem and Ramdas Pophale) SiO2 
 PCOD8279221
Probable space group: C M M A
;
_chemical_formula_sum "Si O2"
_cell_formula_units_Z 88
_cell_length_a 30.170638
_cell_length_b 34.205131
_cell_length_c 5.138533
_cell_angle_alpha 90.000000
_cell_angle_beta 90.000000
_cell_angle_gamma 90.000000
_cell_volume 5302.917883
_symmetry_space_group_name_H-M "C M M A"
_symmetry_group_IT_number 67
_symmetry_cell_setting 'orthorhombic'
loop_
_space_group_symop_operation_xyz
x,y,z
-x,1/2-y,z
x,-y,-z
-x,1/2+y,-z
-x,-y,-z
x,1/2+y,-z
-x,y,z
x,1/2-y,z
1/2+x,1/2+y,z
1/2-x,-y,z
1/2+x,1/2-y,-z
1/2-x,y,-z
1/2-x,1/2-y,-z
1/2+x,y,-z
1/2-x,1/2+y,z
1/2+x,-y,z
loop_
_atom_site_type_symbol
_atom_site_label
_atom_site_fract_x
_atom_site_fract_y
_atom_site_fract_z
Si Si1 0.947523 0.293613 0.087345
Si Si2 0.230161 0.956427 0.752623
Si Si3 0.500000 0.473178 0.250818
Si Si4 0.628541 0.457846 0.884337
Si Si5 0.052601 0.158760 0.588402
Si Si6 0.586065 0.573431 0.633830
O O1 0.926922 0.250000 0.075719
O O2 0.931906 0.314653 0.349015
O O3 0.000000 0.290289 0.079181
O O4 0.930937 0.319034 0.845114
O O5 0.250000 0.934465 0.500000
O O6 0.177520 0.956857 0.765348
O O7 0.250000 0.000000 0.751829
O O8 0.250000 0.933494 0.000000
O O9 0.500000 0.500000 0.500000
O O10 0.542329 0.445265 0.243512
O O11 0.500000 0.500000 0.000000
O O12 0.597991 0.448434 0.635551
O O13 0.615840 0.500000 0.000000
O O14 0.622603 0.428959 0.132647
O O15 0.078521 0.118337 0.564365
O O16 0.000000 0.151070 0.587172
#
# Coordination Sequence:
#
# PCOD8279221 Si02
#       6
#    16  16   8  16  16  16
#     4   9  17  29  51  75  92 118 165 216 252 291
#     4  10  19  34  54  73  93 113 150 210 269 322
#     4  12  24  40  48  62  89 134 187 228 248 274
#     4  12  23  36  53  75  96 123 175 230 253 300
#     4  10  19  34  49  66 100 134 167 207 254 309
#     4  12  24  36  51  70  98 138 176 212 271 287
#
# _framework density 16.594638
#
# number of rings (size 3 to 8) (size 9 to 14) (size 15 to 20)
#    0.000    1.273    2.727    6.000    2.545    2.182 
#    0.000    0.000    0.000    0.000    0.000    0.000 
#    0.000    0.000    0.000    0.000    0.000  229.091 
#
# Total GULP energy -545451.205228 kJ/mol
# GULP energy per Si atom -12396.618301 kJ/mol
# Density = 1.655687 g / cm^3
# Si number density = 16.594638 Si / 1000 Ang^3
#
#
#
# Elastic Constant Matrix: (Units=GPa)
#
#
# Indices 1 2 3 4 5 6 
#
# 1 60.0942 36.3002 33.9109 0.0000 0.0000 0.0000
# 2 36.3002 94.9620 44.8978 0.0000 0.0000 0.0000
# 3 33.9109 44.8978 158.1029 0.0000 0.0000 0.0000
# 4 0.0000 0.0000 0.0000 17.9796 0.0000 0.0000
# 5 0.0000 0.0000 0.0000 0.0000 22.4902 0.0000
# 6 0.0000 0.0000 0.0000 0.0000 0.0000 6.1432
#
#
#
# Elastic Compliance Matrix: (Units=1/GPa)
#
#
# Indices 1 2 3 4 5 6 
#
# 1 0.022640 -0.007345 -0.002770 0.000000 0.000000 0.000000
# 2 -0.007345 0.014546 -0.002556 0.000000 0.000000 0.000000
# 3 -0.002770 -0.002556 0.007645 0.000000 0.000000 0.000000
# 4 0.000000 0.000000 0.000000 0.055619 0.000000 0.000000
# 5 0.000000 0.000000 0.000000 0.000000 0.044464 0.000000
# 6 0.000000 0.000000 0.000000 0.000000 0.000000 0.162781
#
#
# Mechanical properties :
#
#
# Convention : Reuss Voigt Hill
#
# Bulk Modulus (GPa) = 51.30686 60.37522 55.84104
# Shear Modulus (GPa) = 14.72613 22.52596 18.62604
#
# Velocity S-wave (km/s) = 2.98216 3.68832 3.35388
# Velocity P-wave (km/s) = 6.54542 7.38916 6.98005
#
# Compressibility (1/GPa) = 0.01949057
#
# Stress axis : x y z
#
# Youngs Moduli (GPa) = 44.16874 68.74567 130.80624
#
# Poissons Ratio (x) = 0.50492 0.36237
# Poissons Ratio (y) = 0.32441 0.33428
# Poissons Ratio (z) = 0.12236 0.17568
#
# Static dielectric constant tensor:
#      x y z
#    x 2.933870 0.000000 0.000000 
#    y 0.000000 3.008500 0.000000 
#    z 0.000000 0.000000 2.413020 
# 
# 
# High freq. dielectric constant tensor:
#      x y z
#    x 1.600950 0.000000 0.000000 
#    y 0.000000 1.608470 0.000000 
#    z 0.000000 0.000000 1.675790 
# 
# From -- ./inp_files/4287.got.cif
#   From: 2010.03.12/outbox.cif.g09.slc.cpg/sg67_3_cif.got.tgz:4287.got - 2010.04.10 22:41:39.
