data_PCOD8279634
_publ_section_title
;
Structure prediction by ZEFSAII (Michael W. Deem and Ramdas Pophale) SiO2 
 PCOD8279634
Probable space group: C M M A
;
_chemical_formula_sum "Si O2"
_cell_formula_units_Z 96
_cell_length_a 23.676826
_cell_length_b 8.645434
_cell_length_c 25.855853
_cell_angle_alpha 90.000000
_cell_angle_beta 90.000000
_cell_angle_gamma 90.000000
_cell_volume 5292.600972
_symmetry_space_group_name_H-M "C M M A"
_symmetry_group_IT_number 67
_symmetry_cell_setting 'orthorhombic'
loop_
_space_group_symop_operation_xyz
x,y,z
-x,1/2-y,z
x,-y,-z
-x,1/2+y,-z
-x,-y,-z
x,1/2+y,-z
-x,y,z
x,1/2-y,z
1/2+x,1/2+y,z
1/2-x,-y,z
1/2+x,1/2-y,-z
1/2-x,y,-z
1/2-x,1/2-y,-z
1/2+x,y,-z
1/2-x,1/2+y,z
1/2+x,-y,z
loop_
_atom_site_type_symbol
_atom_site_label
_atom_site_fract_x
_atom_site_fract_y
_atom_site_fract_z
Si Si1 0.000000 0.431556 0.711953
Si Si2 0.188484 0.932631 0.648259
Si Si3 0.119024 0.566463 0.445149
Si Si4 0.688470 0.428505 0.950381
Si Si5 0.687614 0.431487 0.836150
Si Si6 0.000000 0.066031 0.596661
Si Si7 0.378420 0.932249 0.743119
O O1 0.055732 0.481790 0.743242
O O2 0.000000 0.250000 0.703882
O O3 0.000000 0.505259 0.654457
O O4 0.191595 0.750000 0.641759
O O5 0.250000 0.000000 0.657889
O O6 0.162617 0.006175 0.597022
O O7 0.151489 0.974759 0.697747
O O8 0.138332 0.500000 0.500000
O O9 0.121481 0.750000 0.445925
O O10 0.055820 0.505581 0.432587
O O11 0.694013 0.250000 0.961265
O O12 0.750000 0.500000 0.949033
O O13 0.661696 0.460292 0.893807
O O14 0.654418 0.500000 0.000000
O O15 0.690212 0.250000 0.822973
O O16 0.750000 0.500000 0.830120
O O17 0.645915 0.520177 0.798243
O O18 0.000000 0.250000 0.598489
O O19 0.370268 0.750000 0.733496
#
# Coordination Sequence:
#
# PCOD8279634 Si02
#       7
#     8  16  16  16  16   8  16
#     4   9  18  35  59  83 105 136 173 214 265 316
#     4  12  25  41  59  81 108 142 179 217 263 317
#     4  11  22  39  61  86 113 142 175 215 261 313
#     4   9  16  26  43  67 101 140 179 220 261 308
#     4  10  20  33  49  76 111 146 182 221 265 314
#     4   9  17  35  61  85 112 139 171 215 262 314
#     4  11  21  37  59  81 107 140 177 219 265 317
#
# _framework density 18.138529999999999
#
# number of rings (size 3 to 8) (size 9 to 14) (size 15 to 20)
#    0.000    1.667    1.667    4.750    0.000    2.333 
#    0.000    5.417    0.000    0.000    0.000    0.583 
#    0.000    0.000    0.000    0.000    0.000    0.000 
#
# Total GULP energy -595076.801433 kJ/mol
# GULP energy per Si atom -12397.433363 kJ/mol
# Density = 1.809725 g / cm^3
# Si number density = 18.138530 Si / 1000 Ang^3
#
#
#
# Elastic Constant Matrix: (Units=GPa)
#
#
# Indices 1 2 3 4 5 6 
#
# 1 101.2601 29.2964 46.3200 0.0000 0.0000 0.0000
# 2 29.2964 85.5237 36.5506 0.0000 0.0000 0.0000
# 3 46.3200 36.5506 139.0009 0.0000 0.0000 0.0000
# 4 0.0000 0.0000 0.0000 37.4670 0.0000 0.0000
# 5 0.0000 0.0000 0.0000 0.0000 -8.9091 0.0000
# 6 0.0000 0.0000 0.0000 0.0000 0.0000 19.4193
#
#
#
# Elastic Compliance Matrix: (Units=1/GPa)
#
#
# Indices 1 2 3 4 5 6 
#
# 1 0.012200 -0.002751 -0.003342 0.000000 0.000000 0.000000
# 2 -0.002751 0.013793 -0.002710 0.000000 0.000000 0.000000
# 3 -0.003342 -0.002710 0.009021 0.000000 0.000000 0.000000
# 4 0.000000 0.000000 0.000000 0.026690 0.000000 0.000000
# 5 0.000000 0.000000 0.000000 0.000000 -0.112245 0.000000
# 6 0.000000 0.000000 0.000000 0.000000 0.000000 0.051495
#
#
# Mechanical properties :
#
#
# Convention : Reuss Voigt Hill
#
# Bulk Modulus (GPa) = 57.44669 61.12430 59.28549
# Shear Modulus (GPa) = 205.22649 23.83664 114.53156
#
# Velocity S-wave (km/s) = 10.64845 3.62904 7.95486
# Velocity P-wave (km/s) = 13.52501 7.16461 10.82261
#
# Compressibility (1/GPa) = 0.01740744
#
# Stress axis : x y z
#
# Youngs Moduli (GPa) = 81.96531 72.49906 110.85708
#
# Poissons Ratio (x) = 0.19943 0.37051
# Poissons Ratio (y) = 0.22548 0.30045
# Poissons Ratio (z) = 0.27395 0.19649
#
# Static dielectric constant tensor:
#      x y z
#    x 3.243430 0.000000 0.000000 
#    y 0.000000 3.382160 0.000000 
#    z 0.000000 0.000000 4.018890 
# 
# 
# High freq. dielectric constant tensor:
#      x y z
#    x 1.674800 0.000000 0.000000 
#    y 0.000000 1.707170 0.000000 
#    z 0.000000 0.000000 1.718180 
# 
# From -- ./inp_files/42571.got.cif
#   From: 2010.03.12/outbox.cif.g09.slc.cpg/sg67_22_cif.got.tgz:42571.got - 2010.04.10 22:41:39.
