data_PCOD8279680
_publ_section_title
;
Structure prediction by ZEFSAII (Michael W. Deem and Ramdas Pophale) SiO2 
 PCOD8279680
Probable space group: C M M A
;
_chemical_formula_sum "Si O2"
_cell_formula_units_Z 96
_cell_length_a 15.231545
_cell_length_b 14.143332
_cell_length_c 19.848982
_cell_angle_alpha 90.000000
_cell_angle_beta 90.000000
_cell_angle_gamma 90.000000
_cell_volume 4275.962934
_symmetry_space_group_name_H-M "C M M A"
_symmetry_group_IT_number 67
_symmetry_cell_setting 'orthorhombic'
loop_
_space_group_symop_operation_xyz
x,y,z
-x,1/2-y,z
x,-y,-z
-x,1/2+y,-z
-x,-y,-z
x,1/2+y,-z
-x,y,z
x,1/2-y,z
1/2+x,1/2+y,z
1/2-x,-y,z
1/2+x,1/2-y,-z
1/2-x,y,-z
1/2-x,1/2-y,-z
1/2+x,y,-z
1/2-x,1/2+y,z
1/2+x,-y,z
loop_
_atom_site_type_symbol
_atom_site_label
_atom_site_fract_x
_atom_site_fract_y
_atom_site_fract_z
Si Si1 0.600229 0.642426 0.981825
Si Si2 0.901448 0.358224 0.228282
Si Si3 0.096002 0.394968 0.473778
Si Si4 0.904209 0.646710 0.380052
Si Si5 0.281536 0.361115 0.651076
Si Si6 0.653194 0.024004 0.896112
O O1 0.500000 0.642664 0.007017
O O2 0.631313 0.750000 0.965693
O O3 0.607056 0.575405 0.916024
O O4 0.658759 0.596769 0.040983
O O5 0.877158 0.250000 0.208019
O O6 0.836241 0.398960 0.285329
O O7 0.898298 0.425895 0.163842
O O8 0.000000 0.361746 0.257346
O O9 0.098366 0.500000 0.500000
O O10 0.112767 0.333871 0.540650
O O11 0.170031 0.381169 0.418562
O O12 0.000000 0.369768 0.442723
O O13 0.910817 0.750000 0.346106
O O14 0.817697 0.592261 0.349944
O O15 0.000000 0.594158 0.368128
O O16 0.269401 0.250000 0.657945
O O17 0.750000 0.000000 0.871074
#
# Coordination Sequence:
#
# PCOD8279680 Si02
#       6
#    16  16  16  16  16  16
#     4  10  20  36  63  95 127 164 205 252 302 352
#     4  10  21  39  63  88 118 160 208 262 318 369
#     4  10  20  33  50  80 114 147 187 241 304 361
#     4   9  18  33  53  77 109 147 186 236 301 366
#     4  10  20  35  58  85 111 146 198 251 301 362
#     4  11  22  36  57  91 129 165 202 249 302 367
#
# _framework density 22.451084000000002
#
# number of rings (size 3 to 8) (size 9 to 14) (size 15 to 20)
#    0.000    2.000    0.000    5.000    0.000    7.667 
#    3.000    0.000    0.000    2.000    0.000    2.333 
#    0.000    0.000    0.000    0.000    0.000    0.000 
#
# Total GULP energy -594760.576317 kJ/mol
# GULP energy per Si atom -12390.845340 kJ/mol
# Density = 2.239998 g / cm^3
# Si number density = 22.451084 Si / 1000 Ang^3
#
#
#
# Elastic Constant Matrix: (Units=GPa)
#
#
# Indices 1 2 3 4 5 6 
#
# 1 170.7253 27.6076 59.0719 0.0000 0.0000 0.0000
# 2 27.6076 95.7257 30.9326 0.0000 0.0000 0.0000
# 3 59.0719 30.9326 96.0814 0.0000 0.0000 0.0000
# 4 0.0000 0.0000 0.0000 23.7351 0.0000 0.0000
# 5 0.0000 0.0000 0.0000 0.0000 -197.1980 0.0000
# 6 0.0000 0.0000 0.0000 0.0000 0.0000 26.6648
#
#
#
# Elastic Compliance Matrix: (Units=1/GPa)
#
#
# Indices 1 2 3 4 5 6 
#
# 1 0.007488 -0.000750 -0.004362 0.000000 0.000000 0.000000
# 2 -0.000750 0.011735 -0.003317 0.000000 0.000000 0.000000
# 3 -0.004362 -0.003317 0.014158 0.000000 0.000000 0.000000
# 4 0.000000 0.000000 0.000000 0.042132 0.000000 0.000000
# 5 0.000000 0.000000 0.000000 0.000000 -0.005071 0.000000
# 6 0.000000 0.000000 0.000000 0.000000 0.000000 0.037503
#
#
# Mechanical properties :
#
#
# Convention : Reuss Voigt Hill
#
# Bulk Modulus (GPa) = 60.52452 66.41738 63.47095
# Shear Modulus (GPa) = 38.37035 -13.03161 12.66937
#
# Velocity S-wave (km/s) = 4.13857 -2.41186 2.37810
# Velocity P-wave (km/s) = 7.06073 4.67881 5.98937
#
# Compressibility (1/GPa) = 0.01652223
#
# Stress axis : x y z
#
# Youngs Moduli (GPa) = 133.54696 85.21822 70.63335
#
# Poissons Ratio (x) = 0.06391 0.30812
# Poissons Ratio (y) = 0.10015 0.23427
# Poissons Ratio (z) = 0.58257 0.28265
#
# Static dielectric constant tensor:
#      x y z
#    x 4.487430 0.000000 0.000000 
#    y 0.000000 4.075750 0.000000 
#    z 0.000000 0.000000 3.486870 
# 
# 
# High freq. dielectric constant tensor:
#      x y z
#    x 1.901840 0.000000 0.000000 
#    y 0.000000 1.884900 0.000000 
#    z 0.000000 0.000000 1.843600 
# 
# From -- ./inp_files/38458.got.cif
#   From: 2010.03.12/outbox.cif.g09.slc.cpg/sg67_20_cif.got.tgz:38458.got - 2010.04.10 22:41:39.
