data_PCOD8279814
_publ_section_title
;
Structure prediction by ZEFSAII (Michael W. Deem and Ramdas Pophale) SiO2 
 PCOD8279814
Probable space group: C M M A
;
_chemical_formula_sum "Si O2"
_cell_formula_units_Z 96
_cell_length_a 9.260659
_cell_length_b 19.288663
_cell_length_c 31.126529
_cell_angle_alpha 90.000000
_cell_angle_beta 90.000000
_cell_angle_gamma 90.000000
_cell_volume 5559.998984
_symmetry_space_group_name_H-M "C M M A"
_symmetry_group_IT_number 67
_symmetry_cell_setting 'orthorhombic'
loop_
_space_group_symop_operation_xyz
x,y,z
-x,1/2-y,z
x,-y,-z
-x,1/2+y,-z
-x,-y,-z
x,1/2+y,-z
-x,y,z
x,1/2-y,z
1/2+x,1/2+y,z
1/2-x,-y,z
1/2+x,1/2-y,-z
1/2-x,y,-z
1/2-x,1/2-y,-z
1/2+x,y,-z
1/2-x,1/2+y,z
1/2+x,-y,z
loop_
_atom_site_type_symbol
_atom_site_label
_atom_site_fract_x
_atom_site_fract_y
_atom_site_fract_z
Si Si1 0.837638 0.167253 0.459011
Si Si2 0.172163 0.070817 0.956683
Si Si3 0.837876 0.667321 0.796304
Si Si4 0.337789 0.832454 0.716173
Si Si5 0.837720 0.832442 0.378565
Si Si6 0.333278 0.829299 0.878706
O O1 0.836070 0.250000 0.458600
O O2 0.750000 0.139046 0.500000
O O3 0.766340 0.137247 0.415397
O O4 0.000000 0.138718 0.461849
O O5 0.204912 0.127608 0.920836
O O6 0.000000 0.059859 0.963712
O O7 0.250000 0.000000 0.942208
O O8 0.250000 0.097393 0.000000
O O9 0.833047 0.750000 0.795106
O O10 0.764288 0.636404 0.753281
O O11 0.755637 0.640366 0.838546
O O12 0.000000 0.638817 0.797987
O O13 0.500000 0.859563 0.724088
O O14 0.336193 0.750000 0.718448
O O15 0.283558 0.856472 0.668807
O O16 0.837655 0.750000 0.380795
O O17 0.000000 0.859680 0.386808
O O18 0.500000 0.835874 0.866092
O O19 0.290645 0.750000 0.888462
#
# Coordination Sequence:
#
# PCOD8279814 Si02
#       6
#    16  16  16  16  16  16
#     4   9  15  20  25  32  43  61  87 124 171 220
#     4  10  20  34  52  71  92 119 148 179 214 253
#     4   9  16  24  36  56  79 101 126 159 198 237
#     4   8  13  21  32  44  61  87 114 141 179 230
#     4   8  13  20  28  37  49  68  97 131 169 217
#     4   9  18  32  48  66  89 117 147 176 210 254
#
# _framework density 17.266190000000002
#
# number of rings (size 3 to 8) (size 9 to 14) (size 15 to 20)
#    0.000    3.167    0.000    3.000    0.000    6.333 
#    0.000    3.333    0.000    0.000    0.000    0.000 
#    0.000    0.000    0.000    0.000    0.000    0.000 
#
# Total GULP energy -594901.267829 kJ/mol
# GULP energy per Si atom -12393.776413 kJ/mol
# Density = 1.722689 g / cm^3
# Si number density = 17.266190 Si / 1000 Ang^3
#
#
#
# Elastic Constant Matrix: (Units=GPa)
#
#
# Indices 1 2 3 4 5 6 
#
# 1 133.6537 23.3428 101.0312 0.0000 0.0000 0.0000
# 2 23.3428 17.7600 36.6175 0.0000 0.0000 0.0000
# 3 101.0312 36.6175 180.9302 0.0000 0.0000 0.0000
# 4 0.0000 0.0000 0.0000 -0.0555 0.0000 0.0000
# 5 0.0000 0.0000 0.0000 0.0000 36.8192 0.0000
# 6 0.0000 0.0000 0.0000 0.0000 0.0000 9.1343
#
#
#
# Elastic Compliance Matrix: (Units=1/GPa)
#
#
# Indices 1 2 3 4 5 6 
#
# 1 0.013084 -0.003661 -0.006565 0.000000 0.000000 0.000000
# 2 -0.003661 0.097650 -0.017719 0.000000 0.000000 0.000000
# 3 -0.006565 -0.017719 0.012779 0.000000 0.000000 0.000000
# 4 0.000000 0.000000 0.000000-18.004948 0.000000 0.000000
# 5 0.000000 0.000000 0.000000 0.000000 0.027160 0.000000
# 6 0.000000 0.000000 0.000000 0.000000 0.000000 0.109477
#
#
# Mechanical properties :
#
#
# Convention : Reuss Voigt Hill
#
# Bulk Modulus (GPa) = 14.78770 72.70299 43.74535
# Shear Modulus (GPa) = -0.28302 20.60310 10.16004
#
# Velocity S-wave (km/s) = -0.40531 3.45811 2.42840
# Velocity P-wave (km/s) = 2.89208 7.62517 5.76660
#
# Compressibility (1/GPa) = 0.06762375
#
# Stress axis : x y z
#
# Youngs Moduli (GPa) = 76.42789 10.24063 78.25315
#
# Poissons Ratio (x) = 0.03749 0.51376
# Poissons Ratio (y) = 0.27979 1.38654
# Poissons Ratio (z) = 0.50177 0.18145
#
# Static dielectric constant tensor:
#      x y z
#    x 3.412340 0.000000 0.000000 
#    y 0.000000 2.466110 0.000000 
#    z 0.000000 0.000000 3.544370 
# 
# 
# High freq. dielectric constant tensor:
#      x y z
#    x 1.674980 0.000000 0.000000 
#    y 0.000000 1.575860 0.000000 
#    z 0.000000 0.000000 1.687080 
# 
# From -- ./inp_files/43660.got.cif
#   From: 2010.03.12/outbox.cif.g09.slc.cpg/sg67_22_cif.got.tgz:43660.got - 2010.04.10 22:41:39.
