data_PCOD8279361
_publ_section_title
;
Structure prediction by ZEFSAII (Michael W. Deem and Ramdas Pophale) SiO2 
 PCOD8279361
Probable space group: C M M A
;
_chemical_formula_sum "Si O2"
_cell_formula_units_Z 64
_cell_length_a 14.376243
_cell_length_b 14.267737
_cell_length_c 15.260574
_cell_angle_alpha 90.000000
_cell_angle_beta 90.000000
_cell_angle_gamma 90.000000
_cell_volume 3130.194828
_symmetry_space_group_name_H-M "C M M A"
_symmetry_group_IT_number 67
_symmetry_cell_setting 'orthorhombic'
loop_
_space_group_symop_operation_xyz
x,y,z
-x,1/2-y,z
x,-y,-z
-x,1/2+y,-z
-x,-y,-z
x,1/2+y,-z
-x,y,z
x,1/2-y,z
1/2+x,1/2+y,z
1/2-x,-y,z
1/2+x,1/2-y,-z
1/2-x,y,-z
1/2-x,1/2-y,-z
1/2+x,y,-z
1/2-x,1/2+y,z
1/2+x,-y,z
loop_
_atom_site_type_symbol
_atom_site_label
_atom_site_fract_x
_atom_site_fract_y
_atom_site_fract_z
Si Si1 0.000000 0.646961 0.626926
Si Si2 0.110405 0.354062 0.020906
Si Si3 0.110220 0.477888 0.861815
Si Si4 0.500000 0.593814 0.555433
Si Si5 0.853476 0.508874 0.333232
O O1 0.091384 0.589493 0.656877
O O2 0.000000 0.750000 0.672447
O O3 0.000000 0.670568 0.521483
O O4 0.152640 0.250000 0.033770
O O5 0.144651 0.422542 0.098454
O O6 0.000000 0.351189 0.021807
O O7 0.142945 0.395053 0.926979
O O8 0.156803 0.462010 0.768018
O O9 0.000000 0.478212 0.849874
O O10 0.500000 0.500000 0.500000
O O11 0.592347 0.593041 0.616228
O O12 0.750000 0.500000 0.373306
#
# Coordination Sequence:
#
# PCOD8279361 Si02
#       5
#     8  16  16   8  16
#     4  10  22  40  62  88 114 142 186 239 284 339
#     4   8  15  26  45  71 102 146 190 234 282 328
#     4   9  15  29  49  74 107 142 191 235 278 335
#     4   8  18  36  56  78 106 143 178 216 280 346
#     4  10  19  35  59  83 112 151 187 227 284 347
#
# _framework density 20.446012
#
# number of rings (size 3 to 8) (size 9 to 14) (size 15 to 20)
#    0.000    3.250    2.500    1.500    0.000    5.500 
#    0.000    7.500    0.000    1.500    0.000    0.000 
#    0.000    0.000    0.000    0.000    0.000    0.000 
#
# Total GULP energy -396460.590910 kJ/mol
# GULP energy per Si atom -12389.393466 kJ/mol
# Density = 2.039948 g / cm^3
# Si number density = 20.446012 Si / 1000 Ang^3
#
#
#
# Elastic Constant Matrix: (Units=GPa)
#
#
# Indices 1 2 3 4 5 6 
#
# 1 91.8568 -15.9626 -2.6203 0.0000 0.0000 0.0000
# 2 -15.9626 82.5271 -3.6092 0.0000 0.0000 0.0000
# 3 -2.6203 -3.6092 110.8074 0.0000 0.0000 0.0000
# 4 0.0000 0.0000 0.0000 13.3346 0.0000 0.0000
# 5 0.0000 0.0000 0.0000 0.0000 1.5362 0.0000
# 6 0.0000 0.0000 0.0000 0.0000 0.0000 1.4384
#
#
#
# Elastic Compliance Matrix: (Units=1/GPa)
#
#
# Indices 1 2 3 4 5 6 
#
# 1 0.011278 0.002196 0.000338 0.000000 0.000000 0.000000
# 2 0.002196 0.012562 0.000461 0.000000 0.000000 0.000000
# 3 0.000338 0.000461 0.009048 0.000000 0.000000 0.000000
# 4 0.000000 0.000000 0.000000 0.074993 0.000000 0.000000
# 5 0.000000 0.000000 0.000000 0.000000 0.650951 0.000000
# 6 0.000000 0.000000 0.000000 0.000000 0.000000 0.695233
#
#
# Mechanical properties :
#
#
# Convention : Reuss Voigt Hill
#
# Bulk Modulus (GPa) = 25.72105 26.75635 26.23870
# Shear Modulus (GPa) = 3.42224 23.75406 13.58815
#
# Velocity S-wave (km/s) = 1.29515 3.41221 2.58075
# Velocity P-wave (km/s) = 3.85277 5.35154 4.66277
#
# Compressibility (1/GPa) = 0.03887867
#
# Stress axis : x y z
#
# Youngs Moduli (GPa) = 88.66977 79.60402 110.52548
#
# Poissons Ratio (x) = -0.17482 -0.03738
# Poissons Ratio (y) = -0.19473 -0.05096
# Poissons Ratio (z) = -0.02999 -0.03671
#
# Static dielectric constant tensor:
#      x y z
#    x 3.574210 0.000000 0.000000 
#    y 0.000000 4.223860 0.000000 
#    z 0.000000 0.000000 4.300620 
# 
# 
# High freq. dielectric constant tensor:
#      x y z
#    x 1.787910 0.000000 0.000000 
#    y 0.000000 1.768450 0.000000 
#    z 0.000000 0.000000 1.804050 
# 
# From -- ./inp_files/26811.got.cif
#   From: 2010.03.12/outbox.cif.g09.slc.cpg/sg67_14_cif.got.tgz:26811.got - 2010.04.10 22:41:39.
