data_PCOD8279102
_publ_section_title
;
Structure prediction by ZEFSAII (Michael W. Deem and Ramdas Pophale) SiO2 
 PCOD8279102
Probable space group: C M M A
;
_chemical_formula_sum "Si O2"
_cell_formula_units_Z 96
_cell_length_a 18.351320
_cell_length_b 18.030530
_cell_length_c 16.843273
_cell_angle_alpha 90.000000
_cell_angle_beta 90.000000
_cell_angle_gamma 90.000000
_cell_volume 5573.169978
_symmetry_space_group_name_H-M "C M M A"
_symmetry_group_IT_number 67
_symmetry_cell_setting 'orthorhombic'
loop_
_space_group_symop_operation_xyz
x,y,z
-x,1/2-y,z
x,-y,-z
-x,1/2+y,-z
-x,-y,-z
x,1/2+y,-z
-x,y,z
x,1/2-y,z
1/2+x,1/2+y,z
1/2-x,-y,z
1/2+x,1/2-y,-z
1/2-x,y,-z
1/2-x,1/2-y,-z
1/2+x,y,-z
1/2-x,1/2+y,z
1/2+x,-y,z
loop_
_atom_site_type_symbol
_atom_site_label
_atom_site_fract_x
_atom_site_fract_y
_atom_site_fract_z
Si Si1 0.291683 0.664490 0.765942
Si Si2 0.582183 0.416315 0.828686
Si Si3 0.084166 0.960215 0.578297
Si Si4 0.356343 0.663677 0.319538
Si Si5 0.081230 0.440982 0.729885
Si Si6 0.272230 0.084270 0.912164
O O1 0.309083 0.750000 0.773613
O O2 0.227232 0.648347 0.703759
O O3 0.364109 0.626646 0.734500
O O4 0.271787 0.635675 0.852684
O O5 0.500000 0.404103 0.861541
O O6 0.592994 0.361050 0.754221
O O7 0.593572 0.500712 0.800653
O O8 0.640859 0.402809 0.898680
O O9 0.126023 0.884077 0.601422
O O10 0.000000 0.938960 0.564808
O O11 0.116911 0.000000 0.500000
O O12 0.095028 0.018731 0.647481
O O13 0.370781 0.750000 0.337897
O O14 0.000000 0.408039 0.733940
O O15 0.250000 0.000000 0.895863
O O16 0.250000 0.109458 0.000000
#
# Coordination Sequence:
#
# PCOD8279102 Si02
#       6
#    16  16  16  16  16  16
#     4  10  20  34  52  74  99 131 170 209 249 298
#     4   9  17  30  51  76 100 128 168 211 248 291
#     4   9  18  32  51  76 103 132 167 204 249 302
#     4   9  18  31  51  77 103 131 167 210 254 295
#     4   9  17  32  52  72  97 131 171 210 244 291
#     4  10  19  33  52  74 101 132 166 201 251 307
#
# _framework density 17.225384999999999
#
# number of rings (size 3 to 8) (size 9 to 14) (size 15 to 20)
#    0.000    2.667    1.667    1.500    0.000    2.000 
#    0.000    5.000    0.000    5.000    0.000    0.000 
#    0.000    0.000    0.000    0.000    0.000    0.000 
#
# Total GULP energy -595111.366511 kJ/mol
# GULP energy per Si atom -12398.153469 kJ/mol
# Density = 1.718618 g / cm^3
# Si number density = 17.225385 Si / 1000 Ang^3
#
#
#
# Elastic Constant Matrix: (Units=GPa)
#
#
# Indices 1 2 3 4 5 6 
#
# 1 111.7132 59.6457 50.4627 0.0000 0.0000 0.0000
# 2 59.6457 112.0663 48.6765 0.0000 0.0000 0.0000
# 3 50.4627 48.6765 91.7724 0.0000 0.0000 0.0000
# 4 0.0000 0.0000 0.0000 23.2748 0.0000 0.0000
# 5 0.0000 0.0000 0.0000 0.0000 21.9368 0.0000
# 6 0.0000 0.0000 0.0000 0.0000 0.0000 27.0943
#
#
#
# Elastic Compliance Matrix: (Units=1/GPa)
#
#
# Indices 1 2 3 4 5 6 
#
# 1 0.014000 -0.005337 -0.004867 0.000000 0.000000 0.000000
# 2 -0.005337 0.013629 -0.004294 0.000000 0.000000 0.000000
# 3 -0.004867 -0.004294 0.015851 0.000000 0.000000 0.000000
# 4 0.000000 0.000000 0.000000 0.042965 0.000000 0.000000
# 5 0.000000 0.000000 0.000000 0.000000 0.045585 0.000000
# 6 0.000000 0.000000 0.000000 0.000000 0.000000 0.036908
#
#
# Mechanical properties :
#
#
# Convention : Reuss Voigt Hill
#
# Bulk Modulus (GPa) = 69.04976 70.34685 69.69831
# Shear Modulus (GPa) = 24.65945 24.91232 24.78588
#
# Velocity S-wave (km/s) = 3.78772 3.80709 3.79742
# Velocity P-wave (km/s) = 7.70079 7.76228 7.73160
#
# Compressibility (1/GPa) = 0.01448231
#
# Stress axis : x y z
#
# Youngs Moduli (GPa) = 71.43062 73.37250 63.08945
#
# Poissons Ratio (x) = 0.39159 0.30707
# Poissons Ratio (y) = 0.38123 0.27092
# Poissons Ratio (z) = 0.34766 0.31508
#
# Static dielectric constant tensor:
#      x y z
#    x 3.291570 0.000000 0.000000 
#    y 0.000000 3.186610 0.000000 
#    z 0.000000 0.000000 3.107700 
# 
# 
# High freq. dielectric constant tensor:
#      x y z
#    x 1.669520 0.000000 0.000000 
#    y 0.000000 1.657750 0.000000 
#    z 0.000000 0.000000 1.643290 
# 
# From -- ./inp_files/34226.got.cif
#   From: 2010.03.12/outbox.cif.g09.slc.cpg/sg67_18_cif.got.tgz:34226.got - 2010.04.10 22:41:39.
