data_PCOD8279798
_publ_section_title
;
Structure prediction by ZEFSAII (Michael W. Deem and Ramdas Pophale) SiO2 
 PCOD8279798
Probable space group: C M M A
;
_chemical_formula_sum "Si O2"
_cell_formula_units_Z 112
_cell_length_a 19.886071
_cell_length_b 18.028467
_cell_length_c 16.395900
_cell_angle_alpha 90.000000
_cell_angle_beta 90.000000
_cell_angle_gamma 90.000000
_cell_volume 5878.182233
_symmetry_space_group_name_H-M "C M M A"
_symmetry_group_IT_number 67
_symmetry_cell_setting 'orthorhombic'
loop_
_space_group_symop_operation_xyz
x,y,z
-x,1/2-y,z
x,-y,-z
-x,1/2+y,-z
-x,-y,-z
x,1/2+y,-z
-x,y,z
x,1/2-y,z
1/2+x,1/2+y,z
1/2-x,-y,z
1/2+x,1/2-y,-z
1/2-x,y,-z
1/2-x,1/2-y,-z
1/2+x,y,-z
1/2-x,1/2+y,z
1/2+x,-y,z
loop_
_atom_site_type_symbol
_atom_site_label
_atom_site_fract_x
_atom_site_fract_y
_atom_site_fract_z
Si Si1 0.703112 0.338089 0.248601
Si Si2 0.922153 0.665891 0.672867
Si Si3 0.697815 0.837658 0.568014
Si Si4 0.838560 0.161736 0.173923
Si Si5 0.574712 0.661624 0.843915
Si Si6 0.424839 0.838172 0.026587
Si Si7 0.576879 0.413448 0.507366
O O1 0.699745 0.250000 0.245165
O O2 0.719993 0.362804 0.341209
O O3 0.762347 0.366696 0.188461
O O4 0.631597 0.370671 0.217112
O O5 0.899130 0.750000 0.650720
O O6 0.882948 0.634081 0.750311
O O7 0.904531 0.612846 0.597975
O O8 0.000000 0.664343 0.695471
O O9 0.692587 0.750000 0.560700
O O10 0.750000 0.868740 0.500000
O O11 0.623819 0.870667 0.555744
O O12 0.840732 0.250000 0.170397
O O13 0.870084 0.128723 0.090316
O O14 0.500000 0.633445 0.817678
O O15 0.575130 0.750000 0.842920
O O16 0.591851 0.633553 0.935452
O O17 0.500000 0.864243 0.051750
O O18 0.421818 0.750000 0.028695
O O19 0.590621 0.500000 0.500000
O O20 0.500000 0.393105 0.485788
#
# Coordination Sequence:
#
# PCOD8279798 Si02
#       7
#    16  16  16  16  16  16  16
#     4   9  17  26  38  58  82 112 149 189 230 267
#     4   9  16  27  45  67  91 120 152 188 232 278
#     4  10  20  34  51  70  94 125 162 201 240 285
#     4   9  15  23  37  59  86 113 146 186 225 269
#     4   8  14  24  35  50  78 114 149 183 220 267
#     4   8  13  21  34  53  80 115 148 177 216 268
#     4  10  21  35  50  70  95 122 156 199 244 289
#
# _framework density 19.053508999999998
#
# number of rings (size 3 to 8) (size 9 to 14) (size 15 to 20)
#    0.000    3.000    0.000    2.571    0.000    6.286 
#    0.000    4.286    0.000    0.000    0.000    0.000 
#    0.000    1.143    0.000   11.571    0.000   16.714 
#
# Total GULP energy -694064.004325 kJ/mol
# GULP energy per Si atom -12394.000077 kJ/mol
# Density = 1.901014 g / cm^3
# Si number density = 19.053509 Si / 1000 Ang^3
#
#
#
# Elastic Constant Matrix: (Units=GPa)
#
#
# Indices 1 2 3 4 5 6 
#
# 1 129.7257 12.6621 79.6392 0.0000 0.0000 0.0000
# 2 12.6621 17.3249 17.7313 0.0000 0.0000 0.0000
# 3 79.6392 17.7313 123.2675 0.0000 0.0000 0.0000
# 4 0.0000 0.0000 0.0000 2.7463 0.0000 0.0000
# 5 0.0000 0.0000 0.0000 0.0000 41.5760 0.0000
# 6 0.0000 0.0000 0.0000 0.0000 0.0000 11.9082
#
#
#
# Elastic Compliance Matrix: (Units=1/GPa)
#
#
# Indices 1 2 3 4 5 6 
#
# 1 0.012792 -0.001045 -0.008114 0.000000 0.000000 0.000000
# 2 -0.001045 0.067770 -0.009073 0.000000 0.000000 0.000000
# 3 -0.008114 -0.009073 0.014660 0.000000 0.000000 0.000000
# 4 0.000000 0.000000 0.000000 0.364129 0.000000 0.000000
# 5 0.000000 0.000000 0.000000 0.000000 0.024052 0.000000
# 6 0.000000 0.000000 0.000000 0.000000 0.000000 0.083976
#
#
# Mechanical properties :
#
#
# Convention : Reuss Voigt Hill
#
# Bulk Modulus (GPa) = 17.01907 54.48701 35.75304
# Shear Modulus (GPa) = 8.02016 21.93181 14.97599
#
# Velocity S-wave (km/s) = 2.05388 3.39641 2.80660
# Velocity P-wave (km/s) = 3.81788 6.63625 5.41368
#
# Compressibility (1/GPa) = 0.05875760
#
# Stress axis : x y z
#
# Youngs Moduli (GPa) = 78.17489 14.75574 68.21335
#
# Poissons Ratio (x) = 0.01541 0.55349
# Poissons Ratio (y) = 0.08166 0.61893
# Poissons Ratio (z) = 0.63432 0.13389
#
# Static dielectric constant tensor:
#      x y z
#    x 3.807490 0.000000 0.000000 
#    y 0.000000 2.772720 0.000000 
#    z 0.000000 0.000000 3.715530 
# 
# 
# High freq. dielectric constant tensor:
#      x y z
#    x 1.754190 0.000000 0.000000 
#    y 0.000000 1.659270 0.000000 
#    z 0.000000 0.000000 1.745300 
# 
# From -- ./inp_files/34431.got.cif
#   From: 2010.03.12/outbox.cif.g09.slc.cpg/sg67_18_cif.got.tgz:34431.got - 2010.04.10 22:41:39.
