data_PCOD8279535
_publ_section_title
;
Structure prediction by ZEFSAII (Michael W. Deem and Ramdas Pophale) SiO2 
 PCOD8279535
Probable space group: C M M A
;
_chemical_formula_sum "Si O2"
_cell_formula_units_Z 104
_cell_length_a 9.966457
_cell_length_b 15.650432
_cell_length_c 34.812765
_cell_angle_alpha 90.000000
_cell_angle_beta 90.000000
_cell_angle_gamma 90.000000
_cell_volume 5430.072720
_symmetry_space_group_name_H-M "C M M A"
_symmetry_group_IT_number 67
_symmetry_cell_setting 'orthorhombic'
loop_
_space_group_symop_operation_xyz
x,y,z
-x,1/2-y,z
x,-y,-z
-x,1/2+y,-z
-x,-y,-z
x,1/2+y,-z
-x,y,z
x,1/2-y,z
1/2+x,1/2+y,z
1/2-x,-y,z
1/2+x,1/2-y,-z
1/2-x,y,-z
1/2-x,1/2-y,-z
1/2+x,y,-z
1/2-x,1/2+y,z
1/2+x,-y,z
loop_
_atom_site_type_symbol
_atom_site_label
_atom_site_fract_x
_atom_site_fract_y
_atom_site_fract_z
Si Si1 0.843246 0.422493 0.083279
Si Si2 0.843790 0.421781 0.241850
Si Si3 0.650202 0.148368 0.468331
Si Si4 0.341358 0.844131 0.162148
Si Si5 0.654566 0.750000 0.036271
Si Si6 0.645823 0.651131 0.322049
Si Si7 0.649155 0.648232 0.617051
O O1 0.750000 0.500000 0.067457
O O2 0.799398 0.406112 0.127358
O O3 0.814477 0.335156 0.060498
O O4 0.000000 0.448526 0.079626
O O5 0.750000 0.500000 0.251823
O O6 0.789302 0.380366 0.202541
O O7 0.819489 0.357318 0.277043
O O8 0.000000 0.448551 0.237857
O O9 0.500000 0.114516 0.476485
O O10 0.651281 0.250000 0.471224
O O11 0.750000 0.107933 0.500000
O O12 0.697411 0.120409 0.425593
O O13 0.500000 0.835146 0.162876
O O14 0.278193 0.750000 0.155914
O O15 0.500000 0.750000 0.022850
O O16 0.750000 0.750000 0.000000
O O17 0.500000 0.609172 0.330177
O O18 0.640385 0.750000 0.332081
O O19 0.753520 0.607370 0.350579
O O20 0.500000 0.612792 0.624982
O O21 0.647093 0.750000 0.619873
#
# Coordination Sequence:
#
# PCOD8279535 Si02
#       7
#    16  16  16  16   8  16  16
#     4  10  20  36  59  86 115 149 191 235 282 337
#     4  10  20  32  48  71  98 127 161 202 248 296
#     4   8  13  20  30  47  73 104 138 175 219 273
#     4   9  16  31  56  80 104 138 177 216 260 314
#     4  10  22  40  60  84 116 154 196 238 284 342
#     4   9  17  29  44  63  86 115 155 196 231 276
#     4   8  14  24  37  54  78 110 146 184 229 280
#
# _framework density 19.152598000000001
#
# number of rings (size 3 to 8) (size 9 to 14) (size 15 to 20)
#    0.000    2.923    0.769    1.846    0.000    4.000 
#    0.000    4.615    0.000    2.308    0.000    0.000 
#    0.000    0.615    0.000    6.769    0.000   11.077 
#
# Total GULP energy -644436.034580 kJ/mol
# GULP energy per Si atom -12393.000665 kJ/mol
# Density = 1.910901 g / cm^3
# Si number density = 19.152598 Si / 1000 Ang^3
#
#
#
# Elastic Constant Matrix: (Units=GPa)
#
#
# Indices 1 2 3 4 5 6 
#
# 1 88.6676 38.2764 74.3493 0.0000 0.0000 0.0000
# 2 38.2764 62.4654 24.7762 0.0000 0.0000 0.0000
# 3 74.3493 24.7762 146.8244 0.0000 0.0000 0.0000
# 4 0.0000 0.0000 0.0000 4.2892 0.0000 0.0000
# 5 0.0000 0.0000 0.0000 0.0000 32.4487 0.0000
# 6 0.0000 0.0000 0.0000 0.0000 0.0000 18.6617
#
#
#
# Elastic Compliance Matrix: (Units=1/GPa)
#
#
# Indices 1 2 3 4 5 6 
#
# 1 0.025215 -0.011131 -0.010890 0.000000 0.000000 0.000000
# 2 -0.011131 0.022071 0.001912 0.000000 0.000000 0.000000
# 3 -0.010890 0.001912 0.012003 0.000000 0.000000 0.000000
# 4 0.000000 0.000000 0.000000 0.233145 0.000000 0.000000
# 5 0.000000 0.000000 0.000000 0.000000 0.030818 0.000000
# 6 0.000000 0.000000 0.000000 0.000000 0.000000 0.053586
#
#
# Mechanical properties :
#
#
# Convention : Reuss Voigt Hill
#
# Bulk Modulus (GPa) = 52.43656 63.64012 58.03834
# Shear Modulus (GPa) = 11.80884 21.78361 16.79623
#
# Velocity S-wave (km/s) = 2.48577 3.37615 2.96458
# Velocity P-wave (km/s) = 5.97298 6.96405 6.48746
#
# Compressibility (1/GPa) = 0.01907066
#
# Stress axis : x y z
#
# Youngs Moduli (GPa) = 39.65961 45.30797 83.31513
#
# Poissons Ratio (x) = 0.50433 0.90729
# Poissons Ratio (y) = 0.44146 -0.15931
# Poissons Ratio (z) = 0.43189 -0.08664
#
# Static dielectric constant tensor:
#      x y z
#    x 3.599490 0.000000 0.000000 
#    y 0.000000 3.147850 0.000000 
#    z 0.000000 0.000000 3.720740 
# 
# 
# High freq. dielectric constant tensor:
#      x y z
#    x 1.726910 0.000000 0.000000 
#    y 0.000000 1.714500 0.000000 
#    z 0.000000 0.000000 1.754100 
# 
# From -- ./inp_files/45576.got.cif
#   From: 2010.03.12/outbox.cif.g09.slc.cpg/sg67_23_cif.got.tgz:45576.got - 2010.04.10 22:41:39.
