data_PCOD8279246
_publ_section_title
;
Structure prediction by ZEFSAII (Michael W. Deem and Ramdas Pophale) SiO2 
 PCOD8279246
Probable space group: C M M A
;
_chemical_formula_sum "Si O2"
_cell_formula_units_Z 72
_cell_length_a 9.066228
_cell_length_b 25.229262
_cell_length_c 16.696208
_cell_angle_alpha 90.000000
_cell_angle_beta 90.000000
_cell_angle_gamma 90.000000
_cell_volume 3818.994474
_symmetry_space_group_name_H-M "C M M A"
_symmetry_group_IT_number 67
_symmetry_cell_setting 'orthorhombic'
loop_
_space_group_symop_operation_xyz
x,y,z
-x,1/2-y,z
x,-y,-z
-x,1/2+y,-z
-x,-y,-z
x,1/2+y,-z
-x,y,z
x,1/2-y,z
1/2+x,1/2+y,z
1/2-x,-y,z
1/2+x,1/2-y,-z
1/2-x,y,-z
1/2-x,1/2-y,-z
1/2+x,y,-z
1/2-x,1/2+y,z
1/2+x,-y,z
loop_
_atom_site_type_symbol
_atom_site_label
_atom_site_fract_x
_atom_site_fract_y
_atom_site_fract_z
Si Si1 0.827091 0.250000 0.415427
Si Si2 0.326304 0.657640 0.296630
Si Si3 0.333284 0.691824 0.856937
Si Si4 0.167491 0.083095 0.923359
Si Si5 0.175549 0.553411 0.254087
O O1 0.750000 0.250000 0.500000
O O2 0.779916 0.196861 0.368210
O O3 0.000000 0.250000 0.428988
O O4 0.500000 0.646059 0.295966
O O5 0.282677 0.686380 0.214471
O O6 0.238332 0.602329 0.305946
O O7 0.500000 0.684271 0.822214
O O8 0.314383 0.750000 0.896421
O O9 0.306855 0.646735 0.923391
O O10 0.225185 0.060227 0.838813
O O11 0.000000 0.066905 0.935253
O O12 0.250000 0.058394 0.000000
O O13 0.250000 0.500000 0.287418
O O14 0.000000 0.551080 0.263461
#
# Coordination Sequence:
#
# PCOD8279246 Si02
#       5
#     8  16  16  16  16
#     4  10  22  36  56  88 121 148 175 206 253 310
#     4  10  19  34  54  81 112 140 176 220 259 309
#     4   9  17  30  48  69  97 137 180 220 265 320
#     4   9  19  32  45  67  99 134 177 223 273 323
#     4  10  21  37  56  79 103 138 183 226 272 321
#
# _framework density 18.853131000000001
#
# number of rings (size 3 to 8) (size 9 to 14) (size 15 to 20)
#    0.000    2.444    1.111    2.667    0.000    7.111 
#    0.000    2.222    0.000    0.667    0.000    4.667 
#    0.000    0.000    0.000    0.000    0.000    0.000 
#
# Total GULP energy -446254.331184 kJ/mol
# GULP energy per Si atom -12395.953644 kJ/mol
# Density = 1.881022 g / cm^3
# Si number density = 18.853131 Si / 1000 Ang^3
#
#
#
# Elastic Constant Matrix: (Units=GPa)
#
#
# Indices 1 2 3 4 5 6 
#
# 1 75.4099 49.3357 37.4254 0.0000 0.0000 0.0000
# 2 49.3357 132.6786 28.3875 0.0000 0.0000 0.0000
# 3 37.4254 28.3875 75.5641 0.0000 0.0000 0.0000
# 4 0.0000 0.0000 0.0000 11.9957 0.0000 0.0000
# 5 0.0000 0.0000 0.0000 0.0000 28.5750 0.0000
# 6 0.0000 0.0000 0.0000 0.0000 0.0000 29.0189
#
#
#
# Elastic Compliance Matrix: (Units=1/GPa)
#
#
# Indices 1 2 3 4 5 6 
#
# 1 0.021425 -0.006194 -0.008284 0.000000 0.000000 0.000000
# 2 -0.006194 0.009987 -0.000684 0.000000 0.000000 0.000000
# 3 -0.008284 -0.000684 0.017594 0.000000 0.000000 0.000000
# 4 0.000000 0.000000 0.000000 0.083364 0.000000 0.000000
# 5 0.000000 0.000000 0.000000 0.000000 0.034996 0.000000
# 6 0.000000 0.000000 0.000000 0.000000 0.000000 0.034460
#
#
# Mechanical properties :
#
#
# Convention : Reuss Voigt Hill
#
# Bulk Modulus (GPa) = 53.53179 57.10554 55.31867
# Shear Modulus (GPa) = 20.97528 25.15151 23.06339
#
# Velocity S-wave (km/s) = 3.33913 3.65646 3.50139
# Velocity P-wave (km/s) = 6.58195 6.94131 6.76402
#
# Compressibility (1/GPa) = 0.01868049
#
# Stress axis : x y z
#
# Youngs Moduli (GPa) = 46.67513 100.13426 56.83845
#
# Poissons Ratio (x) = 0.62025 0.47086
# Poissons Ratio (y) = 0.28911 0.03887
# Poissons Ratio (z) = 0.38667 0.06848
#
# Static dielectric constant tensor:
#      x y z
#    x 3.417040 0.000000 0.000000 
#    y 0.000000 3.676410 0.000000 
#    z 0.000000 0.000000 3.070380 
# 
# 
# High freq. dielectric constant tensor:
#      x y z
#    x 1.735680 0.000000 0.000000 
#    y 0.000000 1.748320 0.000000 
#    z 0.000000 0.000000 1.681680 
# 
# From -- ./inp_files/25089.got.cif
#   From: 2010.03.12/outbox.cif.g09.slc.cpg/sg67_13_cif.got.tgz:25089.got - 2010.04.10 22:41:39.
