data_PCOD8279958
_publ_section_title
;
Structure prediction by ZEFSAII (Michael W. Deem and Ramdas Pophale) SiO2 
 PCOD8279958
Probable space group: C M M A
;
_chemical_formula_sum "Si O2"
_cell_formula_units_Z 64
_cell_length_a 18.605963
_cell_length_b 8.713374
_cell_length_c 20.613778
_cell_angle_alpha 90.000000
_cell_angle_beta 90.000000
_cell_angle_gamma 90.000000
_cell_volume 3341.920413
_symmetry_space_group_name_H-M "C M M A"
_symmetry_group_IT_number 67
_symmetry_cell_setting 'orthorhombic'
loop_
_space_group_symop_operation_xyz
x,y,z
-x,1/2-y,z
x,-y,-z
-x,1/2+y,-z
-x,-y,-z
x,1/2+y,-z
-x,y,z
x,1/2-y,z
1/2+x,1/2+y,z
1/2-x,-y,z
1/2+x,1/2-y,-z
1/2-x,y,-z
1/2-x,1/2-y,-z
1/2+x,y,-z
1/2-x,1/2+y,z
1/2+x,-y,z
loop_
_atom_site_type_symbol
_atom_site_label
_atom_site_fract_x
_atom_site_fract_y
_atom_site_fract_z
Si Si1 0.173970 0.568756 0.568928
Si Si2 0.328990 0.070141 0.794819
Si Si3 0.327940 0.427012 0.938236
Si Si4 0.584268 0.072619 0.319677
O O1 0.150422 0.500000 0.500000
O O2 0.181397 0.750000 0.562460
O O3 0.250000 0.500000 0.592016
O O4 0.113996 0.526523 0.620963
O O5 0.324536 0.250000 0.777871
O O6 0.362246 0.043929 0.867214
O O7 0.250000 0.000000 0.787499
O O8 0.382678 0.984472 0.747366
O O9 0.320377 0.250000 0.952868
O O10 0.250000 0.500000 0.936057
O O11 0.371414 0.500000 0.000000
O O12 0.500000 0.044899 0.316092
O O13 0.603858 0.250000 0.330716
#
# Coordination Sequence:
#
# PCOD8279958 Si02
#       4
#    16  16  16  16
#     4  11  22  39  63  88 115 144 178 220 265 316
#     4  10  20  34  54  80 109 142 181 224 271 322
#     4   9  16  26  44  72 104 136 171 216 267 318
#     4  11  24  40  57  79 109 145 184 225 270 320
#
# _framework density 19.150666000000001
#
# number of rings (size 3 to 8) (size 9 to 14) (size 15 to 20)
#    0.000    1.750    0.000    6.750    0.000    5.500 
#    0.000    0.000    0.000    0.750    0.000    0.000 
#    0.000    0.000    0.000    0.000    0.000    0.000 
#
# Total GULP energy -396701.732036 kJ/mol
# GULP energy per Si atom -12396.929126 kJ/mol
# Density = 1.910708 g / cm^3
# Si number density = 19.150666 Si / 1000 Ang^3
#
#
#
# Elastic Constant Matrix: (Units=GPa)
#
#
# Indices 1 2 3 4 5 6 
#
# 1 69.2245 48.5763 57.9645 0.0000 0.0000 0.0000
# 2 48.5763 147.0729 66.3112 0.0000 0.0000 0.0000
# 3 57.9645 66.3112 146.1078 0.0000 0.0000 0.0000
# 4 0.0000 0.0000 0.0000 39.1448 0.0000 0.0000
# 5 0.0000 0.0000 0.0000 0.0000 -0.2991 0.0000
# 6 0.0000 0.0000 0.0000 0.0000 0.0000 24.1635
#
#
#
# Elastic Compliance Matrix: (Units=1/GPa)
#
#
# Indices 1 2 3 4 5 6 
#
# 1 0.023816 -0.004534 -0.007391 0.000000 0.000000 0.000000
# 2 -0.004534 0.009412 -0.002473 0.000000 0.000000 0.000000
# 3 -0.007391 -0.002473 0.010899 0.000000 0.000000 0.000000
# 4 0.000000 0.000000 0.000000 0.025546 0.000000 0.000000
# 5 0.000000 0.000000 0.000000 0.000000 -3.343763 0.000000
# 6 0.000000 0.000000 0.000000 0.000000 0.000000 0.041385
#
#
# Mechanical properties :
#
#
# Convention : Reuss Voigt Hill
#
# Bulk Modulus (GPa) = 65.22513 78.67880 71.95197
# Shear Modulus (GPa) = -1.56309 25.23872 11.83782
#
# Velocity S-wave (km/s) = -0.90442 3.63423 2.48894
# Velocity P-wave (km/s) = 5.74824 7.66704 6.77590
#
# Compressibility (1/GPa) = 0.01533151
#
# Stress axis : x y z
#
# Youngs Moduli (GPa) = 41.98927 106.25009 91.75495
#
# Poissons Ratio (x) = 0.48172 0.67812
# Poissons Ratio (y) = 0.19037 0.22690
# Poissons Ratio (z) = 0.31032 0.26274
#
# Static dielectric constant tensor:
#      x y z
#    x 3.172050 0.000000 0.000000 
#    y 0.000000 3.768250 0.000000 
#    z 0.000000 0.000000 4.365950 
# 
# 
# High freq. dielectric constant tensor:
#      x y z
#    x 1.697780 0.000000 0.000000 
#    y 0.000000 1.767720 0.000000 
#    z 0.000000 0.000000 1.773120 
# 
# From -- ./inp_files/36562.got.cif
#   From: 2010.03.12/outbox.cif.g09.slc.cpg/sg67_19_cif.got.tgz:36562.got - 2010.04.10 22:41:39.
