data_PCOD8279053
_publ_section_title
;
Structure prediction by ZEFSAII (Michael W. Deem and Ramdas Pophale) SiO2 
 PCOD8279053
Probable space group: C M M A
;
_chemical_formula_sum "Si O2"
_cell_formula_units_Z 80
_cell_length_a 17.734373
_cell_length_b 16.601026
_cell_length_c 13.810439
_cell_angle_alpha 90.000000
_cell_angle_beta 90.000000
_cell_angle_gamma 90.000000
_cell_volume 4065.914598
_symmetry_space_group_name_H-M "C M M A"
_symmetry_group_IT_number 67
_symmetry_cell_setting 'orthorhombic'
loop_
_space_group_symop_operation_xyz
x,y,z
-x,1/2-y,z
x,-y,-z
-x,1/2+y,-z
-x,-y,-z
x,1/2+y,-z
-x,y,z
x,1/2-y,z
1/2+x,1/2+y,z
1/2-x,-y,z
1/2+x,1/2-y,-z
1/2-x,y,-z
1/2-x,1/2-y,-z
1/2+x,y,-z
1/2-x,1/2+y,z
1/2+x,-y,z
loop_
_atom_site_type_symbol
_atom_site_label
_atom_site_fract_x
_atom_site_fract_y
_atom_site_fract_z
Si Si1 0.915106 0.657759 0.615911
Si Si2 0.820303 0.658311 0.439734
Si Si3 0.413411 0.981273 0.888242
Si Si4 0.834316 0.842702 0.222141
Si Si5 0.305733 0.073397 0.758335
O O1 0.908531 0.750000 0.651968
O O2 0.897049 0.652222 0.501538
O O3 0.851805 0.603781 0.666043
O O4 0.000000 0.625345 0.633560
O O5 0.795837 0.750000 0.418497
O O6 0.750000 0.618293 0.500000
O O7 0.838932 0.621877 0.333345
O O8 0.500000 0.989962 0.859295
O O9 0.386178 0.893382 0.851762
O O10 0.366661 0.051042 0.837748
O O11 0.400147 0.000000 0.000000
O O12 0.859200 0.750000 0.212439
O O13 0.746036 0.855521 0.195604
O O14 0.250000 0.000000 0.730135
#
# Coordination Sequence:
#
# PCOD8279053 Si02
#       5
#    16  16  16  16  16
#     4  10  19  32  54  84 116 150 190 236 283 337
#     4   9  16  30  54  83 119 155 187 231 287 339
#     4  10  23  43  61  79 113 157 193 240 304 352
#     4  10  20  36  63  91 112 146 197 246 285 338
#     4  10  20  35  57  83 113 151 189 232 289 353
#
# _framework density 19.675771000000001
#
# number of rings (size 3 to 8) (size 9 to 14) (size 15 to 20)
#    0.000    2.200    2.000    1.200    0.000    4.800 
#    0.000   12.000    0.000    8.400    0.000    0.000 
#    0.000    0.000    0.000    0.000    0.000    0.000 
#
# Total GULP energy -495577.858103 kJ/mol
# GULP energy per Si atom -12389.446453 kJ/mol
# Density = 1.963099 g / cm^3
# Si number density = 19.675771 Si / 1000 Ang^3
#
#
#
# Elastic Constant Matrix: (Units=GPa)
#
#
# Indices 1 2 3 4 5 6 
#
# 1 141.5040 41.1378 70.0417 0.0000 0.0000 0.0000
# 2 41.1378 36.9804 40.0370 0.0000 0.0000 0.0000
# 3 70.0417 40.0370 97.0449 0.0000 0.0000 0.0000
# 4 0.0000 0.0000 0.0000 34.2845 0.0000 0.0000
# 5 0.0000 0.0000 0.0000 0.0000 35.1626 0.0000
# 6 0.0000 0.0000 0.0000 0.0000 0.0000 21.9504
#
#
#
# Elastic Compliance Matrix: (Units=1/GPa)
#
#
# Indices 1 2 3 4 5 6 
#
# 1 0.011958 -0.007153 -0.005679 0.000000 0.000000 0.000000
# 2 -0.007153 0.053149 -0.016764 0.000000 0.000000 0.000000
# 3 -0.005679 -0.016764 0.021320 0.000000 0.000000 0.000000
# 4 0.000000 0.000000 0.000000 0.029168 0.000000 0.000000
# 5 0.000000 0.000000 0.000000 0.000000 0.028439 0.000000
# 6 0.000000 0.000000 0.000000 0.000000 0.000000 0.045557
#
#
# Mechanical properties :
#
#
# Convention : Reuss Voigt Hill
#
# Bulk Modulus (GPa) = 36.72077 64.21803 50.46940
# Shear Modulus (GPa) = 19.39030 26.56704 22.97867
#
# Velocity S-wave (km/s) = 3.14266 3.67855 3.42111
# Velocity P-wave (km/s) = 5.64552 7.12399 6.42741
#
# Compressibility (1/GPa) = 0.02723255
#
# Stress axis : x y z
#
# Youngs Moduli (GPa) = 83.62879 18.81516 46.90504
#
# Poissons Ratio (x) = 0.13459 0.26638
# Poissons Ratio (y) = 0.59822 0.78633
# Poissons Ratio (z) = 0.47494 0.31542
#
# Static dielectric constant tensor:
#      x y z
#    x 3.707500 0.000000 0.000000 
#    y 0.000000 3.498060 0.000000 
#    z 0.000000 0.000000 3.554940 
# 
# 
# High freq. dielectric constant tensor:
#      x y z
#    x 1.775830 0.000000 0.000000 
#    y 0.000000 1.749740 0.000000 
#    z 0.000000 0.000000 1.753250 
# 
# From -- ./inp_files/28365.got.cif
#   From: 2010.03.12/outbox.cif.g09.slc.cpg/sg67_15_cif.got.tgz:28365.got - 2010.04.10 22:41:39.
