data_PCOD8279143
_publ_section_title
;
Structure prediction by ZEFSAII (Michael W. Deem and Ramdas Pophale) SiO2 
 PCOD8279143
Probable space group: C M M A
;
_chemical_formula_sum "Si O2"
_cell_formula_units_Z 80
_cell_length_a 8.584024
_cell_length_b 19.041279
_cell_length_c 25.567296
_cell_angle_alpha 90.000000
_cell_angle_beta 90.000000
_cell_angle_gamma 90.000000
_cell_volume 4178.994881
_symmetry_space_group_name_H-M "C M M A"
_symmetry_group_IT_number 67
_symmetry_cell_setting 'orthorhombic'
loop_
_space_group_symop_operation_xyz
x,y,z
-x,1/2-y,z
x,-y,-z
-x,1/2+y,-z
-x,-y,-z
x,1/2+y,-z
-x,y,z
x,1/2-y,z
1/2+x,1/2+y,z
1/2-x,-y,z
1/2+x,1/2-y,-z
1/2-x,y,-z
1/2-x,1/2-y,-z
1/2+x,y,-z
1/2-x,1/2+y,z
1/2+x,-y,z
loop_
_atom_site_type_symbol
_atom_site_label
_atom_site_fract_x
_atom_site_fract_y
_atom_site_fract_z
Si Si1 0.184689 0.924080 0.244853
Si Si2 0.817026 0.924858 0.644061
Si Si3 0.814831 0.671294 0.150498
Si Si4 0.315106 0.423873 0.055502
Si Si5 0.679174 0.667241 0.554888
O O1 0.244353 0.899203 0.301310
O O2 0.245852 0.868558 0.202147
O O3 0.000000 0.928299 0.245844
O O4 0.250000 0.000000 0.229610
O O5 0.777030 0.867927 0.600662
O O6 0.000000 0.931920 0.651061
O O7 0.750000 0.000000 0.626876
O O8 0.745500 0.750000 0.150202
O O9 0.755858 0.630855 0.098976
O O10 0.000000 0.673521 0.150830
O O11 0.500000 0.428350 0.052826
O O12 0.250000 0.500000 0.070421
O O13 0.250000 0.397690 0.000000
O O14 0.500000 0.643577 0.557883
O O15 0.697785 0.750000 0.561522
O O16 0.750000 0.641856 0.500000
#
# Coordination Sequence:
#
# PCOD8279143 Si02
#       5
#    16  16  16  16  16
#     4  10  19  34  56  78 103 137 176 218 265 317
#     4  11  22  37  57  82 112 143 181 226 272 320
#     4   9  19  34  52  76 105 137 173 214 262 314
#     4  10  19  33  54  77 103 135 173 215 258 309
#     4  10  21  38  59  83 112 146 183 222 268 322
#
# _framework density 19.143359
#
# number of rings (size 3 to 8) (size 9 to 14) (size 15 to 20)
#    0.000    2.000    0.000    6.000    0.000    2.800 
#    0.000    7.000    0.000    8.400    0.000    0.000 
#    0.000    0.000    0.000    0.000    0.000    0.000 
#
# Total GULP energy -496116.122684 kJ/mol
# GULP energy per Si atom -12402.903067 kJ/mol
# Density = 1.909979 g / cm^3
# Si number density = 19.143359 Si / 1000 Ang^3
#
#
#
# Elastic Constant Matrix: (Units=GPa)
#
#
# Indices 1 2 3 4 5 6 
#
# 1 90.4171 30.7677 38.4316 0.0000 0.0000 0.0000
# 2 30.7677 109.6367 92.7704 0.0000 0.0000 0.0000
# 3 38.4316 92.7704 161.0643 0.0000 0.0000 0.0000
# 4 0.0000 0.0000 0.0000 18.9918 0.0000 0.0000
# 5 0.0000 0.0000 0.0000 0.0000 22.4974 0.0000
# 6 0.0000 0.0000 0.0000 0.0000 0.0000 25.4332
#
#
#
# Elastic Compliance Matrix: (Units=1/GPa)
#
#
# Indices 1 2 3 4 5 6 
#
# 1 0.012512 -0.001922 -0.001879 0.000000 0.000000 0.000000
# 2 -0.001922 0.018088 -0.009960 0.000000 0.000000 0.000000
# 3 -0.001879 -0.009960 0.012394 0.000000 0.000000 0.000000
# 4 0.000000 0.000000 0.000000 0.052654 0.000000 0.000000
# 5 0.000000 0.000000 0.000000 0.000000 0.044450 0.000000
# 6 0.000000 0.000000 0.000000 0.000000 0.000000 0.039319
#
#
# Mechanical properties :
#
#
# Convention : Reuss Voigt Hill
#
# Bulk Modulus (GPa) = 64.62661 76.11750 70.37206
# Shear Modulus (GPa) = 23.57438 26.66105 25.11771
#
# Velocity S-wave (km/s) = 3.51303 3.73594 3.62620
# Velocity P-wave (km/s) = 7.09139 7.64577 7.37379
#
# Compressibility (1/GPa) = 0.01547350
#
# Stress axis : x y z
#
# Youngs Moduli (GPa) = 79.92127 55.28547 80.68634
#
# Poissons Ratio (x) = 0.10624 0.15159
# Poissons Ratio (y) = 0.15358 0.80362
# Poissons Ratio (z) = 0.15015 0.55063
#
# Static dielectric constant tensor:
#      x y z
#    x 3.456940 0.000000 0.000000 
#    y 0.000000 3.553760 0.000000 
#    z 0.000000 0.000000 3.710520 
# 
# 
# High freq. dielectric constant tensor:
#      x y z
#    x 1.742620 0.000000 0.000000 
#    y 0.000000 1.739500 0.000000 
#    z 0.000000 0.000000 1.758920 
# 
# From -- ./inp_files/43331.got.cif
#   From: 2010.03.12/outbox.cif.g09.slc.cpg/sg67_22_cif.got.tgz:43331.got - 2010.04.10 22:41:39.
