data_PCOD8279271
_publ_section_title
;
Structure prediction by ZEFSAII (Michael W. Deem and Ramdas Pophale) SiO2 
 PCOD8279271
Probable space group: C M M A
;
_chemical_formula_sum "Si O2"
_cell_formula_units_Z 96
_cell_length_a 15.741202
_cell_length_b 28.772134
_cell_length_c 10.267197
_cell_angle_alpha 90.000000
_cell_angle_beta 90.000000
_cell_angle_gamma 90.000000
_cell_volume 4650.095384
_symmetry_space_group_name_H-M "C M M A"
_symmetry_group_IT_number 67
_symmetry_cell_setting 'orthorhombic'
loop_
_space_group_symop_operation_xyz
x,y,z
-x,1/2-y,z
x,-y,-z
-x,1/2+y,-z
-x,-y,-z
x,1/2+y,-z
-x,y,z
x,1/2-y,z
1/2+x,1/2+y,z
1/2-x,-y,z
1/2+x,1/2-y,-z
1/2-x,y,-z
1/2-x,1/2-y,-z
1/2+x,y,-z
1/2-x,1/2+y,z
1/2+x,-y,z
loop_
_atom_site_type_symbol
_atom_site_label
_atom_site_fract_x
_atom_site_fract_y
_atom_site_fract_z
Si Si1 0.900654 0.955940 0.772315
Si Si2 0.600485 0.395143 0.537012
Si Si3 0.899726 0.058113 0.722860
Si Si4 0.098391 0.698862 0.654722
Si Si5 0.650035 0.397503 0.014304
Si Si6 0.157301 0.199786 0.062641
O O1 0.862097 0.921461 0.663788
O O2 0.883453 0.936900 0.916521
O O3 0.000000 0.960414 0.752418
O O4 0.860012 0.007032 0.749789
O O5 0.500000 0.400844 0.531328
O O6 0.639992 0.418413 0.407259
O O7 0.625318 0.340579 0.549925
O O8 0.000000 0.054355 0.708642
O O9 0.875860 0.091066 0.840660
O O10 0.109200 0.750000 0.589874
O O11 0.000000 0.691058 0.698266
O O12 0.159071 0.695056 0.780575
O O13 0.750000 0.394412 0.000000
O O14 0.608731 0.346384 0.988025
O O15 0.113110 0.250000 0.027861
O O16 0.250000 0.200404 0.000000
#
# Coordination Sequence:
#
# PCOD8279271 Si02
#       6
#    16  16  16  16  16  16
#     4  10  19  34  56  77 101 140 184 216 253 315
#     4   9  17  32  53  77 104 135 173 216 260 311
#     4  10  21  35  53  78 107 138 174 217 263 314
#     4   9  16  28  52  83 108 135 176 224 270 317
#     4  11  22  35  53  78 107 140 173 221 269 309
#     4   9  18  33  53  75 102 138 178 215 255 309
#
# _framework density 20.644739000000001
#
# number of rings (size 3 to 8) (size 9 to 14) (size 15 to 20)
#    0.000    2.333    1.667    1.500    0.000    5.333 
#    0.000    1.667    0.000    3.000    0.000    5.833 
#    0.000    0.000    0.000    0.000    0.000    0.000 
#
# Total GULP energy -594761.601100 kJ/mol
# GULP energy per Si atom -12390.866690 kJ/mol
# Density = 2.059775 g / cm^3
# Si number density = 20.644739 Si / 1000 Ang^3
#
#
#
# Elastic Constant Matrix: (Units=GPa)
#
#
# Indices 1 2 3 4 5 6 
#
# 1 15.7303 12.9437 9.5878 0.0000 0.0000 0.0000
# 2 12.9437 193.7761 58.7550 0.0000 0.0000 0.0000
# 3 9.5878 58.7550 116.4587 0.0000 0.0000 0.0000
# 4 0.0000 0.0000 0.0000 33.0497 0.0000 0.0000
# 5 0.0000 0.0000 0.0000 0.0000 12.2378 0.0000
# 6 0.0000 0.0000 0.0000 0.0000 0.0000 13.9334
#
#
#
# Elastic Compliance Matrix: (Units=1/GPa)
#
#
# Indices 1 2 3 4 5 6 
#
# 1 0.068773 -0.003397 -0.003948 0.000000 0.000000 0.000000
# 2 -0.003397 0.006260 -0.002879 0.000000 0.000000 0.000000
# 3 -0.003948 -0.002879 0.010364 0.000000 0.000000 0.000000
# 4 0.000000 0.000000 0.000000 0.030258 0.000000 0.000000
# 5 0.000000 0.000000 0.000000 0.000000 0.081714 0.000000
# 6 0.000000 0.000000 0.000000 0.000000 0.000000 0.071770
#
#
# Mechanical properties :
#
#
# Convention : Reuss Voigt Hill
#
# Bulk Modulus (GPa) = 15.39645 54.28201 34.83923
# Shear Modulus (GPa) = 16.06496 28.15608 22.11052
#
# Velocity S-wave (km/s) = 2.79258 3.69702 3.27616
# Velocity P-wave (km/s) = 4.22753 6.67641 5.58778
#
# Compressibility (1/GPa) = 0.06495004
#
# Stress axis : x y z
#
# Youngs Moduli (GPa) = 14.54058 159.73510 96.48614
#
# Poissons Ratio (x) = 0.54257 0.38096
# Poissons Ratio (y) = 0.04939 0.27776
# Poissons Ratio (z) = 0.05741 0.45984
#
# Static dielectric constant tensor:
#      x y z
#    x 3.139720 0.000000 0.000000 
#    y 0.000000 4.628680 0.000000 
#    z 0.000000 0.000000 3.696130 
# 
# 
# High freq. dielectric constant tensor:
#      x y z
#    x 1.761760 0.000000 0.000000 
#    y 0.000000 1.837990 0.000000 
#    z 0.000000 0.000000 1.795220 
# 
# From -- ./inp_files/11481.got.cif
#   From: 2010.03.12/outbox.cif.g09.slc.cpg/sg67_6_cif.got.tgz:11481.got - 2010.04.10 22:41:39.
