data_PCOD8279220
_publ_section_title
;
Structure prediction by ZEFSAII (Michael W. Deem and Ramdas Pophale) SiO2 
 PCOD8279220
Probable space group: C M M A
;
_chemical_formula_sum "Si O2"
_cell_formula_units_Z 112
_cell_length_a 14.138895
_cell_length_b 29.671202
_cell_length_c 12.141353
_cell_angle_alpha 90.000000
_cell_angle_beta 90.000000
_cell_angle_gamma 90.000000
_cell_volume 5093.516244
_symmetry_space_group_name_H-M "C M M A"
_symmetry_group_IT_number 67
_symmetry_cell_setting 'orthorhombic'
loop_
_space_group_symop_operation_xyz
x,y,z
-x,1/2-y,z
x,-y,-z
-x,1/2+y,-z
-x,-y,-z
x,1/2+y,-z
-x,y,z
x,1/2-y,z
1/2+x,1/2+y,z
1/2-x,-y,z
1/2+x,1/2-y,-z
1/2-x,y,-z
1/2-x,1/2-y,-z
1/2+x,y,-z
1/2-x,1/2+y,z
1/2+x,-y,z
loop_
_atom_site_type_symbol
_atom_site_label
_atom_site_fract_x
_atom_site_fract_y
_atom_site_fract_z
Si Si1 0.607985 0.564943 0.302865
Si Si2 0.794134 0.328634 0.846316
Si Si3 0.105458 0.198870 0.060295
Si Si4 0.762949 0.071891 0.872694
Si Si5 0.610617 0.107280 0.477634
Si Si6 0.391061 0.199426 0.371290
Si Si7 0.607268 0.036905 0.297740
O O1 0.500000 0.578428 0.278265
O O2 0.662730 0.573886 0.189570
O O3 0.652714 0.594830 0.402539
O O4 0.614658 0.513376 0.345976
O O5 0.680145 0.325537 0.859687
O O6 0.818950 0.380995 0.860108
O O7 0.822697 0.307405 0.731194
O O8 0.853634 0.301771 0.936935
O O9 0.097970 0.250000 0.099192
O O10 0.000000 0.176776 0.066975
O O11 0.831134 0.035799 0.814226
O O12 0.750000 0.058648 0.000000
O O13 0.500000 0.097253 0.481918
O O14 0.634103 0.160116 0.458553
O O15 0.651087 0.074018 0.382295
O O16 0.500000 0.193799 0.333554
O O17 0.374586 0.250000 0.420676
O O18 0.500000 0.049525 0.267341
#
# Coordination Sequence:
#
# PCOD8279220 Si02
#       7
#    16  16  16  16  16  16  16
#     4  10  23  42  65  92 125 165 208 263 325 387
#     4  11  20  36  54  85 127 168 210 262 313 377
#     4  10  20  34  56  84 116 164 224 275 318 369
#     4  12  25  41  59  91 128 170 213 261 312 383
#     4   9  18  37  65  96 128 159 205 263 318 378
#     4  10  19  33  61  98 131 165 205 254 315 381
#     4  10  21  40  66  94 124 163 212 266 323 377
#
# _framework density 21.988738000000001
#
# number of rings (size 3 to 8) (size 9 to 14) (size 15 to 20)
#    0.000    1.714    2.857    3.000    0.000    6.286 
#    0.000    2.857    0.000    3.429    0.000    2.000 
#    0.000    0.000    0.000    0.000    0.000    0.000 
#
# Total GULP energy -694262.397018 kJ/mol
# GULP energy per Si atom -12397.542804 kJ/mol
# Density = 2.193869 g / cm^3
# Si number density = 21.988738 Si / 1000 Ang^3
#
#
#
# Elastic Constant Matrix: (Units=GPa)
#
#
# Indices 1 2 3 4 5 6 
#
# 1 111.7229 24.3766 56.1260 0.0000 0.0000 0.0000
# 2 24.3766 112.9974 49.4820 0.0000 0.0000 0.0000
# 3 56.1260 49.4820 152.0625 0.0000 0.0000 0.0000
# 4 0.0000 0.0000 0.0000 31.9682 0.0000 0.0000
# 5 0.0000 0.0000 0.0000 0.0000 27.1099 0.0000
# 6 0.0000 0.0000 0.0000 0.0000 0.0000 24.6604
#
#
#
# Elastic Compliance Matrix: (Units=1/GPa)
#
#
# Indices 1 2 3 4 5 6 
#
# 1 0.011035 -0.000696 -0.003846 0.000000 0.000000 0.000000
# 2 -0.000696 0.010364 -0.003116 0.000000 0.000000 0.000000
# 3 -0.003846 -0.003116 0.009010 0.000000 0.000000 0.000000
# 4 0.000000 0.000000 0.000000 0.031281 0.000000 0.000000
# 5 0.000000 0.000000 0.000000 0.000000 0.036887 0.000000
# 6 0.000000 0.000000 0.000000 0.000000 0.000000 0.040551
#
#
# Mechanical properties :
#
#
# Convention : Reuss Voigt Hill
#
# Bulk Modulus (GPa) = 66.25789 70.75020 68.50405
# Shear Modulus (GPa) = 31.35283 33.20091 32.27687
#
# Velocity S-wave (km/s) = 3.78015 3.88997 3.83545
# Velocity P-wave (km/s) = 7.01789 7.24025 7.12994
#
# Compressibility (1/GPa) = 0.01509254
#
# Stress axis : x y z
#
# Youngs Moduli (GPa) = 90.62130 96.48502 110.99016
#
# Poissons Ratio (x) = 0.06717 0.42692
# Poissons Ratio (y) = 0.06309 0.34581
# Poissons Ratio (z) = 0.34857 0.30061
#
# Static dielectric constant tensor:
#      x y z
#    x 4.007740 0.000000 0.000000 
#    y 0.000000 4.059510 0.000000 
#    z 0.000000 0.000000 3.723020 
# 
# 
# High freq. dielectric constant tensor:
#      x y z
#    x 1.867170 0.000000 0.000000 
#    y 0.000000 1.872110 0.000000 
#    z 0.000000 0.000000 1.839590 
# 
# From -- ./inp_files/18659.got.cif
#   From: 2010.03.12/outbox.cif.g09.slc.cpg/sg67_10_cif.got.tgz:18659.got - 2010.04.10 22:41:39.
