data_PCOD8279168
_publ_section_title
;
Structure prediction by ZEFSAII (Michael W. Deem and Ramdas Pophale) SiO2 
 PCOD8279168
Probable space group: C M M A
;
_chemical_formula_sum "Si O2"
_cell_formula_units_Z 96
_cell_length_a 28.664626
_cell_length_b 8.685926
_cell_length_c 20.737475
_cell_angle_alpha 90.000000
_cell_angle_beta 90.000000
_cell_angle_gamma 90.000000
_cell_volume 5163.192061
_symmetry_space_group_name_H-M "C M M A"
_symmetry_group_IT_number 67
_symmetry_cell_setting 'orthorhombic'
loop_
_space_group_symop_operation_xyz
x,y,z
-x,1/2-y,z
x,-y,-z
-x,1/2+y,-z
-x,-y,-z
x,1/2+y,-z
-x,y,z
x,1/2-y,z
1/2+x,1/2+y,z
1/2-x,-y,z
1/2+x,1/2-y,-z
1/2-x,y,-z
1/2-x,1/2-y,-z
1/2+x,y,-z
1/2-x,1/2+y,z
1/2+x,-y,z
loop_
_atom_site_type_symbol
_atom_site_label
_atom_site_fract_x
_atom_site_fract_y
_atom_site_fract_z
Si Si1 0.889832 0.566966 0.066296
Si Si2 0.395119 0.928336 0.684422
Si Si3 0.552580 0.569210 0.432935
Si Si4 0.447499 0.933081 0.811289
Si Si5 0.200836 0.567321 0.878779
Si Si6 0.297332 0.570676 0.740011
O O1 0.888345 0.750000 0.064110
O O2 0.922167 0.505698 0.124536
O O3 0.838075 0.500735 0.074289
O O4 0.910993 0.500000 0.000000
O O5 0.407593 0.750000 0.674952
O O6 0.420364 0.993948 0.748320
O O7 0.339523 0.953599 0.690111
O O8 0.412502 0.020592 0.623023
O O9 0.570853 0.500000 0.500000
O O10 0.500000 0.509606 0.417867
O O11 0.553288 0.750000 0.439740
O O12 0.500000 0.998354 0.809802
O O13 0.447102 0.750000 0.811611
O O14 0.201319 0.750000 0.883032
O O15 0.250000 0.500000 0.902527
O O16 0.190127 0.514974 0.806002
O O17 0.289938 0.750000 0.756044
O O18 0.250000 0.500000 0.709485
#
# Coordination Sequence:
#
# PCOD8279168 Si02
#       6
#    16  16  16  16  16  16
#     4  11  22  38  55  77 107 141 184 227 276 333
#     4  10  19  34  58  84 112 147 186 224 271 324
#     4  10  21  36  55  83 118 153 188 227 272 323
#     4   9  18  34  56  79 106 142 182 224 271 325
#     4  11  21  35  56  80 107 140 176 222 277 330
#     4  10  19  33  54  83 113 146 181 223 271 324
#
# _framework density 18.593150000000001
#
# number of rings (size 3 to 8) (size 9 to 14) (size 15 to 20)
#    0.000    1.833    1.667    4.500    0.000    3.667 
#    0.000    1.667    0.000    3.000    0.000    3.500 
#    0.000    0.000    0.000    0.000    0.000    0.000 
#
# Total GULP energy -595321.638032 kJ/mol
# GULP energy per Si atom -12402.534126 kJ/mol
# Density = 1.855083 g / cm^3
# Si number density = 18.593150 Si / 1000 Ang^3
#
#
#
# Elastic Constant Matrix: (Units=GPa)
#
#
# Indices 1 2 3 4 5 6 
#
# 1 111.4497 33.3106 61.0546 0.0000 0.0000 0.0000
# 2 33.3106 84.7309 37.5939 0.0000 0.0000 0.0000
# 3 61.0546 37.5939 131.2748 0.0000 0.0000 0.0000
# 4 0.0000 0.0000 0.0000 32.1850 0.0000 0.0000
# 5 0.0000 0.0000 0.0000 0.0000 24.5026 0.0000
# 6 0.0000 0.0000 0.0000 0.0000 0.0000 23.3309
#
#
#
# Elastic Compliance Matrix: (Units=1/GPa)
#
#
# Indices 1 2 3 4 5 6 
#
# 1 0.012552 -0.002686 -0.005069 0.000000 0.000000 0.000000
# 2 -0.002686 0.014095 -0.002787 0.000000 0.000000 0.000000
# 3 -0.005069 -0.002787 0.010773 0.000000 0.000000 0.000000
# 4 0.000000 0.000000 0.000000 0.031070 0.000000 0.000000
# 5 0.000000 0.000000 0.000000 0.000000 0.040812 0.000000
# 6 0.000000 0.000000 0.000000 0.000000 0.000000 0.042862
#
#
# Mechanical properties :
#
#
# Convention : Reuss Voigt Hill
#
# Bulk Modulus (GPa) = 61.21259 65.70821 63.46040
# Shear Modulus (GPa) = 27.98097 29.03679 28.50888
#
# Velocity S-wave (km/s) = 3.88352 3.95611 3.91999
# Velocity P-wave (km/s) = 7.28715 7.50230 7.39551
#
# Compressibility (1/GPa) = 0.01633651
#
# Stress axis : x y z
#
# Youngs Moduli (GPa) = 79.66756 70.94919 92.82265
#
# Poissons Ratio (x) = 0.19055 0.47050
# Poissons Ratio (y) = 0.21397 0.25872
# Poissons Ratio (z) = 0.40382 0.19775
#
# Static dielectric constant tensor:
#      x y z
#    x 3.641790 0.000000 0.000000 
#    y 0.000000 3.301240 0.000000 
#    z 0.000000 0.000000 3.290200 
# 
# 
# High freq. dielectric constant tensor:
#      x y z
#    x 1.725250 0.000000 0.000000 
#    y 0.000000 1.715990 0.000000 
#    z 0.000000 0.000000 1.707690 
# 
# From -- ./inp_files/37118.got.cif
#   From: 2010.03.12/outbox.cif.g09.slc.cpg/sg67_19_cif.got.tgz:37118.got - 2010.04.10 22:41:39.
