data_PCOD8279907
_publ_section_title
;
Structure prediction by ZEFSAII (Michael W. Deem and Ramdas Pophale) SiO2 
 PCOD8279907
Probable space group: C M M A
;
_chemical_formula_sum "Si O2"
_cell_formula_units_Z 80
_cell_length_a 8.787130
_cell_length_b 18.879281
_cell_length_c 25.576523
_cell_angle_alpha 90.000000
_cell_angle_beta 90.000000
_cell_angle_gamma 90.000000
_cell_volume 4243.009519
_symmetry_space_group_name_H-M "C M M A"
_symmetry_group_IT_number 67
_symmetry_cell_setting 'orthorhombic'
loop_
_space_group_symop_operation_xyz
x,y,z
-x,1/2-y,z
x,-y,-z
-x,1/2+y,-z
-x,-y,-z
x,1/2+y,-z
-x,y,z
x,1/2-y,z
1/2+x,1/2+y,z
1/2-x,-y,z
1/2+x,1/2-y,-z
1/2-x,y,-z
1/2-x,1/2-y,-z
1/2+x,y,-z
1/2-x,1/2+y,z
1/2+x,-y,z
loop_
_atom_site_type_symbol
_atom_site_label
_atom_site_fract_x
_atom_site_fract_y
_atom_site_fract_z
Si Si1 0.177326 0.331925 0.259067
Si Si2 0.819637 0.923731 0.053416
Si Si3 0.679844 0.577312 0.651018
Si Si4 0.679826 0.669555 0.553943
Si Si5 0.174515 0.168275 0.848449
O O1 0.220830 0.250000 0.269136
O O2 0.272579 0.380471 0.297685
O O3 0.221540 0.354152 0.200373
O O4 0.000000 0.345854 0.267808
O O5 0.769664 0.874112 0.101039
O O6 0.000000 0.929183 0.047605
O O7 0.750000 0.000000 0.064836
O O8 0.750000 0.891818 0.000000
O O9 0.500000 0.570415 0.650116
O O10 0.750000 0.500000 0.650903
O O11 0.740404 0.620067 0.600526
O O12 0.500000 0.666014 0.549345
O O13 0.734738 0.750000 0.564936
O O14 0.750000 0.640892 0.500000
O O15 0.196382 0.250000 0.862273
O O16 0.000000 0.150796 0.834308
#
# Coordination Sequence:
#
# PCOD8279907 Si02
#       5
#    16  16  16  16  16
#     4  10  21  37  58  83 109 140 180 224 270 322
#     4  10  20  34  53  76 104 139 176 215 261 315
#     4  11  23  38  56  80 112 147 183 224 271 322
#     4   9  19  36  58  82 107 140 181 222 267 319
#     4   9  19  36  56  78 105 139 178 219 266 317
#
# _framework density 18.854541999999999
#
# number of rings (size 3 to 8) (size 9 to 14) (size 15 to 20)
#    0.000    2.200    0.000    3.000    0.000    6.800 
#    0.000    6.000    0.000    0.000    0.000    0.000 
#    0.000    0.000    0.000    0.000    0.000    0.000 
#
# Total GULP energy -496125.723594 kJ/mol
# GULP energy per Si atom -12403.143090 kJ/mol
# Density = 1.881163 g / cm^3
# Si number density = 18.854542 Si / 1000 Ang^3
#
#
#
# Elastic Constant Matrix: (Units=GPa)
#
#
# Indices 1 2 3 4 5 6 
#
# 1 60.7783 37.9261 44.4026 0.0000 0.0000 0.0000
# 2 37.9261 99.6868 87.5157 0.0000 0.0000 0.0000
# 3 44.4026 87.5157 157.0240 0.0000 0.0000 0.0000
# 4 0.0000 0.0000 0.0000 8.9561 0.0000 0.0000
# 5 0.0000 0.0000 0.0000 0.0000 35.6059 0.0000
# 6 0.0000 0.0000 0.0000 0.0000 0.0000 25.7237
#
#
#
# Elastic Compliance Matrix: (Units=1/GPa)
#
#
# Indices 1 2 3 4 5 6 
#
# 1 0.022316 -0.005777 -0.003091 0.000000 0.000000 0.000000
# 2 -0.005777 0.021138 -0.010147 0.000000 0.000000 0.000000
# 3 -0.003091 -0.010147 0.012898 0.000000 0.000000 0.000000
# 4 0.000000 0.000000 0.000000 0.111656 0.000000 0.000000
# 5 0.000000 0.000000 0.000000 0.000000 0.028085 0.000000
# 6 0.000000 0.000000 0.000000 0.000000 0.000000 0.038875
#
#
# Mechanical properties :
#
#
# Convention : Reuss Voigt Hill
#
# Bulk Modulus (GPa) = 54.57968 73.01978 63.79973
# Shear Modulus (GPa) = 17.91448 23.90013 20.90731
#
# Velocity S-wave (km/s) = 3.08578 3.56421 3.33359
# Velocity P-wave (km/s) = 6.45807 7.46660 6.98057
#
# Compressibility (1/GPa) = 0.01832184
#
# Stress axis : x y z
#
# Youngs Moduli (GPa) = 44.81088 47.30925 77.53182
#
# Poissons Ratio (x) = 0.27329 0.23964
# Poissons Ratio (y) = 0.25886 0.78673
# Poissons Ratio (z) = 0.13850 0.48006
#
# Static dielectric constant tensor:
#      x y z
#    x 3.444030 0.000000 0.000000 
#    y 0.000000 3.474690 0.000000 
#    z 0.000000 0.000000 3.633270 
# 
# 
# High freq. dielectric constant tensor:
#      x y z
#    x 1.735670 0.000000 0.000000 
#    y 0.000000 1.727670 0.000000 
#    z 0.000000 0.000000 1.745250 
# 
# From -- ./inp_files/43198.got.cif
#   From: 2010.03.12/outbox.cif.g09.slc.cpg/sg67_22_cif.got.tgz:43198.got - 2010.04.10 22:41:39.
