data_PCOD8279074
_publ_section_title
;
Structure prediction by ZEFSAII (Michael W. Deem and Ramdas Pophale) SiO2 
 PCOD8279074
Probable space group: C M M A
;
_chemical_formula_sum "Si O2"
_cell_formula_units_Z 88
_cell_length_a 24.971808
_cell_length_b 9.070288
_cell_length_c 25.211612
_cell_angle_alpha 90.000000
_cell_angle_beta 90.000000
_cell_angle_gamma 90.000000
_cell_volume 5710.467694
_symmetry_space_group_name_H-M "C M M A"
_symmetry_group_IT_number 67
_symmetry_cell_setting 'orthorhombic'
loop_
_space_group_symop_operation_xyz
x,y,z
-x,1/2-y,z
x,-y,-z
-x,1/2+y,-z
-x,-y,-z
x,1/2+y,-z
-x,y,z
x,1/2-y,z
1/2+x,1/2+y,z
1/2-x,-y,z
1/2+x,1/2-y,-z
1/2-x,y,-z
1/2-x,1/2-y,-z
1/2+x,y,-z
1/2-x,1/2+y,z
1/2+x,-y,z
loop_
_atom_site_type_symbol
_atom_site_label
_atom_site_fract_x
_atom_site_fract_y
_atom_site_fract_z
Si Si1 0.436303 0.583983 0.050113
Si Si2 0.306830 0.927499 0.445388
Si Si3 0.500000 0.078303 0.444224
Si Si4 0.063640 0.083315 0.165374
Si Si5 0.394910 0.077148 0.379631
Si Si6 0.439530 0.577804 0.732559
O O1 0.500000 0.577115 0.046602
O O2 0.415811 0.750000 0.046038
O O3 0.417865 0.519045 0.107679
O O4 0.410283 0.500000 0.000000
O O5 0.302509 0.750000 0.450426
O O6 0.328381 0.000000 0.500000
O O7 0.250000 0.000000 0.431584
O O8 0.347024 0.973119 0.398912
O O9 0.500000 0.250000 0.455483
O O10 0.448073 0.031833 0.411169
O O11 0.500000 0.000000 0.500000
O O12 0.084030 0.250000 0.171049
O O13 0.000000 0.076180 0.167763
O O14 0.087358 0.991974 0.214764
O O15 0.381365 0.250000 0.387726
O O16 0.403340 0.038399 0.317977
O O17 0.500000 0.518481 0.722927
O O18 0.441536 0.750000 0.741892
#
# Coordination Sequence:
#
# PCOD8279074 Si02
#       6
#    16  16   8  16  16  16
#     4   8  13  20  29  42  62  89 124 168 213 249
#     4  11  22  37  55  73  90 112 141 176 217 261
#     4  10  20  32  46  64  90 118 141 170 211 254
#     4   8  14  23  33  47  70  99 131 171 213 249
#     4  10  19  33  49  67  92 118 144 178 215 255
#     4   9  16  27  42  59  81 111 143 173 208 250
#
# _framework density 15.410296000000001
#
# number of rings (size 3 to 8) (size 9 to 14) (size 15 to 20)
#    0.000    2.727    0.909    3.818    0.000    3.636 
#    0.000    3.636    0.000    0.000    0.000    0.000 
#    0.000    0.000    0.000    0.000    0.000    0.909 
#
# Total GULP energy -545255.791768 kJ/mol
# GULP energy per Si atom -12392.177086 kJ/mol
# Density = 1.537522 g / cm^3
# Si number density = 15.410296 Si / 1000 Ang^3
#
#
#
# Elastic Constant Matrix: (Units=GPa)
#
#
# Indices 1 2 3 4 5 6 
#
# 1 39.7379 27.5670 38.5656 0.0000 0.0000 0.0000
# 2 27.5670 70.0952 62.7299 0.0000 0.0000 0.0000
# 3 38.5656 62.7299 161.5836 0.0000 0.0000 0.0000
# 4 0.0000 0.0000 0.0000 32.1392 0.0000 0.0000
# 5 0.0000 0.0000 0.0000 0.0000 7.3428 0.0000
# 6 0.0000 0.0000 0.0000 0.0000 0.0000 15.4315
#
#
#
# Elastic Compliance Matrix: (Units=1/GPa)
#
#
# Indices 1 2 3 4 5 6 
#
# 1 0.036948 -0.010174 -0.004869 0.000000 0.000000 0.000000
# 2 -0.010174 0.024663 -0.007146 0.000000 0.000000 0.000000
# 3 -0.004869 -0.007146 0.010125 0.000000 0.000000 0.000000
# 4 0.000000 0.000000 0.000000 0.031115 0.000000 0.000000
# 5 0.000000 0.000000 0.000000 0.000000 0.136188 0.000000
# 6 0.000000 0.000000 0.000000 0.000000 0.000000 0.064802
#
#
# Mechanical properties :
#
#
# Convention : Reuss Voigt Hill
#
# Bulk Modulus (GPa) = 36.55221 58.79352 47.67286
# Shear Modulus (GPa) = 13.99235 20.48631 17.23933
#
# Velocity S-wave (km/s) = 3.01655 3.65004 3.34831
# Velocity P-wave (km/s) = 5.99196 7.48322 6.77873
#
# Compressibility (1/GPa) = 0.02735813
#
# Stress axis : x y z
#
# Youngs Moduli (GPa) = 27.06522 40.54674 98.76341
#
# Poissons Ratio (x) = 0.41250 0.48087
# Poissons Ratio (y) = 0.27535 0.70581
# Poissons Ratio (z) = 0.13178 0.28977
#
# Static dielectric constant tensor:
#      x y z
#    x 2.499710 0.000000 0.000000 
#    y 0.000000 2.971280 0.000000 
#    z 0.000000 0.000000 3.363580 
# 
# 
# High freq. dielectric constant tensor:
#      x y z
#    x 1.523720 0.000000 0.000000 
#    y 0.000000 1.589220 0.000000 
#    z 0.000000 0.000000 1.607050 
# 
# From -- ./inp_files/44598.got.cif
#   From: 2010.03.12/outbox.cif.g09.slc.cpg/sg67_23_cif.got.tgz:44598.got - 2010.04.10 22:41:39.
