data_PCOD8279706
_publ_section_title
;
Structure prediction by ZEFSAII (Michael W. Deem and Ramdas Pophale) SiO2 
 PCOD8279706
Probable space group: C M M A
;
_chemical_formula_sum "Si O2"
_cell_formula_units_Z 116
_cell_length_a 8.927803
_cell_length_b 24.678865
_cell_length_c 27.753903
_cell_angle_alpha 90.000000
_cell_angle_beta 90.000000
_cell_angle_gamma 90.000000
_cell_volume 6114.963189
_symmetry_space_group_name_H-M "C M M A"
_symmetry_group_IT_number 67
_symmetry_cell_setting 'orthorhombic'
loop_
_space_group_symop_operation_xyz
x,y,z
-x,1/2-y,z
x,-y,-z
-x,1/2+y,-z
-x,-y,-z
x,1/2+y,-z
-x,y,z
x,1/2-y,z
1/2+x,1/2+y,z
1/2-x,-y,z
1/2+x,1/2-y,-z
1/2-x,y,-z
1/2-x,1/2-y,-z
1/2+x,y,-z
1/2-x,1/2+y,z
1/2+x,-y,z
loop_
_atom_site_type_symbol
_atom_site_label
_atom_site_fract_x
_atom_site_fract_y
_atom_site_fract_z
Si Si1 0.831196 0.891055 0.545576
Si Si2 0.824275 0.554897 0.242882
Si Si3 0.827646 0.657116 0.713160
Si Si4 0.164089 0.190387 0.182277
Si Si5 0.329280 0.098313 0.139719
Si Si6 0.323591 0.311286 0.382382
Si Si7 0.177200 0.058428 0.047116
Si Si8 0.750000 0.500000 0.500000
O O1 0.750000 0.863618 0.500000
O O2 0.748498 0.863706 0.590884
O O3 0.832094 0.957739 0.537532
O O4 0.000000 0.870960 0.548355
O O5 0.750000 0.500000 0.260707
O O6 0.744511 0.599364 0.275255
O O7 0.792410 0.560637 0.185582
O O8 0.000000 0.555949 0.253535
O O9 0.812743 0.693963 0.760448
O O10 0.736218 0.687224 0.671820
O O11 0.000000 0.649328 0.697158
O O12 0.168196 0.250000 0.160350
O O13 0.299446 0.159254 0.156919
O O14 0.000000 0.163522 0.171824
O O15 0.500000 0.091259 0.122434
O O16 0.216504 0.089037 0.095953
O O17 0.500000 0.320678 0.383147
O O18 0.285883 0.250000 0.402635
O O19 0.000000 0.054517 0.040806
O O20 0.250000 0.000000 0.051681
O O21 0.250000 0.087613 0.000000
#
# Coordination Sequence:
#
# PCOD8279706 Si02
#       8
#    16  16  16  16  16  16  16   4
#     4  10  21  39  65  91 117 149 188 232 281 334
#     4  10  20  34  52  76 108 144 184 228 273 327
#     4  10  20  36  57  81 111 148 188 229 278 329
#     4   9  18  33  54  79 106 139 180 225 270 320
#     4  10  20  33  51  76 105 138 176 219 269 322
#     4  11  24  40  59  86 120 154 191 235 283 336
#     4  11  21  34  52  75 104 136 172 214 262 319
#     4   8  22  40  68  92 118 148 186 234 278 332
#
# _framework density 18.969860000000001
#
# number of rings (size 3 to 8) (size 9 to 14) (size 15 to 20)
#    0.414    1.517    0.000    4.759    0.000    5.517 
#    1.241    0.000    0.000    0.414    0.000    0.000 
#    0.000    0.000    0.000    0.000    0.000    0.000 
#
# Total GULP energy -718509.318147 kJ/mol
# GULP energy per Si atom -12388.091692 kJ/mol
# Density = 1.892668 g / cm^3
# Si number density = 18.969860 Si / 1000 Ang^3
#
#
#
# Elastic Constant Matrix: (Units=GPa)
#
#
# Indices 1 2 3 4 5 6 
#
# 1 130.4471 41.6488 41.4268 0.0000 0.0000 0.0000
# 2 41.6488 93.9487 25.2821 0.0000 0.0000 0.0000
# 3 41.4268 25.2821 73.9510 0.0000 0.0000 0.0000
# 4 0.0000 0.0000 0.0000 8.2081 0.0000 0.0000
# 5 0.0000 0.0000 0.0000 0.0000 34.1583 0.0000
# 6 0.0000 0.0000 0.0000 0.0000 0.0000 22.0767
#
#
#
# Elastic Compliance Matrix: (Units=1/GPa)
#
#
# Indices 1 2 3 4 5 6 
#
# 1 0.010164 -0.003275 -0.004574 0.000000 0.000000 0.000000
# 2 -0.003275 0.012778 -0.002534 0.000000 0.000000 0.000000
# 3 -0.004574 -0.002534 0.016951 0.000000 0.000000 0.000000
# 4 0.000000 0.000000 0.000000 0.121831 0.000000 0.000000
# 5 0.000000 0.000000 0.000000 0.000000 0.029275 0.000000
# 6 0.000000 0.000000 0.000000 0.000000 0.000000 0.045297
#
#
# Mechanical properties :
#
#
# Convention : Reuss Voigt Hill
#
# Bulk Modulus (GPa) = 52.28188 57.22913 54.75550
# Shear Modulus (GPa) = 18.97978 25.55456 22.26717
#
# Velocity S-wave (km/s) = 3.16654 3.67429 3.42982
# Velocity P-wave (km/s) = 6.40231 6.94510 6.67922
#
# Compressibility (1/GPa) = 0.01912709
#
# Stress axis : x y z
#
# Youngs Moduli (GPa) = 98.38389 78.26059 58.99281
#
# Poissons Ratio (x) = 0.25630 0.26985
# Poissons Ratio (y) = 0.32221 0.14948
# Poissons Ratio (z) = 0.45004 0.19830
#
# Static dielectric constant tensor:
#      x y z
#    x 3.579180 0.000000 0.000000 
#    y 0.000000 3.373460 0.000000 
#    z 0.000000 0.000000 3.535640 
# 
# 
# High freq. dielectric constant tensor:
#      x y z
#    x 1.750610 0.000000 0.000000 
#    y 0.000000 1.726560 0.000000 
#    z 0.000000 0.000000 1.723740 
# 
# From -- ./inp_files/45450.got.cif
#   From: 2010.03.12/outbox.cif.g09.slc.cpg/sg67_23_cif.got.tgz:45450.got - 2010.04.10 22:41:39.
