data_PCOD8279017
_publ_section_title
;
Structure prediction by ZEFSAII (Michael W. Deem and Ramdas Pophale) SiO2 
 PCOD8279017
Probable space group: C M M A
;
_chemical_formula_sum "Si O2"
_cell_formula_units_Z 80
_cell_length_a 16.701951
_cell_length_b 20.396571
_cell_length_c 12.588039
_cell_angle_alpha 90.000000
_cell_angle_beta 90.000000
_cell_angle_gamma 90.000000
_cell_volume 4288.273206
_symmetry_space_group_name_H-M "C M M A"
_symmetry_group_IT_number 67
_symmetry_cell_setting 'orthorhombic'
loop_
_space_group_symop_operation_xyz
x,y,z
-x,1/2-y,z
x,-y,-z
-x,1/2+y,-z
-x,-y,-z
x,1/2+y,-z
-x,y,z
x,1/2-y,z
1/2+x,1/2+y,z
1/2-x,-y,z
1/2+x,1/2-y,-z
1/2-x,y,-z
1/2-x,1/2-y,-z
1/2+x,y,-z
1/2-x,1/2+y,z
1/2+x,-y,z
loop_
_atom_site_type_symbol
_atom_site_label
_atom_site_fract_x
_atom_site_fract_y
_atom_site_fract_z
Si Si1 0.093239 0.594767 0.804500
Si Si2 0.093960 0.177661 0.386098
Si Si3 0.158395 0.070762 0.535939
Si Si4 0.342828 0.424992 0.017789
Si Si5 0.595839 0.947534 0.762602
O O1 0.131656 0.646187 0.721408
O O2 0.126056 0.522172 0.777984
O O3 0.000000 0.593547 0.786519
O O4 0.113153 0.616367 0.925189
O O5 0.132248 0.250000 0.403884
O O6 0.110603 0.130341 0.484395
O O7 0.000000 0.185346 0.373218
O O8 0.250000 0.075859 0.500000
O O9 0.144071 0.079838 0.661487
O O10 0.122893 0.000000 0.500000
O O11 0.374411 0.405106 0.134953
O O12 0.367483 0.500000 0.000000
O O13 0.250000 0.412160 0.000000
O O14 0.500000 0.941118 0.748655
#
# Coordination Sequence:
#
# PCOD8279017 Si02
#       5
#    16  16  16  16  16
#     4   9  17  31  52  76 106 139 177 222 271 327
#     4  10  21  37  57  79 107 148 190 226 271 330
#     4  11  23  34  55  82 114 146 185 230 282 330
#     4   9  18  28  49  77 111 140 171 218 278 331
#     4  10  19  32  52  80 111 143 179 226 282 331
#
# _framework density 18.655528
#
# number of rings (size 3 to 8) (size 9 to 14) (size 15 to 20)
#    0.000    2.200    2.000    1.200    2.800    5.200 
#    0.000    0.000    0.000    1.800    0.000    2.800 
#    0.000    0.000    0.000    0.000    0.000    0.000 
#
# Total GULP energy -495776.746686 kJ/mol
# GULP energy per Si atom -12394.418667 kJ/mol
# Density = 1.861307 g / cm^3
# Si number density = 18.655528 Si / 1000 Ang^3
#
#
#
# Elastic Constant Matrix: (Units=GPa)
#
#
# Indices 1 2 3 4 5 6 
#
# 1 48.2960 15.5702 39.6745 0.0000 0.0000 0.0000
# 2 15.5702 90.3215 54.2697 0.0000 0.0000 0.0000
# 3 39.6745 54.2697 192.9776 0.0000 0.0000 0.0000
# 4 0.0000 0.0000 0.0000 13.3583 0.0000 0.0000
# 5 0.0000 0.0000 0.0000 0.0000 32.9511 0.0000
# 6 0.0000 0.0000 0.0000 0.0000 0.0000 12.4874
#
#
#
# Elastic Compliance Matrix: (Units=1/GPa)
#
#
# Indices 1 2 3 4 5 6 
#
# 1 0.025075 -0.001474 -0.004741 0.000000 0.000000 0.000000
# 2 -0.001474 0.013409 -0.003468 0.000000 0.000000 0.000000
# 3 -0.004741 -0.003468 0.007132 0.000000 0.000000 0.000000
# 4 0.000000 0.000000 0.000000 0.074860 0.000000 0.000000
# 5 0.000000 0.000000 0.000000 0.000000 0.030348 0.000000
# 6 0.000000 0.000000 0.000000 0.000000 0.000000 0.080081
#
#
# Mechanical properties :
#
#
# Convention : Reuss Voigt Hill
#
# Bulk Modulus (GPa) = 38.09389 61.18044 49.63716
# Shear Modulus (GPa) = 19.30345 26.56474 22.93410
#
# Velocity S-wave (km/s) = 3.22021 3.77763 3.51001
# Velocity P-wave (km/s) = 5.85579 7.20370 6.56444
#
# Compressibility (1/GPa) = 0.02625093
#
# Stress axis : x y z
#
# Youngs Moduli (GPa) = 39.87986 74.57443 140.21585
#
# Poissons Ratio (x) = 0.10994 0.66472
# Poissons Ratio (y) = 0.05879 0.48626
# Poissons Ratio (z) = 0.18906 0.25862
#
# Static dielectric constant tensor:
#      x y z
#    x 3.212260 0.000000 0.000000 
#    y 0.000000 3.321250 0.000000 
#    z 0.000000 0.000000 3.766070 
# 
# 
# High freq. dielectric constant tensor:
#      x y z
#    x 1.713050 0.000000 0.000000 
#    y 0.000000 1.670010 0.000000 
#    z 0.000000 0.000000 1.744930 
# 
# From -- ./inp_files/17926.got.cif
#   From: 2010.03.12/outbox.cif.g09.slc.cpg/sg67_9_cif.got.tgz:17926.got - 2010.04.10 22:41:39.
