data_PCOD8279040
_publ_section_title
;
Structure prediction by ZEFSAII (Michael W. Deem and Ramdas Pophale) SiO2 
 PCOD8279040
Probable space group: C M M A
;
_chemical_formula_sum "Si O2"
_cell_formula_units_Z 96
_cell_length_a 13.706826
_cell_length_b 19.739677
_cell_length_c 15.331006
_cell_angle_alpha 90.000000
_cell_angle_beta 90.000000
_cell_angle_gamma 90.000000
_cell_volume 4148.084506
_symmetry_space_group_name_H-M "C M M A"
_symmetry_group_IT_number 67
_symmetry_cell_setting 'orthorhombic'
loop_
_space_group_symop_operation_xyz
x,y,z
-x,1/2-y,z
x,-y,-z
-x,1/2+y,-z
-x,-y,-z
x,1/2+y,-z
-x,y,z
x,1/2-y,z
1/2+x,1/2+y,z
1/2-x,-y,z
1/2+x,1/2-y,-z
1/2-x,y,-z
1/2-x,1/2-y,-z
1/2+x,y,-z
1/2-x,1/2+y,z
1/2+x,-y,z
loop_
_atom_site_type_symbol
_atom_site_label
_atom_site_fract_x
_atom_site_fract_y
_atom_site_fract_z
Si Si1 0.111952 0.750000 0.348510
Si Si2 0.885233 0.326960 0.947553
Si Si3 0.615154 0.944729 0.066904
Si Si4 0.390131 0.358658 0.678904
Si Si5 0.388701 0.996467 0.252078
Si Si6 0.800499 0.636279 0.234188
Si Si7 0.614566 0.750000 0.460425
O O1 0.133014 0.816158 0.293009
O O2 0.167096 0.750000 0.443932
O O3 0.000000 0.750000 0.371638
O O4 0.852376 0.250000 0.963343
O O5 0.829735 0.359471 0.866000
O O6 0.000000 0.332415 0.928399
O O7 0.854275 0.369929 0.032816
O O8 0.500000 0.951131 0.067910
O O9 0.652588 0.957688 0.165102
O O10 0.659152 0.000000 0.000000
O O11 0.500000 0.336780 0.708491
O O12 0.386266 0.441016 0.669087
O O13 0.311627 0.339590 0.753491
O O14 0.357671 0.318938 0.591776
O O15 0.500000 0.022344 0.237627
O O16 0.318360 0.059869 0.270756
O O17 0.500000 0.750000 0.473717
#
# Coordination Sequence:
#
# PCOD8279040 Si02
#       7
#     8  16  16  16  16  16   8
#     4  11  23  39  68 105 129 150 191 255 326 383
#     4  10  19  32  53  88 132 162 195 252 318 378
#     4   9  16  30  54  83 120 167 204 242 306 376
#     4  10  23  42  61  82 118 170 218 255 293 363
#     4  10  20  37  61  89 123 163 210 257 310 372
#     4  12  21  34  62  96 128 159 202 255 318 373
#     4   9  21  45  67  87 123 166 204 247 308 377
#
# _framework density 23.143212999999999
#
# number of rings (size 3 to 8) (size 9 to 14) (size 15 to 20)
#    0.000    1.833    2.500    2.500    0.000    1.333 
#    1.500    1.667    0.000    7.000    0.000    0.000 
#    0.000    0.000    0.000    0.000    0.000    0.000 
#
# Total GULP energy -594937.472708 kJ/mol
# GULP energy per Si atom -12394.530681 kJ/mol
# Density = 2.309054 g / cm^3
# Si number density = 23.143213 Si / 1000 Ang^3
#
#
#
# Elastic Constant Matrix: (Units=GPa)
#
#
# Indices 1 2 3 4 5 6 
#
# 1 74.8708 7.6022 21.9330 0.0000 0.0000 0.0000
# 2 7.6022 166.4434 52.7933 0.0000 0.0000 0.0000
# 3 21.9330 52.7933 99.8955 0.0000 0.0000 0.0000
# 4 0.0000 0.0000 0.0000 1.8845 0.0000 0.0000
# 5 0.0000 0.0000 0.0000 0.0000 27.3545 0.0000
# 6 0.0000 0.0000 0.0000 0.0000 0.0000 9.5309
#
#
#
# Elastic Compliance Matrix: (Units=1/GPa)
#
#
# Indices 1 2 3 4 5 6 
#
# 1 0.014298 0.000412 -0.003357 0.000000 0.000000 0.000000
# 2 0.000412 0.007230 -0.003911 0.000000 0.000000 0.000000
# 3 -0.003357 -0.003911 0.012815 0.000000 0.000000 0.000000
# 4 0.000000 0.000000 0.000000 0.530652 0.000000 0.000000
# 5 0.000000 0.000000 0.000000 0.000000 0.036557 0.000000
# 6 0.000000 0.000000 0.000000 0.000000 0.000000 0.104922
#
#
# Mechanical properties :
#
#
# Convention : Reuss Voigt Hill
#
# Bulk Modulus (GPa) = 48.47427 56.20742 52.34084
# Shear Modulus (GPa) = 6.87699 25.01271 15.94485
#
# Velocity S-wave (km/s) = 1.72567 3.29109 2.62766
# Velocity P-wave (km/s) = 4.99614 6.22745 5.64547
#
# Compressibility (1/GPa) = 0.02062950
#
# Stress axis : x y z
#
# Youngs Moduli (GPa) = 69.94030 138.31572 78.03651
#
# Poissons Ratio (x) = -0.05694 0.26195
# Poissons Ratio (y) = -0.02879 0.30522
# Poissons Ratio (z) = 0.23478 0.54099
#
# Static dielectric constant tensor:
#      x y z
#    x 4.342630 0.000000 0.000000 
#    y 0.000000 4.434630 0.000000 
#    z 0.000000 0.000000 4.082320 
# 
# 
# High freq. dielectric constant tensor:
#      x y z
#    x 1.939970 0.000000 0.000000 
#    y 0.000000 1.920510 0.000000 
#    z 0.000000 0.000000 1.875050 
# 
# From -- ./inp_files/27281.got.cif
#   From: 2010.03.12/outbox.cif.g09.slc.cpg/sg67_14_cif.got.tgz:27281.got - 2010.04.10 22:41:39.
