data_PCOD8279533
_publ_section_title
;
Structure prediction by ZEFSAII (Michael W. Deem and Ramdas Pophale) SiO2 
 PCOD8279533
Probable space group: C M M A
;
_chemical_formula_sum "Si O2"
_cell_formula_units_Z 96
_cell_length_a 27.429765
_cell_length_b 8.781133
_cell_length_c 23.632885
_cell_angle_alpha 90.000000
_cell_angle_beta 90.000000
_cell_angle_gamma 90.000000
_cell_volume 5692.321011
_symmetry_space_group_name_H-M "C M M A"
_symmetry_group_IT_number 67
_symmetry_cell_setting 'orthorhombic'
loop_
_space_group_symop_operation_xyz
x,y,z
-x,1/2-y,z
x,-y,-z
-x,1/2+y,-z
-x,-y,-z
x,1/2+y,-z
-x,y,z
x,1/2-y,z
1/2+x,1/2+y,z
1/2-x,-y,z
1/2+x,1/2-y,-z
1/2-x,y,-z
1/2-x,1/2-y,-z
1/2+x,y,-z
1/2-x,1/2+y,z
1/2+x,-y,z
loop_
_atom_site_type_symbol
_atom_site_label
_atom_site_fract_x
_atom_site_fract_y
_atom_site_fract_z
Si Si1 0.555382 0.069707 0.557877
Si Si2 0.444136 0.927046 0.218506
Si Si3 0.198516 0.930706 0.939937
Si Si4 0.802248 0.928595 0.272547
Si Si5 0.357657 0.928453 0.840351
Si Si6 0.110830 0.072263 0.331825
O O1 0.500000 0.013084 0.567402
O O2 0.557321 0.250000 0.554133
O O3 0.588006 0.010339 0.609876
O O4 0.576728 0.000000 0.500000
O O5 0.500000 0.976111 0.211629
O O6 0.436294 0.750000 0.204349
O O7 0.427936 0.962899 0.282474
O O8 0.413015 0.027112 0.174605
O O9 0.203212 0.750000 0.944837
O O10 0.250000 0.000000 0.919912
O O11 0.157592 0.975979 0.895024
O O12 0.182923 0.000000 0.000000
O O13 0.797443 0.750000 0.277125
O O14 0.822644 0.977923 0.211273
O O15 0.750000 0.000000 0.282829
O O16 0.838604 0.985800 0.321242
O O17 0.354146 0.750000 0.853358
O O18 0.122514 0.250000 0.335305
#
# Coordination Sequence:
#
# PCOD8279533 Si02
#       6
#    16  16  16  16  16  16
#     4   9  17  29  46  69  96 126 158 192 232 278
#     4   9  17  30  49  72  97 127 162 198 237 282
#     4  11  21  34  52  74 100 129 161 197 238 283
#     4  10  20  32  48  70  96 125 157 194 236 282
#     4  10  20  33  49  72 100 129 161 196 236 282
#     4   9  17  30  48  69  95 126 159 195 235 280
#
# _framework density 16.864826000000001
#
# number of rings (size 3 to 8) (size 9 to 14) (size 15 to 20)
#    0.000    2.333    0.000    4.000    0.000    6.333 
#    0.000    0.000    0.000    4.000    0.000    3.500 
#    0.000    0.000    0.000    0.000    0.000    0.000 
#
# Total GULP energy -595333.806048 kJ/mol
# GULP energy per Si atom -12402.787626 kJ/mol
# Density = 1.682644 g / cm^3
# Si number density = 16.864826 Si / 1000 Ang^3
#
#
#
# Elastic Constant Matrix: (Units=GPa)
#
#
# Indices 1 2 3 4 5 6 
#
# 1 121.6527 40.8902 64.9273 0.0000 0.0000 0.0000
# 2 40.8902 70.0811 44.1682 0.0000 0.0000 0.0000
# 3 64.9273 44.1682 115.1170 0.0000 0.0000 0.0000
# 4 0.0000 0.0000 0.0000 28.0579 0.0000 0.0000
# 5 0.0000 0.0000 0.0000 0.0000 165.8506 0.0000
# 6 0.0000 0.0000 0.0000 0.0000 0.0000 28.3569
#
#
#
# Elastic Compliance Matrix: (Units=1/GPa)
#
#
# Indices 1 2 3 4 5 6 
#
# 1 0.012465 -0.003748 -0.005592 0.000000 0.000000 0.000000
# 2 -0.003748 0.019947 -0.005539 0.000000 0.000000 0.000000
# 3 -0.005592 -0.005539 0.013966 0.000000 0.000000 0.000000
# 4 0.000000 0.000000 0.000000 0.035641 0.000000 0.000000
# 5 0.000000 0.000000 0.000000 0.000000 0.006030 0.000000
# 6 0.000000 0.000000 0.000000 0.000000 0.000000 0.035265
#
#
# Mechanical properties :
#
#
# Convention : Reuss Voigt Hill
#
# Bulk Modulus (GPa) = 60.17322 67.42470 63.79896
# Shear Modulus (GPa) = 31.52354 54.91075 43.21714
#
# Velocity S-wave (km/s) = 4.32810 5.71227 5.06767
# Velocity P-wave (km/s) = 7.79319 9.14182 8.49431
#
# Compressibility (1/GPa) = 0.01661869
#
# Stress axis : x y z
#
# Youngs Moduli (GPa) = 80.22777 50.13195 71.60218
#
# Poissons Ratio (x) = 0.18791 0.40040
# Poissons Ratio (y) = 0.30072 0.39663
# Poissons Ratio (z) = 0.44863 0.27770
#
# Static dielectric constant tensor:
#      x y z
#    x 3.062710 0.000000 0.000000 
#    y 0.000000 3.140250 0.000000 
#    z 0.000000 0.000000 3.158430 
# 
# 
# High freq. dielectric constant tensor:
#      x y z
#    x 1.640600 0.000000 0.000000 
#    y 0.000000 1.654800 0.000000 
#    z 0.000000 0.000000 1.641220 
# 
# From -- ./inp_files/37155.got.cif
#   From: 2010.03.12/outbox.cif.g09.slc.cpg/sg67_19_cif.got.tgz:37155.got - 2010.04.10 22:41:39.
