data_PCOD8279291
_publ_section_title
;
Structure prediction by ZEFSAII (Michael W. Deem and Ramdas Pophale) SiO2 
 PCOD8279291
Probable space group: C M M A
;
_chemical_formula_sum "Si O2"
_cell_formula_units_Z 80
_cell_length_a 18.031080
_cell_length_b 19.564252
_cell_length_c 11.179141
_cell_angle_alpha 90.000000
_cell_angle_beta 90.000000
_cell_angle_gamma 90.000000
_cell_volume 3943.605124
_symmetry_space_group_name_H-M "C M M A"
_symmetry_group_IT_number 67
_symmetry_cell_setting 'orthorhombic'
loop_
_space_group_symop_operation_xyz
x,y,z
-x,1/2-y,z
x,-y,-z
-x,1/2+y,-z
-x,-y,-z
x,1/2+y,-z
-x,y,z
x,1/2-y,z
1/2+x,1/2+y,z
1/2-x,-y,z
1/2+x,1/2-y,-z
1/2-x,y,-z
1/2-x,1/2-y,-z
1/2+x,y,-z
1/2-x,1/2+y,z
1/2+x,-y,z
loop_
_atom_site_type_symbol
_atom_site_label
_atom_site_fract_x
_atom_site_fract_y
_atom_site_fract_z
Si Si1 0.913625 0.881805 0.965152
Si Si2 0.416491 0.750000 0.773981
Si Si3 0.416650 0.538510 0.268289
Si Si4 0.364610 0.891639 0.766990
Si Si5 0.836814 0.250000 0.022599
Si Si6 0.271053 0.078347 0.627536
O O1 0.906099 0.944643 0.872853
O O2 0.000000 0.863856 0.987379
O O3 0.875095 0.899372 0.090963
O O4 0.869160 0.816790 0.909615
O O5 0.500000 0.750000 0.815292
O O6 0.399225 0.822190 0.708063
O O7 0.366981 0.750000 0.889757
O O8 0.500000 0.557575 0.309614
O O9 0.403287 0.458028 0.291715
O O10 0.358941 0.584388 0.344836
O O11 0.277185 0.888457 0.734533
O O12 0.750000 0.250000 0.000000
O O13 0.250000 0.113152 0.500000
O O14 0.250000 0.000000 0.622117
#
# Coordination Sequence:
#
# PCOD8279291 Si02
#       6
#    16   8  16  16   8  16
#     4  10  20  33  52  81 115 145 178 224 273 326
#     4  10  20  34  53  78 110 144 183 226 274 326
#     4  10  20  34  56  83 114 145 180 224 279 332
#     4  10  19  34  57  80 111 145 181 225 276 327
#     4  10  20  30  48  74 113 152 186 209 258 331
#     4   9  20  38  55  77 107 143 186 234 275 321
#
# _framework density 20.286007000000001
#
# number of rings (size 3 to 8) (size 9 to 14) (size 15 to 20)
#    0.000    2.200    0.000    4.500    5.600    1.600 
#    0.000   13.500    0.000    0.000    0.000    0.000 
#    0.000    0.000    0.000    0.000    0.000    0.000 
#
# Total GULP energy -495548.703914 kJ/mol
# GULP energy per Si atom -12388.717598 kJ/mol
# Density = 2.023984 g / cm^3
# Si number density = 20.286007 Si / 1000 Ang^3
#
#
#
# Elastic Constant Matrix: (Units=GPa)
#
#
# Indices 1 2 3 4 5 6 
#
# 1 197.2858 49.1340 63.2257 0.0000 0.0000 0.0000
# 2 49.1340 94.6488 20.5047 0.0000 0.0000 0.0000
# 3 63.2257 20.5047 71.3243 0.0000 0.0000 0.0000
# 4 0.0000 0.0000 0.0000 7.0936 0.0000 0.0000
# 5 0.0000 0.0000 0.0000 0.0000 15.4963 0.0000
# 6 0.0000 0.0000 0.0000 0.0000 0.0000 22.8665
#
#
#
# Elastic Compliance Matrix: (Units=1/GPa)
#
#
# Indices 1 2 3 4 5 6 
#
# 1 0.007666 -0.002674 -0.006027 0.000000 0.000000 0.000000
# 2 -0.002674 0.012200 -0.001137 0.000000 0.000000 0.000000
# 3 -0.006027 -0.001137 0.019690 0.000000 0.000000 0.000000
# 4 0.000000 0.000000 0.000000 0.140971 0.000000 0.000000
# 5 0.000000 0.000000 0.000000 0.000000 0.064531 0.000000
# 6 0.000000 0.000000 0.000000 0.000000 0.000000 0.043732
#
#
# Mechanical properties :
#
#
# Convention : Reuss Voigt Hill
#
# Bulk Modulus (GPa) = 50.30134 69.88751 60.09443
# Shear Modulus (GPa) = 15.86831 24.45093 20.15962
#
# Velocity S-wave (km/s) = 2.79987 3.47552 3.15583
# Velocity P-wave (km/s) = 5.94157 7.11559 6.55492
#
# Compressibility (1/GPa) = 0.01988019
#
# Stress axis : x y z
#
# Youngs Moduli (GPa) = 130.44121 81.96853 50.78719
#
# Poissons Ratio (x) = 0.21919 0.30610
# Poissons Ratio (y) = 0.34880 0.05774
# Poissons Ratio (z) = 0.78618 0.09319
#
# Static dielectric constant tensor:
#      x y z
#    x 3.410800 0.000000 0.000000 
#    y 0.000000 4.925060 0.000000 
#    z 0.000000 0.000000 3.546970 
# 
# 
# High freq. dielectric constant tensor:
#      x y z
#    x 1.806340 0.000000 0.000000 
#    y 0.000000 1.784920 0.000000 
#    z 0.000000 0.000000 1.745010 
# 
# From -- ./inp_files/19380.got.cif
#   From: 2010.03.12/outbox.cif.g09.slc.cpg/sg67_10_cif.got.tgz:19380.got - 2010.04.10 22:41:39.
