data_PCOD8279229
_publ_section_title
;
Structure prediction by ZEFSAII (Michael W. Deem and Ramdas Pophale) SiO2 
 PCOD8279229
Probable space group: C M M A
;
_chemical_formula_sum "Si O2"
_cell_formula_units_Z 96
_cell_length_a 8.881503
_cell_length_b 25.731320
_cell_length_c 23.514742
_cell_angle_alpha 90.000000
_cell_angle_beta 90.000000
_cell_angle_gamma 90.000000
_cell_volume 5373.889731
_symmetry_space_group_name_H-M "C M M A"
_symmetry_group_IT_number 67
_symmetry_cell_setting 'orthorhombic'
loop_
_space_group_symop_operation_xyz
x,y,z
-x,1/2-y,z
x,-y,-z
-x,1/2+y,-z
-x,-y,-z
x,1/2+y,-z
-x,y,z
x,1/2-y,z
1/2+x,1/2+y,z
1/2-x,-y,z
1/2+x,1/2-y,-z
1/2-x,y,-z
1/2-x,1/2-y,-z
1/2+x,y,-z
1/2-x,1/2+y,z
1/2+x,-y,z
loop_
_atom_site_type_symbol
_atom_site_label
_atom_site_fract_x
_atom_site_fract_y
_atom_site_fract_z
Si Si1 0.321906 0.750000 0.129861
Si Si2 0.177537 0.154757 0.677970
Si Si3 0.821505 0.054368 0.872770
Si Si4 0.324235 0.552928 0.742294
Si Si5 0.178541 0.250000 0.257918
Si Si6 0.679748 0.350573 0.938538
Si Si7 0.176067 0.190981 0.556569
O O1 0.500000 0.750000 0.130974
O O2 0.257611 0.750000 0.193737
O O3 0.264007 0.801417 0.098051
O O4 0.232280 0.099621 0.702341
O O5 0.263260 0.199049 0.711417
O O6 0.221664 0.157023 0.611420
O O7 0.000000 0.163557 0.686654
O O8 0.779117 0.065459 0.807177
O O9 0.744834 0.097894 0.910573
O O10 0.000000 0.053479 0.882840
O O11 0.750000 0.000000 0.892325
O O12 0.500000 0.544916 0.736560
O O13 0.250000 0.500000 0.720354
O O14 0.000000 0.250000 0.258970
O O15 0.500000 0.354209 0.942283
O O16 0.750000 0.343464 0.000000
O O17 0.233700 0.250000 0.566317
O O18 0.250000 0.166587 0.500000
O O19 0.000000 0.190261 0.546879
#
# Coordination Sequence:
#
# PCOD8279229 Si02
#       7
#     8  16  16  16   8  16  16
#     4   9  21  38  54  75 107 140 169 205 256 305
#     4  10  19  34  52  75 107 141 172 209 259 311
#     4  10  20  36  56  81 106 133 168 210 260 310
#     4   9  19  34  55  78 104 136 172 211 255 308
#     4  11  21  32  51  81 108 134 168 211 256 303
#     4  11  22  38  57  77 103 136 172 212 253 303
#     4   9  17  30  48  70 101 138 174 212 253 299
#
# _framework density 17.864156000000001
#
# number of rings (size 3 to 8) (size 9 to 14) (size 15 to 20)
#    0.000    2.167    0.833    2.500    0.000    2.333 
#    0.000    5.417    0.000    0.500    0.000    3.500 
#    0.000    0.000    0.000    0.000    0.000    0.000 
#
# Total GULP energy -595279.759247 kJ/mol
# GULP energy per Si atom -12401.661651 kJ/mol
# Density = 1.782350 g / cm^3
# Si number density = 17.864156 Si / 1000 Ang^3
#
#
#
# Elastic Constant Matrix: (Units=GPa)
#
#
# Indices 1 2 3 4 5 6 
#
# 1 54.9063 42.4383 46.0427 0.0000 0.0000 0.0000
# 2 42.4383 121.8491 78.1722 0.0000 0.0000 0.0000
# 3 46.0427 78.1722 146.8357 0.0000 0.0000 0.0000
# 4 0.0000 0.0000 0.0000 19.9160 0.0000 0.0000
# 5 0.0000 0.0000 0.0000 0.0000 28.0977 0.0000
# 6 0.0000 0.0000 0.0000 0.0000 0.0000 23.9801
#
#
#
# Elastic Compliance Matrix: (Units=1/GPa)
#
#
# Indices 1 2 3 4 5 6 
#
# 1 0.027425 -0.006127 -0.005337 0.000000 0.000000 0.000000
# 2 -0.006127 0.013833 -0.005443 0.000000 0.000000 0.000000
# 3 -0.005337 -0.005443 0.011382 0.000000 0.000000 0.000000
# 4 0.000000 0.000000 0.000000 0.050211 0.000000 0.000000
# 5 0.000000 0.000000 0.000000 0.000000 0.035590 0.000000
# 6 0.000000 0.000000 0.000000 0.000000 0.000000 0.041701
#
#
# Mechanical properties :
#
#
# Convention : Reuss Voigt Hill
#
# Bulk Modulus (GPa) = 53.12457 72.98862 63.05660
# Shear Modulus (GPa) = 22.70339 24.86129 23.78234
#
# Velocity S-wave (km/s) = 3.56882 3.73458 3.65264
# Velocity P-wave (km/s) = 6.83993 7.71637 7.29133
#
# Compressibility (1/GPa) = 0.01882368
#
# Stress axis : x y z
#
# Youngs Moduli (GPa) = 36.46363 72.29125 87.86068
#
# Poissons Ratio (x) = 0.44296 0.46894
# Poissons Ratio (y) = 0.22343 0.47822
# Poissons Ratio (z) = 0.19462 0.39348
#
# Static dielectric constant tensor:
#      x y z
#    x 3.243710 0.000000 0.000000 
#    y 0.000000 3.245300 0.000000 
#    z 0.000000 0.000000 3.533170 
# 
# 
# High freq. dielectric constant tensor:
#      x y z
#    x 1.687920 0.000000 0.000000 
#    y 0.000000 1.688000 0.000000 
#    z 0.000000 0.000000 1.696140 
# 
# From -- ./inp_files/40805.got.cif
#   From: 2010.03.12/outbox.cif.g09.slc.cpg/sg67_21_cif.got.tgz:40805.got - 2010.04.10 22:41:39.
