data_PCOD8279959
_publ_section_title
;
Structure prediction by ZEFSAII (Michael W. Deem and Ramdas Pophale) SiO2 
 PCOD8279959
Probable space group: C M M A
;
_chemical_formula_sum "Si O2"
_cell_formula_units_Z 96
_cell_length_a 8.768825
_cell_length_b 18.654541
_cell_length_c 30.792587
_cell_angle_alpha 90.000000
_cell_angle_beta 90.000000
_cell_angle_gamma 90.000000
_cell_volume 5037.002282
_symmetry_space_group_name_H-M "C M M A"
_symmetry_group_IT_number 67
_symmetry_cell_setting 'orthorhombic'
loop_
_space_group_symop_operation_xyz
x,y,z
-x,1/2-y,z
x,-y,-z
-x,1/2+y,-z
-x,-y,-z
x,1/2+y,-z
-x,y,z
x,1/2-y,z
1/2+x,1/2+y,z
1/2-x,-y,z
1/2+x,1/2-y,-z
1/2-x,y,-z
1/2-x,1/2-y,-z
1/2+x,y,-z
1/2-x,1/2+y,z
1/2+x,-y,z
loop_
_atom_site_type_symbol
_atom_site_label
_atom_site_fract_x
_atom_site_fract_y
_atom_site_fract_z
Si Si1 0.677994 0.833415 0.632076
Si Si2 0.671279 0.835159 0.456820
Si Si3 0.326387 0.165427 0.118907
Si Si4 0.820065 0.921859 0.708982
Si Si5 0.178175 0.667454 0.791956
Si Si6 0.320144 0.576233 0.045234
O O1 0.500000 0.848669 0.636781
O O2 0.717183 0.750000 0.639028
O O3 0.731684 0.859756 0.584763
O O4 0.768468 0.878670 0.667076
O O5 0.500000 0.865755 0.453102
O O6 0.667734 0.750000 0.459850
O O7 0.750000 0.867160 0.500000
O O8 0.500000 0.139763 0.112328
O O9 0.310381 0.250000 0.114800
O O10 0.269880 0.140052 0.166100
O O11 0.218621 0.132338 0.082505
O O12 0.764362 0.879545 0.751627
O O13 0.000000 0.928444 0.708082
O O14 0.750000 0.000000 0.709314
O O15 0.216332 0.750000 0.781328
O O16 0.000000 0.656966 0.801240
O O17 0.500000 0.568778 0.039924
O O18 0.250000 0.500000 0.058214
O O19 0.250000 0.604139 0.000000
#
# Coordination Sequence:
#
# PCOD8279959 Si02
#       6
#    16  16  16  16  16  16
#     4  10  20  34  54  80 109 142 181 224 271 323
#     4   9  16  27  46  74 107 140 176 220 268 316
#     4  10  21  37  58  85 115 146 182 224 271 323
#     4  11  23  38  56  79 109 144 182 225 272 323
#     4   9  19  37  59  81 107 142 183 226 274 326
#     4  11  22  38  59  82 112 148 187 229 273 323
#
# _framework density 19.058955000000001
#
# number of rings (size 3 to 8) (size 9 to 14) (size 15 to 20)
#    0.000    2.000    0.000    4.500    0.000    7.000 
#    0.000    3.333    0.000    0.500    0.000    3.500 
#    0.000    0.000    0.000    0.000    0.000    0.000 
#
# Total GULP energy -595374.712274 kJ/mol
# GULP energy per Si atom -12403.639839 kJ/mol
# Density = 1.901558 g / cm^3
# Si number density = 19.058955 Si / 1000 Ang^3
#
#
#
# Elastic Constant Matrix: (Units=GPa)
#
#
# Indices 1 2 3 4 5 6 
#
# 1 103.3805 34.2545 53.3941 0.0000 0.0000 0.0000
# 2 34.2545 56.9330 59.8588 0.0000 0.0000 0.0000
# 3 53.3941 59.8588 156.0593 0.0000 0.0000 0.0000
# 4 0.0000 0.0000 0.0000 -5.5050 0.0000 0.0000
# 5 0.0000 0.0000 0.0000 0.0000 39.2156 0.0000
# 6 0.0000 0.0000 0.0000 0.0000 0.0000 18.0807
#
#
#
# Elastic Compliance Matrix: (Units=1/GPa)
#
#
# Indices 1 2 3 4 5 6 
#
# 1 0.012574 -0.005098 -0.002347 0.000000 0.000000 0.000000
# 2 -0.005098 0.031502 -0.010339 0.000000 0.000000 0.000000
# 3 -0.002347 -0.010339 0.011176 0.000000 0.000000 0.000000
# 4 0.000000 0.000000 0.000000 -0.181653 0.000000 0.000000
# 5 0.000000 0.000000 0.000000 0.000000 0.025500 0.000000
# 6 0.000000 0.000000 0.000000 0.000000 0.000000 0.055308
#
#
# Mechanical properties :
#
#
# Convention : Reuss Voigt Hill
#
# Bulk Modulus (GPa) = 50.79935 67.93194 59.36565
# Shear Modulus (GPa) = -1443.48462 21.61596 -710.93433
#
# Velocity S-wave (km/s) = -27.55037 3.37139 -19.33464
# Velocity P-wave (km/s) = 31.38979 7.13270 21.61531
#
# Compressibility (1/GPa) = 0.01968529
#
# Stress axis : x y z
#
# Youngs Moduli (GPa) = 79.52744 31.74404 89.47520
#
# Poissons Ratio (x) = 0.16184 0.20997
# Poissons Ratio (y) = 0.40545 0.92506
# Poissons Ratio (z) = 0.18662 0.32819
#
# Static dielectric constant tensor:
#      x y z
#    x 3.621340 0.000000 0.000000 
#    y 0.000000 3.273290 0.000000 
#    z 0.000000 0.000000 3.661440 
# 
# 
# High freq. dielectric constant tensor:
#      x y z
#    x 1.755480 0.000000 0.000000 
#    y 0.000000 1.713390 0.000000 
#    z 0.000000 0.000000 1.756870 
# 
# From -- ./inp_files/43449.got.cif
#   From: 2010.03.12/outbox.cif.g09.slc.cpg/sg67_22_cif.got.tgz:43449.got - 2010.04.10 22:41:39.
