data_PCOD8279292
_publ_section_title
;
Structure prediction by ZEFSAII (Michael W. Deem and Ramdas Pophale) SiO2 
 PCOD8279292
Probable space group: C M M A
;
_chemical_formula_sum "Si O2"
_cell_formula_units_Z 80
_cell_length_a 16.365074
_cell_length_b 29.136864
_cell_length_c 7.970247
_cell_angle_alpha 90.000000
_cell_angle_beta 90.000000
_cell_angle_gamma 90.000000
_cell_volume 3800.428452
_symmetry_space_group_name_H-M "C M M A"
_symmetry_group_IT_number 67
_symmetry_cell_setting 'orthorhombic'
loop_
_space_group_symop_operation_xyz
x,y,z
-x,1/2-y,z
x,-y,-z
-x,1/2+y,-z
-x,-y,-z
x,1/2+y,-z
-x,y,z
x,1/2-y,z
1/2+x,1/2+y,z
1/2-x,-y,z
1/2+x,1/2-y,-z
1/2-x,y,-z
1/2-x,1/2-y,-z
1/2+x,y,-z
1/2-x,1/2+y,z
1/2+x,-y,z
loop_
_atom_site_type_symbol
_atom_site_label
_atom_site_fract_x
_atom_site_fract_y
_atom_site_fract_z
Si Si1 0.404944 0.452770 0.586738
Si Si2 0.594606 0.142864 0.066232
Si Si3 0.596087 0.642378 0.567552
Si Si4 0.402313 0.802289 0.250508
Si Si5 0.843047 0.049557 0.052722
O O1 0.379170 0.500000 0.500000
O O2 0.500000 0.452875 0.640309
O O3 0.384957 0.411235 0.461320
O O4 0.349229 0.445297 0.748279
O O5 0.500000 0.154917 0.071661
O O6 0.632903 0.155947 0.249103
O O7 0.634603 0.172352 0.914787
O O8 0.604214 0.088709 0.036365
O O9 0.500000 0.650814 0.570442
O O10 0.633711 0.673403 0.418026
O O11 0.500000 0.806135 0.249795
O O12 0.372413 0.750000 0.248586
O O13 0.750000 0.055343 0.000000
O O14 0.878617 0.000000 0.000000
#
# Coordination Sequence:
#
# PCOD8279292 Si02
#       5
#    16  16  16  16  16
#     4  10  19  34  58  84 110 144 190 241 289 339
#     4  10  19  34  57  81 110 146 189 232 277 337
#     4   9  17  30  50  80 109 138 179 226 276 331
#     4   9  17  30  51  81 115 145 177 231 290 331
#     4  11  23  37  52  79 115 150 189 229 286 346
#
# _framework density 21.050259
#
# number of rings (size 3 to 8) (size 9 to 14) (size 15 to 20)
#    0.000    2.200    2.000    1.800    0.000    4.000 
#    0.000   11.000    0.000    0.600    0.000    1.400 
#    0.000    0.000    0.000    0.000    0.000    0.000 
#
# Total GULP energy -495888.739036 kJ/mol
# GULP energy per Si atom -12397.218476 kJ/mol
# Density = 2.100235 g / cm^3
# Si number density = 21.050259 Si / 1000 Ang^3
#
#
#
# Elastic Constant Matrix: (Units=GPa)
#
#
# Indices 1 2 3 4 5 6 
#
# 1 15.4381 1.9709 20.1442 0.0000 0.0000 0.0000
# 2 1.9709 157.4080 90.0602 0.0000 0.0000 0.0000
# 3 20.1442 90.0602 229.5187 0.0000 0.0000 0.0000
# 4 0.0000 0.0000 0.0000 28.1347 0.0000 0.0000
# 5 0.0000 0.0000 0.0000 0.0000 14.6661 0.0000
# 6 0.0000 0.0000 0.0000 0.0000 0.0000 8.0318
#
#
#
# Elastic Compliance Matrix: (Units=1/GPa)
#
#
# Indices 1 2 3 4 5 6 
#
# 1 0.074729 0.003632 -0.007984 0.000000 0.000000 0.000000
# 2 0.003632 0.008369 -0.003603 0.000000 0.000000 0.000000
# 3 -0.007984 -0.003603 0.006471 0.000000 0.000000 0.000000
# 4 0.000000 0.000000 0.000000 0.035543 0.000000 0.000000
# 5 0.000000 0.000000 0.000000 0.000000 0.068185 0.000000
# 6 0.000000 0.000000 0.000000 0.000000 0.000000 0.124505
#
#
# Mechanical properties :
#
#
# Convention : Reuss Voigt Hill
#
# Bulk Modulus (GPa) = 13.57586 69.63505 41.60545
# Shear Modulus (GPa) = 13.95620 29.51248 21.73434
#
# Velocity S-wave (km/s) = 2.57766 3.74839 3.21674
# Velocity P-wave (km/s) = 3.91438 7.20320 5.79692
#
# Compressibility (1/GPa) = 0.07366015
#
# Stress axis : x y z
#
# Youngs Moduli (GPa) = 13.38173 119.49419 154.52928
#
# Poissons Ratio (x) = -0.43404 1.23376
# Poissons Ratio (y) = -0.04861 0.55670
# Poissons Ratio (z) = 0.10684 0.43048
#
# Static dielectric constant tensor:
#      x y z
#    x 3.114130 0.000000 0.000000 
#    y 0.000000 3.895170 0.000000 
#    z 0.000000 0.000000 4.309380 
# 
# 
# High freq. dielectric constant tensor:
#      x y z
#    x 1.761630 0.000000 0.000000 
#    y 0.000000 1.823780 0.000000 
#    z 0.000000 0.000000 1.847060 
# 
# From -- ./inp_files/9957.got.cif
#   From: 2010.03.12/outbox.cif.g09.slc.cpg/sg67_5_cif.got.tgz:9957.got - 2010.04.10 22:41:39.
