data_PCOD8279645
_publ_section_title
;
Structure prediction by ZEFSAII (Michael W. Deem and Ramdas Pophale) SiO2 
 PCOD8279645
Probable space group: C M M A
;
_chemical_formula_sum "Si O2"
_cell_formula_units_Z 96
_cell_length_a 19.455072
_cell_length_b 8.969974
_cell_length_c 30.193330
_cell_angle_alpha 90.000000
_cell_angle_beta 90.000000
_cell_angle_gamma 90.000000
_cell_volume 5269.083007
_symmetry_space_group_name_H-M "C M M A"
_symmetry_group_IT_number 67
_symmetry_cell_setting 'orthorhombic'
loop_
_space_group_symop_operation_xyz
x,y,z
-x,1/2-y,z
x,-y,-z
-x,1/2+y,-z
-x,-y,-z
x,1/2+y,-z
-x,y,z
x,1/2-y,z
1/2+x,1/2+y,z
1/2-x,-y,z
1/2+x,1/2-y,-z
1/2-x,y,-z
1/2-x,1/2-y,-z
1/2+x,y,-z
1/2-x,1/2+y,z
1/2+x,-y,z
loop_
_atom_site_type_symbol
_atom_site_label
_atom_site_fract_x
_atom_site_fract_y
_atom_site_fract_z
Si Si1 0.419156 0.577307 0.719577
Si Si2 0.679721 0.423651 0.888843
Si Si3 0.580648 0.577332 0.954908
Si Si4 0.820169 0.923354 0.785511
Si Si5 0.418188 0.581901 0.369109
Si Si6 0.418011 0.081708 0.456252
O O1 0.500000 0.552351 0.724931
O O2 0.399294 0.750000 0.719724
O O3 0.384121 0.495568 0.760562
O O4 0.391846 0.507195 0.673750
O O5 0.683484 0.250000 0.900430
O O6 0.750000 0.500000 0.904939
O O7 0.616379 0.498765 0.913624
O O8 0.667409 0.452237 0.837167
O O9 0.500000 0.554535 0.948131
O O10 0.601204 0.750000 0.956826
O O11 0.605984 0.500000 0.000000
O O12 0.815609 0.750000 0.774069
O O13 0.750000 0.000000 0.769387
O O14 0.500000 0.581480 0.370497
O O15 0.389615 0.750000 0.367171
O O16 0.388992 0.502610 0.413065
O O17 0.500000 0.080318 0.456018
O O18 0.390018 0.250000 0.455920
O O19 0.389746 0.000000 0.500000
#
# Coordination Sequence:
#
# PCOD8279645 Si02
#       6
#    16  16  16  16  16  16
#     4  10  20  33  50  73 101 133 169 209 253 303
#     4  10  21  37  57  80 106 136 172 213 256 303
#     4  10  21  37  57  81 110 142 175 212 254 300
#     4  10  21  37  56  77 103 135 170 211 257 304
#     4   9  16  26  40  59  86 120 158 201 248 297
#     4   9  15  22  33  51  78 114 155 196 241 295
#
# _framework density 18.219488999999999
#
# number of rings (size 3 to 8) (size 9 to 14) (size 15 to 20)
#    0.000    2.333    0.000    3.000    0.000    9.000 
#    0.000    5.000    0.000    0.000    0.000    0.000 
#    0.000    0.667    0.000    6.667    0.000   10.333 
#
# Total GULP energy -595347.588745 kJ/mol
# GULP energy per Si atom -12403.074766 kJ/mol
# Density = 1.817802 g / cm^3
# Si number density = 18.219489 Si / 1000 Ang^3
#
#
#
# Elastic Constant Matrix: (Units=GPa)
#
#
# Indices 1 2 3 4 5 6 
#
# 1 38.8157 44.9874 44.1794 0.0000 0.0000 0.0000
# 2 44.9874 169.4090 79.1820 0.0000 0.0000 0.0000
# 3 44.1794 79.1820 105.2221 0.0000 0.0000 0.0000
# 4 0.0000 0.0000 0.0000 40.9265 0.0000 0.0000
# 5 0.0000 0.0000 0.0000 0.0000 4.6671 0.0000
# 6 0.0000 0.0000 0.0000 0.0000 0.0000 26.8183
#
#
#
# Elastic Compliance Matrix: (Units=1/GPa)
#
#
# Indices 1 2 3 4 5 6 
#
# 1 0.052601 -0.005624 -0.017854 0.000000 0.000000 0.000000
# 2 -0.005624 0.009707 -0.004943 0.000000 0.000000 0.000000
# 3 -0.017854 -0.004943 0.020720 0.000000 0.000000 0.000000
# 4 0.000000 0.000000 0.000000 0.024434 0.000000 0.000000
# 5 0.000000 0.000000 0.000000 0.000000 0.214265 0.000000
# 6 0.000000 0.000000 0.000000 0.000000 0.000000 0.037288
#
#
# Mechanical properties :
#
#
# Convention : Reuss Voigt Hill
#
# Bulk Modulus (GPa) = 38.18749 72.23827 55.21288
# Shear Modulus (GPa) = 11.77620 24.15559 17.96590
#
# Velocity S-wave (km/s) = 2.54510 3.64512 3.14360
# Velocity P-wave (km/s) = 5.44444 7.57963 6.59897
#
# Compressibility (1/GPa) = 0.02618659
#
# Stress axis : x y z
#
# Youngs Moduli (GPa) = 19.01089 103.02018 48.26287
#
# Poissons Ratio (x) = 0.57936 0.86167
# Poissons Ratio (y) = 0.10691 0.23858
# Poissons Ratio (z) = 0.33941 0.50927
#
# Static dielectric constant tensor:
#      x y z
#    x 2.929850 0.000000 0.000000 
#    y 0.000000 3.617410 0.000000 
#    z 0.000000 0.000000 3.446280 
# 
# 
# High freq. dielectric constant tensor:
#      x y z
#    x 1.658810 0.000000 0.000000 
#    y 0.000000 1.729050 0.000000 
#    z 0.000000 0.000000 1.716040 
# 
# From -- ./inp_files/43481.got.cif
#   From: 2010.03.12/outbox.cif.g09.slc.cpg/sg67_22_cif.got.tgz:43481.got - 2010.04.10 22:41:39.
