data_PCOD8279877
_publ_section_title
;
Structure prediction by ZEFSAII (Michael W. Deem and Ramdas Pophale) SiO2 
 PCOD8279877
Probable space group: C M M A
;
_chemical_formula_sum "Si O2"
_cell_formula_units_Z 112
_cell_length_a 19.212387
_cell_length_b 19.707611
_cell_length_c 15.222307
_cell_angle_alpha 90.000000
_cell_angle_beta 90.000000
_cell_angle_gamma 90.000000
_cell_volume 5763.625896
_symmetry_space_group_name_H-M "C M M A"
_symmetry_group_IT_number 67
_symmetry_cell_setting 'orthorhombic'
loop_
_space_group_symop_operation_xyz
x,y,z
-x,1/2-y,z
x,-y,-z
-x,1/2+y,-z
-x,-y,-z
x,1/2+y,-z
-x,y,z
x,1/2-y,z
1/2+x,1/2+y,z
1/2-x,-y,z
1/2+x,1/2-y,-z
1/2-x,y,-z
1/2-x,1/2-y,-z
1/2+x,y,-z
1/2-x,1/2+y,z
1/2+x,-y,z
loop_
_atom_site_type_symbol
_atom_site_label
_atom_site_fract_x
_atom_site_fract_y
_atom_site_fract_z
Si Si1 0.262667 0.171393 0.732481
Si Si2 0.796557 0.173711 0.074829
Si Si3 0.923463 0.108591 0.013224
Si Si4 0.680083 0.044284 0.295357
Si Si5 0.677557 0.328479 0.546609
Si Si6 0.078808 0.015183 0.857670
Si Si7 0.077338 0.069062 0.548569
O O1 0.238444 0.250000 0.733373
O O2 0.294612 0.145734 0.825452
O O3 0.196302 0.123631 0.719056
O O4 0.316808 0.160134 0.652103
O O5 0.769437 0.250000 0.080440
O O6 0.874419 0.170781 0.038367
O O7 0.750000 0.134710 0.000000
O O8 0.000000 0.137125 0.028105
O O9 0.907046 0.046615 0.077574
O O10 0.913491 0.084726 0.912873
O O11 0.638803 0.011991 0.214350
O O12 0.627127 0.044884 0.374453
O O13 0.750000 0.000000 0.314024
O O14 0.661333 0.250000 0.524641
O O15 0.750000 0.350388 0.500000
O O16 0.614330 0.373729 0.511210
O O17 0.000000 0.011209 0.818212
O O18 0.000000 0.096397 0.577942
O O19 0.063546 0.000000 0.500000
#
# Coordination Sequence:
#
# PCOD8279877 Si02
#       7
#    16  16  16  16  16  16  16
#     4  10  21  36  56  84 113 145 190 235 283 333
#     4  10  20  34  52  79 115 145 175 226 281 333
#     4   9  18  34  54  74 103 146 187 226 278 334
#     4  12  22  34  59  86 109 148 193 235 284 352
#     4  10  20  39  64  85 109 150 200 243 282 340
#     4   9  19  35  53  76 108 142 183 237 285 331
#     4  11  25  40  56  85 121 152 184 238 301 351
#
# _framework density 19.432212
#
# number of rings (size 3 to 8) (size 9 to 14) (size 15 to 20)
#    0.000    1.857    1.429    3.857    0.000    0.571 
#    0.000    3.571    0.000    4.714    0.000    0.000 
#    0.000    0.000    0.000    0.000    0.000    0.000 
#
# Total GULP energy -693867.242906 kJ/mol
# GULP energy per Si atom -12390.486480 kJ/mol
# Density = 1.938798 g / cm^3
# Si number density = 19.432212 Si / 1000 Ang^3
#
#
#
# Elastic Constant Matrix: (Units=GPa)
#
#
# Indices 1 2 3 4 5 6 
#
# 1 145.2701 39.6436 69.7961 0.0000 0.0000 0.0000
# 2 39.6436 55.3062 22.5107 0.0000 0.0000 0.0000
# 3 69.7961 22.5107 129.6200 0.0000 0.0000 0.0000
# 4 0.0000 0.0000 0.0000 17.7071 0.0000 0.0000
# 5 0.0000 0.0000 0.0000 0.0000 24.2376 0.0000
# 6 0.0000 0.0000 0.0000 0.0000 0.0000 73.1786
#
#
#
# Elastic Compliance Matrix: (Units=1/GPa)
#
#
# Indices 1 2 3 4 5 6 
#
# 1 0.010759 -0.005761 -0.004793 0.000000 0.000000 0.000000
# 2 -0.005761 0.022541 -0.000813 0.000000 0.000000 0.000000
# 3 -0.004793 -0.000813 0.010437 0.000000 0.000000 0.000000
# 4 0.000000 0.000000 0.000000 0.056475 0.000000 0.000000
# 5 0.000000 0.000000 0.000000 0.000000 0.041258 0.000000
# 6 0.000000 0.000000 0.000000 0.000000 0.000000 0.013665
#
#
# Mechanical properties :
#
#
# Convention : Reuss Voigt Hill
#
# Bulk Modulus (GPa) = 47.60968 66.01081 56.81025
# Shear Modulus (GPa) = 27.04625 36.24104 31.64364
#
# Velocity S-wave (km/s) = 3.73477 4.32325 4.03974
# Velocity P-wave (km/s) = 6.56898 7.67881 7.14548
#
# Compressibility (1/GPa) = 0.02100413
#
# Stress axis : x y z
#
# Youngs Moduli (GPa) = 92.94939 44.36274 95.81630
#
# Poissons Ratio (x) = 0.25558 0.45921
# Poissons Ratio (y) = 0.53549 0.07786
# Poissons Ratio (z) = 0.44547 0.03605
#
# Static dielectric constant tensor:
#      x y z
#    x 3.542940 0.000000 0.000000 
#    y 0.000000 3.429340 0.000000 
#    z 0.000000 0.000000 3.871290 
# 
# 
# High freq. dielectric constant tensor:
#      x y z
#    x 1.749730 0.000000 0.000000 
#    y 0.000000 1.746280 0.000000 
#    z 0.000000 0.000000 1.767710 
# 
# From -- ./inp_files/27489.got.cif
#   From: 2010.03.12/outbox.cif.g09.slc.cpg/sg67_14_cif.got.tgz:27489.got - 2010.04.10 22:41:39.
