data_PCOD8279566
_publ_section_title
;
Structure prediction by ZEFSAII (Michael W. Deem and Ramdas Pophale) SiO2 
 PCOD8279566
Probable space group: C M M A
;
_chemical_formula_sum "Si O2"
_cell_formula_units_Z 112
_cell_length_a 16.952180
_cell_length_b 14.563422
_cell_length_c 24.039898
_cell_angle_alpha 90.000000
_cell_angle_beta 90.000000
_cell_angle_gamma 90.000000
_cell_volume 5935.012116
_symmetry_space_group_name_H-M "C M M A"
_symmetry_group_IT_number 67
_symmetry_cell_setting 'orthorhombic'
loop_
_space_group_symop_operation_xyz
x,y,z
-x,1/2-y,z
x,-y,-z
-x,1/2+y,-z
-x,-y,-z
x,1/2+y,-z
-x,y,z
x,1/2-y,z
1/2+x,1/2+y,z
1/2-x,-y,z
1/2+x,1/2-y,-z
1/2-x,y,-z
1/2-x,1/2-y,-z
1/2+x,y,-z
1/2-x,1/2+y,z
1/2+x,-y,z
loop_
_atom_site_type_symbol
_atom_site_label
_atom_site_fract_x
_atom_site_fract_y
_atom_site_fract_z
Si Si1 0.407226 0.002821 0.936090
Si Si2 0.349427 0.855591 0.853513
Si Si3 0.405845 0.500048 0.354852
Si Si4 0.093852 0.148272 0.438934
Si Si5 0.337473 0.855665 0.146153
Si Si6 0.906129 0.648252 0.438702
Si Si7 0.593317 0.503040 0.229647
O O1 0.500000 0.014084 0.928191
O O2 0.380096 0.907317 0.908473
O O3 0.366666 0.091759 0.908848
O O4 0.381579 0.000000 0.000000
O O5 0.379394 0.750000 0.853809
O O6 0.255971 0.859906 0.852225
O O7 0.382935 0.907746 0.799586
O O8 0.500000 0.499302 0.353411
O O9 0.372588 0.587189 0.388785
O O10 0.372269 0.412878 0.388643
O O11 0.372834 0.500271 0.292289
O O12 0.127420 0.250000 0.429599
O O13 0.120292 0.111753 0.500106
O O14 0.000000 0.148291 0.436736
O O15 0.367250 0.750000 0.145452
O O16 0.370342 0.907685 0.200186
O O17 0.872626 0.750000 0.429374
O O18 0.000000 0.648175 0.436493
O O19 0.500000 0.513746 0.228107
#
# Coordination Sequence:
#
# PCOD8279566 Si02
#       7
#    16  16  16  16  16  16  16
#     4  10  21  36  56  84 113 136 161 199 246 294
#     4  10  21  37  56  75  99 136 176 210 245 287
#     4   9  16  24  36  58  87 119 155 194 240 293
#     4   8  13  21  33  50  77 116 156 190 230 287
#     4  10  21  37  56  75  99 136 176 210 245 287
#     4   8  13  21  33  50  77 116 156 190 230 287
#     4  10  20  32  49  74 102 132 166 209 258 302
#
# _framework density 18.871065000000002
#
# number of rings (size 3 to 8) (size 9 to 14) (size 15 to 20)
#    0.000    2.714    0.000    4.714    0.000    6.857 
#    0.000    5.714    0.000    0.000    0.000    0.000 
#    0.000    9.143    0.000   25.143    0.000   20.571 
#
# Total GULP energy -694094.264278 kJ/mol
# GULP energy per Si atom -12394.540434 kJ/mol
# Density = 1.882811 g / cm^3
# Si number density = 18.871065 Si / 1000 Ang^3
#
#
#
# Elastic Constant Matrix: (Units=GPa)
#
#
# Indices 1 2 3 4 5 6 
#
# 1 22.8714 2.2036 16.0343 0.0000 0.0000 0.0000
# 2 2.2036 139.3249 86.6427 0.0000 0.0000 0.0000
# 3 16.0343 86.6427 194.4443 0.0000 0.0000 0.0000
# 4 0.0000 0.0000 0.0000 9.7044 0.0000 0.0000
# 5 0.0000 0.0000 0.0000 0.0000 -4.5349 0.0000
# 6 0.0000 0.0000 0.0000 0.0000 0.0000 18.8088
#
#
#
# Elastic Compliance Matrix: (Units=1/GPa)
#
#
# Indices 1 2 3 4 5 6 
#
# 1 0.046934 0.002303 -0.004896 0.000000 0.000000 0.000000
# 2 0.002303 0.010042 -0.004664 0.000000 0.000000 0.000000
# 3 -0.004896 -0.004664 0.007625 0.000000 0.000000 0.000000
# 4 0.000000 0.000000 0.000000 0.103046 0.000000 0.000000
# 5 0.000000 0.000000 0.000000 0.000000 -0.220511 0.000000
# 6 0.000000 0.000000 0.000000 0.000000 0.000000 0.053166
#
#
# Mechanical properties :
#
#
# Convention : Reuss Voigt Hill
#
# Bulk Modulus (GPa) = 19.96642 62.93353 41.44998
# Shear Modulus (GPa) = 158.66981 21.57967 90.12474
#
# Velocity S-wave (km/s) = 9.17952 3.38528 6.91823
# Velocity P-wave (km/s) = 11.08850 6.97867 9.26436
#
# Compressibility (1/GPa) = 0.05008408
#
# Stress axis : x y z
#
# Youngs Moduli (GPa) = 21.30674 99.58473 131.14731
#
# Poissons Ratio (x) = -0.22929 0.64213
# Poissons Ratio (y) = -0.04906 0.61172
# Poissons Ratio (z) = 0.10432 0.46450
#
# Static dielectric constant tensor:
#      x y z
#    x 3.069090 0.000000 0.000000 
#    y 0.000000 3.796800 0.000000 
#    z 0.000000 0.000000 3.740750 
# 
# 
# High freq. dielectric constant tensor:
#      x y z
#    x 1.697140 0.000000 0.000000 
#    y 0.000000 1.740310 0.000000 
#    z 0.000000 0.000000 1.738850 
# 
# From -- ./inp_files/42004.got.cif
#   From: 2010.03.12/outbox.cif.g09.slc.cpg/sg67_22_cif.got.tgz:42004.got - 2010.04.10 22:41:39.
