data_PCOD8279253
_publ_section_title
;
Structure prediction by ZEFSAII (Michael W. Deem and Ramdas Pophale) SiO2 
 PCOD8279253
Probable space group: C M M A
;
_chemical_formula_sum "Si O2"
_cell_formula_units_Z 80
_cell_length_a 24.712859
_cell_length_b 15.555157
_cell_length_c 10.423986
_cell_angle_alpha 90.000000
_cell_angle_beta 90.000000
_cell_angle_gamma 90.000000
_cell_volume 4007.109493
_symmetry_space_group_name_H-M "C M M A"
_symmetry_group_IT_number 67
_symmetry_cell_setting 'orthorhombic'
loop_
_space_group_symop_operation_xyz
x,y,z
-x,1/2-y,z
x,-y,-z
-x,1/2+y,-z
-x,-y,-z
x,1/2+y,-z
-x,y,z
x,1/2-y,z
1/2+x,1/2+y,z
1/2-x,-y,z
1/2+x,1/2-y,-z
1/2-x,y,-z
1/2-x,1/2-y,-z
1/2+x,y,-z
1/2-x,1/2+y,z
1/2+x,-y,z
loop_
_atom_site_type_symbol
_atom_site_label
_atom_site_fract_x
_atom_site_fract_y
_atom_site_fract_z
Si Si1 0.000000 0.398866 0.016979
Si Si2 0.115610 0.149629 0.037041
Si Si3 0.775311 0.593922 0.870854
Si Si4 0.722036 0.151996 0.376540
Si Si5 0.614709 0.853131 0.742727
Si Si6 0.500000 0.653223 0.730762
O O1 0.944773 0.371580 0.090917
O O2 0.000000 0.345730 0.885137
O O3 0.000000 0.500000 0.000000
O O4 0.128524 0.250000 0.053596
O O5 0.121423 0.117916 0.889976
O O6 0.159486 0.094594 0.117646
O O7 0.750000 0.500000 0.852455
O O8 0.760760 0.649320 0.746499
O O9 0.750000 0.636526 0.000000
O O10 0.710606 0.250000 0.413974
O O11 0.750000 0.105854 0.500000
O O12 0.663986 0.108536 0.341758
O O13 0.614062 0.750000 0.739550
O O14 0.557040 0.889978 0.686570
O O15 0.500000 0.750000 0.679763
#
# Coordination Sequence:
#
# PCOD8279253 Si02
#       6
#     8  16  16  16  16   8
#     4  10  20  28  48  77 114 142 177 232 284 326
#     4  10  19  34  55  77 108 148 188 228 279 336
#     4  11  23  34  54  80 113 142 182 232 284 339
#     4  10  20  34  52  75 105 144 187 227 274 336
#     4   8  14  26  46  71  98 129 174 225 263 310
#     4   8  14  26  44  67  96 135 179 218 263 317
#
# _framework density 19.964514999999999
#
# number of rings (size 3 to 8) (size 9 to 14) (size 15 to 20)
#    0.000    2.400    2.000    2.700    2.800    1.200 
#    0.000    0.000    0.000    1.200    0.000    4.200 
#    0.000    6.800    0.000    0.000    0.000    0.000 
#
# Total GULP energy -495541.274321 kJ/mol
# GULP energy per Si atom -12388.531858 kJ/mol
# Density = 1.991908 g / cm^3
# Si number density = 19.964515 Si / 1000 Ang^3
#
#
#
# Elastic Constant Matrix: (Units=GPa)
#
#
# Indices 1 2 3 4 5 6 
#
# 1 239.1065 18.8703 58.8028 0.0000 0.0000 0.0000
# 2 18.8703 44.9535 -1.0901 0.0000 0.0000 0.0000
# 3 58.8028 -1.0901 84.0703 0.0000 0.0000 0.0000
# 4 0.0000 0.0000 0.0000 9.3858 0.0000 0.0000
# 5 0.0000 0.0000 0.0000 0.0000 20.8722 0.0000
# 6 0.0000 0.0000 0.0000 0.0000 0.0000 22.5075
#
#
#
# Elastic Compliance Matrix: (Units=1/GPa)
#
#
# Indices 1 2 3 4 5 6 
#
# 1 0.005280 -0.002307 -0.003723 0.000000 0.000000 0.000000
# 2 -0.002307 0.023260 0.001915 0.000000 0.000000 0.000000
# 3 -0.003723 0.001915 0.014524 0.000000 0.000000 0.000000
# 4 0.000000 0.000000 0.000000 0.106544 0.000000 0.000000
# 5 0.000000 0.000000 0.000000 0.000000 0.047911 0.000000
# 6 0.000000 0.000000 0.000000 0.000000 0.000000 0.044430
#
#
# Mechanical properties :
#
#
# Convention : Reuss Voigt Hill
#
# Bulk Modulus (GPa) = 28.70735 57.92179 43.31457
# Shear Modulus (GPa) = 19.09939 29.98958 24.54448
#
# Velocity S-wave (km/s) = 3.09636 3.87996 3.51009
# Velocity P-wave (km/s) = 5.21475 7.01052 6.17823
#
# Compressibility (1/GPa) = 0.03483428
#
# Stress axis : x y z
#
# Youngs Moduli (GPa) = 189.40004 42.99244 68.85350
#
# Poissons Ratio (x) = 0.09917 0.25633
# Poissons Ratio (y) = 0.43687 -0.13185
# Poissons Ratio (z) = 0.70511 -0.08233
#
# Static dielectric constant tensor:
#      x y z
#    x 4.427710 0.000000 0.000000 
#    y 0.000000 3.189210 0.000000 
#    z 0.000000 0.000000 3.333890 
# 
# 
# High freq. dielectric constant tensor:
#      x y z
#    x 1.811300 0.000000 0.000000 
#    y 0.000000 1.744440 0.000000 
#    z 0.000000 0.000000 1.715120 
# 
# From -- ./inp_files/21662.got.cif
#   From: 2010.03.12/outbox.cif.g09.slc.cpg/sg67_11_cif.got.tgz:21662.got - 2010.04.10 22:41:39.
