data_PCOD8279097
_publ_section_title
;
Structure prediction by ZEFSAII (Michael W. Deem and Ramdas Pophale) SiO2 
 PCOD8279097
Probable space group: C M M A
;
_chemical_formula_sum "Si O2"
_cell_formula_units_Z 80
_cell_length_a 19.775888
_cell_length_b 8.699202
_cell_length_c 25.701763
_cell_angle_alpha 90.000000
_cell_angle_beta 90.000000
_cell_angle_gamma 90.000000
_cell_volume 4421.588519
_symmetry_space_group_name_H-M "C M M A"
_symmetry_group_IT_number 67
_symmetry_cell_setting 'orthorhombic'
loop_
_space_group_symop_operation_xyz
x,y,z
-x,1/2-y,z
x,-y,-z
-x,1/2+y,-z
-x,-y,-z
x,1/2+y,-z
-x,y,z
x,1/2-y,z
1/2+x,1/2+y,z
1/2-x,-y,z
1/2+x,1/2-y,-z
1/2-x,y,-z
1/2-x,1/2-y,-z
1/2+x,y,-z
1/2-x,1/2+y,z
1/2+x,-y,z
loop_
_atom_site_type_symbol
_atom_site_label
_atom_site_fract_x
_atom_site_fract_y
_atom_site_fract_z
Si Si1 0.321910 0.066754 0.750749
Si Si2 0.924636 0.433573 0.336578
Si Si3 0.421286 0.071352 0.944549
Si Si4 0.580437 0.581141 0.449427
Si Si5 0.177768 0.067688 0.861635
O O1 0.318886 0.250000 0.754120
O O2 0.374831 0.006506 0.707992
O O3 0.250000 0.000000 0.733907
O O4 0.344487 0.000560 0.806222
O O5 0.924910 0.250000 0.339460
O O6 0.901410 0.497664 0.393609
O O7 0.000000 0.493109 0.323101
O O8 0.500000 0.048356 0.931586
O O9 0.401048 0.250000 0.944172
O O10 0.379244 0.978886 0.902221
O O11 0.402893 0.000000 0.000000
O O12 0.612416 0.500000 0.500000
O O13 0.500000 0.587443 0.454202
O O14 0.612004 0.750000 0.450224
O O15 0.183862 0.250000 0.857763
O O16 0.250000 0.000000 0.879251
#
# Coordination Sequence:
#
# PCOD8279097 Si02
#       5
#    16  16  16  16  16
#     4  10  19  33  52  72  97 130 166 204 250 300
#     4   8  15  28  47  70  94 123 161 201 241 291
#     4  10  21  38  59  83 111 141 172 207 251 301
#     4   8  13  23  40  63  90 118 150 191 239 288
#     4  11  22  37  56  78 105 136 174 215 255 300
#
# _framework density 18.093046000000001
#
# number of rings (size 3 to 8) (size 9 to 14) (size 15 to 20)
#    0.000    2.600    0.000    5.400    0.000    2.400 
#    0.000    6.000    0.000    4.800    0.000    4.200 
#    0.000    0.000    0.000    0.000    0.000    0.000 
#
# Total GULP energy -495806.423106 kJ/mol
# GULP energy per Si atom -12395.160578 kJ/mol
# Density = 1.805187 g / cm^3
# Si number density = 18.093046 Si / 1000 Ang^3
#
#
#
# Elastic Constant Matrix: (Units=GPa)
#
#
# Indices 1 2 3 4 5 6 
#
# 1 79.7213 32.9147 86.3666 0.0000 0.0000 0.0000
# 2 32.9147 92.0045 48.9523 0.0000 0.0000 0.0000
# 3 86.3666 48.9523 158.9939 0.0000 0.0000 0.0000
# 4 0.0000 0.0000 0.0000 29.6242 0.0000 0.0000
# 5 0.0000 0.0000 0.0000 0.0000 -9.3722 0.0000
# 6 0.0000 0.0000 0.0000 0.0000 0.0000 22.5061
#
#
#
# Elastic Compliance Matrix: (Units=1/GPa)
#
#
# Indices 1 2 3 4 5 6 
#
# 1 0.030973 -0.002546 -0.016041 0.000000 0.000000 0.000000
# 2 -0.002546 0.013208 -0.002684 0.000000 0.000000 0.000000
# 3 -0.016041 -0.002684 0.015829 0.000000 0.000000 0.000000
# 4 0.000000 0.000000 0.000000 0.033756 0.000000 0.000000
# 5 0.000000 0.000000 0.000000 0.000000 -0.106699 0.000000
# 6 0.000000 0.000000 0.000000 0.000000 0.000000 0.044432
#
#
# Mechanical properties :
#
#
# Convention : Reuss Voigt Hill
#
# Bulk Modulus (GPa) = 57.24332 74.13187 65.68759
# Shear Modulus (GPa) = 62.60784 19.38405 40.99594
#
# Velocity S-wave (km/s) = 5.88884 3.27670 4.76525
# Velocity P-wave (km/s) = 8.82864 7.44159 8.16462
#
# Compressibility (1/GPa) = 0.01746929
#
# Stress axis : x y z
#
# Youngs Moduli (GPa) = 32.28658 75.71385 63.17430
#
# Poissons Ratio (x) = 0.19275 1.01336
# Poissons Ratio (y) = 0.08219 0.16953
# Poissons Ratio (z) = 0.51790 0.20318
#
# Static dielectric constant tensor:
#      x y z
#    x 3.188870 0.000000 0.000000 
#    y 0.000000 3.331320 0.000000 
#    z 0.000000 0.000000 3.648450 
# 
# 
# High freq. dielectric constant tensor:
#      x y z
#    x 1.674160 0.000000 0.000000 
#    y 0.000000 1.692260 0.000000 
#    z 0.000000 0.000000 1.717310 
# 
# From -- ./inp_files/44442.got.cif
#   From: 2010.03.12/outbox.cif.g09.slc.cpg/sg67_23_cif.got.tgz:44442.got - 2010.04.10 22:41:39.
