data_PCOD8279969
_publ_section_title
;
Structure prediction by ZEFSAII (Michael W. Deem and Ramdas Pophale) SiO2 
 PCOD8279969
Probable space group: C M M A
;
_chemical_formula_sum "Si O2"
_cell_formula_units_Z 112
_cell_length_a 15.176618
_cell_length_b 27.049975
_cell_length_c 13.039121
_cell_angle_alpha 90.000000
_cell_angle_beta 90.000000
_cell_angle_gamma 90.000000
_cell_volume 5352.913019
_symmetry_space_group_name_H-M "C M M A"
_symmetry_group_IT_number 67
_symmetry_cell_setting 'orthorhombic'
loop_
_space_group_symop_operation_xyz
x,y,z
-x,1/2-y,z
x,-y,-z
-x,1/2+y,-z
-x,-y,-z
x,1/2+y,-z
-x,y,z
x,1/2-y,z
1/2+x,1/2+y,z
1/2-x,-y,z
1/2+x,1/2-y,-z
1/2-x,y,-z
1/2-x,1/2-y,-z
1/2+x,y,-z
1/2-x,1/2+y,z
1/2+x,-y,z
loop_
_atom_site_type_symbol
_atom_site_label
_atom_site_fract_x
_atom_site_fract_y
_atom_site_fract_z
Si Si1 0.402169 0.345586 0.338332
Si Si2 0.399622 0.053852 0.673530
Si Si3 0.901270 0.876464 0.862228
Si Si4 0.101530 0.549071 0.258370
Si Si5 0.219219 0.692770 0.745558
Si Si6 0.157284 0.643163 0.550443
Si Si7 0.150008 0.552701 0.030733
O O1 0.500000 0.331006 0.293978
O O2 0.384522 0.404097 0.330871
O O3 0.323015 0.318473 0.277186
O O4 0.406919 0.335824 0.461395
O O5 0.500000 0.049009 0.640563
O O6 0.386508 0.079171 0.783107
O O7 0.357098 0.086562 0.584065
O O8 0.357205 0.998995 0.684321
O O9 0.823353 0.836150 0.842982
O O10 0.000000 0.853301 0.849284
O O11 0.896004 0.900670 0.975113
O O12 0.148385 0.561233 0.151830
O O13 0.000000 0.537950 0.233537
O O14 0.211079 0.750000 0.770845
O O15 0.156308 0.679078 0.649138
O O16 0.250000 0.645734 0.500000
O O17 0.105188 0.500000 0.000000
O O18 0.250000 0.551728 0.000000
#
# Coordination Sequence:
#
# PCOD8279969 Si02
#       7
#    16  16  16  16  16  16  16
#     4  10  21  37  57  83 117 157 199 244 300 362
#     4   9  17  31  52  78 112 153 193 233 281 342
#     4  10  20  36  59  87 121 156 193 242 297 350
#     4  10  20  34  54  80 115 154 193 235 283 350
#     4  10  22  41  62  86 115 147 196 258 310 353
#     4   9  19  35  53  80 113 155 197 246 297 352
#     4  11  21  33  54  87 121 158 195 236 283 347
#
# _framework density 20.923188
#
# number of rings (size 3 to 8) (size 9 to 14) (size 15 to 20)
#    0.000    2.143    1.429    1.714    0.000    4.857 
#    0.000    4.286    0.000    3.857    0.000    4.000 
#    0.000    0.000    0.000    0.000    0.000    0.000 
#
# Total GULP energy -693952.550538 kJ/mol
# GULP energy per Si atom -12392.009831 kJ/mol
# Density = 2.087557 g / cm^3
# Si number density = 20.923188 Si / 1000 Ang^3
#
#
#
# Elastic Constant Matrix: (Units=GPa)
#
#
# Indices 1 2 3 4 5 6 
#
# 1 68.2250 33.6108 9.5267 0.0000 0.0000 0.0000
# 2 33.6108 119.5888 18.6368 0.0000 0.0000 0.0000
# 3 9.5267 18.6368 45.9112 0.0000 0.0000 0.0000
# 4 0.0000 0.0000 0.0000 17.4546 0.0000 0.0000
# 5 0.0000 0.0000 0.0000 0.0000 53.4496 0.0000
# 6 0.0000 0.0000 0.0000 0.0000 0.0000 23.5059
#
#
#
# Elastic Compliance Matrix: (Units=1/GPa)
#
#
# Indices 1 2 3 4 5 6 
#
# 1 0.017138 -0.004550 -0.001709 0.000000 0.000000 0.000000
# 2 -0.004550 0.010135 -0.003170 0.000000 0.000000 0.000000
# 3 -0.001709 -0.003170 0.023423 0.000000 0.000000 0.000000
# 4 0.000000 0.000000 0.000000 0.057291 0.000000 0.000000
# 5 0.000000 0.000000 0.000000 0.000000 0.018709 0.000000
# 6 0.000000 0.000000 0.000000 0.000000 0.000000 0.042542
#
#
# Mechanical properties :
#
#
# Convention : Reuss Voigt Hill
#
# Bulk Modulus (GPa) = 31.41019 39.69706 35.55363
# Shear Modulus (GPa) = 25.16245 30.34539 27.75392
#
# Velocity S-wave (km/s) = 3.47163 3.81244 3.64602
# Velocity P-wave (km/s) = 5.57802 6.19626 5.89525
#
# Compressibility (1/GPa) = 0.03183680
#
# Stress axis : x y z
#
# Youngs Moduli (GPa) = 58.35082 98.66939 42.69390
#
# Poissons Ratio (x) = 0.44897 0.07296
# Poissons Ratio (y) = 0.26551 0.13533
# Poissons Ratio (z) = 0.09972 0.31277
#
# Static dielectric constant tensor:
#      x y z
#    x 3.719900 0.000000 0.000000 
#    y 0.000000 3.682740 0.000000 
#    z 0.000000 0.000000 5.205650 
# 
# 
# High freq. dielectric constant tensor:
#      x y z
#    x 1.823230 0.000000 0.000000 
#    y 0.000000 1.793100 0.000000 
#    z 0.000000 0.000000 1.805350 
# 
# From -- ./inp_files/27743.got.cif
#   From: 2010.03.12/outbox.cif.g09.slc.cpg/sg67_14_cif.got.tgz:27743.got - 2010.04.10 22:41:39.
