data_PCOD8279999
_publ_section_title
;
Structure prediction by ZEFSAII (Michael W. Deem and Ramdas Pophale) SiO2 
 PCOD8279999
Probable space group: C M M A
;
_chemical_formula_sum "Si O2"
_cell_formula_units_Z 72
_cell_length_a 9.195404
_cell_length_b 31.937224
_cell_length_c 12.948196
_cell_angle_alpha 90.000000
_cell_angle_beta 90.000000
_cell_angle_gamma 90.000000
_cell_volume 3802.570230
_symmetry_space_group_name_H-M "C M M A"
_symmetry_group_IT_number 67
_symmetry_cell_setting 'orthorhombic'
loop_
_space_group_symop_operation_xyz
x,y,z
-x,1/2-y,z
x,-y,-z
-x,1/2+y,-z
-x,-y,-z
x,1/2+y,-z
-x,y,z
x,1/2-y,z
1/2+x,1/2+y,z
1/2-x,-y,z
1/2+x,1/2-y,-z
1/2-x,y,-z
1/2-x,1/2-y,-z
1/2+x,y,-z
1/2-x,1/2+y,z
1/2+x,-y,z
loop_
_atom_site_type_symbol
_atom_site_label
_atom_site_fract_x
_atom_site_fract_y
_atom_site_fract_z
Si Si1 0.662943 0.560126 0.404713
Si Si2 0.750000 0.500000 0.763565
Si Si3 0.339112 0.425003 0.103459
Si Si4 0.669184 0.298392 0.606795
Si Si5 0.326257 0.630688 0.709949
O O1 0.500000 0.573124 0.437616
O O2 0.750000 0.539072 0.500000
O O3 0.646857 0.527660 0.309996
O O4 0.757180 0.600878 0.376615
O O5 0.657689 0.530969 0.835604
O O6 0.500000 0.414603 0.066911
O O7 0.283282 0.387611 0.177544
O O8 0.250000 0.428186 0.000000
O O9 0.500000 0.311292 0.597465
O O10 0.685099 0.250000 0.636939
O O11 0.750000 0.308405 0.500000
O O12 0.750651 0.324100 0.697300
O O13 0.500000 0.633056 0.695836
#
# Coordination Sequence:
#
# PCOD8279999 Si02
#       5
#    16   8  16  16  16
#     4  11  22  35  52  74 105 143 180 219 262 312
#     4  10  22  36  54  76 102 136 178 220 266 316
#     4  10  22  38  56  78 102 132 173 221 270 316
#     4  10  20  34  55  84 115 145 176 210 252 305
#     4  10  21  37  55  77 107 141 178 217 260 312
#
# _framework density 18.934560999999999
#
# number of rings (size 3 to 8) (size 9 to 14) (size 15 to 20)
#    0.000    1.778    0.000    4.000    0.000   11.111 
#    0.000    0.000    0.000    0.667    0.000    0.000 
#    0.000    0.000    0.000    0.000    0.000    0.000 
#
# Total GULP energy -446313.980098 kJ/mol
# GULP energy per Si atom -12397.610558 kJ/mol
# Density = 1.889147 g / cm^3
# Si number density = 18.934561 Si / 1000 Ang^3
#
#
#
# Elastic Constant Matrix: (Units=GPa)
#
#
# Indices 1 2 3 4 5 6 
#
# 1 133.1834 48.4713 59.7347 0.0000 0.0000 0.0000
# 2 48.4713 103.7508 52.2810 0.0000 0.0000 0.0000
# 3 59.7347 52.2810 119.1922 0.0000 0.0000 0.0000
# 4 0.0000 0.0000 0.0000 18.1876 0.0000 0.0000
# 5 0.0000 0.0000 0.0000 0.0000 22.1868 0.0000
# 6 0.0000 0.0000 0.0000 0.0000 0.0000 19.1615
#
#
#
# Elastic Compliance Matrix: (Units=1/GPa)
#
#
# Indices 1 2 3 4 5 6 
#
# 1 0.010298 -0.002838 -0.003916 0.000000 0.000000 0.000000
# 2 -0.002838 0.013155 -0.004348 0.000000 0.000000 0.000000
# 3 -0.003916 -0.004348 0.012260 0.000000 0.000000 0.000000
# 4 0.000000 0.000000 0.000000 0.054982 0.000000 0.000000
# 5 0.000000 0.000000 0.000000 0.000000 0.045072 0.000000
# 6 0.000000 0.000000 0.000000 0.000000 0.000000 0.052188
#
#
# Mechanical properties :
#
#
# Convention : Reuss Voigt Hill
#
# Bulk Modulus (GPa) = 74.02604 75.23339 74.62971
# Shear Modulus (GPa) = 23.29250 24.94982 24.12116
#
# Velocity S-wave (km/s) = 3.51117 3.63393 3.57308
# Velocity P-wave (km/s) = 7.45777 7.57806 7.51815
#
# Compressibility (1/GPa) = 0.01350876
#
# Stress axis : x y z
#
# Youngs Moduli (GPa) = 97.10999 76.01535 81.56826
#
# Poissons Ratio (x) = 0.21570 0.31943
# Poissons Ratio (y) = 0.27555 0.35467
# Poissons Ratio (z) = 0.38030 0.33053
#
# Static dielectric constant tensor:
#      x y z
#    x 3.459110 0.000000 0.000000 
#    y 0.000000 3.467140 0.000000 
#    z 0.000000 0.000000 3.351010 
# 
# 
# High freq. dielectric constant tensor:
#      x y z
#    x 1.746490 0.000000 0.000000 
#    y 0.000000 1.728430 0.000000 
#    z 0.000000 0.000000 1.720560 
# 
# From -- ./inp_files/25321.got.cif
#   From: 2010.03.12/outbox.cif.g09.slc.cpg/sg67_13_cif.got.tgz:25321.got - 2010.04.10 22:41:39.
