data_PCOD8279998
_publ_section_title
;
Structure prediction by ZEFSAII (Michael W. Deem and Ramdas Pophale) SiO2 
 PCOD8279998
Probable space group: C M M A
;
_chemical_formula_sum "Si O2"
_cell_formula_units_Z 104
_cell_length_a 26.592172
_cell_length_b 8.689475
_cell_length_c 24.421135
_cell_angle_alpha 90.000000
_cell_angle_beta 90.000000
_cell_angle_gamma 90.000000
_cell_volume 5643.040843
_symmetry_space_group_name_H-M "C M M A"
_symmetry_group_IT_number 67
_symmetry_cell_setting 'orthorhombic'
loop_
_space_group_symop_operation_xyz
x,y,z
-x,1/2-y,z
x,-y,-z
-x,1/2+y,-z
-x,-y,-z
x,1/2+y,-z
-x,y,z
x,1/2-y,z
1/2+x,1/2+y,z
1/2-x,-y,z
1/2+x,1/2-y,-z
1/2-x,y,-z
1/2-x,1/2-y,-z
1/2+x,y,-z
1/2-x,1/2+y,z
1/2+x,-y,z
loop_
_atom_site_type_symbol
_atom_site_label
_atom_site_fract_x
_atom_site_fract_y
_atom_site_fract_z
Si Si1 0.057324 0.422530 0.233005
Si Si2 0.395287 0.067433 0.331922
Si Si3 0.301621 0.069385 0.154383
Si Si4 0.943139 0.431463 0.555869
Si Si5 0.409536 0.072601 0.126159
Si Si6 0.500000 0.569526 0.059693
Si Si7 0.698218 0.568059 0.273533
O O1 0.081078 0.250000 0.233956
O O2 0.061662 0.502441 0.291841
O O3 0.085302 0.528999 0.189508
O O4 0.000000 0.411154 0.215051
O O5 0.392495 0.250000 0.326390
O O6 0.409168 0.014665 0.393222
O O7 0.343078 0.990592 0.315847
O O8 0.293900 0.250000 0.164642
O O9 0.349844 0.041520 0.113835
O O10 0.250000 0.000000 0.128355
O O11 0.312915 0.990041 0.212355
O O12 0.919966 0.500000 0.500000
O O13 0.943095 0.250000 0.551233
O O14 0.000000 0.493187 0.564451
O O15 0.423334 0.250000 0.117219
O O16 0.448097 0.976279 0.089485
O O17 0.500000 0.750000 0.054833
O O18 0.500000 0.500000 0.000000
O O19 0.700357 0.750000 0.273299
O O20 0.750000 0.500000 0.295903
#
# Coordination Sequence:
#
# PCOD8279998 Si02
#       7
#    16  16  16  16  16   8  16
#     4  11  22  33  49  78 113 148 185 228 280 333
#     4  11  21  34  52  76 107 143 182 223 278 339
#     4  10  20  34  55  83 116 154 192 233 284 342
#     4   9  19  35  54  75 101 137 179 224 272 327
#     4  11  22  37  59  85 118 156 193 235 287 339
#     4  12  26  44  66  90 120 158 203 244 287 340
#     4  11  21  33  51  75 108 144 182 225 275 333
#
# _framework density 18.429779
#
# number of rings (size 3 to 8) (size 9 to 14) (size 15 to 20)
#    0.000    1.385    2.308    5.308    0.000    4.615 
#    0.000    1.538    0.000    0.923    0.000    6.462 
#    0.000    0.000    0.000    0.000    0.000    0.000 
#
# Total GULP energy -644674.608009 kJ/mol
# GULP energy per Si atom -12397.588616 kJ/mol
# Density = 1.838783 g / cm^3
# Si number density = 18.429779 Si / 1000 Ang^3
#
#
#
# Elastic Constant Matrix: (Units=GPa)
#
#
# Indices 1 2 3 4 5 6 
#
# 1 130.3128 50.8424 47.0389 0.0000 0.0000 0.0000
# 2 50.8424 120.1020 40.4688 0.0000 0.0000 0.0000
# 3 47.0389 40.4688 85.3087 0.0000 0.0000 0.0000
# 4 0.0000 0.0000 0.0000 28.4515 0.0000 0.0000
# 5 0.0000 0.0000 0.0000 0.0000 16.8514 0.0000
# 6 0.0000 0.0000 0.0000 0.0000 0.0000 30.8999
#
#
#
# Elastic Compliance Matrix: (Units=1/GPa)
#
#
# Indices 1 2 3 4 5 6 
#
# 1 0.010383 -0.002936 -0.004333 0.000000 0.000000 0.000000
# 2 -0.002936 0.010740 -0.003476 0.000000 0.000000 0.000000
# 3 -0.004333 -0.003476 0.015760 0.000000 0.000000 0.000000
# 4 0.000000 0.000000 0.000000 0.035147 0.000000 0.000000
# 5 0.000000 0.000000 0.000000 0.000000 0.059342 0.000000
# 6 0.000000 0.000000 0.000000 0.000000 0.000000 0.032363
#
#
# Mechanical properties :
#
#
# Convention : Reuss Voigt Hill
#
# Bulk Modulus (GPa) = 64.95784 68.04707 66.50246
# Shear Modulus (GPa) = 26.26650 28.39880 27.33265
#
# Velocity S-wave (km/s) = 3.77931 3.92971 3.85524
# Velocity P-wave (km/s) = 7.37339 7.58899 7.48196
#
# Compressibility (1/GPa) = 0.01539460
#
# Stress axis : x y z
#
# Youngs Moduli (GPa) = 96.31021 93.10712 63.45084
#
# Poissons Ratio (x) = 0.27332 0.27491
# Poissons Ratio (y) = 0.28272 0.22058
# Poissons Ratio (z) = 0.41728 0.32367
#
# Static dielectric constant tensor:
#      x y z
#    x 3.640500 0.000000 0.000000 
#    y 0.000000 3.524720 0.000000 
#    z 0.000000 0.000000 3.168780 
# 
# 
# High freq. dielectric constant tensor:
#      x y z
#    x 1.724580 0.000000 0.000000 
#    y 0.000000 1.731690 0.000000 
#    z 0.000000 0.000000 1.680730 
# 
# From -- ./inp_files/42747.got.cif
#   From: 2010.03.12/outbox.cif.g09.slc.cpg/sg67_22_cif.got.tgz:42747.got - 2010.04.10 22:41:39.
