data_PCOD8279941
_publ_section_title
;
Structure prediction by ZEFSAII (Michael W. Deem and Ramdas Pophale) SiO2 
 PCOD8279941
Probable space group: C M M A
;
_chemical_formula_sum "Si O2"
_cell_formula_units_Z 96
_cell_length_a 8.747515
_cell_length_b 18.778519
_cell_length_c 30.889735
_cell_angle_alpha 90.000000
_cell_angle_beta 90.000000
_cell_angle_gamma 90.000000
_cell_volume 5074.113954
_symmetry_space_group_name_H-M "C M M A"
_symmetry_group_IT_number 67
_symmetry_cell_setting 'orthorhombic'
loop_
_space_group_symop_operation_xyz
x,y,z
-x,1/2-y,z
x,-y,-z
-x,1/2+y,-z
-x,-y,-z
x,1/2+y,-z
-x,y,z
x,1/2-y,z
1/2+x,1/2+y,z
1/2-x,-y,z
1/2+x,1/2-y,-z
1/2-x,y,-z
1/2-x,1/2-y,-z
1/2+x,y,-z
1/2-x,1/2+y,z
1/2+x,-y,z
loop_
_atom_site_type_symbol
_atom_site_label
_atom_site_fract_x
_atom_site_fract_y
_atom_site_fract_z
Si Si1 0.178132 0.167366 0.045885
Si Si2 0.669885 0.834647 0.703388
Si Si3 0.181426 0.077861 0.877606
Si Si4 0.682107 0.329509 0.202012
Si Si5 0.179722 0.575380 0.454706
Si Si6 0.826931 0.665732 0.617428
O O1 0.205644 0.250000 0.056633
O O2 0.265204 0.121333 0.081035
O O3 0.000000 0.147894 0.045480
O O4 0.250000 0.147057 0.000000
O O5 0.500000 0.866105 0.695601
O O6 0.661031 0.750000 0.703332
O O7 0.735095 0.858155 0.750543
O O8 0.779261 0.862308 0.665082
O O9 0.244358 0.117406 0.834655
O O10 0.000000 0.073339 0.877583
O O11 0.250000 0.000000 0.878895
O O12 0.500000 0.326115 0.201520
O O13 0.747486 0.250000 0.193088
O O14 0.250000 0.500000 0.440729
O O15 0.250000 0.601896 0.500000
O O16 0.216046 0.633007 0.418269
O O17 0.000000 0.567179 0.460328
O O18 0.808672 0.750000 0.614654
O O19 0.000000 0.641353 0.608631
#
# Coordination Sequence:
#
# PCOD8279941 Si02
#       6
#    16  16  16  16  16  16
#     4  10  21  38  60  85 110 137 174 219 265 316
#     4   8  14  28  51  77 103 134 175 220 266 315
#     4  11  22  36  54  78 111 147 182 220 266 316
#     4   8  15  30  54  79 101 133 179 224 265 314
#     4  11  22  38  58  78 104 138 177 218 264 318
#     4  10  20  34  53  80 112 142 176 219 265 313
#
# _framework density 18.919557999999999
#
# number of rings (size 3 to 8) (size 9 to 14) (size 15 to 20)
#    0.000    2.333    0.000    5.000    0.000    3.333 
#    0.000    4.167    0.000    6.000    0.000    0.000 
#    0.000    0.000    0.000    0.000    0.000    0.000 
#
# Total GULP energy -595166.495115 kJ/mol
# GULP energy per Si atom -12399.301982 kJ/mol
# Density = 1.887650 g / cm^3
# Si number density = 18.919558 Si / 1000 Ang^3
#
#
#
# Elastic Constant Matrix: (Units=GPa)
#
#
# Indices 1 2 3 4 5 6 
#
# 1 102.0358 36.2188 52.3939 0.0000 0.0000 0.0000
# 2 36.2188 61.9278 64.9059 0.0000 0.0000 0.0000
# 3 52.3939 64.9059 157.3089 0.0000 0.0000 0.0000
# 4 0.0000 0.0000 0.0000 -1.1851 0.0000 0.0000
# 5 0.0000 0.0000 0.0000 0.0000 27.4933 0.0000
# 6 0.0000 0.0000 0.0000 0.0000 0.0000 15.5662
#
#
#
# Elastic Compliance Matrix: (Units=1/GPa)
#
#
# Indices 1 2 3 4 5 6 
#
# 1 0.012736 -0.005291 -0.002059 0.000000 0.000000 0.000000
# 2 -0.005291 0.030649 -0.010884 0.000000 0.000000 0.000000
# 3 -0.002059 -0.010884 0.011533 0.000000 0.000000 0.000000
# 4 0.000000 0.000000 0.000000 -0.843788 0.000000 0.000000
# 5 0.000000 0.000000 0.000000 0.000000 0.036373 0.000000
# 6 0.000000 0.000000 0.000000 0.000000 0.000000 0.064242
#
#
# Mechanical properties :
#
#
# Convention : Reuss Voigt Hill
#
# Bulk Modulus (GPa) = 54.19570 69.81220 62.00395
# Shear Modulus (GPa) = -7.74427 19.55847 5.90710
#
# Velocity S-wave (km/s) = -2.02538 3.21872 1.76890
# Velocity P-wave (km/s) = 4.82058 7.12693 6.08404
#
# Compressibility (1/GPa) = 0.01845165
#
# Stress axis : x y z
#
# Youngs Moduli (GPa) = 78.51978 32.62709 86.70511
#
# Poissons Ratio (x) = 0.17262 0.17851
# Poissons Ratio (y) = 0.41542 0.94369
# Poissons Ratio (z) = 0.16166 0.35511
#
# Static dielectric constant tensor:
#      x y z
#    x 3.448600 0.000000 0.000000 
#    y 0.000000 3.262710 0.000000 
#    z 0.000000 0.000000 3.832700 
# 
# 
# High freq. dielectric constant tensor:
#      x y z
#    x 1.729420 0.000000 0.000000 
#    y 0.000000 1.709760 0.000000 
#    z 0.000000 0.000000 1.753590 
# 
# From -- ./inp_files/43494.got.cif
#   From: 2010.03.12/outbox.cif.g09.slc.cpg/sg67_22_cif.got.tgz:43494.got - 2010.04.10 22:41:39.
