data_PCOD8279064
_publ_section_title
;
Structure prediction by ZEFSAII (Michael W. Deem and Ramdas Pophale) SiO2 
 PCOD8279064
Probable space group: C M M A
;
_chemical_formula_sum "Si O2"
_cell_formula_units_Z 104
_cell_length_a 14.029988
_cell_length_b 22.507665
_cell_length_c 16.846757
_cell_angle_alpha 90.000000
_cell_angle_beta 90.000000
_cell_angle_gamma 90.000000
_cell_volume 5319.907165
_symmetry_space_group_name_H-M "C M M A"
_symmetry_group_IT_number 67
_symmetry_cell_setting 'orthorhombic'
loop_
_space_group_symop_operation_xyz
x,y,z
-x,1/2-y,z
x,-y,-z
-x,1/2+y,-z
-x,-y,-z
x,1/2+y,-z
-x,y,z
x,1/2-y,z
1/2+x,1/2+y,z
1/2-x,-y,z
1/2+x,1/2-y,-z
1/2-x,y,-z
1/2-x,1/2-y,-z
1/2+x,y,-z
1/2-x,1/2+y,z
1/2+x,-y,z
loop_
_atom_site_type_symbol
_atom_site_label
_atom_site_fract_x
_atom_site_fract_y
_atom_site_fract_z
Si Si1 0.250000 0.500000 0.749135
Si Si2 0.388519 0.316740 0.050112
Si Si3 0.887040 0.818181 0.338372
Si Si4 0.391739 0.819222 0.132284
Si Si5 0.389507 0.033798 0.620220
Si Si6 0.889907 0.590058 0.463817
Si Si7 0.712384 0.121937 0.189568
O O1 0.326299 0.461549 0.698618
O O2 0.299366 0.550703 0.802221
O O3 0.500000 0.322121 0.065486
O O4 0.353943 0.250000 0.071095
O O5 0.335141 0.362796 0.105916
O O6 0.364131 0.331248 0.959156
O O7 0.857817 0.750000 0.348992
O O8 0.848780 0.852956 0.416848
O O9 0.839825 0.844041 0.260072
O O10 0.000000 0.826646 0.329292
O O11 0.500000 0.839419 0.149241
O O12 0.379519 0.750000 0.152425
O O13 0.322928 0.857918 0.188072
O O14 0.500000 0.047766 0.639151
O O15 0.345641 0.078114 0.551927
O O16 0.376221 0.966718 0.591373
O O17 0.000000 0.599997 0.481844
#
# Coordination Sequence:
#
# PCOD8279064 Si02
#       7
#     8  16  16  16  16  16  16
#     4  12  26  35  51  82 110 154 190 224 265 322
#     4   9  18  35  62  89 106 131 176 228 281 333
#     4  10  19  32  55  88 119 140 166 221 294 345
#     4   9  19  37  60  82 105 141 188 226 261 319
#     4   9  18  36  56  75 102 141 190 234 263 305
#     4   8  15  31  56  80 102 135 179 224 269 317
#     4  12  22  34  50  80 117 149 181 220 273 324
#
# _framework density 19.549213000000002
#
# number of rings (size 3 to 8) (size 9 to 14) (size 15 to 20)
#    0.000    2.308    1.538    4.154    0.000    4.923 
#    0.000    1.538    0.000    5.538    0.000    2.154 
#    0.000    0.000    0.000    0.000    0.000    0.000 
#
# Total GULP energy -644635.797403 kJ/mol
# GULP energy per Si atom -12396.842258 kJ/mol
# Density = 1.950472 g / cm^3
# Si number density = 19.549213 Si / 1000 Ang^3
#
#
#
# Elastic Constant Matrix: (Units=GPa)
#
#
# Indices 1 2 3 4 5 6 
#
# 1 39.8408 36.7180 40.0391 0.0000 0.0000 0.0000
# 2 36.7180 104.0920 49.2757 0.0000 0.0000 0.0000
# 3 40.0391 49.2757 57.3481 0.0000 0.0000 0.0000
# 4 0.0000 0.0000 0.0000 24.7333 0.0000 0.0000
# 5 0.0000 0.0000 0.0000 0.0000 33.3006 0.0000
# 6 0.0000 0.0000 0.0000 0.0000 0.0000 23.2784
#
#
#
# Elastic Compliance Matrix: (Units=1/GPa)
#
#
# Indices 1 2 3 4 5 6 
#
# 1 0.084748 -0.003177 -0.056439 0.000000 0.000000 0.000000
# 2 -0.003177 0.016313 -0.011799 0.000000 0.000000 0.000000
# 3 -0.056439 -0.011799 0.066980 0.000000 0.000000 0.000000
# 4 0.000000 0.000000 0.000000 0.040431 0.000000 0.000000
# 5 0.000000 0.000000 0.000000 0.000000 0.030029 0.000000
# 6 0.000000 0.000000 0.000000 0.000000 0.000000 0.042958
#
#
# Mechanical properties :
#
#
# Convention : Reuss Voigt Hill
#
# Bulk Modulus (GPa) = 39.66529 50.37183 45.01856
# Shear Modulus (GPa) = 11.55553 21.27901 16.41727
#
# Velocity S-wave (km/s) = 2.43389 3.30280 2.90106
# Velocity P-wave (km/s) = 5.31342 6.35352 5.85661
#
# Compressibility (1/GPa) = 0.02521096
#
# Stress axis : x y z
#
# Youngs Moduli (GPa) = 11.79969 61.30162 14.92984
#
# Poissons Ratio (x) = 0.19474 0.84263
# Poissons Ratio (y) = 0.03749 0.17615
# Poissons Ratio (z) = 0.66597 0.72327
#
# Static dielectric constant tensor:
#      x y z
#    x 3.624300 0.000000 0.000000 
#    y 0.000000 3.415260 0.000000 
#    z 0.000000 0.000000 3.542570 
# 
# 
# High freq. dielectric constant tensor:
#      x y z
#    x 1.768050 0.000000 0.000000 
#    y 0.000000 1.737560 0.000000 
#    z 0.000000 0.000000 1.753300 
# 
# From -- ./inp_files/33722.got.cif
#   From: 2010.03.12/outbox.cif.g09.slc.cpg/sg67_17_cif.got.tgz:33722.got - 2010.04.10 22:41:39.
