data_PCOD8279560
_publ_section_title
;
Structure prediction by ZEFSAII (Michael W. Deem and Ramdas Pophale) SiO2 
 PCOD8279560
Probable space group: C M M A
;
_chemical_formula_sum "Si O2"
_cell_formula_units_Z 96
_cell_length_a 8.555533
_cell_length_b 27.278960
_cell_length_c 23.821690
_cell_angle_alpha 90.000000
_cell_angle_beta 90.000000
_cell_angle_gamma 90.000000
_cell_volume 5559.649954
_symmetry_space_group_name_H-M "C M M A"
_symmetry_group_IT_number 67
_symmetry_cell_setting 'orthorhombic'
loop_
_space_group_symop_operation_xyz
x,y,z
-x,1/2-y,z
x,-y,-z
-x,1/2+y,-z
-x,-y,-z
x,1/2+y,-z
-x,y,z
x,1/2-y,z
1/2+x,1/2+y,z
1/2-x,-y,z
1/2+x,1/2-y,-z
1/2-x,y,-z
1/2-x,1/2-y,-z
1/2+x,y,-z
1/2-x,1/2+y,z
1/2+x,-y,z
loop_
_atom_site_type_symbol
_atom_site_label
_atom_site_fract_x
_atom_site_fract_y
_atom_site_fract_z
Si Si1 0.816538 0.646161 0.667880
Si Si2 0.682557 0.103102 0.828401
Si Si3 0.817255 0.194239 0.774346
Si Si4 0.815951 0.053136 0.722483
Si Si5 0.316746 0.053286 0.941777
Si Si6 0.817006 0.806768 0.439998
O O1 0.729836 0.682848 0.710463
O O2 0.763923 0.590588 0.679199
O O3 0.771853 0.660260 0.605040
O O4 0.000000 0.651147 0.677598
O O5 0.500000 0.094113 0.817641
O O6 0.724308 0.159825 0.817743
O O7 0.777159 0.068167 0.786294
O O8 0.730884 0.089967 0.891824
O O9 0.773954 0.250000 0.788824
O O10 0.000000 0.184001 0.781067
O O11 0.000000 0.053989 0.713490
O O12 0.750000 0.000000 0.708571
O O13 0.500000 0.048197 0.947969
O O14 0.250000 0.000000 0.928107
O O15 0.250000 0.074728 0.000000
O O16 0.780384 0.750000 0.427729
O O17 0.750000 0.822429 0.500000
O O18 0.000000 0.817791 0.437777
#
# Coordination Sequence:
#
# PCOD8279560 Si02
#       6
#    16  16  16  16  16  16
#     4  11  21  33  51  75 102 133 167 203 246 293
#     4  10  20  33  50  74 100 129 164 201 245 293
#     4  10  20  33  50  73 100 131 165 202 246 293
#     4  11  21  34  52  74 101 132 165 203 246 292
#     4  10  20  32  49  72  98 128 161 198 241 290
#     4  10  20  34  52  75 103 134 168 206 248 293
#
# _framework density 17.267274
#
# number of rings (size 3 to 8) (size 9 to 14) (size 15 to 20)
#    0.000    1.667    0.000    8.500    0.000    8.333 
#    0.000    0.000    0.000    1.000    0.000    3.500 
#    0.000    0.000    0.000    0.000    0.000    0.000 
#
# Total GULP energy -595380.302493 kJ/mol
# GULP energy per Si atom -12403.756302 kJ/mol
# Density = 1.722797 g / cm^3
# Si number density = 17.267274 Si / 1000 Ang^3
#
#
#
# Elastic Constant Matrix: (Units=GPa)
#
#
# Indices 1 2 3 4 5 6 
#
# 1 51.1929 26.4828 21.0356 0.0000 0.0000 0.0000
# 2 26.4828 95.2169 56.9313 0.0000 0.0000 0.0000
# 3 21.0356 56.9313 121.2969 0.0000 0.0000 0.0000
# 4 0.0000 0.0000 0.0000 25.7014 0.0000 0.0000
# 5 0.0000 0.0000 0.0000 0.0000 29.5231 0.0000
# 6 0.0000 0.0000 0.0000 0.0000 0.0000 27.9545
#
#
#
# Elastic Compliance Matrix: (Units=1/GPa)
#
#
# Indices 1 2 3 4 5 6 
#
# 1 0.022979 -0.005572 -0.001370 0.000000 0.000000 0.000000
# 2 -0.005572 0.015951 -0.006520 0.000000 0.000000 0.000000
# 3 -0.001370 -0.006520 0.011542 0.000000 0.000000 0.000000
# 4 0.000000 0.000000 0.000000 0.038908 0.000000 0.000000
# 5 0.000000 0.000000 0.000000 0.000000 0.033872 0.000000
# 6 0.000000 0.000000 0.000000 0.000000 0.000000 0.035772
#
#
# Mechanical properties :
#
#
# Convention : Reuss Voigt Hill
#
# Bulk Modulus (GPa) = 42.46697 52.95622 47.71160
# Shear Modulus (GPa) = 25.80002 27.51961 26.65982
#
# Velocity S-wave (km/s) = 3.86963 3.99650 3.93358
# Velocity P-wave (km/s) = 6.67927 7.21326 6.95140
#
# Compressibility (1/GPa) = 0.02354771
#
# Stress axis : x y z
#
# Youngs Moduli (GPa) = 43.51714 62.69334 86.63966
#
# Poissons Ratio (x) = 0.34935 0.11868
# Poissons Ratio (y) = 0.24249 0.56490
# Poissons Ratio (z) = 0.05961 0.40877
#
# Static dielectric constant tensor:
#      x y z
#    x 3.382480 0.000000 0.000000 
#    y 0.000000 3.185190 0.000000 
#    z 0.000000 0.000000 3.247830 
# 
# 
# High freq. dielectric constant tensor:
#      x y z
#    x 1.689330 0.000000 0.000000 
#    y 0.000000 1.656540 0.000000 
#    z 0.000000 0.000000 1.658050 
# 
# From -- ./inp_files/40935.got.cif
#   From: 2010.03.12/outbox.cif.g09.slc.cpg/sg67_21_cif.got.tgz:40935.got - 2010.04.10 22:41:39.
