data_PCOD8279354
_publ_section_title
;
Structure prediction by ZEFSAII (Michael W. Deem and Ramdas Pophale) SiO2 
 PCOD8279354
Probable space group: C M M A
;
_chemical_formula_sum "Si O2"
_cell_formula_units_Z 96
_cell_length_a 16.270796
_cell_length_b 25.464732
_cell_length_c 11.568109
_cell_angle_alpha 90.000000
_cell_angle_beta 90.000000
_cell_angle_gamma 90.000000
_cell_volume 4793.031486
_symmetry_space_group_name_H-M "C M M A"
_symmetry_group_IT_number 67
_symmetry_cell_setting 'orthorhombic'
loop_
_space_group_symop_operation_xyz
x,y,z
-x,1/2-y,z
x,-y,-z
-x,1/2+y,-z
-x,-y,-z
x,1/2+y,-z
-x,y,z
x,1/2-y,z
1/2+x,1/2+y,z
1/2-x,-y,z
1/2+x,1/2-y,-z
1/2-x,y,-z
1/2-x,1/2-y,-z
1/2+x,y,-z
1/2-x,1/2+y,z
1/2+x,-y,z
loop_
_atom_site_type_symbol
_atom_site_label
_atom_site_fract_x
_atom_site_fract_y
_atom_site_fract_z
Si Si1 0.593440 0.193610 0.645737
Si Si2 0.096284 0.404300 0.226839
Si Si3 0.171773 0.190101 0.580481
Si Si4 0.156650 0.997654 0.363891
Si Si5 0.402197 0.440769 0.014907
Si Si6 0.903723 0.893690 0.256807
O O1 0.500000 0.196507 0.684839
O O2 0.636945 0.250000 0.673727
O O3 0.639037 0.147103 0.715943
O O4 0.595672 0.183793 0.507798
O O5 0.109567 0.454437 0.306359
O O6 0.000000 0.394989 0.220250
O O7 0.131252 0.410140 0.097532
O O8 0.181277 0.250000 0.625652
O O9 0.250000 0.173455 0.500000
O O10 0.153476 0.152811 0.690763
O O11 0.108771 0.944899 0.333542
O O12 0.153475 0.000000 0.500000
O O13 0.250000 0.000000 0.318228
O O14 0.500000 0.443887 0.019683
O O15 0.371336 0.409448 0.128263
O O16 0.367202 0.500000 0.000000
O O17 0.000000 0.877226 0.255836
#
# Coordination Sequence:
#
# PCOD8279354 Si02
#       6
#    16  16  16  16  16  16
#     4   9  18  33  55  81 106 138 185 234 277 334
#     4  10  19  35  58  79 109 151 194 234 287 351
#     4  10  22  38  59  84 116 154 188 234 301 360
#     4  11  24  35  51  81 119 152 185 242 295 350
#     4   9  17  34  55  79 111 151 195 241 290 345
#     4  11  22  37  60  84 112 152 198 242 292 354
#
# _framework density 20.029077000000001
#
# number of rings (size 3 to 8) (size 9 to 14) (size 15 to 20)
#    0.000    2.000    1.667    2.000    4.667    3.667 
#    0.000    2.500    0.000    3.000    0.000    3.500 
#    0.000    0.000    0.000    0.000    0.000    0.000 
#
# Total GULP energy -594763.289976 kJ/mol
# GULP energy per Si atom -12390.901875 kJ/mol
# Density = 1.998349 g / cm^3
# Si number density = 20.029077 Si / 1000 Ang^3
#
#
#
# Elastic Constant Matrix: (Units=GPa)
#
#
# Indices 1 2 3 4 5 6 
#
# 1 40.0014 19.1207 20.9276 0.0000 0.0000 0.0000
# 2 19.1207 156.4750 81.9874 0.0000 0.0000 0.0000
# 3 20.9276 81.9874 137.6838 0.0000 0.0000 0.0000
# 4 0.0000 0.0000 0.0000 19.7138 0.0000 0.0000
# 5 0.0000 0.0000 0.0000 0.0000 17.6966 0.0000
# 6 0.0000 0.0000 0.0000 0.0000 0.0000 14.4023
#
#
#
# Elastic Compliance Matrix: (Units=1/GPa)
#
#
# Indices 1 2 3 4 5 6 
#
# 1 0.027466 -0.001699 -0.003163 0.000000 0.000000 0.000000
# 2 -0.001699 0.009394 -0.005336 0.000000 0.000000 0.000000
# 3 -0.003163 -0.005336 0.010921 0.000000 0.000000 0.000000
# 4 0.000000 0.000000 0.000000 0.050726 0.000000 0.000000
# 5 0.000000 0.000000 0.000000 0.000000 0.056508 0.000000
# 6 0.000000 0.000000 0.000000 0.000000 0.000000 0.069433
#
#
# Mechanical properties :
#
#
# Convention : Reuss Voigt Hill
#
# Bulk Modulus (GPa) = 36.51533 64.24796 50.38164
# Shear Modulus (GPa) = 19.68716 24.50418 22.09567
#
# Velocity S-wave (km/s) = 3.13857 3.50155 3.32502
# Velocity P-wave (km/s) = 5.60401 6.96382 6.32059
#
# Compressibility (1/GPa) = 0.02738576
#
# Stress axis : x y z
#
# Youngs Moduli (GPa) = 36.40860 106.44922 91.56567
#
# Poissons Ratio (x) = 0.18085 0.28963
# Poissons Ratio (y) = 0.06185 0.48857
# Poissons Ratio (z) = 0.11516 0.56799
#
# Static dielectric constant tensor:
#      x y z
#    x 3.539930 0.000000 0.000000 
#    y 0.000000 4.056000 0.000000 
#    z 0.000000 0.000000 3.867880 
# 
# 
# High freq. dielectric constant tensor:
#      x y z
#    x 1.764720 0.000000 0.000000 
#    y 0.000000 1.784140 0.000000 
#    z 0.000000 0.000000 1.775650 
# 
# From -- ./inp_files/19659.got.cif
#   From: 2010.03.12/outbox.cif.g09.slc.cpg/sg67_10_cif.got.tgz:19659.got - 2010.04.10 22:41:39.
