data_PCOD8279161
_publ_section_title
;
Structure prediction by ZEFSAII (Michael W. Deem and Ramdas Pophale) SiO2 
 PCOD8279161
Probable space group: C M M A
;
_chemical_formula_sum "Si O2"
_cell_formula_units_Z 80
_cell_length_a 25.705717
_cell_length_b 8.589277
_cell_length_c 19.885610
_cell_angle_alpha 90.000000
_cell_angle_beta 90.000000
_cell_angle_gamma 90.000000
_cell_volume 4390.613905
_symmetry_space_group_name_H-M "C M M A"
_symmetry_group_IT_number 67
_symmetry_cell_setting 'orthorhombic'
loop_
_space_group_symop_operation_xyz
x,y,z
-x,1/2-y,z
x,-y,-z
-x,1/2+y,-z
-x,-y,-z
x,1/2+y,-z
-x,y,z
x,1/2-y,z
1/2+x,1/2+y,z
1/2-x,-y,z
1/2+x,1/2-y,-z
1/2-x,y,-z
1/2-x,1/2-y,-z
1/2+x,y,-z
1/2-x,1/2+y,z
1/2+x,-y,z
loop_
_atom_site_type_symbol
_atom_site_label
_atom_site_fract_x
_atom_site_fract_y
_atom_site_fract_z
Si Si1 0.195231 0.431873 0.927978
Si Si2 0.111396 0.563814 0.318750
Si Si3 0.500000 0.573777 0.188619
Si Si4 0.614264 0.571505 0.171477
Si Si5 0.000000 0.073713 0.674095
Si Si6 0.193974 0.433962 0.571040
O O1 0.202168 0.250000 0.935878
O O2 0.250000 0.500000 0.901933
O O3 0.149887 0.466745 0.875467
O O4 0.179377 0.500000 0.000000
O O5 0.110412 0.750000 0.307983
O O6 0.122381 0.481209 0.248233
O O7 0.154908 0.510633 0.371110
O O8 0.055548 0.502738 0.349736
O O9 0.500000 0.750000 0.219686
O O10 0.553795 0.551487 0.147163
O O11 0.500000 0.442052 0.245321
O O12 0.631991 0.750000 0.164886
O O13 0.000000 0.250000 0.650853
O O14 0.174191 0.500000 0.500000
O O15 0.197222 0.250000 0.565600
O O16 0.250000 0.500000 0.590398
#
# Coordination Sequence:
#
# PCOD8279161 Si02
#       6
#    16  16   8  16   8  16
#     4  11  22  38  57  77 103 136 172 210 255 305
#     4   9  18  32  51  75 100 130 167 208 250 297
#     4   8  16  30  49  74 105 136 167 204 249 296
#     4  10  19  33  54  80 107 136 170 210 252 298
#     4   8  14  28  49  70  96 128 163 202 248 296
#     4  10  20  34  51  70  96 129 166 204 249 300
#
# _framework density 18.220686000000001
#
# number of rings (size 3 to 8) (size 9 to 14) (size 15 to 20)
#    0.000    2.400    0.000    4.200    0.000    3.200 
#    0.000    3.000    0.000    0.000    0.000    0.000 
#    0.000    0.000    0.000    0.000    0.000    0.000 
#
# Total GULP energy -495667.957016 kJ/mol
# GULP energy per Si atom -12391.698925 kJ/mol
# Density = 1.817922 g / cm^3
# Si number density = 18.220686 Si / 1000 Ang^3
#
#
#
# Elastic Constant Matrix: (Units=GPa)
#
#
# Indices 1 2 3 4 5 6 
#
# 1 143.7276 39.3673 79.9110 0.0000 0.0000 0.0000
# 2 39.3673 84.1748 30.8127 0.0000 0.0000 0.0000
# 3 79.9110 30.8127 87.4747 0.0000 0.0000 0.0000
# 4 0.0000 0.0000 0.0000 27.1028 0.0000 0.0000
# 5 0.0000 0.0000 0.0000 0.0000 1.6398 0.0000
# 6 0.0000 0.0000 0.0000 0.0000 0.0000 23.9745
#
#
#
# Elastic Compliance Matrix: (Units=1/GPa)
#
#
# Indices 1 2 3 4 5 6 
#
# 1 0.014491 -0.002217 -0.012457 0.000000 0.000000 0.000000
# 2 -0.002217 0.013978 -0.002898 0.000000 0.000000 0.000000
# 3 -0.012457 -0.002898 0.023832 0.000000 0.000000 0.000000
# 4 0.000000 0.000000 0.000000 0.036897 0.000000 0.000000
# 5 0.000000 0.000000 0.000000 0.000000 0.609833 0.000000
# 6 0.000000 0.000000 0.000000 0.000000 0.000000 0.041711
#
#
# Mechanical properties :
#
#
# Convention : Reuss Voigt Hill
#
# Bulk Modulus (GPa) = 58.28613 68.39547 63.34080
# Shear Modulus (GPa) = 6.39709 21.56248 13.97979
#
# Velocity S-wave (km/s) = 1.87577 3.44380 2.77293
# Velocity P-wave (km/s) = 6.06216 7.30970 6.71497
#
# Compressibility (1/GPa) = 0.01715674
#
# Stress axis : x y z
#
# Youngs Moduli (GPa) = 69.00959 71.54150 41.95969
#
# Poissons Ratio (x) = 0.15862 0.52268
# Poissons Ratio (y) = 0.15301 0.12161
# Poissons Ratio (z) = 0.85964 0.20734
#
# Static dielectric constant tensor:
#      x y z
#    x 3.778030 0.000000 0.000000 
#    y 0.000000 3.403350 0.000000 
#    z 0.000000 0.000000 3.083790 
# 
# 
# High freq. dielectric constant tensor:
#      x y z
#    x 1.725840 0.000000 0.000000 
#    y 0.000000 1.712940 0.000000 
#    z 0.000000 0.000000 1.672030 
# 
# From -- ./inp_files/32201.got.cif
#   From: 2010.03.12/outbox.cif.g09.slc.cpg/sg67_17_cif.got.tgz:32201.got - 2010.04.10 22:41:39.
