data_PCOD8279307
_publ_section_title
;
Structure prediction by ZEFSAII (Michael W. Deem and Ramdas Pophale) SiO2 
 PCOD8279307
Probable space group: C M M A
;
_chemical_formula_sum "Si O2"
_cell_formula_units_Z 88
_cell_length_a 7.519349
_cell_length_b 27.052203
_cell_length_c 24.141165
_cell_angle_alpha 90.000000
_cell_angle_beta 90.000000
_cell_angle_gamma 90.000000
_cell_volume 4910.674006
_symmetry_space_group_name_H-M "C M M A"
_symmetry_group_IT_number 67
_symmetry_cell_setting 'orthorhombic'
loop_
_space_group_symop_operation_xyz
x,y,z
-x,1/2-y,z
x,-y,-z
-x,1/2+y,-z
-x,-y,-z
x,1/2+y,-z
-x,y,z
x,1/2-y,z
1/2+x,1/2+y,z
1/2-x,-y,z
1/2+x,1/2-y,-z
1/2-x,y,-z
1/2-x,1/2-y,-z
1/2+x,y,-z
1/2-x,1/2+y,z
1/2+x,-y,z
loop_
_atom_site_type_symbol
_atom_site_label
_atom_site_fract_x
_atom_site_fract_y
_atom_site_fract_z
Si Si1 0.697542 0.691311 0.060036
Si Si2 0.291516 0.343850 0.561575
Si Si3 0.205882 0.052613 0.398595
Si Si4 0.000000 0.871439 0.249760
Si Si5 0.500000 0.308722 0.141417
Si Si6 0.208623 0.054031 0.273855
Si Si7 0.500000 0.194243 0.358620
O O1 0.500000 0.673515 0.075722
O O2 0.710120 0.750000 0.056641
O O3 0.828604 0.671944 0.107634
O O4 0.750000 0.669311 0.000000
O O5 0.500000 0.337319 0.575607
O O6 0.250000 0.324773 0.500000
O O7 0.224086 0.401147 0.565553
O O8 0.178072 0.312348 0.604872
O O9 0.286105 0.053972 0.336753
O O10 0.000000 0.058820 0.391467
O O11 0.250000 0.000000 0.427841
O O12 0.177209 0.904582 0.242262
O O13 0.000000 0.843454 0.308108
O O14 0.000000 0.831087 0.202054
O O15 0.500000 0.250000 0.147802
O O16 0.000000 0.067098 0.269145
O O17 0.250000 0.000000 0.248122
O O18 0.500000 0.250000 0.335712
#
# Coordination Sequence:
#
# PCOD8279307 Si02
#       7
#    16  16  16   8   8  16   8
#     4   9  15  27  50  78 111 154 198 239 281 321
#     4  11  23  41  60  84 109 136 185 240 284 344
#     4   9  19  31  54  84 112 138 168 215 285 355
#     4  12  23  38  60  83 121 152 187 229 280 341
#     4  10  21  34  50  82 122 161 202 232 270 328
#     4  10  19  34  58  85 110 145 185 227 283 344
#     4  12  27  44  62  78 106 152 189 230 289 333
#
# _framework density 17.920147
#
# number of rings (size 3 to 8) (size 9 to 14) (size 15 to 20)
#    0.000    1.818    4.545    0.273    2.545    1.818 
#    0.000    1.818    0.000    3.273    0.000    0.000 
#    0.000    2.182    0.000    0.000    0.000    0.000 
#
# Total GULP energy -545471.981513 kJ/mol
# GULP energy per Si atom -12397.090489 kJ/mol
# Density = 1.787936 g / cm^3
# Si number density = 17.920147 Si / 1000 Ang^3
#
#
#
# Elastic Constant Matrix: (Units=GPa)
#
#
# Indices 1 2 3 4 5 6 
#
# 1 130.9427 32.5520 40.5914 0.0000 0.0000 0.0000
# 2 32.5520 74.7167 21.6718 0.0000 0.0000 0.0000
# 3 40.5914 21.6718 86.3164 0.0000 0.0000 0.0000
# 4 0.0000 0.0000 0.0000 -13.4003 0.0000 0.0000
# 5 0.0000 0.0000 0.0000 0.0000 18.4027 0.0000
# 6 0.0000 0.0000 0.0000 0.0000 0.0000 18.4404
#
#
#
# Elastic Compliance Matrix: (Units=1/GPa)
#
#
# Indices 1 2 3 4 5 6 
#
# 1 0.009557 -0.003085 -0.003720 0.000000 0.000000 0.000000
# 2 -0.003085 0.015431 -0.002424 0.000000 0.000000 0.000000
# 3 -0.003720 -0.002424 0.013943 0.000000 0.000000 0.000000
# 4 0.000000 0.000000 0.000000 -0.074625 0.000000 0.000000
# 5 0.000000 0.000000 0.000000 0.000000 0.054340 0.000000
# 6 0.000000 0.000000 0.000000 0.000000 0.000000 0.054229
#
#
# Mechanical properties :
#
#
# Convention : Reuss Voigt Hill
#
# Bulk Modulus (GPa) = 48.84125 53.51180 51.17652
# Shear Modulus (GPa) = 50.93979 17.83262 34.38620
#
# Velocity S-wave (km/s) = 5.33739 3.15797 4.38523
# Velocity P-wave (km/s) = 8.08070 6.57443 7.36617
#
# Compressibility (1/GPa) = 0.02047450
#
# Stress axis : x y z
#
# Youngs Moduli (GPa) = 104.63664 64.80542 71.72033
#
# Poissons Ratio (x) = 0.19991 0.26678
# Poissons Ratio (y) = 0.32278 0.17382
# Poissons Ratio (z) = 0.38922 0.15706
#
# Static dielectric constant tensor:
#      x y z
#    x 3.464620 0.000000 0.000000 
#    y 0.000000 4.293510 0.000000 
#    z 0.000000 0.000000 3.073700 
# 
# 
# High freq. dielectric constant tensor:
#      x y z
#    x 1.710310 0.000000 0.000000 
#    y 0.000000 1.666680 0.000000 
#    z 0.000000 0.000000 1.658760 
# 
# From -- ./inp_files/36986.got.cif
#   From: 2010.03.12/outbox.cif.g09.slc.cpg/sg67_19_cif.got.tgz:36986.got - 2010.04.10 22:41:39.
