data_PCOD8279952
_publ_section_title
;
Structure prediction by ZEFSAII (Michael W. Deem and Ramdas Pophale) SiO2 
 PCOD8279952
Probable space group: C M M A
;
_chemical_formula_sum "Si O2"
_cell_formula_units_Z 96
_cell_length_a 14.932559
_cell_length_b 22.711392
_cell_length_c 14.380758
_cell_angle_alpha 90.000000
_cell_angle_beta 90.000000
_cell_angle_gamma 90.000000
_cell_volume 4877.078778
_symmetry_space_group_name_H-M "C M M A"
_symmetry_group_IT_number 67
_symmetry_cell_setting 'orthorhombic'
loop_
_space_group_symop_operation_xyz
x,y,z
-x,1/2-y,z
x,-y,-z
-x,1/2+y,-z
-x,-y,-z
x,1/2+y,-z
-x,y,z
x,1/2-y,z
1/2+x,1/2+y,z
1/2-x,-y,z
1/2+x,1/2-y,-z
1/2-x,y,-z
1/2-x,1/2-y,-z
1/2+x,y,-z
1/2-x,1/2+y,z
1/2+x,-y,z
loop_
_atom_site_type_symbol
_atom_site_label
_atom_site_fract_x
_atom_site_fract_y
_atom_site_fract_z
Si Si1 0.102163 0.635096 0.162202
Si Si2 0.714464 0.817283 0.212463
Si Si3 0.398073 0.533099 0.708029
Si Si4 0.900130 0.095118 0.325734
Si Si5 0.399057 0.682687 0.035759
Si Si6 0.847542 0.068863 0.516739
O O1 0.177955 0.675050 0.210957
O O2 0.118618 0.567426 0.195052
O O3 0.000000 0.654980 0.190100
O O4 0.113905 0.639178 0.051400
O O5 0.690972 0.750000 0.234123
O O6 0.668351 0.855523 0.292008
O O7 0.671822 0.836519 0.113622
O O8 0.500000 0.515549 0.693881
O O9 0.352919 0.467911 0.704516
O O10 0.373627 0.578615 0.624438
O O11 0.909694 0.099081 0.438372
O O12 0.000000 0.104846 0.283769
O O13 0.500000 0.676775 0.075504
O O14 0.381175 0.750000 0.002736
O O15 0.750000 0.095567 0.500000
O O16 0.851432 0.000000 0.500000
#
# Coordination Sequence:
#
# PCOD8279952 Si02
#       6
#    16  16  16  16  16  16
#     4  10  20  34  54  79 106 136 173 219 267 312
#     4  11  22  35  54  79 106 139 179 219 259 308
#     4   9  18  33  53  79 108 137 172 214 262 315
#     4  10  20  34  54  80 110 142 175 215 262 311
#     4   9  18  34  55  77 102 135 177 221 262 309
#     4   9  16  28  50  78 105 135 171 210 255 310
#
# _framework density 19.683913
#
# number of rings (size 3 to 8) (size 9 to 14) (size 15 to 20)
#    0.000    2.333    0.000    3.000    0.000    7.333 
#    0.000    0.833    0.000   11.500    0.000    7.000 
#    0.000    0.000    0.000    0.000    0.000    0.000 
#
# Total GULP energy -594755.640245 kJ/mol
# GULP energy per Si atom -12390.742505 kJ/mol
# Density = 1.963911 g / cm^3
# Si number density = 19.683913 Si / 1000 Ang^3
#
#
#
# Elastic Constant Matrix: (Units=GPa)
#
#
# Indices 1 2 3 4 5 6 
#
# 1 95.7079 36.4439 32.3838 0.0000 0.0000 0.0000
# 2 36.4439 81.7000 54.8107 0.0000 0.0000 0.0000
# 3 32.3838 54.8107 90.4368 0.0000 0.0000 0.0000
# 4 0.0000 0.0000 0.0000 27.9546 0.0000 0.0000
# 5 0.0000 0.0000 0.0000 0.0000 29.2756 0.0000
# 6 0.0000 0.0000 0.0000 0.0000 0.0000 21.6393
#
#
#
# Elastic Compliance Matrix: (Units=1/GPa)
#
#
# Indices 1 2 3 4 5 6 
#
# 1 0.012775 -0.004431 -0.001889 0.000000 0.000000 0.000000
# 2 -0.004431 0.022164 -0.011846 0.000000 0.000000 0.000000
# 3 -0.001889 -0.011846 0.018913 0.000000 0.000000 0.000000
# 4 0.000000 0.000000 0.000000 0.035772 0.000000 0.000000
# 5 0.000000 0.000000 0.000000 0.000000 0.034158 0.000000
# 6 0.000000 0.000000 0.000000 0.000000 0.000000 0.046212
#
#
# Mechanical properties :
#
#
# Convention : Reuss Voigt Hill
#
# Bulk Modulus (GPa) = 57.07837 57.23571 57.15704
# Shear Modulus (GPa) = 23.56640 25.38766 24.47703
#
# Velocity S-wave (km/s) = 3.46387 3.59523 3.53016
# Velocity P-wave (km/s) = 6.71255 6.80990 6.76140
#
# Compressibility (1/GPa) = 0.01751977
#
# Stress axis : x y z
#
# Youngs Moduli (GPa) = 78.27833 45.11867 52.87315
#
# Poissons Ratio (x) = 0.19994 0.09986
# Poissons Ratio (y) = 0.34688 0.62633
# Poissons Ratio (z) = 0.14785 0.53447
#
# Static dielectric constant tensor:
#      x y z
#    x 3.826230 0.000000 0.000000 
#    y 0.000000 3.274660 0.000000 
#    z 0.000000 0.000000 3.622060 
# 
# 
# High freq. dielectric constant tensor:
#      x y z
#    x 1.783380 0.000000 0.000000 
#    y 0.000000 1.725490 0.000000 
#    z 0.000000 0.000000 1.754760 
# 
# From -- ./inp_files/27234.got.cif
#   From: 2010.03.12/outbox.cif.g09.slc.cpg/sg67_14_cif.got.tgz:27234.got - 2010.04.10 22:41:39.
