data_PCOD8279749
_publ_section_title
;
Structure prediction by ZEFSAII (Michael W. Deem and Ramdas Pophale) SiO2 
 PCOD8279749
Probable space group: C M M A
;
_chemical_formula_sum "Si O2"
_cell_formula_units_Z 80
_cell_length_a 14.924246
_cell_length_b 18.735744
_cell_length_c 13.020738
_cell_angle_alpha 90.000000
_cell_angle_beta 90.000000
_cell_angle_gamma 90.000000
_cell_volume 3640.817776
_symmetry_space_group_name_H-M "C M M A"
_symmetry_group_IT_number 67
_symmetry_cell_setting 'orthorhombic'
loop_
_space_group_symop_operation_xyz
x,y,z
-x,1/2-y,z
x,-y,-z
-x,1/2+y,-z
-x,-y,-z
x,1/2+y,-z
-x,y,z
x,1/2-y,z
1/2+x,1/2+y,z
1/2-x,-y,z
1/2+x,1/2-y,-z
1/2-x,y,-z
1/2-x,1/2-y,-z
1/2+x,y,-z
1/2-x,1/2+y,z
1/2+x,-y,z
loop_
_atom_site_type_symbol
_atom_site_label
_atom_site_fract_x
_atom_site_fract_y
_atom_site_fract_z
Si Si1 0.320783 0.331854 0.914950
Si Si2 0.603400 0.910178 0.728361
Si Si3 0.103027 0.954488 0.598924
Si Si4 0.773114 0.666460 0.679959
Si Si5 0.099292 0.068316 0.952866
O O1 0.335899 0.250000 0.936241
O O2 0.301031 0.347136 0.797291
O O3 0.250000 0.362853 0.000000
O O4 0.408419 0.372791 0.955887
O O5 0.500000 0.885089 0.711134
O O6 0.669511 0.857741 0.664242
O O7 0.639381 0.902888 0.845318
O O8 0.615589 0.992731 0.695562
O O9 0.163069 0.883181 0.609968
O O10 0.000000 0.929475 0.587100
O O11 0.133570 0.000000 0.500000
O O12 0.783524 0.750000 0.649126
O O13 0.000000 0.043634 0.920406
O O14 0.151573 0.000000 0.000000
#
# Coordination Sequence:
#
# PCOD8279749 Si02
#       5
#    16  16  16  16  16
#     4  10  20  35  53  81 123 165 203 245 304 369
#     4  10  21  38  60  88 125 169 214 262 319 384
#     4  10  23  45  69  91 121 163 209 266 334 390
#     4  11  23  39  64  96 128 165 213 266 317 383
#     4  10  20  33  52  81 116 158 212 265 311 368
#
# _framework density 21.973085000000001
#
# number of rings (size 3 to 8) (size 9 to 14) (size 15 to 20)
#    0.000    1.800    2.000    1.800    0.000    5.600 
#    0.000    6.000    0.000    3.600    0.000    0.000 
#    0.000    0.000    0.000    0.000    0.000    0.000 
#
# Total GULP energy -495600.912387 kJ/mol
# GULP energy per Si atom -12390.022810 kJ/mol
# Density = 2.192307 g / cm^3
# Si number density = 21.973085 Si / 1000 Ang^3
#
#
#
# Elastic Constant Matrix: (Units=GPa)
#
#
# Indices 1 2 3 4 5 6 
#
# 1 104.2028 76.2963 38.7515 0.0000 0.0000 0.0000
# 2 76.2963 130.9390 51.5473 0.0000 0.0000 0.0000
# 3 38.7515 51.5473 78.7216 0.0000 0.0000 0.0000
# 4 0.0000 0.0000 0.0000 36.9063 0.0000 0.0000
# 5 0.0000 0.0000 0.0000 0.0000 26.2663 0.0000
# 6 0.0000 0.0000 0.0000 0.0000 0.0000 -6.8677
#
#
#
# Elastic Compliance Matrix: (Units=1/GPa)
#
#
# Indices 1 2 3 4 5 6 
#
# 1 0.017110 -0.008965 -0.002552 0.000000 0.000000 0.000000
# 2 -0.008965 0.014987 -0.005400 0.000000 0.000000 0.000000
# 3 -0.002552 -0.005400 0.017496 0.000000 0.000000 0.000000
# 4 0.000000 0.000000 0.000000 0.027096 0.000000 0.000000
# 5 0.000000 0.000000 0.000000 0.000000 0.038072 0.000000
# 6 0.000000 0.000000 0.000000 0.000000 0.000000 -0.145609
#
#
# Mechanical properties :
#
#
# Convention : Reuss Voigt Hill
#
# Bulk Modulus (GPa) = 63.46311 71.89486 67.67899
# Shear Modulus (GPa) = 606.93069 21.07885 314.00477
#
# Velocity S-wave (km/s) = 16.63776 3.10062 11.96723
# Velocity P-wave (km/s) = 19.95073 6.75345 14.89364
#
# Compressibility (1/GPa) = 0.01575719
#
# Stress axis : x y z
#
# Youngs Moduli (GPa) = 58.44595 66.72501 57.15731
#
# Poissons Ratio (x) = 0.59818 0.14588
# Poissons Ratio (y) = 0.52396 0.30867
# Poissons Ratio (z) = 0.14917 0.36034
#
# Static dielectric constant tensor:
#      x y z
#    x 4.063370 0.000000 0.000000 
#    y 0.000000 3.821920 0.000000 
#    z 0.000000 0.000000 4.002820 
# 
# 
# High freq. dielectric constant tensor:
#      x y z
#    x 1.860620 0.000000 0.000000 
#    y 0.000000 1.855290 0.000000 
#    z 0.000000 0.000000 1.864340 
# 
# From -- ./inp_files/28391.got.cif
#   From: 2010.03.12/outbox.cif.g09.slc.cpg/sg67_15_cif.got.tgz:28391.got - 2010.04.10 22:41:39.
