data_PCOD8279140
_publ_section_title
;
Structure prediction by ZEFSAII (Michael W. Deem and Ramdas Pophale) SiO2 
 PCOD8279140
Probable space group: C M M A
;
_chemical_formula_sum "Si O2"
_cell_formula_units_Z 80
_cell_length_a 19.148422
_cell_length_b 8.613473
_cell_length_c 25.716144
_cell_angle_alpha 90.000000
_cell_angle_beta 90.000000
_cell_angle_gamma 90.000000
_cell_volume 4241.477190
_symmetry_space_group_name_H-M "C M M A"
_symmetry_group_IT_number 67
_symmetry_cell_setting 'orthorhombic'
loop_
_space_group_symop_operation_xyz
x,y,z
-x,1/2-y,z
x,-y,-z
-x,1/2+y,-z
-x,-y,-z
x,1/2+y,-z
-x,y,z
x,1/2-y,z
1/2+x,1/2+y,z
1/2-x,-y,z
1/2+x,1/2-y,-z
1/2-x,y,-z
1/2-x,1/2-y,-z
1/2+x,y,-z
1/2-x,1/2+y,z
1/2+x,-y,z
loop_
_atom_site_type_symbol
_atom_site_label
_atom_site_fract_x
_atom_site_fract_y
_atom_site_fract_z
Si Si1 0.674680 0.565622 0.944644
Si Si2 0.421582 0.065665 0.148993
Si Si3 0.921083 0.066599 0.446437
Si Si4 0.325972 0.565591 0.757021
Si Si5 0.674434 0.065539 0.647320
O O1 0.679742 0.750000 0.947446
O O2 0.750000 0.500000 0.928621
O O3 0.618576 0.507774 0.902405
O O4 0.649989 0.500000 0.000000
O O5 0.500000 0.996223 0.149163
O O6 0.424418 0.250000 0.149375
O O7 0.380495 0.006313 0.199797
O O8 0.918143 0.250000 0.449376
O O9 0.876843 0.005381 0.397713
O O10 0.000000 0.005647 0.439011
O O11 0.889236 0.000000 0.500000
O O12 0.321052 0.750000 0.754876
O O13 0.250000 0.500000 0.771067
O O14 0.352996 0.501585 0.701904
O O15 0.677416 0.250000 0.650961
O O16 0.750000 0.000000 0.633755
#
# Coordination Sequence:
#
# PCOD8279140 Si02
#       5
#    16  16  16  16  16
#     4  10  19  33  54  76 101 132 167 207 247 293
#     4   9  19  34  51  74 103 133 165 204 250 295
#     4   9  19  35  53  73  99 132 167 203 245 293
#     4  10  19  33  54  75  98 130 167 205 245 294
#     4  10  20  34  52  75 103 131 163 205 250 294
#
# _framework density 18.861353999999999
#
# number of rings (size 3 to 8) (size 9 to 14) (size 15 to 20)
#    0.000    2.400    0.000    4.200    0.000    3.200 
#    0.000    5.000    0.000    8.400    0.000    0.000 
#    0.000    0.000    0.000    0.000    0.000    0.000 
#
# Total GULP energy -496026.319441 kJ/mol
# GULP energy per Si atom -12400.657986 kJ/mol
# Density = 1.881842 g / cm^3
# Si number density = 18.861354 Si / 1000 Ang^3
#
#
#
# Elastic Constant Matrix: (Units=GPa)
#
#
# Indices 1 2 3 4 5 6 
#
# 1 134.8061 29.2666 120.5746 0.0000 0.0000 0.0000
# 2 29.2666 59.1426 39.3788 0.0000 0.0000 0.0000
# 3 120.5746 39.3788 195.8765 0.0000 0.0000 0.0000
# 4 0.0000 0.0000 0.0000 23.4597 0.0000 0.0000
# 5 0.0000 0.0000 0.0000 0.0000 33.8353 0.0000
# 6 0.0000 0.0000 0.0000 0.0000 0.0000 21.3567
#
#
#
# Elastic Compliance Matrix: (Units=1/GPa)
#
#
# Indices 1 2 3 4 5 6 
#
# 1 0.016641 -0.001633 -0.009916 0.000000 0.000000 0.000000
# 2 -0.001633 0.019682 -0.002952 0.000000 0.000000 0.000000
# 3 -0.009916 -0.002952 0.011802 0.000000 0.000000 0.000000
# 4 0.000000 0.000000 0.000000 0.042626 0.000000 0.000000
# 5 0.000000 0.000000 0.000000 0.000000 0.029555 0.000000
# 6 0.000000 0.000000 0.000000 0.000000 0.000000 0.046824
#
#
# Mechanical properties :
#
#
# Convention : Reuss Voigt Hill
#
# Bulk Modulus (GPa) = 52.28723 85.36281 68.82502
# Shear Modulus (GPa) = 24.69073 29.10401 26.89737
#
# Velocity S-wave (km/s) = 3.62202 3.93243 3.78041
# Velocity P-wave (km/s) = 6.72861 8.12250 7.45819
#
# Compressibility (1/GPa) = 0.01912513
#
# Stress axis : x y z
#
# Youngs Moduli (GPa) = 60.09148 50.80890 84.72935
#
# Poissons Ratio (x) = 0.08297 0.84014
# Poissons Ratio (y) = 0.09812 0.25009
# Poissons Ratio (z) = 0.59584 0.14997
#
# Static dielectric constant tensor:
#      x y z
#    x 3.617340 0.000000 0.000000 
#    y 0.000000 3.291890 0.000000 
#    z 0.000000 0.000000 3.753510 
# 
# 
# High freq. dielectric constant tensor:
#      x y z
#    x 1.727490 0.000000 0.000000 
#    y 0.000000 1.721920 0.000000 
#    z 0.000000 0.000000 1.747950 
# 
# From -- ./inp_files/43344.got.cif
#   From: 2010.03.12/outbox.cif.g09.slc.cpg/sg67_22_cif.got.tgz:43344.got - 2010.04.10 22:41:39.
