data_PCOD8279165
_publ_section_title
;
Structure prediction by ZEFSAII (Michael W. Deem and Ramdas Pophale) SiO2 
 PCOD8279165
Probable space group: C M M A
;
_chemical_formula_sum "Si O2"
_cell_formula_units_Z 80
_cell_length_a 9.516739
_cell_length_b 19.094305
_cell_length_c 23.480525
_cell_angle_alpha 90.000000
_cell_angle_beta 90.000000
_cell_angle_gamma 90.000000
_cell_volume 4266.775741
_symmetry_space_group_name_H-M "C M M A"
_symmetry_group_IT_number 67
_symmetry_cell_setting 'orthorhombic'
loop_
_space_group_symop_operation_xyz
x,y,z
-x,1/2-y,z
x,-y,-z
-x,1/2+y,-z
-x,-y,-z
x,1/2+y,-z
-x,y,z
x,1/2-y,z
1/2+x,1/2+y,z
1/2-x,-y,z
1/2+x,1/2-y,-z
1/2-x,y,-z
1/2-x,1/2-y,-z
1/2+x,y,-z
1/2-x,1/2+y,z
1/2+x,-y,z
loop_
_atom_site_type_symbol
_atom_site_label
_atom_site_fract_x
_atom_site_fract_y
_atom_site_fract_z
Si Si1 0.343809 0.062579 0.231689
Si Si2 0.500000 0.332595 0.042978
Si Si3 0.283491 0.167646 0.135479
Si Si4 0.668697 0.570131 0.637951
Si Si5 0.664234 0.167378 0.556168
Si Si6 0.000000 0.332807 0.083123
O O1 0.500000 0.032426 0.231705
O O2 0.334977 0.130874 0.192559
O O3 0.301109 0.083605 0.295552
O O4 0.250000 0.000000 0.207019
O O5 0.500000 0.250000 0.034939
O O6 0.633941 0.356680 0.079161
O O7 0.500000 0.367545 0.980098
O O8 0.301439 0.250000 0.146245
O O9 0.127883 0.142753 0.121752
O O10 0.500000 0.567060 0.624403
O O11 0.750000 0.500000 0.617849
O O12 0.747930 0.633829 0.607535
O O13 0.500000 0.142214 0.553276
O O14 0.668646 0.250000 0.565390
O O15 0.750000 0.144969 0.500000
O O16 0.000000 0.250000 0.074621
#
# Coordination Sequence:
#
# PCOD8279165 Si02
#       6
#    16   8  16  16  16   8
#     4  10  22  38  57  78 107 147 183 224 278 329
#     4   9  16  30  53  77 107 137 174 223 272 327
#     4  10  19  33  54  81 107 136 180 226 272 326
#     4  10  21  38  59  83 111 147 193 236 278 330
#     4  10  21  38  60  88 121 154 187 226 276 327
#     4   9  18  30  49  81 109 137 172 221 278 323
#
# _framework density 18.749521000000001
#
# number of rings (size 3 to 8) (size 9 to 14) (size 15 to 20)
#    0.000    2.200    1.000    1.800    1.400    5.600 
#    0.000    4.000    0.000    3.600    0.000    0.000 
#    0.000    0.000    0.000    0.000    0.000    0.000 
#
# Total GULP energy -495794.148178 kJ/mol
# GULP energy per Si atom -12394.853704 kJ/mol
# Density = 1.870685 g / cm^3
# Si number density = 18.749521 Si / 1000 Ang^3
#
#
#
# Elastic Constant Matrix: (Units=GPa)
#
#
# Indices 1 2 3 4 5 6 
#
# 1 129.8809 26.7267 34.5394 0.0000 0.0000 0.0000
# 2 26.7267 46.2753 35.6044 0.0000 0.0000 0.0000
# 3 34.5394 35.6044 84.5604 0.0000 0.0000 0.0000
# 4 0.0000 0.0000 0.0000 15.7321 0.0000 0.0000
# 5 0.0000 0.0000 0.0000 0.0000 37.7265 0.0000
# 6 0.0000 0.0000 0.0000 0.0000 0.0000 27.3934
#
#
#
# Elastic Compliance Matrix: (Units=1/GPa)
#
#
# Indices 1 2 3 4 5 6 
#
# 1 0.009007 -0.003508 -0.002202 0.000000 0.000000 0.000000
# 2 -0.003508 0.033331 -0.012601 0.000000 0.000000 0.000000
# 3 -0.002202 -0.012601 0.018031 0.000000 0.000000 0.000000
# 4 0.000000 0.000000 0.000000 0.063564 0.000000 0.000000
# 5 0.000000 0.000000 0.000000 0.000000 0.026507 0.000000
# 6 0.000000 0.000000 0.000000 0.000000 0.000000 0.036505
#
#
# Mechanical properties :
#
#
# Convention : Reuss Voigt Hill
#
# Bulk Modulus (GPa) = 42.11074 50.49529 46.30301
# Shear Modulus (GPa) = 21.59985 27.09348 24.34667
#
# Velocity S-wave (km/s) = 3.39783 3.80547 3.60741
# Velocity P-wave (km/s) = 6.15646 6.80432 6.48848
#
# Compressibility (1/GPa) = 0.02374691
#
# Stress axis : x y z
#
# Youngs Moduli (GPa) = 111.02795 30.00181 55.45953
#
# Poissons Ratio (x) = 0.10524 0.12212
# Poissons Ratio (y) = 0.38946 0.69887
# Poissons Ratio (z) = 0.24448 0.37807
#
# Static dielectric constant tensor:
#      x y z
#    x 3.822730 0.000000 0.000000 
#    y 0.000000 3.094110 0.000000 
#    z 0.000000 0.000000 3.450310 
# 
# 
# High freq. dielectric constant tensor:
#      x y z
#    x 1.751940 0.000000 0.000000 
#    y 0.000000 1.694680 0.000000 
#    z 0.000000 0.000000 1.732310 
# 
# From -- ./inp_files/40576.got.cif
#   From: 2010.03.12/outbox.cif.g09.slc.cpg/sg67_21_cif.got.tgz:40576.got - 2010.04.10 22:41:39.
