data_PCOD8279669
_publ_section_title
;
Structure prediction by ZEFSAII (Michael W. Deem and Ramdas Pophale) SiO2 
 PCOD8279669
Probable space group: C M M A
;
_chemical_formula_sum "Si O2"
_cell_formula_units_Z 96
_cell_length_a 8.857683
_cell_length_b 19.078142
_cell_length_c 30.258781
_cell_angle_alpha 90.000000
_cell_angle_beta 90.000000
_cell_angle_gamma 90.000000
_cell_volume 5113.374940
_symmetry_space_group_name_H-M "C M M A"
_symmetry_group_IT_number 67
_symmetry_cell_setting 'orthorhombic'
loop_
_space_group_symop_operation_xyz
x,y,z
-x,1/2-y,z
x,-y,-z
-x,1/2+y,-z
-x,-y,-z
x,1/2+y,-z
-x,y,z
x,1/2-y,z
1/2+x,1/2+y,z
1/2-x,-y,z
1/2+x,1/2-y,-z
1/2-x,y,-z
1/2-x,1/2-y,-z
1/2+x,y,-z
1/2-x,1/2+y,z
1/2+x,-y,z
loop_
_atom_site_type_symbol
_atom_site_label
_atom_site_fract_x
_atom_site_fract_y
_atom_site_fract_z
Si Si1 0.178359 0.072528 0.703190
Si Si2 0.324079 0.070975 0.197021
Si Si3 0.670187 0.833501 0.543877
Si Si4 0.675764 0.168631 0.118054
Si Si5 0.672720 0.832868 0.367281
Si Si6 0.679480 0.927130 0.047200
O O1 0.231844 0.088340 0.753405
O O2 0.236288 0.135837 0.673543
O O3 0.000000 0.067231 0.699229
O O4 0.250000 0.000000 0.686326
O O5 0.500000 0.056760 0.197134
O O6 0.280490 0.135152 0.165231
O O7 0.250000 0.000000 0.178668
O O8 0.500000 0.862313 0.545650
O O9 0.671777 0.750000 0.542711
O O10 0.750000 0.863600 0.500000
O O11 0.758885 0.861155 0.586750
O O12 0.500000 0.155999 0.106862
O O13 0.715701 0.250000 0.120894
O O14 0.778374 0.134920 0.080294
O O15 0.500000 0.857005 0.364952
O O16 0.689737 0.750000 0.364091
O O17 0.500000 0.934551 0.043150
O O18 0.750000 0.000000 0.064830
O O19 0.750000 0.908008 0.000000
#
# Coordination Sequence:
#
# PCOD8279669 Si02
#       6
#    16  16  16  16  16  16
#     4  10  20  35  55  78 105 138 177 218 263 316
#     4   9  19  35  56  79 103 137 178 219 262 312
#     4   9  16  27  45  70 100 134 172 214 260 310
#     4  10  21  37  56  81 114 147 178 217 267 318
#     4  10  20  33  50  75 106 138 174 218 266 313
#     4  11  22  38  60  84 110 142 183 225 266 314
#
# _framework density 18.774291999999999
#
# number of rings (size 3 to 8) (size 9 to 14) (size 15 to 20)
#    0.000    2.167    0.000    4.000    0.000    7.000 
#    0.000    1.667    0.000    0.500    0.000    3.500 
#    0.000    0.000    0.000    0.000    0.000    0.000 
#
# Total GULP energy -595330.736056 kJ/mol
# GULP energy per Si atom -12402.723668 kJ/mol
# Density = 1.873156 g / cm^3
# Si number density = 18.774292 Si / 1000 Ang^3
#
#
#
# Elastic Constant Matrix: (Units=GPa)
#
#
# Indices 1 2 3 4 5 6 
#
# 1 113.7598 44.5134 56.4910 0.0000 0.0000 0.0000
# 2 44.5134 83.2604 61.6832 0.0000 0.0000 0.0000
# 3 56.4910 61.6832 120.1712 0.0000 0.0000 0.0000
# 4 0.0000 0.0000 0.0000 18.8158 0.0000 0.0000
# 5 0.0000 0.0000 0.0000 0.0000 32.2396 0.0000
# 6 0.0000 0.0000 0.0000 0.0000 0.0000 28.3033
#
#
#
# Elastic Compliance Matrix: (Units=1/GPa)
#
#
# Indices 1 2 3 4 5 6 
#
# 1 0.012116 -0.003643 -0.003825 0.000000 0.000000 0.000000
# 2 -0.003643 0.020476 -0.008797 0.000000 0.000000 0.000000
# 3 -0.003825 -0.008797 0.014635 0.000000 0.000000 0.000000
# 4 0.000000 0.000000 0.000000 0.053147 0.000000 0.000000
# 5 0.000000 0.000000 0.000000 0.000000 0.031018 0.000000
# 6 0.000000 0.000000 0.000000 0.000000 0.000000 0.035332
#
#
# Mechanical properties :
#
#
# Convention : Reuss Voigt Hill
#
# Bulk Modulus (GPa) = 68.05200 71.39630 69.72415
# Shear Modulus (GPa) = 24.49136 26.17200 25.33168
#
# Velocity S-wave (km/s) = 3.61573 3.73773 3.67723
# Velocity P-wave (km/s) = 7.33195 7.53251 7.43291
#
# Compressibility (1/GPa) = 0.01469465
#
# Stress axis : x y z
#
# Youngs Moduli (GPa) = 82.53781 48.83776 68.32768
#
# Poissons Ratio (x) = 0.17794 0.26137
# Poissons Ratio (y) = 0.30072 0.60111
# Poissons Ratio (z) = 0.31573 0.42965
#
# Static dielectric constant tensor:
#      x y z
#    x 3.537440 0.000000 0.000000 
#    y 0.000000 3.200740 0.000000 
#    z 0.000000 0.000000 3.645840 
# 
# 
# High freq. dielectric constant tensor:
#      x y z
#    x 1.738330 0.000000 0.000000 
#    y 0.000000 1.702240 0.000000 
#    z 0.000000 0.000000 1.740980 
# 
# From -- ./inp_files/43475.got.cif
#   From: 2010.03.12/outbox.cif.g09.slc.cpg/sg67_22_cif.got.tgz:43475.got - 2010.04.10 22:41:39.
