data_PCOD8279655
_publ_section_title
;
Structure prediction by ZEFSAII (Michael W. Deem and Ramdas Pophale) SiO2 
 PCOD8279655
Probable space group: C M M A
;
_chemical_formula_sum "Si O2"
_cell_formula_units_Z 96
_cell_length_a 30.214780
_cell_length_b 8.832648
_cell_length_c 20.732475
_cell_angle_alpha 90.000000
_cell_angle_beta 90.000000
_cell_angle_gamma 90.000000
_cell_volume 5533.010699
_symmetry_space_group_name_H-M "C M M A"
_symmetry_group_IT_number 67
_symmetry_cell_setting 'orthorhombic'
loop_
_space_group_symop_operation_xyz
x,y,z
-x,1/2-y,z
x,-y,-z
-x,1/2+y,-z
-x,-y,-z
x,1/2+y,-z
-x,y,z
x,1/2-y,z
1/2+x,1/2+y,z
1/2-x,-y,z
1/2+x,1/2-y,-z
1/2-x,y,-z
1/2-x,1/2-y,-z
1/2+x,y,-z
1/2-x,1/2+y,z
1/2+x,-y,z
loop_
_atom_site_type_symbol
_atom_site_label
_atom_site_fract_x
_atom_site_fract_y
_atom_site_fract_z
Si Si1 0.207878 0.413712 0.275873
Si Si2 0.888653 0.069663 0.299821
Si Si3 0.791536 0.916513 0.574924
Si Si4 0.382795 0.428561 0.435366
Si Si5 0.947336 0.420631 0.064157
Si Si6 0.947677 0.576316 0.194650
O O1 0.206056 0.250000 0.241284
O O2 0.250000 0.500000 0.243764
O O3 0.158923 0.491942 0.271948
O O4 0.218116 0.391651 0.350477
O O5 0.885447 0.250000 0.308580
O O6 0.901844 0.999696 0.369179
O O7 0.926724 0.024503 0.250568
O O8 0.800636 0.750000 0.544016
O O9 0.750000 0.000000 0.542396
O O10 0.831242 0.031226 0.561241
O O11 0.405769 0.500000 0.500000
O O12 0.390979 0.250000 0.434361
O O13 0.928771 0.250000 0.068334
O O14 0.930789 0.514669 0.125882
O O15 0.000000 0.418893 0.061459
O O16 0.928192 0.500000 0.000000
O O17 0.932764 0.750000 0.201643
O O18 0.000000 0.558640 0.200632
#
# Coordination Sequence:
#
# PCOD8279655 Si02
#       6
#    16  16  16  16  16  16
#     4   8  15  26  42  63  88 117 150 189 232 281
#     4  10  20  34  50  70  95 124 160 200 243 291
#     4   9  16  27  41  60  84 111 144 183 230 286
#     4  11  21  33  47  63  84 113 150 194 244 294
#     4   9  16  27  45  70 101 135 165 193 228 273
#     4  10  20  33  50  74 102 132 166 200 235 279
#
# _framework density 17.350408000000002
#
# number of rings (size 3 to 8) (size 9 to 14) (size 15 to 20)
#    0.000    2.500    0.000    4.500    0.000    8.000 
#    0.000    1.667    0.000    0.500    0.000    0.000 
#    0.000    0.667    0.000    7.000    0.000    4.333 
#
# Total GULP energy -594751.666438 kJ/mol
# GULP energy per Si atom -12390.659717 kJ/mol
# Density = 1.731092 g / cm^3
# Si number density = 17.350408 Si / 1000 Ang^3
#
#
#
# Elastic Constant Matrix: (Units=GPa)
#
#
# Indices 1 2 3 4 5 6 
#
# 1 29.9423 23.2055 28.8253 0.0000 0.0000 0.0000
# 2 23.2055 111.9177 39.0253 0.0000 0.0000 0.0000
# 3 28.8253 39.0253 103.6708 0.0000 0.0000 0.0000
# 4 0.0000 0.0000 0.0000 28.0593 0.0000 0.0000
# 5 0.0000 0.0000 0.0000 0.0000 -0.2570 0.0000
# 6 0.0000 0.0000 0.0000 0.0000 0.0000 20.0242
#
#
#
# Elastic Compliance Matrix: (Units=1/GPa)
#
#
# Indices 1 2 3 4 5 6 
#
# 1 0.049122 -0.006242 -0.011308 0.000000 0.000000 0.000000
# 2 -0.006242 0.011078 -0.002435 0.000000 0.000000 0.000000
# 3 -0.011308 -0.002435 0.013707 0.000000 0.000000 0.000000
# 4 0.000000 0.000000 0.000000 0.035639 0.000000 0.000000
# 5 0.000000 0.000000 0.000000 0.000000 -3.890649 0.000000
# 6 0.000000 0.000000 0.000000 0.000000 0.000000 0.049939
#
#
# Mechanical properties :
#
#
# Convention : Reuss Voigt Hill
#
# Bulk Modulus (GPa) = 29.46675 47.51591 38.49133
# Shear Modulus (GPa) = -1.35874 19.86361 9.25244
#
# Velocity S-wave (km/s) = -0.88590 3.38723 2.31177
# Velocity P-wave (km/s) = 3.99672 6.53784 5.41835
#
# Compressibility (1/GPa) = 0.03393655
#
# Stress axis : x y z
#
# Youngs Moduli (GPa) = 20.35765 90.26623 72.95700
#
# Poissons Ratio (x) = 0.56343 0.82503
# Poissons Ratio (y) = 0.12707 0.17763
# Poissons Ratio (z) = 0.23021 0.21978
#
# Static dielectric constant tensor:
#      x y z
#    x 2.903010 0.000000 0.000000 
#    y 0.000000 3.551550 0.000000 
#    z 0.000000 0.000000 3.212210 
# 
# 
# High freq. dielectric constant tensor:
#      x y z
#    x 1.620850 0.000000 0.000000 
#    y 0.000000 1.687050 0.000000 
#    z 0.000000 0.000000 1.650830 
# 
# From -- ./inp_files/39880.got.cif
#   From: 2010.03.12/outbox.cif.g09.slc.cpg/sg67_20_cif.got.tgz:39880.got - 2010.04.10 22:41:39.
