data_PCOD8279788
_publ_section_title
;
Structure prediction by ZEFSAII (Michael W. Deem and Ramdas Pophale) SiO2 
 PCOD8279788
Probable space group: C M M A
;
_chemical_formula_sum "Si O2"
_cell_formula_units_Z 112
_cell_length_a 19.418220
_cell_length_b 18.128096
_cell_length_c 17.185257
_cell_angle_alpha 90.000000
_cell_angle_beta 90.000000
_cell_angle_gamma 90.000000
_cell_volume 6049.474366
_symmetry_space_group_name_H-M "C M M A"
_symmetry_group_IT_number 67
_symmetry_cell_setting 'orthorhombic'
loop_
_space_group_symop_operation_xyz
x,y,z
-x,1/2-y,z
x,-y,-z
-x,1/2+y,-z
-x,-y,-z
x,1/2+y,-z
-x,y,z
x,1/2-y,z
1/2+x,1/2+y,z
1/2-x,-y,z
1/2+x,1/2-y,-z
1/2-x,y,-z
1/2-x,1/2-y,-z
1/2+x,y,-z
1/2-x,1/2+y,z
1/2+x,-y,z
loop_
_atom_site_type_symbol
_atom_site_label
_atom_site_fract_x
_atom_site_fract_y
_atom_site_fract_z
Si Si1 0.684030 0.335004 0.267925
Si Si2 0.579342 0.449679 0.209727
Si Si3 0.674866 0.478363 0.910628
Si Si4 0.806098 0.336853 0.558792
Si Si5 0.177791 0.665707 0.822518
Si Si6 0.919594 0.081707 0.477011
Si Si7 0.921442 0.902412 0.700913
O O1 0.662792 0.250000 0.271727
O O2 0.615742 0.376876 0.241259
O O3 0.708529 0.362981 0.352960
O O4 0.745268 0.348729 0.207453
O O5 0.500000 0.431444 0.191849
O O6 0.615176 0.475634 0.130489
O O7 0.587582 0.513026 0.273936
O O8 0.750000 0.500000 0.877394
O O9 0.663524 0.390628 0.894081
O O10 0.669485 0.500000 0.000000
O O11 0.802170 0.250000 0.552879
O O12 0.750000 0.372721 0.500000
O O13 0.881989 0.361641 0.533745
O O14 0.168696 0.750000 0.851967
O O15 0.125568 0.652034 0.751396
O O16 0.899315 0.101672 0.388709
O O17 0.000000 0.091439 0.491916
O O18 0.895390 0.000000 0.500000
O O19 0.000000 0.876505 0.712745
#
# Coordination Sequence:
#
# PCOD8279788 Si02
#       7
#    16  16  16  16  16  16  16
#     4  10  20  34  53  77 105 143 188 230 275 326
#     4  10  20  36  57  81 110 145 182 223 272 328
#     4  10  20  38  62  87 115 143 179 221 266 331
#     4  10  21  35  50  72 104 141 183 232 280 326
#     4  10  20  36  58  84 113 145 181 227 278 330
#     4  10  20  34  50  73 105 141 186 235 281 329
#     4   9  19  33  53  78 105 143 187 233 282 331
#
# _framework density 18.514005000000001
#
# number of rings (size 3 to 8) (size 9 to 14) (size 15 to 20)
#    0.000    2.143    1.429    1.714    0.000    4.857 
#    0.000    7.857    0.000    0.000    0.000    0.000 
#    0.000    0.000    0.000    0.000    0.000    0.000 
#
# Total GULP energy -694431.784709 kJ/mol
# GULP energy per Si atom -12400.567584 kJ/mol
# Density = 1.847187 g / cm^3
# Si number density = 18.514005 Si / 1000 Ang^3
#
#
#
# Elastic Constant Matrix: (Units=GPa)
#
#
# Indices 1 2 3 4 5 6 
#
# 1 95.1607 44.5562 34.4518 0.0000 0.0000 0.0000
# 2 44.5562 75.5364 56.5086 0.0000 0.0000 0.0000
# 3 34.4518 56.5086 92.2128 0.0000 0.0000 0.0000
# 4 0.0000 0.0000 0.0000 20.8720 0.0000 0.0000
# 5 0.0000 0.0000 0.0000 0.0000 25.9921 0.0000
# 6 0.0000 0.0000 0.0000 0.0000 0.0000 30.3545
#
#
#
# Elastic Compliance Matrix: (Units=1/GPa)
#
#
# Indices 1 2 3 4 5 6 
#
# 1 0.014524 -0.008323 -0.000326 0.000000 0.000000 0.000000
# 2 -0.008323 0.029215 -0.014794 0.000000 0.000000 0.000000
# 3 -0.000326 -0.014794 0.020032 0.000000 0.000000 0.000000
# 4 0.000000 0.000000 0.000000 0.047911 0.000000 0.000000
# 5 0.000000 0.000000 0.000000 0.000000 0.038473 0.000000
# 6 0.000000 0.000000 0.000000 0.000000 0.000000 0.032944
#
#
# Mechanical properties :
#
#
# Convention : Reuss Voigt Hill
#
# Bulk Modulus (GPa) = 59.22230 59.32700 59.27465
# Shear Modulus (GPa) = 21.22125 23.93661 22.57893
#
# Velocity S-wave (km/s) = 3.38927 3.59958 3.49601
# Velocity P-wave (km/s) = 6.88284 7.02780 6.95570
#
# Compressibility (1/GPa) = 0.01688553
#
# Stress axis : x y z
#
# Youngs Moduli (GPa) = 68.85352 34.22853 49.92071
#
# Poissons Ratio (x) = 0.28490 0.01625
# Poissons Ratio (y) = 0.57309 0.73851
# Poissons Ratio (z) = 0.02242 0.50637
#
# Static dielectric constant tensor:
#      x y z
#    x 3.513390 0.000000 0.000000 
#    y 0.000000 3.303600 0.000000 
#    z 0.000000 0.000000 3.332980 
# 
# 
# High freq. dielectric constant tensor:
#      x y z
#    x 1.723070 0.000000 0.000000 
#    y 0.000000 1.713210 0.000000 
#    z 0.000000 0.000000 1.709830 
# 
# From -- ./inp_files/35121.got.cif
#   From: 2010.03.12/outbox.cif.g09.slc.cpg/sg67_18_cif.got.tgz:35121.got - 2010.04.10 22:41:39.
