data_PCOD8279243
_publ_section_title
;
Structure prediction by ZEFSAII (Michael W. Deem and Ramdas Pophale) SiO2 
 PCOD8279243
Probable space group: C M M A
;
_chemical_formula_sum "Si O2"
_cell_formula_units_Z 96
_cell_length_a 24.264149
_cell_length_b 18.388335
_cell_length_c 11.991033
_cell_angle_alpha 90.000000
_cell_angle_beta 90.000000
_cell_angle_gamma 90.000000
_cell_volume 5350.126732
_symmetry_space_group_name_H-M "C M M A"
_symmetry_group_IT_number 67
_symmetry_cell_setting 'orthorhombic'
loop_
_space_group_symop_operation_xyz
x,y,z
-x,1/2-y,z
x,-y,-z
-x,1/2+y,-z
-x,-y,-z
x,1/2+y,-z
-x,y,z
x,1/2-y,z
1/2+x,1/2+y,z
1/2-x,-y,z
1/2+x,1/2-y,-z
1/2-x,y,-z
1/2-x,1/2-y,-z
1/2+x,y,-z
1/2-x,1/2+y,z
1/2+x,-y,z
loop_
_atom_site_type_symbol
_atom_site_label
_atom_site_fract_x
_atom_site_fract_y
_atom_site_fract_z
Si Si1 0.065525 0.668059 0.433491
Si Si2 0.563528 0.895000 0.333767
Si Si3 0.739001 0.170174 0.130015
Si Si4 0.359980 0.165418 0.856436
Si Si5 0.647249 0.570598 0.935612
Si Si6 0.436561 0.053768 0.255483
O O1 0.088361 0.750000 0.421048
O O2 0.087228 0.633206 0.548526
O O3 0.086664 0.620738 0.328925
O O4 0.000000 0.666563 0.434823
O O5 0.500000 0.872016 0.318121
O O6 0.597426 0.856917 0.237119
O O7 0.570411 0.981643 0.329685
O O8 0.719999 0.250000 0.176175
O O9 0.797457 0.146218 0.184707
O O10 0.693026 0.107657 0.145681
O O11 0.750000 0.177853 0.000000
O O12 0.364965 0.250000 0.881707
O O13 0.375122 0.126669 0.972579
O O14 0.596748 0.545904 0.858821
O O15 0.671633 0.500000 0.000000
O O16 0.500000 0.065952 0.222245
#
# Coordination Sequence:
#
# PCOD8279243 Si02
#       6
#    16  16  16  16  16  16
#     4   9  18  33  54  77 100 136 184 221 254 308
#     4  10  19  34  54  78 108 140 176 219 265 310
#     4   8  17  33  51  71 101 135 173 219 260 304
#     4  10  20  34  52  78 107 137 176 221 267 309
#     4  11  20  33  51  78 103 141 178 213 255 318
#     4  10  21  35  51  75 110 143 171 213 265 314
#
# _framework density 17.9435
#
# number of rings (size 3 to 8) (size 9 to 14) (size 15 to 20)
#    0.000    2.333    1.667    2.500    0.000    8.333 
#    0.000    0.000    0.000    1.000    0.000    5.833 
#    0.000    0.000    0.000    0.000    0.000    0.000 
#
# Total GULP energy -595041.123486 kJ/mol
# GULP energy per Si atom -12396.690073 kJ/mol
# Density = 1.790266 g / cm^3
# Si number density = 17.943500 Si / 1000 Ang^3
#
#
#
# Elastic Constant Matrix: (Units=GPa)
#
#
# Indices 1 2 3 4 5 6 
#
# 1 64.7152 35.9087 27.8189 0.0000 0.0000 0.0000
# 2 35.9087 112.9304 32.6451 0.0000 0.0000 0.0000
# 3 27.8189 32.6451 59.2352 0.0000 0.0000 0.0000
# 4 0.0000 0.0000 0.0000 29.8708 0.0000 0.0000
# 5 0.0000 0.0000 0.0000 0.0000 4.5469 0.0000
# 6 0.0000 0.0000 0.0000 0.0000 0.0000 26.2853
#
#
#
# Elastic Compliance Matrix: (Units=1/GPa)
#
#
# Indices 1 2 3 4 5 6 
#
# 1 0.021191 -0.004593 -0.007421 0.000000 0.000000 0.000000
# 2 -0.004593 0.011529 -0.004196 0.000000 0.000000 0.000000
# 3 -0.007421 -0.004196 0.022680 0.000000 0.000000 0.000000
# 4 0.000000 0.000000 0.000000 0.033478 0.000000 0.000000
# 5 0.000000 0.000000 0.000000 0.000000 0.219929 0.000000
# 6 0.000000 0.000000 0.000000 0.000000 0.000000 0.038044
#
#
# Mechanical properties :
#
#
# Convention : Reuss Voigt Hill
#
# Bulk Modulus (GPa) = 43.51870 47.73625 45.62747
# Shear Modulus (GPa) = 12.92225 21.50780 17.21502
#
# Velocity S-wave (km/s) = 2.68650 3.46589 3.10078
# Velocity P-wave (km/s) = 5.82485 6.53284 6.18897
#
# Compressibility (1/GPa) = 0.02297863
#
# Stress axis : x y z
#
# Youngs Moduli (GPa) = 47.19049 86.74135 44.09249
#
# Poissons Ratio (x) = 0.39840 0.32720
# Poissons Ratio (y) = 0.21674 0.18503
# Poissons Ratio (z) = 0.35019 0.36401
#
# Static dielectric constant tensor:
#      x y z
#    x 3.421280 0.000000 0.000000 
#    y 0.000000 3.642020 0.000000 
#    z 0.000000 0.000000 3.122230 
# 
# 
# High freq. dielectric constant tensor:
#      x y z
#    x 1.669600 0.000000 0.000000 
#    y 0.000000 1.715150 0.000000 
#    z 0.000000 0.000000 1.668940 
# 
# From -- ./inp_files/19795.got.cif
#   From: 2010.03.12/outbox.cif.g09.slc.cpg/sg67_10_cif.got.tgz:19795.got - 2010.04.10 22:41:39.
