data_PCOD8279773
_publ_section_title
;
Structure prediction by ZEFSAII (Michael W. Deem and Ramdas Pophale) SiO2 
 PCOD8279773
Probable space group: C M M A
;
_chemical_formula_sum "Si O2"
_cell_formula_units_Z 104
_cell_length_a 22.210900
_cell_length_b 9.698456
_cell_length_c 28.666187
_cell_angle_alpha 90.000000
_cell_angle_beta 90.000000
_cell_angle_gamma 90.000000
_cell_volume 6175.024517
_symmetry_space_group_name_H-M "C M M A"
_symmetry_group_IT_number 67
_symmetry_cell_setting 'orthorhombic'
loop_
_space_group_symop_operation_xyz
x,y,z
-x,1/2-y,z
x,-y,-z
-x,1/2+y,-z
-x,-y,-z
x,1/2+y,-z
-x,y,z
x,1/2-y,z
1/2+x,1/2+y,z
1/2-x,-y,z
1/2+x,1/2-y,-z
1/2-x,y,-z
1/2-x,1/2-y,-z
1/2+x,y,-z
1/2-x,1/2+y,z
1/2+x,-y,z
loop_
_atom_site_type_symbol
_atom_site_label
_atom_site_fract_x
_atom_site_fract_y
_atom_site_fract_z
Si Si1 0.928388 0.096004 0.540183
Si Si2 0.500000 0.596820 0.044082
Si Si3 0.381833 0.504059 0.091939
Si Si4 0.428448 0.593889 0.273750
Si Si5 0.928385 0.905217 0.356264
Si Si6 0.696195 0.750000 0.066703
Si Si7 0.668758 0.750000 0.958342
Si Si8 0.069889 0.907987 0.187419
O O1 0.904920 0.250000 0.530804
O O2 0.907790 0.047480 0.591863
O O3 0.000000 0.091989 0.537517
O O4 0.899776 0.000000 0.500000
O O5 0.500000 0.750000 0.023500
O O6 0.442655 0.578283 0.076893
O O7 0.500000 0.500000 0.000000
O O8 0.327663 0.614047 0.092769
O O9 0.368376 0.384909 0.054871
O O10 0.388906 0.439015 0.142924
O O11 0.500000 0.598064 0.276514
O O12 0.402577 0.750000 0.272057
O O13 0.401980 0.514067 0.318958
O O14 0.408083 0.509927 0.228131
O O15 0.904752 0.750000 0.345624
O O16 0.000000 0.903443 0.353179
O O17 0.768102 0.750000 0.068963
O O18 0.674664 0.750000 0.013533
O O19 0.079708 0.750000 0.203452
O O20 0.000000 0.933300 0.174937
#
# Coordination Sequence:
#
# PCOD8279773 Si02
#       8
#    16   8  16  16  16   8   8  16
#     4   8  13  19  27  40  60  88 124 170 222 270
#     4  12  26  38  56  82 110 136 158 192 243 292
#     4  12  23  38  58  81 106 132 163 198 241 290
#     4   9  17  26  40  58  79 106 141 182 224 276
#     4   8  13  22  33  46  66  97 134 172 220 277
#     4  11  24  41  61  81 103 134 165 205 236 273
#     4  11  24  43  61  79 103 134 171 197 234 285
#     4  10  20  34  48  68  96 127 153 183 233 293
#
# _framework density 16.842039
#
# number of rings (size 3 to 8) (size 9 to 14) (size 15 to 20)
#    0.000    2.154    2.308    3.231    2.154    3.692 
#    0.000    3.077    0.000    0.000    0.000    0.000 
#    0.000    0.000    0.000    0.000    0.000    0.000 
#
# Total GULP energy -644729.539451 kJ/mol
# GULP energy per Si atom -12398.644989 kJ/mol
# Density = 1.680371 g / cm^3
# Si number density = 16.842039 Si / 1000 Ang^3
#
#
#
# Elastic Constant Matrix: (Units=GPa)
#
#
# Indices 1 2 3 4 5 6 
#
# 1 34.2075 15.5126 10.3669 0.0000 0.0000 0.0000
# 2 15.5126 127.9589 57.6948 0.0000 0.0000 0.0000
# 3 10.3669 57.6948 109.4455 0.0000 0.0000 0.0000
# 4 0.0000 0.0000 0.0000 37.4931 0.0000 0.0000
# 5 0.0000 0.0000 0.0000 0.0000 4.9945 0.0000
# 6 0.0000 0.0000 0.0000 0.0000 0.0000 17.5767
#
#
#
# Elastic Compliance Matrix: (Units=1/GPa)
#
#
# Indices 1 2 3 4 5 6 
#
# 1 0.031065 -0.003200 -0.001256 0.000000 0.000000 0.000000
# 2 -0.003200 0.010581 -0.005275 0.000000 0.000000 0.000000
# 3 -0.001256 -0.005275 0.012037 0.000000 0.000000 0.000000
# 4 0.000000 0.000000 0.000000 0.026672 0.000000 0.000000
# 5 0.000000 0.000000 0.000000 0.000000 0.200220 0.000000
# 6 0.000000 0.000000 0.000000 0.000000 0.000000 0.056893
#
#
# Mechanical properties :
#
#
# Convention : Reuss Voigt Hill
#
# Bulk Modulus (GPa) = 29.22099 48.75115 38.98607
# Shear Modulus (GPa) = 13.57456 24.54870 19.06163
#
# Velocity S-wave (km/s) = 2.84208 3.82197 3.36786
# Velocity P-wave (km/s) = 5.30637 6.96316 6.19044
#
# Compressibility (1/GPa) = 0.03422198
#
# Stress axis : x y z
#
# Youngs Moduli (GPa) = 32.19057 94.50626 83.07986
#
# Poissons Ratio (x) = 0.30241 0.10432
# Poissons Ratio (y) = 0.10300 0.43824
# Poissons Ratio (z) = 0.04042 0.49851
#
# Static dielectric constant tensor:
#      x y z
#    x 2.653100 0.000000 0.000000 
#    y 0.000000 4.104800 0.000000 
#    z 0.000000 0.000000 3.293760 
# 
# 
# High freq. dielectric constant tensor:
#      x y z
#    x 1.573930 0.000000 0.000000 
#    y 0.000000 1.667380 0.000000 
#    z 0.000000 0.000000 1.651610 
# 
# From -- ./inp_files/45996.got.cif
#   From: 2010.03.12/outbox.cif.g09.slc.cpg/sg67_23_cif.got.tgz:45996.got - 2010.04.10 22:41:39.
