data_PCOD8279073
_publ_section_title
;
Structure prediction by ZEFSAII (Michael W. Deem and Ramdas Pophale) SiO2 
 PCOD8279073
Probable space group: C M M A
;
_chemical_formula_sum "Si O2"
_cell_formula_units_Z 104
_cell_length_a 24.923426
_cell_length_b 9.109107
_cell_length_c 30.370329
_cell_angle_alpha 90.000000
_cell_angle_beta 90.000000
_cell_angle_gamma 90.000000
_cell_volume 6894.980477
_symmetry_space_group_name_H-M "C M M A"
_symmetry_group_IT_number 67
_symmetry_cell_setting 'orthorhombic'
loop_
_space_group_symop_operation_xyz
x,y,z
-x,1/2-y,z
x,-y,-z
-x,1/2+y,-z
-x,-y,-z
x,1/2+y,-z
-x,y,z
x,1/2-y,z
1/2+x,1/2+y,z
1/2-x,-y,z
1/2+x,1/2-y,-z
1/2-x,y,-z
1/2-x,1/2-y,-z
1/2+x,y,-z
1/2-x,1/2+y,z
1/2+x,-y,z
loop_
_atom_site_type_symbol
_atom_site_label
_atom_site_fract_x
_atom_site_fract_y
_atom_site_fract_z
Si Si1 0.439408 0.921350 0.307009
Si Si2 0.436118 0.584497 0.873511
Si Si3 0.693107 0.427119 0.454783
Si Si4 0.435973 0.085351 0.957471
Si Si5 0.063675 0.916014 0.222770
Si Si6 0.894628 0.078042 0.400190
Si Si7 0.500000 0.920644 0.453916
O O1 0.500000 0.980525 0.315027
O O2 0.441468 0.750000 0.299050
O O3 0.403139 0.960007 0.348994
O O4 0.412392 0.991199 0.263347
O O5 0.500000 0.582617 0.875193
O O6 0.415468 0.750000 0.880743
O O7 0.412428 0.485080 0.912647
O O8 0.416768 0.525852 0.825349
O O9 0.671365 0.500000 0.500000
O O10 0.697392 0.250000 0.458927
O O11 0.750000 0.500000 0.443507
O O12 0.652968 0.472889 0.416130
O O13 0.500000 0.080560 0.956936
O O14 0.414266 0.250000 0.960297
O O15 0.413728 0.000000 0.000000
O O16 0.083174 0.750000 0.228877
O O17 0.000000 0.927146 0.224266
O O18 0.880603 0.250000 0.406980
O O19 0.948025 0.033980 0.426310
O O20 0.500000 0.750000 0.463890
O O21 0.500000 0.000000 0.500000
#
# Coordination Sequence:
#
# PCOD8279073 Si02
#       7
#    16  16  16  16  16  16   8
#     4   9  16  27  42  59  81 109 135 160 195 236
#     4   8  13  21  30  39  54  77 105 139 181 224
#     4  11  22  37  55  73  90 112 140 172 207 244
#     4   9  15  20  26  36  50  69  96 133 178 227
#     4   8  14  23  34  48  67  91 119 153 189 227
#     4  10  19  33  49  67  92 118 142 171 204 243
#     4  10  20  32  46  64  90 118 142 166 199 240
#
# _framework density 15.083437
#
# number of rings (size 3 to 8) (size 9 to 14) (size 15 to 20)
#    0.000    2.769    0.769    3.692    0.000    4.923 
#    0.000    3.077    0.000    0.000    0.000    0.000 
#    0.000    0.000    0.000    0.000    0.000    0.000 
#
# Total GULP energy -644459.105651 kJ/mol
# GULP energy per Si atom -12393.444339 kJ/mol
# Density = 1.504911 g / cm^3
# Si number density = 15.083437 Si / 1000 Ang^3
#
#
#
# Elastic Constant Matrix: (Units=GPa)
#
#
# Indices 1 2 3 4 5 6 
#
# 1 30.7629 24.4752 30.8860 0.0000 0.0000 0.0000
# 2 24.4752 89.5009 71.4610 0.0000 0.0000 0.0000
# 3 30.8860 71.4610 157.9014 0.0000 0.0000 0.0000
# 4 0.0000 0.0000 0.0000 32.9794 0.0000 0.0000
# 5 0.0000 0.0000 0.0000 0.0000 5.4107 0.0000
# 6 0.0000 0.0000 0.0000 0.0000 0.0000 12.8661
#
#
#
# Elastic Compliance Matrix: (Units=1/GPa)
#
#
# Indices 1 2 3 4 5 6 
#
# 1 0.043872 -0.008057 -0.004935 0.000000 0.000000 0.000000
# 2 -0.008057 0.018974 -0.007011 0.000000 0.000000 0.000000
# 3 -0.004935 -0.007011 0.010471 0.000000 0.000000 0.000000
# 4 0.000000 0.000000 0.000000 0.030322 0.000000 0.000000
# 5 0.000000 0.000000 0.000000 0.000000 0.184819 0.000000
# 6 0.000000 0.000000 0.000000 0.000000 0.000000 0.077723
#
#
# Mechanical properties :
#
#
# Convention : Reuss Voigt Hill
#
# Bulk Modulus (GPa) = 30.02010 59.08996 44.55503
# Shear Modulus (GPa) = 11.98201 20.34078 16.16140
#
# Velocity S-wave (km/s) = 2.82154 3.67625 3.27688
# Velocity P-wave (km/s) = 5.52817 7.56837 6.62725
#
# Compressibility (1/GPa) = 0.03331101
#
# Stress axis : x y z
#
# Youngs Moduli (GPa) = 22.79374 52.70279 95.49777
#
# Poissons Ratio (x) = 0.42462 0.47130
# Poissons Ratio (y) = 0.18365 0.66956
# Poissons Ratio (z) = 0.11249 0.36951
#
# Static dielectric constant tensor:
#      x y z
#    x 2.358660 0.000000 0.000000 
#    y 0.000000 2.970990 0.000000 
#    z 0.000000 0.000000 3.268090 
# 
# 
# High freq. dielectric constant tensor:
#      x y z
#    x 1.497260 0.000000 0.000000 
#    y 0.000000 1.581510 0.000000 
#    z 0.000000 0.000000 1.594470 
# 
# From -- ./inp_files/45979.got.cif
#   From: 2010.03.12/outbox.cif.g09.slc.cpg/sg67_23_cif.got.tgz:45979.got - 2010.04.10 22:41:39.
