data_PCOD8279319
_publ_section_title
;
Structure prediction by ZEFSAII (Michael W. Deem and Ramdas Pophale) SiO2 
 PCOD8279319
Probable space group: C M M A
;
_chemical_formula_sum "Si O2"
_cell_formula_units_Z 112
_cell_length_a 16.630893
_cell_length_b 22.626375
_cell_length_c 14.603462
_cell_angle_alpha 90.000000
_cell_angle_beta 90.000000
_cell_angle_gamma 90.000000
_cell_volume 5495.236335
_symmetry_space_group_name_H-M "C M M A"
_symmetry_group_IT_number 67
_symmetry_cell_setting 'orthorhombic'
loop_
_space_group_symop_operation_xyz
x,y,z
-x,1/2-y,z
x,-y,-z
-x,1/2+y,-z
-x,-y,-z
x,1/2+y,-z
-x,y,z
x,1/2-y,z
1/2+x,1/2+y,z
1/2-x,-y,z
1/2+x,1/2-y,-z
1/2-x,y,-z
1/2-x,1/2-y,-z
1/2+x,y,-z
1/2-x,1/2+y,z
1/2+x,-y,z
loop_
_atom_site_type_symbol
_atom_site_label
_atom_site_fract_x
_atom_site_fract_y
_atom_site_fract_z
Si Si1 0.592997 0.015382 0.359421
Si Si2 0.407553 0.317857 0.634050
Si Si3 0.156535 0.585295 0.510533
Si Si4 0.904913 0.182725 0.970033
Si Si5 0.198915 0.578648 0.090722
Si Si6 0.348525 0.969394 0.175795
Si Si7 0.911257 0.150900 0.168585
O O1 0.500000 0.016967 0.332527
O O2 0.611813 0.960841 0.424791
O O3 0.645453 0.006139 0.269118
O O4 0.617513 0.077028 0.409381
O O5 0.500000 0.340072 0.633503
O O6 0.400736 0.250000 0.608192
O O7 0.357973 0.350554 0.554298
O O8 0.369226 0.329160 0.735844
O O9 0.250000 0.571515 0.500000
O O10 0.888379 0.250000 0.938000
O O11 0.856528 0.137611 0.903176
O O12 0.000000 0.167716 0.965460
O O13 0.870927 0.175024 0.074602
O O14 0.264439 0.569035 0.172711
O O15 0.145015 0.518659 0.094963
O O16 0.250000 0.580747 0.000000
O O17 0.417711 0.920521 0.164462
O O18 0.000000 0.178540 0.170517
#
# Coordination Sequence:
#
# PCOD8279319 Si02
#       7
#    16  16  16  16  16  16  16
#     4  11  22  39  63  90 119 157 200 250 305 367
#     4  10  20  37  61  89 124 164 208 259 307 360
#     4  11  23  36  60  89 126 163 196 244 301 369
#     4  10  22  41  63  89 123 165 217 266 307 369
#     4  11  24  40  59  86 125 167 203 253 323 375
#     4  11  22  35  61  86 126 157 198 258 314 372
#     4  10  19  34  59  92 123 156 204 258 311 360
#
# _framework density 20.381288999999999
#
# number of rings (size 3 to 8) (size 9 to 14) (size 15 to 20)
#    0.000    1.429    2.857    4.286    4.000    3.429 
#    0.000    1.429    0.000    0.857    0.000    2.000 
#    0.000    0.000    0.000    0.000    0.000    0.000 
#
# Total GULP energy -693799.598712 kJ/mol
# GULP energy per Si atom -12389.278548 kJ/mol
# Density = 2.033490 g / cm^3
# Si number density = 20.381289 Si / 1000 Ang^3
#
#
#
# Elastic Constant Matrix: (Units=GPa)
#
#
# Indices 1 2 3 4 5 6 
#
# 1 79.6921 39.8998 54.4562 0.0000 0.0000 0.0000
# 2 39.8998 127.0621 40.2125 0.0000 0.0000 0.0000
# 3 54.4562 40.2125 74.8558 0.0000 0.0000 0.0000
# 4 0.0000 0.0000 0.0000 30.9206 0.0000 0.0000
# 5 0.0000 0.0000 0.0000 0.0000 29.7426 0.0000
# 6 0.0000 0.0000 0.0000 0.0000 0.0000 14.1421
#
#
#
# Elastic Compliance Matrix: (Units=1/GPa)
#
#
# Indices 1 2 3 4 5 6 
#
# 1 0.025640 -0.002588 -0.017262 0.000000 0.000000 0.000000
# 2 -0.002588 0.009744 -0.003351 0.000000 0.000000 0.000000
# 3 -0.017262 -0.003351 0.027717 0.000000 0.000000 0.000000
# 4 0.000000 0.000000 0.000000 0.032341 0.000000 0.000000
# 5 0.000000 0.000000 0.000000 0.000000 0.033622 0.000000
# 6 0.000000 0.000000 0.000000 0.000000 0.000000 0.070711
#
#
# Mechanical properties :
#
#
# Convention : Reuss Voigt Hill
#
# Bulk Modulus (GPa) = 59.89012 61.19410 60.54211
# Shear Modulus (GPa) = 19.86148 24.76383 22.31266
#
# Velocity S-wave (km/s) = 3.12508 3.48951 3.31231
# Velocity P-wave (km/s) = 6.51691 6.80627 6.66316
#
# Compressibility (1/GPa) = 0.01669725
#
# Stress axis : x y z
#
# Youngs Moduli (GPa) = 39.00156 102.63192 36.07863
#
# Poissons Ratio (x) = 0.26564 0.62280
# Poissons Ratio (y) = 0.10095 0.12091
# Poissons Ratio (z) = 0.67325 0.34395
#
# Static dielectric constant tensor:
#      x y z
#    x 3.740040 0.000000 0.000000 
#    y 0.000000 3.801200 0.000000 
#    z 0.000000 0.000000 3.989920 
# 
# 
# High freq. dielectric constant tensor:
#      x y z
#    x 1.782090 0.000000 0.000000 
#    y 0.000000 1.789140 0.000000 
#    z 0.000000 0.000000 1.783250 
# 
# From -- ./inp_files/27550.got.cif
#   From: 2010.03.12/outbox.cif.g09.slc.cpg/sg67_14_cif.got.tgz:27550.got - 2010.04.10 22:41:39.
