data_PCOD8279859
_publ_section_title
;
Structure prediction by ZEFSAII (Michael W. Deem and Ramdas Pophale) SiO2 
 PCOD8279859
Probable space group: C M M A
;
_chemical_formula_sum "Si O2"
_cell_formula_units_Z 96
_cell_length_a 27.261193
_cell_length_b 8.452105
_cell_length_c 23.702709
_cell_angle_alpha 90.000000
_cell_angle_beta 90.000000
_cell_angle_gamma 90.000000
_cell_volume 5461.447029
_symmetry_space_group_name_H-M "C M M A"
_symmetry_group_IT_number 67
_symmetry_cell_setting 'orthorhombic'
loop_
_space_group_symop_operation_xyz
x,y,z
-x,1/2-y,z
x,-y,-z
-x,1/2+y,-z
-x,-y,-z
x,1/2+y,-z
-x,y,z
x,1/2-y,z
1/2+x,1/2+y,z
1/2-x,-y,z
1/2+x,1/2-y,-z
1/2-x,y,-z
1/2-x,1/2-y,-z
1/2+x,y,-z
1/2-x,1/2+y,z
1/2+x,-y,z
loop_
_atom_site_type_symbol
_atom_site_label
_atom_site_fract_x
_atom_site_fract_y
_atom_site_fract_z
Si Si1 0.444272 0.434101 0.723345
Si Si2 0.696605 0.937178 0.439061
Si Si3 0.443318 0.935546 0.060486
Si Si4 0.603052 0.934331 0.830293
Si Si5 0.852508 0.065485 0.667562
Si Si6 0.696671 0.936062 0.224261
O O1 0.500000 0.481130 0.709588
O O2 0.434528 0.250000 0.712375
O O3 0.432928 0.470323 0.788652
O O4 0.409329 0.535072 0.682474
O O5 0.697763 0.750000 0.440009
O O6 0.680440 0.000000 0.500000
O O7 0.750000 0.000000 0.421754
O O8 0.656985 0.999555 0.394657
O O9 0.500000 0.977666 0.071756
O O10 0.433663 0.750000 0.063788
O O11 0.410089 0.024221 0.105902
O O12 0.426618 0.000000 0.000000
O O13 0.595879 0.750000 0.818555
O O14 0.659215 0.981134 0.818768
O O15 0.840657 0.250000 0.670621
O O16 0.817194 0.976118 0.711361
O O17 0.694493 0.750000 0.215246
O O18 0.750000 0.000000 0.209362
#
# Coordination Sequence:
#
# PCOD8279859 Si02
#       6
#    16  16  16  16  16  16
#     4  10  20  34  52  75 103 135 170 209 253 299
#     4  11  21  35  53  76 104 134 169 207 251 299
#     4  10  20  34  52  75 103 135 170 209 253 299
#     4  11  21  33  51  76 104 135 170 207 251 301
#     4  11  21  34  52  76 104 135 170 207 251 300
#     4  11  21  35  53  75 103 134 169 209 253 299
#
# _framework density 17.577759
#
# number of rings (size 3 to 8) (size 9 to 14) (size 15 to 20)
#    0.000    1.333    0.000   10.500    0.000    4.333 
#    0.000    0.000    0.000    1.000    0.000    3.500 
#    0.000    0.000    0.000    0.000    0.000    0.000 
#
# Total GULP energy -595474.315529 kJ/mol
# GULP energy per Si atom -12405.714907 kJ/mol
# Density = 1.753775 g / cm^3
# Si number density = 17.577759 Si / 1000 Ang^3
#
#
#
# Elastic Constant Matrix: (Units=GPa)
#
#
# Indices 1 2 3 4 5 6 
#
# 1 93.6222 28.5447 53.4360 0.0000 0.0000 0.0000
# 2 28.5447 78.7357 22.0479 0.0000 0.0000 0.0000
# 3 53.4360 22.0479 115.1987 0.0000 0.0000 0.0000
# 4 0.0000 0.0000 0.0000 32.3186 0.0000 0.0000
# 5 0.0000 0.0000 0.0000 0.0000 30.7977 0.0000
# 6 0.0000 0.0000 0.0000 0.0000 0.0000 29.0351
#
#
#
# Elastic Compliance Matrix: (Units=1/GPa)
#
#
# Indices 1 2 3 4 5 6 
#
# 1 0.015544 -0.003821 -0.006479 0.000000 0.000000 0.000000
# 2 -0.003821 0.014359 -0.000976 0.000000 0.000000 0.000000
# 3 -0.006479 -0.000976 0.011873 0.000000 0.000000 0.000000
# 4 0.000000 0.000000 0.000000 0.030942 0.000000 0.000000
# 5 0.000000 0.000000 0.000000 0.000000 0.032470 0.000000
# 6 0.000000 0.000000 0.000000 0.000000 0.000000 0.034441
#
#
# Mechanical properties :
#
#
# Convention : Reuss Voigt Hill
#
# Bulk Modulus (GPa) = 52.01702 55.06820 53.54261
# Shear Modulus (GPa) = 29.65788 30.66546 30.16167
#
# Velocity S-wave (km/s) = 4.11206 4.18132 4.14684
# Velocity P-wave (km/s) = 7.22510 7.39646 7.31129
#
# Compressibility (1/GPa) = 0.01922448
#
# Stress axis : x y z
#
# Youngs Moduli (GPa) = 64.33252 69.64151 84.22638
#
# Poissons Ratio (x) = 0.26611 0.54571
# Poissons Ratio (y) = 0.24582 0.08219
# Poissons Ratio (z) = 0.41681 0.06795
#
# Static dielectric constant tensor:
#      x y z
#    x 3.000530 0.000000 0.000000 
#    y 0.000000 3.437110 0.000000 
#    z 0.000000 0.000000 3.058010 
# 
# 
# High freq. dielectric constant tensor:
#      x y z
#    x 1.669030 0.000000 0.000000 
#    y 0.000000 1.704500 0.000000 
#    z 0.000000 0.000000 1.669770 
# 
# From -- ./inp_files/40936.got.cif
#   From: 2010.03.12/outbox.cif.g09.slc.cpg/sg67_21_cif.got.tgz:40936.got - 2010.04.10 22:41:39.
