data_PCOD8279110
_publ_section_title
;
Structure prediction by ZEFSAII (Michael W. Deem and Ramdas Pophale) SiO2 
 PCOD8279110
Probable space group: C M M A
;
_chemical_formula_sum "Si O2"
_cell_formula_units_Z 96
_cell_length_a 9.258557
_cell_length_b 25.615093
_cell_length_c 23.243823
_cell_angle_alpha 90.000000
_cell_angle_beta 90.000000
_cell_angle_gamma 90.000000
_cell_volume 5512.477138
_symmetry_space_group_name_H-M "C M M A"
_symmetry_group_IT_number 67
_symmetry_cell_setting 'orthorhombic'
loop_
_space_group_symop_operation_xyz
x,y,z
-x,1/2-y,z
x,-y,-z
-x,1/2+y,-z
-x,-y,-z
x,1/2+y,-z
-x,y,z
x,1/2-y,z
1/2+x,1/2+y,z
1/2-x,-y,z
1/2+x,1/2-y,-z
1/2-x,y,-z
1/2-x,1/2-y,-z
1/2+x,y,-z
1/2-x,1/2+y,z
1/2+x,-y,z
loop_
_atom_site_type_symbol
_atom_site_label
_atom_site_fract_x
_atom_site_fract_y
_atom_site_fract_z
Si Si1 0.330204 0.750000 0.367988
Si Si2 0.831771 0.852744 0.177579
Si Si3 0.667656 0.809431 0.944868
Si Si4 0.668078 0.250000 0.248530
Si Si5 0.670084 0.552550 0.233713
Si Si6 0.170188 0.350147 0.439972
Si Si7 0.667691 0.448936 0.633627
O O1 0.500000 0.750000 0.356843
O O2 0.255615 0.750000 0.306883
O O3 0.280204 0.699691 0.403552
O O4 0.796321 0.843979 0.110668
O O5 0.789374 0.800835 0.212193
O O6 0.731557 0.899747 0.197490
O O7 0.000000 0.866528 0.187078
O O8 0.500000 0.811244 0.959196
O O9 0.717620 0.750000 0.932869
O O10 0.750000 0.833023 0.000000
O O11 0.500000 0.250000 0.263508
O O12 0.500000 0.546626 0.222428
O O13 0.750000 0.500000 0.213473
O O14 0.704858 0.563887 0.300384
O O15 0.250000 0.349491 0.500000
O O16 0.220109 0.400774 0.404696
O O17 0.000000 0.349567 0.451148
O O18 0.500000 0.460118 0.625491
O O19 0.750000 0.500000 0.611584
#
# Coordination Sequence:
#
# PCOD8279110 Si02
#       7
#     8  16  16   8  16  16  16
#     4  10  21  37  53  71 101 134 166 210 257 300
#     4  10  19  33  52  77 110 142 173 213 259 306
#     4   9  17  31  50  73 106 144 178 213 254 300
#     4  10  20  33  52  79 108 138 171 208 257 312
#     4  10  20  35  55  78 104 137 175 214 259 311
#     4  10  21  36  53  73  98 129 165 206 251 301
#     4   9  19  35  53  74 100 128 161 205 255 303
#
# _framework density 17.415039
#
# number of rings (size 3 to 8) (size 9 to 14) (size 15 to 20)
#    0.000    2.333    0.833    1.750    0.000    5.000 
#    0.000    1.667    0.000    0.500    0.000    3.500 
#    0.000    0.000    0.000    0.000    0.000    0.000 
#
# Total GULP energy -595332.909190 kJ/mol
# GULP energy per Si atom -12402.768941 kJ/mol
# Density = 1.737540 g / cm^3
# Si number density = 17.415039 Si / 1000 Ang^3
#
#
#
# Elastic Constant Matrix: (Units=GPa)
#
#
# Indices 1 2 3 4 5 6 
#
# 1 62.8497 59.8023 60.1566 0.0000 0.0000 0.0000
# 2 59.8023 138.0278 77.4064 0.0000 0.0000 0.0000
# 3 60.1566 77.4064 128.6393 0.0000 0.0000 0.0000
# 4 0.0000 0.0000 0.0000 15.8270 0.0000 0.0000
# 5 0.0000 0.0000 0.0000 0.0000 33.6775 0.0000
# 6 0.0000 0.0000 0.0000 0.0000 0.0000 32.2785
#
#
#
# Elastic Compliance Matrix: (Units=1/GPa)
#
#
# Indices 1 2 3 4 5 6 
#
# 1 0.034934 -0.009017 -0.010911 0.000000 0.000000 0.000000
# 2 -0.009017 0.013262 -0.003764 0.000000 0.000000 0.000000
# 3 -0.010911 -0.003764 0.015141 0.000000 0.000000 0.000000
# 4 0.000000 0.000000 0.000000 0.063183 0.000000 0.000000
# 5 0.000000 0.000000 0.000000 0.000000 0.029693 0.000000
# 6 0.000000 0.000000 0.000000 0.000000 0.000000 0.030980
#
#
# Mechanical properties :
#
#
# Convention : Reuss Voigt Hill
#
# Bulk Modulus (GPa) = 62.67895 80.47192 71.57543
# Shear Modulus (GPa) = 20.84254 25.16670 23.00462
#
# Velocity S-wave (km/s) = 3.46325 3.80559 3.63845
# Velocity P-wave (km/s) = 7.21537 8.10053 7.67073
#
# Compressibility (1/GPa) = 0.01595432
#
# Stress axis : x y z
#
# Youngs Moduli (GPa) = 28.62568 75.40185 66.04723
#
# Poissons Ratio (x) = 0.67988 0.72062
# Poissons Ratio (y) = 0.25811 0.24859
# Poissons Ratio (z) = 0.31232 0.28379
#
# Static dielectric constant tensor:
#      x y z
#    x 3.186140 0.000000 0.000000 
#    y 0.000000 3.139770 0.000000 
#    z 0.000000 0.000000 3.233760 
# 
# 
# High freq. dielectric constant tensor:
#      x y z
#    x 1.670670 0.000000 0.000000 
#    y 0.000000 1.672820 0.000000 
#    z 0.000000 0.000000 1.672950 
# 
# From -- ./inp_files/40861.got.cif
#   From: 2010.03.12/outbox.cif.g09.slc.cpg/sg67_21_cif.got.tgz:40861.got - 2010.04.10 22:41:39.
