data_PCOD8279098
_publ_section_title
;
Structure prediction by ZEFSAII (Michael W. Deem and Ramdas Pophale) SiO2 
 PCOD8279098
Probable space group: C M M A
;
_chemical_formula_sum "Si O2"
_cell_formula_units_Z 120
_cell_length_a 26.857767
_cell_length_b 8.919437
_cell_length_c 28.164117
_cell_angle_alpha 90.000000
_cell_angle_beta 90.000000
_cell_angle_gamma 90.000000
_cell_volume 6746.887739
_symmetry_space_group_name_H-M "C M M A"
_symmetry_group_IT_number 67
_symmetry_cell_setting 'orthorhombic'
loop_
_space_group_symop_operation_xyz
x,y,z
-x,1/2-y,z
x,-y,-z
-x,1/2+y,-z
-x,-y,-z
x,1/2+y,-z
-x,y,z
x,1/2-y,z
1/2+x,1/2+y,z
1/2-x,-y,z
1/2+x,1/2-y,-z
1/2-x,y,-z
1/2-x,1/2-y,-z
1/2+x,y,-z
1/2-x,1/2+y,z
1/2+x,-y,z
loop_
_atom_site_type_symbol
_atom_site_label
_atom_site_fract_x
_atom_site_fract_y
_atom_site_fract_z
Si Si1 0.198652 0.425774 0.115545
Si Si2 0.000000 0.424487 0.050116
Si Si3 0.301567 0.073098 0.775236
Si Si4 0.355324 0.927660 0.693036
Si Si5 0.056903 0.576846 0.644837
Si Si6 0.608186 0.072753 0.948632
Si Si7 0.603392 0.922332 0.451249
Si Si8 0.699267 0.073801 0.606556
O O1 0.205075 0.250000 0.108526
O O2 0.250000 0.500000 0.097673
O O3 0.187812 0.466735 0.170095
O O4 0.151784 0.488647 0.085590
O O5 0.946731 0.468150 0.074630
O O6 0.000000 0.250000 0.040686
O O7 0.000000 0.500000 0.000000
O O8 0.299849 0.250000 0.766148
O O9 0.250000 0.000000 0.758435
O O10 0.345069 0.996726 0.744760
O O11 0.349490 0.750000 0.693807
O O12 0.411560 0.973024 0.679903
O O13 0.316721 0.997783 0.655747
O O14 0.074451 0.750000 0.650193
O O15 0.065683 0.526117 0.590368
O O16 0.000000 0.555497 0.659066
O O17 0.613359 0.250000 0.954581
O O18 0.614854 0.000000 0.000000
O O19 0.596665 0.750000 0.461991
O O20 0.659336 0.960314 0.434528
O O21 0.589155 0.000000 0.500000
O O22 0.705711 0.250000 0.615470
O O23 0.750000 0.000000 0.588397
#
# Coordination Sequence:
#
# PCOD8279098 Si02
#       8
#    16   8  16  16  16  16  16  16
#     4   9  19  33  49  70 100 134 171 208 249 300
#     4   8  14  26  46  68  92 120 158 204 248 286
#     4  10  19  33  52  73 100 132 166 204 245 294
#     4  11  21  33  52  77 101 126 159 201 248 297
#     4   9  19  37  57  75  98 129 164 202 245 290
#     4   9  17  30  48  72  98 130 168 212 254 298
#     4   9  19  33  49  71  99 130 163 199 238 285
#     4  10  20  34  50  71  99 130 164 201 242 290
#
# _framework density 17.785979000000001
#
# number of rings (size 3 to 8) (size 9 to 14) (size 15 to 20)
#    0.000    2.533    0.000    3.200    0.000    4.800 
#    0.000    2.667    1.467    0.000    0.000    0.000 
#    0.000    0.000    0.000    0.000    0.000    0.000 
#
# Total GULP energy -743771.147645 kJ/mol
# GULP energy per Si atom -12396.185794 kJ/mol
# Density = 1.774550 g / cm^3
# Si number density = 17.785979 Si / 1000 Ang^3
#
#
#
# Elastic Constant Matrix: (Units=GPa)
#
#
# Indices 1 2 3 4 5 6 
#
# 1 114.0021 34.9189 50.7518 0.0000 0.0000 0.0000
# 2 34.9189 67.5375 31.5571 0.0000 0.0000 0.0000
# 3 50.7518 31.5571 82.4110 0.0000 0.0000 0.0000
# 4 0.0000 0.0000 0.0000 26.1697 0.0000 0.0000
# 5 0.0000 0.0000 0.0000 0.0000 27.1787 0.0000
# 6 0.0000 0.0000 0.0000 0.0000 0.0000 26.1614
#
#
#
# Elastic Compliance Matrix: (Units=1/GPa)
#
#
# Indices 1 2 3 4 5 6 
#
# 1 0.012751 -0.003561 -0.006489 0.000000 0.000000 0.000000
# 2 -0.003561 0.019027 -0.005093 0.000000 0.000000 0.000000
# 3 -0.006489 -0.005093 0.018081 0.000000 0.000000 0.000000
# 4 0.000000 0.000000 0.000000 0.038212 0.000000 0.000000
# 5 0.000000 0.000000 0.000000 0.000000 0.036794 0.000000
# 6 0.000000 0.000000 0.000000 0.000000 0.000000 0.038224
#
#
# Mechanical properties :
#
#
# Convention : Reuss Voigt Hill
#
# Bulk Modulus (GPa) = 51.09002 55.37849 53.23425
# Shear Modulus (GPa) = 25.01243 25.68346 25.34795
#
# Velocity S-wave (km/s) = 3.75414 3.80416 3.77923
# Velocity P-wave (km/s) = 6.89773 7.10627 7.00278
#
# Compressibility (1/GPa) = 0.01957329
#
# Stress axis : x y z
#
# Youngs Moduli (GPa) = 78.42322 52.55574 55.30673
#
# Poissons Ratio (x) = 0.18713 0.35890
# Poissons Ratio (y) = 0.27924 0.28169
# Poissons Ratio (z) = 0.50891 0.26768
#
# Static dielectric constant tensor:
#      x y z
#    x 3.596630 0.000000 0.000000 
#    y 0.000000 3.547200 0.000000 
#    z 0.000000 0.000000 3.150230 
# 
# 
# High freq. dielectric constant tensor:
#      x y z
#    x 1.693480 0.000000 0.000000 
#    y 0.000000 1.688950 0.000000 
#    z 0.000000 0.000000 1.667230 
# 
# From -- ./inp_files/43906.got.cif
#   From: 2010.03.12/outbox.cif.g09.slc.cpg/sg67_22_cif.got.tgz:43906.got - 2010.04.10 22:41:39.
