data_PCOD8279552
_publ_section_title
;
Structure prediction by ZEFSAII (Michael W. Deem and Ramdas Pophale) SiO2 
 PCOD8279552
Probable space group: C M M A
;
_chemical_formula_sum "Si O2"
_cell_formula_units_Z 104
_cell_length_a 9.889136
_cell_length_b 25.887493
_cell_length_c 22.532515
_cell_angle_alpha 90.000000
_cell_angle_beta 90.000000
_cell_angle_gamma 90.000000
_cell_volume 5768.435128
_symmetry_space_group_name_H-M "C M M A"
_symmetry_group_IT_number 67
_symmetry_cell_setting 'orthorhombic'
loop_
_space_group_symop_operation_xyz
x,y,z
-x,1/2-y,z
x,-y,-z
-x,1/2+y,-z
-x,-y,-z
x,1/2+y,-z
-x,y,z
x,1/2-y,z
1/2+x,1/2+y,z
1/2-x,-y,z
1/2+x,1/2-y,-z
1/2-x,y,-z
1/2-x,1/2-y,-z
1/2+x,y,-z
1/2-x,1/2+y,z
1/2+x,-y,z
loop_
_atom_site_type_symbol
_atom_site_label
_atom_site_fract_x
_atom_site_fract_y
_atom_site_fract_z
Si Si1 0.350688 0.250000 0.052438
Si Si2 0.154761 0.691370 0.756513
Si Si3 0.845979 0.115294 0.818241
Si Si4 0.847506 0.136678 0.944565
Si Si5 0.658913 0.450177 0.294224
Si Si6 0.000000 0.308760 0.569878
Si Si7 0.500000 0.810899 0.429459
Si Si8 0.249576 0.149393 0.362201
O O1 0.500000 0.250000 0.024973
O O2 0.328005 0.305299 0.084745
O O3 0.250000 0.250000 0.000000
O O4 0.156792 0.750000 0.778474
O O5 0.236338 0.658824 0.804316
O O6 0.229268 0.687488 0.693304
O O7 0.000000 0.671043 0.751169
O O8 0.821678 0.099329 0.887622
O O9 0.825407 0.066777 0.774602
O O10 0.000000 0.136618 0.810391
O O11 0.000000 0.129410 0.968766
O O12 0.750000 0.124377 0.000000
O O13 0.500000 0.459826 0.309191
O O14 0.750000 0.500000 0.304490
O O15 0.724799 0.408072 0.337902
O O16 0.000000 0.314089 0.499689
O O17 0.127271 0.335907 0.597253
O O18 0.000000 0.250000 0.589849
O O19 0.500000 0.750000 0.409021
O O20 0.376244 0.844151 0.405417
#
# Coordination Sequence:
#
# PCOD8279552 Si02
#       8
#     8  16  16  16  16   8   8  16
#     4   8  14  24  40  62  92 138 182 208 245 302
#     4  10  20  32  48  74 110 149 184 228 279 329
#     4   9  20  35  52  80 108 135 185 234 282 341
#     4   9  17  30  48  71 105 144 182 224 269 330
#     4  10  22  40  63  86 107 143 192 247 303 347
#     4  11  22  36  59  89 125 163 197 226 268 332
#     4  11  22  36  59  91 125 167 195 222 270 332
#     4  11  21  38  57  85 120 151 198 241 280 338
#
# _framework density 18.029153999999998
#
# number of rings (size 3 to 8) (size 9 to 14) (size 15 to 20)
#    0.000    2.154    1.538    1.846    3.231    2.769 
#    0.000    0.000    0.000    3.231    0.000    3.231 
#    0.000    0.000    0.000    0.000    0.000    0.000 
#
# Total GULP energy -644204.345045 kJ/mol
# GULP energy per Si atom -12388.545097 kJ/mol
# Density = 1.798812 g / cm^3
# Si number density = 18.029154 Si / 1000 Ang^3
#
#
#
# Elastic Constant Matrix: (Units=GPa)
#
#
# Indices 1 2 3 4 5 6 
#
# 1 130.2982 55.4267 53.6057 0.0000 0.0000 0.0000
# 2 55.4267 92.5530 43.3977 0.0000 0.0000 0.0000
# 3 53.6057 43.3977 97.5160 0.0000 0.0000 0.0000
# 4 0.0000 0.0000 0.0000 16.6924 0.0000 0.0000
# 5 0.0000 0.0000 0.0000 0.0000 34.5849 0.0000
# 6 0.0000 0.0000 0.0000 0.0000 0.0000 28.2915
#
#
#
# Elastic Compliance Matrix: (Units=1/GPa)
#
#
# Indices 1 2 3 4 5 6 
#
# 1 0.011465 -0.004942 -0.004103 0.000000 0.000000 0.000000
# 2 -0.004942 0.015784 -0.004308 0.000000 0.000000 0.000000
# 3 -0.004103 -0.004308 0.014427 0.000000 0.000000 0.000000
# 4 0.000000 0.000000 0.000000 0.059907 0.000000 0.000000
# 5 0.000000 0.000000 0.000000 0.000000 0.028914 0.000000
# 6 0.000000 0.000000 0.000000 0.000000 0.000000 0.035346
#
#
# Mechanical properties :
#
#
# Convention : Reuss Voigt Hill
#
# Bulk Modulus (GPa) = 66.79709 69.46971 68.13340
# Shear Modulus (GPa) = 25.31128 27.10958 26.21043
#
# Velocity S-wave (km/s) = 3.75094 3.88190 3.81698
# Velocity P-wave (km/s) = 7.47592 7.66210 7.56958
#
# Compressibility (1/GPa) = 0.01497071
#
# Stress axis : x y z
#
# Youngs Moduli (GPa) = 87.22186 63.35482 69.31298
#
# Poissons Ratio (x) = 0.31310 0.28440
# Poissons Ratio (y) = 0.43106 0.29858
# Poissons Ratio (z) = 0.35788 0.27291
#
# Static dielectric constant tensor:
#      x y z
#    x 3.524490 0.000000 0.000000 
#    y 0.000000 2.779210 0.000000 
#    z 0.000000 0.000000 3.151120 
# 
# 
# High freq. dielectric constant tensor:
#      x y z
#    x 1.717360 0.000000 0.000000 
#    y 0.000000 1.663190 0.000000 
#    z 0.000000 0.000000 1.696760 
# 
# From -- ./inp_files/41056.got.cif
#   From: 2010.03.12/outbox.cif.g09.slc.cpg/sg67_21_cif.got.tgz:41056.got - 2010.04.10 22:41:39.
