data_PCOD8279837
_publ_section_title
;
Structure prediction by ZEFSAII (Michael W. Deem and Ramdas Pophale) SiO2 
 PCOD8279837
Probable space group: C M M A
;
_chemical_formula_sum "Si O2"
_cell_formula_units_Z 96
_cell_length_a 9.054174
_cell_length_b 19.939782
_cell_length_c 30.131977
_cell_angle_alpha 90.000000
_cell_angle_beta 90.000000
_cell_angle_gamma 90.000000
_cell_volume 5439.974570
_symmetry_space_group_name_H-M "C M M A"
_symmetry_group_IT_number 67
_symmetry_cell_setting 'orthorhombic'
loop_
_space_group_symop_operation_xyz
x,y,z
-x,1/2-y,z
x,-y,-z
-x,1/2+y,-z
-x,-y,-z
x,1/2+y,-z
-x,y,z
x,1/2-y,z
1/2+x,1/2+y,z
1/2-x,-y,z
1/2+x,1/2-y,-z
1/2-x,y,-z
1/2-x,1/2-y,-z
1/2+x,y,-z
1/2-x,1/2+y,z
1/2+x,-y,z
loop_
_atom_site_type_symbol
_atom_site_label
_atom_site_fract_x
_atom_site_fract_y
_atom_site_fract_z
Si Si1 0.323873 0.568937 0.953649
Si Si2 0.674163 0.825856 0.210893
Si Si3 0.826178 0.068060 0.282510
Si Si4 0.828052 0.326360 0.878437
Si Si5 0.173606 0.067983 0.383206
Si Si6 0.173690 0.826187 0.544785
O O1 0.500000 0.559944 0.959112
O O2 0.250000 0.500000 0.936625
O O3 0.282081 0.627104 0.919327
O O4 0.250000 0.589955 0.000000
O O5 0.500000 0.830169 0.205600
O O6 0.726084 0.750000 0.221039
O O7 0.730035 0.871713 0.251391
O O8 0.744156 0.852079 0.165217
O O9 0.779364 0.085565 0.332876
O O10 0.000000 0.057830 0.278490
O O11 0.750000 0.000000 0.266203
O O12 0.782725 0.250000 0.890199
O O13 0.000000 0.332183 0.868207
O O14 0.228138 0.128575 0.414257
O O15 0.000000 0.057199 0.387003
O O16 0.250000 0.000000 0.399622
O O17 0.221747 0.750000 0.555340
O O18 0.250000 0.852344 0.500000
O O19 0.000000 0.831995 0.537825
#
# Coordination Sequence:
#
# PCOD8279837 Si02
#       6
#    16  16  16  16  16  16
#     4  10  20  34  52  73  98 127 159 196 236 279
#     4   9  18  32  50  72  96 123 157 196 235 275
#     4   9  18  32  49  70  96 124 156 194 234 278
#     4   9  19  35  52  71  97 128 160 194 234 280
#     4   9  18  32  49  69  94 124 156 192 234 279
#     4   9  18  32  49  69  93 122 156 193 234 279
#
# _framework density 17.647141999999999
#
# number of rings (size 3 to 8) (size 9 to 14) (size 15 to 20)
#    0.000    2.833    0.000    1.000    0.000    4.667 
#    0.000    8.333    0.000    0.000    0.000    9.333 
#    0.000    0.000    0.000    0.000    0.000    0.000 
#
# Total GULP energy -595224.697243 kJ/mol
# GULP energy per Si atom -12400.514526 kJ/mol
# Density = 1.760698 g / cm^3
# Si number density = 17.647142 Si / 1000 Ang^3
#
#
#
# Elastic Constant Matrix: (Units=GPa)
#
#
# Indices 1 2 3 4 5 6 
#
# 1 34.8790 38.1026 41.0698 0.0000 0.0000 0.0000
# 2 38.1026 123.0251 99.2351 0.0000 0.0000 0.0000
# 3 41.0698 99.2351 134.0733 0.0000 0.0000 0.0000
# 4 0.0000 0.0000 0.0000 38.2672 0.0000 0.0000
# 5 0.0000 0.0000 0.0000 0.0000 29.5224 0.0000
# 6 0.0000 0.0000 0.0000 0.0000 0.0000 27.2623
#
#
#
# Elastic Compliance Matrix: (Units=1/GPa)
#
#
# Indices 1 2 3 4 5 6 
#
# 1 0.047391 -0.007365 -0.009066 0.000000 0.000000 0.000000
# 2 -0.007365 0.021316 -0.013521 0.000000 0.000000 0.000000
# 3 -0.009066 -0.013521 0.020243 0.000000 0.000000 0.000000
# 4 0.000000 0.000000 0.000000 0.026132 0.000000 0.000000
# 5 0.000000 0.000000 0.000000 0.000000 0.033873 0.000000
# 6 0.000000 0.000000 0.000000 0.000000 0.000000 0.036681
#
#
# Mechanical properties :
#
#
# Convention : Reuss Voigt Hill
#
# Bulk Modulus (GPa) = 34.42719 72.08805 53.25762
# Shear Modulus (GPa) = 19.59085 26.58171 23.08628
#
# Velocity S-wave (km/s) = 3.33550 3.88531 3.62085
# Velocity P-wave (km/s) = 5.86388 7.81446 6.90836
#
# Compressibility (1/GPa) = 0.02904681
#
# Stress axis : x y z
#
# Youngs Moduli (GPa) = 21.10092 46.91364 49.39933
#
# Poissons Ratio (x) = 0.34552 0.44784
# Poissons Ratio (y) = 0.15541 0.66792
# Poissons Ratio (z) = 0.19130 0.63431
#
# Static dielectric constant tensor:
#      x y z
#    x 3.192850 0.000000 0.000000 
#    y 0.000000 3.437500 0.000000 
#    z 0.000000 0.000000 3.397210 
# 
# 
# High freq. dielectric constant tensor:
#      x y z
#    x 1.676680 0.000000 0.000000 
#    y 0.000000 1.683560 0.000000 
#    z 0.000000 0.000000 1.684730 
# 
# From -- ./inp_files/43435.got.cif
#   From: 2010.03.12/outbox.cif.g09.slc.cpg/sg67_22_cif.got.tgz:43435.got - 2010.04.10 22:41:39.
