data_PCOD8279972
_publ_section_title
;
Structure prediction by ZEFSAII (Michael W. Deem and Ramdas Pophale) SiO2 
 PCOD8279972
Probable space group: C M M A
;
_chemical_formula_sum "Si O2"
_cell_formula_units_Z 80
_cell_length_a 19.375661
_cell_length_b 8.747620
_cell_length_c 25.382119
_cell_angle_alpha 90.000000
_cell_angle_beta 90.000000
_cell_angle_gamma 90.000000
_cell_volume 4302.038693
_symmetry_space_group_name_H-M "C M M A"
_symmetry_group_IT_number 67
_symmetry_cell_setting 'orthorhombic'
loop_
_space_group_symop_operation_xyz
x,y,z
-x,1/2-y,z
x,-y,-z
-x,1/2+y,-z
-x,-y,-z
x,1/2+y,-z
-x,y,z
x,1/2-y,z
1/2+x,1/2+y,z
1/2-x,-y,z
1/2+x,1/2-y,-z
1/2-x,y,-z
1/2-x,1/2-y,-z
1/2+x,y,-z
1/2-x,1/2+y,z
1/2+x,-y,z
loop_
_atom_site_type_symbol
_atom_site_label
_atom_site_fract_x
_atom_site_fract_y
_atom_site_fract_z
Si Si1 0.322466 0.070050 0.444195
Si Si2 0.418193 0.081108 0.256299
Si Si3 0.418776 0.575448 0.360889
Si Si4 0.919688 0.428275 0.860548
Si Si5 0.322858 0.929774 0.055314
O O1 0.314199 0.250000 0.450469
O O2 0.344923 0.000000 0.500000
O O3 0.250000 0.000000 0.424938
O O4 0.381355 0.033337 0.402211
O O5 0.500000 0.090353 0.254566
O O6 0.388555 0.250000 0.269093
O O7 0.393447 0.027549 0.198398
O O8 0.393377 0.965362 0.301752
O O9 0.500000 0.546181 0.366769
O O10 0.399011 0.750000 0.372367
O O11 0.905221 0.250000 0.871577
O O12 0.879217 0.533817 0.900892
O O13 0.000000 0.465883 0.867369
O O14 0.314564 0.750000 0.048639
O O15 0.250000 0.000000 0.072951
O O16 0.347691 0.000000 0.000000
#
# Coordination Sequence:
#
# PCOD8279972 Si02
#       5
#    16  16  16  16  16
#     4  11  22  38  58  78 105 139 176 217 264 317
#     4   8  15  30  52  77 106 140 174 211 259 309
#     4  10  20  34  54  81 111 141 176 217 259 307
#     4   9  18  34  56  81 109 139 173 214 259 309
#     4  11  22  37  56  76 103 138 176 217 263 315
#
# _framework density 18.595834
#
# number of rings (size 3 to 8) (size 9 to 14) (size 15 to 20)
#    0.000    2.200    0.000    6.600    0.000    3.200 
#    0.000    3.000    0.000    4.800    0.000    0.000 
#    0.000    0.000    0.000    0.000    0.000    0.000 
#
# Total GULP energy -495998.538730 kJ/mol
# GULP energy per Si atom -12399.963468 kJ/mol
# Density = 1.855351 g / cm^3
# Si number density = 18.595834 Si / 1000 Ang^3
#
#
#
# Elastic Constant Matrix: (Units=GPa)
#
#
# Indices 1 2 3 4 5 6 
#
# 1 54.9679 42.3922 54.1927 0.0000 0.0000 0.0000
# 2 42.3922 135.5390 59.3970 0.0000 0.0000 0.0000
# 3 54.1927 59.3970 123.0891 0.0000 0.0000 0.0000
# 4 0.0000 0.0000 0.0000 34.8282 0.0000 0.0000
# 5 0.0000 0.0000 0.0000 0.0000 -13.7394 0.0000
# 6 0.0000 0.0000 0.0000 0.0000 0.0000 27.0625
#
#
#
# Elastic Compliance Matrix: (Units=1/GPa)
#
#
# Indices 1 2 3 4 5 6 
#
# 1 0.034916 -0.005306 -0.012812 0.000000 0.000000 0.000000
# 2 -0.005306 0.010163 -0.002568 0.000000 0.000000 0.000000
# 3 -0.012812 -0.002568 0.015004 0.000000 0.000000 0.000000
# 4 0.000000 0.000000 0.000000 0.028712 0.000000 0.000000
# 5 0.000000 0.000000 0.000000 0.000000 -0.072783 0.000000
# 6 0.000000 0.000000 0.000000 0.000000 0.000000 0.036952
#
#
# Mechanical properties :
#
#
# Convention : Reuss Voigt Hill
#
# Bulk Modulus (GPa) = 53.44514 69.50664 61.47589
# Shear Modulus (GPa) = 49.71524 20.13786 34.92655
#
# Velocity S-wave (km/s) = 5.17616 3.29435 4.33851
# Velocity P-wave (km/s) = 8.03283 7.20618 7.63070
#
# Compressibility (1/GPa) = 0.01871078
#
# Stress axis : x y z
#
# Youngs Moduli (GPa) = 28.64030 98.39737 66.64790
#
# Poissons Ratio (x) = 0.52209 0.85390
# Poissons Ratio (y) = 0.15196 0.17116
# Poissons Ratio (z) = 0.36694 0.25269
#
# Static dielectric constant tensor:
#      x y z
#    x 3.134450 0.000000 0.000000 
#    y 0.000000 3.473840 0.000000 
#    z 0.000000 0.000000 3.604320 
# 
# 
# High freq. dielectric constant tensor:
#      x y z
#    x 1.694530 0.000000 0.000000 
#    y 0.000000 1.728840 0.000000 
#    z 0.000000 0.000000 1.733050 
# 
# From -- ./inp_files/44444.got.cif
#   From: 2010.03.12/outbox.cif.g09.slc.cpg/sg67_23_cif.got.tgz:44444.got - 2010.04.10 22:41:39.
