data_PCOD8279482
_publ_section_title
;
Structure prediction by ZEFSAII (Michael W. Deem and Ramdas Pophale) SiO2 
 PCOD8279482
Probable space group: C M M A
;
_chemical_formula_sum "Si O2"
_cell_formula_units_Z 88
_cell_length_a 9.194950
_cell_length_b 25.460458
_cell_length_c 24.783702
_cell_angle_alpha 90.000000
_cell_angle_beta 90.000000
_cell_angle_gamma 90.000000
_cell_volume 5802.053943
_symmetry_space_group_name_H-M "C M M A"
_symmetry_group_IT_number 67
_symmetry_cell_setting 'orthorhombic'
loop_
_space_group_symop_operation_xyz
x,y,z
-x,1/2-y,z
x,-y,-z
-x,1/2+y,-z
-x,-y,-z
x,1/2+y,-z
-x,y,z
x,1/2-y,z
1/2+x,1/2+y,z
1/2-x,-y,z
1/2+x,1/2-y,-z
1/2-x,y,-z
1/2-x,1/2-y,-z
1/2+x,y,-z
1/2-x,1/2+y,z
1/2+x,-y,z
loop_
_atom_site_type_symbol
_atom_site_label
_atom_site_fract_x
_atom_site_fract_y
_atom_site_fract_z
Si Si1 0.327735 0.946933 0.444871
Si Si2 0.836886 0.187333 0.051681
Si Si3 0.328514 0.250000 0.556667
Si Si4 0.168457 0.348033 0.372158
Si Si5 0.827887 0.690389 0.272590
Si Si6 0.338367 0.312515 0.153248
O O1 0.500000 0.955636 0.454770
O O2 0.250000 0.928607 0.500000
O O3 0.299039 0.903300 0.400041
O O4 0.250000 0.000000 0.424331
O O5 0.834435 0.250000 0.052042
O O6 0.766356 0.165038 0.106744
O O7 0.000000 0.165652 0.048104
O O8 0.750000 0.165711 0.000000
O O9 0.500000 0.250000 0.546264
O O10 0.250000 0.250000 0.500000
O O11 0.277092 0.301310 0.589207
O O12 0.254210 0.347610 0.315940
O O13 0.000000 0.340408 0.358960
O O14 0.773159 0.750000 0.282115
O O15 0.781999 0.670689 0.212668
O O16 0.000000 0.687546 0.278730
O O17 0.500000 0.334932 0.142756
O O18 0.344426 0.250000 0.151109
#
# Coordination Sequence:
#
# PCOD8279482 Si02
#       6
#    16  16   8  16  16  16
#     4  10  20  34  51  69  86 108 137 171 210 253
#     4   9  15  21  30  45  64  90 126 167 209 245
#     4  10  20  32  44  62  86 110 133 164 203 246
#     4  10  20  32  46  64  87 111 137 169 209 251
#     4   9  17  28  42  60  81 108 140 170 205 248
#     4   8  14  24  35  48  69  96 128 166 202 239
#
# _framework density 15.167043
#
# number of rings (size 3 to 8) (size 9 to 14) (size 15 to 20)
#    0.000    2.727    0.909    3.273    0.000    5.091 
#    0.000    1.818    0.000    0.000    0.000    0.000 
#    0.000    0.000    0.000    0.000    0.000    0.909 
#
# Total GULP energy -545474.505005 kJ/mol
# GULP energy per Si atom -12397.147841 kJ/mol
# Density = 1.513252 g / cm^3
# Si number density = 15.167043 Si / 1000 Ang^3
#
#
#
# Elastic Constant Matrix: (Units=GPa)
#
#
# Indices 1 2 3 4 5 6 
#
# 1 88.0983 28.8394 72.0680 0.0000 0.0000 0.0000
# 2 28.8394 45.2247 41.2977 0.0000 0.0000 0.0000
# 3 72.0680 41.2977 150.3104 0.0000 0.0000 0.0000
# 4 0.0000 0.0000 0.0000 10.9224 0.0000 0.0000
# 5 0.0000 0.0000 0.0000 0.0000 32.9342 0.0000
# 6 0.0000 0.0000 0.0000 0.0000 0.0000 15.4718
#
#
#
# Elastic Compliance Matrix: (Units=1/GPa)
#
#
# Indices 1 2 3 4 5 6 
#
# 1 0.019557 -0.005218 -0.007943 0.000000 0.000000 0.000000
# 2 -0.005218 0.030910 -0.005991 0.000000 0.000000 0.000000
# 3 -0.007943 -0.005991 0.012107 0.000000 0.000000 0.000000
# 4 0.000000 0.000000 0.000000 0.091555 0.000000 0.000000
# 5 0.000000 0.000000 0.000000 0.000000 0.030364 0.000000
# 6 0.000000 0.000000 0.000000 0.000000 0.000000 0.064634
#
#
# Mechanical properties :
#
#
# Convention : Reuss Voigt Hill
#
# Bulk Modulus (GPa) = 41.20228 63.11596 52.15912
# Shear Modulus (GPa) = 16.91934 21.29423 19.10679
#
# Velocity S-wave (km/s) = 3.34358 3.75104 3.55316
# Velocity P-wave (km/s) = 6.49082 7.77590 7.16224
#
# Compressibility (1/GPa) = 0.02427050
#
# Stress axis : x y z
#
# Youngs Moduli (GPa) = 51.13295 32.35235 82.59493
#
# Poissons Ratio (x) = 0.16881 0.65607
# Poissons Ratio (y) = 0.26680 0.49480
# Poissons Ratio (z) = 0.40616 0.19381
#
# Static dielectric constant tensor:
#      x y z
#    x 3.010150 0.000000 0.000000 
#    y 0.000000 2.478970 0.000000 
#    z 0.000000 0.000000 3.077490 
# 
# 
# High freq. dielectric constant tensor:
#      x y z
#    x 1.589110 0.000000 0.000000 
#    y 0.000000 1.515040 0.000000 
#    z 0.000000 0.000000 1.590790 
# 
# From -- ./inp_files/41121.got.cif
#   From: 2010.03.12/outbox.cif.g09.slc.cpg/sg67_21_cif.got.tgz:41121.got - 2010.04.10 22:41:39.
