data_PCOD8279960
_publ_section_title
;
Structure prediction by ZEFSAII (Michael W. Deem and Ramdas Pophale) SiO2 
 PCOD8279960
Probable space group: C M M A
;
_chemical_formula_sum "Si O2"
_cell_formula_units_Z 56
_cell_length_a 8.745040
_cell_length_b 25.366711
_cell_length_c 14.311573
_cell_angle_alpha 90.000000
_cell_angle_beta 90.000000
_cell_angle_gamma 90.000000
_cell_volume 3174.777776
_symmetry_space_group_name_H-M "C M M A"
_symmetry_group_IT_number 67
_symmetry_cell_setting 'orthorhombic'
loop_
_space_group_symop_operation_xyz
x,y,z
-x,1/2-y,z
x,-y,-z
-x,1/2+y,-z
-x,-y,-z
x,1/2+y,-z
-x,y,z
x,1/2-y,z
1/2+x,1/2+y,z
1/2-x,-y,z
1/2+x,1/2-y,-z
1/2-x,y,-z
1/2-x,1/2-y,-z
1/2+x,y,-z
1/2-x,1/2+y,z
1/2+x,-y,z
loop_
_atom_site_type_symbol
_atom_site_label
_atom_site_fract_x
_atom_site_fract_y
_atom_site_fract_z
Si Si1 0.321692 0.844021 0.216314
Si Si2 0.678331 0.054751 0.901915
Si Si3 0.821934 0.188393 0.597891
Si Si4 0.319759 0.750000 0.898022
O O1 0.500000 0.829714 0.212370
O O2 0.287079 0.901582 0.175700
O O3 0.263467 0.844459 0.322382
O O4 0.229955 0.801744 0.156658
O O5 0.500000 0.046490 0.918056
O O6 0.750000 0.000000 0.866536
O O7 0.750000 0.073056 0.000000
O O8 0.793324 0.250000 0.616657
O O9 0.750000 0.170808 0.500000
O O10 0.000000 0.174502 0.597997
O O11 0.500000 0.750000 0.907106
O O12 0.250000 0.750000 0.000000
#
# Coordination Sequence:
#
# PCOD8279960 Si02
#       4
#    16  16  16   8
#     4  11  22  36  55  80 110 143 179 222 270 322
#     4  10  21  36  56  80 106 142 183 225 269 314
#     4  10  20  34  54  80 109 144 181 220 268 320
#     4  12  24  36  51  76 109 146 180 216 268 322
#
# _framework density 17.639030000000002
#
# number of rings (size 3 to 8) (size 9 to 14) (size 15 to 20)
#    0.000    1.429    1.429    5.571    0.000    8.000 
#    0.000    0.000    0.000    0.857    0.000    6.000 
#    0.000    0.000    0.000    0.000    0.000    0.000 
#
# Total GULP energy -347349.721780 kJ/mol
# GULP energy per Si atom -12405.347206 kJ/mol
# Density = 1.759888 g / cm^3
# Si number density = 17.639030 Si / 1000 Ang^3
#
#
#
# Elastic Constant Matrix: (Units=GPa)
#
#
# Indices 1 2 3 4 5 6 
#
# 1 141.4072 65.3800 72.5621 0.0000 0.0000 0.0000
# 2 65.3800 94.9265 69.9431 0.0000 0.0000 0.0000
# 3 72.5621 69.9431 152.5013 0.0000 0.0000 0.0000
# 4 0.0000 0.0000 0.0000 39.0667 0.0000 0.0000
# 5 0.0000 0.0000 0.0000 0.0000 36.3859 0.0000
# 6 0.0000 0.0000 0.0000 0.0000 0.0000 25.6636
#
#
#
# Elastic Compliance Matrix: (Units=1/GPa)
#
#
# Indices 1 2 3 4 5 6 
#
# 1 0.011051 -0.005645 -0.002670 0.000000 0.000000 0.000000
# 2 -0.005645 0.018794 -0.005934 0.000000 0.000000 0.000000
# 3 -0.002670 -0.005934 0.010549 0.000000 0.000000 0.000000
# 4 0.000000 0.000000 0.000000 0.025597 0.000000 0.000000
# 5 0.000000 0.000000 0.000000 0.000000 0.027483 0.000000
# 6 0.000000 0.000000 0.000000 0.000000 0.000000 0.038966
#
#
# Mechanical properties :
#
#
# Convention : Reuss Voigt Hill
#
# Bulk Modulus (GPa) = 84.04440 89.40062 86.72251
# Shear Modulus (GPa) = 30.32066 32.28656 31.30361
#
# Velocity S-wave (km/s) = 4.15052 4.28296 4.21726
# Velocity P-wave (km/s) = 8.40948 8.67478 8.54316
#
# Compressibility (1/GPa) = 0.01189847
#
# Stress axis : x y z
#
# Youngs Moduli (GPa) = 90.48568 53.20708 94.79444
#
# Poissons Ratio (x) = 0.30034 0.25306
# Poissons Ratio (y) = 0.51076 0.56252
# Poissons Ratio (z) = 0.24156 0.31574
#
# Static dielectric constant tensor:
#      x y z
#    x 3.498830 0.000000 0.000000 
#    y 0.000000 2.931460 0.000000 
#    z 0.000000 0.000000 3.345370 
# 
# 
# High freq. dielectric constant tensor:
#      x y z
#    x 1.705630 0.000000 0.000000 
#    y 0.000000 1.663420 0.000000 
#    z 0.000000 0.000000 1.687050 
# 
# From -- ./inp_files/15546.got.cif
#   From: 2010.03.12/outbox.cif.g09.slc.cpg/sg67_8_cif.got.tgz:15546.got - 2010.04.10 22:41:39.
