data_PCOD8279954
_publ_section_title
;
Structure prediction by ZEFSAII (Michael W. Deem and Ramdas Pophale) SiO2 
 PCOD8279954
Probable space group: C M M A
;
_chemical_formula_sum "Si O2"
_cell_formula_units_Z 80
_cell_length_a 16.944995
_cell_length_b 13.509044
_cell_length_c 18.460696
_cell_angle_alpha 90.000000
_cell_angle_beta 90.000000
_cell_angle_gamma 90.000000
_cell_volume 4225.850531
_symmetry_space_group_name_H-M "C M M A"
_symmetry_group_IT_number 67
_symmetry_cell_setting 'orthorhombic'
loop_
_space_group_symop_operation_xyz
x,y,z
-x,1/2-y,z
x,-y,-z
-x,1/2+y,-z
-x,-y,-z
x,1/2+y,-z
-x,y,z
x,1/2-y,z
1/2+x,1/2+y,z
1/2-x,-y,z
1/2+x,1/2-y,-z
1/2-x,y,-z
1/2-x,1/2-y,-z
1/2+x,y,-z
1/2-x,1/2+y,z
1/2+x,-y,z
loop_
_atom_site_type_symbol
_atom_site_label
_atom_site_fract_x
_atom_site_fract_y
_atom_site_fract_z
Si Si1 0.340078 0.030712 0.107128
Si Si2 0.906979 0.135823 0.754615
Si Si3 0.161381 0.362576 0.474386
Si Si4 0.408716 0.965709 0.606235
Si Si5 0.409276 0.638653 0.024879
O O1 0.361777 0.078064 0.183109
O O2 0.250000 0.000000 0.107105
O O3 0.392300 0.932460 0.093029
O O4 0.355181 0.109593 0.043321
O O5 0.880425 0.250000 0.754129
O O6 0.880083 0.086496 0.679503
O O7 0.000000 0.126870 0.767198
O O8 0.147855 0.250000 0.449625
O O9 0.250000 0.381993 0.500000
O O10 0.141748 0.434104 0.406695
O O11 0.103389 0.388665 0.540638
O O12 0.500000 0.994929 0.610871
O O13 0.500000 0.628108 0.000711
O O14 0.389065 0.750000 0.048718
#
# Coordination Sequence:
#
# PCOD8279954 Si02
#       5
#    16  16  16  16  16
#     4  11  22  34  54  82 110 139 174 221 269 318
#     4  10  21  38  58  78 104 141 183 224 266 315
#     4  10  20  34  54  79 109 143 174 212 266 323
#     4  10  20  34  55  80 105 136 180 228 263 305
#     4  10  20  36  58  80 106 142 180 218 261 313
#
# _framework density 18.931101000000002
#
# number of rings (size 3 to 8) (size 9 to 14) (size 15 to 20)
#    0.000    1.800    0.000    7.200    0.000    8.000 
#    0.000    1.000    0.000    1.200    0.000    0.000 
#    0.000    0.000    0.000    0.000    0.000    0.000 
#
# Total GULP energy -496079.680804 kJ/mol
# GULP energy per Si atom -12401.992020 kJ/mol
# Density = 1.888801 g / cm^3
# Si number density = 18.931101 Si / 1000 Ang^3
#
#
#
# Elastic Constant Matrix: (Units=GPa)
#
#
# Indices 1 2 3 4 5 6 
#
# 1 77.7312 56.7832 43.6664 0.0000 0.0000 0.0000
# 2 56.7832 174.3170 70.4489 0.0000 0.0000 0.0000
# 3 43.6664 70.4489 119.3232 0.0000 0.0000 0.0000
# 4 0.0000 0.0000 0.0000 26.8842 0.0000 0.0000
# 5 0.0000 0.0000 0.0000 0.0000 36.3771 0.0000
# 6 0.0000 0.0000 0.0000 0.0000 0.0000 20.2722
#
#
#
# Elastic Compliance Matrix: (Units=1/GPa)
#
#
# Indices 1 2 3 4 5 6 
#
# 1 0.018345 -0.004285 -0.004183 0.000000 0.000000 0.000000
# 2 -0.004285 0.008535 -0.003471 0.000000 0.000000 0.000000
# 3 -0.004183 -0.003471 0.011961 0.000000 0.000000 0.000000
# 4 0.000000 0.000000 0.000000 0.037197 0.000000 0.000000
# 5 0.000000 0.000000 0.000000 0.000000 0.027490 0.000000
# 6 0.000000 0.000000 0.000000 0.000000 0.000000 0.049329
#
#
# Mechanical properties :
#
#
# Convention : Reuss Voigt Hill
#
# Bulk Modulus (GPa) = 66.83610 79.24095 73.03853
# Shear Modulus (GPa) = 27.51428 30.07156 28.79292
#
# Velocity S-wave (km/s) = 3.81647 3.98989 3.90414
# Velocity P-wave (km/s) = 7.40285 7.94821 7.68037
#
# Compressibility (1/GPa) = 0.01496197
#
# Stress axis : x y z
#
# Youngs Moduli (GPa) = 54.50971 117.15887 83.60545
#
# Poissons Ratio (x) = 0.50205 0.34976
# Poissons Ratio (y) = 0.23359 0.29021
# Poissons Ratio (z) = 0.22804 0.40668
#
# Static dielectric constant tensor:
#      x y z
#    x 3.497870 0.000000 0.000000 
#    y 0.000000 3.705400 0.000000 
#    z 0.000000 0.000000 3.380110 
# 
# 
# High freq. dielectric constant tensor:
#      x y z
#    x 1.739050 0.000000 0.000000 
#    y 0.000000 1.748360 0.000000 
#    z 0.000000 0.000000 1.718720 
# 
# From -- ./inp_files/34098.got.cif
#   From: 2010.03.12/outbox.cif.g09.slc.cpg/sg67_18_cif.got.tgz:34098.got - 2010.04.10 22:41:39.
