data_PCOD8279561
_publ_section_title
;
Structure prediction by ZEFSAII (Michael W. Deem and Ramdas Pophale) SiO2 
 PCOD8279561
Probable space group: C M M A
;
_chemical_formula_sum "Si O2"
_cell_formula_units_Z 88
_cell_length_a 15.944061
_cell_length_b 9.423673
_cell_length_c 29.866515
_cell_angle_alpha 90.000000
_cell_angle_beta 90.000000
_cell_angle_gamma 90.000000
_cell_volume 4487.492178
_symmetry_space_group_name_H-M "C M M A"
_symmetry_group_IT_number 67
_symmetry_cell_setting 'orthorhombic'
loop_
_space_group_symop_operation_xyz
x,y,z
-x,1/2-y,z
x,-y,-z
-x,1/2+y,-z
-x,-y,-z
x,1/2+y,-z
-x,y,z
x,1/2-y,z
1/2+x,1/2+y,z
1/2-x,-y,z
1/2+x,1/2-y,-z
1/2-x,y,-z
1/2-x,1/2-y,-z
1/2+x,y,-z
1/2-x,1/2+y,z
1/2+x,-y,z
loop_
_atom_site_type_symbol
_atom_site_label
_atom_site_fract_x
_atom_site_fract_y
_atom_site_fract_z
Si Si1 0.167839 0.916847 0.599724
Si Si2 0.399887 0.909136 0.958022
Si Si3 0.000000 0.583524 0.545806
Si Si4 0.092823 0.418301 0.308040
Si Si5 0.332845 0.916203 0.215416
Si Si6 0.596978 0.094551 0.878027
O O1 0.185701 0.750000 0.595306
O O2 0.152813 0.964129 0.651171
O O3 0.084162 0.959357 0.572575
O O4 0.250000 0.000000 0.581574
O O5 0.500000 0.904284 0.957777
O O6 0.363544 0.750000 0.961197
O O7 0.363751 0.980676 0.912423
O O8 0.366784 0.000000 0.000000
O O9 0.000000 0.500000 0.500000
O O10 0.000000 0.750000 0.535926
O O11 0.086247 0.250000 0.306345
O O12 0.127628 0.477675 0.261140
O O13 0.000000 0.481863 0.315830
O O14 0.313941 0.750000 0.220633
O O15 0.393538 0.950110 0.173786
O O16 0.250000 0.000000 0.204298
O O17 0.500000 0.105808 0.889342
O O18 0.638669 0.250000 0.885784
#
# Coordination Sequence:
#
# PCOD8279561 Si02
#       6
#    16  16   8  16  16  16
#     4  10  20  36  59  86 116 151 193 239 289 342
#     4   9  16  26  43  68  95 123 156 199 252 305
#     4  10  22  40  60  84 116 156 198 242 291 344
#     4   9  16  31  56  81 106 140 182 224 266 322
#     4  10  20  32  49  73 101 134 170 209 256 308
#     4   9  17  30  47  68  94 125 164 205 244 296
#
# _framework density 19.610061999999999
#
# number of rings (size 3 to 8) (size 9 to 14) (size 15 to 20)
#    0.000    2.545    0.909    1.636    0.000    6.182 
#    0.000    1.818    0.000    3.273    0.000    3.818 
#    0.000    0.000    0.000    0.000    0.000    0.000 
#
# Total GULP energy -545417.891828 kJ/mol
# GULP energy per Si atom -12395.861178 kJ/mol
# Density = 1.956543 g / cm^3
# Si number density = 19.610062 Si / 1000 Ang^3
#
#
#
# Elastic Constant Matrix: (Units=GPa)
#
#
# Indices 1 2 3 4 5 6 
#
# 1 84.5522 39.4619 35.4707 0.0000 0.0000 0.0000
# 2 39.4619 78.8897 62.6430 0.0000 0.0000 0.0000
# 3 35.4707 62.6430 154.2186 0.0000 0.0000 0.0000
# 4 0.0000 0.0000 0.0000 28.7862 0.0000 0.0000
# 5 0.0000 0.0000 0.0000 0.0000 8.9852 0.0000
# 6 0.0000 0.0000 0.0000 0.0000 0.0000 20.9111
#
#
#
# Elastic Compliance Matrix: (Units=1/GPa)
#
#
# Indices 1 2 3 4 5 6 
#
# 1 0.015468 -0.007251 -0.000612 0.000000 0.000000 0.000000
# 2 -0.007251 0.022110 -0.007313 0.000000 0.000000 0.000000
# 3 -0.000612 -0.007313 0.009596 0.000000 0.000000 0.000000
# 4 0.000000 0.000000 0.000000 0.034739 0.000000 0.000000
# 5 0.000000 0.000000 0.000000 0.000000 0.111294 0.000000
# 6 0.000000 0.000000 0.000000 0.000000 0.000000 0.047821
#
#
# Mechanical properties :
#
#
# Convention : Reuss Voigt Hill
#
# Bulk Modulus (GPa) = 59.45108 65.86797 62.65952
# Shear Modulus (GPa) = 18.05128 23.74218 20.89673
#
# Velocity S-wave (km/s) = 3.03728 3.48331 3.26791
# Velocity P-wave (km/s) = 6.53319 7.05972 6.80155
#
# Compressibility (1/GPa) = 0.01682055
#
# Stress axis : x y z
#
# Youngs Moduli (GPa) = 64.64908 45.22781 104.21244
#
# Poissons Ratio (x) = 0.32796 0.06381
# Poissons Ratio (y) = 0.46878 0.76214
# Poissons Ratio (z) = 0.03958 0.33077
#
# Static dielectric constant tensor:
#      x y z
#    x 3.354410 0.000000 0.000000 
#    y 0.000000 3.458380 0.000000 
#    z 0.000000 0.000000 3.746230 
# 
# 
# High freq. dielectric constant tensor:
#      x y z
#    x 1.745190 0.000000 0.000000 
#    y 0.000000 1.738390 0.000000 
#    z 0.000000 0.000000 1.775070 
# 
# From -- ./inp_files/45776.got.cif
#   From: 2010.03.12/outbox.cif.g09.slc.cpg/sg67_23_cif.got.tgz:45776.got - 2010.04.10 22:41:39.
