data_PCOD8279360
_publ_section_title
;
Structure prediction by ZEFSAII (Michael W. Deem and Ramdas Pophale) SiO2 
 PCOD8279360
Probable space group: C M M A
;
_chemical_formula_sum "Si O2"
_cell_formula_units_Z 64
_cell_length_a 16.324682
_cell_length_b 16.189720
_cell_length_c 11.419960
_cell_angle_alpha 90.000000
_cell_angle_beta 90.000000
_cell_angle_gamma 90.000000
_cell_volume 3018.204419
_symmetry_space_group_name_H-M "C M M A"
_symmetry_group_IT_number 67
_symmetry_cell_setting 'orthorhombic'
loop_
_space_group_symop_operation_xyz
x,y,z
-x,1/2-y,z
x,-y,-z
-x,1/2+y,-z
-x,-y,-z
x,1/2+y,-z
-x,y,z
x,1/2-y,z
1/2+x,1/2+y,z
1/2-x,-y,z
1/2+x,1/2-y,-z
1/2-x,y,-z
1/2-x,1/2-y,-z
1/2+x,y,-z
1/2-x,1/2+y,z
1/2+x,-y,z
loop_
_atom_site_type_symbol
_atom_site_label
_atom_site_fract_x
_atom_site_fract_y
_atom_site_fract_z
Si Si1 0.859917 0.843467 0.452241
Si Si2 0.209968 0.410878 0.335106
Si Si3 0.827271 0.847692 0.918156
Si Si4 0.000000 0.347998 0.971794
Si Si5 0.000000 0.651509 0.288392
O O1 0.884292 0.750000 0.485988
O O2 0.863495 0.899951 0.570201
O O3 0.774016 0.842898 0.382549
O O4 0.922155 0.881964 0.358437
O O5 0.250000 0.500000 0.345714
O O6 0.181381 0.393483 0.204634
O O7 0.826718 0.750000 0.898731
O O8 0.750000 0.873391 0.000000
O O9 0.915192 0.878156 0.968202
O O10 0.000000 0.250000 0.968606
O O11 0.000000 0.386462 0.841716
O O12 0.000000 0.750000 0.277901
#
# Coordination Sequence:
#
# PCOD8279360 Si02
#       5
#    16  16  16   8   8
#     4  10  19  35  59  82 107 143 190 237 284 342
#     4  11  22  36  53  80 115 149 186 231 286 343
#     4  10  20  36  60  85 113 153 197 241 287 338
#     4   9  18  33  56  89 120 147 192 244 289 345
#     4   9  18  33  57  87 113 140 181 240 296 339
#
# _framework density 21.204660000000001
#
# number of rings (size 3 to 8) (size 9 to 14) (size 15 to 20)
#    0.000    2.000    0.000    6.000    0.000    5.500 
#    0.000    7.500    0.000    3.000    0.000    0.000 
#    0.000    0.000    0.000    0.000    0.000    0.500 
#
# Total GULP energy -396603.772957 kJ/mol
# GULP energy per Si atom -12393.867905 kJ/mol
# Density = 2.115640 g / cm^3
# Si number density = 21.204660 Si / 1000 Ang^3
#
#
#
# Elastic Constant Matrix: (Units=GPa)
#
#
# Indices 1 2 3 4 5 6 
#
# 1 126.0340 21.6268 86.0334 0.0000 0.0000 0.0000
# 2 21.6268 56.5853 50.8586 0.0000 0.0000 0.0000
# 3 86.0334 50.8586 226.6062 0.0000 0.0000 0.0000
# 4 0.0000 0.0000 0.0000 16.8534 0.0000 0.0000
# 5 0.0000 0.0000 0.0000 0.0000 48.4034 0.0000
# 6 0.0000 0.0000 0.0000 0.0000 0.0000 11.4892
#
#
#
# Elastic Compliance Matrix: (Units=1/GPa)
#
#
# Indices 1 2 3 4 5 6 
#
# 1 0.010724 -0.000550 -0.003948 0.000000 0.000000 0.000000
# 2 -0.000550 0.022166 -0.004766 0.000000 0.000000 0.000000
# 3 -0.003948 -0.004766 0.006981 0.000000 0.000000 0.000000
# 4 0.000000 0.000000 0.000000 0.059335 0.000000 0.000000
# 5 0.000000 0.000000 0.000000 0.000000 0.020660 0.000000
# 6 0.000000 0.000000 0.000000 0.000000 0.000000 0.087039
#
#
# Mechanical properties :
#
#
# Convention : Reuss Voigt Hill
#
# Bulk Modulus (GPa) = 46.85318 80.69590 63.77454
# Shear Modulus (GPa) = 21.50096 32.06297 26.78196
#
# Velocity S-wave (km/s) = 3.18775 3.89276 3.55776
# Velocity P-wave (km/s) = 5.97433 7.63826 6.85696
#
# Compressibility (1/GPa) = 0.02134327
#
# Stress axis : x y z
#
# Youngs Moduli (GPa) = 93.25162 45.11326 143.23657
#
# Poissons Ratio (x) = 0.02482 0.56548
# Poissons Ratio (y) = 0.05131 0.68267
# Poissons Ratio (z) = 0.36814 0.21501
#
# Static dielectric constant tensor:
#      x y z
#    x 4.047180 0.000000 0.000000 
#    y 0.000000 3.362110 0.000000 
#    z 0.000000 0.000000 4.044000 
# 
# 
# High freq. dielectric constant tensor:
#      x y z
#    x 1.827770 0.000000 0.000000 
#    y 0.000000 1.799250 0.000000 
#    z 0.000000 0.000000 1.846910 
# 
# From -- ./inp_files/19001.got.cif
#   From: 2010.03.12/outbox.cif.g09.slc.cpg/sg67_10_cif.got.tgz:19001.got - 2010.04.10 22:41:39.
