data_PCOD8279442
_publ_section_title
;
Structure prediction by ZEFSAII (Michael W. Deem and Ramdas Pophale) SiO2 
 PCOD8279442
Probable space group: C M M A
;
_chemical_formula_sum "Si O2"
_cell_formula_units_Z 88
_cell_length_a 30.412074
_cell_length_b 9.068144
_cell_length_c 17.526986
_cell_angle_alpha 90.000000
_cell_angle_beta 90.000000
_cell_angle_gamma 90.000000
_cell_volume 4833.610889
_symmetry_space_group_name_H-M "C M M A"
_symmetry_group_IT_number 67
_symmetry_cell_setting 'orthorhombic'
loop_
_space_group_symop_operation_xyz
x,y,z
-x,1/2-y,z
x,-y,-z
-x,1/2+y,-z
-x,-y,-z
x,1/2+y,-z
-x,y,z
x,1/2-y,z
1/2+x,1/2+y,z
1/2-x,-y,z
1/2+x,1/2-y,-z
1/2-x,y,-z
1/2-x,1/2-y,-z
1/2+x,y,-z
1/2-x,1/2+y,z
1/2+x,-y,z
loop_
_atom_site_type_symbol
_atom_site_label
_atom_site_fract_x
_atom_site_fract_y
_atom_site_fract_z
Si Si1 0.294791 0.075422 0.242070
Si Si2 0.407428 0.916633 0.132551
Si Si3 0.000000 0.922008 0.921070
Si Si4 0.673175 0.576909 0.924748
Si Si5 0.376558 0.582332 0.302374
Si Si6 0.549715 0.924059 0.420447
O O1 0.291535 0.250000 0.250198
O O2 0.302518 0.028762 0.153478
O O3 0.250000 0.000000 0.269636
O O4 0.332914 0.018399 0.299120
O O5 0.399983 0.750000 0.102082
O O6 0.457204 0.971433 0.125179
O O7 0.398925 0.926006 0.221169
O O8 0.377133 0.024514 0.082736
O O9 0.000000 0.750000 0.935777
O O10 0.000000 0.000000 0.000000
O O11 0.675419 0.750000 0.937277
O O12 0.694594 0.500000 0.000000
O O13 0.362883 0.750000 0.322820
O O14 0.412987 0.520485 0.361362
O O15 0.500000 0.966767 0.393032
O O16 0.553043 0.750000 0.431018
O O17 0.560758 0.000000 0.500000
#
# Coordination Sequence:
#
# PCOD8279442 Si02
#       6
#    16  16   8  16  16  16
#     4  10  21  36  54  76 102 132 170 215 263 314
#     4   9  18  31  47  67  92 127 169 212 254 300
#     4  10  20  30  42  62  89 124 166 210 253 294
#     4  10  20  33  49  69  95 127 165 211 261 311
#     4   9  18  33  54  77 103 136 173 211 253 302
#     4   9  18  32  53  82 114 146 176 208 247 297
#
# _framework density 18.205852
#
# number of rings (size 3 to 8) (size 9 to 14) (size 15 to 20)
#    0.000    2.545    0.000    1.636    1.273    5.455 
#    0.000    1.818    0.000    0.545    0.000    3.818 
#    0.000    0.000    0.000    0.000    0.000    0.000 
#
# Total GULP energy -545455.725070 kJ/mol
# GULP energy per Si atom -12396.721024 kJ/mol
# Density = 1.816441 g / cm^3
# Si number density = 18.205852 Si / 1000 Ang^3
#
#
#
# Elastic Constant Matrix: (Units=GPa)
#
#
# Indices 1 2 3 4 5 6 
#
# 1 136.1505 45.3000 44.7387 0.0000 0.0000 0.0000
# 2 45.3000 55.4707 29.7101 0.0000 0.0000 0.0000
# 3 44.7387 29.7101 69.8803 0.0000 0.0000 0.0000
# 4 0.0000 0.0000 0.0000 28.2022 0.0000 0.0000
# 5 0.0000 0.0000 0.0000 0.0000 19.6783 0.0000
# 6 0.0000 0.0000 0.0000 0.0000 0.0000 26.5622
#
#
#
# Elastic Compliance Matrix: (Units=1/GPa)
#
#
# Indices 1 2 3 4 5 6 
#
# 1 0.010942 -0.006712 -0.004152 0.000000 0.000000 0.000000
# 2 -0.006712 0.027461 -0.007378 0.000000 0.000000 0.000000
# 3 -0.004152 -0.007378 0.020105 0.000000 0.000000 0.000000
# 4 0.000000 0.000000 0.000000 0.035458 0.000000 0.000000
# 5 0.000000 0.000000 0.000000 0.000000 0.050817 0.000000
# 6 0.000000 0.000000 0.000000 0.000000 0.000000 0.037647
#
#
# Mechanical properties :
#
#
# Convention : Reuss Voigt Hill
#
# Bulk Modulus (GPa) = 45.40432 55.66658 50.53545
# Shear Modulus (GPa) = 22.09883 24.33871 23.21877
#
# Velocity S-wave (km/s) = 3.48779 3.66028 3.57507
# Velocity P-wave (km/s) = 6.41974 6.96463 6.69773
#
# Compressibility (1/GPa) = 0.02202434
#
# Stress axis : x y z
#
# Youngs Moduli (GPa) = 91.38744 36.41568 49.73919
#
# Poissons Ratio (x) = 0.24444 0.20650
# Poissons Ratio (y) = 0.61343 0.36696
# Poissons Ratio (z) = 0.37941 0.26866
#
# Static dielectric constant tensor:
#      x y z
#    x 3.508500 0.000000 0.000000 
#    y 0.000000 3.217450 0.000000 
#    z 0.000000 0.000000 3.220550 
# 
# 
# High freq. dielectric constant tensor:
#      x y z
#    x 1.709660 0.000000 0.000000 
#    y 0.000000 1.701380 0.000000 
#    z 0.000000 0.000000 1.683910 
# 
# From -- ./inp_files/32377.got.cif
#   From: 2010.03.12/outbox.cif.g09.slc.cpg/sg67_17_cif.got.tgz:32377.got - 2010.04.10 22:41:39.
