data_PCOD8279719
_publ_section_title
;
Structure prediction by ZEFSAII (Michael W. Deem and Ramdas Pophale) SiO2 
 PCOD8279719
Probable space group: C M M A
;
_chemical_formula_sum "Si O2"
_cell_formula_units_Z 116
_cell_length_a 8.835998
_cell_length_b 29.360839
_cell_length_c 24.038257
_cell_angle_alpha 90.000000
_cell_angle_beta 90.000000
_cell_angle_gamma 90.000000
_cell_volume 6236.300654
_symmetry_space_group_name_H-M "C M M A"
_symmetry_group_IT_number 67
_symmetry_cell_setting 'orthorhombic'
loop_
_space_group_symop_operation_xyz
x,y,z
-x,1/2-y,z
x,-y,-z
-x,1/2+y,-z
-x,-y,-z
x,1/2+y,-z
-x,y,z
x,1/2-y,z
1/2+x,1/2+y,z
1/2-x,-y,z
1/2+x,1/2-y,-z
1/2-x,y,-z
1/2-x,1/2-y,-z
1/2+x,y,-z
1/2-x,1/2+y,z
1/2+x,-y,z
loop_
_atom_site_type_symbol
_atom_site_label
_atom_site_fract_x
_atom_site_fract_y
_atom_site_fract_z
Si Si1 0.177726 0.198013 0.729898
Si Si2 0.820337 0.630608 0.942584
Si Si3 0.165874 0.911848 0.552128
Si Si4 0.250000 0.500000 0.500000
Si Si5 0.679338 0.882084 0.329805
Si Si6 0.325178 0.802220 0.155757
Si Si7 0.818793 0.548934 0.118331
Si Si8 0.819374 0.048434 0.234843
O O1 0.228956 0.250000 0.719556
O O2 0.253624 0.167628 0.682118
O O3 0.231175 0.181674 0.790703
O O4 0.000000 0.192243 0.726162
O O5 0.776017 0.667846 0.896596
O O6 0.738329 0.583191 0.928787
O O7 0.000000 0.623759 0.947222
O O8 0.750000 0.648727 0.000000
O O9 0.250000 0.887959 0.500000
O O10 0.154949 0.966678 0.541016
O O11 0.244795 0.900293 0.611062
O O12 0.000000 0.890703 0.553656
O O13 0.500000 0.879294 0.331045
O O14 0.732464 0.916800 0.282295
O O15 0.500000 0.809760 0.170811
O O16 0.289953 0.750000 0.140458
O O17 0.750000 0.500000 0.103473
O O18 0.752513 0.565995 0.177288
O O19 0.000000 0.546494 0.120254
O O20 0.000000 0.044801 0.228410
O O21 0.750000 0.000000 0.251369
#
# Coordination Sequence:
#
# PCOD8279719 Si02
#       8
#    16  16  16   4  16  16  16  16
#     4  10  21  36  56  84 111 137 176 224 271 319
#     4  11  23  38  56  80 108 138 177 220 262 313
#     4   9  19  33  51  75 106 143 183 221 262 309
#     4   8  18  32  54  72 108 144 186 228 260 308
#     4  10  21  35  52  79 111 144 182 221 265 323
#     4   9  19  37  60  83 110 145 177 210 261 323
#     4  11  22  38  57  76 103 138 178 221 269 320
#     4  10  20  33  51  77 109 141 175 216 263 318
#
# _framework density 18.600771999999999
#
# number of rings (size 3 to 8) (size 9 to 14) (size 15 to 20)
#    0.414    1.655    0.000    4.345    0.966    7.448 
#    0.000    1.379    0.000    0.414    0.000    0.000 
#    0.000    0.000    0.000    0.000    0.000    0.000 
#
# Total GULP energy -719085.515993 kJ/mol
# GULP energy per Si atom -12398.026138 kJ/mol
# Density = 1.855844 g / cm^3
# Si number density = 18.600772 Si / 1000 Ang^3
#
#
#
# Elastic Constant Matrix: (Units=GPa)
#
#
# Indices 1 2 3 4 5 6 
#
# 1 67.7811 26.3307 28.3168 0.0000 0.0000 0.0000
# 2 26.3307 82.5097 61.4431 0.0000 0.0000 0.0000
# 3 28.3168 61.4431 118.7509 0.0000 0.0000 0.0000
# 4 0.0000 0.0000 0.0000 28.2332 0.0000 0.0000
# 5 0.0000 0.0000 0.0000 0.0000 29.5992 0.0000
# 6 0.0000 0.0000 0.0000 0.0000 0.0000 25.9489
#
#
#
# Elastic Compliance Matrix: (Units=1/GPa)
#
#
# Indices 1 2 3 4 5 6 
#
# 1 0.017141 -0.003947 -0.002045 0.000000 0.000000 0.000000
# 2 -0.003947 0.020626 -0.009731 0.000000 0.000000 0.000000
# 3 -0.002045 -0.009731 0.013943 0.000000 0.000000 0.000000
# 4 0.000000 0.000000 0.000000 0.035419 0.000000 0.000000
# 5 0.000000 0.000000 0.000000 0.000000 0.033785 0.000000
# 6 0.000000 0.000000 0.000000 0.000000 0.000000 0.038537
#
#
# Mechanical properties :
#
#
# Convention : Reuss Voigt Hill
#
# Bulk Modulus (GPa) = 49.34807 55.69146 52.51976
# Shear Modulus (GPa) = 25.29695 26.95299 26.12497
#
# Velocity S-wave (km/s) = 3.69181 3.81074 3.75175
# Velocity P-wave (km/s) = 6.69032 7.02621 6.86032
#
# Compressibility (1/GPa) = 0.02026422
#
# Stress axis : x y z
#
# Youngs Moduli (GPa) = 58.33929 48.48322 71.71828
#
# Poissons Ratio (x) = 0.19137 0.14667
# Poissons Ratio (y) = 0.23028 0.69787
# Poissons Ratio (z) = 0.11931 0.47178
#
# Static dielectric constant tensor:
#      x y z
#    x 3.349770 0.000000 0.000000 
#    y 0.000000 3.389490 0.000000 
#    z 0.000000 0.000000 3.512500 
# 
# 
# High freq. dielectric constant tensor:
#      x y z
#    x 1.723600 0.000000 0.000000 
#    y 0.000000 1.714570 0.000000 
#    z 0.000000 0.000000 1.718520 
# 
# From -- ./inp_files/41218.got.cif
#   From: 2010.03.12/outbox.cif.g09.slc.cpg/sg67_21_cif.got.tgz:41218.got - 2010.04.10 22:41:39.
