data_PCOD8279867
_publ_section_title
;
Structure prediction by ZEFSAII (Michael W. Deem and Ramdas Pophale) SiO2 
 PCOD8279867
Probable space group: C M M A
;
_chemical_formula_sum "Si O2"
_cell_formula_units_Z 88
_cell_length_a 16.073583
_cell_length_b 9.484553
_cell_length_c 29.531929
_cell_angle_alpha 90.000000
_cell_angle_beta 90.000000
_cell_angle_gamma 90.000000
_cell_volume 4502.164721
_symmetry_space_group_name_H-M "C M M A"
_symmetry_group_IT_number 67
_symmetry_cell_setting 'orthorhombic'
loop_
_space_group_symop_operation_xyz
x,y,z
-x,1/2-y,z
x,-y,-z
-x,1/2+y,-z
-x,-y,-z
x,1/2+y,-z
-x,y,z
x,1/2-y,z
1/2+x,1/2+y,z
1/2-x,-y,z
1/2+x,1/2-y,-z
1/2-x,y,-z
1/2-x,1/2-y,-z
1/2+x,y,-z
1/2-x,1/2+y,z
1/2+x,-y,z
loop_
_atom_site_type_symbol
_atom_site_label
_atom_site_fract_x
_atom_site_fract_y
_atom_site_fract_z
Si Si1 0.096550 0.904268 0.038862
Si Si2 0.168509 0.585761 0.598112
Si Si3 0.332143 0.087391 0.131281
Si Si4 0.835051 0.084878 0.768535
Si Si5 0.000000 0.416766 0.453654
Si Si6 0.906285 0.591955 0.692359
O O1 0.137571 0.750000 0.034444
O O2 0.108003 0.961286 0.090239
O O3 0.000000 0.894836 0.028645
O O4 0.139357 0.000000 0.000000
O O5 0.186018 0.750000 0.589227
O O6 0.250000 0.500000 0.581256
O O7 0.155605 0.554939 0.651395
O O8 0.084325 0.537891 0.572562
O O9 0.307860 0.250000 0.126993
O O10 0.372668 0.061048 0.180856
O O11 0.250000 0.000000 0.125672
O O12 0.820290 0.250000 0.758594
O O13 0.750000 0.000000 0.762935
O O14 0.898972 0.021053 0.732591
O O15 0.000000 0.500000 0.500000
O O16 0.000000 0.250000 0.462307
O O17 0.887280 0.750000 0.710584
O O18 0.000000 0.585081 0.673296
#
# Coordination Sequence:
#
# PCOD8279867 Si02
#       6
#    16  16  16  16   8  16
#     4   9  18  33  51  70  93 124 162 205 255 311
#     4  10  21  39  62  87 119 159 198 240 293 348
#     4   9  19  34  51  71  99 133 167 209 262 316
#     4  10  20  34  52  76 106 141 180 223 271 328
#     4  10  22  42  64  88 122 160 198 244 295 346
#     4  10  20  36  57  81 113 151 188 231 283 337
#
# _framework density 19.546151999999999
#
# number of rings (size 3 to 8) (size 9 to 14) (size 15 to 20)
#    0.000    2.364    0.909    1.091    0.000    6.182 
#    0.000    5.455    0.000    2.182    0.000    0.000 
#    0.000    0.000    0.000    0.000    0.000    0.000 
#
# Total GULP energy -545326.541605 kJ/mol
# GULP energy per Si atom -12393.785036 kJ/mol
# Density = 1.950166 g / cm^3
# Si number density = 19.546152 Si / 1000 Ang^3
#
#
#
# Elastic Constant Matrix: (Units=GPa)
#
#
# Indices 1 2 3 4 5 6 
#
# 1 88.1401 41.8987 44.1493 0.0000 0.0000 0.0000
# 2 41.8987 84.7661 63.6336 0.0000 0.0000 0.0000
# 3 44.1493 63.6336 124.3617 0.0000 0.0000 0.0000
# 4 0.0000 0.0000 0.0000 36.0220 0.0000 0.0000
# 5 0.0000 0.0000 0.0000 0.0000 28.6552 0.0000
# 6 0.0000 0.0000 0.0000 0.0000 0.0000 27.8420
#
#
#
# Elastic Compliance Matrix: (Units=1/GPa)
#
#
# Indices 1 2 3 4 5 6 
#
# 1 0.015308 -0.005662 -0.002537 0.000000 0.000000 0.000000
# 2 -0.005662 0.021249 -0.008863 0.000000 0.000000 0.000000
# 3 -0.002537 -0.008863 0.013477 0.000000 0.000000 0.000000
# 4 0.000000 0.000000 0.000000 0.027761 0.000000 0.000000
# 5 0.000000 0.000000 0.000000 0.000000 0.034898 0.000000
# 6 0.000000 0.000000 0.000000 0.000000 0.000000 0.035917
#
#
# Mechanical properties :
#
#
# Convention : Reuss Voigt Hill
#
# Bulk Modulus (GPa) = 62.85392 66.29232 64.57312
# Shear Modulus (GPa) = 26.59066 28.34293 27.46680
#
# Velocity S-wave (km/s) = 3.69237 3.81209 3.75270
# Velocity P-wave (km/s) = 7.09962 7.30516 7.20312
#
# Compressibility (1/GPa) = 0.01590991
#
# Stress axis : x y z
#
# Youngs Moduli (GPa) = 65.32564 47.06133 74.20167
#
# Poissons Ratio (x) = 0.26644 0.18828
# Poissons Ratio (y) = 0.36985 0.65763
# Poissons Ratio (z) = 0.16576 0.41709
#
# Static dielectric constant tensor:
#      x y z
#    x 3.339070 0.000000 0.000000 
#    y 0.000000 3.436000 0.000000 
#    z 0.000000 0.000000 3.735440 
# 
# 
# High freq. dielectric constant tensor:
#      x y z
#    x 1.744140 0.000000 0.000000 
#    y 0.000000 1.757780 0.000000 
#    z 0.000000 0.000000 1.769420 
# 
# From -- ./inp_files/45258.got.cif
#   From: 2010.03.12/outbox.cif.g09.slc.cpg/sg67_23_cif.got.tgz:45258.got - 2010.04.10 22:41:39.
