data_PCOD8279093
_publ_section_title
;
Structure prediction by ZEFSAII (Michael W. Deem and Ramdas Pophale) SiO2 
 PCOD8279093
Probable space group: C M M A
;
_chemical_formula_sum "Si O2"
_cell_formula_units_Z 96
_cell_length_a 8.669244
_cell_length_b 29.090159
_cell_length_c 20.798987
_cell_angle_alpha 90.000000
_cell_angle_beta 90.000000
_cell_angle_gamma 90.000000
_cell_volume 5245.290008
_symmetry_space_group_name_H-M "C M M A"
_symmetry_group_IT_number 67
_symmetry_cell_setting 'orthorhombic'
loop_
_space_group_symop_operation_xyz
x,y,z
-x,1/2-y,z
x,-y,-z
-x,1/2+y,-z
-x,-y,-z
x,1/2+y,-z
-x,y,z
x,1/2-y,z
1/2+x,1/2+y,z
1/2-x,-y,z
1/2+x,1/2-y,-z
1/2-x,y,-z
1/2-x,1/2-y,-z
1/2+x,y,-z
1/2-x,1/2+y,z
1/2+x,-y,z
loop_
_atom_site_type_symbol
_atom_site_label
_atom_site_fract_x
_atom_site_fract_y
_atom_site_fract_z
Si Si1 0.317113 0.550567 0.685532
Si Si2 0.320092 0.394330 0.567485
Si Si3 0.818582 0.799919 0.236084
Si Si4 0.176350 0.199110 0.371302
Si Si5 0.316469 0.449934 0.066893
Si Si6 0.683483 0.605069 0.810095
O O1 0.500000 0.548065 0.685215
O O2 0.250000 0.500000 0.684746
O O3 0.261927 0.577701 0.623333
O O4 0.254113 0.576043 0.749465
O O5 0.500000 0.405965 0.568532
O O6 0.250000 0.410281 0.500000
O O7 0.287569 0.339764 0.575976
O O8 0.747672 0.750000 0.215170
O O9 0.784100 0.809901 0.310351
O O10 0.752768 0.842347 0.193904
O O11 0.000000 0.797998 0.227593
O O12 0.208839 0.250000 0.400726
O O13 0.000000 0.195210 0.347665
O O14 0.500000 0.452738 0.063161
O O15 0.250000 0.500000 0.081354
O O16 0.257058 0.416665 0.123468
O O17 0.250000 0.430375 0.000000
O O18 0.500000 0.604823 0.808101
#
# Coordination Sequence:
#
# PCOD8279093 Si02
#       6
#    16  16  16  16  16  16
#     4  11  22  38  57  78 104 132 171 218 264 313
#     4  11  23  38  55  76 103 138 175 214 262 313
#     4   9  16  29  52  79 104 133 170 209 254 306
#     4   9  18  33  52  76 106 135 166 210 261 310
#     4  10  19  33  51  75 108 141 175 212 254 304
#     4   9  18  32  53  80 108 136 169 213 257 302
#
# _framework density 18.302133999999999
#
# number of rings (size 3 to 8) (size 9 to 14) (size 15 to 20)
#    0.000    2.167    1.667    2.500    0.000    1.333 
#    0.000    5.833    0.000    0.500    0.000    0.000 
#    0.000    0.000    0.000    0.000    0.000    0.667 
#
# Total GULP energy -595029.942924 kJ/mol
# GULP energy per Si atom -12396.457144 kJ/mol
# Density = 1.826048 g / cm^3
# Si number density = 18.302134 Si / 1000 Ang^3
#
#
#
# Elastic Constant Matrix: (Units=GPa)
#
#
# Indices 1 2 3 4 5 6 
#
# 1 50.9549 33.8889 29.3966 0.0000 0.0000 0.0000
# 2 33.8889 131.6053 76.6530 0.0000 0.0000 0.0000
# 3 29.3966 76.6530 140.6316 0.0000 0.0000 0.0000
# 4 0.0000 0.0000 0.0000 31.6076 0.0000 0.0000
# 5 0.0000 0.0000 0.0000 0.0000 20.0551 0.0000
# 6 0.0000 0.0000 0.0000 0.0000 0.0000 8.6000
#
#
#
# Elastic Compliance Matrix: (Units=1/GPa)
#
#
# Indices 1 2 3 4 5 6 
#
# 1 0.024239 -0.004821 -0.002439 0.000000 0.000000 0.000000
# 2 -0.004821 0.012092 -0.005583 0.000000 0.000000 0.000000
# 3 -0.002439 -0.005583 0.010664 0.000000 0.000000 0.000000
# 4 0.000000 0.000000 0.000000 0.031638 0.000000 0.000000
# 5 0.000000 0.000000 0.000000 0.000000 0.049863 0.000000
# 6 0.000000 0.000000 0.000000 0.000000 0.000000 0.116279
#
#
# Mechanical properties :
#
#
# Convention : Reuss Voigt Hill
#
# Bulk Modulus (GPa) = 46.93037 67.00764 56.96901
# Shear Modulus (GPa) = 18.01401 24.26943 21.14172
#
# Velocity S-wave (km/s) = 3.14069 3.64544 3.40244
# Velocity P-wave (km/s) = 6.23295 7.37634 6.82862
#
# Compressibility (1/GPa) = 0.02130816
#
# Stress axis : x y z
#
# Youngs Moduli (GPa) = 41.25652 82.70142 93.77636
#
# Poissons Ratio (x) = 0.39870 0.22871
# Poissons Ratio (y) = 0.19890 0.52355
# Poissons Ratio (z) = 0.10062 0.46172
#
# Static dielectric constant tensor:
#      x y z
#    x 3.270970 0.000000 0.000000 
#    y 0.000000 3.888950 0.000000 
#    z 0.000000 0.000000 3.358520 
# 
# 
# High freq. dielectric constant tensor:
#      x y z
#    x 1.699550 0.000000 0.000000 
#    y 0.000000 1.722170 0.000000 
#    z 0.000000 0.000000 1.690850 
# 
# From -- ./inp_files/37145.got.cif
#   From: 2010.03.12/outbox.cif.g09.slc.cpg/sg67_19_cif.got.tgz:37145.got - 2010.04.10 22:41:39.
