data_PCOD8279810
_publ_section_title
;
Structure prediction by ZEFSAII (Michael W. Deem and Ramdas Pophale) SiO2 
 PCOD8279810
Probable space group: C M M A
;
_chemical_formula_sum "Si O2"
_cell_formula_units_Z 104
_cell_length_a 8.692577
_cell_length_b 26.355205
_cell_length_c 22.961175
_cell_angle_alpha 90.000000
_cell_angle_beta 90.000000
_cell_angle_gamma 90.000000
_cell_volume 5260.282323
_symmetry_space_group_name_H-M "C M M A"
_symmetry_group_IT_number 67
_symmetry_cell_setting 'orthorhombic'
loop_
_space_group_symop_operation_xyz
x,y,z
-x,1/2-y,z
x,-y,-z
-x,1/2+y,-z
-x,-y,-z
x,1/2+y,-z
-x,y,z
x,1/2-y,z
1/2+x,1/2+y,z
1/2-x,-y,z
1/2+x,1/2-y,-z
1/2-x,y,-z
1/2-x,1/2-y,-z
1/2+x,y,-z
1/2-x,1/2+y,z
1/2+x,-y,z
loop_
_atom_site_type_symbol
_atom_site_label
_atom_site_fract_x
_atom_site_fract_y
_atom_site_fract_z
Si Si1 0.181856 0.150635 0.059391
Si Si2 0.318101 0.304704 0.819936
Si Si3 0.318112 0.554277 0.353546
Si Si4 0.821275 0.250000 0.562440
Si Si5 0.317990 0.552330 0.889445
Si Si6 0.317863 0.139728 0.435559
Si Si7 0.182556 0.409302 0.227085
O O1 0.234402 0.185323 0.113585
O O2 0.250235 0.094918 0.068530
O O3 0.000000 0.146949 0.054955
O O4 0.250000 0.174215 0.000000
O O5 0.500000 0.302105 0.817860
O O6 0.248910 0.250000 0.799918
O O7 0.262857 0.350232 0.777796
O O8 0.500000 0.551680 0.357975
O O9 0.250000 0.500000 0.371552
O O10 0.258034 0.596971 0.396593
O O11 0.263412 0.568808 0.288722
O O12 0.750000 0.250000 0.500000
O O13 0.776002 0.304114 0.592439
O O14 0.000000 0.250000 0.551771
O O15 0.500000 0.552496 0.892940
O O16 0.250000 0.500000 0.913345
O O17 0.266016 0.558796 0.822531
O O18 0.500000 0.131081 0.437874
O O19 0.250000 0.135006 0.500000
O O20 0.000000 0.413769 0.217653
#
# Coordination Sequence:
#
# PCOD8279810 Si02
#       7
#    16  16  16   8  16  16  16
#     4  10  20  34  51  75 106 140 178 221 266 321
#     4   8  15  31  55  79 106 140 176 218 267 319
#     4  11  23  38  56  83 115 152 193 237 284 338
#     4   8  16  32  56  82 110 146 184 224 273 324
#     4  11  21  34  54  77 102 136 176 220 271 326
#     4  10  20  37  60  86 117 153 191 235 282 337
#     4   9  19  36  56  80 109 141 181 225 271 326
#
# _framework density 19.770800999999999
#
# number of rings (size 3 to 8) (size 9 to 14) (size 15 to 20)
#    0.000    2.308    0.000    4.154    0.000    4.000 
#    1.385    3.077    0.000   11.077    0.000    0.000 
#    0.000    0.000    0.000    0.000    0.000    0.000 
#
# Total GULP energy -644488.089381 kJ/mol
# GULP energy per Si atom -12394.001719 kJ/mol
# Density = 1.972580 g / cm^3
# Si number density = 19.770801 Si / 1000 Ang^3
#
#
#
# Elastic Constant Matrix: (Units=GPa)
#
#
# Indices 1 2 3 4 5 6 
#
# 1 66.2585 26.8134 22.8183 0.0000 0.0000 0.0000
# 2 26.8134 139.6072 24.7225 0.0000 0.0000 0.0000
# 3 22.8183 24.7225 63.9708 0.0000 0.0000 0.0000
# 4 0.0000 0.0000 0.0000 40.4531 0.0000 0.0000
# 5 0.0000 0.0000 0.0000 0.0000 29.1726 0.0000
# 6 0.0000 0.0000 0.0000 0.0000 0.0000 14.6332
#
#
#
# Elastic Compliance Matrix: (Units=1/GPa)
#
#
# Indices 1 2 3 4 5 6 
#
# 1 0.017976 -0.002487 -0.005451 0.000000 0.000000 0.000000
# 2 -0.002487 0.008033 -0.002217 0.000000 0.000000 0.000000
# 3 -0.005451 -0.002217 0.018433 0.000000 0.000000 0.000000
# 4 0.000000 0.000000 0.000000 0.024720 0.000000 0.000000
# 5 0.000000 0.000000 0.000000 0.000000 0.034279 0.000000
# 6 0.000000 0.000000 0.000000 0.000000 0.000000 0.068338
#
#
# Mechanical properties :
#
#
# Convention : Reuss Voigt Hill
#
# Bulk Modulus (GPa) = 41.43901 46.50499 43.97200
# Shear Modulus (GPa) = 24.98322 29.88394 27.43358
#
# Velocity S-wave (km/s) = 3.55863 3.89204 3.72907
# Velocity P-wave (km/s) = 6.15551 6.61592 6.38987
#
# Compressibility (1/GPa) = 0.02413185
#
# Stress axis : x y z
#
# Youngs Moduli (GPa) = 55.62937 124.48124 54.24946
#
# Poissons Ratio (x) = 0.30962 0.29570
# Poissons Ratio (y) = 0.13837 0.12029
# Poissons Ratio (z) = 0.30322 0.27602
#
# Static dielectric constant tensor:
#      x y z
#    x 3.429100 0.000000 0.000000 
#    y 0.000000 4.183940 0.000000 
#    z 0.000000 0.000000 3.406250 
# 
# 
# High freq. dielectric constant tensor:
#      x y z
#    x 1.761900 0.000000 0.000000 
#    y 0.000000 1.789230 0.000000 
#    z 0.000000 0.000000 1.750930 
# 
# From -- ./inp_files/41037.got.cif
#   From: 2010.03.12/outbox.cif.g09.slc.cpg/sg67_21_cif.got.tgz:41037.got - 2010.04.10 22:41:39.
