data_PCOD8279469
_publ_section_title
;
Structure prediction by ZEFSAII (Michael W. Deem and Ramdas Pophale) SiO2 
 PCOD8279469
Probable space group: C M M A
;
_chemical_formula_sum "Si O2"
_cell_formula_units_Z 112
_cell_length_a 31.552642
_cell_length_b 14.318312
_cell_length_c 14.459254
_cell_angle_alpha 90.000000
_cell_angle_beta 90.000000
_cell_angle_gamma 90.000000
_cell_volume 6532.410051
_symmetry_space_group_name_H-M "C M M A"
_symmetry_group_IT_number 67
_symmetry_cell_setting 'orthorhombic'
loop_
_space_group_symop_operation_xyz
x,y,z
-x,1/2-y,z
x,-y,-z
-x,1/2+y,-z
-x,-y,-z
x,1/2+y,-z
-x,y,z
x,1/2-y,z
1/2+x,1/2+y,z
1/2-x,-y,z
1/2+x,1/2-y,-z
1/2-x,y,-z
1/2-x,1/2-y,-z
1/2+x,y,-z
1/2-x,1/2+y,z
1/2+x,-y,z
loop_
_atom_site_type_symbol
_atom_site_label
_atom_site_fract_x
_atom_site_fract_y
_atom_site_fract_z
Si Si1 0.113086 0.488994 0.212883
Si Si2 0.095832 0.144603 0.935451
Si Si3 0.068780 0.499215 0.607901
Si Si4 0.000000 0.851560 0.392349
Si Si5 0.204641 0.993678 0.850757
Si Si6 0.500000 0.352130 0.608677
Si Si7 0.187784 0.643767 0.009295
Si Si8 0.548220 0.359934 0.887784
O O1 0.099143 0.578786 0.153338
O O2 0.108391 0.505198 0.323048
O O3 0.163218 0.465633 0.207612
O O4 0.082220 0.406248 0.180701
O O5 0.090167 0.250000 0.897884
O O6 0.137028 0.137513 0.002156
O O7 0.057790 0.114601 0.004245
O O8 0.082851 0.500000 0.500000
O O9 0.041737 0.408202 0.634436
O O10 0.041987 0.591055 0.634888
O O11 0.000000 0.837580 0.500628
O O12 0.000000 0.750000 0.342730
O O13 0.250000 0.000000 0.795718
O O14 0.197809 0.096654 0.892492
O O15 0.210728 0.914279 0.929030
O O16 0.500000 0.250000 0.658533
O O17 0.204374 0.750000 0.008105
O O18 0.500000 0.392382 0.864500
O O19 0.553232 0.250000 0.874109
#
# Coordination Sequence:
#
# PCOD8279469 Si02
#       8
#    16  16  16   8  16   8  16  16
#     4  11  21  33  51  71  97 134 165 207 251 289
#     4   9  18  33  49  69  99 132 167 202 235 285
#     4   9  19  33  49  73  98 125 163 201 245 296
#     4   8  15  31  52  71  93 120 150 198 254 292
#     4  10  20  31  46  72  97 123 164 204 247 298
#     4   8  15  31  52  71  95 120 150 200 252 292
#     4   9  16  30  50  70  96 126 155 198 253 297
#     4  10  21  35  50  71 101 137 174 204 234 285
#
# _framework density 17.14528
#
# number of rings (size 3 to 8) (size 9 to 14) (size 15 to 20)
#    0.000    2.571    1.429    2.143    2.000    3.429 
#    0.000    0.000    0.000    0.429    0.000    0.000 
#    0.000    0.000    0.000   16.857    0.000    0.000 
#
# Total GULP energy -693825.425847 kJ/mol
# GULP energy per Si atom -12389.739747 kJ/mol
# Density = 1.710626 g / cm^3
# Si number density = 17.145280 Si / 1000 Ang^3
#
#
#
# Elastic Constant Matrix: (Units=GPa)
#
#
# Indices 1 2 3 4 5 6 
#
# 1 131.4430 28.2475 45.4022 0.0000 0.0000 0.0000
# 2 28.2475 99.2071 17.6903 0.0000 0.0000 0.0000
# 3 45.4022 17.6903 73.9421 0.0000 0.0000 0.0000
# 4 0.0000 0.0000 0.0000 8.1061 0.0000 0.0000
# 5 0.0000 0.0000 0.0000 0.0000 16.3650 0.0000
# 6 0.0000 0.0000 0.0000 0.0000 0.0000 11.2098
#
#
#
# Elastic Compliance Matrix: (Units=1/GPa)
#
#
# Indices 1 2 3 4 5 6 
#
# 1 0.009962 -0.001824 -0.005681 0.000000 0.000000 0.000000
# 2 -0.001824 0.010863 -0.001479 0.000000 0.000000 0.000000
# 3 -0.005681 -0.001479 0.017366 0.000000 0.000000 0.000000
# 4 0.000000 0.000000 0.000000 0.123364 0.000000 0.000000
# 5 0.000000 0.000000 0.000000 0.000000 0.061106 0.000000
# 6 0.000000 0.000000 0.000000 0.000000 0.000000 0.089208
#
#
# Mechanical properties :
#
#
# Convention : Reuss Voigt Hill
#
# Bulk Modulus (GPa) = 49.44579 54.14138 51.79358
# Shear Modulus (GPa) = 14.85547 21.35298 18.10423
#
# Velocity S-wave (km/s) = 2.94674 3.53287 3.25303
# Velocity P-wave (km/s) = 6.36236 6.94897 6.66212
#
# Compressibility (1/GPa) = 0.02022417
#
# Stress axis : x y z
#
# Youngs Moduli (GPa) = 100.38256 92.05638 57.58376
#
# Poissons Ratio (x) = 0.16787 0.32711
# Poissons Ratio (y) = 0.18305 0.08518
# Poissons Ratio (z) = 0.57023 0.13617
#
# Static dielectric constant tensor:
#      x y z
#    x 3.290220 0.000000 0.000000 
#    y 0.000000 4.255490 0.000000 
#    z 0.000000 0.000000 2.814100 
# 
# 
# High freq. dielectric constant tensor:
#      x y z
#    x 1.653150 0.000000 0.000000 
#    y 0.000000 1.673550 0.000000 
#    z 0.000000 0.000000 1.616560 
# 
# From -- ./inp_files/36328.got.cif
#   From: 2010.03.12/outbox.cif.g09.slc.cpg/sg67_19_cif.got.tgz:36328.got - 2010.04.10 22:41:39.
