data_PCOD8279032
_publ_section_title
;
Structure prediction by ZEFSAII (Michael W. Deem and Ramdas Pophale) SiO2 
 PCOD8279032
Probable space group: C M M A
;
_chemical_formula_sum "Si O2"
_cell_formula_units_Z 88
_cell_length_a 15.343372
_cell_length_b 8.983454
_cell_length_c 30.162831
_cell_angle_alpha 90.000000
_cell_angle_beta 90.000000
_cell_angle_gamma 90.000000
_cell_volume 4157.538348
_symmetry_space_group_name_H-M "C M M A"
_symmetry_group_IT_number 67
_symmetry_cell_setting 'orthorhombic'
loop_
_space_group_symop_operation_xyz
x,y,z
-x,1/2-y,z
x,-y,-z
-x,1/2+y,-z
-x,-y,-z
x,1/2+y,-z
-x,y,z
x,1/2-y,z
1/2+x,1/2+y,z
1/2-x,-y,z
1/2+x,1/2-y,-z
1/2-x,y,-z
1/2-x,1/2-y,-z
1/2+x,y,-z
1/2-x,1/2+y,z
1/2+x,-y,z
loop_
_atom_site_type_symbol
_atom_site_label
_atom_site_fract_x
_atom_site_fract_y
_atom_site_fract_z
Si Si1 0.162923 0.073534 0.605735
Si Si2 0.396020 0.917996 0.956364
Si Si3 0.000000 0.425235 0.547315
Si Si4 0.102951 0.421870 0.306579
Si Si5 0.396217 0.082087 0.218092
Si Si6 0.604025 0.418115 0.869011
O O1 0.171861 0.250000 0.607207
O O2 0.084324 0.021472 0.574386
O O3 0.250000 0.000000 0.585655
O O4 0.149302 0.014276 0.655147
O O5 0.500000 0.919741 0.956414
O O6 0.360607 0.750000 0.955977
O O7 0.359842 0.002275 0.913083
O O8 0.359650 0.000000 0.000000
O O9 0.000000 0.500000 0.500000
O O10 0.000000 0.250000 0.540683
O O11 0.130461 0.250000 0.309792
O O12 0.136805 0.487518 0.260077
O O13 0.000000 0.442443 0.311270
O O14 0.500000 0.082759 0.216790
O O15 0.360137 0.250000 0.221274
O O16 0.359229 0.005442 0.173692
O O17 0.500000 0.419621 0.868837
O O18 0.639337 0.250000 0.867823
#
# Coordination Sequence:
#
# PCOD8279032 Si02
#       6
#    16  16   8  16  16  16
#     4  11  23  41  63  92 125 162 204 250 300 355
#     4   9  15  21  28  38  55  85 129 183 246 314
#     4  10  24  44  68  94 128 166 206 252 303 354
#     4  10  19  32  53  80 109 145 187 233 285 344
#     4   9  16  25  39  60  87 121 160 208 265 326
#     4   9  15  22  31  45  68  98 139 194 252 315
#
# _framework density 21.166371000000002
#
# number of rings (size 3 to 8) (size 9 to 14) (size 15 to 20)
#    0.000    2.364    0.909    2.727    0.000    9.091 
#    0.000    1.818    0.000    0.000    0.000    0.000 
#    0.000    0.000    0.000    0.000    0.000    0.909 
#
# Total GULP energy -545712.468468 kJ/mol
# GULP energy per Si atom -12402.556102 kJ/mol
# Density = 2.111820 g / cm^3
# Si number density = 21.166371 Si / 1000 Ang^3
#
#
#
# Elastic Constant Matrix: (Units=GPa)
#
#
# Indices 1 2 3 4 5 6 
#
# 1 60.1766 38.7824 46.8274 0.0000 0.0000 0.0000
# 2 38.7824 156.2742 73.7849 0.0000 0.0000 0.0000
# 3 46.8274 73.7849 181.2168 0.0000 0.0000 0.0000
# 4 0.0000 0.0000 0.0000 48.4020 0.0000 0.0000
# 5 0.0000 0.0000 0.0000 0.0000 -2.6811 0.0000
# 6 0.0000 0.0000 0.0000 0.0000 0.0000 18.6563
#
#
#
# Elastic Compliance Matrix: (Units=1/GPa)
#
#
# Indices 1 2 3 4 5 6 
#
# 1 0.022224 -0.003471 -0.004329 0.000000 0.000000 0.000000
# 2 -0.003471 0.008464 -0.002549 0.000000 0.000000 0.000000
# 3 -0.004329 -0.002549 0.007675 0.000000 0.000000 0.000000
# 4 0.000000 0.000000 0.000000 0.020660 0.000000 0.000000
# 5 0.000000 0.000000 0.000000 0.000000 -0.372974 0.000000
# 6 0.000000 0.000000 0.000000 0.000000 0.000000 0.053601
#
#
# Mechanical properties :
#
#
# Convention : Reuss Voigt Hill
#
# Bulk Modulus (GPa) = 56.61502 79.60635 68.11069
# Shear Modulus (GPa) = -21.38923 28.76029 3.68553
#
# Velocity S-wave (km/s) = -3.18233 3.69015 1.32098
# Velocity P-wave (km/s) = 3.64729 7.47314 5.88007
#
# Compressibility (1/GPa) = 0.01766316
#
# Stress axis : x y z
#
# Youngs Moduli (GPa) = 44.99675 118.14613 130.29326
#
# Poissons Ratio (x) = 0.41010 0.56410
# Poissons Ratio (y) = 0.15619 0.33216
# Poissons Ratio (z) = 0.19481 0.30119
#
# Static dielectric constant tensor:
#      x y z
#    x 3.554760 0.000000 0.000000 
#    y 0.000000 3.955320 0.000000 
#    z 0.000000 0.000000 3.902500 
# 
# 
# High freq. dielectric constant tensor:
#      x y z
#    x 1.789810 0.000000 0.000000 
#    y 0.000000 1.841960 0.000000 
#    z 0.000000 0.000000 1.836030 
# 
# From -- ./inp_files/45774.got.cif
#   From: 2010.03.12/outbox.cif.g09.slc.cpg/sg67_23_cif.got.tgz:45774.got - 2010.04.10 22:41:39.
