data_PCOD8279491
_publ_section_title
;
Structure prediction by ZEFSAII (Michael W. Deem and Ramdas Pophale) SiO2 
 PCOD8279491
Probable space group: C M M A
;
_chemical_formula_sum "Si O2"
_cell_formula_units_Z 80
_cell_length_a 8.944043
_cell_length_b 26.141381
_cell_length_c 19.846347
_cell_angle_alpha 90.000000
_cell_angle_beta 90.000000
_cell_angle_gamma 90.000000
_cell_volume 4640.267163
_symmetry_space_group_name_H-M "C M M A"
_symmetry_group_IT_number 67
_symmetry_cell_setting 'orthorhombic'
loop_
_space_group_symop_operation_xyz
x,y,z
-x,1/2-y,z
x,-y,-z
-x,1/2+y,-z
-x,-y,-z
x,1/2+y,-z
-x,y,z
x,1/2-y,z
1/2+x,1/2+y,z
1/2-x,-y,z
1/2+x,1/2-y,-z
1/2-x,y,-z
1/2-x,1/2-y,-z
1/2+x,y,-z
1/2-x,1/2+y,z
1/2+x,-y,z
loop_
_atom_site_type_symbol
_atom_site_label
_atom_site_fract_x
_atom_site_fract_y
_atom_site_fract_z
Si Si1 0.177410 0.553369 0.570820
Si Si2 0.832321 0.310565 0.065613
Si Si3 0.323144 0.309038 0.203303
Si Si4 0.337493 0.191826 0.438894
Si Si5 0.674829 0.356092 0.672765
O O1 0.250000 0.500000 0.593422
O O2 0.250000 0.571330 0.500000
O O3 0.216104 0.592414 0.631631
O O4 0.000000 0.547806 0.561198
O O5 0.840232 0.250000 0.058940
O O6 0.738501 0.326338 0.131068
O O7 0.000000 0.333235 0.070478
O O8 0.750000 0.333788 0.000000
O O9 0.500000 0.314361 0.203428
O O10 0.276313 0.250000 0.219581
O O11 0.255162 0.350180 0.255474
O O12 0.500000 0.165106 0.429032
O O13 0.365138 0.250000 0.458772
O O14 0.250000 0.163813 0.500000
O O15 0.238206 0.190234 0.371942
O O16 0.500000 0.350087 0.684231
#
# Coordination Sequence:
#
# PCOD8279491 Si02
#       5
#    16  16  16  16  16
#     4  10  21  36  54  73  91 114 148 191 239 289
#     4   9  16  27  44  65  91 125 163 200 234 269
#     4  10  20  32  46  67  96 130 165 197 231 273
#     4  10  20  32  45  62  85 116 153 188 222 264
#     4  11  22  33  47  68  92 119 151 188 233 281
#
# _framework density 17.240386999999998
#
# number of rings (size 3 to 8) (size 9 to 14) (size 15 to 20)
#    0.000    2.000    0.000    4.800    0.000   12.000 
#    0.000    0.000    0.000    0.000    0.000    0.000 
#    0.000    0.800    0.000    8.400    0.000    5.000 
#
# Total GULP energy -495780.980797 kJ/mol
# GULP energy per Si atom -12394.524520 kJ/mol
# Density = 1.720115 g / cm^3
# Si number density = 17.240387 Si / 1000 Ang^3
#
#
#
# Elastic Constant Matrix: (Units=GPa)
#
#
# Indices 1 2 3 4 5 6 
#
# 1 128.3125 42.0641 71.8412 0.0000 0.0000 0.0000
# 2 42.0641 54.4038 40.9297 0.0000 0.0000 0.0000
# 3 71.8412 40.9297 154.6640 0.0000 0.0000 0.0000
# 4 0.0000 0.0000 0.0000 16.7559 0.0000 0.0000
# 5 0.0000 0.0000 0.0000 0.0000 37.4961 0.0000
# 6 0.0000 0.0000 0.0000 0.0000 0.0000 16.6046
#
#
#
# Elastic Compliance Matrix: (Units=1/GPa)
#
#
# Indices 1 2 3 4 5 6 
#
# 1 0.012085 -0.006394 -0.003922 0.000000 0.000000 0.000000
# 2 -0.006394 0.026333 -0.003999 0.000000 0.000000 0.000000
# 3 -0.003922 -0.003999 0.009345 0.000000 0.000000 0.000000
# 4 0.000000 0.000000 0.000000 0.059680 0.000000 0.000000
# 5 0.000000 0.000000 0.000000 0.000000 0.026669 0.000000
# 6 0.000000 0.000000 0.000000 0.000000 0.000000 0.060224
#
#
# Mechanical properties :
#
#
# Convention : Reuss Voigt Hill
#
# Bulk Modulus (GPa) = 52.25901 71.89448 62.07674
# Shear Modulus (GPa) = 21.80128 26.34100 24.07114
#
# Velocity S-wave (km/s) = 3.55991 3.91303 3.74064
# Velocity P-wave (km/s) = 6.87568 7.88717 7.39873
#
# Compressibility (1/GPa) = 0.01913546
#
# Stress axis : x y z
#
# Youngs Moduli (GPa) = 82.74627 37.97510 107.00466
#
# Poissons Ratio (x) = 0.24280 0.41962
# Poissons Ratio (y) = 0.52906 0.42789
# Poissons Ratio (z) = 0.32449 0.15185
#
# Static dielectric constant tensor:
#      x y z
#    x 3.603820 0.000000 0.000000 
#    y 0.000000 2.864830 0.000000 
#    z 0.000000 0.000000 3.270930 
# 
# 
# High freq. dielectric constant tensor:
#      x y z
#    x 1.691950 0.000000 0.000000 
#    y 0.000000 1.612860 0.000000 
#    z 0.000000 0.000000 1.662060 
# 
# From -- ./inp_files/32144.got.cif
#   From: 2010.03.12/outbox.cif.g09.slc.cpg/sg67_17_cif.got.tgz:32144.got - 2010.04.10 22:41:39.
