data_PCOD8279421
_publ_section_title
;
Structure prediction by ZEFSAII (Michael W. Deem and Ramdas Pophale) SiO2 
 PCOD8279421
Probable space group: C M M A
;
_chemical_formula_sum "Si O2"
_cell_formula_units_Z 96
_cell_length_a 21.128468
_cell_length_b 27.209967
_cell_length_c 8.497962
_cell_angle_alpha 90.000000
_cell_angle_beta 90.000000
_cell_angle_gamma 90.000000
_cell_volume 4885.520139
_symmetry_space_group_name_H-M "C M M A"
_symmetry_group_IT_number 67
_symmetry_cell_setting 'orthorhombic'
loop_
_space_group_symop_operation_xyz
x,y,z
-x,1/2-y,z
x,-y,-z
-x,1/2+y,-z
-x,-y,-z
x,1/2+y,-z
-x,y,z
x,1/2-y,z
1/2+x,1/2+y,z
1/2-x,-y,z
1/2+x,1/2-y,-z
1/2-x,y,-z
1/2-x,1/2-y,-z
1/2+x,y,-z
1/2-x,1/2+y,z
1/2+x,-y,z
loop_
_atom_site_type_symbol
_atom_site_label
_atom_site_fract_x
_atom_site_fract_y
_atom_site_fract_z
Si Si1 0.071956 0.994004 0.177083
Si Si2 0.168545 0.954252 0.603201
Si Si3 0.747598 0.391279 0.180151
Si Si4 0.298918 0.805729 0.360612
Si Si5 0.883516 0.395781 0.678726
Si Si6 0.570122 0.695363 0.527463
O O1 0.111572 0.030190 0.284942
O O2 0.000000 0.011951 0.187193
O O3 0.075976 0.938166 0.237865
O O4 0.097737 0.000000 0.000000
O O5 0.227267 0.935032 0.707067
O O6 0.141835 0.911189 0.493448
O O7 0.192855 0.000000 0.500000
O O8 0.786739 0.341329 0.212444
O O9 0.674579 0.381694 0.211816
O O10 0.750000 0.407847 0.000000
O O11 0.284493 0.750000 0.308743
O O12 0.250000 0.821091 0.500000
O O13 0.372576 0.811991 0.405159
O O14 0.925377 0.346533 0.661444
O O15 0.500000 0.690708 0.447403
O O16 0.576882 0.750000 0.603477
#
# Coordination Sequence:
#
# PCOD8279421 Si02
#       6
#    16  16  16  16  16  16
#     4  10  22  39  57  83 119 158 198 244 304 368
#     4  10  22  38  57  81 110 151 201 249 298 357
#     4  12  23  37  57  89 123 156 197 249 319 371
#     4  10  19  37  62  88 121 158 201 249 295 354
#     4  11  21  37  61  83 119 152 204 249 296 358
#     4  10  20  35  61  93 121 153 200 253 302 351
#
# _framework density 19.649902999999998
#
# number of rings (size 3 to 8) (size 9 to 14) (size 15 to 20)
#    0.000    1.500    3.333    2.000    0.000    8.667 
#    0.000    4.167    0.000    1.000    0.000    2.333 
#    0.000    0.000    0.000    0.000    0.000    0.000 
#
# Total GULP energy -595133.846263 kJ/mol
# GULP energy per Si atom -12398.621797 kJ/mol
# Density = 1.960518 g / cm^3
# Si number density = 19.649903 Si / 1000 Ang^3
#
#
#
# Elastic Constant Matrix: (Units=GPa)
#
#
# Indices 1 2 3 4 5 6 
#
# 1 114.6825 19.2799 28.3472 0.0000 0.0000 0.0000
# 2 19.2799 96.9882 31.4403 0.0000 0.0000 0.0000
# 3 28.3472 31.4403 104.3761 0.0000 0.0000 0.0000
# 4 0.0000 0.0000 0.0000 20.7614 0.0000 0.0000
# 5 0.0000 0.0000 0.0000 0.0000 28.1668 0.0000
# 6 0.0000 0.0000 0.0000 0.0000 0.0000 28.5681
#
#
#
# Elastic Compliance Matrix: (Units=1/GPa)
#
#
# Indices 1 2 3 4 5 6 
#
# 1 0.009464 -0.001162 -0.002220 0.000000 0.000000 0.000000
# 2 -0.001162 0.011569 -0.003169 0.000000 0.000000 0.000000
# 3 -0.002220 -0.003169 0.011138 0.000000 0.000000 0.000000
# 4 0.000000 0.000000 0.000000 0.048166 0.000000 0.000000
# 5 0.000000 0.000000 0.000000 0.000000 0.035503 0.000000
# 6 0.000000 0.000000 0.000000 0.000000 0.000000 0.035004
#
#
# Mechanical properties :
#
#
# Convention : Reuss Voigt Hill
#
# Bulk Modulus (GPa) = 52.44208 52.68683 52.56446
# Shear Modulus (GPa) = 29.35947 31.29790 30.32869
#
# Velocity S-wave (km/s) = 3.86959 3.99529 3.93294
# Velocity P-wave (km/s) = 6.83455 6.93932 6.88713
#
# Compressibility (1/GPa) = 0.01906866
#
# Stress axis : x y z
#
# Youngs Moduli (GPa) = 105.66548 86.43935 89.77929
#
# Poissons Ratio (x) = 0.10040 0.19934
# Poissons Ratio (y) = 0.12273 0.28454
# Poissons Ratio (z) = 0.23462 0.27395
#
# Static dielectric constant tensor:
#      x y z
#    x 3.652010 0.000000 0.000000 
#    y 0.000000 3.806480 0.000000 
#    z 0.000000 0.000000 3.405360 
# 
# 
# High freq. dielectric constant tensor:
#      x y z
#    x 1.778780 0.000000 0.000000 
#    y 0.000000 1.781390 0.000000 
#    z 0.000000 0.000000 1.729520 
# 
# From -- ./inp_files/11495.got.cif
#   From: 2010.03.12/outbox.cif.g09.slc.cpg/sg67_6_cif.got.tgz:11495.got - 2010.04.10 22:41:39.
