data_PCOD8279462
_publ_section_title
;
Structure prediction by ZEFSAII (Michael W. Deem and Ramdas Pophale) SiO2 
 PCOD8279462
Probable space group: C M M A
;
_chemical_formula_sum "Si O2"
_cell_formula_units_Z 112
_cell_length_a 26.558819
_cell_length_b 14.419994
_cell_length_c 17.352797
_cell_angle_alpha 90.000000
_cell_angle_beta 90.000000
_cell_angle_gamma 90.000000
_cell_volume 6645.739674
_symmetry_space_group_name_H-M "C M M A"
_symmetry_group_IT_number 67
_symmetry_cell_setting 'orthorhombic'
loop_
_space_group_symop_operation_xyz
x,y,z
-x,1/2-y,z
x,-y,-z
-x,1/2+y,-z
-x,-y,-z
x,1/2+y,-z
-x,y,z
x,1/2-y,z
1/2+x,1/2+y,z
1/2-x,-y,z
1/2+x,1/2-y,-z
1/2-x,y,-z
1/2-x,1/2-y,-z
1/2+x,y,-z
1/2-x,1/2+y,z
1/2+x,-y,z
loop_
_atom_site_type_symbol
_atom_site_label
_atom_site_fract_x
_atom_site_fract_y
_atom_site_fract_z
Si Si1 0.943903 0.500000 0.675312
Si Si2 0.845434 0.500000 0.410358
Si Si3 0.596100 0.641343 0.793299
Si Si4 0.806115 0.144221 0.704459
Si Si5 0.096100 0.358657 0.206701
Si Si6 0.193885 0.855779 0.704459
Si Si7 0.559372 0.500000 0.089477
O O1 0.905505 0.500001 0.603932
O O2 0.936687 0.407847 0.726994
O O3 0.936687 0.592153 0.726995
O O4 0.000000 0.500000 0.641036
O O5 0.833571 0.500000 0.500000
O O6 0.820273 0.589594 0.372430
O O7 0.820273 0.410406 0.372430
O O8 0.582468 0.750000 0.797436
O O9 0.655109 0.623757 0.774094
O O10 0.583741 0.592937 0.874504
O O11 0.809345 0.250000 0.678946
O O12 0.750000 0.117381 0.733211
O O13 0.082468 0.250000 0.202564
O O14 0.155109 0.376243 0.225906
O O15 0.083741 0.407062 0.125495
O O16 0.190655 0.750000 0.678946
O O17 0.500000 0.500000 0.105501
O O18 0.572412 0.500000 0.000000
#
# Coordination Sequence:
#
# PCOD8279462 Si02
#       7
#    16  16  16  16  16  16  16
#     4   9  18  31  46  66  90 117 156 199 229 262
#     4  10  20  31  44  66  95 124 153 186 229 279
#     4   9  17  31  51  70  90 119 153 189 226 265
#     4   9  18  32  50  71  92 117 152 191 228 267
#     4   9  17  31  51  70  90 119 153 189 226 265
#     4   9  18  32  50  71  92 117 152 191 228 267
#     4  10  21  33  45  69 101 124 147 182 223 270
#
# _framework density 16.852902
#
# number of rings (size 3 to 8) (size 9 to 14) (size 15 to 20)
#    0.000    2.714    0.000    3.000    0.000    4.857 
#    0.000    2.857    0.000    1.714    0.000   12.000 
#    0.000    0.000    0.000    0.000    0.000    0.000 
#
# Total GULP energy -694228.968391 kJ/mol
# GULP energy per Si atom -12396.945864 kJ/mol
# Density = 1.681454 g / cm^3
# Si number density = 16.852902 Si / 1000 Ang^3
#
#
#
# Elastic Constant Matrix: (Units=GPa)
#
#
# Indices 1 2 3 4 5 6 
#
# 1 135.4697 45.4797 46.1101 0.0000 0.0000 0.0000
# 2 45.4797 122.9993 48.1132 0.0000 0.0000 0.0000
# 3 46.1101 48.1132 102.9150 0.0000 0.0000 0.0000
# 4 0.0000 0.0000 0.0000 34.2798 0.0000 0.0000
# 5 0.0000 0.0000 0.0000 0.0000 16.6232 0.0000
# 6 0.0000 0.0000 0.0000 0.0000 0.0000 21.1001
#
#
#
# Elastic Compliance Matrix: (Units=1/GPa)
#
#
# Indices 1 2 3 4 5 6 
#
# 1 0.009165 -0.002181 -0.003086 0.000000 0.000000 0.000000
# 2 -0.002181 0.010469 -0.003917 0.000000 0.000000 0.000000
# 3 -0.003086 -0.003917 0.012931 0.000000 0.000000 0.000000
# 4 0.000000 0.000000 0.000000 0.029172 0.000000 0.000000
# 5 0.000000 0.000000 0.000000 0.000000 0.060157 0.000000
# 6 0.000000 0.000000 0.000000 0.000000 0.000000 0.047393
#
#
# Mechanical properties :
#
#
# Convention : Reuss Voigt Hill
#
# Bulk Modulus (GPa) = 70.44740 71.19889 70.82314
# Shear Modulus (GPa) = 25.98932 29.17935 27.58433
#
# Velocity S-wave (km/s) = 3.93125 4.16554 4.05009
# Velocity P-wave (km/s) = 7.90559 8.09164 7.99916
#
# Compressibility (1/GPa) = 0.01419499
#
# Stress axis : x y z
#
# Youngs Moduli (GPa) = 109.11616 95.52138 77.33538
#
# Poissons Ratio (x) = 0.20837 0.23868
# Poissons Ratio (y) = 0.23803 0.30291
# Poissons Ratio (z) = 0.33676 0.37415
#
# Static dielectric constant tensor:
#      x y z
#    x 3.437100 0.000000 0.000000 
#    y 0.000000 3.338700 0.000000 
#    z 0.000000 0.000000 2.811800 
# 
# 
# High freq. dielectric constant tensor:
#      x y z
#    x 1.661760 0.000000 0.000000 
#    y 0.000000 1.664210 0.000000 
#    z 0.000000 0.000000 1.612160 
# 
# From -- ./inp_files/30821.got.cif
#   From: 2010.03.12/outbox.cif.g09.slc.cpg/sg67_16_cif.got.tgz:30821.got - 2010.04.10 22:41:39.
