data_PCOD8279068
_publ_section_title
;
Structure prediction by ZEFSAII (Michael W. Deem and Ramdas Pophale) SiO2 
 PCOD8279068
Probable space group: C M M A
;
_chemical_formula_sum "Si O2"
_cell_formula_units_Z 112
_cell_length_a 18.584549
_cell_length_b 23.675291
_cell_length_c 13.618567
_cell_angle_alpha 90.000000
_cell_angle_beta 90.000000
_cell_angle_gamma 90.000000
_cell_volume 5992.096017
_symmetry_space_group_name_H-M "C M M A"
_symmetry_group_IT_number 67
_symmetry_cell_setting 'orthorhombic'
loop_
_space_group_symop_operation_xyz
x,y,z
-x,1/2-y,z
x,-y,-z
-x,1/2+y,-z
-x,-y,-z
x,1/2+y,-z
-x,y,z
x,1/2-y,z
1/2+x,1/2+y,z
1/2-x,-y,z
1/2+x,1/2-y,-z
1/2-x,y,-z
1/2-x,1/2-y,-z
1/2+x,y,-z
1/2-x,1/2+y,z
1/2+x,-y,z
loop_
_atom_site_type_symbol
_atom_site_label
_atom_site_fract_x
_atom_site_fract_y
_atom_site_fract_z
Si Si1 0.332658 0.813823 0.974440
Si Si2 0.915090 0.978637 0.734357
Si Si3 0.915659 0.879146 0.865864
Si Si4 0.583483 0.404560 0.338992
Si Si5 0.916782 0.602333 0.563510
Si Si6 0.682873 0.315348 0.250622
Si Si7 0.156630 0.816259 0.695064
O O1 0.359803 0.750000 0.999301
O O2 0.341179 0.827324 0.860390
O O3 0.250000 0.818882 0.000000
O O4 0.376700 0.860816 0.034156
O O5 0.889589 0.942137 0.829726
O O6 0.890901 0.947705 0.634838
O O7 0.000000 0.982332 0.735818
O O8 0.886196 0.043121 0.727620
O O9 0.898779 0.834762 0.779853
O O10 0.000000 0.879085 0.887222
O O11 0.500000 0.392655 0.316354
O O12 0.595346 0.418759 0.453256
O O13 0.627840 0.348566 0.318392
O O14 0.867111 0.656236 0.591418
O O15 0.000000 0.618599 0.581896
O O16 0.675526 0.250000 0.277530
O O17 0.763942 0.336036 0.271473
O O18 0.152916 0.750000 0.681244
#
# Coordination Sequence:
#
# PCOD8279068 Si02
#       7
#    16  16  16  16  16  16  16
#     4  10  19  35  57  78 107 148 182 215 269 328
#     4   8  16  33  56  81 107 136 175 226 279 322
#     4  10  19  32  56  87 111 135 177 231 275 318
#     4  10  20  36  56  76 106 147 184 222 269 324
#     4   9  18  32  54  82 108 139 181 225 268 321
#     4  10  22  37  54  76 106 146 186 223 269 327
#     4  10  19  33  52  77 111 145 178 224 278 323
#
# _framework density 18.691289000000001
#
# number of rings (size 3 to 8) (size 9 to 14) (size 15 to 20)
#    0.000    2.429    1.429    2.143    0.000    5.714 
#    0.000    7.857    0.000    6.857    0.000    0.000 
#    0.000    0.000    0.000    0.000    0.000    0.000 
#
# Total GULP energy -694140.196809 kJ/mol
# GULP energy per Si atom -12395.360657 kJ/mol
# Density = 1.864875 g / cm^3
# Si number density = 18.691289 Si / 1000 Ang^3
#
#
#
# Elastic Constant Matrix: (Units=GPa)
#
#
# Indices 1 2 3 4 5 6 
#
# 1 59.0880 42.5083 40.0948 0.0000 0.0000 0.0000
# 2 42.5083 86.2195 39.2066 0.0000 0.0000 0.0000
# 3 40.0948 39.2066 60.5631 0.0000 0.0000 0.0000
# 4 0.0000 0.0000 0.0000 26.6234 0.0000 0.0000
# 5 0.0000 0.0000 0.0000 0.0000 32.1673 0.0000
# 6 0.0000 0.0000 0.0000 0.0000 0.0000 21.3384
#
#
#
# Elastic Compliance Matrix: (Units=1/GPa)
#
#
# Indices 1 2 3 4 5 6 
#
# 1 0.035663 -0.009703 -0.017329 0.000000 0.000000 0.000000
# 2 -0.009703 0.019077 -0.005926 0.000000 0.000000 0.000000
# 3 -0.017329 -0.005926 0.031820 0.000000 0.000000 0.000000
# 4 0.000000 0.000000 0.000000 0.037561 0.000000 0.000000
# 5 0.000000 0.000000 0.000000 0.000000 0.031088 0.000000
# 6 0.000000 0.000000 0.000000 0.000000 0.000000 0.046864
#
#
# Mechanical properties :
#
#
# Convention : Reuss Voigt Hill
#
# Bulk Modulus (GPa) = 48.43873 49.94333 49.19103
# Shear Modulus (GPa) = 18.19052 21.62987 19.91019
#
# Velocity S-wave (km/s) = 3.12301 3.40548 3.26730
# Velocity P-wave (km/s) = 6.24305 6.49932 6.37247
#
# Compressibility (1/GPa) = 0.02064464
#
# Stress axis : x y z
#
# Youngs Moduli (GPa) = 28.04059 52.41980 31.42653
#
# Poissons Ratio (x) = 0.50861 0.54458
# Poissons Ratio (y) = 0.27207 0.18624
# Poissons Ratio (z) = 0.48590 0.31065
#
# Static dielectric constant tensor:
#      x y z
#    x 2.147660 0.000000 0.000000 
#    y 0.000000 3.603130 0.000000 
#    z 0.000000 0.000000 4.130260 
# 
# 
# High freq. dielectric constant tensor:
#      x y z
#    x 1.708810 0.000000 0.000000 
#    y 0.000000 1.722620 0.000000 
#    z 0.000000 0.000000 1.719880 
# 
# From -- ./inp_files/27483.got.cif
#   From: 2010.03.12/outbox.cif.g09.slc.cpg/sg67_14_cif.got.tgz:27483.got - 2010.04.10 22:41:39.
