data_PCOD8279148
_publ_section_title
;
Structure prediction by ZEFSAII (Michael W. Deem and Ramdas Pophale) SiO2 
 PCOD8279148
Probable space group: C M M A
;
_chemical_formula_sum "Si O2"
_cell_formula_units_Z 96
_cell_length_a 8.662919
_cell_length_b 18.617503
_cell_length_c 30.909777
_cell_angle_alpha 90.000000
_cell_angle_beta 90.000000
_cell_angle_gamma 90.000000
_cell_volume 4985.188196
_symmetry_space_group_name_H-M "C M M A"
_symmetry_group_IT_number 67
_symmetry_cell_setting 'orthorhombic'
loop_
_space_group_symop_operation_xyz
x,y,z
-x,1/2-y,z
x,-y,-z
-x,1/2+y,-z
-x,-y,-z
x,1/2+y,-z
-x,y,z
x,1/2-y,z
1/2+x,1/2+y,z
1/2-x,-y,z
1/2+x,1/2-y,-z
1/2-x,y,-z
1/2-x,1/2-y,-z
1/2+x,y,-z
1/2-x,1/2+y,z
1/2+x,-y,z
loop_
_atom_site_type_symbol
_atom_site_label
_atom_site_fract_x
_atom_site_fract_y
_atom_site_fract_z
Si Si1 0.181958 0.576965 0.620036
Si Si2 0.183148 0.577298 0.288851
Si Si3 0.817423 0.668512 0.044895
Si Si4 0.823874 0.664947 0.455348
Si Si5 0.316541 0.579050 0.873339
Si Si6 0.316584 0.669465 0.791997
O O1 0.250000 0.500000 0.606926
O O2 0.252030 0.604268 0.665316
O O3 0.224672 0.634090 0.583750
O O4 0.000000 0.570219 0.624793
O O5 0.250000 0.500000 0.276339
O O6 0.238656 0.633323 0.252601
O O7 0.000000 0.571776 0.291628
O O8 0.759801 0.750000 0.053080
O O9 0.755710 0.618645 0.083564
O O10 0.000000 0.665943 0.042431
O O11 0.750000 0.638324 0.000000
O O12 0.814161 0.750000 0.452333
O O13 0.750000 0.637127 0.500000
O O14 0.000000 0.637835 0.452652
O O15 0.500000 0.575260 0.872675
O O16 0.250000 0.500000 0.871491
O O17 0.253124 0.623552 0.832307
O O18 0.500000 0.672135 0.794005
O O19 0.248406 0.750000 0.794340
#
# Coordination Sequence:
#
# PCOD8279148 Si02
#       6
#    16  16  16  16  16  16
#     4  11  22  37  57  81 111 145 183 224 268 318
#     4  10  19  33  54  78 105 137 172 213 263 315
#     4   9  18  33  53  75 100 133 172 213 257 305
#     4  10  21  38  59  83 112 145 182 224 271 322
#     4  10  20  34  53  76 103 135 171 212 258 309
#     4   9  18  33  54  78 102 132 173 216 257 307
#
# _framework density 19.257045999999999
#
# number of rings (size 3 to 8) (size 9 to 14) (size 15 to 20)
#    0.000    2.167    0.000    4.500    0.000    5.000 
#    0.000    5.833    0.000    5.000    0.000    0.000 
#    0.000    0.000    0.000    0.000    0.000    0.000 
#
# Total GULP energy -595311.984765 kJ/mol
# GULP energy per Si atom -12402.333016 kJ/mol
# Density = 1.921322 g / cm^3
# Si number density = 19.257046 Si / 1000 Ang^3
#
#
#
# Elastic Constant Matrix: (Units=GPa)
#
#
# Indices 1 2 3 4 5 6 
#
# 1 70.6025 27.5516 40.9861 0.0000 0.0000 0.0000
# 2 27.5516 114.2269 89.3817 0.0000 0.0000 0.0000
# 3 40.9861 89.3817 174.2896 0.0000 0.0000 0.0000
# 4 0.0000 0.0000 0.0000 37.6883 0.0000 0.0000
# 5 0.0000 0.0000 0.0000 0.0000 24.9271 0.0000
# 6 0.0000 0.0000 0.0000 0.0000 0.0000 28.7870
#
#
#
# Elastic Compliance Matrix: (Units=1/GPa)
#
#
# Indices 1 2 3 4 5 6 
#
# 1 0.016573 -0.001583 -0.003085 0.000000 0.000000 0.000000
# 2 -0.001583 0.014773 -0.007204 0.000000 0.000000 0.000000
# 3 -0.003085 -0.007204 0.010158 0.000000 0.000000 0.000000
# 4 0.000000 0.000000 0.000000 0.026533 0.000000 0.000000
# 5 0.000000 0.000000 0.000000 0.000000 0.040117 0.000000
# 6 0.000000 0.000000 0.000000 0.000000 0.000000 0.034738
#
#
# Mechanical properties :
#
#
# Convention : Reuss Voigt Hill
#
# Bulk Modulus (GPa) = 56.31019 74.99530 65.65275
# Shear Modulus (GPa) = 28.97599 31.69380 30.33489
#
# Velocity S-wave (km/s) = 3.88325 4.06128 3.97326
# Velocity P-wave (km/s) = 7.02929 7.81159 7.43074
#
# Compressibility (1/GPa) = 0.01775877
#
# Stress axis : x y z
#
# Youngs Moduli (GPa) = 60.34014 67.68899 98.44811
#
# Poissons Ratio (x) = 0.10715 0.30375
# Poissons Ratio (y) = 0.09552 0.70923
# Poissons Ratio (z) = 0.18617 0.48764
#
# Static dielectric constant tensor:
#      x y z
#    x 3.390600 0.000000 0.000000 
#    y 0.000000 3.527800 0.000000 
#    z 0.000000 0.000000 3.771790 
# 
# 
# High freq. dielectric constant tensor:
#      x y z
#    x 1.736050 0.000000 0.000000 
#    y 0.000000 1.746500 0.000000 
#    z 0.000000 0.000000 1.766070 
# 
# From -- ./inp_files/43517.got.cif
#   From: 2010.03.12/outbox.cif.g09.slc.cpg/sg67_22_cif.got.tgz:43517.got - 2010.04.10 22:41:39.
