data_PCOD8279774
_publ_section_title
;
Structure prediction by ZEFSAII (Michael W. Deem and Ramdas Pophale) SiO2 
 PCOD8279774
Probable space group: C M M A
;
_chemical_formula_sum "Si O2"
_cell_formula_units_Z 88
_cell_length_a 9.468624
_cell_length_b 22.360620
_cell_length_c 23.413456
_cell_angle_alpha 90.000000
_cell_angle_beta 90.000000
_cell_angle_gamma 90.000000
_cell_volume 4957.197657
_symmetry_space_group_name_H-M "C M M A"
_symmetry_group_IT_number 67
_symmetry_cell_setting 'orthorhombic'
loop_
_space_group_symop_operation_xyz
x,y,z
-x,1/2-y,z
x,-y,-z
-x,1/2+y,-z
-x,-y,-z
x,1/2+y,-z
-x,y,z
x,1/2-y,z
1/2+x,1/2+y,z
1/2-x,-y,z
1/2+x,1/2-y,-z
1/2-x,y,-z
1/2-x,1/2-y,-z
1/2+x,y,-z
1/2-x,1/2+y,z
1/2+x,-y,z
loop_
_atom_site_type_symbol
_atom_site_label
_atom_site_fract_x
_atom_site_fract_y
_atom_site_fract_z
Si Si1 0.000000 0.552609 0.082445
Si Si2 0.246295 0.367763 0.886638
Si Si3 0.660860 0.319156 0.769674
Si Si4 0.154958 0.250000 0.945049
Si Si5 0.338537 0.178752 0.554388
Si Si6 0.500000 0.419070 0.949816
Si Si7 0.839686 0.678977 0.338427
O O1 0.862889 0.577318 0.114831
O O2 0.000000 0.481167 0.084952
O O3 0.000000 0.573581 0.017189
O O4 0.313854 0.360717 0.824344
O O5 0.171560 0.306951 0.904587
O O6 0.363903 0.381131 0.933702
O O7 0.500000 0.327275 0.748361
O O8 0.689267 0.250000 0.785581
O O9 0.766716 0.341350 0.720418
O O10 0.000000 0.250000 0.971219
O O11 0.250000 0.250000 0.000000
O O12 0.500000 0.154075 0.552936
O O13 0.343220 0.250000 0.555092
O O14 0.250000 0.155570 0.500000
O O15 0.255570 0.153872 0.609760
O O16 0.843778 0.750000 0.342172
O O17 0.000000 0.653534 0.341549
#
# Coordination Sequence:
#
# PCOD8279774 Si02
#       7
#     8  16  16   8  16   8  16
#     4  11  24  41  61  81 103 134 174 219 262 320
#     4  12  23  38  58  81 107 135 171 214 265 322
#     4  10  20  34  48  69 100 135 169 206 257 318
#     4  12  26  38  56  82 110 136 163 206 267 324
#     4   9  15  23  36  56  84 120 166 215 255 293
#     4  11  24  43  61  79 103 136 174 215 266 320
#     4   9  17  27  42  61  87 124 167 212 255 301
#
# _framework density 17.751964000000001
#
# number of rings (size 3 to 8) (size 9 to 14) (size 15 to 20)
#    0.000    1.636    2.727    3.273    2.545    5.818 
#    0.000    0.000    0.000    0.000    0.000    0.000 
#    0.000    0.000    0.000    0.000    0.000    5.455 
#
# Total GULP energy -545658.892100 kJ/mol
# GULP energy per Si atom -12401.338457 kJ/mol
# Density = 1.771156 g / cm^3
# Si number density = 17.751964 Si / 1000 Ang^3
#
#
#
# Elastic Constant Matrix: (Units=GPa)
#
#
# Indices 1 2 3 4 5 6 
#
# 1 150.0967 16.7847 47.6816 0.0000 0.0000 0.0000
# 2 16.7847 43.3429 11.3014 0.0000 0.0000 0.0000
# 3 47.6816 11.3014 98.5957 0.0000 0.0000 0.0000
# 4 0.0000 0.0000 0.0000 7.5054 0.0000 0.0000
# 5 0.0000 0.0000 0.0000 0.0000 36.4876 0.0000
# 6 0.0000 0.0000 0.0000 0.0000 0.0000 16.2646
#
#
#
# Elastic Compliance Matrix: (Units=1/GPa)
#
#
# Indices 1 2 3 4 5 6 
#
# 1 0.008065 -0.002171 -0.003651 0.000000 0.000000 0.000000
# 2 -0.002171 0.024367 -0.001743 0.000000 0.000000 0.000000
# 3 -0.003651 -0.001743 0.012108 0.000000 0.000000 0.000000
# 4 0.000000 0.000000 0.000000 0.133237 0.000000 0.000000
# 5 0.000000 0.000000 0.000000 0.000000 0.027407 0.000000
# 6 0.000000 0.000000 0.000000 0.000000 0.000000 0.061483
#
#
# Mechanical properties :
#
#
# Convention : Reuss Voigt Hill
#
# Bulk Modulus (GPa) = 34.00324 49.28564 41.64444
# Shear Modulus (GPa) = 17.14671 26.46936 21.80804
#
# Velocity S-wave (km/s) = 3.11127 3.86562 3.50878
# Velocity P-wave (km/s) = 5.66594 6.90998 6.31865
#
# Compressibility (1/GPa) = 0.02940896
#
# Stress axis : x y z
#
# Youngs Moduli (GPa) = 123.99042 41.03887 82.58927
#
# Poissons Ratio (x) = 0.08910 0.30157
# Poissons Ratio (y) = 0.26920 0.14396
# Poissons Ratio (z) = 0.45275 0.07153
#
# Static dielectric constant tensor:
#      x y z
#    x 3.539180 0.000000 0.000000 
#    y 0.000000 2.888060 0.000000 
#    z 0.000000 0.000000 3.270510 
# 
# 
# High freq. dielectric constant tensor:
#      x y z
#    x 1.712100 0.000000 0.000000 
#    y 0.000000 1.620930 0.000000 
#    z 0.000000 0.000000 1.685050 
# 
# From -- ./inp_files/37014.got.cif
#   From: 2010.03.12/outbox.cif.g09.slc.cpg/sg67_19_cif.got.tgz:37014.got - 2010.04.10 22:41:39.
