data_PCOD8279449
_publ_section_title
;
Structure prediction by ZEFSAII (Michael W. Deem and Ramdas Pophale) SiO2 
 PCOD8279449
Probable space group: C M M A
;
_chemical_formula_sum "Si O2"
_cell_formula_units_Z 112
_cell_length_a 14.409391
_cell_length_b 28.038866
_cell_length_c 19.388251
_cell_angle_alpha 90.000000
_cell_angle_beta 90.000000
_cell_angle_gamma 90.000000
_cell_volume 7833.299012
_symmetry_space_group_name_H-M "C M M A"
_symmetry_group_IT_number 67
_symmetry_cell_setting 'orthorhombic'
loop_
_space_group_symop_operation_xyz
x,y,z
-x,1/2-y,z
x,-y,-z
-x,1/2+y,-z
-x,-y,-z
x,1/2+y,-z
-x,y,z
x,1/2-y,z
1/2+x,1/2+y,z
1/2-x,-y,z
1/2+x,1/2-y,-z
1/2-x,y,-z
1/2-x,1/2-y,-z
1/2+x,y,-z
1/2-x,1/2+y,z
1/2+x,-y,z
loop_
_atom_site_type_symbol
_atom_site_label
_atom_site_fract_x
_atom_site_fract_y
_atom_site_fract_z
Si Si1 0.305134 0.806724 0.695457
Si Si2 0.500000 0.193181 0.359032
Si Si3 0.893964 0.630909 0.076346
Si Si4 0.000000 0.306727 0.484852
Si Si5 0.254264 0.306479 0.152990
Si Si6 0.306091 0.193214 0.565513
Si Si7 0.749558 0.447328 0.081315
Si Si8 0.106054 0.870437 0.913104
O O1 0.305531 0.750000 0.693738
O O2 0.409255 0.825793 0.681187
O O3 0.268678 0.825018 0.768933
O O4 0.237039 0.827176 0.636203
O O5 0.500000 0.250000 0.361513
O O6 0.500000 0.173027 0.437177
O O7 0.842257 0.676366 0.108496
O O8 0.842399 0.582616 0.101756
O O9 0.000000 0.628814 0.101906
O O10 0.887930 0.637619 0.994613
O O11 0.911287 0.325089 0.442221
O O12 0.000000 0.250000 0.489687
O O13 0.249496 0.250000 0.148419
O O14 0.157225 0.326746 0.124495
O O15 0.300782 0.250000 0.566212
O O16 0.250000 0.173336 0.500000
O O17 0.750000 0.500000 0.115832
O O18 0.841658 0.419560 0.106555
O O19 0.750000 0.453132 0.000000
O O20 0.000000 0.873230 0.887511
#
# Coordination Sequence:
#
# PCOD8279449 Si02
#       8
#    16   8  16   8  16  16  16  16
#     4   9  17  26  36  51  70  92 125 168 207 239
#     4   9  14  22  36  52  68  87 115 157 207 250
#     4   9  18  30  44  62  81 101 131 171 209 247
#     4   9  14  20  34  50  66  89 113 148 199 247
#     4  10  20  31  41  54  75 106 144 183 213 234
#     4   9  14  22  34  49  68  89 116 153 199 244
#     4   8  14  26  45  67  86 100 117 149 197 252
#     4   9  18  32  45  58  79 106 135 167 205 247
#
# _framework density 14.297935000000001
#
# number of rings (size 3 to 8) (size 9 to 14) (size 15 to 20)
#    0.000    3.000    1.429    1.286    1.000    2.286 
#    1.286    4.286    0.000    0.000    0.000    0.000 
#    0.000    0.000    0.000    0.000    0.000   11.429 
#
# Total GULP energy -694086.533870 kJ/mol
# GULP energy per Si atom -12394.402391 kJ/mol
# Density = 1.426539 g / cm^3
# Si number density = 14.297935 Si / 1000 Ang^3
#
#
#
# Elastic Constant Matrix: (Units=GPa)
#
#
# Indices 1 2 3 4 5 6 
#
# 1 151.6418 39.1467 47.5008 0.0000 0.0000 0.0000
# 2 39.1467 61.5966 23.7497 0.0000 0.0000 0.0000
# 3 47.5008 23.7497 61.8109 0.0000 0.0000 0.0000
# 4 0.0000 0.0000 0.0000 0.5581 0.0000 0.0000
# 5 0.0000 0.0000 0.0000 0.0000 17.1350 0.0000
# 6 0.0000 0.0000 0.0000 0.0000 0.0000 8.8982
#
#
#
# Elastic Compliance Matrix: (Units=1/GPa)
#
#
# Indices 1 2 3 4 5 6 
#
# 1 0.009362 -0.003728 -0.005762 0.000000 0.000000 0.000000
# 2 -0.003728 0.020543 -0.005028 0.000000 0.000000 0.000000
# 3 -0.005762 -0.005028 0.022538 0.000000 0.000000 0.000000
# 4 0.000000 0.000000 0.000000 1.791906 0.000000 0.000000
# 5 0.000000 0.000000 0.000000 0.000000 0.058360 0.000000
# 6 0.000000 0.000000 0.000000 0.000000 0.000000 0.112382
#
#
# Mechanical properties :
#
#
# Convention : Reuss Voigt Hill
#
# Bulk Modulus (GPa) = 42.72337 55.09374 48.90856
# Shear Modulus (GPa) = 2.43673 16.29506 9.36590
#
# Velocity S-wave (km/s) = 1.30689 3.37958 2.56218
# Velocity P-wave (km/s) = 5.67653 7.33792 6.56003
#
# Compressibility (1/GPa) = 0.02340639
#
# Stress axis : x y z
#
# Youngs Moduli (GPa) = 106.81699 48.67906 44.36892
#
# Poissons Ratio (x) = 0.18148 0.25565
# Poissons Ratio (y) = 0.39823 0.22309
# Poissons Ratio (z) = 0.61547 0.24477
#
# Static dielectric constant tensor:
#      x y z
#    x 3.069150 0.000000 0.000000 
#    y 0.000000 2.491110 0.000000 
#    z 0.000000 0.000000 2.793920 
# 
# 
# High freq. dielectric constant tensor:
#      x y z
#    x 1.562240 0.000000 0.000000 
#    y 0.000000 1.487650 0.000000 
#    z 0.000000 0.000000 1.530620 
# 
# From -- ./inp_files/33869.got.cif
#   From: 2010.03.12/outbox.cif.g09.slc.cpg/sg67_17_cif.got.tgz:33869.got - 2010.04.10 22:41:39.
