data_PCOD8279329
_publ_section_title
;
Structure prediction by ZEFSAII (Michael W. Deem and Ramdas Pophale) SiO2 
 PCOD8279329
Probable space group: C M M A
;
_chemical_formula_sum "Si O2"
_cell_formula_units_Z 104
_cell_length_a 9.453126
_cell_length_b 20.880789
_cell_length_c 28.306915
_cell_angle_alpha 90.000000
_cell_angle_beta 90.000000
_cell_angle_gamma 90.000000
_cell_volume 5587.465985
_symmetry_space_group_name_H-M "C M M A"
_symmetry_group_IT_number 67
_symmetry_cell_setting 'orthorhombic'
loop_
_space_group_symop_operation_xyz
x,y,z
-x,1/2-y,z
x,-y,-z
-x,1/2+y,-z
-x,-y,-z
x,1/2+y,-z
-x,y,z
x,1/2-y,z
1/2+x,1/2+y,z
1/2-x,-y,z
1/2+x,1/2-y,-z
1/2-x,y,-z
1/2-x,1/2-y,-z
1/2+x,y,-z
1/2-x,1/2+y,z
1/2+x,-y,z
loop_
_atom_site_type_symbol
_atom_site_label
_atom_site_fract_x
_atom_site_fract_y
_atom_site_fract_z
Si Si1 0.000000 0.556409 0.558292
Si Si2 0.334941 0.825938 0.300645
Si Si3 0.830761 0.938155 0.950980
Si Si4 0.769159 0.869105 0.599847
Si Si5 0.162560 0.823650 0.879594
Si Si6 0.840202 0.174283 0.788788
Si Si7 0.500000 0.407716 0.455575
Si Si8 0.351628 0.750000 0.456530
O O1 0.861794 0.568129 0.589735
O O2 0.000000 0.603952 0.512088
O O3 0.000000 0.483157 0.546372
O O4 0.500000 0.846103 0.298839
O O5 0.320014 0.750000 0.304967
O O6 0.253405 0.859792 0.344091
O O7 0.253823 0.852302 0.254484
O O8 0.807110 0.873284 0.921533
O O9 0.000000 0.951595 0.957384
O O10 0.750000 0.000000 0.927506
O O11 0.750000 0.925876 0.000000
O O12 0.626518 0.874736 0.571225
O O13 0.848053 0.808693 0.578993
O O14 0.195460 0.750000 0.895609
O O15 0.263315 0.845665 0.837045
O O16 0.000000 0.828377 0.862566
O O17 0.847275 0.250000 0.785087
O O18 0.000000 0.145751 0.787477
O O19 0.500000 0.750000 0.483310
O O20 0.250000 0.750000 0.500000
#
# Coordination Sequence:
#
# PCOD8279329 Si02
#       8
#     8  16  16  16  16  16   8   8
#     4  11  22  45  61  77 105 142 189 221 258 325
#     4  10  19  35  54  78 110 146 177 210 268 338
#     4  10  20  34  54  80 114 157 201 240 285 338
#     4  12  23  38  59  84 111 140 176 220 272 329
#     4   9  18  34  55  82 113 150 193 235 284 338
#     4   9  18  31  52  82 113 141 177 227 276 327
#     4  11  26  39  61  83 103 142 185 227 264 307
#     4  12  24  38  56  82 116 144 170 212 277 336
#
# _framework density 18.613088999999999
#
# number of rings (size 3 to 8) (size 9 to 14) (size 15 to 20)
#    0.000    1.692    2.308    3.231    2.154    4.615 
#    0.000    0.000    0.000    1.846    0.000    0.000 
#    0.000    0.000    0.000    0.000    0.000    0.000 
#
# Total GULP energy -644438.031788 kJ/mol
# GULP energy per Si atom -12393.039073 kJ/mol
# Density = 1.857072 g / cm^3
# Si number density = 18.613089 Si / 1000 Ang^3
#
#
#
# Elastic Constant Matrix: (Units=GPa)
#
#
# Indices 1 2 3 4 5 6 
#
# 1 121.5503 31.6172 52.6309 0.0000 0.0000 0.0000
# 2 31.6172 64.1404 43.0826 0.0000 0.0000 0.0000
# 3 52.6309 43.0826 113.3904 0.0000 0.0000 0.0000
# 4 0.0000 0.0000 0.0000 15.0479 0.0000 0.0000
# 5 0.0000 0.0000 0.0000 0.0000 48.6116 0.0000
# 6 0.0000 0.0000 0.0000 0.0000 0.0000 25.4163
#
#
#
# Elastic Compliance Matrix: (Units=1/GPa)
#
#
# Indices 1 2 3 4 5 6 
#
# 1 0.010605 -0.002580 -0.003942 0.000000 0.000000 0.000000
# 2 -0.002580 0.021561 -0.006995 0.000000 0.000000 0.000000
# 3 -0.003942 -0.006995 0.013307 0.000000 0.000000 0.000000
# 4 0.000000 0.000000 0.000000 0.066455 0.000000 0.000000
# 5 0.000000 0.000000 0.000000 0.000000 0.020571 0.000000
# 6 0.000000 0.000000 0.000000 0.000000 0.000000 0.039345
#
#
# Mechanical properties :
#
#
# Convention : Reuss Voigt Hill
#
# Bulk Modulus (GPa) = 54.23235 61.52695 57.87965
# Shear Modulus (GPa) = 24.38761 29.26519 26.82640
#
# Velocity S-wave (km/s) = 3.62365 3.96951 3.80052
# Velocity P-wave (km/s) = 6.83430 7.35778 7.10087
#
# Compressibility (1/GPa) = 0.01843918
#
# Stress axis : x y z
#
# Youngs Moduli (GPa) = 94.29473 46.38093 75.15124
#
# Poissons Ratio (x) = 0.11965 0.29627
# Poissons Ratio (y) = 0.24325 0.52565
# Poissons Ratio (z) = 0.37174 0.32441
#
# Static dielectric constant tensor:
#      x y z
#    x 3.690460 0.000000 0.000000 
#    y 0.000000 3.543900 0.000000 
#    z 0.000000 0.000000 3.446010 
# 
# 
# High freq. dielectric constant tensor:
#      x y z
#    x 1.737580 0.000000 0.000000 
#    y 0.000000 1.700450 0.000000 
#    z 0.000000 0.000000 1.716660 
# 
# From -- ./inp_files/43765.got.cif
#   From: 2010.03.12/outbox.cif.g09.slc.cpg/sg67_22_cif.got.tgz:43765.got - 2010.04.10 22:41:39.
