data_PCOD8279781
_publ_section_title
;
Structure prediction by ZEFSAII (Michael W. Deem and Ramdas Pophale) SiO2 
 PCOD8279781
Probable space group: C M M A
;
_chemical_formula_sum "Si O2"
_cell_formula_units_Z 96
_cell_length_a 8.746471
_cell_length_b 27.682051
_cell_length_c 24.456832
_cell_angle_alpha 90.000000
_cell_angle_beta 90.000000
_cell_angle_gamma 90.000000
_cell_volume 5921.494432
_symmetry_space_group_name_H-M "C M M A"
_symmetry_group_IT_number 67
_symmetry_cell_setting 'orthorhombic'
loop_
_space_group_symop_operation_xyz
x,y,z
-x,1/2-y,z
x,-y,-z
-x,1/2+y,-z
-x,-y,-z
x,1/2+y,-z
-x,y,z
x,1/2-y,z
1/2+x,1/2+y,z
1/2-x,-y,z
1/2+x,1/2-y,-z
1/2-x,y,-z
1/2-x,1/2-y,-z
1/2+x,y,-z
1/2-x,1/2+y,z
1/2+x,-y,z
loop_
_atom_site_type_symbol
_atom_site_label
_atom_site_fract_x
_atom_site_fract_y
_atom_site_fract_z
Si Si1 0.681463 0.603067 0.279999
Si Si2 0.819151 0.638704 0.557003
Si Si3 0.179090 0.552804 0.947430
Si Si4 0.678862 0.552172 0.171937
Si Si5 0.319940 0.197088 0.662174
Si Si6 0.681590 0.551484 0.618871
O O1 0.500000 0.598253 0.289161
O O2 0.732310 0.589868 0.218357
O O3 0.736721 0.657909 0.292888
O O4 0.762685 0.566062 0.320744
O O5 0.750000 0.656882 0.500000
O O6 0.774686 0.678970 0.601800
O O7 0.742748 0.588207 0.573326
O O8 0.000000 0.631528 0.552882
O O9 0.250000 0.500000 0.947227
O O10 0.221016 0.575138 0.887778
O O11 0.000000 0.549872 0.956282
O O12 0.250000 0.581677 0.000000
O O13 0.500000 0.543462 0.175545
O O14 0.750000 0.500000 0.182240
O O15 0.500000 0.201963 0.666665
O O16 0.244844 0.250000 0.672823
O O17 0.500000 0.549786 0.617563
O O18 0.750000 0.500000 0.603260
#
# Coordination Sequence:
#
# PCOD8279781 Si02
#       6
#    16  16  16  16  16  16
#     4   9  17  30  46  65  89 114 143 178 215 255
#     4  10  20  34  50  69  91 113 141 174 209 251
#     4   9  15  23  34  50  75 108 145 178 209 242
#     4   9  17  26  38  58  84 115 146 177 210 247
#     4   8  15  29  49  69  88 111 137 169 213 260
#     4  11  21  33  48  66  89 117 147 176 210 249
#
# _framework density 16.212122999999998
#
# number of rings (size 3 to 8) (size 9 to 14) (size 15 to 20)
#    0.000    2.667    0.000    4.500    0.000    3.333 
#    0.000    1.667    0.000   12.000    0.000    0.000 
#    0.000    0.667    0.000    0.500    0.000    1.333 
#
# Total GULP energy -594811.212886 kJ/mol
# GULP energy per Si atom -12391.900268 kJ/mol
# Density = 1.617522 g / cm^3
# Si number density = 16.212123 Si / 1000 Ang^3
#
#
#
# Elastic Constant Matrix: (Units=GPa)
#
#
# Indices 1 2 3 4 5 6 
#
# 1 60.9095 20.8747 32.5521 0.0000 0.0000 0.0000
# 2 20.8747 95.6005 48.7407 0.0000 0.0000 0.0000
# 3 32.5521 48.7407 146.6632 0.0000 0.0000 0.0000
# 4 0.0000 0.0000 0.0000 10.3658 0.0000 0.0000
# 5 0.0000 0.0000 0.0000 0.0000 18.0113 0.0000
# 6 0.0000 0.0000 0.0000 0.0000 0.0000 11.3190
#
#
#
# Elastic Compliance Matrix: (Units=1/GPa)
#
#
# Indices 1 2 3 4 5 6 
#
# 1 0.019080 -0.002417 -0.003432 0.000000 0.000000 0.000000
# 2 -0.002417 0.012900 -0.003751 0.000000 0.000000 0.000000
# 3 -0.003432 -0.003751 0.008827 0.000000 0.000000 0.000000
# 4 0.000000 0.000000 0.000000 0.096471 0.000000 0.000000
# 5 0.000000 0.000000 0.000000 0.000000 0.055521 0.000000
# 6 0.000000 0.000000 0.000000 0.000000 0.000000 0.088347
#
#
# Mechanical properties :
#
#
# Convention : Reuss Voigt Hill
#
# Bulk Modulus (GPa) = 46.27796 56.38980 51.33388
# Shear Modulus (GPa) = 16.25771 21.33960 18.79866
#
# Velocity S-wave (km/s) = 3.17016 3.63199 3.40890
# Velocity P-wave (km/s) = 6.48129 7.24199 6.87217
#
# Compressibility (1/GPa) = 0.02160856
#
# Stress axis : x y z
#
# Youngs Moduli (GPa) = 52.41085 77.51849 113.29497
#
# Poissons Ratio (x) = 0.18733 0.38880
# Poissons Ratio (y) = 0.12665 0.42494
# Poissons Ratio (z) = 0.17986 0.29075
#
# Static dielectric constant tensor:
#      x y z
#    x 3.018720 0.000000 0.000000 
#    y 0.000000 3.079000 0.000000 
#    z 0.000000 0.000000 3.845000 
# 
# 
# High freq. dielectric constant tensor:
#      x y z
#    x 1.619280 0.000000 0.000000 
#    y 0.000000 1.585810 0.000000 
#    z 0.000000 0.000000 1.630990 
# 
# From -- ./inp_files/40931.got.cif
#   From: 2010.03.12/outbox.cif.g09.slc.cpg/sg67_21_cif.got.tgz:40931.got - 2010.04.10 22:41:39.
