data_PCOD8279055
_publ_section_title
;
Structure prediction by ZEFSAII (Michael W. Deem and Ramdas Pophale) SiO2 
 PCOD8279055
Probable space group: C M M A
;
_chemical_formula_sum "Si O2"
_cell_formula_units_Z 84
_cell_length_a 18.163397
_cell_length_b 25.826835
_cell_length_c 9.870271
_cell_angle_alpha 90.000000
_cell_angle_beta 90.000000
_cell_angle_gamma 90.000000
_cell_volume 4630.174303
_symmetry_space_group_name_H-M "C M M A"
_symmetry_group_IT_number 67
_symmetry_cell_setting 'orthorhombic'
loop_
_space_group_symop_operation_xyz
x,y,z
-x,1/2-y,z
x,-y,-z
-x,1/2+y,-z
-x,-y,-z
x,1/2+y,-z
-x,y,z
x,1/2-y,z
1/2+x,1/2+y,z
1/2-x,-y,z
1/2+x,1/2-y,-z
1/2-x,y,-z
1/2-x,1/2-y,-z
1/2+x,y,-z
1/2-x,1/2+y,z
1/2+x,-y,z
loop_
_atom_site_type_symbol
_atom_site_label
_atom_site_fract_x
_atom_site_fract_y
_atom_site_fract_z
Si Si1 0.084986 0.052857 0.767571
Si Si2 0.750000 0.000000 0.500000
Si Si3 0.917414 0.615002 0.496344
Si Si4 0.845935 0.946498 0.715119
Si Si5 0.224115 0.885692 0.144104
Si Si6 0.306378 0.691815 0.621577
O O1 0.093517 0.067381 0.609168
O O2 0.142978 0.086882 0.856174
O O3 0.000000 0.061785 0.817223
O O4 0.104899 0.992114 0.780364
O O5 0.798423 0.037423 0.412071
O O6 0.895760 0.598792 0.649756
O O7 0.878323 0.665298 0.437766
O O8 0.000000 0.633458 0.503808
O O9 0.788091 0.927274 0.826020
O O10 0.226164 0.838982 0.250540
O O11 0.250000 0.862697 0.000000
O O12 0.325082 0.750000 0.669276
O O13 0.250000 0.691786 0.500000
#
# Coordination Sequence:
#
# PCOD8279055 Si02
#       6
#    16   4  16  16  16  16
#     4  10  20  33  52  79 114 152 191 228 269 329
#     4  12  16  28  52  76 106 148 196 232 260 304
#     4  10  19  32  54  87 115 140 179 234 291 333
#     4  12  18  31  52  79 114 154 192 228 274 323
#     4  11  23  38  56  80 115 152 191 231 277 335
#     4  10  20  38  63  85 105 135 184 238 287 340
#
# _framework density 18.141864999999999
#
# number of rings (size 3 to 8) (size 9 to 14) (size 15 to 20)
#    0.000    1.333    5.714    1.714    0.000    3.810 
#    0.000    2.857    0.000    0.000    0.000    0.000 
#    0.000    0.000    0.000    0.000    0.000    0.000 
#
# Total GULP energy -520594.040711 kJ/mol
# GULP energy per Si atom -12395.096207 kJ/mol
# Density = 1.810057 g / cm^3
# Si number density = 18.141865 Si / 1000 Ang^3
#
#
#
# Elastic Constant Matrix: (Units=GPa)
#
#
# Indices 1 2 3 4 5 6 
#
# 1 116.7382 45.8645 30.4885 0.0000 0.0000 0.0000
# 2 45.8645 111.0442 31.5099 0.0000 0.0000 0.0000
# 3 30.4885 31.5099 67.2546 0.0000 0.0000 0.0000
# 4 0.0000 0.0000 0.0000 13.0853 0.0000 0.0000
# 5 0.0000 0.0000 0.0000 0.0000 13.3301 0.0000
# 6 0.0000 0.0000 0.0000 0.0000 0.0000 8.4306
#
#
#
# Elastic Compliance Matrix: (Units=1/GPa)
#
#
# Indices 1 2 3 4 5 6 
#
# 1 0.010804 -0.003544 -0.003237 0.000000 0.000000 0.000000
# 2 -0.003544 0.011549 -0.003804 0.000000 0.000000 0.000000
# 3 -0.003237 -0.003804 0.018119 0.000000 0.000000 0.000000
# 4 0.000000 0.000000 0.000000 0.076422 0.000000 0.000000
# 5 0.000000 0.000000 0.000000 0.000000 0.075018 0.000000
# 6 0.000000 0.000000 0.000000 0.000000 0.000000 0.118616
#
#
# Mechanical properties :
#
#
# Convention : Reuss Voigt Hill
#
# Bulk Modulus (GPa) = 51.81192 56.75144 54.28168
# Shear Modulus (GPa) = 14.78715 19.44746 17.11731
#
# Velocity S-wave (km/s) = 2.85807 3.27764 3.07502
# Velocity P-wave (km/s) = 6.28591 6.75824 6.52635
#
# Compressibility (1/GPa) = 0.01930058
#
# Stress axis : x y z
#
# Youngs Moduli (GPa) = 92.55854 86.59084 55.19108
#
# Poissons Ratio (x) = 0.30685 0.17868
# Poissons Ratio (y) = 0.32800 0.20996
# Poissons Ratio (z) = 0.29966 0.32941
#
# Static dielectric constant tensor:
#      x y z
#    x 3.857800 0.000000 0.000000 
#    y 0.000000 3.414030 0.000000 
#    z 0.000000 0.000000 3.440740 
# 
# 
# High freq. dielectric constant tensor:
#      x y z
#    x 1.714880 0.000000 0.000000 
#    y 0.000000 1.683020 0.000000 
#    z 0.000000 0.000000 1.680090 
# 
# From -- ./inp_files/11394.got.cif
#   From: 2010.03.12/outbox.cif.g09.slc.cpg/sg67_6_cif.got.tgz:11394.got - 2010.04.10 22:41:39.
