data_PCOD8279574
_publ_section_title
;
Structure prediction by ZEFSAII (Michael W. Deem and Ramdas Pophale) SiO2 
 PCOD8279574
Probable space group: C M M A
;
_chemical_formula_sum "Si O2"
_cell_formula_units_Z 72
_cell_length_a 8.867748
_cell_length_b 15.801572
_cell_length_c 24.737241
_cell_angle_alpha 90.000000
_cell_angle_beta 90.000000
_cell_angle_gamma 90.000000
_cell_volume 3466.290026
_symmetry_space_group_name_H-M "C M M A"
_symmetry_group_IT_number 67
_symmetry_cell_setting 'orthorhombic'
loop_
_space_group_symop_operation_xyz
x,y,z
-x,1/2-y,z
x,-y,-z
-x,1/2+y,-z
-x,-y,-z
x,1/2+y,-z
-x,y,z
x,1/2-y,z
1/2+x,1/2+y,z
1/2-x,-y,z
1/2+x,1/2-y,-z
1/2-x,y,-z
1/2-x,1/2-y,-z
1/2+x,y,-z
1/2-x,1/2+y,z
1/2+x,-y,z
loop_
_atom_site_type_symbol
_atom_site_label
_atom_site_fract_x
_atom_site_fract_y
_atom_site_fract_z
Si Si1 0.320723 0.088310 0.382625
Si Si2 0.176508 0.408117 0.051302
Si Si3 0.181077 0.250000 0.440948
Si Si4 0.667963 0.155193 0.269208
Si Si5 0.174752 0.589920 0.830903
O O1 0.500000 0.091421 0.394038
O O2 0.239004 0.165390 0.412077
O O3 0.285357 0.094448 0.318495
O O4 0.250000 0.000000 0.403632
O O5 0.250000 0.500000 0.052850
O O6 0.211660 0.367139 0.110297
O O7 0.000000 0.414883 0.040795
O O8 0.250000 0.357537 0.000000
O O9 0.250000 0.250000 0.500000
O O10 0.000000 0.250000 0.442220
O O11 0.500000 0.132641 0.249290
O O12 0.676069 0.250000 0.292413
O O13 0.775946 0.150323 0.217524
O O14 0.250000 0.500000 0.822999
O O15 0.000000 0.573120 0.826483
#
# Coordination Sequence:
#
# PCOD8279574 Si02
#       5
#    16  16   8  16  16
#     4  11  23  43  68  99 135 172 217 267 316 376
#     4   9  16  26  42  66  97 133 177 229 289 351
#     4  12  26  46  72 102 136 178 219 264 317 368
#     4  10  21  38  59  84 117 156 197 248 306 364
#     4  10  20  32  49  77 109 143 186 239 294 360
#
# _framework density 20.771488999999999
#
# number of rings (size 3 to 8) (size 9 to 14) (size 15 to 20)
#    0.000    1.778    1.111    4.333    0.000    7.111 
#    0.000    2.222    0.000    0.667    0.000    0.000 
#    0.000    0.000    0.000    0.000    0.000    0.000 
#
# Total GULP energy -446147.566921 kJ/mol
# GULP energy per Si atom -12392.987970 kJ/mol
# Density = 2.072421 g / cm^3
# Si number density = 20.771489 Si / 1000 Ang^3
#
#
#
# Elastic Constant Matrix: (Units=GPa)
#
#
# Indices 1 2 3 4 5 6 
#
# 1 133.9476 45.8309 75.8869 0.0000 0.0000 0.0000
# 2 45.8309 99.8760 47.2562 0.0000 0.0000 0.0000
# 3 75.8869 47.2562 134.3948 0.0000 0.0000 0.0000
# 4 0.0000 0.0000 0.0000 5.1293 0.0000 0.0000
# 5 0.0000 0.0000 0.0000 0.0000 39.8692 0.0000
# 6 0.0000 0.0000 0.0000 0.0000 0.0000 28.9460
#
#
#
# Elastic Compliance Matrix: (Units=1/GPa)
#
#
# Indices 1 2 3 4 5 6 
#
# 1 0.011535 -0.002653 -0.005580 0.000000 0.000000 0.000000
# 2 -0.002653 0.012621 -0.002940 0.000000 0.000000 0.000000
# 3 -0.005580 -0.002940 0.011626 0.000000 0.000000 0.000000
# 4 0.000000 0.000000 0.000000 0.194960 0.000000 0.000000
# 5 0.000000 0.000000 0.000000 0.000000 0.025082 0.000000
# 6 0.000000 0.000000 0.000000 0.000000 0.000000 0.034547
#
#
# Mechanical properties :
#
#
# Convention : Reuss Voigt Hill
#
# Bulk Modulus (GPa) = 74.43246 78.46295 76.44770
# Shear Modulus (GPa) = 15.76320 28.07184 21.91752
#
# Velocity S-wave (km/s) = 2.75778 3.68021 3.25187
# Velocity P-wave (km/s) = 6.78618 7.47763 7.14028
#
# Compressibility (1/GPa) = 0.01343500
#
# Stress axis : x y z
#
# Youngs Moduli (GPa) = 86.69413 79.23519 86.01759
#
# Poissons Ratio (x) = 0.21019 0.48002
# Poissons Ratio (y) = 0.22997 0.25288
# Poissons Ratio (z) = 0.48379 0.23294
#
# Static dielectric constant tensor:
#      x y z
#    x 3.991970 0.000000 0.000000 
#    y 0.000000 3.424170 0.000000 
#    z 0.000000 0.000000 4.457970 
# 
# 
# High freq. dielectric constant tensor:
#      x y z
#    x 1.822330 0.000000 0.000000 
#    y 0.000000 1.784490 0.000000 
#    z 0.000000 0.000000 1.829830 
# 
# From -- ./inp_files/42131.got.cif
#   From: 2010.03.12/outbox.cif.g09.slc.cpg/sg67_22_cif.got.tgz:42131.got - 2010.04.10 22:41:39.
