data_PCOD8279869
_publ_section_title
;
Structure prediction by ZEFSAII (Michael W. Deem and Ramdas Pophale) SiO2 
 PCOD8279869
Probable space group: C M M A
;
_chemical_formula_sum "Si O2"
_cell_formula_units_Z 104
_cell_length_a 8.925857
_cell_length_b 25.445724
_cell_length_c 24.666021
_cell_angle_alpha 90.000000
_cell_angle_beta 90.000000
_cell_angle_gamma 90.000000
_cell_volume 5602.267397
_symmetry_space_group_name_H-M "C M M A"
_symmetry_group_IT_number 67
_symmetry_cell_setting 'orthorhombic'
loop_
_space_group_symop_operation_xyz
x,y,z
-x,1/2-y,z
x,-y,-z
-x,1/2+y,-z
-x,-y,-z
x,1/2+y,-z
-x,y,z
x,1/2-y,z
1/2+x,1/2+y,z
1/2-x,-y,z
1/2+x,1/2-y,-z
1/2-x,y,-z
1/2-x,1/2-y,-z
1/2+x,y,-z
1/2-x,1/2+y,z
1/2+x,-y,z
loop_
_atom_site_type_symbol
_atom_site_label
_atom_site_fract_x
_atom_site_fract_y
_atom_site_fract_z
Si Si1 0.331817 0.446795 0.108959
Si Si2 0.176305 0.750000 0.558368
Si Si3 0.675846 0.446367 0.443247
Si Si4 0.330159 0.310923 0.260635
Si Si5 0.176122 0.356782 0.158831
Si Si6 0.331687 0.656220 0.945885
Si Si7 0.827475 0.842887 0.379151
O O1 0.500000 0.459508 0.128537
O O2 0.250000 0.500000 0.092337
O O3 0.244693 0.416127 0.157575
O O4 0.333789 0.407836 0.056701
O O5 0.250000 0.750000 0.500000
O O6 0.222632 0.698111 0.590544
O O7 0.000000 0.750000 0.550735
O O8 0.500000 0.455206 0.452270
O O9 0.750000 0.500000 0.421229
O O10 0.750000 0.429662 0.500000
O O11 0.708806 0.401216 0.399731
O O12 0.500000 0.321747 0.241004
O O13 0.305203 0.250000 0.273669
O O14 0.215875 0.328916 0.214715
O O15 0.293395 0.342779 0.315180
O O16 0.244842 0.323309 0.108056
O O17 0.000000 0.359760 0.151760
O O18 0.500000 0.679046 0.945738
O O19 0.250000 0.675870 0.000000
O O20 0.000000 0.827127 0.390296
#
# Coordination Sequence:
#
# PCOD8279869 Si02
#       7
#    16   8  16  16  16  16  16
#     4   9  18  31  49  74 106 141 181 222 269 328
#     4  12  24  36  56  86 122 156 187 234 291 350
#     4  10  20  35  58  84 115 153 195 234 278 332
#     4  10  20  38  62  81 106 143 182 228 283 341
#     4  10  20  34  52  76 108 142 182 227 270 325
#     4   9  18  31  50  76 108 143 182 225 273 331
#     4  10  21  39  60  85 115 152 193 238 289 344
#
# _framework density 18.563911999999998
#
# number of rings (size 3 to 8) (size 9 to 14) (size 15 to 20)
#    0.923    1.231    0.769    3.923    0.000    3.692 
#    0.000    2.308    0.000    2.308    0.000    0.000 
#    0.000    0.000    0.000    0.000    0.000    0.000 
#
# Total GULP energy -644585.870200 kJ/mol
# GULP energy per Si atom -12395.882119 kJ/mol
# Density = 1.852166 g / cm^3
# Si number density = 18.563912 Si / 1000 Ang^3
#
#
#
# Elastic Constant Matrix: (Units=GPa)
#
#
# Indices 1 2 3 4 5 6 
#
# 1 155.4428 35.2489 61.3969 0.0000 0.0000 0.0000
# 2 35.2489 59.9799 39.3414 0.0000 0.0000 0.0000
# 3 61.3969 39.3414 118.2521 0.0000 0.0000 0.0000
# 4 0.0000 0.0000 0.0000 23.1604 0.0000 0.0000
# 5 0.0000 0.0000 0.0000 0.0000 30.5745 0.0000
# 6 0.0000 0.0000 0.0000 0.0000 0.0000 24.3061
#
#
#
# Elastic Compliance Matrix: (Units=1/GPa)
#
#
# Indices 1 2 3 4 5 6 
#
# 1 0.008412 -0.002659 -0.003483 0.000000 0.000000 0.000000
# 2 -0.002659 0.022166 -0.005994 0.000000 0.000000 0.000000
# 3 -0.003483 -0.005994 0.012259 0.000000 0.000000 0.000000
# 4 0.000000 0.000000 0.000000 0.043177 0.000000 0.000000
# 5 0.000000 0.000000 0.000000 0.000000 0.032707 0.000000
# 6 0.000000 0.000000 0.000000 0.000000 0.000000 0.041142
#
#
# Mechanical properties :
#
#
# Convention : Reuss Voigt Hill
#
# Bulk Modulus (GPa) = 53.86331 67.29436 60.57883
# Shear Modulus (GPa) = 26.27105 28.78737 27.52921
#
# Velocity S-wave (km/s) = 3.76595 3.94219 3.85508
# Velocity P-wave (km/s) = 6.92733 7.55314 7.24699
#
# Compressibility (1/GPa) = 0.01856551
#
# Stress axis : x y z
#
# Youngs Moduli (GPa) = 118.87980 45.11329 81.57307
#
# Poissons Ratio (x) = 0.11996 0.28410
# Poissons Ratio (y) = 0.31611 0.48895
# Poissons Ratio (z) = 0.41404 0.27041
#
# Static dielectric constant tensor:
#      x y z
#    x 3.474910 0.000000 0.000000 
#    y 0.000000 3.239860 0.000000 
#    z 0.000000 0.000000 3.218820 
# 
# 
# High freq. dielectric constant tensor:
#      x y z
#    x 1.731320 0.000000 0.000000 
#    y 0.000000 1.705120 0.000000 
#    z 0.000000 0.000000 1.706700 
# 
# From -- ./inp_files/41022.got.cif
#   From: 2010.03.12/outbox.cif.g09.slc.cpg/sg67_21_cif.got.tgz:41022.got - 2010.04.10 22:41:39.
