data_PCOD8279817
_publ_section_title
;
Structure prediction by ZEFSAII (Michael W. Deem and Ramdas Pophale) SiO2 
 PCOD8279817
Probable space group: C M M A
;
_chemical_formula_sum "Si O2"
_cell_formula_units_Z 80
_cell_length_a 19.409464
_cell_length_b 9.042290
_cell_length_c 25.894206
_cell_angle_alpha 90.000000
_cell_angle_beta 90.000000
_cell_angle_gamma 90.000000
_cell_volume 4544.588576
_symmetry_space_group_name_H-M "C M M A"
_symmetry_group_IT_number 67
_symmetry_cell_setting 'orthorhombic'
loop_
_space_group_symop_operation_xyz
x,y,z
-x,1/2-y,z
x,-y,-z
-x,1/2+y,-z
-x,-y,-z
x,1/2+y,-z
-x,y,z
x,1/2-y,z
1/2+x,1/2+y,z
1/2-x,-y,z
1/2+x,1/2-y,-z
1/2-x,y,-z
1/2-x,1/2-y,-z
1/2+x,y,-z
1/2-x,1/2+y,z
1/2+x,-y,z
loop_
_atom_site_type_symbol
_atom_site_label
_atom_site_fract_x
_atom_site_fract_y
_atom_site_fract_z
Si Si1 0.917848 0.416894 0.050570
Si Si2 0.678454 0.425699 0.446968
Si Si3 0.917939 0.916654 0.747639
Si Si4 0.917808 0.583144 0.151743
Si Si5 0.421215 0.421752 0.354138
O O1 0.889657 0.250000 0.050302
O O2 0.889417 0.498440 0.101466
O O3 0.000000 0.418049 0.050511
O O4 0.889322 0.500000 0.000000
O O5 0.652636 0.500000 0.500000
O O6 0.687875 0.250000 0.454275
O O7 0.750000 0.500000 0.429797
O O8 0.622205 0.465116 0.404176
O O9 0.890004 0.750000 0.750105
O O10 0.000000 0.921415 0.748647
O O11 0.888512 0.004103 0.797040
O O12 0.891046 0.990920 0.694994
O O13 0.889816 0.750000 0.150495
O O14 0.000000 0.580968 0.151985
O O15 0.500000 0.466544 0.365601
O O16 0.414914 0.250000 0.340693
#
# Coordination Sequence:
#
# PCOD8279817 Si02
#       5
#    16  16  16  16  16
#     4   9  15  21  28  39  57  83 120 166 211 254
#     4  10  20  34  52  71  93 121 151 183 219 263
#     4   9  16  25  38  57  79 103 133 171 214 258
#     4   9  15  22  32  45  64  93 127 164 208 256
#     4   9  18  32  48  67  91 118 148 183 223 265
#
# _framework density 17.603354
#
# number of rings (size 3 to 8) (size 9 to 14) (size 15 to 20)
#    0.000    2.800    0.000    3.000    0.000    9.200 
#    0.000    0.000    0.000    0.000    0.000    0.000 
#    0.000    0.000    0.000    0.000    0.000    1.000 
#
# Total GULP energy -495951.423641 kJ/mol
# GULP energy per Si atom -12398.785591 kJ/mol
# Density = 1.756329 g / cm^3
# Si number density = 17.603354 Si / 1000 Ang^3
#
#
#
# Elastic Constant Matrix: (Units=GPa)
#
#
# Indices 1 2 3 4 5 6 
#
# 1 25.2664 27.2698 44.6689 0.0000 0.0000 0.0000
# 2 27.2698 154.0414 100.8663 0.0000 0.0000 0.0000
# 3 44.6689 100.8663 186.5629 0.0000 0.0000 0.0000
# 4 0.0000 0.0000 0.0000 40.4393 0.0000 0.0000
# 5 0.0000 0.0000 0.0000 0.0000 0.2664 0.0000
# 6 0.0000 0.0000 0.0000 0.0000 0.0000 11.0607
#
#
#
# Elastic Compliance Matrix: (Units=1/GPa)
#
#
# Indices 1 2 3 4 5 6 
#
# 1 0.069092 -0.002166 -0.015372 0.000000 0.000000 0.000000
# 2 -0.002166 0.010117 -0.004951 0.000000 0.000000 0.000000
# 3 -0.015372 -0.004951 0.011718 0.000000 0.000000 0.000000
# 4 0.000000 0.000000 0.000000 0.024728 0.000000 0.000000
# 5 0.000000 0.000000 0.000000 0.000000 3.753491 0.000000
# 6 0.000000 0.000000 0.000000 0.000000 0.000000 0.090410
#
#
# Mechanical properties :
#
#
# Convention : Reuss Voigt Hill
#
# Bulk Modulus (GPa) = 21.76336 79.05342 50.40839
# Shear Modulus (GPa) = 1.24383 23.22434 12.23408
#
# Velocity S-wave (km/s) = 0.84150 3.63618 2.63912
# Velocity P-wave (km/s) = 3.65160 7.91421 6.16315
#
# Compressibility (1/GPa) = 0.04594880
#
# Stress axis : x y z
#
# Youngs Moduli (GPa) = 14.47349 98.83975 85.34147
#
# Poissons Ratio (x) = 0.21407 1.31185
# Poissons Ratio (y) = 0.03135 0.42257
# Poissons Ratio (z) = 0.22248 0.48940
#
# Static dielectric constant tensor:
#      x y z
#    x 2.579730 0.000000 0.000000 
#    y 0.000000 3.468110 0.000000 
#    z 0.000000 0.000000 3.472050 
# 
# 
# High freq. dielectric constant tensor:
#      x y z
#    x 1.596310 0.000000 0.000000 
#    y 0.000000 1.698200 0.000000 
#    z 0.000000 0.000000 1.699390 
# 
# From -- ./inp_files/43259.got.cif
#   From: 2010.03.12/outbox.cif.g09.slc.cpg/sg67_22_cif.got.tgz:43259.got - 2010.04.10 22:41:39.
