data_PCOD8279206
_publ_section_title
;
Structure prediction by ZEFSAII (Michael W. Deem and Ramdas Pophale) SiO2 
 PCOD8279206
Probable space group: C M M A
;
_chemical_formula_sum "Si O2"
_cell_formula_units_Z 96
_cell_length_a 8.837735
_cell_length_b 28.839146
_cell_length_c 20.650082
_cell_angle_alpha 90.000000
_cell_angle_beta 90.000000
_cell_angle_gamma 90.000000
_cell_volume 5263.142774
_symmetry_space_group_name_H-M "C M M A"
_symmetry_group_IT_number 67
_symmetry_cell_setting 'orthorhombic'
loop_
_space_group_symop_operation_xyz
x,y,z
-x,1/2-y,z
x,-y,-z
-x,1/2+y,-z
-x,-y,-z
x,1/2+y,-z
-x,y,z
x,1/2-y,z
1/2+x,1/2+y,z
1/2-x,-y,z
1/2+x,1/2-y,-z
1/2-x,y,-z
1/2-x,1/2-y,-z
1/2+x,y,-z
1/2-x,1/2+y,z
1/2+x,-y,z
loop_
_atom_site_type_symbol
_atom_site_label
_atom_site_fract_x
_atom_site_fract_y
_atom_site_fract_z
Si Si1 0.179197 0.700016 0.240307
Si Si2 0.320736 0.050047 0.687799
Si Si3 0.177943 0.950961 0.066448
Si Si4 0.177728 0.602933 0.193958
Si Si5 0.822408 0.109140 0.435205
Si Si6 0.675694 0.697610 0.612723
O O1 0.242292 0.750000 0.214155
O O2 0.234607 0.656478 0.197460
O O3 0.234238 0.692567 0.313664
O O4 0.000000 0.702597 0.240146
O O5 0.500000 0.045726 0.689998
O O6 0.265732 0.072048 0.754642
O O7 0.264793 0.081201 0.627603
O O8 0.250000 0.000000 0.678631
O O9 0.216590 0.914266 0.122182
O O10 0.000000 0.957753 0.057060
O O11 0.250000 0.000000 0.085893
O O12 0.250000 0.931930 0.000000
O O13 0.000000 0.598737 0.209288
O O14 0.750000 0.087086 0.500000
O O15 0.772599 0.162736 0.430603
O O16 0.000000 0.105990 0.442088
O O17 0.500000 0.684017 0.607301
O O18 0.703258 0.750000 0.588013
#
# Coordination Sequence:
#
# PCOD8279206 Si02
#       6
#    16  16  16  16  16  16
#     4   8  14  27  51  81 108 135 170 211 255 306
#     4  11  24  39  56  79 104 134 173 218 268 316
#     4  10  20  33  51  77 108 144 179 215 260 308
#     4  10  19  33  57  84 109 139 176 217 261 308
#     4  11  24  39  55  76 103 138 176 217 267 319
#     4   9  17  32  56  81 105 136 172 213 263 314
#
# _framework density 18.240051999999999
#
# number of rings (size 3 to 8) (size 9 to 14) (size 15 to 20)
#    0.000    2.167    1.667    3.500    0.000    5.667 
#    0.000    1.667    0.000    1.000    0.000    0.000 
#    0.000    0.000    0.000    0.000    0.000    0.667 
#
# Total GULP energy -595126.634254 kJ/mol
# GULP energy per Si atom -12398.471547 kJ/mol
# Density = 1.819854 g / cm^3
# Si number density = 18.240052 Si / 1000 Ang^3
#
#
#
# Elastic Constant Matrix: (Units=GPa)
#
#
# Indices 1 2 3 4 5 6 
#
# 1 59.5092 35.6569 40.7365 0.0000 0.0000 0.0000
# 2 35.6569 119.2897 59.1992 0.0000 0.0000 0.0000
# 3 40.7365 59.1992 110.5573 0.0000 0.0000 0.0000
# 4 0.0000 0.0000 0.0000 10.2392 0.0000 0.0000
# 5 0.0000 0.0000 0.0000 0.0000 22.0954 0.0000
# 6 0.0000 0.0000 0.0000 0.0000 0.0000 18.6602
#
#
#
# Elastic Compliance Matrix: (Units=1/GPa)
#
#
# Indices 1 2 3 4 5 6 
#
# 1 0.023634 -0.003736 -0.006708 0.000000 0.000000 0.000000
# 2 -0.003736 0.012007 -0.005053 0.000000 0.000000 0.000000
# 3 -0.006708 -0.005053 0.014223 0.000000 0.000000 0.000000
# 4 0.000000 0.000000 0.000000 0.097663 0.000000 0.000000
# 5 0.000000 0.000000 0.000000 0.000000 0.045258 0.000000
# 6 0.000000 0.000000 0.000000 0.000000 0.000000 0.053590
#
#
# Mechanical properties :
#
#
# Convention : Reuss Voigt Hill
#
# Bulk Modulus (GPa) = 52.99233 62.28238 57.63736
# Shear Modulus (GPa) = 17.62676 20.44987 19.03831
#
# Velocity S-wave (km/s) = 3.11203 3.35199 3.23424
# Velocity P-wave (km/s) = 6.48296 7.01436 6.75389
#
# Compressibility (1/GPa) = 0.01887066
#
# Stress axis : x y z
#
# Youngs Moduli (GPa) = 42.31109 83.28380 70.31112
#
# Poissons Ratio (x) = 0.31111 0.47166
# Poissons Ratio (y) = 0.15805 0.35528
# Poissons Ratio (z) = 0.28383 0.42083
#
# Static dielectric constant tensor:
#      x y z
#    x 3.195020 0.000000 0.000000 
#    y 0.000000 4.102090 0.000000 
#    z 0.000000 0.000000 3.359420 
# 
# 
# High freq. dielectric constant tensor:
#      x y z
#    x 1.693940 0.000000 0.000000 
#    y 0.000000 1.712530 0.000000 
#    z 0.000000 0.000000 1.695930 
# 
# From -- ./inp_files/37158.got.cif
#   From: 2010.03.12/outbox.cif.g09.slc.cpg/sg67_19_cif.got.tgz:37158.got - 2010.04.10 22:41:39.
