data_PCOD8279905
_publ_section_title
;
Structure prediction by ZEFSAII (Michael W. Deem and Ramdas Pophale) SiO2 
 PCOD8279905
Probable space group: C M M A
;
_chemical_formula_sum "Si O2"
_cell_formula_units_Z 96
_cell_length_a 19.551810
_cell_length_b 8.645668
_cell_length_c 30.234534
_cell_angle_alpha 90.000000
_cell_angle_beta 90.000000
_cell_angle_gamma 90.000000
_cell_volume 5110.799007
_symmetry_space_group_name_H-M "C M M A"
_symmetry_group_IT_number 67
_symmetry_cell_setting 'orthorhombic'
loop_
_space_group_symop_operation_xyz
x,y,z
-x,1/2-y,z
x,-y,-z
-x,1/2+y,-z
-x,-y,-z
x,1/2+y,-z
-x,y,z
x,1/2-y,z
1/2+x,1/2+y,z
1/2-x,-y,z
1/2+x,1/2-y,-z
1/2-x,y,-z
1/2-x,1/2-y,-z
1/2+x,y,-z
1/2-x,1/2+y,z
1/2+x,-y,z
loop_
_atom_site_type_symbol
_atom_site_label
_atom_site_fract_x
_atom_site_fract_y
_atom_site_fract_z
Si Si1 0.321792 0.931443 0.786891
Si Si2 0.079720 0.928340 0.717173
Si Si3 0.822618 0.432523 0.118499
Si Si4 0.676633 0.932884 0.546622
Si Si5 0.580026 0.929427 0.953410
Si Si6 0.578483 0.929499 0.625111
O O1 0.313622 0.750000 0.793583
O O2 0.250000 0.000000 0.769867
O O3 0.379949 0.966028 0.751420
O O4 0.343308 0.005609 0.833383
O O5 0.097607 0.750000 0.725584
O O6 0.000000 0.963404 0.724176
O O7 0.101771 0.972796 0.667598
O O8 0.816725 0.250000 0.120417
O O9 0.750000 0.500000 0.102766
O O10 0.881327 0.481139 0.084985
O O11 0.681978 0.750000 0.542590
O O12 0.623078 0.985505 0.583740
O O13 0.650950 0.000000 0.500000
O O14 0.750000 0.000000 0.559891
O O15 0.500000 0.956235 0.945569
O O16 0.599762 0.750000 0.952508
O O17 0.603433 0.000000 0.000000
O O18 0.500000 0.962855 0.612924
O O19 0.590761 0.750000 0.635905
#
# Coordination Sequence:
#
# PCOD8279905 Si02
#       6
#    16  16  16  16  16  16
#     4  11  22  38  59  82 111 145 182 225 273 324
#     4  10  21  37  57  82 111 143 181 224 269 320
#     4  11  22  38  59  83 113 146 184 228 274 325
#     4  10  20  34  53  76 104 137 173 216 263 315
#     4  10  21  38  59  84 114 147 185 228 275 326
#     4   9  19  36  55  76 104 139 178 219 265 316
#
# _framework density 18.783756
#
# number of rings (size 3 to 8) (size 9 to 14) (size 15 to 20)
#    0.000    1.833    0.000    6.000    0.000    5.333 
#    0.000    3.333    0.000    0.000    0.000    0.000 
#    0.000    0.000    0.000    0.000    0.000    0.000 
#
# Total GULP energy -595441.724691 kJ/mol
# GULP energy per Si atom -12405.035931 kJ/mol
# Density = 1.874100 g / cm^3
# Si number density = 18.783756 Si / 1000 Ang^3
#
#
#
# Elastic Constant Matrix: (Units=GPa)
#
#
# Indices 1 2 3 4 5 6 
#
# 1 80.0457 48.2480 76.6731 0.0000 0.0000 0.0000
# 2 48.2480 135.0194 59.1915 0.0000 0.0000 0.0000
# 3 76.6731 59.1915 127.3797 0.0000 0.0000 0.0000
# 4 0.0000 0.0000 0.0000 37.0407 0.0000 0.0000
# 5 0.0000 0.0000 0.0000 0.0000 26.6268 0.0000
# 6 0.0000 0.0000 0.0000 0.0000 0.0000 30.7985
#
#
#
# Elastic Compliance Matrix: (Units=1/GPa)
#
#
# Indices 1 2 3 4 5 6 
#
# 1 0.030852 -0.003621 -0.016888 0.000000 0.000000 0.000000
# 2 -0.003621 0.009726 -0.002340 0.000000 0.000000 0.000000
# 3 -0.016888 -0.002340 0.019103 0.000000 0.000000 0.000000
# 4 0.000000 0.000000 0.000000 0.026997 0.000000 0.000000
# 5 0.000000 0.000000 0.000000 0.000000 0.037556 0.000000
# 6 0.000000 0.000000 0.000000 0.000000 0.000000 0.032469
#
#
# Mechanical properties :
#
#
# Convention : Reuss Voigt Hill
#
# Bulk Modulus (GPa) = 71.51411 78.96334 75.23873
# Shear Modulus (GPa) = 24.14734 29.44868 26.79801
#
# Velocity S-wave (km/s) = 3.58934 3.96381 3.78121
# Velocity P-wave (km/s) = 7.43860 7.94219 7.69452
#
# Compressibility (1/GPa) = 0.01398325
#
# Stress axis : x y z
#
# Youngs Moduli (GPa) = 32.41313 102.81570 52.34766
#
# Poissons Ratio (x) = 0.37231 0.88403
# Poissons Ratio (y) = 0.11737 0.12249
# Poissons Ratio (z) = 0.54738 0.24058
#
# Static dielectric constant tensor:
#      x y z
#    x 3.424820 0.000000 0.000000 
#    y 0.000000 3.564690 0.000000 
#    z 0.000000 0.000000 3.493010 
# 
# 
# High freq. dielectric constant tensor:
#      x y z
#    x 1.727760 0.000000 0.000000 
#    y 0.000000 1.746100 0.000000 
#    z 0.000000 0.000000 1.735780 
# 
# From -- ./inp_files/44566.got.cif
#   From: 2010.03.12/outbox.cif.g09.slc.cpg/sg67_23_cif.got.tgz:44566.got - 2010.04.10 22:41:39.
