data_PCOD8279015
_publ_section_title
;
Structure prediction by ZEFSAII (Michael W. Deem and Ramdas Pophale) SiO2 
 PCOD8279015
Probable space group: C M M A
;
_chemical_formula_sum "Si O2"
_cell_formula_units_Z 96
_cell_length_a 28.933052
_cell_length_b 17.797351
_cell_length_c 10.008523
_cell_angle_alpha 90.000000
_cell_angle_beta 90.000000
_cell_angle_gamma 90.000000
_cell_volume 5153.705582
_symmetry_space_group_name_H-M "C M M A"
_symmetry_group_IT_number 67
_symmetry_cell_setting 'orthorhombic'
loop_
_space_group_symop_operation_xyz
x,y,z
-x,1/2-y,z
x,-y,-z
-x,1/2+y,-z
-x,-y,-z
x,1/2+y,-z
-x,y,z
x,1/2-y,z
1/2+x,1/2+y,z
1/2-x,-y,z
1/2+x,1/2-y,-z
1/2-x,y,-z
1/2-x,1/2-y,-z
1/2+x,y,-z
1/2-x,1/2+y,z
1/2+x,-y,z
loop_
_atom_site_type_symbol
_atom_site_label
_atom_site_fract_x
_atom_site_fract_y
_atom_site_fract_z
Si Si1 0.447182 0.837625 0.272714
Si Si2 0.216096 0.165720 0.377057
Si Si3 0.623947 0.839391 0.797094
Si Si4 0.773462 0.160383 0.864773
Si Si5 0.123335 0.839226 0.505859
Si Si6 0.053573 0.411730 0.999589
O O1 0.500000 0.857936 0.301531
O O2 0.439530 0.750000 0.245227
O O3 0.420164 0.864025 0.404992
O O4 0.428867 0.880537 0.142000
O O5 0.203589 0.250000 0.330710
O O6 0.250000 0.167270 0.500000
O O7 0.241981 0.125153 0.253792
O O8 0.168701 0.125125 0.422391
O O9 0.619406 0.750000 0.805920
O O10 0.673633 0.867370 0.852632
O O11 0.617909 0.869097 0.645063
O O12 0.583130 0.875458 0.882123
O O13 0.773646 0.250000 0.854528
O O14 0.750000 0.131142 0.000000
O O15 0.129342 0.750000 0.497652
O O16 0.000000 0.389785 0.976111
O O17 0.061025 0.500000 0.000000
#
# Coordination Sequence:
#
# PCOD8279015 Si02
#       6
#    16  16  16  16  16  16
#     4   9  18  33  53  78 104 130 167 213 260 311
#     4   9  14  24  40  64 105 142 162 194 246 299
#     4  10  19  32  52  80 108 134 172 216 259 309
#     4   9  17  26  41  73 110 138 166 204 248 298
#     4   9  17  28  47  77 109 138 165 205 260 309
#     4  10  22  39  55  72 100 137 175 217 265 315
#
# _framework density 18.627372999999999
#
# number of rings (size 3 to 8) (size 9 to 14) (size 15 to 20)
#    0.000    2.667    1.667    0.500    2.333    1.667 
#    0.000    2.500    0.000    3.500    0.000    0.000 
#    0.000    0.000    0.000    0.000    0.000    0.000 
#
# Total GULP energy -595015.672490 kJ/mol
# GULP energy per Si atom -12396.159844 kJ/mol
# Density = 1.858498 g / cm^3
# Si number density = 18.627373 Si / 1000 Ang^3
#
#
#
# Elastic Constant Matrix: (Units=GPa)
#
#
# Indices 1 2 3 4 5 6 
#
# 1 125.2495 26.1730 89.8429 0.0000 0.0000 0.0000
# 2 26.1730 24.3311 29.3180 0.0000 0.0000 0.0000
# 3 89.8429 29.3180 170.4398 0.0000 0.0000 0.0000
# 4 0.0000 0.0000 0.0000 0.4568 0.0000 0.0000
# 5 0.0000 0.0000 0.0000 0.0000 42.7620 0.0000
# 6 0.0000 0.0000 0.0000 0.0000 0.0000 0.6046
#
#
#
# Elastic Compliance Matrix: (Units=1/GPa)
#
#
# Indices 1 2 3 4 5 6 
#
# 1 0.013902 -0.007725 -0.005999 0.000000 0.000000 0.000000
# 2 -0.007725 0.056139 -0.005584 0.000000 0.000000 0.000000
# 3 -0.005999 -0.005584 0.009990 0.000000 0.000000 0.000000
# 4 0.000000 0.000000 0.000000 2.188967 0.000000 0.000000
# 5 0.000000 0.000000 0.000000 0.000000 0.023385 0.000000
# 6 0.000000 0.000000 0.000000 0.000000 0.000000 1.654018
#
#
# Mechanical properties :
#
#
# Convention : Reuss Voigt Hill
#
# Bulk Modulus (GPa) = 24.14712 67.85425 46.00069
# Shear Modulus (GPa) = 1.25037 20.41046 10.83041
#
# Velocity S-wave (km/s) = 0.82019 3.31376 2.41389
# Velocity P-wave (km/s) = 3.72671 7.15176 5.70245
#
# Compressibility (1/GPa) = 0.04141280
#
# Stress axis : x y z
#
# Youngs Moduli (GPa) = 71.93445 17.81299 100.10044
#
# Poissons Ratio (x) = 0.13761 0.60050
# Poissons Ratio (y) = 0.55572 0.55900
# Poissons Ratio (z) = 0.43153 0.09947
#
# Static dielectric constant tensor:
#      x y z
#    x 3.876600 0.000000 0.000000 
#    y 0.000000 2.859640 0.000000 
#    z 0.000000 0.000000 3.675710 
# 
# 
# High freq. dielectric constant tensor:
#      x y z
#    x 1.735150 0.000000 0.000000 
#    y 0.000000 1.654140 0.000000 
#    z 0.000000 0.000000 1.737590 
# 
# From -- ./inp_files/13691.got.cif
#   From: 2010.03.12/outbox.cif.g09.slc.cpg/sg67_7_cif.got.tgz:13691.got - 2010.04.10 22:41:39.
