data_PCOD8279961
_publ_section_title
;
Structure prediction by ZEFSAII (Michael W. Deem and Ramdas Pophale) SiO2 
 PCOD8279961
Probable space group: C M M A
;
_chemical_formula_sum "Si O2"
_cell_formula_units_Z 72
_cell_length_a 8.677145
_cell_length_b 21.492508
_cell_length_c 19.039232
_cell_angle_alpha 90.000000
_cell_angle_beta 90.000000
_cell_angle_gamma 90.000000
_cell_volume 3550.695076
_symmetry_space_group_name_H-M "C M M A"
_symmetry_group_IT_number 67
_symmetry_cell_setting 'orthorhombic'
loop_
_space_group_symop_operation_xyz
x,y,z
-x,1/2-y,z
x,-y,-z
-x,1/2+y,-z
-x,-y,-z
x,1/2+y,-z
-x,y,z
x,1/2-y,z
1/2+x,1/2+y,z
1/2-x,-y,z
1/2+x,1/2-y,-z
1/2-x,y,-z
1/2-x,1/2-y,-z
1/2+x,y,-z
1/2-x,1/2+y,z
1/2+x,-y,z
loop_
_atom_site_type_symbol
_atom_site_label
_atom_site_fract_x
_atom_site_fract_y
_atom_site_fract_z
Si Si1 0.183645 0.564973 0.422513
Si Si2 0.818102 0.355931 0.178564
Si Si3 0.680825 0.250000 0.924286
Si Si4 0.181444 0.566763 0.068572
Si Si5 0.182657 0.678287 0.665891
O O1 0.250000 0.500000 0.389161
O O2 0.250000 0.571911 0.500000
O O3 0.233561 0.627324 0.381955
O O4 0.000000 0.560689 0.423901
O O5 0.760341 0.307825 0.120326
O O6 0.736699 0.416643 0.147829
O O7 0.760215 0.335447 0.255114
O O8 0.000000 0.364314 0.180822
O O9 0.500000 0.250000 0.930288
O O10 0.750000 0.250000 0.000000
O O11 0.250000 0.500000 0.057748
O O12 0.000000 0.569255 0.064410
O O13 0.250000 0.605330 0.000000
O O14 0.228055 0.750000 0.646030
O O15 0.000000 0.669886 0.658356
#
# Coordination Sequence:
#
# PCOD8279961 Si02
#       5
#    16  16   8  16  16
#     4  11  23  42  68  97 129 165 208 257 307 369
#     4  10  20  37  58  82 114 152 194 240 295 355
#     4  10  20  34  54  80 109 148 193 238 291 344
#     4  11  22  37  56  79 108 146 192 247 304 362
#     4  10  21  40  65  92 127 169 208 254 310 369
#
# _framework density 20.277721
#
# number of rings (size 3 to 8) (size 9 to 14) (size 15 to 20)
#    0.000    1.556    1.111    6.000    0.000    5.333 
#    0.000    0.000    0.000    0.000    0.000    0.000 
#    0.000    0.000    0.000    0.000    0.000    0.000 
#
# Total GULP energy -445991.793677 kJ/mol
# GULP energy per Si atom -12388.660935 kJ/mol
# Density = 2.023157 g / cm^3
# Si number density = 20.277721 Si / 1000 Ang^3
#
#
#
# Elastic Constant Matrix: (Units=GPa)
#
#
# Indices 1 2 3 4 5 6 
#
# 1 86.4247 51.5092 51.9196 0.0000 0.0000 0.0000
# 2 51.5092 129.9737 72.5969 0.0000 0.0000 0.0000
# 3 51.9196 72.5969 116.0322 0.0000 0.0000 0.0000
# 4 0.0000 0.0000 0.0000 39.5293 0.0000 0.0000
# 5 0.0000 0.0000 0.0000 0.0000 282.3732 0.0000
# 6 0.0000 0.0000 0.0000 0.0000 0.0000 -6.3911
#
#
#
# Elastic Compliance Matrix: (Units=1/GPa)
#
#
# Indices 1 2 3 4 5 6 
#
# 1 0.016974 -0.003819 -0.005206 0.000000 0.000000 0.000000
# 2 -0.003819 0.012686 -0.006228 0.000000 0.000000 0.000000
# 3 -0.005206 -0.006228 0.014844 0.000000 0.000000 0.000000
# 4 0.000000 0.000000 0.000000 0.025298 0.000000 0.000000
# 5 0.000000 0.000000 0.000000 0.000000 0.003541 0.000000
# 6 0.000000 0.000000 0.000000 0.000000 0.000000 -0.156469
#
#
# Mechanical properties :
#
#
# Convention : Reuss Voigt Hill
#
# Bulk Modulus (GPa) = 71.43686 76.05354 73.74520
# Shear Modulus (GPa) = -104.27236 73.52928 -15.37154
#
# Velocity S-wave (km/s) = -7.17870 6.02825 -2.75626
# Velocity P-wave (km/s) = 5.77979 9.27580 5.13004
#
# Compressibility (1/GPa) = 0.01399837
#
# Stress axis : x y z
#
# Youngs Moduli (GPa) = 58.91205 78.82482 67.36516
#
# Poissons Ratio (x) = 0.30106 0.35068
# Poissons Ratio (y) = 0.22501 0.41957
# Poissons Ratio (z) = 0.30668 0.49095
#
# Static dielectric constant tensor:
#      x y z
#    x 4.129380 0.000000 0.000000 
#    y 0.000000 4.033600 0.000000 
#    z 0.000000 0.000000 3.829540 
# 
# 
# High freq. dielectric constant tensor:
#      x y z
#    x 1.785360 0.000000 0.000000 
#    y 0.000000 1.802260 0.000000 
#    z 0.000000 0.000000 1.795640 
# 
# From -- ./inp_files/31977.got.cif
#   From: 2010.03.12/outbox.cif.g09.slc.cpg/sg67_16_cif.got.tgz:31977.got - 2010.04.10 22:41:39.
