data_PCOD8279519
_publ_section_title
;
Structure prediction by ZEFSAII (Michael W. Deem and Ramdas Pophale) SiO2 
 PCOD8279519
Probable space group: C M M A
;
_chemical_formula_sum "Si O2"
_cell_formula_units_Z 80
_cell_length_a 32.998775
_cell_length_b 24.953938
_cell_length_c 5.135672
_cell_angle_alpha 90.000000
_cell_angle_beta 90.000000
_cell_angle_gamma 90.000000
_cell_volume 4228.965952
_symmetry_space_group_name_H-M "C M M A"
_symmetry_group_IT_number 67
_symmetry_cell_setting 'orthorhombic'
loop_
_space_group_symop_operation_xyz
x,y,z
-x,1/2-y,z
x,-y,-z
-x,1/2+y,-z
-x,-y,-z
x,1/2+y,-z
-x,y,z
x,1/2-y,z
1/2+x,1/2+y,z
1/2-x,-y,z
1/2+x,1/2-y,-z
1/2-x,y,-z
1/2-x,1/2-y,-z
1/2+x,y,-z
1/2-x,1/2+y,z
1/2+x,-y,z
loop_
_atom_site_type_symbol
_atom_site_label
_atom_site_fract_x
_atom_site_fract_y
_atom_site_fract_z
Si Si1 0.655325 0.436439 0.011539
Si Si2 0.954403 0.975213 0.751138
Si Si3 0.075296 0.368447 0.094015
Si Si4 0.047113 0.811132 0.426322
Si Si5 0.294773 0.562973 0.485524
O O1 0.617160 0.398513 0.957887
O O2 0.687024 0.420382 0.789798
O O3 0.644658 0.500000 0.000000
O O4 0.675347 0.418433 0.283382
O O5 0.954777 0.911436 0.770132
O O6 0.000000 0.998072 0.743476
O O7 0.931151 0.000000 0.500000
O O8 0.931325 0.000000 0.000000
O O9 0.075366 0.323187 0.319753
O O10 0.058397 0.347426 0.821156
O O11 0.055569 0.750000 0.346032
O O12 0.000000 0.819767 0.498689
O O13 0.289611 0.500000 0.500000
O O14 0.250000 0.589647 0.500000
#
# Coordination Sequence:
#
# PCOD8279519 Si02
#       5
#    16  16  16  16  16
#     4  10  20  32  50  80 114 145 175 210 257 314
#     4  10  20  32  47  70 101 139 177 205 241 307
#     4  12  22  36  56  78 108 138 174 224 280 320
#     4  11  24  41  59  77  99 135 186 238 283 324
#     4   9  17  31  50  73 108 151 184 208 241 297
#
# _framework density 18.917155000000001
#
# number of rings (size 3 to 8) (size 9 to 14) (size 15 to 20)
#    0.000    1.600    0.000    6.000    0.000    8.000 
#    0.000    0.000    0.000    0.000    0.000    0.000 
#    0.000   56.000    0.000    0.000    0.000    0.000 
#
# Total GULP energy -495720.990362 kJ/mol
# GULP energy per Si atom -12393.024759 kJ/mol
# Density = 1.887410 g / cm^3
# Si number density = 18.917155 Si / 1000 Ang^3
#
#
#
# Elastic Constant Matrix: (Units=GPa)
#
#
# Indices 1 2 3 4 5 6 
#
# 1 94.0330 38.6537 37.3876 0.0000 0.0000 0.0000
# 2 38.6537 69.2119 30.5777 0.0000 0.0000 0.0000
# 3 37.3876 30.5777 139.6748 0.0000 0.0000 0.0000
# 4 0.0000 0.0000 0.0000 31.2513 0.0000 0.0000
# 5 0.0000 0.0000 0.0000 0.0000 52.5370 0.0000
# 6 0.0000 0.0000 0.0000 0.0000 0.0000 8.0914
#
#
#
# Elastic Compliance Matrix: (Units=1/GPa)
#
#
# Indices 1 2 3 4 5 6 
#
# 1 0.014456 -0.007045 -0.002327 0.000000 0.000000 0.000000
# 2 -0.007045 0.019429 -0.002368 0.000000 0.000000 0.000000
# 3 -0.002327 -0.002368 0.008301 0.000000 0.000000 0.000000
# 4 0.000000 0.000000 0.000000 0.031999 0.000000 0.000000
# 5 0.000000 0.000000 0.000000 0.000000 0.019034 0.000000
# 6 0.000000 0.000000 0.000000 0.000000 0.000000 0.123588
#
#
# Mechanical properties :
#
#
# Convention : Reuss Voigt Hill
#
# Bulk Modulus (GPa) = 53.45962 57.35087 55.40524
# Shear Modulus (GPa) = 20.28217 31.46264 25.87241
#
# Velocity S-wave (km/s) = 3.27793 4.08264 3.70221
# Velocity P-wave (km/s) = 6.53052 7.25304 6.90124
#
# Compressibility (1/GPa) = 0.01870571
#
# Stress axis : x y z
#
# Youngs Moduli (GPa) = 69.17594 51.46935 120.47144
#
# Poissons Ratio (x) = 0.36261 0.28035
# Poissons Ratio (y) = 0.48736 0.28523
# Poissons Ratio (z) = 0.16098 0.12186
#
# Static dielectric constant tensor:
#      x y z
#    x 3.447990 0.000000 0.000000 
#    y 0.000000 3.123500 0.000000 
#    z 0.000000 0.000000 11.478120 
# 
# 
# High freq. dielectric constant tensor:
#      x y z
#    x 1.723770 0.000000 0.000000 
#    y 0.000000 1.693430 0.000000 
#    z 0.000000 0.000000 1.764240 
# 
# From -- ./inp_files/4716.got.cif
#   From: 2010.03.12/outbox.cif.g09.slc.cpg/sg67_3_cif.got.tgz:4716.got - 2010.04.10 22:41:39.
