data_PCOD8279663
_publ_section_title
;
Structure prediction by ZEFSAII (Michael W. Deem and Ramdas Pophale) SiO2 
 PCOD8279663
Probable space group: C M M A
;
_chemical_formula_sum "Si O2"
_cell_formula_units_Z 96
_cell_length_a 9.072609
_cell_length_b 27.420580
_cell_length_c 20.705390
_cell_angle_alpha 90.000000
_cell_angle_beta 90.000000
_cell_angle_gamma 90.000000
_cell_volume 5151.008262
_symmetry_space_group_name_H-M "C M M A"
_symmetry_group_IT_number 67
_symmetry_cell_setting 'orthorhombic'
loop_
_space_group_symop_operation_xyz
x,y,z
-x,1/2-y,z
x,-y,-z
-x,1/2+y,-z
-x,-y,-z
x,1/2+y,-z
-x,y,z
x,1/2-y,z
1/2+x,1/2+y,z
1/2-x,-y,z
1/2+x,1/2-y,-z
1/2-x,y,-z
1/2-x,1/2-y,-z
1/2+x,y,-z
1/2-x,1/2+y,z
1/2+x,-y,z
loop_
_atom_site_type_symbol
_atom_site_label
_atom_site_fract_x
_atom_site_fract_y
_atom_site_fract_z
Si Si1 0.663850 0.306650 0.687354
Si Si2 0.664084 0.949607 0.055073
Si Si3 0.827845 0.193921 0.934304
Si Si4 0.333536 0.808183 0.563453
Si Si5 0.168338 0.051459 0.199603
Si Si6 0.675063 0.353144 0.200357
O O1 0.500000 0.330266 0.693901
O O2 0.645793 0.250000 0.674153
O O3 0.749300 0.329691 0.626070
O O4 0.758196 0.312672 0.752456
O O5 0.500000 0.957636 0.029643
O O6 0.666206 0.928308 0.126279
O O7 0.750000 0.000000 0.060285
O O8 0.750000 0.917439 0.000000
O O9 0.785069 0.250000 0.919019
O O10 0.778528 0.160712 0.873196
O O11 0.000000 0.188426 0.946613
O O12 0.750000 0.175833 0.000000
O O13 0.500000 0.828645 0.563236
O O14 0.335881 0.750000 0.564590
O O15 0.250000 0.827561 0.500000
O O16 0.260649 0.095795 0.229853
O O17 0.000000 0.046885 0.225507
O O18 0.250000 0.000000 0.210246
O O19 0.500000 0.354433 0.206196
#
# Coordination Sequence:
#
# PCOD8279663 Si02
#       6
#    16  16  16  16  16  16
#     4  10  20  33  50  74 104 137 172 209 248 292
#     4   9  16  26  42  61  81 105 135 175 225 283
#     4   9  19  35  53  72  95 125 163 207 254 304
#     4   9  16  27  45  70 102 139 174 205 239 284
#     4  10  21  36  51  68  91 120 156 199 249 303
#     4  11  22  35  52  73  98 129 166 209 257 307
#
# _framework density 18.637128000000001
#
# number of rings (size 3 to 8) (size 9 to 14) (size 15 to 20)
#    0.000    2.333    0.000    3.500    0.000    7.667 
#    0.000    5.000    0.000    0.000    0.000    0.000 
#    0.000    0.667    0.000    6.667    0.000    4.333 
#
# Total GULP energy -594693.645576 kJ/mol
# GULP energy per Si atom -12389.450950 kJ/mol
# Density = 1.859471 g / cm^3
# Si number density = 18.637128 Si / 1000 Ang^3
#
#
#
# Elastic Constant Matrix: (Units=GPa)
#
#
# Indices 1 2 3 4 5 6 
#
# 1 143.7956 31.2936 50.0106 0.0000 0.0000 0.0000
# 2 31.2936 55.0955 10.1355 0.0000 0.0000 0.0000
# 3 50.0106 10.1355 101.4167 0.0000 0.0000 0.0000
# 4 0.0000 0.0000 0.0000 3.0399 0.0000 0.0000
# 5 0.0000 0.0000 0.0000 0.0000 31.6166 0.0000
# 6 0.0000 0.0000 0.0000 0.0000 0.0000 19.1029
#
#
#
# Elastic Compliance Matrix: (Units=1/GPa)
#
#
# Indices 1 2 3 4 5 6 
#
# 1 0.009403 -0.004572 -0.004180 0.000000 0.000000 0.000000
# 2 -0.004572 0.020713 0.000184 0.000000 0.000000 0.000000
# 3 -0.004180 0.000184 0.011903 0.000000 0.000000 0.000000
# 4 0.000000 0.000000 0.000000 0.328961 0.000000 0.000000
# 5 0.000000 0.000000 0.000000 0.000000 0.031629 0.000000
# 6 0.000000 0.000000 0.000000 0.000000 0.000000 0.052348
#
#
# Mechanical properties :
#
#
# Convention : Reuss Voigt Hill
#
# Bulk Modulus (GPa) = 40.18557 53.68746 46.93651
# Shear Modulus (GPa) = 10.40828 24.67642 17.54235
#
# Velocity S-wave (km/s) = 2.36576 3.64269 3.07132
# Velocity P-wave (km/s) = 5.39179 6.82360 6.14951
#
# Compressibility (1/GPa) = 0.02488455
#
# Stress axis : x y z
#
# Youngs Moduli (GPa) = 106.34911 48.27850 84.01200
#
# Poissons Ratio (x) = 0.22072 0.35116
# Poissons Ratio (y) = 0.48621 -0.01549
# Poissons Ratio (z) = 0.44453 -0.00890
#
# Static dielectric constant tensor:
#      x y z
#    x 3.669860 0.000000 0.000000 
#    y 0.000000 3.038960 0.000000 
#    z 0.000000 0.000000 3.699450 
# 
# 
# High freq. dielectric constant tensor:
#      x y z
#    x 1.742840 0.000000 0.000000 
#    y 0.000000 1.682020 0.000000 
#    z 0.000000 0.000000 1.701440 
# 
# From -- ./inp_files/37220.got.cif
#   From: 2010.03.12/outbox.cif.g09.slc.cpg/sg67_19_cif.got.tgz:37220.got - 2010.04.10 22:41:39.
