data_PCOD8279647
_publ_section_title
;
Structure prediction by ZEFSAII (Michael W. Deem and Ramdas Pophale) SiO2 
 PCOD8279647
Probable space group: C M M A
;
_chemical_formula_sum "Si O2"
_cell_formula_units_Z 88
_cell_length_a 15.788394
_cell_length_b 9.115616
_cell_length_c 30.148497
_cell_angle_alpha 90.000000
_cell_angle_beta 90.000000
_cell_angle_gamma 90.000000
_cell_volume 4338.999936
_symmetry_space_group_name_H-M "C M M A"
_symmetry_group_IT_number 67
_symmetry_cell_setting 'orthorhombic'
loop_
_space_group_symop_operation_xyz
x,y,z
-x,1/2-y,z
x,-y,-z
-x,1/2+y,-z
-x,-y,-z
x,1/2+y,-z
-x,y,z
x,1/2-y,z
1/2+x,1/2+y,z
1/2-x,-y,z
1/2+x,1/2-y,-z
1/2-x,y,-z
1/2-x,1/2-y,-z
1/2+x,y,-z
1/2-x,1/2+y,z
1/2+x,-y,z
loop_
_atom_site_type_symbol
_atom_site_label
_atom_site_fract_x
_atom_site_fract_y
_atom_site_fract_z
Si Si1 0.339206 0.579244 0.361869
Si Si2 0.500000 0.076179 0.952980
Si Si3 0.097195 0.410719 0.719102
Si Si4 0.840052 0.579141 0.540685
Si Si5 0.664199 0.076830 0.897954
Si Si6 0.599599 0.918917 0.196871
O O1 0.326364 0.750000 0.351755
O O2 0.250000 0.500000 0.359122
O O3 0.398444 0.508236 0.325047
O O4 0.382397 0.558076 0.410734
O O5 0.500000 0.250000 0.958739
O O6 0.584215 0.024497 0.927043
O O7 0.500000 0.000000 0.000000
O O8 0.139642 0.250000 0.712212
O O9 0.138465 0.490461 0.761669
O O10 0.000000 0.390218 0.730485
O O11 0.891563 0.500000 0.500000
O O12 0.829545 0.750000 0.529480
O O13 0.750000 0.500000 0.543141
O O14 0.675875 0.250000 0.901868
O O15 0.647365 0.028630 0.847295
O O16 0.750000 0.000000 0.915246
O O17 0.500000 0.944974 0.189753
O O18 0.617885 0.750000 0.207133
#
# Coordination Sequence:
#
# PCOD8279647 Si02
#       6
#    16   8  16  16  16  16
#     4  10  20  33  50  73 101 134 172 217 267 323
#     4  10  22  42  64  88 122 162 202 244 293 348
#     4  10  21  35  52  77 108 142 180 223 269 323
#     4   9  16  26  43  67  93 123 162 208 261 319
#     4  10  21  38  61  89 120 155 198 245 293 348
#     4   9  17  34  58  78 103 145 189 229 277 335
#
# _framework density 20.281172000000002
#
# number of rings (size 3 to 8) (size 9 to 14) (size 15 to 20)
#    0.000    2.364    0.909    2.182    0.000    5.818 
#    0.000    3.636    0.000    0.545    0.000    0.000 
#    0.000    0.000    0.000    0.000    0.000    0.000 
#
# Total GULP energy -545312.684307 kJ/mol
# GULP energy per Si atom -12393.470098 kJ/mol
# Density = 2.023501 g / cm^3
# Si number density = 20.281172 Si / 1000 Ang^3
#
#
#
# Elastic Constant Matrix: (Units=GPa)
#
#
# Indices 1 2 3 4 5 6 
#
# 1 68.8833 34.3487 49.7607 0.0000 0.0000 0.0000
# 2 34.3487 121.2474 76.8019 0.0000 0.0000 0.0000
# 3 49.7607 76.8019 170.4638 0.0000 0.0000 0.0000
# 4 0.0000 0.0000 0.0000 33.2576 0.0000 0.0000
# 5 0.0000 0.0000 0.0000 0.0000 69.6110 0.0000
# 6 0.0000 0.0000 0.0000 0.0000 0.0000 25.1695
#
#
#
# Elastic Compliance Matrix: (Units=1/GPa)
#
#
# Indices 1 2 3 4 5 6 
#
# 1 0.018970 -0.002612 -0.004361 0.000000 0.000000 0.000000
# 2 -0.002612 0.011901 -0.004600 0.000000 0.000000 0.000000
# 3 -0.004361 -0.004600 0.009212 0.000000 0.000000 0.000000
# 4 0.000000 0.000000 0.000000 0.030068 0.000000 0.000000
# 5 0.000000 0.000000 0.000000 0.000000 0.014366 0.000000
# 6 0.000000 0.000000 0.000000 0.000000 0.000000 0.039731
#
#
# Mechanical properties :
#
#
# Convention : Reuss Voigt Hill
#
# Bulk Modulus (GPa) = 59.03806 75.82413 67.43110
# Shear Modulus (GPa) = 32.67174 38.91983 35.79579
#
# Velocity S-wave (km/s) = 4.01801 4.38541 4.20572
# Velocity P-wave (km/s) = 7.12031 7.94418 7.54350
#
# Compressibility (1/GPa) = 0.01693822
#
# Stress axis : x y z
#
# Youngs Moduli (GPa) = 52.71505 84.02661 108.55817
#
# Poissons Ratio (x) = 0.21946 0.47341
# Poissons Ratio (y) = 0.13768 0.49932
# Poissons Ratio (z) = 0.22988 0.38648
#
# Static dielectric constant tensor:
#      x y z
#    x 3.288160 0.000000 0.000000 
#    y 0.000000 3.843140 0.000000 
#    z 0.000000 0.000000 4.179250 
# 
# 
# High freq. dielectric constant tensor:
#      x y z
#    x 1.755310 0.000000 0.000000 
#    y 0.000000 1.795390 0.000000 
#    z 0.000000 0.000000 1.807570 
# 
# From -- ./inp_files/45764.got.cif
#   From: 2010.03.12/outbox.cif.g09.slc.cpg/sg67_23_cif.got.tgz:45764.got - 2010.04.10 22:41:39.
