data_PCOD8279420
_publ_section_title
;
Structure prediction by ZEFSAII (Michael W. Deem and Ramdas Pophale) SiO2 
 PCOD8279420
Probable space group: C M M A
;
_chemical_formula_sum "Si O2"
_cell_formula_units_Z 96
_cell_length_a 18.615094
_cell_length_b 30.102103
_cell_length_c 9.146020
_cell_angle_alpha 90.000000
_cell_angle_beta 90.000000
_cell_angle_gamma 90.000000
_cell_volume 5125.004107
_symmetry_space_group_name_H-M "C M M A"
_symmetry_group_IT_number 67
_symmetry_cell_setting 'orthorhombic'
loop_
_space_group_symop_operation_xyz
x,y,z
-x,1/2-y,z
x,-y,-z
-x,1/2+y,-z
-x,-y,-z
x,1/2+y,-z
-x,y,z
x,1/2-y,z
1/2+x,1/2+y,z
1/2-x,-y,z
1/2+x,1/2-y,-z
1/2-x,y,-z
1/2-x,1/2-y,-z
1/2+x,y,-z
1/2-x,1/2+y,z
1/2+x,-y,z
loop_
_atom_site_type_symbol
_atom_site_label
_atom_site_fract_x
_atom_site_fract_y
_atom_site_fract_z
Si Si1 0.180120 0.697927 0.401848
Si Si2 0.666111 0.008912 0.835622
Si Si3 0.417157 0.566131 0.680783
Si Si4 0.916398 0.133073 0.436461
Si Si5 0.327788 0.867121 0.845825
Si Si6 0.172476 0.890767 0.828944
O O1 0.167223 0.750000 0.396780
O O2 0.250000 0.685714 0.500000
O O3 0.109791 0.674421 0.466791
O O4 0.185035 0.680347 0.233883
O O5 0.642162 0.059661 0.816492
O O6 0.750000 0.000000 0.817482
O O7 0.625983 0.978921 0.714610
O O8 0.640204 0.000000 0.000000
O O9 0.500000 0.554772 0.702142
O O10 0.401827 0.585757 0.518172
O O11 0.396528 0.605623 0.791328
O O12 0.870461 0.137256 0.289567
O O13 0.000000 0.139288 0.401796
O O14 0.257599 0.895829 0.801840
O O15 0.337604 0.863526 0.019829
#
# Coordination Sequence:
#
# PCOD8279420 Si02
#       6
#    16  16  16  16  16  16
#     4  10  20  38  66  92 113 147 194 241 293 359
#     4  11  19  35  55  82 115 155 204 247 287 339
#     4  10  21  36  54  81 116 155 201 245 282 340
#     4  10  23  40  58  85 121 157 192 239 302 357
#     4  10  19  37  58  85 118 148 194 241 290 350
#     4  11  20  35  59  83 117 156 196 242 292 345
#
# _framework density 18.731693
#
# number of rings (size 3 to 8) (size 9 to 14) (size 15 to 20)
#    0.000    1.667    5.000    1.000    0.000    2.667 
#    0.000    5.000    0.000    0.000    0.000    0.000 
#    0.000    0.000    0.000    0.000    0.000    0.000 
#
# Total GULP energy -594897.822832 kJ/mol
# GULP energy per Si atom -12393.704642 kJ/mol
# Density = 1.868906 g / cm^3
# Si number density = 18.731693 Si / 1000 Ang^3
#
#
#
# Elastic Constant Matrix: (Units=GPa)
#
#
# Indices 1 2 3 4 5 6 
#
# 1 76.8690 23.9479 52.3973 0.0000 0.0000 0.0000
# 2 23.9479 104.0766 52.1028 0.0000 0.0000 0.0000
# 3 52.3973 52.1028 117.1942 0.0000 0.0000 0.0000
# 4 0.0000 0.0000 0.0000 25.9794 0.0000 0.0000
# 5 0.0000 0.0000 0.0000 0.0000 18.2399 0.0000
# 6 0.0000 0.0000 0.0000 0.0000 0.0000 22.8967
#
#
#
# Elastic Compliance Matrix: (Units=1/GPa)
#
#
# Indices 1 2 3 4 5 6 
#
# 1 0.018714 -0.000151 -0.008300 0.000000 0.000000 0.000000
# 2 -0.000151 0.012360 -0.005428 0.000000 0.000000 0.000000
# 3 -0.008300 -0.005428 0.014657 0.000000 0.000000 0.000000
# 4 0.000000 0.000000 0.000000 0.038492 0.000000 0.000000
# 5 0.000000 0.000000 0.000000 0.000000 0.054825 0.000000
# 6 0.000000 0.000000 0.000000 0.000000 0.000000 0.043674
#
#
# Mechanical properties :
#
#
# Convention : Reuss Voigt Hill
#
# Bulk Modulus (GPa) = 55.63644 61.67065 58.65354
# Shear Modulus (GPa) = 23.09789 24.73597 23.91693
#
# Velocity S-wave (km/s) = 3.51535 3.63787 3.57713
# Velocity P-wave (km/s) = 6.80023 7.11618 6.96000
#
# Compressibility (1/GPa) = 0.01797383
#
# Stress axis : x y z
#
# Youngs Moduli (GPa) = 53.43704 80.90447 68.22824
#
# Poissons Ratio (x) = 0.01222 0.56627
# Poissons Ratio (y) = 0.00807 0.37032
# Poissons Ratio (z) = 0.44351 0.43912
#
# Static dielectric constant tensor:
#      x y z
#    x 3.378330 0.000000 0.000000 
#    y 0.000000 3.253300 0.000000 
#    z 0.000000 0.000000 3.522800 
# 
# 
# High freq. dielectric constant tensor:
#      x y z
#    x 1.722120 0.000000 0.000000 
#    y 0.000000 1.710690 0.000000 
#    z 0.000000 0.000000 1.728590 
# 
# From -- ./inp_files/11509.got.cif
#   From: 2010.03.12/outbox.cif.g09.slc.cpg/sg67_6_cif.got.tgz:11509.got - 2010.04.10 22:41:39.
