data_PCOD8279365
_publ_section_title
;
Structure prediction by ZEFSAII (Michael W. Deem and Ramdas Pophale) SiO2 
 PCOD8279365
Probable space group: C M M A
;
_chemical_formula_sum "Si O2"
_cell_formula_units_Z 104
_cell_length_a 29.509916
_cell_length_b 14.658171
_cell_length_c 11.634380
_cell_angle_alpha 90.000000
_cell_angle_beta 90.000000
_cell_angle_gamma 90.000000
_cell_volume 5032.583642
_symmetry_space_group_name_H-M "C M M A"
_symmetry_group_IT_number 67
_symmetry_cell_setting 'orthorhombic'
loop_
_space_group_symop_operation_xyz
x,y,z
-x,1/2-y,z
x,-y,-z
-x,1/2+y,-z
-x,-y,-z
x,1/2+y,-z
-x,y,z
x,1/2-y,z
1/2+x,1/2+y,z
1/2-x,-y,z
1/2+x,1/2-y,-z
1/2-x,y,-z
1/2-x,1/2-y,-z
1/2+x,y,-z
1/2-x,1/2+y,z
1/2+x,-y,z
loop_
_atom_site_type_symbol
_atom_site_label
_atom_site_fract_x
_atom_site_fract_y
_atom_site_fract_z
Si Si1 0.948403 0.994544 0.249432
Si Si2 0.158423 0.854770 0.005918
Si Si3 0.416263 0.000000 0.000000
Si Si4 0.385294 0.644282 0.619968
Si Si5 0.799454 0.357048 0.760491
Si Si6 0.611924 0.857513 0.353420
Si Si7 0.299122 0.854193 0.233492
O O1 0.920652 0.912302 0.305869
O O2 0.000000 0.987041 0.290980
O O3 0.947143 0.985548 0.111767
O O4 0.929227 0.091817 0.291003
O O5 0.143621 0.750000 0.024404
O O6 0.113679 0.910681 0.976076
O O7 0.194256 0.863687 0.903002
O O8 0.180621 0.897772 0.120781
O O9 0.395897 0.750000 0.643396
O O10 0.333737 0.620917 0.657146
O O11 0.389975 0.618987 0.487333
O O12 0.792693 0.250000 0.780577
O O13 0.749579 0.399630 0.734786
O O14 0.606961 0.750000 0.327942
O O15 0.659116 0.899183 0.303160
O O16 0.298703 0.750000 0.273796
#
# Coordination Sequence:
#
# PCOD8279365 Si02
#       7
#    16  16   8  16  16  16  16
#     4  12  26  44  65  89 117 151 197 255 311 362
#     4  10  19  35  59  86 121 161 199 243 293 350
#     4  12  23  40  65  88 114 154 197 242 311 370
#     4  10  22  41  64  90 122 161 202 243 292 351
#     4   9  17  32  58  90 123 160 199 240 289 347
#     4  10  22  41  64  90 122 161 202 243 292 351
#     4   9  17  32  58  90 123 160 199 240 289 347
#
# _framework density 20.665329
#
# number of rings (size 3 to 8) (size 9 to 14) (size 15 to 20)
#    0.000    1.846    3.077    1.154    0.000    4.308 
#    0.000    8.462    0.000    4.615    0.000    0.000 
#    0.000    0.000    0.000    0.000    0.000    0.000 
#
# Total GULP energy -644788.330136 kJ/mol
# GULP energy per Si atom -12399.775580 kJ/mol
# Density = 2.061829 g / cm^3
# Si number density = 20.665329 Si / 1000 Ang^3
#
#
#
# Elastic Constant Matrix: (Units=GPa)
#
#
# Indices 1 2 3 4 5 6 
#
# 1 134.1354 30.3068 39.3318 0.0000 0.0000 0.0000
# 2 30.3068 68.9504 23.8909 0.0000 0.0000 0.0000
# 3 39.3318 23.8909 120.7488 0.0000 0.0000 0.0000
# 4 0.0000 0.0000 0.0000 22.1179 0.0000 0.0000
# 5 0.0000 0.0000 0.0000 0.0000 17.5690 0.0000
# 6 0.0000 0.0000 0.0000 0.0000 0.0000 5.9778
#
#
#
# Elastic Compliance Matrix: (Units=1/GPa)
#
#
# Indices 1 2 3 4 5 6 
#
# 1 0.008816 -0.003092 -0.002260 0.000000 0.000000 0.000000
# 2 -0.003092 0.016655 -0.002288 0.000000 0.000000 0.000000
# 3 -0.002260 -0.002288 0.009471 0.000000 0.000000 0.000000
# 4 0.000000 0.000000 0.000000 0.045212 0.000000 0.000000
# 5 0.000000 0.000000 0.000000 0.000000 0.056918 0.000000
# 6 0.000000 0.000000 0.000000 0.000000 0.000000 0.167287
#
#
# Mechanical properties :
#
#
# Convention : Reuss Voigt Hill
#
# Bulk Modulus (GPa) = 50.86055 56.76595 53.81325
# Shear Modulus (GPa) = 15.32829 24.48661 19.90745
#
# Velocity S-wave (km/s) = 2.72644 3.44599 3.10712
# Velocity P-wave (km/s) = 5.88016 6.58498 6.24253
#
# Compressibility (1/GPa) = 0.01966160
#
# Stress axis : x y z
#
# Youngs Moduli (GPa) = 113.42374 60.04155 105.59067
#
# Poissons Ratio (x) = 0.18566 0.23864
# Poissons Ratio (y) = 0.35072 0.24160
# Poissons Ratio (z) = 0.25634 0.13738
#
# Static dielectric constant tensor:
#      x y z
#    x 3.723660 0.000000 0.000000 
#    y 0.000000 3.624590 0.000000 
#    z 0.000000 0.000000 3.795810 
# 
# 
# High freq. dielectric constant tensor:
#      x y z
#    x 1.797720 0.000000 0.000000 
#    y 0.000000 1.801520 0.000000 
#    z 0.000000 0.000000 1.813000 
# 
# From -- ./inp_files/23806.got.cif
#   From: 2010.03.12/outbox.cif.g09.slc.cpg/sg67_12_cif.got.tgz:23806.got - 2010.04.10 22:41:39.
