data_PCOD8279201
_publ_section_title
;
Structure prediction by ZEFSAII (Michael W. Deem and Ramdas Pophale) SiO2 
 PCOD8279201
Probable space group: C M M A
;
_chemical_formula_sum "Si O2"
_cell_formula_units_Z 112
_cell_length_a 18.404035
_cell_length_b 16.821349
_cell_length_c 19.508258
_cell_angle_alpha 90.000000
_cell_angle_beta 90.000000
_cell_angle_gamma 90.000000
_cell_volume 6039.380084
_symmetry_space_group_name_H-M "C M M A"
_symmetry_group_IT_number 67
_symmetry_cell_setting 'orthorhombic'
loop_
_space_group_symop_operation_xyz
x,y,z
-x,1/2-y,z
x,-y,-z
-x,1/2+y,-z
-x,-y,-z
x,1/2+y,-z
-x,y,z
x,1/2-y,z
1/2+x,1/2+y,z
1/2-x,-y,z
1/2+x,1/2-y,-z
1/2-x,y,-z
1/2-x,1/2-y,-z
1/2+x,y,-z
1/2-x,1/2+y,z
1/2+x,-y,z
loop_
_atom_site_type_symbol
_atom_site_label
_atom_site_fract_x
_atom_site_fract_y
_atom_site_fract_z
Si Si1 0.418556 0.839133 0.884984
Si Si2 0.920305 0.914293 0.972670
Si Si3 0.796998 0.922421 0.180415
Si Si4 0.194442 0.931028 0.340839
Si Si5 0.287653 0.340356 0.929558
Si Si6 0.915146 0.470997 0.422508
Si Si7 0.208089 0.657940 0.567769
O O1 0.500000 0.844917 0.857166
O O2 0.387410 0.750000 0.869044
O O3 0.415743 0.850058 0.966477
O O4 0.378323 0.914216 0.849048
O O5 0.000000 0.914754 0.938530
O O6 0.861722 0.889283 0.916052
O O7 0.899495 0.000000 0.000000
O O8 0.806670 0.911946 0.260813
O O9 0.758831 0.850081 0.139606
O O10 0.750000 0.000000 0.161311
O O11 0.229439 0.852424 0.374378
O O12 0.250000 0.000000 0.360033
O O13 0.116535 0.959452 0.371860
O O14 0.308031 0.250000 0.939895
O O15 0.250000 0.372690 0.000000
O O16 0.910781 0.500000 0.500000
O O17 0.866072 0.391191 0.416726
O O18 0.000000 0.454200 0.402357
O O19 0.185139 0.750000 0.563139
O O20 0.250000 0.627913 0.500000
#
# Coordination Sequence:
#
# PCOD8279201 Si02
#       7
#    16  16  16  16  16  16  16
#     4  10  20  35  55  77 106 146 184 223 285 355
#     4  10  20  34  54  80 106 138 185 243 295 345
#     4  11  22  36  55  82 112 145 184 237 289 334
#     4   9  20  36  56  82 112 149 192 231 276 342
#     4  11  22  34  53  80 108 144 188 236 287 347
#     4  10  19  34  59  86 116 152 189 234 282 334
#     4  10  19  33  56  84 114 152 192 231 275 332
#
# _framework density 18.54495
#
# number of rings (size 3 to 8) (size 9 to 14) (size 15 to 20)
#    0.000    1.857    2.857    1.714    0.000    2.857 
#    0.000    0.000    0.000    3.857    0.000    6.000 
#    0.000    0.000    0.000    0.000    0.000    0.000 
#
# Total GULP energy -693741.813227 kJ/mol
# GULP energy per Si atom -12388.246665 kJ/mol
# Density = 1.850274 g / cm^3
# Si number density = 18.544950 Si / 1000 Ang^3
#
#
#
# Elastic Constant Matrix: (Units=GPa)
#
#
# Indices 1 2 3 4 5 6 
#
# 1 129.6658 55.8784 37.4979 0.0000 0.0000 0.0000
# 2 55.8784 66.5241 23.2024 0.0000 0.0000 0.0000
# 3 37.4979 23.2024 82.4727 0.0000 0.0000 0.0000
# 4 0.0000 0.0000 0.0000 17.3821 0.0000 0.0000
# 5 0.0000 0.0000 0.0000 0.0000 16.2329 0.0000
# 6 0.0000 0.0000 0.0000 0.0000 0.0000 31.5607
#
#
#
# Elastic Compliance Matrix: (Units=1/GPa)
#
#
# Indices 1 2 3 4 5 6 
#
# 1 0.012760 -0.009641 -0.003089 0.000000 0.000000 0.000000
# 2 -0.009641 0.023951 -0.002355 0.000000 0.000000 0.000000
# 3 -0.003089 -0.002355 0.014192 0.000000 0.000000 0.000000
# 4 0.000000 0.000000 0.000000 0.057531 0.000000 0.000000
# 5 0.000000 0.000000 0.000000 0.000000 0.061603 0.000000
# 6 0.000000 0.000000 0.000000 0.000000 0.000000 0.031685
#
#
# Mechanical properties :
#
#
# Convention : Reuss Voigt Hill
#
# Bulk Modulus (GPa) = 48.23040 56.86889 52.54964
# Shear Modulus (GPa) = 20.93768 23.84074 22.38921
#
# Velocity S-wave (km/s) = 3.36374 3.58937 3.47838
# Velocity P-wave (km/s) = 6.41483 6.92171 6.67309
#
# Compressibility (1/GPa) = 0.02073381
#
# Stress axis : x y z
#
# Youngs Moduli (GPa) = 78.36937 41.75129 70.46006
#
# Poissons Ratio (x) = 0.40251 0.21768
# Poissons Ratio (y) = 0.75553 0.16594
# Poissons Ratio (z) = 0.24212 0.09833
#
# Static dielectric constant tensor:
#      x y z
#    x 3.729130 0.000000 0.000000 
#    y 0.000000 3.332110 0.000000 
#    z 0.000000 0.000000 3.212930 
# 
# 
# High freq. dielectric constant tensor:
#      x y z
#    x 1.729910 0.000000 0.000000 
#    y 0.000000 1.716010 0.000000 
#    z 0.000000 0.000000 1.692850 
# 
# From -- ./inp_files/39063.got.cif
#   From: 2010.03.12/outbox.cif.g09.slc.cpg/sg67_20_cif.got.tgz:39063.got - 2010.04.10 22:41:39.
