data_PCOD8279622
_publ_section_title
;
Structure prediction by ZEFSAII (Michael W. Deem and Ramdas Pophale) SiO2 
 PCOD8279622
Probable space group: C M M A
;
_chemical_formula_sum "Si O2"
_cell_formula_units_Z 112
_cell_length_a 18.383989
_cell_length_b 9.682213
_cell_length_c 35.920391
_cell_angle_alpha 90.000000
_cell_angle_beta 90.000000
_cell_angle_gamma 90.000000
_cell_volume 6393.746884
_symmetry_space_group_name_H-M "C M M A"
_symmetry_group_IT_number 67
_symmetry_cell_setting 'orthorhombic'
loop_
_space_group_symop_operation_xyz
x,y,z
-x,1/2-y,z
x,-y,-z
-x,1/2+y,-z
-x,-y,-z
x,1/2+y,-z
-x,y,z
x,1/2-y,z
1/2+x,1/2+y,z
1/2-x,-y,z
1/2+x,1/2-y,-z
1/2-x,y,-z
1/2-x,1/2-y,-z
1/2+x,y,-z
1/2-x,1/2+y,z
1/2+x,-y,z
loop_
_atom_site_type_symbol
_atom_site_label
_atom_site_fract_x
_atom_site_fract_y
_atom_site_fract_z
Si Si1 0.583863 0.590332 0.322494
Si Si2 0.416186 0.590644 0.465345
Si Si3 0.580802 0.914249 0.885847
Si Si4 0.321890 0.912129 0.818065
Si Si5 0.916175 0.408113 0.746145
Si Si6 0.322277 0.088672 0.606099
Si Si7 0.913340 0.596487 0.032260
O O1 0.500000 0.556315 0.331540
O O2 0.594258 0.750000 0.312246
O O3 0.612405 0.502103 0.287607
O O4 0.630579 0.547909 0.358110
O O5 0.389056 0.500000 0.500000
O O6 0.500000 0.559059 0.455658
O O7 0.405131 0.750000 0.476054
O O8 0.368860 0.548506 0.429927
O O9 0.500000 0.974881 0.877940
O O10 0.575712 0.750000 0.884823
O O11 0.636373 0.967349 0.854665
O O12 0.608829 0.961026 0.926825
O O13 0.303316 0.750000 0.821024
O O14 0.371780 0.944707 0.782820
O O15 0.250000 0.000000 0.813513
O O16 0.904773 0.250000 0.734156
O O17 0.000000 0.439890 0.755177
O O18 0.302201 0.250000 0.606236
O O19 0.250000 0.000000 0.606192
O O20 0.881726 0.750000 0.026096
O O21 0.000000 0.600555 0.029898
O O22 0.879953 0.500000 0.000000
#
# Coordination Sequence:
#
# PCOD8279622 Si02
#       7
#    16  16  16  16  16  16  16
#     4   9  18  34  55  75  96 126 162 198 237 281
#     4   9  18  34  55  76  98 127 165 206 245 286
#     4   8  14  27  48  69  88 118 159 194 225 271
#     4  10  20  33  49  69  95 125 156 192 234 280
#     4   9  18  33  53  75  96 121 157 199 238 277
#     4  10  21  35  51  73 102 134 165 198 238 285
#     4   8  13  22  39  64  90 113 142 184 231 274
#
# _framework density 17.517113999999999
#
# number of rings (size 3 to 8) (size 9 to 14) (size 15 to 20)
#    0.000    3.000    0.000    1.714    0.000    6.000 
#    0.000    5.000    0.000    6.857    0.000    3.000 
#    0.000    0.000    0.000    0.000    0.000    0.000 
#
# Total GULP energy -694327.481849 kJ/mol
# GULP energy per Si atom -12398.705033 kJ/mol
# Density = 1.747724 g / cm^3
# Si number density = 17.517114 Si / 1000 Ang^3
#
#
#
# Elastic Constant Matrix: (Units=GPa)
#
#
# Indices 1 2 3 4 5 6 
#
# 1 81.5395 48.6017 74.7224 0.0000 0.0000 0.0000
# 2 48.6017 63.9625 75.8687 0.0000 0.0000 0.0000
# 3 74.7224 75.8687 177.5399 0.0000 0.0000 0.0000
# 4 0.0000 0.0000 0.0000 31.8955 0.0000 0.0000
# 5 0.0000 0.0000 0.0000 0.0000 2.0672 0.0000
# 6 0.0000 0.0000 0.0000 0.0000 0.0000 23.0444
#
#
#
# Elastic Compliance Matrix: (Units=1/GPa)
#
#
# Indices 1 2 3 4 5 6 
#
# 1 0.024225 -0.012803 -0.004724 0.000000 0.000000 0.000000
# 2 -0.012803 0.038471 -0.011051 0.000000 0.000000 0.000000
# 3 -0.004724 -0.011051 0.012344 0.000000 0.000000 0.000000
# 4 0.000000 0.000000 0.000000 0.031352 0.000000 0.000000
# 5 0.000000 0.000000 0.000000 0.000000 0.483742 0.000000
# 6 0.000000 0.000000 0.000000 0.000000 0.000000 0.043394
#
#
# Mechanical properties :
#
#
# Convention : Reuss Voigt Hill
#
# Bulk Modulus (GPa) = 55.92408 80.15859 68.04133
# Shear Modulus (GPa) = 7.17723 19.65804 13.41763
#
# Velocity S-wave (km/s) = 2.02637 3.35359 2.77062
# Velocity P-wave (km/s) = 6.12124 7.80095 7.01158
#
# Compressibility (1/GPa) = 0.01788139
#
# Stress axis : x y z
#
# Youngs Moduli (GPa) = 41.27994 25.99334 81.01396
#
# Poissons Ratio (x) = 0.33280 0.38274
# Poissons Ratio (y) = 0.52852 0.89532
# Poissons Ratio (z) = 0.19502 0.28726
#
# Static dielectric constant tensor:
#      x y z
#    x 3.092260 0.000000 0.000000 
#    y 0.000000 3.165190 0.000000 
#    z 0.000000 0.000000 3.531110 
# 
# 
# High freq. dielectric constant tensor:
#      x y z
#    x 1.657250 0.000000 0.000000 
#    y 0.000000 1.658630 0.000000 
#    z 0.000000 0.000000 1.691820 
# 
# From -- ./inp_files/45555.got.cif
#   From: 2010.03.12/outbox.cif.g09.slc.cpg/sg67_23_cif.got.tgz:45555.got - 2010.04.10 22:41:39.
