data_PCOD8279714
_publ_section_title
;
Structure prediction by ZEFSAII (Michael W. Deem and Ramdas Pophale) SiO2 
 PCOD8279714
Probable space group: C M M A
;
_chemical_formula_sum "Si O2"
_cell_formula_units_Z 80
_cell_length_a 9.095272
_cell_length_b 18.318158
_cell_length_c 25.851708
_cell_angle_alpha 90.000000
_cell_angle_beta 90.000000
_cell_angle_gamma 90.000000
_cell_volume 4307.117641
_symmetry_space_group_name_H-M "C M M A"
_symmetry_group_IT_number 67
_symmetry_cell_setting 'orthorhombic'
loop_
_space_group_symop_operation_xyz
x,y,z
-x,1/2-y,z
x,-y,-z
-x,1/2+y,-z
-x,-y,-z
x,1/2+y,-z
-x,y,z
x,1/2-y,z
1/2+x,1/2+y,z
1/2-x,-y,z
1/2+x,1/2-y,-z
1/2-x,y,-z
1/2-x,1/2-y,-z
1/2+x,y,-z
1/2-x,1/2+y,z
1/2+x,-y,z
loop_
_atom_site_type_symbol
_atom_site_label
_atom_site_fract_x
_atom_site_fract_y
_atom_site_fract_z
Si Si1 0.673247 0.422931 0.650787
Si Si2 0.829238 0.422732 0.837987
Si Si3 0.670233 0.834717 0.247985
Si Si4 0.170650 0.922630 0.047314
Si Si5 0.327127 0.833607 0.448287
O O1 0.500000 0.434676 0.648696
O O2 0.750000 0.500000 0.655193
O O3 0.719650 0.375350 0.700055
O O4 0.729419 0.381514 0.599642
O O5 0.750000 0.500000 0.830349
O O6 0.765833 0.362991 0.799519
O O7 0.807507 0.388359 0.895667
O O8 0.000000 0.436279 0.826289
O O9 0.500000 0.849206 0.235495
O O10 0.703036 0.750000 0.256387
O O11 0.000000 0.931402 0.033815
O O12 0.250000 0.000000 0.049621
O O13 0.250000 0.877681 0.000000
O O14 0.500000 0.841189 0.455866
O O15 0.281758 0.750000 0.437528
O O16 0.250000 0.863433 0.500000
#
# Coordination Sequence:
#
# PCOD8279714 Si02
#       5
#    16  16  16  16  16
#     4  10  21  36  54  77 105 135 169 211 257 304
#     4  10  20  33  51  77 107 137 170 212 259 305
#     4  10  21  37  56  76 100 134 174 214 260 314
#     4   9  16  26  43  69 100 132 166 205 250 299
#     4   9  18  34  55  77 103 136 172 209 249 296
#
# _framework density 18.573906999999998
#
# number of rings (size 3 to 8) (size 9 to 14) (size 15 to 20)
#    0.000    2.400    0.000    3.000    0.000    8.800 
#    0.000    2.000    0.000    4.200    0.000    0.000 
#    0.000    0.000    0.000    0.000    0.000    0.000 
#
# Total GULP energy -495884.454413 kJ/mol
# GULP energy per Si atom -12397.111360 kJ/mol
# Density = 1.853163 g / cm^3
# Si number density = 18.573907 Si / 1000 Ang^3
#
#
#
# Elastic Constant Matrix: (Units=GPa)
#
#
# Indices 1 2 3 4 5 6 
#
# 1 84.8814 45.7414 75.0640 0.0000 0.0000 0.0000
# 2 45.7414 98.0188 75.8064 0.0000 0.0000 0.0000
# 3 75.0640 75.8064 184.1757 0.0000 0.0000 0.0000
# 4 0.0000 0.0000 0.0000 -1.5817 0.0000 0.0000
# 5 0.0000 0.0000 0.0000 0.0000 34.6542 0.0000
# 6 0.0000 0.0000 0.0000 0.0000 0.0000 25.9461
#
#
#
# Elastic Compliance Matrix: (Units=1/GPa)
#
#
# Indices 1 2 3 4 5 6 
#
# 1 0.019612 -0.004357 -0.006200 0.000000 0.000000 0.000000
# 2 -0.004357 0.015934 -0.004783 0.000000 0.000000 0.000000
# 3 -0.006200 -0.004783 0.009925 0.000000 0.000000 0.000000
# 4 0.000000 0.000000 0.000000 -0.632219 0.000000 0.000000
# 5 0.000000 0.000000 0.000000 0.000000 0.028856 0.000000
# 6 0.000000 0.000000 0.000000 0.000000 0.000000 0.038541
#
#
# Mechanical properties :
#
#
# Convention : Reuss Voigt Hill
#
# Bulk Modulus (GPa) = 67.60492 84.47774 76.04133
# Shear Modulus (GPa) = -10.33612 23.16800 6.41594
#
# Velocity S-wave (km/s) = -2.36156 3.53560 1.86058
# Velocity P-wave (km/s) = 5.38896 7.88974 6.75607
#
# Compressibility (1/GPa) = 0.01479182
#
# Stress axis : x y z
#
# Youngs Moduli (GPa) = 50.98954 62.75759 100.75647
#
# Poissons Ratio (x) = 0.27345 0.62466
# Poissons Ratio (y) = 0.22218 0.48188
# Poissons Ratio (z) = 0.31612 0.30015
#
# Static dielectric constant tensor:
#      x y z
#    x 3.516400 0.000000 0.000000 
#    y 0.000000 3.113310 0.000000 
#    z 0.000000 0.000000 4.158730 
# 
# 
# High freq. dielectric constant tensor:
#      x y z
#    x 1.721550 0.000000 0.000000 
#    y 0.000000 1.688690 0.000000 
#    z 0.000000 0.000000 1.745630 
# 
# From -- ./inp_files/43274.got.cif
#   From: 2010.03.12/outbox.cif.g09.slc.cpg/sg67_22_cif.got.tgz:43274.got - 2010.04.10 22:41:39.
