data_PCOD8279208
_publ_section_title
;
Structure prediction by ZEFSAII (Michael W. Deem and Ramdas Pophale) SiO2 
 PCOD8279208
Probable space group: C M M A
;
_chemical_formula_sum "Si O2"
_cell_formula_units_Z 112
_cell_length_a 15.070185
_cell_length_b 28.621946
_cell_length_c 12.161790
_cell_angle_alpha 90.000000
_cell_angle_beta 90.000000
_cell_angle_gamma 90.000000
_cell_volume 5245.842434
_symmetry_space_group_name_H-M "C M M A"
_symmetry_group_IT_number 67
_symmetry_cell_setting 'orthorhombic'
loop_
_space_group_symop_operation_xyz
x,y,z
-x,1/2-y,z
x,-y,-z
-x,1/2+y,-z
-x,-y,-z
x,1/2+y,-z
-x,y,z
x,1/2-y,z
1/2+x,1/2+y,z
1/2-x,-y,z
1/2+x,1/2-y,-z
1/2-x,y,-z
1/2-x,1/2-y,-z
1/2+x,y,-z
1/2-x,1/2+y,z
1/2+x,-y,z
loop_
_atom_site_type_symbol
_atom_site_label
_atom_site_fract_x
_atom_site_fract_y
_atom_site_fract_z
Si Si1 0.902293 0.877863 0.628651
Si Si2 0.349613 0.048547 0.461090
Si Si3 0.396524 0.884019 0.950587
Si Si4 0.101489 0.064417 0.157715
Si Si5 0.742716 0.197824 0.629753
Si Si6 0.103012 0.303749 0.795789
Si Si7 0.895912 0.535282 0.217640
O O1 0.892831 0.904584 0.512039
O O2 0.890170 0.916786 0.720402
O O3 0.833719 0.837877 0.661798
O O4 0.000000 0.854989 0.632079
O O5 0.250000 0.048340 0.500000
O O6 0.349793 0.051026 0.330070
O O7 0.396899 0.000000 0.500000
O O8 0.500000 0.876885 0.968811
O O9 0.361755 0.835014 0.898913
O O10 0.372951 0.924314 0.865946
O O11 0.352824 0.900455 0.067567
O O12 0.000000 0.058591 0.118687
O O13 0.144073 0.012580 0.165450
O O14 0.713625 0.250000 0.665039
O O15 0.750000 0.194254 0.500000
O O16 0.836352 0.185383 0.688555
O O17 0.111995 0.250000 0.832172
O O18 0.000000 0.315735 0.765227
O O19 0.000000 0.529267 0.240806
#
# Coordination Sequence:
#
# PCOD8279208 Si02
#       7
#    16  16  16  16  16  16  16
#     4  11  23  38  61  87 121 163 203 248 301 365
#     4  11  23  37  55  82 120 162 201 251 301 358
#     4   9  18  32  57  89 118 154 199 248 304 358
#     4   9  18  35  55  83 121 158 198 245 296 354
#     4  10  23  42  62  87 122 159 199 254 310 363
#     4   9  19  38  64  92 121 156 203 257 311 369
#     4  10  19  33  57  85 117 156 203 248 296 363
#
# _framework density 21.350239999999999
#
# number of rings (size 3 to 8) (size 9 to 14) (size 15 to 20)
#    0.000    2.143    1.429    1.286    4.000    3.143 
#    0.000    2.857    0.000    4.286    0.000    0.000 
#    0.000    0.000    0.000    0.000    0.000    0.000 
#
# Total GULP energy -694006.144346 kJ/mol
# GULP energy per Si atom -12392.966863 kJ/mol
# Density = 2.130165 g / cm^3
# Si number density = 21.350240 Si / 1000 Ang^3
#
#
#
# Elastic Constant Matrix: (Units=GPa)
#
#
# Indices 1 2 3 4 5 6 
#
# 1 69.2556 54.1722 28.3699 0.0000 0.0000 0.0000
# 2 54.1722 118.4694 38.2554 0.0000 0.0000 0.0000
# 3 28.3699 38.2554 115.6710 0.0000 0.0000 0.0000
# 4 0.0000 0.0000 0.0000 20.3597 0.0000 0.0000
# 5 0.0000 0.0000 0.0000 0.0000 22.9405 0.0000
# 6 0.0000 0.0000 0.0000 0.0000 0.0000 17.6984
#
#
#
# Elastic Compliance Matrix: (Units=1/GPa)
#
#
# Indices 1 2 3 4 5 6 
#
# 1 0.023074 -0.009766 -0.002429 0.000000 0.000000 0.000000
# 2 -0.009766 0.013584 -0.002097 0.000000 0.000000 0.000000
# 3 -0.002429 -0.002097 0.009935 0.000000 0.000000 0.000000
# 4 0.000000 0.000000 0.000000 0.049117 0.000000 0.000000
# 5 0.000000 0.000000 0.000000 0.000000 0.043591 0.000000
# 6 0.000000 0.000000 0.000000 0.000000 0.000000 0.056502
#
#
# Mechanical properties :
#
#
# Convention : Reuss Voigt Hill
#
# Bulk Modulus (GPa) = 55.53474 60.55457 58.04466
# Shear Modulus (GPa) = 21.70228 24.37294 23.03761
#
# Velocity S-wave (km/s) = 3.19170 3.38239 3.28843
# Velocity P-wave (km/s) = 6.29685 6.60894 6.45478
#
# Compressibility (1/GPa) = 0.01800675
#
# Stress axis : x y z
#
# Youngs Moduli (GPa) = 43.33930 73.61533 100.65821
#
# Poissons Ratio (x) = 0.71896 0.24451
# Poissons Ratio (y) = 0.42327 0.21111
# Poissons Ratio (z) = 0.10528 0.15439
#
# Static dielectric constant tensor:
#      x y z
#    x 3.702640 0.000000 0.000000 
#    y 0.000000 4.288360 0.000000 
#    z 0.000000 0.000000 3.906060 
# 
# 
# High freq. dielectric constant tensor:
#      x y z
#    x 1.814650 0.000000 0.000000 
#    y 0.000000 1.842950 0.000000 
#    z 0.000000 0.000000 1.836890 
# 
# From -- ./inp_files/18562.got.cif
#   From: 2010.03.12/outbox.cif.g09.slc.cpg/sg67_10_cif.got.tgz:18562.got - 2010.04.10 22:41:39.
