data_PCOD8279407
_publ_section_title
;
Structure prediction by ZEFSAII (Michael W. Deem and Ramdas Pophale) SiO2 
 PCOD8279407
Probable space group: C M M A
;
_chemical_formula_sum "Si O2"
_cell_formula_units_Z 88
_cell_length_a 10.111235
_cell_length_b 20.702526
_cell_length_c 22.239591
_cell_angle_alpha 90.000000
_cell_angle_beta 90.000000
_cell_angle_gamma 90.000000
_cell_volume 4655.371451
_symmetry_space_group_name_H-M "C M M A"
_symmetry_group_IT_number 67
_symmetry_cell_setting 'orthorhombic'
loop_
_space_group_symop_operation_xyz
x,y,z
-x,1/2-y,z
x,-y,-z
-x,1/2+y,-z
-x,-y,-z
x,1/2+y,-z
-x,y,z
x,1/2-y,z
1/2+x,1/2+y,z
1/2-x,-y,z
1/2+x,1/2-y,-z
1/2-x,y,-z
1/2-x,1/2-y,-z
1/2+x,y,-z
1/2-x,1/2+y,z
1/2+x,-y,z
loop_
_atom_site_type_symbol
_atom_site_label
_atom_site_fract_x
_atom_site_fract_y
_atom_site_fract_z
Si Si1 0.260642 0.576567 0.843069
Si Si2 0.000000 0.551375 0.370733
Si Si3 0.644634 0.750000 0.551863
Si Si4 0.265947 0.118416 0.428646
Si Si5 0.000000 0.402191 0.358589
Si Si6 0.000000 0.563924 0.239604
Si Si7 0.153792 0.823146 0.056329
Si Si8 0.000000 0.087394 0.224879
O O1 0.250000 0.500000 0.860922
O O2 0.369582 0.589455 0.792503
O O3 0.300273 0.620337 0.899235
O O4 0.126368 0.605023 0.815346
O O5 0.865595 0.562734 0.407775
O O6 0.000000 0.477866 0.353874
O O7 0.000000 0.590647 0.307902
O O8 0.500000 0.750000 0.522190
O O9 0.750000 0.750000 0.500000
O O10 0.663974 0.685526 0.590676
O O11 0.250000 0.110911 0.500000
O O12 0.127196 0.120195 0.395252
O O13 0.000000 0.375263 0.289625
O O14 0.000000 0.487494 0.238943
O O15 0.168709 0.750000 0.083210
O O16 0.000000 0.834893 0.038127
O O17 0.250000 0.830315 0.000000
#
# Coordination Sequence:
#
# PCOD8279407 Si02
#       8
#    16   8   8  16   8   8  16   8
#     4  10  19  36  61  88 116 155 205 250 284 337
#     4  11  21  37  59  85 117 155 187 237 298 362
#     4  10  22  40  62  80 100 144 194 232 285 350
#     4  11  23  37  59  83 114 150 194 243 294 358
#     4  11  23  37  57  87 121 153 187 237 304 362
#     4   9  18  35  59  81 113 154 200 238 286 346
#     4  10  22  40  62  89 123 161 195 232 290 351
#     4   9  20  35  57  85 113 156 198 236 292 346
#
# _framework density 18.902895000000001
#
# number of rings (size 3 to 8) (size 9 to 14) (size 15 to 20)
#    0.000    1.818    1.818    2.182    5.091    5.455 
#    0.000    0.909   12.000    0.000    0.000    0.000 
#    0.000    0.000    0.000    0.000    0.000    0.000 
#
# Total GULP energy -545311.606930 kJ/mol
# GULP energy per Si atom -12393.445612 kJ/mol
# Density = 1.885987 g / cm^3
# Si number density = 18.902895 Si / 1000 Ang^3
#
#
#
# Elastic Constant Matrix: (Units=GPa)
#
#
# Indices 1 2 3 4 5 6 
#
# 1 183.7512 36.0690 67.1210 0.0000 0.0000 0.0000
# 2 36.0690 66.1134 46.2120 0.0000 0.0000 0.0000
# 3 67.1210 46.2120 120.5281 0.0000 0.0000 0.0000
# 4 0.0000 0.0000 0.0000 0.3581 0.0000 0.0000
# 5 0.0000 0.0000 0.0000 0.0000 32.7268 0.0000
# 6 0.0000 0.0000 0.0000 0.0000 0.0000 31.0949
#
#
#
# Elastic Compliance Matrix: (Units=1/GPa)
#
#
# Indices 1 2 3 4 5 6 
#
# 1 0.006936 -0.001481 -0.003295 0.000000 0.000000 0.000000
# 2 -0.001481 0.020979 -0.007219 0.000000 0.000000 0.000000
# 3 -0.003295 -0.007219 0.012900 0.000000 0.000000 0.000000
# 4 0.000000 0.000000 0.000000 2.792863 0.000000 0.000000
# 5 0.000000 0.000000 0.000000 0.000000 0.030556 0.000000
# 6 0.000000 0.000000 0.000000 0.000000 0.000000 0.032160
#
#
# Mechanical properties :
#
#
# Convention : Reuss Voigt Hill
#
# Bulk Modulus (GPa) = 59.43398 74.35521 66.89459
# Shear Modulus (GPa) = 1.70882 27.56866 14.63874
#
# Velocity S-wave (km/s) = 0.95182 3.82309 2.78586
# Velocity P-wave (km/s) = 5.71996 7.67521 6.76856
#
# Compressibility (1/GPa) = 0.01682539
#
# Stress axis : x y z
#
# Youngs Moduli (GPa) = 144.16552 47.66559 77.52183
#
# Poissons Ratio (x) = 0.07060 0.25543
# Poissons Ratio (y) = 0.21353 0.55963
# Poissons Ratio (z) = 0.47502 0.34410
#
# Static dielectric constant tensor:
#      x y z
#    x 3.735200 0.000000 0.000000 
#    y 0.000000 3.965140 0.000000 
#    z 0.000000 0.000000 3.476660 
# 
# 
# High freq. dielectric constant tensor:
#      x y z
#    x 1.760860 0.000000 0.000000 
#    y 0.000000 1.719540 0.000000 
#    z 0.000000 0.000000 1.723670 
# 
# From -- ./inp_files/40749.got.cif
#   From: 2010.03.12/outbox.cif.g09.slc.cpg/sg67_21_cif.got.tgz:40749.got - 2010.04.10 22:41:39.
