data_PCOD8279710
_publ_section_title
;
Structure prediction by ZEFSAII (Michael W. Deem and Ramdas Pophale) SiO2 
 PCOD8279710
Probable space group: C M M A
;
_chemical_formula_sum "Si O2"
_cell_formula_units_Z 72
_cell_length_a 26.011296
_cell_length_b 8.775880
_cell_length_c 14.875954
_cell_angle_alpha 90.000000
_cell_angle_beta 90.000000
_cell_angle_gamma 90.000000
_cell_volume 3395.763955
_symmetry_space_group_name_H-M "C M M A"
_symmetry_group_IT_number 67
_symmetry_cell_setting 'orthorhombic'
loop_
_space_group_symop_operation_xyz
x,y,z
-x,1/2-y,z
x,-y,-z
-x,1/2+y,-z
-x,-y,-z
x,1/2+y,-z
-x,y,z
x,1/2-y,z
1/2+x,1/2+y,z
1/2-x,-y,z
1/2+x,1/2-y,-z
1/2-x,y,-z
1/2-x,1/2-y,-z
1/2+x,y,-z
1/2-x,1/2+y,z
1/2+x,-y,z
loop_
_atom_site_type_symbol
_atom_site_label
_atom_site_fract_x
_atom_site_fract_y
_atom_site_fract_z
Si Si1 0.700850 0.918122 0.105150
Si Si2 0.300791 0.418940 0.685572
Si Si3 0.591701 0.068540 0.290446
Si Si4 0.000000 0.930817 0.598101
Si Si5 0.596220 0.073445 0.087923
O O1 0.690899 0.750000 0.063167
O O2 0.709122 0.897874 0.210081
O O3 0.750000 0.000000 0.062127
O O4 0.655957 0.034398 0.079909
O O5 0.307617 0.250000 0.641925
O O6 0.250000 0.500000 0.642611
O O7 0.352354 0.518662 0.672783
O O8 0.587748 0.250000 0.298091
O O9 0.579277 0.014845 0.187277
O O10 0.550442 0.987294 0.351745
O O11 0.000000 0.750000 0.592872
O O12 0.000000 0.000000 0.500000
O O13 0.585475 0.250000 0.081432
O O14 0.567538 0.000000 0.000000
#
# Coordination Sequence:
#
# PCOD8279710 Si02
#       5
#    16  16  16   8  16
#     4   9  16  26  41  64 100 146 199 251 296 342
#     4   9  16  28  50  82 119 161 204 247 298 356
#     4  10  21  39  62  90 124 161 203 253 304 356
#     4  12  26  46  73 100 123 150 189 242 302 364
#     4  10  20  33  51  76 111 154 199 245 293 346
#
# _framework density 21.202887
#
# number of rings (size 3 to 8) (size 9 to 14) (size 15 to 20)
#    0.000    2.222    0.000    3.667    0.000    8.444 
#    0.000    2.778    0.000    0.667    0.000    4.667 
#    0.000    0.000    0.000    0.000    0.000    0.000 
#
# Total GULP energy -446031.257184 kJ/mol
# GULP energy per Si atom -12389.757144 kJ/mol
# Density = 2.115463 g / cm^3
# Si number density = 21.202887 Si / 1000 Ang^3
#
#
#
# Elastic Constant Matrix: (Units=GPa)
#
#
# Indices 1 2 3 4 5 6 
#
# 1 115.1630 53.7965 61.3375 0.0000 0.0000 0.0000
# 2 53.7965 124.2792 47.8486 0.0000 0.0000 0.0000
# 3 61.3375 47.8486 109.2005 0.0000 0.0000 0.0000
# 4 0.0000 0.0000 0.0000 27.5515 0.0000 0.0000
# 5 0.0000 0.0000 0.0000 0.0000 658.7442 0.0000
# 6 0.0000 0.0000 0.0000 0.0000 0.0000 29.2108
#
#
#
# Elastic Compliance Matrix: (Units=1/GPa)
#
#
# Indices 1 2 3 4 5 6 
#
# 1 0.013569 -0.003536 -0.006073 0.000000 0.000000 0.000000
# 2 -0.003536 0.010601 -0.002659 0.000000 0.000000 0.000000
# 3 -0.006073 -0.002659 0.013733 0.000000 0.000000 0.000000
# 4 0.000000 0.000000 0.000000 0.036296 0.000000 0.000000
# 5 0.000000 0.000000 0.000000 0.000000 0.001518 0.000000
# 6 0.000000 0.000000 0.000000 0.000000 0.000000 0.034234
#
#
# Mechanical properties :
#
#
# Convention : Reuss Voigt Hill
#
# Bulk Modulus (GPa) = 74.79989 74.95645 74.87817
# Shear Modulus (GPa) = 35.98628 155.47864 95.73246
#
# Velocity S-wave (km/s) = 4.12422 8.57252 6.72671
# Velocity P-wave (km/s) = 7.61798 11.55045 9.78383
#
# Compressibility (1/GPa) = 0.01336900
#
# Stress axis : x y z
#
# Youngs Moduli (GPa) = 73.69541 94.33429 72.81481
#
# Poissons Ratio (x) = 0.33354 0.44218
# Poissons Ratio (y) = 0.26057 0.19361
# Poissons Ratio (z) = 0.44752 0.25082
#
# Static dielectric constant tensor:
#      x y z
#    x 3.663380 0.000000 0.000000 
#    y 0.000000 4.231810 0.000000 
#    z 0.000000 0.000000 3.798020 
# 
# 
# High freq. dielectric constant tensor:
#      x y z
#    x 1.811580 0.000000 0.000000 
#    y 0.000000 1.844900 0.000000 
#    z 0.000000 0.000000 1.814420 
# 
# From -- ./inp_files/30556.got.cif
#   From: 2010.03.12/outbox.cif.g09.slc.cpg/sg67_16_cif.got.tgz:30556.got - 2010.04.10 22:41:39.
