data_PCOD8279002
_publ_section_title
;
Structure prediction by ZEFSAII (Michael W. Deem and Ramdas Pophale) SiO2 
 PCOD8279002
Probable space group: C M M A
;
_chemical_formula_sum "Si O2"
_cell_formula_units_Z 96
_cell_length_a 16.927161
_cell_length_b 14.016214
_cell_length_c 20.666956
_cell_angle_alpha 90.000000
_cell_angle_beta 90.000000
_cell_angle_gamma 90.000000
_cell_volume 4903.332673
_symmetry_space_group_name_H-M "C M M A"
_symmetry_group_IT_number 67
_symmetry_cell_setting 'orthorhombic'
loop_
_space_group_symop_operation_xyz
x,y,z
-x,1/2-y,z
x,-y,-z
-x,1/2+y,-z
-x,-y,-z
x,1/2+y,-z
-x,y,z
x,1/2-y,z
1/2+x,1/2+y,z
1/2-x,-y,z
1/2+x,1/2-y,-z
1/2-x,y,-z
1/2-x,1/2-y,-z
1/2+x,y,-z
1/2-x,1/2+y,z
1/2+x,-y,z
loop_
_atom_site_type_symbol
_atom_site_label
_atom_site_fract_x
_atom_site_fract_y
_atom_site_fract_z
Si Si1 0.340429 0.860284 0.019961
Si Si2 0.591270 0.352220 0.608351
Si Si3 0.093863 0.050020 0.650154
Si Si4 0.406011 0.142692 0.217273
Si Si5 0.166242 0.360014 0.523970
Si Si6 0.092226 0.473999 0.905225
O O1 0.359513 0.750000 0.036338
O O2 0.359679 0.927686 0.081722
O O3 0.250000 0.874152 0.000000
O O4 0.395822 0.896336 0.961818
O O5 0.500000 0.336981 0.618899
O O6 0.634139 0.250000 0.624675
O O7 0.618530 0.438043 0.655294
O O8 0.604554 0.379787 0.533439
O O9 0.124418 0.102506 0.714300
O O10 0.138727 0.089642 0.588616
O O11 0.000000 0.063219 0.640695
O O12 0.500000 0.144570 0.215814
O O13 0.372809 0.250000 0.207353
O O14 0.374842 0.073415 0.160607
O O15 0.173906 0.250000 0.541718
O O16 0.250000 0.401377 0.500000
O O17 0.000000 0.499048 0.899988
#
# Coordination Sequence:
#
# PCOD8279002 Si02
#       6
#    16  16  16  16  16  16
#     4  10  20  34  55  80 112 150 186 222 260 315
#     4   9  18  32  49  69  94 126 165 210 262 317
#     4  10  19  32  52  76 100 133 177 218 263 324
#     4   9  18  32  51  77 107 136 171 218 270 323
#     4  10  20  32  49  72 101 130 163 213 271 323
#     4  10  19  32  54  83 112 141 178 228 279 317
#
# _framework density 19.578520999999999
#
# number of rings (size 3 to 8) (size 9 to 14) (size 15 to 20)
#    0.000    2.333    0.000    4.000    0.000    6.333 
#    0.000    0.833    7.333    3.000    0.000    0.000 
#    0.000    0.000    0.000    0.000    0.000    0.000 
#
# Total GULP energy -594922.580906 kJ/mol
# GULP energy per Si atom -12394.220436 kJ/mol
# Density = 1.953396 g / cm^3
# Si number density = 19.578521 Si / 1000 Ang^3
#
#
#
# Elastic Constant Matrix: (Units=GPa)
#
#
# Indices 1 2 3 4 5 6 
#
# 1 41.1139 39.7510 19.9920 0.0000 0.0000 0.0000
# 2 39.7510 182.9514 85.5743 0.0000 0.0000 0.0000
# 3 19.9920 85.5743 104.5413 0.0000 0.0000 0.0000
# 4 0.0000 0.0000 0.0000 36.2355 0.0000 0.0000
# 5 0.0000 0.0000 0.0000 0.0000 15.9077 0.0000
# 6 0.0000 0.0000 0.0000 0.0000 0.0000 21.6451
#
#
#
# Elastic Compliance Matrix: (Units=1/GPa)
#
#
# Indices 1 2 3 4 5 6 
#
# 1 0.030820 -0.006384 -0.000668 0.000000 0.000000 0.000000
# 2 -0.006384 0.010179 -0.007112 0.000000 0.000000 0.000000
# 3 -0.000668 -0.007112 0.015515 0.000000 0.000000 0.000000
# 4 0.000000 0.000000 0.000000 0.027597 0.000000 0.000000
# 5 0.000000 0.000000 0.000000 0.000000 0.062863 0.000000
# 6 0.000000 0.000000 0.000000 0.000000 0.000000 0.046200
#
#
# Mechanical properties :
#
#
# Convention : Reuss Voigt Hill
#
# Bulk Modulus (GPa) = 35.47800 68.80457 52.14129
# Shear Modulus (GPa) = 21.65467 26.97696 24.31581
#
# Velocity S-wave (km/s) = 3.32933 3.71601 3.52797
# Velocity P-wave (km/s) = 5.73929 7.32331 6.57915
#
# Compressibility (1/GPa) = 0.02818648
#
# Stress axis : x y z
#
# Youngs Moduli (GPa) = 32.44664 98.23667 64.45419
#
# Poissons Ratio (x) = 0.62713 0.04307
# Poissons Ratio (y) = 0.20714 0.45839
# Poissons Ratio (z) = 0.02168 0.69864
#
# Static dielectric constant tensor:
#      x y z
#    x 3.409360 0.000000 0.000000 
#    y 0.000000 4.215970 0.000000 
#    z 0.000000 0.000000 3.518590 
# 
# 
# High freq. dielectric constant tensor:
#      x y z
#    x 1.738200 0.000000 0.000000 
#    y 0.000000 1.784370 0.000000 
#    z 0.000000 0.000000 1.739760 
# 
# From -- ./inp_files/38468.got.cif
#   From: 2010.03.12/outbox.cif.g09.slc.cpg/sg67_20_cif.got.tgz:38468.got - 2010.04.10 22:41:39.
