data_PCOD8279555
_publ_section_title
;
Structure prediction by ZEFSAII (Michael W. Deem and Ramdas Pophale) SiO2 
 PCOD8279555
Probable space group: C M M A
;
_chemical_formula_sum "Si O2"
_cell_formula_units_Z 112
_cell_length_a 24.654033
_cell_length_b 23.104094
_cell_length_c 11.390245
_cell_angle_alpha 90.000000
_cell_angle_beta 90.000000
_cell_angle_gamma 90.000000
_cell_volume 6487.987157
_symmetry_space_group_name_H-M "C M M A"
_symmetry_group_IT_number 67
_symmetry_cell_setting 'orthorhombic'
loop_
_space_group_symop_operation_xyz
x,y,z
-x,1/2-y,z
x,-y,-z
-x,1/2+y,-z
-x,-y,-z
x,1/2+y,-z
-x,y,z
x,1/2-y,z
1/2+x,1/2+y,z
1/2-x,-y,z
1/2+x,1/2-y,-z
1/2-x,y,-z
1/2-x,1/2-y,-z
1/2+x,y,-z
1/2-x,1/2+y,z
1/2+x,-y,z
loop_
_atom_site_type_symbol
_atom_site_label
_atom_site_fract_x
_atom_site_fract_y
_atom_site_fract_z
Si Si1 0.186776 0.878253 0.027857
Si Si2 0.558731 0.682039 0.612566
Si Si3 0.150263 0.396358 0.222328
Si Si4 0.840064 0.683300 0.255251
Si Si5 0.436459 0.316799 0.656561
Si Si6 0.307590 0.980946 0.812883
Si Si7 0.758466 0.604598 0.364569
O O1 0.171795 0.827358 0.118233
O O2 0.167251 0.937463 0.091491
O O3 0.250000 0.877833 0.000000
O O4 0.155145 0.869199 0.907314
O O5 0.500000 0.653180 0.638960
O O6 0.553182 0.750000 0.631499
O O7 0.602847 0.654928 0.701993
O O8 0.576054 0.669834 0.478841
O O9 0.096603 0.365982 0.272598
O O10 0.149841 0.466874 0.211043
O O11 0.201365 0.382131 0.303356
O O12 0.843822 0.750000 0.279586
O O13 0.793093 0.661783 0.342001
O O14 0.500000 0.324956 0.684955
O O15 0.419401 0.250000 0.687444
O O16 0.292114 0.948783 0.691217
O O17 0.250000 0.000000 0.868578
O O18 0.750000 0.590929 0.500000
#
# Coordination Sequence:
#
# PCOD8279555 Si02
#       7
#    16  16  16  16  16  16  16
#     4  11  19  34  49  73 104 146 184 217 263 323
#     4   8  15  32  56  74  95 137 182 215 255 316
#     4  11  20  31  54  78 100 140 180 222 267 321
#     4  10  20  32  48  75 109 138 176 224 269 323
#     4   9  19  36  56  79 107 140 180 222 271 332
#     4   9  18  31  52  71  98 135 182 218 256 317
#     4  10  20  32  48  78 111 137 170 220 277 327
#
# _framework density 17.262672999999999
#
# number of rings (size 3 to 8) (size 9 to 14) (size 15 to 20)
#    0.000    2.286    4.286    2.143    0.000    4.286 
#    0.000    0.714    0.000    6.857    0.000    9.000 
#    0.000    0.000    0.000    0.000    0.000    0.000 
#
# Total GULP energy -693825.532376 kJ/mol
# GULP energy per Si atom -12389.741650 kJ/mol
# Density = 1.722338 g / cm^3
# Si number density = 17.262673 Si / 1000 Ang^3
#
#
#
# Elastic Constant Matrix: (Units=GPa)
#
#
# Indices 1 2 3 4 5 6 
#
# 1 89.2535 39.5359 47.2845 0.0000 0.0000 0.0000
# 2 39.5359 53.9560 13.7370 0.0000 0.0000 0.0000
# 3 47.2845 13.7370 110.6761 0.0000 0.0000 0.0000
# 4 0.0000 0.0000 0.0000 15.6764 0.0000 0.0000
# 5 0.0000 0.0000 0.0000 0.0000 23.6565 0.0000
# 6 0.0000 0.0000 0.0000 0.0000 0.0000 26.5321
#
#
#
# Elastic Compliance Matrix: (Units=1/GPa)
#
#
# Indices 1 2 3 4 5 6 
#
# 1 0.021115 -0.013605 -0.007332 0.000000 0.000000 0.000000
# 2 -0.013605 0.027905 0.002349 0.000000 0.000000 0.000000
# 3 -0.007332 0.002349 0.011876 0.000000 0.000000 0.000000
# 4 0.000000 0.000000 0.000000 0.063790 0.000000 0.000000
# 5 0.000000 0.000000 0.000000 0.000000 0.042272 0.000000
# 6 0.000000 0.000000 0.000000 0.000000 0.000000 0.037690
#
#
# Mechanical properties :
#
#
# Convention : Reuss Voigt Hill
#
# Bulk Modulus (GPa) = 42.15987 50.55561 46.35774
# Shear Modulus (GPa) = 20.02146 23.39488 21.70817
#
# Velocity S-wave (km/s) = 3.40930 3.68534 3.55000
# Velocity P-wave (km/s) = 6.32245 6.88902 6.61180
#
# Compressibility (1/GPa) = 0.02371924
#
# Stress axis : x y z
#
# Youngs Moduli (GPa) = 47.35915 35.83621 84.19998
#
# Poissons Ratio (x) = 0.48756 0.61739
# Poissons Ratio (y) = 0.64433 -0.19780
# Poissons Ratio (z) = 0.34726 -0.08418
#
# Static dielectric constant tensor:
#      x y z
#    x 3.263310 0.000000 0.000000 
#    y 0.000000 3.222050 0.000000 
#    z 0.000000 0.000000 3.395210 
# 
# 
# High freq. dielectric constant tensor:
#      x y z
#    x 1.643690 0.000000 0.000000 
#    y 0.000000 1.653720 0.000000 
#    z 0.000000 0.000000 1.672770 
# 
# From -- ./inp_files/22282.got.cif
#   From: 2010.03.12/outbox.cif.g09.slc.cpg/sg67_12_cif.got.tgz:22282.got - 2010.04.10 22:41:39.
