data_PCOD8279526
_publ_section_title
;
Structure prediction by ZEFSAII (Michael W. Deem and Ramdas Pophale) SiO2 
 PCOD8279526
Probable space group: C M M A
;
_chemical_formula_sum "Si O2"
_cell_formula_units_Z 88
_cell_length_a 25.669507
_cell_length_b 8.825230
_cell_length_c 22.201995
_cell_angle_alpha 90.000000
_cell_angle_beta 90.000000
_cell_angle_gamma 90.000000
_cell_volume 5029.624478
_symmetry_space_group_name_H-M "C M M A"
_symmetry_group_IT_number 67
_symmetry_cell_setting 'orthorhombic'
loop_
_space_group_symop_operation_xyz
x,y,z
-x,1/2-y,z
x,-y,-z
-x,1/2+y,-z
-x,-y,-z
x,1/2+y,-z
-x,y,z
x,1/2-y,z
1/2+x,1/2+y,z
1/2-x,-y,z
1/2+x,1/2-y,-z
1/2-x,y,-z
1/2-x,1/2-y,-z
1/2+x,y,-z
1/2-x,1/2+y,z
1/2+x,-y,z
loop_
_atom_site_type_symbol
_atom_site_label
_atom_site_fract_x
_atom_site_fract_y
_atom_site_fract_z
Si Si1 0.500000 0.069060 0.434432
Si Si2 0.941518 0.580849 0.219381
Si Si3 0.806364 0.071632 0.941062
Si Si4 0.195125 0.071480 0.305552
Si Si5 0.653061 0.924059 0.175942
Si Si6 0.906339 0.922577 0.352111
O O1 0.500000 0.250000 0.435333
O O2 0.553425 0.012359 0.402018
O O3 0.500000 0.000000 0.500000
O O4 0.922449 0.750000 0.200726
O O5 0.907786 0.450588 0.188036
O O6 0.938479 0.564287 0.290811
O O7 0.000000 0.553936 0.197645
O O8 0.803029 0.250000 0.949094
O O9 0.750000 0.000000 0.936927
O O10 0.834374 0.032439 0.879260
O O11 0.835135 0.000000 0.000000
O O12 0.198692 0.250000 0.312745
O O13 0.184729 0.025898 0.235741
O O14 0.250000 0.000000 0.326107
O O15 0.148092 0.014549 0.348376
O O16 0.663958 0.750000 0.159291
O O17 0.890892 0.750000 0.366630
#
# Coordination Sequence:
#
# PCOD8279526 Si02
#       6
#     8  16  16  16  16  16
#     4  10  20  34  54  80 108 140 173 210 253 296
#     4   9  16  29  50  73  98 130 166 204 248 298
#     4  11  21  34  51  70  94 126 163 204 249 297
#     4  10  20  32  49  75 105 137 170 208 256 306
#     4  10  20  32  47  72 102 131 166 205 249 301
#     4   9  17  32  52  74 103 137 172 209 251 300
#
# _framework density 17.496334999999998
#
# number of rings (size 3 to 8) (size 9 to 14) (size 15 to 20)
#    0.000    2.182    0.909    3.818    0.000    4.727 
#    0.000    0.000    0.000    1.091    0.000    3.818 
#    0.000    0.000    0.000    0.000    0.000    0.000 
#
# Total GULP energy -545425.351971 kJ/mol
# GULP energy per Si atom -12396.030727 kJ/mol
# Density = 1.745651 g / cm^3
# Si number density = 17.496335 Si / 1000 Ang^3
#
#
#
# Elastic Constant Matrix: (Units=GPa)
#
#
# Indices 1 2 3 4 5 6 
#
# 1 118.6261 44.9434 50.8969 0.0000 0.0000 0.0000
# 2 44.9434 87.9405 40.5196 0.0000 0.0000 0.0000
# 3 50.8969 40.5196 91.7582 0.0000 0.0000 0.0000
# 4 0.0000 0.0000 0.0000 26.8903 0.0000 0.0000
# 5 0.0000 0.0000 0.0000 0.0000 21.1233 0.0000
# 6 0.0000 0.0000 0.0000 0.0000 0.0000 28.1136
#
#
#
# Elastic Compliance Matrix: (Units=1/GPa)
#
#
# Indices 1 2 3 4 5 6 
#
# 1 0.012021 -0.003856 -0.004965 0.000000 0.000000 0.000000
# 2 -0.003856 0.015513 -0.004712 0.000000 0.000000 0.000000
# 3 -0.004965 -0.004712 0.015733 0.000000 0.000000 0.000000
# 4 0.000000 0.000000 0.000000 0.037188 0.000000 0.000000
# 5 0.000000 0.000000 0.000000 0.000000 0.047341 0.000000
# 6 0.000000 0.000000 0.000000 0.000000 0.000000 0.035570
#
#
# Mechanical properties :
#
#
# Convention : Reuss Voigt Hill
#
# Bulk Modulus (GPa) = 61.72215 63.44940 62.58578
# Shear Modulus (GPa) = 25.53216 26.02311 25.77763
#
# Velocity S-wave (km/s) = 3.82420 3.86080 3.84254
# Velocity P-wave (km/s) = 7.40629 7.49783 7.45220
#
# Compressibility (1/GPa) = 0.01620164
#
# Stress axis : x y z
#
# Youngs Moduli (GPa) = 83.18779 64.46300 63.56100
#
# Poissons Ratio (x) = 0.24855 0.31559
# Poissons Ratio (y) = 0.32075 0.29947
# Poissons Ratio (z) = 0.41304 0.30372
#
# Static dielectric constant tensor:
#      x y z
#    x 3.261710 0.000000 0.000000 
#    y 0.000000 3.259500 0.000000 
#    z 0.000000 0.000000 3.446730 
# 
# 
# High freq. dielectric constant tensor:
#      x y z
#    x 1.671700 0.000000 0.000000 
#    y 0.000000 1.680430 0.000000 
#    z 0.000000 0.000000 1.651500 
# 
# From -- ./inp_files/36949.got.cif
#   From: 2010.03.12/outbox.cif.g09.slc.cpg/sg67_19_cif.got.tgz:36949.got - 2010.04.10 22:41:39.
