data_PCOD8279498
_publ_section_title
;
Structure prediction by ZEFSAII (Michael W. Deem and Ramdas Pophale) SiO2 
 PCOD8279498
Probable space group: C M M A
;
_chemical_formula_sum "Si O2"
_cell_formula_units_Z 100
_cell_length_a 9.068093
_cell_length_b 20.610585
_cell_length_c 31.229176
_cell_angle_alpha 90.000000
_cell_angle_beta 90.000000
_cell_angle_gamma 90.000000
_cell_volume 5836.692445
_symmetry_space_group_name_H-M "C M M A"
_symmetry_group_IT_number 67
_symmetry_cell_setting 'orthorhombic'
loop_
_space_group_symop_operation_xyz
x,y,z
-x,1/2-y,z
x,-y,-z
-x,1/2+y,-z
-x,-y,-z
x,1/2+y,-z
-x,y,z
x,1/2-y,z
1/2+x,1/2+y,z
1/2-x,-y,z
1/2+x,1/2-y,-z
1/2-x,y,-z
1/2-x,1/2-y,-z
1/2+x,y,-z
1/2-x,1/2+y,z
1/2+x,-y,z
loop_
_atom_site_type_symbol
_atom_site_label
_atom_site_fract_x
_atom_site_fract_y
_atom_site_fract_z
Si Si1 0.335729 0.875744 0.460066
Si Si2 0.750000 0.500000 0.500000
Si Si3 0.666443 0.672840 0.293256
Si Si4 0.666713 0.827344 0.125779
Si Si5 0.333196 0.672607 0.790281
Si Si6 0.172019 0.174064 0.621289
Si Si7 0.333285 0.827354 0.958069
O O1 0.500000 0.846364 0.455643
O O2 0.250000 0.841461 0.500000
O O3 0.244604 0.865027 0.417185
O O4 0.348117 0.953171 0.469519
O O5 0.500000 0.645513 0.294533
O O6 0.664907 0.750000 0.291525
O O7 0.748685 0.645322 0.251347
O O8 0.753939 0.648996 0.335025
O O9 0.500000 0.854008 0.125945
O O10 0.666583 0.750000 0.125718
O O11 0.750680 0.853850 0.167617
O O12 0.749745 0.854021 0.083814
O O13 0.500000 0.646057 0.790086
O O14 0.333222 0.750000 0.789994
O O15 0.201143 0.250000 0.614259
O O16 0.000000 0.157876 0.623368
O O17 0.500000 0.853984 0.958036
O O18 0.333292 0.750000 0.958055
O O19 0.250000 0.853989 0.000000
#
# Coordination Sequence:
#
# PCOD8279498 Si02
#       7
#    16   4  16  16  16  16  16
#     4  10  20  34  53  71  90 114 141 172 204 239
#     4   8  22  36  56  72  90 112 142 174 206 240
#     4   9  16  26  39  54  74  99 125 152 184 224
#     4   9  15  21  28  38  51  68  94 127 163 206
#     4   9  15  22  32  45  61  82 108 138 172 211
#     4  10  20  32  46  66  91 116 141 168 201 242
#     4   9  15  21  27  34  45  62  85 117 160 208
#
# _framework density 17.132991000000001
#
# number of rings (size 3 to 8) (size 9 to 14) (size 15 to 20)
#    0.480    2.240    0.000    3.120    0.000    8.960 
#    0.000    0.000    0.000    0.000    0.000    0.000 
#    0.000    0.000    0.000    0.000    0.000    0.000 
#
# Total GULP energy -619771.639912 kJ/mol
# GULP energy per Si atom -12395.432798 kJ/mol
# Density = 1.709400 g / cm^3
# Si number density = 17.132991 Si / 1000 Ang^3
#
#
#
# Elastic Constant Matrix: (Units=GPa)
#
#
# Indices 1 2 3 4 5 6 
#
# 1 182.8160 13.0305 101.0903 0.0000 0.0000 0.0000
# 2 13.0305 12.5711 16.4889 0.0000 0.0000 0.0000
# 3 101.0903 16.4889 192.1213 0.0000 0.0000 0.0000
# 4 0.0000 0.0000 0.0000 -0.4905 0.0000 0.0000
# 5 0.0000 0.0000 0.0000 0.0000 41.4530 0.0000
# 6 0.0000 0.0000 0.0000 0.0000 0.0000 6.6961
#
#
#
# Elastic Compliance Matrix: (Units=1/GPa)
#
#
# Indices 1 2 3 4 5 6 
#
# 1 0.007817 -0.003051 -0.003851 0.000000 0.000000 0.000000
# 2 -0.003051 0.090829 -0.006190 0.000000 0.000000 0.000000
# 3 -0.003851 -0.006190 0.007763 0.000000 0.000000 0.000000
# 4 0.000000 0.000000 0.000000 -2.038540 0.000000 0.000000
# 5 0.000000 0.000000 0.000000 0.000000 0.024124 0.000000
# 6 0.000000 0.000000 0.000000 0.000000 0.000000 0.149341
#
#
# Mechanical properties :
#
#
# Convention : Reuss Voigt Hill
#
# Bulk Modulus (GPa) = 12.46508 72.08088 42.27298
# Shear Modulus (GPa) = -2.93128 26.65829 11.86351
#
# Velocity S-wave (km/s) = -1.30943 3.94885 2.63427
# Velocity P-wave (km/s) = 2.23721 7.93435 5.82920
#
# Compressibility (1/GPa) = 0.08022410
#
# Stress axis : x y z
#
# Youngs Moduli (GPa) = 127.92480 11.00968 128.81953
#
# Poissons Ratio (x) = 0.03359 0.49613
# Poissons Ratio (y) = 0.39031 0.79740
# Poissons Ratio (z) = 0.49268 0.06815
#
# Static dielectric constant tensor:
#      x y z
#    x 3.418460 0.000000 0.000000 
#    y 0.000000 2.316760 0.000000 
#    z 0.000000 0.000000 3.394680 
# 
# 
# High freq. dielectric constant tensor:
#      x y z
#    x 1.684090 0.000000 0.000000 
#    y 0.000000 1.554080 0.000000 
#    z 0.000000 0.000000 1.680160 
# 
# From -- ./inp_files/45431.got.cif
#   From: 2010.03.12/outbox.cif.g09.slc.cpg/sg67_23_cif.got.tgz:45431.got - 2010.04.10 22:41:39.
