data_PCOD8279028
_publ_section_title
;
Structure prediction by ZEFSAII (Michael W. Deem and Ramdas Pophale) SiO2 
 PCOD8279028
Probable space group: C M M A
;
_chemical_formula_sum "Si O2"
_cell_formula_units_Z 104
_cell_length_a 9.858908
_cell_length_b 36.897289
_cell_length_c 15.605092
_cell_angle_alpha 90.000000
_cell_angle_beta 90.000000
_cell_angle_gamma 90.000000
_cell_volume 5676.617154
_symmetry_space_group_name_H-M "C M M A"
_symmetry_group_IT_number 67
_symmetry_cell_setting 'orthorhombic'
loop_
_space_group_symop_operation_xyz
x,y,z
-x,1/2-y,z
x,-y,-z
-x,1/2+y,-z
-x,-y,-z
x,1/2+y,-z
-x,y,z
x,1/2-y,z
1/2+x,1/2+y,z
1/2-x,-y,z
1/2+x,1/2-y,-z
1/2-x,y,-z
1/2-x,1/2-y,-z
1/2+x,y,-z
1/2-x,1/2+y,z
1/2+x,-y,z
loop_
_atom_site_type_symbol
_atom_site_label
_atom_site_fract_x
_atom_site_fract_y
_atom_site_fract_z
Si Si1 0.649871 0.391291 0.385273
Si Si2 0.656938 0.892968 0.918637
Si Si3 0.750000 0.833622 0.500000
Si Si4 0.840731 0.842865 0.236837
Si Si5 0.155545 0.292213 0.333371
Si Si6 0.346295 0.968217 0.831097
Si Si7 0.654356 0.968527 0.627916
O O1 0.500000 0.402333 0.354839
O O2 0.640385 0.361902 0.461518
O O3 0.719477 0.372799 0.302909
O O4 0.714346 0.430308 0.409658
O O5 0.500000 0.894429 0.946460
O O6 0.682192 0.858040 0.858072
O O7 0.699256 0.929980 0.871379
O O8 0.750000 0.886688 0.000000
O O9 0.815363 0.809171 0.573334
O O10 0.752260 0.807060 0.257130
O O11 0.000000 0.834458 0.254375
O O12 0.185988 0.250000 0.341702
O O13 0.000000 0.299949 0.308262
O O14 0.500000 0.977713 0.857711
O O15 0.332021 0.965418 0.729765
O O16 0.250000 0.000000 0.867855
O O17 0.500000 0.977065 0.599651
O O18 0.750000 0.000000 0.590597
#
# Coordination Sequence:
#
# PCOD8279028 Si02
#       7
#    16  16   8  16  16  16  16
#     4   9  16  30  51  70  95 133 173 211 251 297
#     4  10  20  34  52  76 106 139 175 220 265 311
#     4  10  19  32  53  78 108 140 168 198 249 308
#     4   9  18  35  56  76 101 138 178 210 251 310
#     4  10  21  36  55  83 115 138 163 206 255 305
#     4   9  17  30  48  69  99 133 173 218 264 310
#     4   9  16  29  48  68  91 127 173 218 258 296
#
# _framework density 18.32077
#
# number of rings (size 3 to 8) (size 9 to 14) (size 15 to 20)
#    0.000    2.615    1.538    0.692    0.000    2.462 
#    0.000    5.769    0.000    2.308    0.000    0.000 
#    0.000    0.000    0.000    0.000    0.000    0.000 
#
# Total GULP energy -644375.482972 kJ/mol
# GULP energy per Si atom -12391.836211 kJ/mol
# Density = 1.827907 g / cm^3
# Si number density = 18.320770 Si / 1000 Ang^3
#
#
#
# Elastic Constant Matrix: (Units=GPa)
#
#
# Indices 1 2 3 4 5 6 
#
# 1 87.3201 68.6671 38.9346 0.0000 0.0000 0.0000
# 2 68.6671 147.3040 41.9945 0.0000 0.0000 0.0000
# 3 38.9346 41.9945 64.6782 0.0000 0.0000 0.0000
# 4 0.0000 0.0000 0.0000 23.8050 0.0000 0.0000
# 5 0.0000 0.0000 0.0000 0.0000 21.7482 0.0000
# 6 0.0000 0.0000 0.0000 0.0000 0.0000 30.6800
#
#
#
# Elastic Compliance Matrix: (Units=1/GPa)
#
#
# Indices 1 2 3 4 5 6 
#
# 1 0.020747 -0.007499 -0.007620 0.000000 0.000000 0.000000
# 2 -0.007499 0.011041 -0.002655 0.000000 0.000000 0.000000
# 3 -0.007620 -0.002655 0.021772 0.000000 0.000000 0.000000
# 4 0.000000 0.000000 0.000000 0.042008 0.000000 0.000000
# 5 0.000000 0.000000 0.000000 0.000000 0.045981 0.000000
# 6 0.000000 0.000000 0.000000 0.000000 0.000000 0.032595
#
#
# Mechanical properties :
#
#
# Convention : Reuss Voigt Hill
#
# Bulk Modulus (GPa) = 55.51719 66.49942 61.00830
# Shear Modulus (GPa) = 23.18089 25.22706 24.20397
#
# Velocity S-wave (km/s) = 3.56094 3.71477 3.63867
# Velocity P-wave (km/s) = 6.87573 7.40105 7.14322
#
# Compressibility (1/GPa) = 0.01801244
#
# Stress axis : x y z
#
# Youngs Moduli (GPa) = 48.20011 90.56993 45.93071
#
# Poissons Ratio (x) = 0.67918 0.35000
# Poissons Ratio (y) = 0.36145 0.12193
# Poissons Ratio (z) = 0.36729 0.24044
#
# Static dielectric constant tensor:
#      x y z
#    x 3.381350 0.000000 0.000000 
#    y 0.000000 3.543590 0.000000 
#    z 0.000000 0.000000 3.148310 
# 
# 
# High freq. dielectric constant tensor:
#      x y z
#    x 1.697310 0.000000 0.000000 
#    y 0.000000 1.714550 0.000000 
#    z 0.000000 0.000000 1.690150 
# 
# From -- ./inp_files/26441.got.cif
#   From: 2010.03.12/outbox.cif.g09.slc.cpg/sg67_14_cif.got.tgz:26441.got - 2010.04.10 22:41:39.
