data_PCOD8279856
_publ_section_title
;
Structure prediction by ZEFSAII (Michael W. Deem and Ramdas Pophale) SiO2 
 PCOD8279856
Probable space group: C M M A
;
_chemical_formula_sum "Si O2"
_cell_formula_units_Z 96
_cell_length_a 8.897772
_cell_length_b 18.559215
_cell_length_c 31.187898
_cell_angle_alpha 90.000000
_cell_angle_beta 90.000000
_cell_angle_gamma 90.000000
_cell_volume 5150.234232
_symmetry_space_group_name_H-M "C M M A"
_symmetry_group_IT_number 67
_symmetry_cell_setting 'orthorhombic'
loop_
_space_group_symop_operation_xyz
x,y,z
-x,1/2-y,z
x,-y,-z
-x,1/2+y,-z
-x,-y,-z
x,1/2+y,-z
-x,y,z
x,1/2-y,z
1/2+x,1/2+y,z
1/2-x,-y,z
1/2+x,1/2-y,-z
1/2-x,y,-z
1/2-x,1/2-y,-z
1/2+x,y,-z
1/2-x,1/2+y,z
1/2+x,-y,z
loop_
_atom_site_type_symbol
_atom_site_label
_atom_site_fract_x
_atom_site_fract_y
_atom_site_fract_z
Si Si1 0.330725 0.164074 0.627407
Si Si2 0.330610 0.664050 0.712418
Si Si3 0.320912 0.423991 0.955072
Si Si4 0.169184 0.664220 0.797256
Si Si5 0.830752 0.164068 0.542467
Si Si6 0.671038 0.664547 0.882882
O O1 0.500000 0.134908 0.628424
O O2 0.327592 0.250000 0.627330
O O3 0.245602 0.134036 0.669216
O O4 0.251838 0.133870 0.584650
O O5 0.500000 0.634885 0.714439
O O6 0.328174 0.750000 0.712459
O O7 0.241416 0.633791 0.753545
O O8 0.500000 0.430457 0.959405
O O9 0.250000 0.500000 0.941154
O O10 0.278057 0.365339 0.919855
O O11 0.250000 0.398604 0.000000
O O12 0.168508 0.750000 0.796132
O O13 0.267305 0.636470 0.837273
O O14 0.000000 0.634294 0.801489
O O15 0.827278 0.250000 0.542455
O O16 0.750000 0.133860 0.500000
O O17 0.000000 0.134947 0.542765
O O18 0.500000 0.637267 0.888527
O O19 0.679334 0.750000 0.885330
#
# Coordination Sequence:
#
# PCOD8279856 Si02
#       6
#    16  16  16  16  16  16
#     4   9  15  21  28  38  52  72 101 138 181 232
#     4   9  15  22  32  46  65  90 119 152 193 243
#     4  11  22  38  58  78 102 131 164 199 237 281
#     4   9  16  26  40  59  83 110 139 172 213 260
#     4   9  15  21  27  34  45  63  90 128 176 229
#     4  10  20  34  52  75 102 130 161 197 237 281
#
# _framework density 18.63993
#
# number of rings (size 3 to 8) (size 9 to 14) (size 15 to 20)
#    0.000    2.500    0.000    4.500    0.000    9.333 
#    0.000    0.000    0.000    0.000    0.000    0.000 
#    0.000    0.000    0.000    0.000    0.000    0.000 
#
# Total GULP energy -595178.899041 kJ/mol
# GULP energy per Si atom -12399.560397 kJ/mol
# Density = 1.859750 g / cm^3
# Si number density = 18.639930 Si / 1000 Ang^3
#
#
#
# Elastic Constant Matrix: (Units=GPa)
#
#
# Indices 1 2 3 4 5 6 
#
# 1 184.4855 16.3085 83.3481 0.0000 0.0000 0.0000
# 2 16.3085 7.9317 21.1764 0.0000 0.0000 0.0000
# 3 83.3481 21.1764 169.4206 0.0000 0.0000 0.0000
# 4 0.0000 0.0000 0.0000 -0.6385 0.0000 0.0000
# 5 0.0000 0.0000 0.0000 0.0000 44.4415 0.0000
# 6 0.0000 0.0000 0.0000 0.0000 0.0000 11.8618
#
#
#
# Elastic Compliance Matrix: (Units=1/GPa)
#
#
# Indices 1 2 3 4 5 6 
#
# 1 0.007304 -0.008141 -0.002576 0.000000 0.000000 0.000000
# 2 -0.008141 0.198294 -0.020780 0.000000 0.000000 0.000000
# 3 -0.002576 -0.020780 0.009767 0.000000 0.000000 0.000000
# 4 0.000000 0.000000 0.000000 -1.566099 0.000000 0.000000
# 5 0.000000 0.000000 0.000000 0.000000 0.022501 0.000000
# 6 0.000000 0.000000 0.000000 0.000000 0.000000 0.084304
#
#
# Mechanical properties :
#
#
# Convention : Reuss Voigt Hill
#
# Bulk Modulus (GPa) = 6.56292 67.05596 36.80944
# Shear Modulus (GPa) = -4.42421 27.19995 11.38787
#
# Velocity S-wave (km/s) = -1.54229 3.82413 2.47440
# Velocity P-wave (km/s) = 0.59748 7.45326 5.28716
#
# Compressibility (1/GPa) = 0.15237114
#
# Stress axis : x y z
#
# Youngs Moduli (GPa) = 136.91592 5.04302 102.38606
#
# Poissons Ratio (x) = 0.04105 0.26371
# Poissons Ratio (y) = 1.11461 2.12762
# Poissons Ratio (z) = 0.35264 0.10480
#
# Static dielectric constant tensor:
#      x y z
#    x 3.699510 0.000000 0.000000 
#    y 0.000000 2.578570 0.000000 
#    z 0.000000 0.000000 3.673370 
# 
# 
# High freq. dielectric constant tensor:
#      x y z
#    x 1.746600 0.000000 0.000000 
#    y 0.000000 1.628550 0.000000 
#    z 0.000000 0.000000 1.744990 
# 
# From -- ./inp_files/43456.got.cif
#   From: 2010.03.12/outbox.cif.g09.slc.cpg/sg67_22_cif.got.tgz:43456.got - 2010.04.10 22:41:39.
