data_PCOD8279402
_publ_section_title
;
Structure prediction by ZEFSAII (Michael W. Deem and Ramdas Pophale) SiO2 
 PCOD8279402
Probable space group: C M M A
;
_chemical_formula_sum "Si O2"
_cell_formula_units_Z 80
_cell_length_a 28.776078
_cell_length_b 8.872328
_cell_length_c 15.472709
_cell_angle_alpha 90.000000
_cell_angle_beta 90.000000
_cell_angle_gamma 90.000000
_cell_volume 3950.349753
_symmetry_space_group_name_H-M "C M M A"
_symmetry_group_IT_number 67
_symmetry_cell_setting 'orthorhombic'
loop_
_space_group_symop_operation_xyz
x,y,z
-x,1/2-y,z
x,-y,-z
-x,1/2+y,-z
-x,-y,-z
x,1/2+y,-z
-x,y,z
x,1/2-y,z
1/2+x,1/2+y,z
1/2-x,-y,z
1/2+x,1/2-y,-z
1/2-x,y,-z
1/2-x,1/2-y,-z
1/2+x,y,-z
1/2-x,1/2+y,z
1/2+x,-y,z
loop_
_atom_site_type_symbol
_atom_site_label
_atom_site_fract_x
_atom_site_fract_y
_atom_site_fract_z
Si Si1 0.202398 0.572344 0.145017
Si Si2 0.296596 0.425543 0.345659
Si Si3 0.394310 0.427833 0.412227
Si Si4 0.945252 0.076459 0.759832
Si Si5 0.391007 0.571348 0.086874
O O1 0.202185 0.750000 0.127321
O O2 0.250000 0.500000 0.109807
O O3 0.196319 0.533275 0.245674
O O4 0.160601 0.494420 0.094929
O O5 0.290751 0.250000 0.358783
O O6 0.250000 0.500000 0.383775
O O7 0.341732 0.486492 0.396020
O O8 0.413876 0.500000 0.500000
O O9 0.395516 0.250000 0.422098
O O10 0.426843 0.479099 0.333100
O O11 0.930250 0.250000 0.775744
O O12 0.000000 0.055860 0.761912
O O13 0.923050 0.973596 0.833045
O O14 0.389163 0.750000 0.079262
O O15 0.413157 0.500000 0.000000
#
# Coordination Sequence:
#
# PCOD8279402 Si02
#       5
#    16  16  16  16  16
#     4  10  19  36  60  89 125 164 207 250 300 358
#     4   9  18  33  55  82 119 159 200 244 293 350
#     4  10  21  38  59  89 123 160 201 249 301 360
#     4  10  22  44  69  89 118 159 201 253 315 370
#     4  12  25  41  64  93 125 161 203 251 304 365
#
# _framework density 20.251370000000001
#
# number of rings (size 3 to 8) (size 9 to 14) (size 15 to 20)
#    0.000    1.800    2.000    2.400    0.000    4.400 
#    0.000    4.000    0.000    0.000    0.000    0.000 
#    0.000    0.000    0.000    0.000    0.000    0.000 
#
# Total GULP energy -496142.739817 kJ/mol
# GULP energy per Si atom -12403.568495 kJ/mol
# Density = 2.020528 g / cm^3
# Si number density = 20.251370 Si / 1000 Ang^3
#
#
#
# Elastic Constant Matrix: (Units=GPa)
#
#
# Indices 1 2 3 4 5 6 
#
# 1 97.9302 45.0410 52.2263 0.0000 0.0000 0.0000
# 2 45.0410 96.2298 60.7966 0.0000 0.0000 0.0000
# 3 52.2263 60.7966 131.9065 0.0000 0.0000 0.0000
# 4 0.0000 0.0000 0.0000 32.4441 0.0000 0.0000
# 5 0.0000 0.0000 0.0000 0.0000 2.8231 0.0000
# 6 0.0000 0.0000 0.0000 0.0000 0.0000 26.3708
#
#
#
# Elastic Compliance Matrix: (Units=1/GPa)
#
#
# Indices 1 2 3 4 5 6 
#
# 1 0.014123 -0.004342 -0.003591 0.000000 0.000000 0.000000
# 2 -0.004342 0.015996 -0.005653 0.000000 0.000000 0.000000
# 3 -0.003591 -0.005653 0.011609 0.000000 0.000000 0.000000
# 4 0.000000 0.000000 0.000000 0.030822 0.000000 0.000000
# 5 0.000000 0.000000 0.000000 0.000000 0.354220 0.000000
# 6 0.000000 0.000000 0.000000 0.000000 0.000000 0.037921
#
#
# Mechanical properties :
#
#
# Convention : Reuss Voigt Hill
#
# Bulk Modulus (GPa) = 68.70269 71.35492 70.02881
# Shear Modulus (GPa) = 10.06614 23.52776 16.79695
#
# Velocity S-wave (km/s) = 2.23190 3.41220 2.88309
# Velocity P-wave (km/s) = 6.37499 7.12988 6.76298
#
# Compressibility (1/GPa) = 0.01455547
#
# Stress axis : x y z
#
# Youngs Moduli (GPa) = 70.80533 62.51622 86.14374
#
# Poissons Ratio (x) = 0.27144 0.30931
# Poissons Ratio (y) = 0.30743 0.48701
# Poissons Ratio (z) = 0.25424 0.35343
#
# Static dielectric constant tensor:
#      x y z
#    x 3.765860 0.000000 0.000000 
#    y 0.000000 3.604030 0.000000 
#    z 0.000000 0.000000 3.756000 
# 
# 
# High freq. dielectric constant tensor:
#      x y z
#    x 1.792160 0.000000 0.000000 
#    y 0.000000 1.783160 0.000000 
#    z 0.000000 0.000000 1.795290 
# 
# From -- ./inp_files/32314.got.cif
#   From: 2010.03.12/outbox.cif.g09.slc.cpg/sg67_17_cif.got.tgz:32314.got - 2010.04.10 22:41:39.
