data_PCOD8279182
_publ_section_title
;
Structure prediction by ZEFSAII (Michael W. Deem and Ramdas Pophale) SiO2 
 PCOD8279182
Probable space group: C M M A
;
_chemical_formula_sum "Si O2"
_cell_formula_units_Z 72
_cell_length_a 15.302620
_cell_length_b 8.750771
_cell_length_c 24.867362
_cell_angle_alpha 90.000000
_cell_angle_beta 90.000000
_cell_angle_gamma 90.000000
_cell_volume 3329.981565
_symmetry_space_group_name_H-M "C M M A"
_symmetry_group_IT_number 67
_symmetry_cell_setting 'orthorhombic'
loop_
_space_group_symop_operation_xyz
x,y,z
-x,1/2-y,z
x,-y,-z
-x,1/2+y,-z
-x,-y,-z
x,1/2+y,-z
-x,y,z
x,1/2-y,z
1/2+x,1/2+y,z
1/2-x,-y,z
1/2+x,1/2-y,-z
1/2-x,y,-z
1/2-x,1/2-y,-z
1/2+x,y,-z
1/2-x,1/2+y,z
1/2+x,-y,z
loop_
_atom_site_type_symbol
_atom_site_label
_atom_site_fract_x
_atom_site_fract_y
_atom_site_fract_z
Si Si1 0.500000 0.431677 0.441098
Si Si2 0.104286 0.422031 0.946071
Si Si3 0.340584 0.569454 0.376524
Si Si4 0.603472 0.424852 0.269839
Si Si5 0.895974 0.921438 0.838711
O O1 0.500000 0.250000 0.443451
O O2 0.500000 0.500000 0.500000
O O3 0.415389 0.487965 0.410006
O O4 0.139038 0.250000 0.944172
O O5 0.141842 0.509351 0.893969
O O6 0.000000 0.426989 0.946049
O O7 0.141290 0.500000 0.000000
O O8 0.343721 0.750000 0.385925
O O9 0.250000 0.500000 0.397911
O O10 0.351072 0.532541 0.313534
O O11 0.500000 0.444596 0.274802
O O12 0.631594 0.250000 0.279651
O O13 0.636937 0.477107 0.211286
O O14 0.860410 0.750000 0.831918
O O15 0.000000 0.923039 0.840769
#
# Coordination Sequence:
#
# PCOD8279182 Si02
#       5
#     8  16  16  16  16
#     4  12  26  48  74 104 138 176 219 264 315 372
#     4   9  15  22  32  49  79 122 173 230 294 360
#     4  12  25  43  68  99 134 174 218 266 319 376
#     4  10  19  33  55  82 116 156 201 253 311 373
#     4   9  16  25  39  62  93 133 184 238 297 364
#
# _framework density 21.621741
#
# number of rings (size 3 to 8) (size 9 to 14) (size 15 to 20)
#    0.000    1.778    1.111    5.000    0.000    6.667 
#    0.000    2.222    0.000    0.000    0.000    0.000 
#    0.000    0.889    0.000    8.889    0.000   13.778 
#
# Total GULP energy -446519.814426 kJ/mol
# GULP energy per Si atom -12403.328179 kJ/mol
# Density = 2.157253 g / cm^3
# Si number density = 21.621741 Si / 1000 Ang^3
#
#
#
# Elastic Constant Matrix: (Units=GPa)
#
#
# Indices 1 2 3 4 5 6 
#
# 1 74.1389 43.6820 42.2226 0.0000 0.0000 0.0000
# 2 43.6820 187.7619 59.5402 0.0000 0.0000 0.0000
# 3 42.2226 59.5402 154.5006 0.0000 0.0000 0.0000
# 4 0.0000 0.0000 0.0000 47.3236 0.0000 0.0000
# 5 0.0000 0.0000 0.0000 0.0000 -15.3246 0.0000
# 6 0.0000 0.0000 0.0000 0.0000 0.0000 22.2191
#
#
#
# Elastic Compliance Matrix: (Units=1/GPa)
#
#
# Indices 1 2 3 4 5 6 
#
# 1 0.017229 -0.002865 -0.003604 0.000000 0.000000 0.000000
# 2 -0.002865 0.006544 -0.001739 0.000000 0.000000 0.000000
# 3 -0.003604 -0.001739 0.008128 0.000000 0.000000 0.000000
# 4 0.000000 0.000000 0.000000 0.021131 0.000000 0.000000
# 5 0.000000 0.000000 0.000000 0.000000 -0.065255 0.000000
# 6 0.000000 0.000000 0.000000 0.000000 0.000000 0.045006
#
#
# Mechanical properties :
#
#
# Convention : Reuss Voigt Hill
#
# Bulk Modulus (GPa) = 64.58367 78.58789 71.58578
# Shear Modulus (GPa) = 91.97733 28.90738 60.44236
#
# Velocity S-wave (km/s) = 6.52929 3.66041 5.29293
# Velocity P-wave (km/s) = 9.31541 7.36820 8.39843
#
# Compressibility (1/GPa) = 0.01548379
#
# Stress axis : x y z
#
# Youngs Moduli (GPa) = 58.04145 152.81455 123.03879
#
# Poissons Ratio (x) = 0.43787 0.44346
# Poissons Ratio (y) = 0.16631 0.21394
# Poissons Ratio (z) = 0.20919 0.26571
#
# Static dielectric constant tensor:
#      x y z
#    x 3.535200 0.000000 0.000000 
#    y 0.000000 4.081640 0.000000 
#    z 0.000000 0.000000 3.824950 
# 
# 
# High freq. dielectric constant tensor:
#      x y z
#    x 1.817340 0.000000 0.000000 
#    y 0.000000 1.864270 0.000000 
#    z 0.000000 0.000000 1.857570 
# 
# From -- ./inp_files/44251.got.cif
#   From: 2010.03.12/outbox.cif.g09.slc.cpg/sg67_23_cif.got.tgz:44251.got - 2010.04.10 22:41:39.
