data_PCOD8279630
_publ_section_title
;
Structure prediction by ZEFSAII (Michael W. Deem and Ramdas Pophale) SiO2 
 PCOD8279630
Probable space group: C M M A
;
_chemical_formula_sum "Si O2"
_cell_formula_units_Z 96
_cell_length_a 27.140097
_cell_length_b 8.713390
_cell_length_c 23.739231
_cell_angle_alpha 90.000000
_cell_angle_beta 90.000000
_cell_angle_gamma 90.000000
_cell_volume 5613.906755
_symmetry_space_group_name_H-M "C M M A"
_symmetry_group_IT_number 67
_symmetry_cell_setting 'orthorhombic'
loop_
_space_group_symop_operation_xyz
x,y,z
-x,1/2-y,z
x,-y,-z
-x,1/2+y,-z
-x,-y,-z
x,1/2+y,-z
-x,y,z
x,1/2-y,z
1/2+x,1/2+y,z
1/2-x,-y,z
1/2+x,1/2-y,-z
1/2-x,y,-z
1/2-x,1/2-y,-z
1/2+x,y,-z
1/2-x,1/2+y,z
1/2+x,-y,z
loop_
_atom_site_type_symbol
_atom_site_label
_atom_site_fract_x
_atom_site_fract_y
_atom_site_fract_z
Si Si1 0.557062 0.070326 0.559388
Si Si2 0.443405 0.927161 0.224255
Si Si3 0.197675 0.931617 0.940113
Si Si4 0.801434 0.928560 0.271732
Si Si5 0.356544 0.930969 0.838808
Si Si6 0.100395 0.930636 0.331505
O O1 0.500000 0.034683 0.571737
O O2 0.567992 0.250000 0.559222
O O3 0.573246 0.000000 0.500000
O O4 0.589982 0.988330 0.606057
O O5 0.500000 0.949871 0.207385
O O6 0.427566 0.750000 0.221015
O O7 0.411647 0.025292 0.179997
O O8 0.435760 0.985451 0.287911
O O9 0.202199 0.750000 0.944898
O O10 0.250000 0.000000 0.920637
O O11 0.156320 0.978095 0.895332
O O12 0.181595 0.000000 0.000000
O O13 0.793137 0.750000 0.269355
O O14 0.818896 0.985222 0.210107
O O15 0.842981 0.972620 0.317351
O O16 0.750000 0.000000 0.290280
O O17 0.353714 0.750000 0.849695
O O18 0.090984 0.750000 0.326271
#
# Coordination Sequence:
#
# PCOD8279630 Si02
#       6
#    16  16  16  16  16  16
#     4  10  20  33  50  73  99 128 162 199 242 292
#     4  10  20  33  50  74 102 132 167 205 246 294
#     4  11  21  34  52  75 103 134 168 206 249 296
#     4   9  19  32  48  71  98 128 161 198 240 288
#     4  10  20  34  51  74 102 132 167 205 249 298
#     4  10  20  33  49  72 101 131 164 202 245 292
#
# _framework density 17.100391999999999
#
# number of rings (size 3 to 8) (size 9 to 14) (size 15 to 20)
#    0.000    2.000    0.000    6.000    0.000    9.667 
#    0.000    0.000    0.000    1.000    0.000    3.500 
#    0.000    0.000    0.000    0.000    0.000    0.000 
#
# Total GULP energy -595353.251396 kJ/mol
# GULP energy per Si atom -12403.192737 kJ/mol
# Density = 1.706147 g / cm^3
# Si number density = 17.100392 Si / 1000 Ang^3
#
#
#
# Elastic Constant Matrix: (Units=GPa)
#
#
# Indices 1 2 3 4 5 6 
#
# 1 88.9777 38.8187 52.3854 0.0000 0.0000 0.0000
# 2 38.8187 89.1359 40.5097 0.0000 0.0000 0.0000
# 3 52.3854 40.5097 113.4774 0.0000 0.0000 0.0000
# 4 0.0000 0.0000 0.0000 32.9149 0.0000 0.0000
# 5 0.0000 0.0000 0.0000 0.0000 26.2035 0.0000
# 6 0.0000 0.0000 0.0000 0.0000 0.0000 29.6464
#
#
#
# Elastic Compliance Matrix: (Units=1/GPa)
#
#
# Indices 1 2 3 4 5 6 
#
# 1 0.016842 -0.004537 -0.006155 0.000000 0.000000 0.000000
# 2 -0.004537 0.014614 -0.003122 0.000000 0.000000 0.000000
# 3 -0.006155 -0.003122 0.012768 0.000000 0.000000 0.000000
# 4 0.000000 0.000000 0.000000 0.030381 0.000000 0.000000
# 5 0.000000 0.000000 0.000000 0.000000 0.038163 0.000000
# 6 0.000000 0.000000 0.000000 0.000000 0.000000 0.033731
#
#
# Mechanical properties :
#
#
# Convention : Reuss Voigt Hill
#
# Bulk Modulus (GPa) = 60.26036 61.66874 60.96455
# Shear Modulus (GPa) = 27.83019 28.41143 28.12081
#
# Velocity S-wave (km/s) = 4.03855 4.08051 4.05959
# Velocity P-wave (km/s) = 7.55395 7.63818 7.59618
#
# Compressibility (1/GPa) = 0.01659466
#
# Stress axis : x y z
#
# Youngs Moduli (GPa) = 59.37468 68.42822 78.31833
#
# Poissons Ratio (x) = 0.31049 0.48206
# Poissons Ratio (y) = 0.26941 0.24453
# Poissons Ratio (z) = 0.36546 0.21365
#
# Static dielectric constant tensor:
#      x y z
#    x 3.281830 0.000000 0.000000 
#    y 0.000000 3.295510 0.000000 
#    z 0.000000 0.000000 4.129460 
# 
# 
# High freq. dielectric constant tensor:
#      x y z
#    x 1.646960 0.000000 0.000000 
#    y 0.000000 1.677480 0.000000 
#    z 0.000000 0.000000 1.652160 
# 
# From -- ./inp_files/37124.got.cif
#   From: 2010.03.12/outbox.cif.g09.slc.cpg/sg67_19_cif.got.tgz:37124.got - 2010.04.10 22:41:39.
