data_PCOD8279236
_publ_section_title
;
Structure prediction by ZEFSAII (Michael W. Deem and Ramdas Pophale) SiO2 
 PCOD8279236
Probable space group: C M M A
;
_chemical_formula_sum "Si O2"
_cell_formula_units_Z 68
_cell_length_a 24.322156
_cell_length_b 9.286432
_cell_length_c 13.775853
_cell_angle_alpha 90.000000
_cell_angle_beta 90.000000
_cell_angle_gamma 90.000000
_cell_volume 3111.497472
_symmetry_space_group_name_H-M "C M M A"
_symmetry_group_IT_number 67
_symmetry_cell_setting 'orthorhombic'
loop_
_space_group_symop_operation_xyz
x,y,z
-x,1/2-y,z
x,-y,-z
-x,1/2+y,-z
-x,-y,-z
x,1/2+y,-z
-x,y,z
x,1/2-y,z
1/2+x,1/2+y,z
1/2-x,-y,z
1/2+x,1/2-y,-z
1/2-x,y,-z
1/2-x,1/2-y,-z
1/2+x,y,-z
1/2-x,1/2+y,z
1/2+x,-y,z
loop_
_atom_site_type_symbol
_atom_site_label
_atom_site_fract_x
_atom_site_fract_y
_atom_site_fract_z
Si Si1 0.803788 0.079613 0.637327
Si Si2 0.088518 0.420953 0.410903
Si Si3 0.162640 0.908412 0.149257
Si Si4 0.250000 0.500000 0.000000
Si Si5 0.560582 0.917311 0.192848
O O1 0.803132 0.250000 0.613691
O O2 0.807504 0.047579 0.751952
O O3 0.750000 0.000000 0.597465
O O4 0.852747 0.998164 0.584662
O O5 0.055619 0.500000 0.500000
O O6 0.092310 0.250000 0.428919
O O7 0.061001 0.455412 0.307439
O O8 0.137512 0.750000 0.157312
O O9 0.208805 0.906968 0.065744
O O10 0.109130 0.008030 0.131148
O O11 0.500000 0.962402 0.153587
O O12 0.571019 0.750000 0.177978
#
# Coordination Sequence:
#
# PCOD8279236 Si02
#       5
#    16  16  16   4  16
#     4  10  19  34  53  77 111 152 193 235 288 346
#     4  10  20  34  53  81 114 150 194 242 288 337
#     4  10  22  37  59  90 120 152 192 238 290 349
#     4  12  22  40  62  94 124 152 184 236 294 352
#     4   9  20  40  63  85 116 158 198 239 291 345
#
# _framework density 21.854429
#
# number of rings (size 3 to 8) (size 9 to 14) (size 15 to 20)
#    0.000    2.118    1.176    1.765    0.000    5.176 
#    0.000    2.941    0.000    0.000    0.000    0.000 
#    0.000    0.000    0.000    0.000    0.000    0.000 
#
# Total GULP energy -421317.866943 kJ/mol
# GULP energy per Si atom -12391.701969 kJ/mol
# Density = 2.180469 g / cm^3
# Si number density = 21.854429 Si / 1000 Ang^3
#
#
#
# Elastic Constant Matrix: (Units=GPa)
#
#
# Indices 1 2 3 4 5 6 
#
# 1 144.9784 56.0622 22.3068 0.0000 0.0000 0.0000
# 2 56.0622 101.4753 18.0281 0.0000 0.0000 0.0000
# 3 22.3068 18.0281 75.0416 0.0000 0.0000 0.0000
# 4 0.0000 0.0000 0.0000 21.2756 0.0000 0.0000
# 5 0.0000 0.0000 0.0000 0.0000 4.4671 0.0000
# 6 0.0000 0.0000 0.0000 0.0000 0.0000 23.0636
#
#
#
# Elastic Compliance Matrix: (Units=1/GPa)
#
#
# Indices 1 2 3 4 5 6 
#
# 1 0.008938 -0.004665 -0.001536 0.000000 0.000000 0.000000
# 2 -0.004665 0.012729 -0.001671 0.000000 0.000000 0.000000
# 3 -0.001536 -0.001671 0.014184 0.000000 0.000000 0.000000
# 4 0.000000 0.000000 0.000000 0.047002 0.000000 0.000000
# 5 0.000000 0.000000 0.000000 0.000000 0.223860 0.000000
# 6 0.000000 0.000000 0.000000 0.000000 0.000000 0.043358
#
#
# Mechanical properties :
#
#
# Convention : Reuss Voigt Hill
#
# Bulk Modulus (GPa) = 49.73656 57.14327 53.43992
# Shear Modulus (GPa) = 13.42217 24.76780 19.09498
#
# Velocity S-wave (km/s) = 2.48092 3.37012 2.95911
# Velocity P-wave (km/s) = 5.56903 6.43021 6.01505
#
# Compressibility (1/GPa) = 0.02010594
#
# Stress axis : x y z
#
# Youngs Moduli (GPa) = 111.88363 78.56197 70.50154
#
# Poissons Ratio (x) = 0.36649 0.10830
# Poissons Ratio (y) = 0.52194 0.11783
# Poissons Ratio (z) = 0.17187 0.13130
#
# Static dielectric constant tensor:
#      x y z
#    x 3.944980 0.000000 0.000000 
#    y 0.000000 3.809870 0.000000 
#    z 0.000000 0.000000 4.016730 
# 
# 
# High freq. dielectric constant tensor:
#      x y z
#    x 1.856810 0.000000 0.000000 
#    y 0.000000 1.854720 0.000000 
#    z 0.000000 0.000000 1.855820 
# 
# From -- ./inp_files/30479.got.cif
#   From: 2010.03.12/outbox.cif.g09.slc.cpg/sg67_16_cif.got.tgz:30479.got - 2010.04.10 22:41:39.
