data_PCOD8279646
_publ_section_title
;
Structure prediction by ZEFSAII (Michael W. Deem and Ramdas Pophale) SiO2 
 PCOD8279646
Probable space group: C M M A
;
_chemical_formula_sum "Si O2"
_cell_formula_units_Z 104
_cell_length_a 26.193037
_cell_length_b 8.828812
_cell_length_c 24.469647
_cell_angle_alpha 90.000000
_cell_angle_beta 90.000000
_cell_angle_gamma 90.000000
_cell_volume 5658.689050
_symmetry_space_group_name_H-M "C M M A"
_symmetry_group_IT_number 67
_symmetry_cell_setting 'orthorhombic'
loop_
_space_group_symop_operation_xyz
x,y,z
-x,1/2-y,z
x,-y,-z
-x,1/2+y,-z
-x,-y,-z
x,1/2+y,-z
-x,y,z
x,1/2-y,z
1/2+x,1/2+y,z
1/2-x,-y,z
1/2+x,1/2-y,-z
1/2-x,y,-z
1/2-x,1/2-y,-z
1/2+x,y,-z
1/2-x,1/2+y,z
1/2+x,-y,z
loop_
_atom_site_type_symbol
_atom_site_label
_atom_site_fract_x
_atom_site_fract_y
_atom_site_fract_z
Si Si1 0.942030 0.413789 0.838369
Si Si2 0.057901 0.924421 0.733049
Si Si3 0.796552 0.577543 0.941640
Si Si4 0.401082 0.428950 0.616569
Si Si5 0.909183 0.923679 0.941392
Si Si6 0.304160 0.932747 0.559469
Si Si7 0.000000 0.431968 0.559720
O O1 0.915609 0.250000 0.847665
O O2 0.916548 0.495235 0.786047
O O3 0.943869 0.505559 0.894878
O O4 0.000000 0.392348 0.820813
O O5 0.056793 0.750000 0.748577
O O6 0.093887 0.955987 0.681332
O O7 0.000000 0.978861 0.719524
O O8 0.782018 0.750000 0.949342
O O9 0.750000 0.500000 0.907242
O O10 0.852248 0.556144 0.915767
O O11 0.799459 0.500000 0.000000
O O12 0.400239 0.250000 0.602081
O O13 0.348814 0.510338 0.599203
O O14 0.449180 0.507530 0.588394
O O15 0.923649 0.750000 0.950084
O O16 0.917590 0.000000 0.000000
O O17 0.302069 0.750000 0.557612
O O18 0.316389 0.000000 0.500000
O O19 0.250000 0.000000 0.580354
O O20 0.000000 0.500000 0.500000
O O21 0.000000 0.250000 0.558930
#
# Coordination Sequence:
#
# PCOD8279646 Si02
#       7
#    16  16  16  16  16  16   8
#     4  10  21  35  52  75 102 134 173 217 261 312
#     4   9  18  35  57  79 104 138 176 216 265 322
#     4   9  16  26  43  67  93 122 155 191 236 291
#     4  11  21  37  58  83 113 147 186 231 280 334
#     4  10  20  33  50  73 101 133 169 210 258 316
#     4  11  22  38  58  83 113 152 195 238 282 331
#     4  12  24  36  52  80 118 154 185 224 275 332
#
# _framework density 18.378814999999999
#
# number of rings (size 3 to 8) (size 9 to 14) (size 15 to 20)
#    0.000    1.846    0.769    5.308    0.000    4.308 
#    0.000    0.000    0.000    0.923    0.000    4.308 
#    0.000    0.000    0.000    0.000    0.000    0.000 
#
# Total GULP energy -644376.399964 kJ/mol
# GULP energy per Si atom -12391.853845 kJ/mol
# Density = 1.833698 g / cm^3
# Si number density = 18.378815 Si / 1000 Ang^3
#
#
#
# Elastic Constant Matrix: (Units=GPa)
#
#
# Indices 1 2 3 4 5 6 
#
# 1 86.3838 47.8735 43.3158 0.0000 0.0000 0.0000
# 2 47.8735 156.3141 65.9838 0.0000 0.0000 0.0000
# 3 43.3158 65.9838 118.6445 0.0000 0.0000 0.0000
# 4 0.0000 0.0000 0.0000 25.9462 0.0000 0.0000
# 5 0.0000 0.0000 0.0000 0.0000 13.9192 0.0000
# 6 0.0000 0.0000 0.0000 0.0000 0.0000 29.6998
#
#
#
# Elastic Compliance Matrix: (Units=1/GPa)
#
#
# Indices 1 2 3 4 5 6 
#
# 1 0.015188 -0.003020 -0.003866 0.000000 0.000000 0.000000
# 2 -0.003020 0.008960 -0.003881 0.000000 0.000000 0.000000
# 3 -0.003866 -0.003881 0.011998 0.000000 0.000000 0.000000
# 4 0.000000 0.000000 0.000000 0.038541 0.000000 0.000000
# 5 0.000000 0.000000 0.000000 0.000000 0.071843 0.000000
# 6 0.000000 0.000000 0.000000 0.000000 0.000000 0.033670
#
#
# Mechanical properties :
#
#
# Convention : Reuss Voigt Hill
#
# Bulk Modulus (GPa) = 68.42618 75.07648 71.75133
# Shear Modulus (GPa) = 24.20078 27.52435 25.86256
#
# Velocity S-wave (km/s) = 3.63268 3.87410 3.75533
# Velocity P-wave (km/s) = 7.40992 7.80703 7.61107
#
# Compressibility (1/GPa) = 0.01461429
#
# Stress axis : x y z
#
# Youngs Moduli (GPa) = 65.84078 111.60189 83.34657
#
# Poissons Ratio (x) = 0.33702 0.32218
# Poissons Ratio (y) = 0.19883 0.32345
# Poissons Ratio (z) = 0.25451 0.43310
#
# Static dielectric constant tensor:
#      x y z
#    x 4.637380 0.000000 0.000000 
#    y 0.000000 3.712690 0.000000 
#    z 0.000000 0.000000 3.095350 
# 
# 
# High freq. dielectric constant tensor:
#      x y z
#    x 1.702870 0.000000 0.000000 
#    y 0.000000 1.733400 0.000000 
#    z 0.000000 0.000000 1.691690 
# 
# From -- ./inp_files/42787.got.cif
#   From: 2010.03.12/outbox.cif.g09.slc.cpg/sg67_22_cif.got.tgz:42787.got - 2010.04.10 22:41:39.
