data_PCOD8279193
_publ_section_title
;
Structure prediction by ZEFSAII (Michael W. Deem and Ramdas Pophale) SiO2 
 PCOD8279193
Probable space group: C M M A
;
_chemical_formula_sum "Si O2"
_cell_formula_units_Z 112
_cell_length_a 17.512224
_cell_length_b 28.901937
_cell_length_c 12.179892
_cell_angle_alpha 90.000000
_cell_angle_beta 90.000000
_cell_angle_gamma 90.000000
_cell_volume 6164.696370
_symmetry_space_group_name_H-M "C M M A"
_symmetry_group_IT_number 67
_symmetry_cell_setting 'orthorhombic'
loop_
_space_group_symop_operation_xyz
x,y,z
-x,1/2-y,z
x,-y,-z
-x,1/2+y,-z
-x,-y,-z
x,1/2+y,-z
-x,y,z
x,1/2-y,z
1/2+x,1/2+y,z
1/2-x,-y,z
1/2+x,1/2-y,-z
1/2-x,y,-z
1/2-x,1/2-y,-z
1/2+x,y,-z
1/2-x,1/2+y,z
1/2+x,-y,z
loop_
_atom_site_type_symbol
_atom_site_label
_atom_site_fract_x
_atom_site_fract_y
_atom_site_fract_z
Si Si1 0.912477 0.198636 0.245711
Si Si2 0.338433 0.802161 0.475983
Si Si3 0.412562 0.606448 0.134562
Si Si4 0.588066 0.953850 0.934221
Si Si5 0.830653 0.941922 0.671037
Si Si6 0.344564 0.453338 0.300116
Si Si7 0.087126 0.391674 0.525841
O O1 0.898202 0.250000 0.196771
O O2 0.856208 0.189215 0.347421
O O3 0.895358 0.161166 0.150316
O O4 0.000000 0.193812 0.287472
O O5 0.362598 0.750000 0.509541
O O6 0.250000 0.810613 0.500000
O O7 0.387216 0.838623 0.547063
O O8 0.500000 0.594819 0.164061
O O9 0.360938 0.576329 0.213990
O O10 0.395729 0.591207 0.009709
O O11 0.500000 0.956198 0.896417
O O12 0.642132 0.949597 0.829507
O O13 0.610409 0.000000 0.000000
O O14 0.739996 0.936749 0.671381
O O15 0.861398 0.912587 0.570104
O O16 0.857326 0.994716 0.656993
O O17 0.403675 0.420172 0.362227
O O18 0.000000 0.393128 0.487459
#
# Coordination Sequence:
#
# PCOD8279193 Si02
#       7
#    16  16  16  16  16  16  16
#     4   9  17  31  54  84 112 141 184 233 277 325
#     4  10  20  34  55  82 113 144 177 223 282 340
#     4  10  19  33  56  82 110 144 182 234 284 323
#     4  10  20  36  57  80 109 145 190 233 273 329
#     4  11  22  37  55  80 111 148 188 232 277 334
#     4  11  24  38  54  80 114 153 188 228 277 339
#     4  12  24  37  57  82 114 149 186 230 281 338
#
# _framework density 18.167967000000001
#
# number of rings (size 3 to 8) (size 9 to 14) (size 15 to 20)
#    0.000    1.571    2.857    3.000    0.000    4.857 
#    0.000    0.000    0.000    0.857    0.000    3.000 
#    0.000    0.000    0.000    0.000    0.000    0.000 
#
# Total GULP energy -694505.409207 kJ/mol
# GULP energy per Si atom -12401.882307 kJ/mol
# Density = 1.812662 g / cm^3
# Si number density = 18.167967 Si / 1000 Ang^3
#
#
#
# Elastic Constant Matrix: (Units=GPa)
#
#
# Indices 1 2 3 4 5 6 
#
# 1 77.9272 60.6122 40.5491 0.0000 0.0000 0.0000
# 2 60.6122 127.2701 47.1897 0.0000 0.0000 0.0000
# 3 40.5491 47.1897 81.3319 0.0000 0.0000 0.0000
# 4 0.0000 0.0000 0.0000 28.3302 0.0000 0.0000
# 5 0.0000 0.0000 0.0000 0.0000 13.6679 0.0000
# 6 0.0000 0.0000 0.0000 0.0000 0.0000 27.1400
#
#
#
# Elastic Compliance Matrix: (Units=1/GPa)
#
#
# Indices 1 2 3 4 5 6 
#
# 1 0.022757 -0.008449 -0.006444 0.000000 0.000000 0.000000
# 2 -0.008449 0.013148 -0.003416 0.000000 0.000000 0.000000
# 3 -0.006444 -0.003416 0.017490 0.000000 0.000000 0.000000
# 4 0.000000 0.000000 0.000000 0.035298 0.000000 0.000000
# 5 0.000000 0.000000 0.000000 0.000000 0.073164 0.000000
# 6 0.000000 0.000000 0.000000 0.000000 0.000000 0.036846
#
#
# Mechanical properties :
#
#
# Convention : Reuss Voigt Hill
#
# Bulk Modulus (GPa) = 59.60431 64.80348 62.20390
# Shear Modulus (GPa) = 20.75443 23.03950 21.89696
#
# Velocity S-wave (km/s) = 3.38355 3.56496 3.47544
# Velocity P-wave (km/s) = 6.93853 7.25891 7.10053
#
# Compressibility (1/GPa) = 0.01677731
#
# Stress axis : x y z
#
# Youngs Moduli (GPa) = 43.94270 76.05910 57.17546
#
# Poissons Ratio (x) = 0.64260 0.36842
# Poissons Ratio (y) = 0.37126 0.19532
# Poissons Ratio (z) = 0.28315 0.25983
#
# Static dielectric constant tensor:
#      x y z
#    x 3.335310 0.000000 0.000000 
#    y 0.000000 3.706530 0.000000 
#    z 0.000000 0.000000 3.187340 
# 
# 
# High freq. dielectric constant tensor:
#      x y z
#    x 1.703150 0.000000 0.000000 
#    y 0.000000 1.716410 0.000000 
#    z 0.000000 0.000000 1.680530 
# 
# From -- ./inp_files/18569.got.cif
#   From: 2010.03.12/outbox.cif.g09.slc.cpg/sg67_10_cif.got.tgz:18569.got - 2010.04.10 22:41:39.
