data_PCOD8279825
_publ_section_title
;
Structure prediction by ZEFSAII (Michael W. Deem and Ramdas Pophale) SiO2 
 PCOD8279825
Probable space group: C M M A
;
_chemical_formula_sum "Si O2"
_cell_formula_units_Z 96
_cell_length_a 9.023758
_cell_length_b 19.466970
_cell_length_c 31.120773
_cell_angle_alpha 90.000000
_cell_angle_beta 90.000000
_cell_angle_gamma 90.000000
_cell_volume 5466.837631
_symmetry_space_group_name_H-M "C M M A"
_symmetry_group_IT_number 67
_symmetry_cell_setting 'orthorhombic'
loop_
_space_group_symop_operation_xyz
x,y,z
-x,1/2-y,z
x,-y,-z
-x,1/2+y,-z
-x,-y,-z
x,1/2+y,-z
-x,y,z
x,1/2-y,z
1/2+x,1/2+y,z
1/2-x,-y,z
1/2+x,1/2-y,-z
1/2-x,y,-z
1/2-x,1/2-y,-z
1/2+x,y,-z
1/2-x,1/2+y,z
1/2+x,-y,z
loop_
_atom_site_type_symbol
_atom_site_label
_atom_site_fract_x
_atom_site_fract_y
_atom_site_fract_z
Si Si1 0.325087 0.671610 0.709347
Si Si2 0.172617 0.072668 0.634551
Si Si3 0.672451 0.328499 0.121057
Si Si4 0.327048 0.426498 0.460096
Si Si5 0.323882 0.071349 0.044317
Si Si6 0.332890 0.331677 0.794439
O O1 0.500000 0.666749 0.715002
O O2 0.274784 0.750000 0.701231
O O3 0.267320 0.627117 0.669152
O O4 0.251914 0.640777 0.752416
O O5 0.201279 0.105984 0.587101
O O6 0.000000 0.058804 0.641098
O O7 0.250000 0.000000 0.641309
O O8 0.500000 0.333914 0.131563
O O9 0.719621 0.250000 0.111886
O O10 0.716507 0.371987 0.079520
O O11 0.757018 0.359717 0.162235
O O12 0.500000 0.433572 0.469934
O O13 0.250000 0.500000 0.458628
O O14 0.250000 0.384683 0.500000
O O15 0.500000 0.062098 0.038473
O O16 0.250000 0.000000 0.058917
O O17 0.250000 0.096423 0.000000
O O18 0.500000 0.359163 0.792910
O O19 0.324336 0.250000 0.794901
#
# Coordination Sequence:
#
# PCOD8279825 Si02
#       6
#    16  16  16  16  16  16
#     4   9  17  31  50  68  89 121 157 188 222 271
#     4   9  18  30  45  67  92 118 149 187 230 271
#     4   9  18  33  52  73  96 123 156 193 232 273
#     4   9  15  24  39  60  85 112 145 182 221 267
#     4  10  20  34  52  72  97 129 161 192 228 274
#     4   9  17  29  47  72  97 120 150 190 233 273
#
# _framework density 17.560426
#
# number of rings (size 3 to 8) (size 9 to 14) (size 15 to 20)
#    0.000    2.833    0.000    2.500    0.000    5.000 
#    0.000    0.833    0.000    0.500    0.000    0.000 
#    0.000    0.000    0.000    0.000    0.000    4.500 
#
# Total GULP energy -594935.096642 kJ/mol
# GULP energy per Si atom -12394.481180 kJ/mol
# Density = 1.752046 g / cm^3
# Si number density = 17.560426 Si / 1000 Ang^3
#
#
#
# Elastic Constant Matrix: (Units=GPa)
#
#
# Indices 1 2 3 4 5 6 
#
# 1 77.4700 31.9855 68.7577 0.0000 0.0000 0.0000
# 2 31.9855 57.6318 69.7586 0.0000 0.0000 0.0000
# 3 68.7577 69.7586 185.1988 0.0000 0.0000 0.0000
# 4 0.0000 0.0000 0.0000 29.1923 0.0000 0.0000
# 5 0.0000 0.0000 0.0000 0.0000 25.2554 0.0000
# 6 0.0000 0.0000 0.0000 0.0000 0.0000 17.3792
#
#
#
# Elastic Compliance Matrix: (Units=1/GPa)
#
#
# Indices 1 2 3 4 5 6 
#
# 1 0.019700 -0.003824 -0.005874 0.000000 0.000000 0.000000
# 2 -0.003824 0.032634 -0.010873 0.000000 0.000000 0.000000
# 3 -0.005874 -0.010873 0.011676 0.000000 0.000000 0.000000
# 4 0.000000 0.000000 0.000000 0.034256 0.000000 0.000000
# 5 0.000000 0.000000 0.000000 0.000000 0.039596 0.000000
# 6 0.000000 0.000000 0.000000 0.000000 0.000000 0.057540
#
#
# Mechanical properties :
#
#
# Convention : Reuss Voigt Hill
#
# Bulk Modulus (GPa) = 43.72623 73.47826 58.60224
# Shear Modulus (GPa) = 20.47799 24.35195 22.41497
#
# Velocity S-wave (km/s) = 3.41859 3.72795 3.57662
# Velocity P-wave (km/s) = 6.36685 7.77587 7.10637
#
# Compressibility (1/GPa) = 0.02286957
#
# Stress axis : x y z
#
# Youngs Moduli (GPa) = 50.76121 30.64274 85.64887
#
# Poissons Ratio (x) = 0.11718 0.50306
# Poissons Ratio (y) = 0.19411 0.93122
# Poissons Ratio (z) = 0.29815 0.33316
#
# Static dielectric constant tensor:
#      x y z
#    x 3.319400 0.000000 0.000000 
#    y 0.000000 2.925290 0.000000 
#    z 0.000000 0.000000 3.910260 
# 
# 
# High freq. dielectric constant tensor:
#      x y z
#    x 1.684250 0.000000 0.000000 
#    y 0.000000 1.629350 0.000000 
#    z 0.000000 0.000000 1.700290 
# 
# From -- ./inp_files/40801.got.cif
#   From: 2010.03.12/outbox.cif.g09.slc.cpg/sg67_21_cif.got.tgz:40801.got - 2010.04.10 22:41:39.
