data_PCOD8279130
_publ_section_title
;
Structure prediction by ZEFSAII (Michael W. Deem and Ramdas Pophale) SiO2 
 PCOD8279130
Probable space group: C M M A
;
_chemical_formula_sum "Si O2"
_cell_formula_units_Z 64
_cell_length_a 18.670174
_cell_length_b 15.589743
_cell_length_c 10.778770
_cell_angle_alpha 90.000000
_cell_angle_beta 90.000000
_cell_angle_gamma 90.000000
_cell_volume 3137.303444
_symmetry_space_group_name_H-M "C M M A"
_symmetry_group_IT_number 67
_symmetry_cell_setting 'orthorhombic'
loop_
_space_group_symop_operation_xyz
x,y,z
-x,1/2-y,z
x,-y,-z
-x,1/2+y,-z
-x,-y,-z
x,1/2+y,-z
-x,y,z
x,1/2-y,z
1/2+x,1/2+y,z
1/2-x,-y,z
1/2+x,1/2-y,-z
1/2-x,y,-z
1/2-x,1/2-y,-z
1/2+x,y,-z
1/2-x,1/2+y,z
1/2+x,-y,z
loop_
_atom_site_type_symbol
_atom_site_label
_atom_site_fract_x
_atom_site_fract_y
_atom_site_fract_z
Si Si1 0.080469 0.350973 0.271331
Si Si2 0.080591 0.149390 0.986306
Si Si3 0.281705 0.404709 0.122481
Si Si4 0.223618 0.403024 0.372623
O O1 0.087392 0.250000 0.291989
O O2 0.097810 0.374319 0.128779
O O3 0.137368 0.398619 0.360368
O O4 0.000000 0.381228 0.306101
O O5 0.091104 0.250000 0.963719
O O6 0.000000 0.121516 0.953040
O O7 0.132292 0.096366 0.893827
O O8 0.250000 0.500000 0.126850
O O9 0.259109 0.357571 0.250882
O O10 0.250000 0.356394 0.000000
O O11 0.250000 0.500000 0.377589
O O12 0.250000 0.356973 0.500000
#
# Coordination Sequence:
#
# PCOD8279130 Si02
#       4
#    16  16  16  16
#     4   9  18  34  56  80 107 141 179 217 262 320
#     4   9  18  33  54  81 110 140 174 216 269 319
#     4  10  19  33  53  79 108 133 177 222 261 310
#     4  10  21  37  54  77 110 144 179 218 266 318
#
# _framework density 20.399684000000001
#
# number of rings (size 3 to 8) (size 9 to 14) (size 15 to 20)
#    0.000    2.500    2.500    1.500    0.000    2.000 
#    0.000   11.250    0.000    3.000    0.000    0.000 
#    0.000    0.000    0.000    0.000    0.000    0.000 
#
# Total GULP energy -396529.245183 kJ/mol
# GULP energy per Si atom -12391.538912 kJ/mol
# Density = 2.035325 g / cm^3
# Si number density = 20.399684 Si / 1000 Ang^3
#
#
#
# Elastic Constant Matrix: (Units=GPa)
#
#
# Indices 1 2 3 4 5 6 
#
# 1 197.0833 36.4430 90.7870 0.0000 0.0000 0.0000
# 2 36.4430 38.7739 11.0932 0.0000 0.0000 0.0000
# 3 90.7870 11.0932 171.0474 0.0000 0.0000 0.0000
# 4 0.0000 0.0000 0.0000 3.3639 0.0000 0.0000
# 5 0.0000 0.0000 0.0000 0.0000 30.5974 0.0000
# 6 0.0000 0.0000 0.0000 0.0000 0.0000 37.2906
#
#
#
# Elastic Compliance Matrix: (Units=1/GPa)
#
#
# Indices 1 2 3 4 5 6 
#
# 1 0.008041 -0.006456 -0.003849 0.000000 0.000000 0.000000
# 2 -0.006456 0.031462 0.001386 0.000000 0.000000 0.000000
# 3 -0.003849 0.001386 0.007799 0.000000 0.000000 0.000000
# 4 0.000000 0.000000 0.000000 0.297276 0.000000 0.000000
# 5 0.000000 0.000000 0.000000 0.000000 0.032683 0.000000
# 6 0.000000 0.000000 0.000000 0.000000 0.000000 0.026816
#
#
# Mechanical properties :
#
#
# Convention : Reuss Voigt Hill
#
# Bulk Modulus (GPa) = 33.93942 75.95009 54.94476
# Shear Modulus (GPa) = 11.58111 32.15580 21.86846
#
# Velocity S-wave (km/s) = 2.38525 3.97456 3.27769
# Velocity P-wave (km/s) = 4.92537 7.64033 6.42783
#
# Compressibility (1/GPa) = 0.02946426
#
# Stress axis : x y z
#
# Youngs Moduli (GPa) = 124.36262 31.78423 128.21385
#
# Poissons Ratio (x) = 0.20521 0.49352
# Poissons Ratio (y) = 0.80293 -0.17775
# Poissons Ratio (z) = 0.47870 -0.04407
#
# Static dielectric constant tensor:
#      x y z
#    x 3.966550 0.000000 0.000000 
#    y 0.000000 3.175910 0.000000 
#    z 0.000000 0.000000 5.541470 
# 
# 
# High freq. dielectric constant tensor:
#      x y z
#    x 1.811400 0.000000 0.000000 
#    y 0.000000 1.759150 0.000000 
#    z 0.000000 0.000000 1.781140 
# 
# From -- ./inp_files/17498.got.cif
#   From: 2010.03.12/outbox.cif.g09.slc.cpg/sg67_9_cif.got.tgz:17498.got - 2010.04.10 22:41:39.
