data_PCOD8279661
_publ_section_title
;
Structure prediction by ZEFSAII (Michael W. Deem and Ramdas Pophale) SiO2 
 PCOD8279661
Probable space group: C M M A
;
_chemical_formula_sum "Si O2"
_cell_formula_units_Z 96
_cell_length_a 23.678401
_cell_length_b 17.504084
_cell_length_c 11.733356
_cell_angle_alpha 90.000000
_cell_angle_beta 90.000000
_cell_angle_gamma 90.000000
_cell_volume 4863.109044
_symmetry_space_group_name_H-M "C M M A"
_symmetry_group_IT_number 67
_symmetry_cell_setting 'orthorhombic'
loop_
_space_group_symop_operation_xyz
x,y,z
-x,1/2-y,z
x,-y,-z
-x,1/2+y,-z
-x,-y,-z
x,1/2+y,-z
-x,y,z
x,1/2-y,z
1/2+x,1/2+y,z
1/2-x,-y,z
1/2+x,1/2-y,-z
1/2-x,y,-z
1/2-x,1/2-y,-z
1/2+x,y,-z
1/2-x,1/2+y,z
1/2+x,-y,z
loop_
_atom_site_type_symbol
_atom_site_label
_atom_site_fract_x
_atom_site_fract_y
_atom_site_fract_z
Si Si1 0.383957 0.836790 0.623977
Si Si2 0.337907 0.587546 0.974619
Si Si3 0.343945 0.338686 0.781557
Si Si4 0.935699 0.658429 0.606688
Si Si5 0.436638 0.663730 0.856789
Si Si6 0.780734 0.839765 0.232800
O O1 0.370425 0.750000 0.591184
O O2 0.408620 0.876094 0.509966
O O3 0.431909 0.843342 0.720365
O O4 0.325025 0.872458 0.673057
O O5 0.398326 0.600132 0.915556
O O6 0.289412 0.619054 0.889827
O O7 0.325734 0.500000 0.000000
O O8 0.340903 0.631127 0.092229
O O9 0.355736 0.250000 0.789095
O O10 0.395503 0.374120 0.707931
O O11 0.282855 0.355174 0.722939
O O12 0.936380 0.750000 0.602983
O O13 0.000000 0.628212 0.623204
O O14 0.500000 0.646878 0.895090
O O15 0.418447 0.750000 0.893301
O O16 0.792482 0.750000 0.212441
#
# Coordination Sequence:
#
# PCOD8279661 Si02
#       6
#    16  16  16  16  16  16
#     4   8  14  27  49  77 103 126 161 208 253 296
#     4  11  22  34  50  73 102 135 172 214 259 306
#     4  10  20  33  50  74 104 135 167 206 255 310
#     4   9  17  29  48  76 107 134 159 196 251 310
#     4   9  17  31  53  77 101 135 177 215 249 290
#     4   9  18  33  53  75  99 130 171 216 255 296
#
# _framework density 19.740458
#
# number of rings (size 3 to 8) (size 9 to 14) (size 15 to 20)
#    0.000    2.667    0.000    3.500    0.000    6.333 
#    0.000    5.000    0.000    4.000    0.000   10.500 
#    0.000    0.000    0.000    0.000    0.000    0.000 
#
# Total GULP energy -594806.467621 kJ/mol
# GULP energy per Si atom -12391.801409 kJ/mol
# Density = 1.969553 g / cm^3
# Si number density = 19.740458 Si / 1000 Ang^3
#
#
#
# Elastic Constant Matrix: (Units=GPa)
#
#
# Indices 1 2 3 4 5 6 
#
# 1 146.9831 30.7524 73.0709 0.0000 0.0000 0.0000
# 2 30.7524 24.2646 18.3261 0.0000 0.0000 0.0000
# 3 73.0709 18.3261 98.9609 0.0000 0.0000 0.0000
# 4 0.0000 0.0000 0.0000 -0.6368 0.0000 0.0000
# 5 0.0000 0.0000 0.0000 0.0000 22.0160 0.0000
# 6 0.0000 0.0000 0.0000 0.0000 0.0000 12.6785
#
#
#
# Elastic Compliance Matrix: (Units=1/GPa)
#
#
# Indices 1 2 3 4 5 6 
#
# 1 0.012687 -0.010468 -0.007429 0.000000 0.000000 0.000000
# 2 -0.010468 0.056551 -0.002743 0.000000 0.000000 0.000000
# 3 -0.007429 -0.002743 0.016099 0.000000 0.000000 0.000000
# 4 0.000000 0.000000 0.000000 -1.570447 0.000000 0.000000
# 5 0.000000 0.000000 0.000000 0.000000 0.045421 0.000000
# 6 0.000000 0.000000 0.000000 0.000000 0.000000 0.078873
#
#
# Mechanical properties :
#
#
# Convention : Reuss Voigt Hill
#
# Bulk Modulus (GPa) = 22.69846 57.16748 39.93297
# Shear Modulus (GPa) = -3.83186 16.68217 6.42516
#
# Velocity S-wave (km/s) = -1.39475 2.91017 1.80607
# Velocity P-wave (km/s) = 2.98825 6.34937 4.96207
#
# Compressibility (1/GPa) = 0.04405585
#
# Stress axis : x y z
#
# Youngs Moduli (GPa) = 78.82001 17.68313 62.11697
#
# Poissons Ratio (x) = 0.18511 0.46149
# Poissons Ratio (y) = 0.82511 0.17038
# Poissons Ratio (z) = 0.58558 0.04850
#
# Static dielectric constant tensor:
#      x y z
#    x 3.980820 0.000000 0.000000 
#    y 0.000000 2.686670 0.000000 
#    z 0.000000 0.000000 3.646630 
# 
# 
# High freq. dielectric constant tensor:
#      x y z
#    x 1.786440 0.000000 0.000000 
#    y 0.000000 1.707170 0.000000 
#    z 0.000000 0.000000 1.765690 
# 
# From -- ./inp_files/21965.got.cif
#   From: 2010.03.12/outbox.cif.g09.slc.cpg/sg67_11_cif.got.tgz:21965.got - 2010.04.10 22:41:39.
