data_PCOD8279736
_publ_section_title
;
Structure prediction by ZEFSAII (Michael W. Deem and Ramdas Pophale) SiO2 
 PCOD8279736
Probable space group: C M M A
;
_chemical_formula_sum "Si O2"
_cell_formula_units_Z 88
_cell_length_a 24.684112
_cell_length_b 8.890824
_cell_length_c 21.885491
_cell_angle_alpha 90.000000
_cell_angle_beta 90.000000
_cell_angle_gamma 90.000000
_cell_volume 4803.035713
_symmetry_space_group_name_H-M "C M M A"
_symmetry_group_IT_number 67
_symmetry_cell_setting 'orthorhombic'
loop_
_space_group_symop_operation_xyz
x,y,z
-x,1/2-y,z
x,-y,-z
-x,1/2+y,-z
-x,-y,-z
x,1/2+y,-z
-x,y,z
x,1/2-y,z
1/2+x,1/2+y,z
1/2-x,-y,z
1/2+x,1/2-y,-z
1/2-x,y,-z
1/2-x,1/2-y,-z
1/2+x,y,-z
1/2-x,1/2+y,z
1/2+x,-y,z
loop_
_atom_site_type_symbol
_atom_site_label
_atom_site_fract_x
_atom_site_fract_y
_atom_site_fract_z
Si Si1 0.805962 0.073149 0.157188
Si Si2 0.000000 0.426246 0.565418
Si Si3 0.912176 0.927451 0.337574
Si Si4 0.194314 0.074534 0.298823
Si Si5 0.000000 0.072806 0.892713
Si Si6 0.500000 0.928901 0.756990
Si Si7 0.115299 0.571691 0.062562
O O1 0.804404 0.250000 0.143919
O O2 0.816326 0.036041 0.227962
O O3 0.750000 0.000000 0.134919
O O4 0.853579 0.995077 0.120036
O O5 0.000000 0.500000 0.500000
O O6 0.053935 0.474244 0.602346
O O7 0.000000 0.250000 0.556515
O O8 0.902004 0.750000 0.335232
O O9 0.946078 0.982780 0.278371
O O10 0.854725 0.010515 0.339093
O O11 0.199365 0.250000 0.310303
O O12 0.250000 0.000000 0.321380
O O13 0.947204 0.021590 0.929864
O O14 0.000000 0.250000 0.883645
O O15 0.000000 0.000244 0.824770
O O16 0.500000 0.750000 0.757348
O O17 0.122919 0.750000 0.060707
O O18 0.137684 0.500000 0.000000
#
# Coordination Sequence:
#
# PCOD8279736 Si02
#       7
#    16   8  16  16   8   8  16
#     4  10  21  37  55  77 102 129 165 208 256 310
#     4   9  19  34  54  81 112 149 185 219 256 295
#     4   9  17  31  52  78 108 140 176 212 250 299
#     4  10  20  33  52  78 107 137 168 207 257 308
#     4   9  18  31  50  74  98 127 162 200 250 307
#     4   8  14  27  49  75 100 128 162 203 251 304
#     4  11  22  36  53  72  96 129 168 210 256 308
#
# _framework density 18.321745
#
# number of rings (size 3 to 8) (size 9 to 14) (size 15 to 20)
#    0.000    2.364    0.000    4.091    0.000    4.727 
#    0.000    4.545    0.000    7.091    0.000    3.818 
#    0.000    0.000    0.000    0.000    0.000    0.000 
#
# Total GULP energy -545645.165019 kJ/mol
# GULP energy per Si atom -12401.026478 kJ/mol
# Density = 1.828004 g / cm^3
# Si number density = 18.321745 Si / 1000 Ang^3
#
#
#
# Elastic Constant Matrix: (Units=GPa)
#
#
# Indices 1 2 3 4 5 6 
#
# 1 145.4274 56.1144 44.4217 0.0000 0.0000 0.0000
# 2 56.1144 77.2462 37.6825 0.0000 0.0000 0.0000
# 3 44.4217 37.6825 88.7670 0.0000 0.0000 0.0000
# 4 0.0000 0.0000 0.0000 27.7125 0.0000 0.0000
# 5 0.0000 0.0000 0.0000 0.0000 14.4563 0.0000
# 6 0.0000 0.0000 0.0000 0.0000 0.0000 31.4969
#
#
#
# Elastic Compliance Matrix: (Units=1/GPa)
#
#
# Indices 1 2 3 4 5 6 
#
# 1 0.009947 -0.006050 -0.002409 0.000000 0.000000 0.000000
# 2 -0.006050 0.020007 -0.005465 0.000000 0.000000 0.000000
# 3 -0.002409 -0.005465 0.014791 0.000000 0.000000 0.000000
# 4 0.000000 0.000000 0.000000 0.036085 0.000000 0.000000
# 5 0.000000 0.000000 0.000000 0.000000 0.069174 0.000000
# 6 0.000000 0.000000 0.000000 0.000000 0.000000 0.031749
#
#
# Mechanical properties :
#
#
# Convention : Reuss Voigt Hill
#
# Bulk Modulus (GPa) = 59.18913 65.31975 62.25444
# Shear Modulus (GPa) = 23.23045 26.28127 24.75586
#
# Velocity S-wave (km/s) = 3.56464 3.79150 3.67982
# Velocity P-wave (km/s) = 7.02266 7.40919 7.21852
#
# Compressibility (1/GPa) = 0.01689499
#
# Stress axis : x y z
#
# Youngs Moduli (GPa) = 100.53478 49.98250 67.60785
#
# Poissons Ratio (x) = 0.30242 0.16288
# Poissons Ratio (y) = 0.60828 0.36950
# Poissons Ratio (z) = 0.24221 0.27317
#
# Static dielectric constant tensor:
#      x y z
#    x 3.560330 0.000000 0.000000 
#    y 0.000000 3.182950 0.000000 
#    z 0.000000 0.000000 3.022740 
# 
# 
# High freq. dielectric constant tensor:
#      x y z
#    x 1.718450 0.000000 0.000000 
#    y 0.000000 1.699930 0.000000 
#    z 0.000000 0.000000 1.690810 
# 
# From -- ./inp_files/39636.got.cif
#   From: 2010.03.12/outbox.cif.g09.slc.cpg/sg67_20_cif.got.tgz:39636.got - 2010.04.10 22:41:39.
