data_PCOD8279238
_publ_section_title
;
Structure prediction by ZEFSAII (Michael W. Deem and Ramdas Pophale) SiO2 
 PCOD8279238
Probable space group: C M M A
;
_chemical_formula_sum "Si O2"
_cell_formula_units_Z 88
_cell_length_a 21.102146
_cell_length_b 10.110580
_cell_length_c 21.574960
_cell_angle_alpha 90.000000
_cell_angle_beta 90.000000
_cell_angle_gamma 90.000000
_cell_volume 4603.124195
_symmetry_space_group_name_H-M "C M M A"
_symmetry_group_IT_number 67
_symmetry_cell_setting 'orthorhombic'
loop_
_space_group_symop_operation_xyz
x,y,z
-x,1/2-y,z
x,-y,-z
-x,1/2+y,-z
-x,-y,-z
x,1/2+y,-z
-x,y,z
x,1/2-y,z
1/2+x,1/2+y,z
1/2-x,-y,z
1/2+x,1/2-y,-z
1/2-x,y,-z
1/2-x,1/2-y,-z
1/2+x,y,-z
1/2-x,1/2+y,z
1/2+x,-y,z
loop_
_atom_site_type_symbol
_atom_site_label
_atom_site_fract_x
_atom_site_fract_y
_atom_site_fract_z
Si Si1 0.072794 0.601710 0.679509
Si Si2 0.363118 0.600744 0.444588
Si Si3 0.337763 0.604631 0.731510
Si Si4 0.750000 0.000000 0.630184
Si Si5 0.571559 0.098082 0.056562
Si Si6 0.303210 0.400221 0.130648
O O1 0.097988 0.750000 0.692208
O O2 0.084644 0.566650 0.607505
O O3 0.108198 0.504854 0.726083
O O4 0.000000 0.588153 0.695050
O O5 0.374094 0.500000 0.500000
O O6 0.370782 0.750000 0.470005
O O7 0.293999 0.587716 0.414048
O O8 0.369415 0.750000 0.730538
O O9 0.289379 0.597893 0.674121
O O10 0.301268 0.582716 0.795536
O O11 0.500000 0.075270 0.083728
O O12 0.578054 0.250000 0.033740
O O13 0.625598 0.065630 0.107310
O O14 0.583768 0.000000 0.000000
O O15 0.284959 0.250000 0.111524
O O16 0.250000 0.500000 0.102482
#
# Coordination Sequence:
#
# PCOD8279238 Si02
#       6
#    16  16  16   8  16  16
#     4   9  20  38  55  73 102 139 175 216 270 326
#     4  10  21  34  51  74 100 131 169 215 263 317
#     4  10  20  34  55  81 106 138 178 219 266 319
#     4  10  19  34  54  74 103 136 172 210 262 322
#     4   9  19  37  59  82 112 151 193 235 278 324
#     4  10  21  36  56  85 117 150 186 230 280 329
#
# _framework density 19.117450000000002
#
# number of rings (size 3 to 8) (size 9 to 14) (size 15 to 20)
#    0.000    2.364    0.909    0.818    0.000    8.364 
#    0.000    3.636    0.000    2.182    0.000    0.000 
#    0.000    0.000    0.000    0.000    0.000    0.000 
#
# Total GULP energy -545470.203059 kJ/mol
# GULP energy per Si atom -12397.050070 kJ/mol
# Density = 1.907394 g / cm^3
# Si number density = 19.117450 Si / 1000 Ang^3
#
#
#
# Elastic Constant Matrix: (Units=GPa)
#
#
# Indices 1 2 3 4 5 6 
#
# 1 87.5463 55.8965 13.9792 0.0000 0.0000 0.0000
# 2 55.8965 117.3682 38.9130 0.0000 0.0000 0.0000
# 3 13.9792 38.9130 39.0189 0.0000 0.0000 0.0000
# 4 0.0000 0.0000 0.0000 29.6871 0.0000 0.0000
# 5 0.0000 0.0000 0.0000 0.0000 12.6039 0.0000
# 6 0.0000 0.0000 0.0000 0.0000 0.0000 30.9662
#
#
#
# Elastic Compliance Matrix: (Units=1/GPa)
#
#
# Indices 1 2 3 4 5 6 
#
# 1 0.016630 -0.008881 0.002899 0.000000 0.000000 0.000000
# 2 -0.008881 0.017472 -0.014243 0.000000 0.000000 0.000000
# 3 0.002899 -0.014243 0.038794 0.000000 0.000000 0.000000
# 4 0.000000 0.000000 0.000000 0.033685 0.000000 0.000000
# 5 0.000000 0.000000 0.000000 0.000000 0.079340 0.000000
# 6 0.000000 0.000000 0.000000 0.000000 0.000000 0.032293
#
#
# Mechanical properties :
#
#
# Convention : Reuss Voigt Hill
#
# Bulk Modulus (GPa) = 30.82007 51.27897 41.04952
# Shear Modulus (GPa) = 18.55429 23.66110 21.10769
#
# Velocity S-wave (km/s) = 3.11873 3.52187 3.32641
# Velocity P-wave (km/s) = 5.39677 6.58934 6.02265
#
# Compressibility (1/GPa) = 0.03244639
#
# Stress axis : x y z
#
# Youngs Moduli (GPa) = 60.13193 57.23450 25.77720
#
# Poissons Ratio (x) = 0.50831 -0.07473
# Poissons Ratio (y) = 0.53405 0.36714
# Poissons Ratio (z) = -0.17433 0.81517
#
# Static dielectric constant tensor:
#      x y z
#    x 3.519820 0.000000 0.000000 
#    y 0.000000 3.650090 0.000000 
#    z 0.000000 0.000000 3.272160 
# 
# 
# High freq. dielectric constant tensor:
#      x y z
#    x 1.741060 0.000000 0.000000 
#    y 0.000000 1.751990 0.000000 
#    z 0.000000 0.000000 1.724680 
# 
# From -- ./inp_files/39597.got.cif
#   From: 2010.03.12/outbox.cif.g09.slc.cpg/sg67_20_cif.got.tgz:39597.got - 2010.04.10 22:41:39.
