data_PCOD8279448
_publ_section_title
;
Structure prediction by ZEFSAII (Michael W. Deem and Ramdas Pophale) SiO2 
 PCOD8279448
Probable space group: C M M A
;
_chemical_formula_sum "Si O2"
_cell_formula_units_Z 96
_cell_length_a 19.296934
_cell_length_b 14.974373
_cell_length_c 16.464008
_cell_angle_alpha 90.000000
_cell_angle_beta 90.000000
_cell_angle_gamma 90.000000
_cell_volume 4757.431313
_symmetry_space_group_name_H-M "C M M A"
_symmetry_group_IT_number 67
_symmetry_cell_setting 'orthorhombic'
loop_
_space_group_symop_operation_xyz
x,y,z
-x,1/2-y,z
x,-y,-z
-x,1/2+y,-z
-x,-y,-z
x,1/2+y,-z
-x,y,z
x,1/2-y,z
1/2+x,1/2+y,z
1/2-x,-y,z
1/2+x,1/2-y,-z
1/2-x,y,-z
1/2-x,1/2-y,-z
1/2+x,y,-z
1/2-x,1/2+y,z
1/2+x,-y,z
loop_
_atom_site_type_symbol
_atom_site_label
_atom_site_fract_x
_atom_site_fract_y
_atom_site_fract_z
Si Si1 0.075087 0.647079 0.191893
Si Si2 0.083561 0.750000 0.626970
Si Si3 0.793110 0.410708 0.112873
Si Si4 0.328747 0.401578 0.705836
Si Si5 0.828280 0.250000 0.532417
Si Si6 0.659090 0.150970 0.046289
Si Si7 0.825284 0.894868 0.335862
O O1 0.066323 0.750000 0.170709
O O2 0.109543 0.601967 0.112425
O O3 0.122236 0.639998 0.269803
O O4 0.000000 0.602622 0.208676
O O5 0.111008 0.661579 0.672307
O O6 0.114073 0.750000 0.536924
O O7 0.000000 0.750000 0.625578
O O8 0.750000 0.500000 0.119305
O O9 0.836041 0.400370 0.196245
O O10 0.734752 0.337312 0.089932
O O11 0.844301 0.409665 0.035160
O O12 0.252395 0.364646 0.686886
O O13 0.334880 0.497925 0.661369
O O14 0.750000 0.250000 0.500000
O O15 0.842262 0.157608 0.581176
O O16 0.633395 0.250000 0.023126
#
# Coordination Sequence:
#
# PCOD8279448 Si02
#       7
#    16   8  16  16   8  16  16
#     4  10  20  35  58  90 132 173 219 278 338 394
#     4  12  30  50  68 100 146 183 212 269 355 428
#     4  11  19  33  58  90 124 163 217 279 320 377
#     4  11  23  41  70 100 133 174 228 276 328 396
#     4  12  24  44  74 103 133 171 215 281 344 413
#     4  10  20  30  51  88 125 169 219 271 331 372
#     4  11  21  41  70 106 125 170 228 284 330 397
#
# _framework density 20.178955999999999
#
# number of rings (size 3 to 8) (size 9 to 14) (size 15 to 20)
#    0.000    1.167    5.833    2.000    2.333    2.000 
#    0.000    1.667    0.000    5.000    0.000    0.000 
#    0.000    0.000    0.000    0.000    0.000    0.000 
#
# Total GULP energy -594716.737096 kJ/mol
# GULP energy per Si atom -12389.932023 kJ/mol
# Density = 2.013303 g / cm^3
# Si number density = 20.178956 Si / 1000 Ang^3
#
#
#
# Elastic Constant Matrix: (Units=GPa)
#
#
# Indices 1 2 3 4 5 6 
#
# 1 137.5082 38.2308 74.4159 0.0000 0.0000 0.0000
# 2 38.2308 82.5522 62.1378 0.0000 0.0000 0.0000
# 3 74.4159 62.1378 180.1469 0.0000 0.0000 0.0000
# 4 0.0000 0.0000 0.0000 40.2080 0.0000 0.0000
# 5 0.0000 0.0000 0.0000 0.0000 22.7975 0.0000
# 6 0.0000 0.0000 0.0000 0.0000 0.0000 17.8566
#
#
#
# Elastic Compliance Matrix: (Units=1/GPa)
#
#
# Indices 1 2 3 4 5 6 
#
# 1 0.009598 -0.001973 -0.003284 0.000000 0.000000 0.000000
# 2 -0.001973 0.016767 -0.004968 0.000000 0.000000 0.000000
# 3 -0.003284 -0.004968 0.008622 0.000000 0.000000 0.000000
# 4 0.000000 0.000000 0.000000 0.024871 0.000000 0.000000
# 5 0.000000 0.000000 0.000000 0.000000 0.043864 0.000000
# 6 0.000000 0.000000 0.000000 0.000000 0.000000 0.056002
#
#
# Mechanical properties :
#
#
# Convention : Reuss Voigt Hill
#
# Bulk Modulus (GPa) = 68.79779 83.30847 76.05313
# Shear Modulus (GPa) = 27.02408 31.20059 29.11234
#
# Velocity S-wave (km/s) = 3.66351 3.93643 3.80242
# Velocity P-wave (km/s) = 7.21546 7.87624 7.55308
#
# Compressibility (1/GPa) = 0.01453535
#
# Stress axis : x y z
#
# Youngs Moduli (GPa) = 104.18597 59.64089 115.98878
#
# Poissons Ratio (x) = 0.11766 0.38095
# Poissons Ratio (y) = 0.20554 0.57629
# Poissons Ratio (z) = 0.34219 0.29632
#
# Static dielectric constant tensor:
#      x y z
#    x 3.844770 0.000000 0.000000 
#    y 0.000000 3.863690 0.000000 
#    z 0.000000 0.000000 3.974060 
# 
# 
# High freq. dielectric constant tensor:
#      x y z
#    x 1.757980 0.000000 0.000000 
#    y 0.000000 1.788430 0.000000 
#    z 0.000000 0.000000 1.795000 
# 
# From -- ./inp_files/29365.got.cif
#   From: 2010.03.12/outbox.cif.g09.slc.cpg/sg67_15_cif.got.tgz:29365.got - 2010.04.10 22:41:39.
