data_PCOD8279752
_publ_section_title
;
Structure prediction by ZEFSAII (Michael W. Deem and Ramdas Pophale) SiO2 
 PCOD8279752
Probable space group: C M M A
;
_chemical_formula_sum "Si O2"
_cell_formula_units_Z 96
_cell_length_a 21.678048
_cell_length_b 14.959423
_cell_length_c 14.262469
_cell_angle_alpha 90.000000
_cell_angle_beta 90.000000
_cell_angle_gamma 90.000000
_cell_volume 4625.191616
_symmetry_space_group_name_H-M "C M M A"
_symmetry_group_IT_number 67
_symmetry_cell_setting 'orthorhombic'
loop_
_space_group_symop_operation_xyz
x,y,z
-x,1/2-y,z
x,-y,-z
-x,1/2+y,-z
-x,-y,-z
x,1/2+y,-z
-x,y,z
x,1/2-y,z
1/2+x,1/2+y,z
1/2-x,-y,z
1/2+x,1/2-y,-z
1/2-x,y,-z
1/2-x,1/2-y,-z
1/2+x,y,-z
1/2-x,1/2+y,z
1/2+x,-y,z
loop_
_atom_site_type_symbol
_atom_site_label
_atom_site_fract_x
_atom_site_fract_y
_atom_site_fract_z
Si Si1 0.432923 0.649920 0.254670
Si Si2 0.222522 0.150452 0.102313
Si Si3 0.175375 0.896851 0.602096
Si Si4 0.314366 0.392450 0.394964
Si Si5 0.609436 0.019683 0.894170
Si Si6 0.347096 0.848329 0.799427
O O1 0.500000 0.638002 0.305328
O O2 0.426907 0.750000 0.214545
O O3 0.376197 0.636388 0.325779
O O4 0.435262 0.582496 0.166187
O O5 0.193548 0.250000 0.119464
O O6 0.174648 0.070241 0.110581
O O7 0.275751 0.131366 0.177418
O O8 0.250000 0.146325 0.000000
O O9 0.243945 0.858574 0.620903
O O10 0.158335 0.864593 0.496467
O O11 0.180510 0.001929 0.611792
O O12 0.355585 0.349602 0.313040
O O13 0.610476 0.922476 0.846700
O O14 0.586604 0.000000 0.000000
O O15 0.366326 0.750000 0.837521
#
# Coordination Sequence:
#
# PCOD8279752 Si02
#       6
#    16  16  16  16  16  16
#     4  11  25  44  66  92 120 159 215 266 306 359
#     4  10  20  33  52  87 126 159 201 249 313 381
#     4   9  18  36  62  91 123 159 200 247 304 374
#     4   9  18  34  60  94 126 157 193 241 312 381
#     4  12  23  37  61  81 117 165 206 256 314 362
#     4  11  22  33  52  86 125 160 198 245 303 380
#
# _framework density 20.755897000000001
#
# number of rings (size 3 to 8) (size 9 to 14) (size 15 to 20)
#    0.000    1.667    3.333    3.000    2.333    3.667 
#    0.000    3.333    0.000    0.500    0.000    0.000 
#    0.000    0.000    0.000    0.000    0.000    0.000 
#
# Total GULP energy -594728.131152 kJ/mol
# GULP energy per Si atom -12390.169399 kJ/mol
# Density = 2.070866 g / cm^3
# Si number density = 20.755897 Si / 1000 Ang^3
#
#
#
# Elastic Constant Matrix: (Units=GPa)
#
#
# Indices 1 2 3 4 5 6 
#
# 1 75.2799 33.9433 33.4412 0.0000 0.0000 0.0000
# 2 33.9433 119.7997 43.0031 0.0000 0.0000 0.0000
# 3 33.4412 43.0031 142.2884 0.0000 0.0000 0.0000
# 4 0.0000 0.0000 0.0000 28.3847 0.0000 0.0000
# 5 0.0000 0.0000 0.0000 0.0000 15.2098 0.0000
# 6 0.0000 0.0000 0.0000 0.0000 0.0000 -8.1701
#
#
#
# Elastic Compliance Matrix: (Units=1/GPa)
#
#
# Indices 1 2 3 4 5 6 
#
# 1 0.016103 -0.003594 -0.002698 0.000000 0.000000 0.000000
# 2 -0.003594 0.010165 -0.002228 0.000000 0.000000 0.000000
# 3 -0.002698 -0.002228 0.008335 0.000000 0.000000 0.000000
# 4 0.000000 0.000000 0.000000 0.035230 0.000000 0.000000
# 5 0.000000 0.000000 0.000000 0.000000 0.065747 0.000000
# 6 0.000000 0.000000 0.000000 0.000000 0.000000 -0.122398
#
#
# Mechanical properties :
#
#
# Convention : Reuss Voigt Hill
#
# Bulk Modulus (GPa) = 56.93523 62.01592 59.47557
# Shear Modulus (GPa) = 138.59039 22.21689 80.40364
#
# Velocity S-wave (km/s) = 8.18025 3.27523 6.23072
# Velocity P-wave (km/s) = 10.80335 6.65180 8.97103
#
# Compressibility (1/GPa) = 0.01756382
#
# Stress axis : x y z
#
# Youngs Moduli (GPa) = 62.10050 98.37564 119.97051
#
# Poissons Ratio (x) = 0.35355 0.32373
# Poissons Ratio (y) = 0.22318 0.26723
# Poissons Ratio (z) = 0.16757 0.21913
#
# Static dielectric constant tensor:
#      x y z
#    x 3.704630 0.000000 0.000000 
#    y 0.000000 3.930830 0.000000 
#    z 0.000000 0.000000 4.094710 
# 
# 
# High freq. dielectric constant tensor:
#      x y z
#    x 1.755310 0.000000 0.000000 
#    y 0.000000 1.826770 0.000000 
#    z 0.000000 0.000000 1.823250 
# 
# From -- ./inp_files/29261.got.cif
#   From: 2010.03.12/outbox.cif.g09.slc.cpg/sg67_15_cif.got.tgz:29261.got - 2010.04.10 22:41:39.
