data_PCOD8279946
_publ_section_title
;
Structure prediction by ZEFSAII (Michael W. Deem and Ramdas Pophale) SiO2 
 PCOD8279946
Probable space group: C M M A
;
_chemical_formula_sum "Si O2"
_cell_formula_units_Z 104
_cell_length_a 9.770129
_cell_length_b 21.280270
_cell_length_c 26.105039
_cell_angle_alpha 90.000000
_cell_angle_beta 90.000000
_cell_angle_gamma 90.000000
_cell_volume 5427.524321
_symmetry_space_group_name_H-M "C M M A"
_symmetry_group_IT_number 67
_symmetry_cell_setting 'orthorhombic'
loop_
_space_group_symop_operation_xyz
x,y,z
-x,1/2-y,z
x,-y,-z
-x,1/2+y,-z
-x,-y,-z
x,1/2+y,-z
-x,y,z
x,1/2-y,z
1/2+x,1/2+y,z
1/2-x,-y,z
1/2+x,1/2-y,-z
1/2-x,y,-z
1/2-x,1/2-y,-z
1/2+x,y,-z
1/2-x,1/2+y,z
1/2+x,-y,z
loop_
_atom_site_type_symbol
_atom_site_label
_atom_site_fract_x
_atom_site_fract_y
_atom_site_fract_z
Si Si1 0.343613 0.819228 0.761198
Si Si2 0.841498 0.179366 0.450625
Si Si3 0.154103 0.117392 0.866335
Si Si4 0.352463 0.416984 0.721053
Si Si5 0.654306 0.054282 0.606901
Si Si6 0.750000 0.000000 0.807534
Si Si7 0.339326 0.177501 0.949571
O O1 0.500000 0.825997 0.745192
O O2 0.286902 0.750000 0.751168
O O3 0.323120 0.833464 0.820898
O O4 0.264118 0.865471 0.724330
O O5 0.812442 0.250000 0.428358
O O6 0.750000 0.166957 0.500000
O O7 0.802552 0.125180 0.409582
O O8 0.000000 0.173853 0.466669
O O9 0.271678 0.131983 0.907554
O O10 0.000000 0.124710 0.889369
O O11 0.168145 0.047135 0.844385
O O12 0.500000 0.382990 0.721423
O O13 0.332641 0.453190 0.668004
O O14 0.353233 0.464029 0.769537
O O15 0.500000 0.040487 0.588512
O O16 0.750000 0.000000 0.582051
O O17 0.500000 0.159629 0.957803
O O18 0.327085 0.250000 0.932222
O O19 0.250000 0.166075 0.000000
#
# Coordination Sequence:
#
# PCOD8279946 Si02
#       7
#    16  16  16  16  16   8  16
#     4   9  19  34  51  75 108 143 177 219 272 327
#     4   9  19  37  59  82 111 147 188 233 285 342
#     4  10  20  34  55  79 106 141 179 221 266 317
#     4  10  20  34  54  78 105 142 185 226 270 321
#     4  10  21  36  56  83 112 147 187 234 284 334
#     4  10  20  36  55  78 107 144 186 220 264 320
#     4  10  21  37  58  83 110 139 173 217 269 324
#
# _framework density 19.161591000000001
#
# number of rings (size 3 to 8) (size 9 to 14) (size 15 to 20)
#    0.000    2.308    0.769    1.385    0.000    7.692 
#    0.000    3.462    0.000    3.692    0.000    0.000 
#    0.000    0.000    0.000    0.000    0.000    0.000 
#
# Total GULP energy -644517.914000 kJ/mol
# GULP energy per Si atom -12394.575269 kJ/mol
# Density = 1.911798 g / cm^3
# Si number density = 19.161591 Si / 1000 Ang^3
#
#
#
# Elastic Constant Matrix: (Units=GPa)
#
#
# Indices 1 2 3 4 5 6 
#
# 1 107.4701 57.4599 40.2337 0.0000 0.0000 0.0000
# 2 57.4599 128.5397 37.2442 0.0000 0.0000 0.0000
# 3 40.2337 37.2442 57.4705 0.0000 0.0000 0.0000
# 4 0.0000 0.0000 0.0000 17.6122 0.0000 0.0000
# 5 0.0000 0.0000 0.0000 0.0000 30.5968 0.0000
# 6 0.0000 0.0000 0.0000 0.0000 0.0000 28.7077
#
#
#
# Elastic Compliance Matrix: (Units=1/GPa)
#
#
# Indices 1 2 3 4 5 6 
#
# 1 0.014313 -0.004303 -0.007232 0.000000 0.000000 0.000000
# 2 -0.004303 0.010872 -0.004033 0.000000 0.000000 0.000000
# 3 -0.007232 -0.004033 0.025077 0.000000 0.000000 0.000000
# 4 0.000000 0.000000 0.000000 0.056779 0.000000 0.000000
# 5 0.000000 0.000000 0.000000 0.000000 0.032683 0.000000
# 6 0.000000 0.000000 0.000000 0.000000 0.000000 0.034834
#
#
# Mechanical properties :
#
#
# Convention : Reuss Voigt Hill
#
# Bulk Modulus (GPa) = 52.28490 62.59512 57.44001
# Shear Modulus (GPa) = 23.57742 25.95285 24.76513
#
# Velocity S-wave (km/s) = 3.51159 3.68424 3.59895
# Velocity P-wave (km/s) = 6.61719 7.12994 6.87834
#
# Compressibility (1/GPa) = 0.01912598
#
# Stress axis : x y z
#
# Youngs Moduli (GPa) = 69.86801 91.98154 39.87766
#
# Poissons Ratio (x) = 0.39577 0.28838
# Poissons Ratio (y) = 0.30062 0.16084
# Poissons Ratio (z) = 0.50525 0.37099
#
# Static dielectric constant tensor:
#      x y z
#    x 3.699640 0.000000 0.000000 
#    y 0.000000 3.584550 0.000000 
#    z 0.000000 0.000000 3.248580 
# 
# 
# High freq. dielectric constant tensor:
#      x y z
#    x 1.752980 0.000000 0.000000 
#    y 0.000000 1.745200 0.000000 
#    z 0.000000 0.000000 1.724080 
# 
# From -- ./inp_files/43571.got.cif
#   From: 2010.03.12/outbox.cif.g09.slc.cpg/sg67_22_cif.got.tgz:43571.got - 2010.04.10 22:41:39.
