data_PCOD8279609
_publ_section_title
;
Structure prediction by ZEFSAII (Michael W. Deem and Ramdas Pophale) SiO2 
 PCOD8279609
Probable space group: C M M A
;
_chemical_formula_sum "Si O2"
_cell_formula_units_Z 96
_cell_length_a 18.159791
_cell_length_b 9.962799
_cell_length_c 30.868310
_cell_angle_alpha 90.000000
_cell_angle_beta 90.000000
_cell_angle_gamma 90.000000
_cell_volume 5584.767112
_symmetry_space_group_name_H-M "C M M A"
_symmetry_group_IT_number 67
_symmetry_cell_setting 'orthorhombic'
loop_
_space_group_symop_operation_xyz
x,y,z
-x,1/2-y,z
x,-y,-z
-x,1/2+y,-z
-x,-y,-z
x,1/2+y,-z
-x,y,z
x,1/2-y,z
1/2+x,1/2+y,z
1/2-x,-y,z
1/2+x,1/2-y,-z
1/2-x,y,-z
1/2-x,1/2-y,-z
1/2+x,y,-z
1/2-x,1/2+y,z
1/2+x,-y,z
loop_
_atom_site_type_symbol
_atom_site_label
_atom_site_fract_x
_atom_site_fract_y
_atom_site_fract_z
Si Si1 0.587723 0.600412 0.535881
Si Si2 0.081628 0.090874 0.631633
Si Si3 0.414671 0.402418 0.205117
Si Si4 0.680332 0.593356 0.710396
Si Si5 0.412336 0.599558 0.035832
Si Si6 0.912474 0.900534 0.867979
O O1 0.621290 0.500000 0.500000
O O2 0.500000 0.603972 0.533222
O O3 0.618941 0.750000 0.527067
O O4 0.610658 0.548924 0.583840
O O5 0.075079 0.250000 0.634052
O O6 0.138740 0.039750 0.667541
O O7 0.000000 0.029629 0.640254
O O8 0.500000 0.434959 0.213613
O O9 0.403866 0.250000 0.189395
O O10 0.373515 0.430225 0.249594
O O11 0.380556 0.496881 0.167593
O O12 0.703159 0.750000 0.706369
O O13 0.750000 0.500000 0.717598
O O14 0.500000 0.592278 0.034746
O O15 0.386042 0.750000 0.024697
O O16 0.384379 0.558652 0.083944
O O17 0.377770 0.500000 0.000000
O O18 0.885753 0.750000 0.856492
O O19 0.000000 0.906897 0.867652
#
# Coordination Sequence:
#
# PCOD8279609 Si02
#       6
#    16  16  16  16  16  16
#     4   8  13  22  39  64  90 113 139 174 215 254
#     4   8  14  27  48  69  88 116 152 183 213 255
#     4   9  17  29  46  66  85 109 145 185 219 254
#     4  10  20  33  48  66  89 115 145 182 222 264
#     4   8  13  20  30  47  74 108 141 170 204 248
#     4   8  14  24  37  55  81 111 141 175 216 258
#
# _framework density 17.189616000000001
#
# number of rings (size 3 to 8) (size 9 to 14) (size 15 to 20)
#    0.000    3.500    0.000    2.500    0.000    3.333 
#    0.000    4.167    0.000    3.000    0.000    3.500 
#    0.000    0.667    0.000    7.333    0.000   12.000 
#
# Total GULP energy -594852.919028 kJ/mol
# GULP energy per Si atom -12392.769146 kJ/mol
# Density = 1.715049 g / cm^3
# Si number density = 17.189616 Si / 1000 Ang^3
#
#
#
# Elastic Constant Matrix: (Units=GPa)
#
#
# Indices 1 2 3 4 5 6 
#
# 1 34.7507 30.2986 32.1648 0.0000 0.0000 0.0000
# 2 30.2986 91.3636 86.0557 0.0000 0.0000 0.0000
# 3 32.1648 86.0557 155.7997 0.0000 0.0000 0.0000
# 4 0.0000 0.0000 0.0000 33.2834 0.0000 0.0000
# 5 0.0000 0.0000 0.0000 0.0000 0.2340 0.0000
# 6 0.0000 0.0000 0.0000 0.0000 0.0000 14.5119
#
#
#
# Elastic Compliance Matrix: (Units=1/GPa)
#
#
# Indices 1 2 3 4 5 6 
#
# 1 0.040771 -0.011658 -0.001978 0.000000 0.000000 0.000000
# 2 -0.011658 0.026148 -0.012036 0.000000 0.000000 0.000000
# 3 -0.001978 -0.012036 0.013475 0.000000 0.000000 0.000000
# 4 0.000000 0.000000 0.000000 0.030045 0.000000 0.000000
# 5 0.000000 0.000000 0.000000 0.000000 4.272993 0.000000
# 6 0.000000 0.000000 0.000000 0.000000 0.000000 0.068909
#
#
# Mechanical properties :
#
#
# Convention : Reuss Voigt Hill
#
# Bulk Modulus (GPa) = 34.42261 64.32803 49.37532
# Shear Modulus (GPa) = 1.10782 18.49886 9.80334
#
# Velocity S-wave (km/s) = 0.80366 3.28405 2.39070
# Velocity P-wave (km/s) = 4.57492 7.20305 6.03381
#
# Compressibility (1/GPa) = 0.02905068
#
# Stress axis : x y z
#
# Youngs Moduli (GPa) = 24.52699 38.24357 74.21106
#
# Poissons Ratio (x) = 0.44583 0.14680
# Poissons Ratio (y) = 0.28593 0.89322
# Poissons Ratio (z) = 0.04852 0.46031
#
# Static dielectric constant tensor:
#      x y z
#    x 2.720660 0.000000 0.000000 
#    y 0.000000 3.265330 0.000000 
#    z 0.000000 0.000000 3.648910 
# 
# 
# High freq. dielectric constant tensor:
#      x y z
#    x 1.603070 0.000000 0.000000 
#    y 0.000000 1.648090 0.000000 
#    z 0.000000 0.000000 1.679820 
# 
# From -- ./inp_files/44745.got.cif
#   From: 2010.03.12/outbox.cif.g09.slc.cpg/sg67_23_cif.got.tgz:44745.got - 2010.04.10 22:41:39.
