data_PCOD8279976
_publ_section_title
;
Structure prediction by ZEFSAII (Michael W. Deem and Ramdas Pophale) SiO2 
 PCOD8279976
Probable space group: C M M A
;
_chemical_formula_sum "Si O2"
_cell_formula_units_Z 104
_cell_length_a 26.559536
_cell_length_b 9.223133
_cell_length_c 20.765825
_cell_angle_alpha 90.000000
_cell_angle_beta 90.000000
_cell_angle_gamma 90.000000
_cell_volume 5086.840784
_symmetry_space_group_name_H-M "C M M A"
_symmetry_group_IT_number 67
_symmetry_cell_setting 'orthorhombic'
loop_
_space_group_symop_operation_xyz
x,y,z
-x,1/2-y,z
x,-y,-z
-x,1/2+y,-z
-x,-y,-z
x,1/2+y,-z
-x,y,z
x,1/2-y,z
1/2+x,1/2+y,z
1/2-x,-y,z
1/2+x,1/2-y,-z
1/2-x,y,-z
1/2-x,1/2-y,-z
1/2+x,y,-z
1/2-x,1/2+y,z
1/2+x,-y,z
loop_
_atom_site_type_symbol
_atom_site_label
_atom_site_fract_x
_atom_site_fract_y
_atom_site_fract_z
Si Si1 0.294655 0.917094 0.067286
Si Si2 0.906640 0.581167 0.932257
Si Si3 0.444181 0.592730 0.596051
Si Si4 0.365852 0.000000 0.500000
Si Si5 0.892819 0.420841 0.298897
Si Si6 0.800838 0.588221 0.617016
Si Si7 0.556889 0.082915 0.185863
O O1 0.279406 0.750000 0.058122
O O2 0.350075 0.930201 0.097829
O O3 0.250000 0.000000 0.107769
O O4 0.297731 0.000000 0.000000
O O5 0.921877 0.750000 0.940908
O O6 0.942588 0.500926 0.882015
O O7 0.912013 0.500000 0.000000
O O8 0.500000 0.564254 0.567528
O O9 0.442554 0.750000 0.631366
O O10 0.403141 0.604955 0.539209
O O11 0.432826 0.465990 0.646680
O O12 0.330215 0.086206 0.549161
O O13 0.897801 0.250000 0.286215
O O14 0.837269 0.464368 0.324961
O O15 0.903826 0.507219 0.233842
O O16 0.783566 0.750000 0.630954
O O17 0.750000 0.500000 0.614534
O O18 0.500000 0.071655 0.213173
O O19 0.572736 0.250000 0.175725
#
# Coordination Sequence:
#
# PCOD8279976 Si02
#       7
#    16  16  16   8  16  16  16
#     4   9  16  27  47  75 106 141 179 217 260 313
#     4  10  21  37  58  86 120 156 193 234 282 338
#     4  10  20  34  54  81 114 152 194 240 289 340
#     4  10  20  34  54  82 118 156 196 238 284 336
#     4  10  22  40  60  83 111 145 188 237 289 345
#     4  10  22  38  58  84 114 150 192 236 284 339
#     4  11  24  41  62  87 113 145 188 235 285 343
#
# _framework density 20.444911000000001
#
# number of rings (size 3 to 8) (size 9 to 14) (size 15 to 20)
#    0.000    2.000    0.000    3.692    0.000   10.462 
#    0.000    0.769    0.000    0.000    0.000    0.000 
#    0.000    0.000    0.000    0.000    0.000    0.000 
#
# Total GULP energy -644418.727930 kJ/mol
# GULP energy per Si atom -12392.667845 kJ/mol
# Density = 2.039838 g / cm^3
# Si number density = 20.444911 Si / 1000 Ang^3
#
#
#
# Elastic Constant Matrix: (Units=GPa)
#
#
# Indices 1 2 3 4 5 6 
#
# 1 120.1096 53.9503 43.3566 0.0000 0.0000 0.0000
# 2 53.9503 139.0770 49.3662 0.0000 0.0000 0.0000
# 3 43.3566 49.3662 100.0823 0.0000 0.0000 0.0000
# 4 0.0000 0.0000 0.0000 29.1020 0.0000 0.0000
# 5 0.0000 0.0000 0.0000 0.0000 21.4850 0.0000
# 6 0.0000 0.0000 0.0000 0.0000 0.0000 20.2552
#
#
#
# Elastic Compliance Matrix: (Units=1/GPa)
#
#
# Indices 1 2 3 4 5 6 
#
# 1 0.010860 -0.003082 -0.003184 0.000000 0.000000 0.000000
# 2 -0.003082 0.009591 -0.003396 0.000000 0.000000 0.000000
# 3 -0.003184 -0.003396 0.013046 0.000000 0.000000 0.000000
# 4 0.000000 0.000000 0.000000 0.034362 0.000000 0.000000
# 5 0.000000 0.000000 0.000000 0.000000 0.046544 0.000000
# 6 0.000000 0.000000 0.000000 0.000000 0.000000 0.049370
#
#
# Mechanical properties :
#
#
# Convention : Reuss Voigt Hill
#
# Bulk Modulus (GPa) = 70.55799 72.51278 71.53539
# Shear Modulus (GPa) = 26.62104 28.34151 27.48127
#
# Velocity S-wave (km/s) = 3.61236 3.72726 3.67026
# Velocity P-wave (km/s) = 7.21006 7.35307 7.28192
#
# Compressibility (1/GPa) = 0.01417274
#
# Stress axis : x y z
#
# Youngs Moduli (GPa) = 92.08398 104.26134 76.65154
#
# Poissons Ratio (x) = 0.32138 0.24406
# Poissons Ratio (y) = 0.28384 0.26028
# Poissons Ratio (z) = 0.29320 0.35403
#
# Static dielectric constant tensor:
#      x y z
#    x 4.224390 0.000000 0.000000 
#    y 0.000000 3.786730 0.000000 
#    z 0.000000 0.000000 3.419510 
# 
# 
# High freq. dielectric constant tensor:
#      x y z
#    x 1.808070 0.000000 0.000000 
#    y 0.000000 1.809830 0.000000 
#    z 0.000000 0.000000 1.769200 
# 
# From -- ./inp_files/39965.got.cif
#   From: 2010.03.12/outbox.cif.g09.slc.cpg/sg67_20_cif.got.tgz:39965.got - 2010.04.10 22:41:39.
