data_PCOD8279375
_publ_section_title
;
Structure prediction by ZEFSAII (Michael W. Deem and Ramdas Pophale) SiO2 
 PCOD8279375
Probable space group: C M M A
;
_chemical_formula_sum "Si O2"
_cell_formula_units_Z 112
_cell_length_a 26.570811
_cell_length_b 14.857059
_cell_length_c 14.199605
_cell_angle_alpha 90.000000
_cell_angle_beta 90.000000
_cell_angle_gamma 90.000000
_cell_volume 5605.494383
_symmetry_space_group_name_H-M "C M M A"
_symmetry_group_IT_number 67
_symmetry_cell_setting 'orthorhombic'
loop_
_space_group_symop_operation_xyz
x,y,z
-x,1/2-y,z
x,-y,-z
-x,1/2+y,-z
-x,-y,-z
x,1/2+y,-z
-x,y,z
x,1/2-y,z
1/2+x,1/2+y,z
1/2-x,-y,z
1/2+x,1/2-y,-z
1/2-x,y,-z
1/2-x,1/2-y,-z
1/2+x,y,-z
1/2-x,1/2+y,z
1/2+x,-y,z
loop_
_atom_site_type_symbol
_atom_site_label
_atom_site_fract_x
_atom_site_fract_y
_atom_site_fract_z
Si Si1 0.097638 0.647229 0.413289
Si Si2 0.439677 0.992830 0.731078
Si Si3 0.803121 0.851074 0.216752
Si Si4 0.709165 0.354118 0.426542
Si Si5 0.442821 0.651998 0.395015
Si Si6 0.284883 0.849899 0.083934
Si Si7 0.865539 0.999189 0.891858
O O1 0.091895 0.750000 0.381613
O O2 0.085928 0.593268 0.318117
O O3 0.152240 0.630549 0.462405
O O4 0.059105 0.620520 0.495951
O O5 0.500000 0.982791 0.734247
O O6 0.418835 0.077761 0.672097
O O7 0.417728 0.007762 0.834897
O O8 0.827664 0.750000 0.224209
O O9 0.793808 0.894853 0.320208
O O10 0.747706 0.841886 0.176865
O O11 0.836379 0.912903 0.146862
O O12 0.724192 0.250000 0.417100
O O13 0.750000 0.398924 0.500000
O O14 0.500000 0.661794 0.364555
O O15 0.415810 0.750000 0.383402
O O16 0.304095 0.750000 0.052498
O O17 0.330919 0.911447 0.115302
O O18 0.250000 0.891542 0.000000
O O19 0.882073 0.000000 0.000000
#
# Coordination Sequence:
#
# PCOD8279375 Si02
#       7
#    16  16  16  16  16  16  16
#     4  10  19  35  61  89 120 159 206 252 303 375
#     4  11  24  40  59  86 122 163 210 264 318 369
#     4  10  20  37  60  88 125 162 195 242 305 369
#     4   9  18  33  55  85 122 162 197 236 296 367
#     4   9  19  37  61  85 110 146 196 254 311 368
#     4  10  21  38  63  90 114 148 198 251 305 367
#     4  12  24  38  62  88 119 160 210 264 310 366
#
# _framework density 19.980395999999999
#
# number of rings (size 3 to 8) (size 9 to 14) (size 15 to 20)
#    0.000    1.857    2.857    1.286    0.000    4.000 
#    0.000    2.857    0.000    0.000    0.000    4.000 
#    0.000    0.000    0.000    0.000    0.000    0.000 
#
# Total GULP energy -693794.389895 kJ/mol
# GULP energy per Si atom -12389.185534 kJ/mol
# Density = 1.993492 g / cm^3
# Si number density = 19.980396 Si / 1000 Ang^3
#
#
#
# Elastic Constant Matrix: (Units=GPa)
#
#
# Indices 1 2 3 4 5 6 
#
# 1 84.8764 40.6299 45.5387 0.0000 0.0000 0.0000
# 2 40.6299 90.9567 56.2489 0.0000 0.0000 0.0000
# 3 45.5387 56.2489 144.7171 0.0000 0.0000 0.0000
# 4 0.0000 0.0000 0.0000 13.9081 0.0000 0.0000
# 5 0.0000 0.0000 0.0000 0.0000 42.7125 0.0000
# 6 0.0000 0.0000 0.0000 0.0000 0.0000 16.9175
#
#
#
# Elastic Compliance Matrix: (Units=1/GPa)
#
#
# Indices 1 2 3 4 5 6 
#
# 1 0.015889 -0.005273 -0.002950 0.000000 0.000000 0.000000
# 2 -0.005273 0.016223 -0.004646 0.000000 0.000000 0.000000
# 3 -0.002950 -0.004646 0.009644 0.000000 0.000000 0.000000
# 4 0.000000 0.000000 0.000000 0.071900 0.000000 0.000000
# 5 0.000000 0.000000 0.000000 0.000000 0.023412 0.000000
# 6 0.000000 0.000000 0.000000 0.000000 0.000000 0.059110
#
#
# Mechanical properties :
#
#
# Convention : Reuss Voigt Hill
#
# Bulk Modulus (GPa) = 62.43345 67.26503 64.84924
# Shear Modulus (GPa) = 22.00146 26.58313 24.29229
#
# Velocity S-wave (km/s) = 3.32196 3.65151 3.49062
# Velocity P-wave (km/s) = 6.78447 7.17751 6.98376
#
# Compressibility (1/GPa) = 0.01601705
#
# Stress axis : x y z
#
# Youngs Moduli (GPa) = 62.93692 61.64086 103.68757
#
# Poissons Ratio (x) = 0.32503 0.30591
# Poissons Ratio (y) = 0.33187 0.48177
# Poissons Ratio (z) = 0.18568 0.28640
#
# Static dielectric constant tensor:
#      x y z
#    x 3.467380 0.000000 0.000000 
#    y 0.000000 3.859980 0.000000 
#    z 0.000000 0.000000 3.830570 
# 
# 
# High freq. dielectric constant tensor:
#      x y z
#    x 1.759040 0.000000 0.000000 
#    y 0.000000 1.777870 0.000000 
#    z 0.000000 0.000000 1.780320 
# 
# From -- ./inp_files/30167.got.cif
#   From: 2010.03.12/outbox.cif.g09.slc.cpg/sg67_16_cif.got.tgz:30167.got - 2010.04.10 22:41:39.
