data_PCOD8279403
_publ_section_title
;
Structure prediction by ZEFSAII (Michael W. Deem and Ramdas Pophale) SiO2 
 PCOD8279403
Probable space group: C M M A
;
_chemical_formula_sum "Si O2"
_cell_formula_units_Z 52
_cell_length_a 18.275156
_cell_length_b 19.226420
_cell_length_c 7.371561
_cell_angle_alpha 90.000000
_cell_angle_beta 90.000000
_cell_angle_gamma 90.000000
_cell_volume 2590.114611
_symmetry_space_group_name_H-M "C M M A"
_symmetry_group_IT_number 67
_symmetry_cell_setting 'orthorhombic'
loop_
_space_group_symop_operation_xyz
x,y,z
-x,1/2-y,z
x,-y,-z
-x,1/2+y,-z
-x,-y,-z
x,1/2+y,-z
-x,y,z
x,1/2-y,z
1/2+x,1/2+y,z
1/2-x,-y,z
1/2+x,1/2-y,-z
1/2-x,y,-z
1/2-x,1/2-y,-z
1/2+x,y,-z
1/2-x,1/2+y,z
1/2+x,-y,z
loop_
_atom_site_type_symbol
_atom_site_label
_atom_site_fract_x
_atom_site_fract_y
_atom_site_fract_z
Si Si1 0.086081 0.419599 0.507964
Si Si2 0.159870 0.172356 0.796551
Si Si3 0.680502 0.375552 0.815049
Si Si4 0.750000 0.000000 0.000000
O O1 0.110945 0.500000 0.500000
O O2 0.110791 0.385211 0.696556
O O3 0.122600 0.375645 0.346389
O O4 0.000000 0.412885 0.486044
O O5 0.136326 0.250000 0.737499
O O6 0.245204 0.161450 0.748222
O O7 0.146977 0.164557 0.012300
O O8 0.698249 0.454300 0.872401
#
# Coordination Sequence:
#
# PCOD8279403 Si02
#       4
#    16  16  16   4
#     4  11  24  39  57  85 120 156 192 233 284 341
#     4  10  22  39  60  87 115 146 192 244 287 337
#     4  10  19  36  61  84 113 149 190 236 287 338
#     4   8  16  32  58  88 108 142 192 240 278 328
#
# _framework density 20.076333000000002
#
# number of rings (size 3 to 8) (size 9 to 14) (size 15 to 20)
#    0.000    2.154    0.000    6.462    0.000    6.769 
#    0.000    3.846    0.000    0.000    0.000    0.000 
#    0.000    0.000    0.000    0.000    0.000    0.000 
#
# Total GULP energy -322418.952206 kJ/mol
# GULP energy per Si atom -12400.728931 kJ/mol
# Density = 2.003064 g / cm^3
# Si number density = 20.076333 Si / 1000 Ang^3
#
#
#
# Elastic Constant Matrix: (Units=GPa)
#
#
# Indices 1 2 3 4 5 6 
#
# 1 58.2374 11.5613 35.9415 0.0000 0.0000 0.0000
# 2 11.5613 117.0244 14.0236 0.0000 0.0000 0.0000
# 3 35.9415 14.0236 74.2118 0.0000 0.0000 0.0000
# 4 0.0000 0.0000 0.0000 22.1653 0.0000 0.0000
# 5 0.0000 0.0000 0.0000 0.0000 15.7942 0.0000
# 6 0.0000 0.0000 0.0000 0.0000 0.0000 6.7672
#
#
#
# Elastic Compliance Matrix: (Units=1/GPa)
#
#
# Indices 1 2 3 4 5 6 
#
# 1 0.024611 -0.001026 -0.011726 0.000000 0.000000 0.000000
# 2 -0.001026 0.008786 -0.001163 0.000000 0.000000 0.000000
# 3 -0.011726 -0.001163 0.019374 0.000000 0.000000 0.000000
# 4 0.000000 0.000000 0.000000 0.045116 0.000000 0.000000
# 5 0.000000 0.000000 0.000000 0.000000 0.063315 0.000000
# 6 0.000000 0.000000 0.000000 0.000000 0.000000 0.147772
#
#
# Mechanical properties :
#
#
# Convention : Reuss Voigt Hill
#
# Bulk Modulus (GPa) = 40.09508 41.39181 40.74344
# Shear Modulus (GPa) = 14.48783 21.47514 17.98148
#
# Velocity S-wave (km/s) = 2.68924 3.27414 2.99600
# Velocity P-wave (km/s) = 5.44586 5.91230 5.68387
#
# Compressibility (1/GPa) = 0.02494072
#
# Stress axis : x y z
#
# Youngs Moduli (GPa) = 40.63168 113.81732 51.61674
#
# Poissons Ratio (x) = 0.11681 0.60524
# Poissons Ratio (y) = 0.04170 0.06004
# Poissons Ratio (z) = 0.47643 0.13239
#
# Static dielectric constant tensor:
#      x y z
#    x 3.359120 0.000000 0.000000 
#    y 0.000000 3.700000 0.000000 
#    z 0.000000 0.000000 3.582860 
# 
# 
# High freq. dielectric constant tensor:
#      x y z
#    x 1.757420 0.000000 0.000000 
#    y 0.000000 1.792950 0.000000 
#    z 0.000000 0.000000 1.786380 
# 
# From -- ./inp_files/8996.got.cif
#   From: 2010.03.12/outbox.cif.g09.slc.cpg/sg67_5_cif.got.tgz:8996.got - 2010.04.10 22:41:39.
