data_PCOD8279355
_publ_section_title
;
Structure prediction by ZEFSAII (Michael W. Deem and Ramdas Pophale) SiO2 
 PCOD8279355
Probable space group: C M M A
;
_chemical_formula_sum "Si O2"
_cell_formula_units_Z 96
_cell_length_a 28.483013
_cell_length_b 9.117033
_cell_length_c 20.546500
_cell_angle_alpha 90.000000
_cell_angle_beta 90.000000
_cell_angle_gamma 90.000000
_cell_volume 5335.526820
_symmetry_space_group_name_H-M "C M M A"
_symmetry_group_IT_number 67
_symmetry_cell_setting 'orthorhombic'
loop_
_space_group_symop_operation_xyz
x,y,z
-x,1/2-y,z
x,-y,-z
-x,1/2+y,-z
-x,-y,-z
x,1/2+y,-z
-x,y,z
x,1/2-y,z
1/2+x,1/2+y,z
1/2-x,-y,z
1/2+x,1/2-y,-z
1/2-x,y,-z
1/2-x,1/2-y,-z
1/2+x,y,-z
1/2-x,1/2+y,z
1/2+x,-y,z
loop_
_atom_site_type_symbol
_atom_site_label
_atom_site_fract_x
_atom_site_fract_y
_atom_site_fract_z
Si Si1 0.944613 0.580747 0.684933
Si Si2 0.946365 0.078664 0.935855
Si Si3 0.103105 0.578071 0.195882
Si Si4 0.896520 0.575930 0.434133
Si Si5 0.295681 0.078915 0.385049
Si Si6 0.704938 0.919629 0.763313
O O1 0.929519 0.750000 0.676212
O O2 0.922627 0.517835 0.750483
O O3 0.927178 0.486239 0.624338
O O4 0.000000 0.564210 0.690167
O O5 0.942148 0.250000 0.948078
O O6 0.915898 0.029363 0.874180
O O7 0.000000 0.030926 0.922747
O O8 0.926274 0.000000 0.000000
O O9 0.093571 0.750000 0.210437
O O10 0.158534 0.543417 0.195649
O O11 0.914485 0.500000 0.500000
O O12 0.903920 0.750000 0.437642
O O13 0.841940 0.533998 0.424604
O O14 0.286225 0.250000 0.389260
O O15 0.303621 0.027267 0.310721
O O16 0.250000 0.000000 0.415431
O O17 0.716810 0.750000 0.765020
O O18 0.750000 0.000000 0.794365
#
# Coordination Sequence:
#
# PCOD8279355 Si02
#       6
#    16  16  16  16  16  16
#     4  11  24  39  56  81 108 136 176 224 271 319
#     4   9  18  32  52  79 111 146 180 217 264 315
#     4  10  19  35  58  82 109 143 182 220 264 317
#     4  11  23  40  58  78 105 140 180 221 269 323
#     4   9  18  33  53  77 105 136 171 214 265 318
#     4   9  17  31  51  78 107 136 173 216 263 316
#
# _framework density 17.992598999999998
#
# number of rings (size 3 to 8) (size 9 to 14) (size 15 to 20)
#    0.000    2.167    1.667    1.500    0.000    5.333 
#    0.000    3.333    0.000    0.500    0.000    3.500 
#    0.000    0.000    0.000    0.000    0.000    0.000 
#
# Total GULP energy -595294.825147 kJ/mol
# GULP energy per Si atom -12401.975524 kJ/mol
# Density = 1.795165 g / cm^3
# Si number density = 17.992599 Si / 1000 Ang^3
#
#
#
# Elastic Constant Matrix: (Units=GPa)
#
#
# Indices 1 2 3 4 5 6 
#
# 1 96.9598 53.2224 57.2061 0.0000 0.0000 0.0000
# 2 53.2224 69.6288 52.1409 0.0000 0.0000 0.0000
# 3 57.2061 52.1409 125.6657 0.0000 0.0000 0.0000
# 4 0.0000 0.0000 0.0000 30.5712 0.0000 0.0000
# 5 0.0000 0.0000 0.0000 0.0000 30.2954 0.0000
# 6 0.0000 0.0000 0.0000 0.0000 0.0000 30.6716
#
#
#
# Elastic Compliance Matrix: (Units=1/GPa)
#
#
# Indices 1 2 3 4 5 6 
#
# 1 0.018939 -0.011635 -0.003794 0.000000 0.000000 0.000000
# 2 -0.011635 0.027984 -0.006314 0.000000 0.000000 0.000000
# 3 -0.003794 -0.006314 0.012305 0.000000 0.000000 0.000000
# 4 0.000000 0.000000 0.000000 0.032711 0.000000 0.000000
# 5 0.000000 0.000000 0.000000 0.000000 0.033008 0.000000
# 6 0.000000 0.000000 0.000000 0.000000 0.000000 0.032603
#
#
# Mechanical properties :
#
#
# Convention : Reuss Voigt Hill
#
# Bulk Modulus (GPa) = 63.53033 68.59923 66.06478
# Shear Modulus (GPa) = 24.23856 26.95329 25.59592
#
# Velocity S-wave (km/s) = 3.67432 3.87463 3.77580
# Velocity P-wave (km/s) = 7.30662 7.63060 7.47037
#
# Compressibility (1/GPa) = 0.01574051
#
# Stress axis : x y z
#
# Youngs Moduli (GPa) = 52.80241 35.73462 81.27105
#
# Poissons Ratio (x) = 0.41578 0.30831
# Poissons Ratio (y) = 0.61437 0.51318
# Poissons Ratio (z) = 0.20031 0.22564
#
# Static dielectric constant tensor:
#      x y z
#    x 3.428050 0.000000 0.000000 
#    y 0.000000 4.153620 0.000000 
#    z 0.000000 0.000000 3.268550 
# 
# 
# High freq. dielectric constant tensor:
#      x y z
#    x 1.699530 0.000000 0.000000 
#    y 0.000000 1.697810 0.000000 
#    z 0.000000 0.000000 1.682060 
# 
# From -- ./inp_files/37128.got.cif
#   From: 2010.03.12/outbox.cif.g09.slc.cpg/sg67_19_cif.got.tgz:37128.got - 2010.04.10 22:41:39.
