data_PCOD8279155
_publ_section_title
;
Structure prediction by ZEFSAII (Michael W. Deem and Ramdas Pophale) SiO2 
 PCOD8279155
Probable space group: C M M A
;
_chemical_formula_sum "Si O2"
_cell_formula_units_Z 80
_cell_length_a 11.383228
_cell_length_b 14.822324
_cell_length_c 19.687292
_cell_angle_alpha 90.000000
_cell_angle_beta 90.000000
_cell_angle_gamma 90.000000
_cell_volume 3321.755935
_symmetry_space_group_name_H-M "C M M A"
_symmetry_group_IT_number 67
_symmetry_cell_setting 'orthorhombic'
loop_
_space_group_symop_operation_xyz
x,y,z
-x,1/2-y,z
x,-y,-z
-x,1/2+y,-z
-x,-y,-z
x,1/2+y,-z
-x,y,z
x,1/2-y,z
1/2+x,1/2+y,z
1/2-x,-y,z
1/2+x,1/2-y,-z
1/2-x,y,-z
1/2-x,1/2-y,-z
1/2+x,y,-z
1/2-x,1/2+y,z
1/2+x,-y,z
loop_
_atom_site_type_symbol
_atom_site_label
_atom_site_fract_x
_atom_site_fract_y
_atom_site_fract_z
Si Si1 0.367350 0.901967 0.968035
Si Si2 0.000000 0.856590 0.801920
Si Si3 0.729474 0.857356 0.425294
Si Si4 0.371604 0.142653 0.300351
Si Si5 0.252994 0.143610 0.164502
Si Si6 0.000000 0.357676 0.350747
O O1 0.500000 0.857850 0.978508
O O2 0.338518 0.907534 0.887948
O O3 0.250000 0.850514 0.000000
O O4 0.371797 0.000000 0.000000
O O5 0.884152 0.884476 0.845050
O O6 0.000000 0.750000 0.791834
O O7 0.000000 0.898274 0.725783
O O8 0.727317 0.750000 0.430377
O O9 0.750000 0.899375 0.500000
O O10 0.830370 0.891777 0.374101
O O11 0.609968 0.894083 0.392995
O O12 0.500000 0.102439 0.286588
O O13 0.372966 0.250000 0.300906
O O14 0.286333 0.110704 0.240009
O O15 0.272753 0.250000 0.154627
O O16 0.000000 0.250000 0.346598
#
# Coordination Sequence:
#
# PCOD8279155 Si02
#       6
#    16   8  16  16  16   8
#     4  10  23  42  61  82 109 140 172 213 271 335
#     4   9  16  28  47  73 103 136 179 235 283 323
#     4   9  16  22  31  50  81 125 173 220 266 313
#     4   9  16  25  38  59  88 124 170 220 265 309
#     4  10  19  33  54  79 106 138 181 229 275 322
#     4   9  14  24  36  51  83 126 175 225 272 317
#
# _framework density 24.083648
#
# number of rings (size 3 to 8) (size 9 to 14) (size 15 to 20)
#    0.000    2.600    2.000    0.600    2.800    1.600 
#    0.000    0.000    0.000    0.000    0.000    0.000 
#    0.000    0.000    0.000    3.600    0.000   43.600 
#
# Total GULP energy -495530.477392 kJ/mol
# GULP energy per Si atom -12388.261935 kJ/mol
# Density = 2.402883 g / cm^3
# Si number density = 24.083648 Si / 1000 Ang^3
#
#
#
# Elastic Constant Matrix: (Units=GPa)
#
#
# Indices 1 2 3 4 5 6 
#
# 1 221.3259 7.1877 63.7808 0.0000 0.0000 0.0000
# 2 7.1877 28.2534 19.0916 0.0000 0.0000 0.0000
# 3 63.7808 19.0916 150.6770 0.0000 0.0000 0.0000
# 4 0.0000 0.0000 0.0000 -45.7698 0.0000 0.0000
# 5 0.0000 0.0000 0.0000 0.0000 42.6957 0.0000
# 6 0.0000 0.0000 0.0000 0.0000 0.0000 4.0682
#
#
#
# Elastic Compliance Matrix: (Units=1/GPa)
#
#
# Indices 1 2 3 4 5 6 
#
# 1 0.005147 0.000178 -0.002201 0.000000 0.000000 0.000000
# 2 0.000178 0.038714 -0.004981 0.000000 0.000000 0.000000
# 3 -0.002201 -0.004981 0.008200 0.000000 0.000000 0.000000
# 4 0.000000 0.000000 0.000000 -0.021848 0.000000 0.000000
# 5 0.000000 0.000000 0.000000 0.000000 0.023422 0.000000
# 6 0.000000 0.000000 0.000000 0.000000 0.000000 0.245810
#
#
# Mechanical properties :
#
#
# Convention : Reuss Voigt Hill
#
# Bulk Modulus (GPa) = 26.27916 64.48626 45.38271
# Shear Modulus (GPa) = 15.33106 20.87856 18.10481
#
# Velocity S-wave (km/s) = 2.52578 2.94754 2.74477
# Velocity P-wave (km/s) = 4.40924 6.19823 5.37864
#
# Compressibility (1/GPa) = 0.03805297
#
# Stress axis : x y z
#
# Youngs Moduli (GPa) = 194.29689 25.83029 121.95823
#
# Poissons Ratio (x) = -0.00460 0.26845
# Poissons Ratio (y) = -0.03459 0.60743
# Poissons Ratio (z) = 0.42768 0.12865
#
# Static dielectric constant tensor:
#      x y z
#    x 5.282810 0.000000 0.000000 
#    y 0.000000 3.524110 0.000000 
#    z 0.000000 0.000000 4.504740 
# 
# 
# High freq. dielectric constant tensor:
#      x y z
#    x 1.971220 0.000000 0.000000 
#    y 0.000000 1.891780 0.000000 
#    z 0.000000 0.000000 1.963190 
# 
# From -- ./inp_files/32874.got.cif
#   From: 2010.03.12/outbox.cif.g09.slc.cpg/sg67_17_cif.got.tgz:32874.got - 2010.04.10 22:41:39.
