data_PCOD8279437
_publ_section_title
;
Structure prediction by ZEFSAII (Michael W. Deem and Ramdas Pophale) SiO2 
 PCOD8279437
Probable space group: C M M A
;
_chemical_formula_sum "Si O2"
_cell_formula_units_Z 112
_cell_length_a 14.677394
_cell_length_b 26.849969
_cell_length_c 18.019676
_cell_angle_alpha 90.000000
_cell_angle_beta 90.000000
_cell_angle_gamma 90.000000
_cell_volume 7101.330397
_symmetry_space_group_name_H-M "C M M A"
_symmetry_group_IT_number 67
_symmetry_cell_setting 'orthorhombic'
loop_
_space_group_symop_operation_xyz
x,y,z
-x,1/2-y,z
x,-y,-z
-x,1/2+y,-z
-x,-y,-z
x,1/2+y,-z
-x,y,z
x,1/2-y,z
1/2+x,1/2+y,z
1/2-x,-y,z
1/2+x,1/2-y,-z
1/2-x,y,-z
1/2-x,1/2-y,-z
1/2+x,y,-z
1/2-x,1/2+y,z
1/2+x,-y,z
loop_
_atom_site_type_symbol
_atom_site_label
_atom_site_fract_x
_atom_site_fract_y
_atom_site_fract_z
Si Si1 0.775200 0.109816 0.852084
Si Si2 0.898795 0.941069 0.420663
Si Si3 0.893187 0.193596 0.914584
Si Si4 0.398807 0.547107 0.954119
Si Si5 0.747814 0.059385 0.304102
Si Si6 0.101176 0.440756 0.416401
Si Si7 0.399928 0.639066 0.059024
O O1 0.842208 0.157155 0.857081
O O2 0.821269 0.063127 0.895233
O O3 0.758515 0.091440 0.769589
O O4 0.677381 0.128868 0.880718
O O5 0.835694 0.922327 0.354593
O O6 0.865394 0.921977 0.502071
O O7 0.000000 0.920748 0.405262
O O8 0.897524 0.000186 0.419874
O O9 0.864037 0.250000 0.897100
O O10 0.000000 0.184816 0.902262
O O11 0.868326 0.181819 0.000777
O O12 0.500000 0.536395 0.917716
O O13 0.362227 0.500000 0.000000
O O14 0.412604 0.589797 0.012685
O O15 0.836501 0.077496 0.349044
O O16 0.750000 0.000000 0.287744
O O17 0.000000 0.420638 0.400237
O O18 0.500000 0.652128 0.094796
#
# Coordination Sequence:
#
# PCOD8279437 Si02
#       7
#    16  16  16  16  16  16  16
#     4  11  21  29  45  68  92 122 148 188 230 286
#     4   8  14  26  44  60  79 115 158 198 224 256
#     4   9  18  35  56  72  85 106 147 203 252 285
#     4   9  18  31  45  58  78 115 157 191 220 260
#     4  10  20  28  37  63  96 125 152 183 223 266
#     4   8  14  27  44  59  80 117 161 191 222 256
#     4   9  19  32  44  63  84 111 152 190 224 266
#
# _framework density 15.771693000000001
#
# number of rings (size 3 to 8) (size 9 to 14) (size 15 to 20)
#    0.000    2.857    0.000    4.286    2.000    5.143 
#    0.000    0.000    0.000    0.000    0.000    0.000 
#    0.000    2.286    0.000    3.143    0.000    1.000 
#
# Total GULP energy -693740.598167 kJ/mol
# GULP energy per Si atom -12388.224967 kJ/mol
# Density = 1.573580 g / cm^3
# Si number density = 15.771693 Si / 1000 Ang^3
#
#
#
# Elastic Constant Matrix: (Units=GPa)
#
#
# Indices 1 2 3 4 5 6 
#
# 1 104.1605 34.8220 68.5153 0.0000 0.0000 0.0000
# 2 34.8220 46.7866 52.7593 0.0000 0.0000 0.0000
# 3 68.5153 52.7593 117.3410 0.0000 0.0000 0.0000
# 4 0.0000 0.0000 0.0000 14.4929 0.0000 0.0000
# 5 0.0000 0.0000 0.0000 0.0000 23.8223 0.0000
# 6 0.0000 0.0000 0.0000 0.0000 0.0000 14.3360
#
#
#
# Elastic Compliance Matrix: (Units=1/GPa)
#
#
# Indices 1 2 3 4 5 6 
#
# 1 0.015759 -0.002744 -0.007968 0.000000 0.000000 0.000000
# 2 -0.002744 0.043834 -0.018107 0.000000 0.000000 0.000000
# 3 -0.007968 -0.018107 0.021316 0.000000 0.000000 0.000000
# 4 0.000000 0.000000 0.000000 0.068999 0.000000 0.000000
# 5 0.000000 0.000000 0.000000 0.000000 0.041977 0.000000
# 6 0.000000 0.000000 0.000000 0.000000 0.000000 0.069755
#
#
# Mechanical properties :
#
#
# Convention : Reuss Voigt Hill
#
# Bulk Modulus (GPa) = 42.97038 64.49793 53.73416
# Shear Modulus (GPa) = 15.28890 18.00967 16.64929
#
# Velocity S-wave (km/s) = 3.11688 3.38286 3.25259
# Velocity P-wave (km/s) = 6.34489 7.49946 6.94621
#
# Compressibility (1/GPa) = 0.02327184
#
# Stress axis : x y z
#
# Youngs Moduli (GPa) = 63.45526 22.81341 46.91336
#
# Poissons Ratio (x) = 0.06260 0.37381
# Poissons Ratio (y) = 0.17411 0.84944
# Poissons Ratio (z) = 0.50561 0.41307
#
# Static dielectric constant tensor:
#      x y z
#    x 3.561790 0.000000 0.000000 
#    y 0.000000 2.538320 0.000000 
#    z 0.000000 0.000000 3.143550 
# 
# 
# High freq. dielectric constant tensor:
#      x y z
#    x 1.627780 0.000000 0.000000 
#    y 0.000000 1.554760 0.000000 
#    z 0.000000 0.000000 1.581740 
# 
# From -- ./inp_files/27747.got.cif
#   From: 2010.03.12/outbox.cif.g09.slc.cpg/sg67_14_cif.got.tgz:27747.got - 2010.04.10 22:41:39.
