data_PCOD8279272
_publ_section_title
;
Structure prediction by ZEFSAII (Michael W. Deem and Ramdas Pophale) SiO2 
 PCOD8279272
Probable space group: C M M A
;
_chemical_formula_sum "Si O2"
_cell_formula_units_Z 112
_cell_length_a 19.313223
_cell_length_b 25.937148
_cell_length_c 11.772968
_cell_angle_alpha 90.000000
_cell_angle_beta 90.000000
_cell_angle_gamma 90.000000
_cell_volume 5897.431957
_symmetry_space_group_name_H-M "C M M A"
_symmetry_group_IT_number 67
_symmetry_cell_setting 'orthorhombic'
loop_
_space_group_symop_operation_xyz
x,y,z
-x,1/2-y,z
x,-y,-z
-x,1/2+y,-z
-x,-y,-z
x,1/2+y,-z
-x,y,z
x,1/2-y,z
1/2+x,1/2+y,z
1/2-x,-y,z
1/2+x,1/2-y,-z
1/2-x,y,-z
1/2-x,1/2-y,-z
1/2+x,y,-z
1/2-x,1/2+y,z
1/2+x,-y,z
loop_
_atom_site_type_symbol
_atom_site_label
_atom_site_fract_x
_atom_site_fract_y
_atom_site_fract_z
Si Si1 0.078572 0.624643 0.159686
Si Si2 0.080662 0.461754 0.669892
Si Si3 0.217794 0.191092 0.114067
Si Si4 0.828833 0.394415 0.512631
Si Si5 0.577245 0.143067 0.904597
Si Si6 0.578831 0.919670 0.316058
Si Si7 0.178597 0.189213 0.701920
O O1 0.099897 0.570430 0.217056
O O2 0.117433 0.673829 0.212327
O O3 0.000000 0.637668 0.186510
O O4 0.092327 0.617854 0.026499
O O5 0.126915 0.439975 0.568575
O O6 0.100907 0.520792 0.686967
O O7 0.000000 0.455724 0.637236
O O8 0.240011 0.250000 0.108471
O O9 0.134930 0.186179 0.119776
O O10 0.251744 0.170449 0.231668
O O11 0.250000 0.164054 0.000000
O O12 0.750000 0.413384 0.500000
O O13 0.867627 0.386100 0.392050
O O14 0.828898 0.341010 0.583118
O O15 0.500000 0.168042 0.899822
O O16 0.584907 0.097939 0.813666
O O17 0.500000 0.912076 0.360715
O O18 0.176391 0.250000 0.674427
#
# Coordination Sequence:
#
# PCOD8279272 Si02
#       7
#    16  16  16  16  16  16  16
#     4   9  18  33  54  83 112 138 175 224 273 321
#     4   9  19  36  57  79 106 143 185 224 266 323
#     4  10  19  34  56  79 107 142 177 216 270 333
#     4  11  22  36  56  79 107 141 180 234 272 314
#     4  10  20  34  55  83 114 143 177 225 274 321
#     4  10  21  37  56  79 109 149 187 220 268 327
#     4  10  21  37  57  80 105 141 183 222 272 328
#
# _framework density 18.991316000000001
#
# number of rings (size 3 to 8) (size 9 to 14) (size 15 to 20)
#    0.000    2.143    1.429    1.714    0.000    4.286 
#    0.000    5.000    0.000    0.857    0.000    0.000 
#    0.000    0.000    0.000    0.000    0.000    0.000 
#
# Total GULP energy -694152.638453 kJ/mol
# GULP energy per Si atom -12395.582830 kJ/mol
# Density = 1.894809 g / cm^3
# Si number density = 18.991316 Si / 1000 Ang^3
#
#
#
# Elastic Constant Matrix: (Units=GPa)
#
#
# Indices 1 2 3 4 5 6 
#
# 1 110.4413 35.1842 41.8836 0.0000 0.0000 0.0000
# 2 35.1842 68.3565 32.0882 0.0000 0.0000 0.0000
# 3 41.8836 32.0882 90.2803 0.0000 0.0000 0.0000
# 4 0.0000 0.0000 0.0000 17.2416 0.0000 0.0000
# 5 0.0000 0.0000 0.0000 0.0000 31.8866 0.0000
# 6 0.0000 0.0000 0.0000 0.0000 0.0000 21.5010
#
#
#
# Elastic Compliance Matrix: (Units=1/GPa)
#
#
# Indices 1 2 3 4 5 6 
#
# 1 0.011937 -0.004254 -0.004026 0.000000 0.000000 0.000000
# 2 -0.004254 0.019075 -0.004806 0.000000 0.000000 0.000000
# 3 -0.004026 -0.004806 0.014652 0.000000 0.000000 0.000000
# 4 0.000000 0.000000 0.000000 0.057999 0.000000 0.000000
# 5 0.000000 0.000000 0.000000 0.000000 0.031361 0.000000
# 6 0.000000 0.000000 0.000000 0.000000 0.000000 0.046510
#
#
# Mechanical properties :
#
#
# Convention : Reuss Voigt Hill
#
# Bulk Modulus (GPa) = 51.30302 54.15445 52.72874
# Shear Modulus (GPa) = 23.34230 24.78731 24.06481
#
# Velocity S-wave (km/s) = 3.50966 3.61666 3.56356
# Velocity P-wave (km/s) = 6.59517 6.78363 6.69006
#
# Compressibility (1/GPa) = 0.01949203
#
# Stress axis : x y z
#
# Youngs Moduli (GPa) = 83.77624 52.42455 68.24788
#
# Poissons Ratio (x) = 0.22302 0.27474
# Poissons Ratio (y) = 0.35640 0.32801
# Poissons Ratio (z) = 0.33725 0.25196
#
# Static dielectric constant tensor:
#      x y z
#    x 3.679980 0.000000 0.000000 
#    y 0.000000 3.161070 0.000000 
#    z 0.000000 0.000000 3.753100 
# 
# 
# High freq. dielectric constant tensor:
#      x y z
#    x 1.746620 0.000000 0.000000 
#    y 0.000000 1.710450 0.000000 
#    z 0.000000 0.000000 1.749940 
# 
# From -- ./inp_files/21112.got.cif
#   From: 2010.03.12/outbox.cif.g09.slc.cpg/sg67_11_cif.got.tgz:21112.got - 2010.04.10 22:41:39.
