data_PCOD8279103
_publ_section_title
;
Structure prediction by ZEFSAII (Michael W. Deem and Ramdas Pophale) SiO2 
 PCOD8279103
Probable space group: C M M A
;
_chemical_formula_sum "Si O2"
_cell_formula_units_Z 104
_cell_length_a 30.719560
_cell_length_b 9.101359
_cell_length_c 19.357470
_cell_angle_alpha 90.000000
_cell_angle_beta 90.000000
_cell_angle_gamma 90.000000
_cell_volume 5412.150080
_symmetry_space_group_name_H-M "C M M A"
_symmetry_group_IT_number 67
_symmetry_cell_setting 'orthorhombic'
loop_
_space_group_symop_operation_xyz
x,y,z
-x,1/2-y,z
x,-y,-z
-x,1/2+y,-z
-x,-y,-z
x,1/2+y,-z
-x,y,z
x,1/2-y,z
1/2+x,1/2+y,z
1/2-x,-y,z
1/2+x,1/2-y,-z
1/2-x,y,-z
1/2-x,1/2-y,-z
1/2+x,y,-z
1/2-x,1/2+y,z
1/2+x,-y,z
loop_
_atom_site_type_symbol
_atom_site_label
_atom_site_fract_x
_atom_site_fract_y
_atom_site_fract_z
Si Si1 0.500000 0.427783 0.076861
Si Si2 0.049206 0.078611 0.570177
Si Si3 0.705863 0.920783 0.728707
Si Si4 0.067811 0.914029 0.826079
Si Si5 0.608689 0.576749 0.698151
Si Si6 0.707790 0.579901 0.888543
Si Si7 0.869516 0.910603 0.943078
O O1 0.500000 0.250000 0.069393
O O2 0.539914 0.482682 0.123601
O O3 0.500000 0.500000 0.000000
O O4 0.050726 0.250000 0.555594
O O5 0.084859 0.034550 0.627139
O O6 0.000000 0.032080 0.593097
O O7 0.063155 0.000000 0.500000
O O8 0.713685 0.750000 0.714756
O O9 0.659812 0.971894 0.693500
O O10 0.699018 0.958452 0.808622
O O11 0.750000 0.000000 0.699912
O O12 0.047209 0.750000 0.812563
O O13 0.111754 0.890584 0.867522
O O14 0.079898 0.993306 0.755189
O O15 0.606072 0.750000 0.714883
O O16 0.713787 0.750000 0.899861
O O17 0.750000 0.500000 0.915704
O O18 0.670729 0.519531 0.937274
O O19 0.857608 0.750000 0.972366
O O20 0.899319 0.000000 0.000000
#
# Coordination Sequence:
#
# PCOD8279103 Si02
#       7
#     8  16  16  16  16  16  16
#     4  12  26  44  64  82 111 152 195 244 298 356
#     4   9  19  36  59  88 123 159 195 230 281 344
#     4   9  18  32  53  80 112 148 189 237 289 345
#     4  11  24  40  59  86 114 144 189 239 287 345
#     4  10  20  36  59  89 120 155 196 242 292 346
#     4  10  19  33  52  74 103 138 179 227 281 339
#     4  11  23  37  54  75 103 139 181 231 285 340
#
# _framework density 19.216024000000001
#
# number of rings (size 3 to 8) (size 9 to 14) (size 15 to 20)
#    0.000    1.846    1.538    2.538    1.077    5.231 
#    0.000    1.538    0.000    0.462    0.000    3.231 
#    0.000    0.000    0.000    0.000    0.000    0.000 
#
# Total GULP energy -644198.364142 kJ/mol
# GULP energy per Si atom -12388.430080 kJ/mol
# Density = 1.917229 g / cm^3
# Si number density = 19.216024 Si / 1000 Ang^3
#
#
#
# Elastic Constant Matrix: (Units=GPa)
#
#
# Indices 1 2 3 4 5 6 
#
# 1 110.8856 51.0296 60.7449 0.0000 0.0000 0.0000
# 2 51.0296 107.4219 53.8308 0.0000 0.0000 0.0000
# 3 60.7449 53.8308 111.9015 0.0000 0.0000 0.0000
# 4 0.0000 0.0000 0.0000 30.7275 0.0000 0.0000
# 5 0.0000 0.0000 0.0000 0.0000 28.8627 0.0000
# 6 0.0000 0.0000 0.0000 0.0000 0.0000 24.3841
#
#
#
# Elastic Compliance Matrix: (Units=1/GPa)
#
#
# Indices 1 2 3 4 5 6 
#
# 1 0.013874 -0.003711 -0.005746 0.000000 0.000000 0.000000
# 2 -0.003711 0.013259 -0.004364 0.000000 0.000000 0.000000
# 3 -0.005746 -0.004364 0.014155 0.000000 0.000000 0.000000
# 4 0.000000 0.000000 0.000000 0.032544 0.000000 0.000000
# 5 0.000000 0.000000 0.000000 0.000000 0.034647 0.000000
# 6 0.000000 0.000000 0.000000 0.000000 0.000000 0.041010
#
#
# Mechanical properties :
#
#
# Convention : Reuss Voigt Hill
#
# Bulk Modulus (GPa) = 73.28302 73.49103 73.38703
# Shear Modulus (GPa) = 27.52104 27.76844 27.64474
#
# Velocity S-wave (km/s) = 3.78854 3.80553 3.79704
# Velocity P-wave (km/s) = 7.57341 7.59191 7.58267
#
# Compressibility (1/GPa) = 0.01364573
#
# Stress axis : x y z
#
# Youngs Moduli (GPa) = 72.07715 75.42209 70.64761
#
# Poissons Ratio (x) = 0.27991 0.40595
# Poissons Ratio (y) = 0.26750 0.30827
# Poissons Ratio (z) = 0.41416 0.32911
#
# Static dielectric constant tensor:
#      x y z
#    x 3.620090 0.000000 0.000000 
#    y 0.000000 3.787620 0.000000 
#    z 0.000000 0.000000 3.340260 
# 
# 
# High freq. dielectric constant tensor:
#      x y z
#    x 1.751070 0.000000 0.000000 
#    y 0.000000 1.756180 0.000000 
#    z 0.000000 0.000000 1.725230 
# 
# From -- ./inp_files/40239.got.cif
#   From: 2010.03.12/outbox.cif.g09.slc.cpg/sg67_21_cif.got.tgz:40239.got - 2010.04.10 22:41:39.
