data_PCOD8279035
_publ_section_title
;
Structure prediction by ZEFSAII (Michael W. Deem and Ramdas Pophale) SiO2 
 PCOD8279035
Probable space group: C M M A
;
_chemical_formula_sum "Si O2"
_cell_formula_units_Z 80
_cell_length_a 28.274391
_cell_length_b 16.874446
_cell_length_c 8.824981
_cell_angle_alpha 90.000000
_cell_angle_beta 90.000000
_cell_angle_gamma 90.000000
_cell_volume 4210.528022
_symmetry_space_group_name_H-M "C M M A"
_symmetry_group_IT_number 67
_symmetry_cell_setting 'orthorhombic'
loop_
_space_group_symop_operation_xyz
x,y,z
-x,1/2-y,z
x,-y,-z
-x,1/2+y,-z
-x,-y,-z
x,1/2+y,-z
-x,y,z
x,1/2-y,z
1/2+x,1/2+y,z
1/2-x,-y,z
1/2+x,1/2-y,-z
1/2-x,y,-z
1/2-x,1/2-y,-z
1/2+x,y,-z
1/2-x,1/2+y,z
1/2+x,-y,z
loop_
_atom_site_type_symbol
_atom_site_label
_atom_site_fract_x
_atom_site_fract_y
_atom_site_fract_z
Si Si1 0.805368 0.513450 0.670365
Si Si2 0.053706 0.603554 0.653006
Si Si3 0.947011 0.417587 0.685920
Si Si4 0.646019 0.839531 0.196474
Si Si5 0.368471 0.075662 0.096655
O O1 0.823961 0.500000 0.500000
O O2 0.750000 0.500000 0.682846
O O3 0.819182 0.603451 0.710263
O O4 0.828492 0.450791 0.784797
O O5 0.061340 0.624411 0.475820
O O6 0.062990 0.510865 0.673804
O O7 0.091185 0.651101 0.753707
O O8 0.000000 0.626020 0.701714
O O9 0.911592 0.383849 0.812157
O O10 0.000000 0.401072 0.742160
O O11 0.662597 0.750000 0.225754
O O12 0.651448 0.858492 0.017867
O O13 0.386502 0.000000 0.000000
#
# Coordination Sequence:
#
# PCOD8279035 Si02
#       5
#    16  16  16  16  16
#     4  10  21  41  66  86 104 140 190 238 283 336
#     4   9  17  31  54  82 115 152 193 237 277 322
#     4   9  16  29  53  83 109 146 203 244 265 313
#     4  11  23  37  55  86 123 152 183 228 287 343
#     4  10  19  32  53  81 113 148 186 223 278 336
#
# _framework density 18.999991999999999
#
# number of rings (size 3 to 8) (size 9 to 14) (size 15 to 20)
#    0.000    2.200    4.000    2.400    0.000    5.200 
#    0.000    8.000    0.000    1.200    0.000    0.000 
#    0.000    0.000    0.000    0.000    0.000    0.000 
#
# Total GULP energy -495935.861969 kJ/mol
# GULP energy per Si atom -12398.396549 kJ/mol
# Density = 1.895675 g / cm^3
# Si number density = 18.999992 Si / 1000 Ang^3
#
#
#
# Elastic Constant Matrix: (Units=GPa)
#
#
# Indices 1 2 3 4 5 6 
#
# 1 92.0699 39.5803 55.0752 0.0000 0.0000 0.0000
# 2 39.5803 93.2737 42.3602 0.0000 0.0000 0.0000
# 3 55.0752 42.3602 133.9812 0.0000 0.0000 0.0000
# 4 0.0000 0.0000 0.0000 13.2758 0.0000 0.0000
# 5 0.0000 0.0000 0.0000 0.0000 18.9338 0.0000
# 6 0.0000 0.0000 0.0000 0.0000 0.0000 13.0685
#
#
#
# Elastic Compliance Matrix: (Units=1/GPa)
#
#
# Indices 1 2 3 4 5 6 
#
# 1 0.015803 -0.004385 -0.005110 0.000000 0.000000 0.000000
# 2 -0.004385 0.013736 -0.002540 0.000000 0.000000 0.000000
# 3 -0.005110 -0.002540 0.010367 0.000000 0.000000 0.000000
# 4 0.000000 0.000000 0.000000 0.075325 0.000000 0.000000
# 5 0.000000 0.000000 0.000000 0.000000 0.052816 0.000000
# 6 0.000000 0.000000 0.000000 0.000000 0.000000 0.076520
#
#
# Mechanical properties :
#
#
# Convention : Reuss Voigt Hill
#
# Bulk Modulus (GPa) = 63.14817 65.92848 64.53833
# Shear Modulus (GPa) = 18.25383 21.20956 19.73170
#
# Velocity S-wave (km/s) = 3.10292 3.34472 3.22609
# Velocity P-wave (km/s) = 6.79305 7.04917 6.92229
#
# Compressibility (1/GPa) = 0.01583577
#
# Stress axis : x y z
#
# Youngs Moduli (GPa) = 63.27873 72.80339 96.45817
#
# Poissons Ratio (x) = 0.31928 0.49286
# Poissons Ratio (y) = 0.27751 0.24501
# Poissons Ratio (z) = 0.32333 0.18492
#
# Static dielectric constant tensor:
#      x y z
#    x 3.450590 0.000000 0.000000 
#    y 0.000000 3.050380 0.000000 
#    z 0.000000 0.000000 3.883820 
# 
# 
# High freq. dielectric constant tensor:
#      x y z
#    x 1.736540 0.000000 0.000000 
#    y 0.000000 1.689520 0.000000 
#    z 0.000000 0.000000 1.752030 
# 
# From -- ./inp_files/9888.got.cif
#   From: 2010.03.12/outbox.cif.g09.slc.cpg/sg67_5_cif.got.tgz:9888.got - 2010.04.10 22:41:39.
