data_PCOD8279388
_publ_section_title
;
Structure prediction by ZEFSAII (Michael W. Deem and Ramdas Pophale) SiO2 
 PCOD8279388
Probable space group: C M M A
;
_chemical_formula_sum "Si O2"
_cell_formula_units_Z 104
_cell_length_a 8.445004
_cell_length_b 30.168823
_cell_length_c 20.344729
_cell_angle_alpha 90.000000
_cell_angle_beta 90.000000
_cell_angle_gamma 90.000000
_cell_volume 5183.345236
_symmetry_space_group_name_H-M "C M M A"
_symmetry_group_IT_number 67
_symmetry_cell_setting 'orthorhombic'
loop_
_space_group_symop_operation_xyz
x,y,z
-x,1/2-y,z
x,-y,-z
-x,1/2+y,-z
-x,-y,-z
x,1/2+y,-z
-x,y,z
x,1/2-y,z
1/2+x,1/2+y,z
1/2-x,-y,z
1/2+x,1/2-y,-z
1/2-x,y,-z
1/2-x,1/2-y,-z
1/2+x,y,-z
1/2-x,1/2+y,z
1/2+x,-y,z
loop_
_atom_site_type_symbol
_atom_site_label
_atom_site_fract_x
_atom_site_fract_y
_atom_site_fract_z
Si Si1 0.811844 0.250000 0.070774
Si Si2 0.315000 0.667382 0.859179
Si Si3 0.686076 0.700384 0.722306
Si Si4 0.685471 0.893529 0.683108
Si Si5 0.183913 0.047591 0.430394
Si Si6 0.187750 0.953906 0.795790
Si Si7 0.811679 0.921072 0.073826
O O1 0.724580 0.207760 0.096465
O O2 0.000000 0.250000 0.081196
O O3 0.750000 0.250000 0.000000
O O4 0.500000 0.658913 0.849684
O O5 0.238305 0.680596 0.789131
O O6 0.242888 0.625086 0.897020
O O7 0.500000 0.706892 0.731342
O O8 0.756558 0.750000 0.704004
O O9 0.721237 0.659550 0.672576
O O10 0.500000 0.902816 0.676260
O O11 0.779168 0.917014 0.625326
O O12 0.739402 0.912491 0.754562
O O13 0.250000 0.064399 0.500000
O O14 0.000000 0.042143 0.438604
O O15 0.250000 0.000000 0.409460
O O16 0.246041 0.955337 0.871911
O O17 0.000000 0.951339 0.791197
O O18 0.250000 0.000000 0.763894
O O19 0.000000 0.923031 0.070916
O O20 0.750000 0.930673 0.000000
#
# Coordination Sequence:
#
# PCOD8279388 Si02
#       7
#     8  16  16  16  16  16  16
#     4  12  24  34  48  74 104 140 183 238 299 364
#     4  10  19  36  58  78 105 142 186 239 298 362
#     4   9  17  33  60  88 115 152 196 241 292 350
#     4  11  21  38  63  93 126 162 201 246 297 351
#     4  11  22  39  63  96 133 170 205 245 291 348
#     4  12  25  41  61  86 116 152 198 248 300 360
#     4  11  23  40  59  81 108 146 192 245 305 367
#
# _framework density 20.064264000000001
#
# number of rings (size 3 to 8) (size 9 to 14) (size 15 to 20)
#    0.000    1.231    2.308    5.769    0.000    2.769 
#    0.000    1.538    0.000    0.462    0.000    0.000 
#    0.000    0.000    0.000    0.000    0.000    0.000 
#
# Total GULP energy -644220.790498 kJ/mol
# GULP energy per Si atom -12388.861356 kJ/mol
# Density = 2.001860 g / cm^3
# Si number density = 20.064264 Si / 1000 Ang^3
#
#
#
# Elastic Constant Matrix: (Units=GPa)
#
#
# Indices 1 2 3 4 5 6 
#
# 1 81.0635 21.4322 18.1163 0.0000 0.0000 0.0000
# 2 21.4322 126.2432 32.5968 0.0000 0.0000 0.0000
# 3 18.1163 32.5968 99.7777 0.0000 0.0000 0.0000
# 4 0.0000 0.0000 0.0000 23.8939 0.0000 0.0000
# 5 0.0000 0.0000 0.0000 0.0000 28.6016 0.0000
# 6 0.0000 0.0000 0.0000 0.0000 0.0000 23.3729
#
#
#
# Elastic Compliance Matrix: (Units=1/GPa)
#
#
# Indices 1 2 3 4 5 6 
#
# 1 0.013211 -0.001773 -0.001819 0.000000 0.000000 0.000000
# 2 -0.001773 0.008889 -0.002582 0.000000 0.000000 0.000000
# 3 -0.001819 -0.002582 0.011196 0.000000 0.000000 0.000000
# 4 0.000000 0.000000 0.000000 0.041852 0.000000 0.000000
# 5 0.000000 0.000000 0.000000 0.000000 0.034963 0.000000
# 6 0.000000 0.000000 0.000000 0.000000 0.000000 0.042785
#
#
# Mechanical properties :
#
#
# Convention : Reuss Voigt Hill
#
# Bulk Modulus (GPa) = 47.73885 50.15278 48.94582
# Shear Modulus (GPa) = 29.03137 30.83629 29.93383
#
# Velocity S-wave (km/s) = 3.80797 3.92455 3.86670
# Velocity P-wave (km/s) = 6.57106 6.75178 6.66203
#
# Compressibility (1/GPa) = 0.02094730
#
# Stress axis : x y z
#
# Youngs Moduli (GPa) = 75.69207 112.49944 89.31621
#
# Poissons Ratio (x) = 0.19947 0.16251
# Poissons Ratio (y) = 0.13421 0.23062
# Poissons Ratio (z) = 0.13772 0.29048
#
# Static dielectric constant tensor:
#      x y z
#    x 3.491260 0.000000 0.000000 
#    y 0.000000 3.965270 0.000000 
#    z 0.000000 0.000000 3.640870 
# 
# 
# High freq. dielectric constant tensor:
#      x y z
#    x 1.772180 0.000000 0.000000 
#    y 0.000000 1.798820 0.000000 
#    z 0.000000 0.000000 1.766640 
# 
# From -- ./inp_files/37553.got.cif
#   From: 2010.03.12/outbox.cif.g09.slc.cpg/sg67_19_cif.got.tgz:37553.got - 2010.04.10 22:41:39.
