data_PCOD8279198
_publ_section_title
;
Structure prediction by ZEFSAII (Michael W. Deem and Ramdas Pophale) SiO2 
 PCOD8279198
Probable space group: C M M A
;
_chemical_formula_sum "Si O2"
_cell_formula_units_Z 112
_cell_length_a 27.731522
_cell_length_b 17.234741
_cell_length_c 11.118658
_cell_angle_alpha 90.000000
_cell_angle_beta 90.000000
_cell_angle_gamma 90.000000
_cell_volume 5314.113660
_symmetry_space_group_name_H-M "C M M A"
_symmetry_group_IT_number 67
_symmetry_cell_setting 'orthorhombic'
loop_
_space_group_symop_operation_xyz
x,y,z
-x,1/2-y,z
x,-y,-z
-x,1/2+y,-z
-x,-y,-z
x,1/2+y,-z
-x,y,z
x,1/2-y,z
1/2+x,1/2+y,z
1/2-x,-y,z
1/2+x,1/2-y,-z
1/2-x,y,-z
1/2-x,1/2-y,-z
1/2+x,y,-z
1/2-x,1/2+y,z
1/2+x,-y,z
loop_
_atom_site_type_symbol
_atom_site_label
_atom_site_fract_x
_atom_site_fract_y
_atom_site_fract_z
Si Si1 0.864070 0.922391 0.701718
Si Si2 0.446262 0.409541 0.529909
Si Si3 0.945013 0.917566 0.058867
Si Si4 0.727288 0.840297 0.370498
Si Si5 0.393628 0.906077 0.702745
Si Si6 0.857216 0.840578 0.952063
Si Si7 0.305371 0.661850 0.815380
O O1 0.915966 0.892623 0.651407
O O2 0.821803 0.888265 0.620044
O O3 0.852843 0.893610 0.835509
O O4 0.862702 0.014938 0.688966
O O5 0.449280 0.500000 0.500000
O O6 0.500000 0.374592 0.546588
O O7 0.418492 0.372203 0.416940
O O8 0.936080 0.922730 0.201447
O O9 0.000000 0.894350 0.032924
O O10 0.910921 0.851220 0.004349
O O11 0.931927 0.000000 0.000000
O O12 0.716436 0.750000 0.346073
O O13 0.750000 0.852438 0.500000
O O14 0.761461 0.875161 0.262320
O O15 0.355374 0.841657 0.742069
O O16 0.849491 0.750000 0.920923
O O17 0.816919 0.871184 0.049669
O O18 0.291058 0.750000 0.833096
#
# Coordination Sequence:
#
# PCOD8279198 Si02
#       7
#    16  16  16  16  16  16  16
#     4  11  21  34  56  85 113 147 185 239 288 341
#     4   9  19  34  53  80 112 148 187 227 280 343
#     4  10  19  33  56  83 113 152 193 235 284 343
#     4  10  21  38  59  82 111 151 194 235 291 356
#     4  10  19  35  58  83 111 146 189 239 284 338
#     4  10  21  37  56  82 117 153 190 238 294 350
#     4   9  20  37  57  80 109 147 188 233 287 351
#
# _framework density 21.075951
#
# number of rings (size 3 to 8) (size 9 to 14) (size 15 to 20)
#    0.000    2.143    1.429    1.714    0.000    2.571 
#    0.000    3.571    0.000    6.000    0.000    0.000 
#    0.000    0.000    0.000    0.000    0.000    0.000 
#
# Total GULP energy -694026.161700 kJ/mol
# GULP energy per Si atom -12393.324316 kJ/mol
# Density = 2.102798 g / cm^3
# Si number density = 21.075951 Si / 1000 Ang^3
#
#
#
# Elastic Constant Matrix: (Units=GPa)
#
#
# Indices 1 2 3 4 5 6 
#
# 1 115.2116 23.1174 36.7228 0.0000 0.0000 0.0000
# 2 23.1174 29.6251 18.2737 0.0000 0.0000 0.0000
# 3 36.7228 18.2737 109.9914 0.0000 0.0000 0.0000
# 4 0.0000 0.0000 0.0000 22.7770 0.0000 0.0000
# 5 0.0000 0.0000 0.0000 0.0000 36.5838 0.0000
# 6 0.0000 0.0000 0.0000 0.0000 0.0000 6.1491
#
#
#
# Elastic Compliance Matrix: (Units=1/GPa)
#
#
# Indices 1 2 3 4 5 6 
#
# 1 0.010862 -0.006952 -0.002472 0.000000 0.000000 0.000000
# 2 -0.006952 0.042058 -0.004667 0.000000 0.000000 0.000000
# 3 -0.002472 -0.004667 0.010692 0.000000 0.000000 0.000000
# 4 0.000000 0.000000 0.000000 0.043904 0.000000 0.000000
# 5 0.000000 0.000000 0.000000 0.000000 0.027335 0.000000
# 6 0.000000 0.000000 0.000000 0.000000 0.000000 0.162624
#
#
# Mechanical properties :
#
#
# Convention : Reuss Voigt Hill
#
# Bulk Modulus (GPa) = 28.22224 45.67287 36.94755
# Shear Modulus (GPa) = 14.81629 24.88292 19.84961
#
# Velocity S-wave (km/s) = 2.65428 3.43976 3.07223
# Velocity P-wave (km/s) = 4.77634 6.12320 5.49122
#
# Compressibility (1/GPa) = 0.03543305
#
# Stress axis : x y z
#
# Youngs Moduli (GPa) = 92.06086 23.77654 93.52684
#
# Poissons Ratio (x) = 0.16529 0.23117
# Poissons Ratio (y) = 0.63998 0.43644
# Poissons Ratio (z) = 0.22755 0.11095
#
# Static dielectric constant tensor:
#      x y z
#    x 3.946480 0.000000 0.000000 
#    y 0.000000 3.454190 0.000000 
#    z 0.000000 0.000000 4.058270 
# 
# 
# High freq. dielectric constant tensor:
#      x y z
#    x 1.829390 0.000000 0.000000 
#    y 0.000000 1.786350 0.000000 
#    z 0.000000 0.000000 1.840190 
# 
# From -- ./inp_files/23157.got.cif
#   From: 2010.03.12/outbox.cif.g09.slc.cpg/sg67_12_cif.got.tgz:23157.got - 2010.04.10 22:41:39.
