data_PCOD8279940
_publ_section_title
;
Structure prediction by ZEFSAII (Michael W. Deem and Ramdas Pophale) SiO2 
 PCOD8279940
Probable space group: C M M A
;
_chemical_formula_sum "Si O2"
_cell_formula_units_Z 88
_cell_length_a 20.614955
_cell_length_b 8.850701
_cell_length_c 24.534404
_cell_angle_alpha 90.000000
_cell_angle_beta 90.000000
_cell_angle_gamma 90.000000
_cell_volume 4476.468913
_symmetry_space_group_name_H-M "C M M A"
_symmetry_group_IT_number 67
_symmetry_cell_setting 'orthorhombic'
loop_
_space_group_symop_operation_xyz
x,y,z
-x,1/2-y,z
x,-y,-z
-x,1/2+y,-z
-x,-y,-z
x,1/2+y,-z
-x,y,z
x,1/2-y,z
1/2+x,1/2+y,z
1/2-x,-y,z
1/2+x,1/2-y,-z
1/2-x,y,-z
1/2-x,1/2-y,-z
1/2+x,y,-z
1/2-x,1/2+y,z
1/2+x,-y,z
loop_
_atom_site_type_symbol
_atom_site_label
_atom_site_fract_x
_atom_site_fract_y
_atom_site_fract_z
Si Si1 0.500000 0.077498 0.443391
Si Si2 0.317182 0.570146 0.941531
Si Si3 0.640282 0.571689 0.559637
Si Si4 0.313943 0.070921 0.664392
Si Si5 0.572624 0.571358 0.257440
Si Si6 0.426484 0.926653 0.856353
O O1 0.500000 0.250000 0.458858
O O2 0.431939 0.036217 0.414751
O O3 0.500000 0.000000 0.500000
O O4 0.310073 0.750000 0.946227
O O5 0.250000 0.500000 0.918642
O O6 0.376437 0.521562 0.902763
O O7 0.333174 0.500000 0.000000
O O8 0.650564 0.500000 0.500000
O O9 0.654605 0.750000 0.556115
O O10 0.686785 0.491624 0.602613
O O11 0.309429 0.250000 0.663818
O O12 0.376642 0.012609 0.697573
O O13 0.250000 0.000000 0.692765
O O14 0.500000 0.514455 0.273129
O O15 0.574357 0.750000 0.253972
O O16 0.593753 0.508825 0.199019
O O17 0.500000 0.970930 0.874016
O O18 0.420967 0.750000 0.845400
#
# Coordination Sequence:
#
# PCOD8279940 Si02
#       6
#     8  16  16  16  16  16
#     4   8  16  30  50  78 108 136 170 212 255 310
#     4  10  20  34  53  79 113 151 191 231 274 325
#     4  10  20  36  57  83 113 145 182 222 272 329
#     4  11  24  40  58  82 113 146 183 228 276 331
#     4   9  20  39  61  84 109 142 184 229 278 330
#     4   9  19  36  57  82 111 144 184 230 278 328
#
# _framework density 19.658352000000001
#
# number of rings (size 3 to 8) (size 9 to 14) (size 15 to 20)
#    0.000    2.364    0.000    2.182    1.273    5.091 
#    0.000    5.455    0.000    0.000    0.000    0.000 
#    0.000    0.000    0.000    0.000    0.000    0.000 
#
# Total GULP energy -545338.288511 kJ/mol
# GULP energy per Si atom -12394.052012 kJ/mol
# Density = 1.961361 g / cm^3
# Si number density = 19.658352 Si / 1000 Ang^3
#
#
#
# Elastic Constant Matrix: (Units=GPa)
#
#
# Indices 1 2 3 4 5 6 
#
# 1 141.4615 47.0681 84.0093 0.0000 0.0000 0.0000
# 2 47.0681 57.9903 35.8348 0.0000 0.0000 0.0000
# 3 84.0093 35.8348 110.4793 0.0000 0.0000 0.0000
# 4 0.0000 0.0000 0.0000 31.2735 0.0000 0.0000
# 5 0.0000 0.0000 0.0000 0.0000 26.8672 0.0000
# 6 0.0000 0.0000 0.0000 0.0000 0.0000 29.9490
#
#
#
# Elastic Compliance Matrix: (Units=1/GPa)
#
#
# Indices 1 2 3 4 5 6 
#
# 1 0.014470 -0.006185 -0.008997 0.000000 0.000000 0.000000
# 2 -0.006185 0.024211 -0.003150 0.000000 0.000000 0.000000
# 3 -0.008997 -0.003150 0.016914 0.000000 0.000000 0.000000
# 4 0.000000 0.000000 0.000000 0.031976 0.000000 0.000000
# 5 0.000000 0.000000 0.000000 0.000000 0.037220 0.000000
# 6 0.000000 0.000000 0.000000 0.000000 0.000000 0.033390
#
#
# Mechanical properties :
#
#
# Convention : Reuss Voigt Hill
#
# Bulk Modulus (GPa) = 52.82144 71.52840 62.17492
# Shear Modulus (GPa) = 24.85643 27.15256 26.00449
#
# Velocity S-wave (km/s) = 3.55973 3.72051 3.64101
# Velocity P-wave (km/s) = 6.61994 7.41087 7.02654
#
# Compressibility (1/GPa) = 0.01893171
#
# Stress axis : x y z
#
# Youngs Moduli (GPa) = 69.10877 41.30392 59.12109
#
# Poissons Ratio (x) = 0.25547 0.53191
# Poissons Ratio (y) = 0.42744 0.18622
# Poissons Ratio (z) = 0.62176 0.13010
#
# Static dielectric constant tensor:
#      x y z
#    x 4.154890 0.000000 0.000000 
#    y 0.000000 3.505270 0.000000 
#    z 0.000000 0.000000 3.427000 
# 
# 
# High freq. dielectric constant tensor:
#      x y z
#    x 1.783870 0.000000 0.000000 
#    y 0.000000 1.767710 0.000000 
#    z 0.000000 0.000000 1.749200 
# 
# From -- ./inp_files/42381.got.cif
#   From: 2010.03.12/outbox.cif.g09.slc.cpg/sg67_22_cif.got.tgz:42381.got - 2010.04.10 22:41:39.
