data_PCOD8279059
_publ_section_title
;
Structure prediction by ZEFSAII (Michael W. Deem and Ramdas Pophale) SiO2 
 PCOD8279059
Probable space group: C M M A
;
_chemical_formula_sum "Si O2"
_cell_formula_units_Z 112
_cell_length_a 19.464143
_cell_length_b 17.994257
_cell_length_c 17.787329
_cell_angle_alpha 90.000000
_cell_angle_beta 90.000000
_cell_angle_gamma 90.000000
_cell_volume 6229.883761
_symmetry_space_group_name_H-M "C M M A"
_symmetry_group_IT_number 67
_symmetry_cell_setting 'orthorhombic'
loop_
_space_group_symop_operation_xyz
x,y,z
-x,1/2-y,z
x,-y,-z
-x,1/2+y,-z
-x,-y,-z
x,1/2+y,-z
-x,y,z
x,1/2-y,z
1/2+x,1/2+y,z
1/2-x,-y,z
1/2+x,1/2-y,-z
1/2-x,y,-z
1/2-x,1/2-y,-z
1/2+x,y,-z
1/2-x,1/2+y,z
1/2+x,-y,z
loop_
_atom_site_type_symbol
_atom_site_label
_atom_site_fract_x
_atom_site_fract_y
_atom_site_fract_z
Si Si1 0.079145 0.395847 0.716601
Si Si2 0.320140 0.589709 0.412331
Si Si3 0.335261 0.584238 0.577615
Si Si4 0.190408 0.165584 0.822771
Si Si5 0.421549 0.540840 0.193970
Si Si6 0.319872 0.028579 0.084788
Si Si7 0.832047 0.163228 0.259176
O O1 0.109424 0.379967 0.633708
O O2 0.121254 0.345984 0.775081
O O3 0.086484 0.483449 0.736504
O O4 0.000000 0.370468 0.718766
O O5 0.357547 0.605874 0.492394
O O6 0.329713 0.502307 0.402216
O O7 0.241040 0.615906 0.412623
O O8 0.350647 0.636587 0.343651
O O9 0.196585 0.250000 0.849863
O O10 0.184391 0.117355 0.899710
O O11 0.254927 0.143749 0.769002
O O12 0.500000 0.556963 0.174590
O O13 0.388078 0.503743 0.121204
O O14 0.385407 0.619391 0.207395
O O15 0.250000 0.000000 0.124701
O O16 0.320312 0.000000 0.000000
O O17 0.847496 0.250000 0.252132
#
# Coordination Sequence:
#
# PCOD8279059 Si02
#       7
#    16  16  16  16  16  16  16
#     4  10  19  32  55  81 108 146 189 237 285 330
#     4   9  17  29  49  75 103 138 183 238 287 330
#     4   9  16  29  50  74 104 135 184 240 290 327
#     4  10  21  36  57  85 115 149 185 226 279 333
#     4  10  21  36  56  82 110 146 188 229 274 331
#     4  10  20  37  62  90 116 143 181 227 272 325
#     4  11  20  33  54  79 109 149 189 232 279 328
#
# _framework density 17.977864
#
# number of rings (size 3 to 8) (size 9 to 14) (size 15 to 20)
#    0.000    2.143    4.286    0.857    0.000    0.857 
#    0.000    6.429    0.000    0.000    0.000    0.000 
#    0.000    0.000    0.000    0.000    0.000    0.000 
#
# Total GULP energy -693875.762851 kJ/mol
# GULP energy per Si atom -12390.638622 kJ/mol
# Density = 1.793695 g / cm^3
# Si number density = 17.977864 Si / 1000 Ang^3
#
#
#
# Elastic Constant Matrix: (Units=GPa)
#
#
# Indices 1 2 3 4 5 6 
#
# 1 113.8342 35.4396 39.9632 0.0000 0.0000 0.0000
# 2 35.4396 97.1081 49.9644 0.0000 0.0000 0.0000
# 3 39.9632 49.9644 103.4857 0.0000 0.0000 0.0000
# 4 0.0000 0.0000 0.0000 21.1334 0.0000 0.0000
# 5 0.0000 0.0000 0.0000 0.0000 21.9186 0.0000
# 6 0.0000 0.0000 0.0000 0.0000 0.0000 17.5600
#
#
#
# Elastic Compliance Matrix: (Units=1/GPa)
#
#
# Indices 1 2 3 4 5 6 
#
# 1 0.010545 -0.002333 -0.002946 0.000000 0.000000 0.000000
# 2 -0.002333 0.014218 -0.005964 0.000000 0.000000 0.000000
# 3 -0.002946 -0.005964 0.013680 0.000000 0.000000 0.000000
# 4 0.000000 0.000000 0.000000 0.047319 0.000000 0.000000
# 5 0.000000 0.000000 0.000000 0.000000 0.045623 0.000000
# 6 0.000000 0.000000 0.000000 0.000000 0.000000 0.056948
#
#
# Mechanical properties :
#
#
# Convention : Reuss Voigt Hill
#
# Bulk Modulus (GPa) = 62.66341 62.79583 62.72962
# Shear Modulus (GPa) = 23.13354 24.72644 23.92999
#
# Velocity S-wave (km/s) = 3.59106 3.71264 3.65236
# Velocity P-wave (km/s) = 7.21982 7.30641 7.26324
#
# Compressibility (1/GPa) = 0.01595827
#
# Stress axis : x y z
#
# Youngs Moduli (GPa) = 94.83022 70.33560 73.09858
#
# Poissons Ratio (x) = 0.16407 0.21535
# Poissons Ratio (y) = 0.22121 0.43593
# Poissons Ratio (z) = 0.27937 0.41946
#
# Static dielectric constant tensor:
#      x y z
#    x 3.330230 0.000000 0.000000 
#    y 0.000000 3.099400 0.000000 
#    z 0.000000 0.000000 3.205400 
# 
# 
# High freq. dielectric constant tensor:
#      x y z
#    x 1.685200 0.000000 0.000000 
#    y 0.000000 1.676500 0.000000 
#    z 0.000000 0.000000 1.687560 
# 
# From -- ./inp_files/35143.got.cif
#   From: 2010.03.12/outbox.cif.g09.slc.cpg/sg67_18_cif.got.tgz:35143.got - 2010.04.10 22:41:39.
