data_PCOD8279312
_publ_section_title
;
Structure prediction by ZEFSAII (Michael W. Deem and Ramdas Pophale) SiO2 
 PCOD8279312
Probable space group: C M M A
;
_chemical_formula_sum "Si O2"
_cell_formula_units_Z 112
_cell_length_a 23.786532
_cell_length_b 19.757103
_cell_length_c 11.321484
_cell_angle_alpha 90.000000
_cell_angle_beta 90.000000
_cell_angle_gamma 90.000000
_cell_volume 5320.564948
_symmetry_space_group_name_H-M "C M M A"
_symmetry_group_IT_number 67
_symmetry_cell_setting 'orthorhombic'
loop_
_space_group_symop_operation_xyz
x,y,z
-x,1/2-y,z
x,-y,-z
-x,1/2+y,-z
-x,-y,-z
x,1/2+y,-z
-x,y,z
x,1/2-y,z
1/2+x,1/2+y,z
1/2-x,-y,z
1/2+x,1/2-y,-z
1/2-x,y,-z
1/2-x,1/2-y,-z
1/2+x,y,-z
1/2-x,1/2+y,z
1/2+x,-y,z
loop_
_atom_site_type_symbol
_atom_site_label
_atom_site_fract_x
_atom_site_fract_y
_atom_site_fract_z
Si Si1 0.309601 0.976430 0.843738
Si Si2 0.773013 0.595636 0.376159
Si Si3 0.883576 0.829513 0.364781
Si Si4 0.357026 0.102069 0.959704
Si Si5 0.562144 0.669593 0.399333
Si Si6 0.934794 0.171317 0.877959
Si Si7 0.328912 0.172260 0.741115
O O1 0.304103 0.962575 0.702463
O O2 0.322366 0.908722 0.918711
O O3 0.250000 0.000000 0.892743
O O4 0.356658 0.033737 0.877447
O O5 0.750000 0.566102 0.500000
O O6 0.819220 0.653414 0.398096
O O7 0.720770 0.625463 0.305376
O O8 0.889819 0.750000 0.359234
O O9 0.923100 0.857962 0.469585
O O10 0.903096 0.858759 0.238232
O O11 0.417970 0.127418 0.006191
O O12 0.330522 0.162669 0.882474
O O13 0.500000 0.641731 0.362795
O O14 0.560739 0.750000 0.400350
O O15 0.610874 0.646125 0.309073
O O16 0.919301 0.250000 0.899555
O O17 0.000000 0.161925 0.854871
O O18 0.317137 0.250000 0.707510
#
# Coordination Sequence:
#
# PCOD8279312 Si02
#       7
#    16  16  16  16  16  16  16
#     4  11  24  43  64  84 118 165 214 259 311 372
#     4  12  23  39  63  92 123 159 206 272 328 389
#     4  10  19  34  58  91 129 164 202 259 327 391
#     4  11  22  41  63  85 122 167 210 261 310 372
#     4   9  18  34  56  83 122 168 203 243 310 385
#     4  10  21  38  64  97 129 166 215 268 322 382
#     4  11  23  36  57  94 128 158 203 255 324 394
#
# _framework density 21.050394000000001
#
# number of rings (size 3 to 8) (size 9 to 14) (size 15 to 20)
#    0.000    1.429    4.286    2.143    0.000    3.143 
#    0.000    3.571    0.000    0.000    0.000    1.000 
#    0.000    0.000    0.000    0.000    0.000    0.000 
#
# Total GULP energy -693892.889144 kJ/mol
# GULP energy per Si atom -12390.944449 kJ/mol
# Density = 2.100248 g / cm^3
# Si number density = 21.050394 Si / 1000 Ang^3
#
#
#
# Elastic Constant Matrix: (Units=GPa)
#
#
# Indices 1 2 3 4 5 6 
#
# 1 113.9940 26.9455 40.2821 0.0000 0.0000 0.0000
# 2 26.9455 47.6584 42.6681 0.0000 0.0000 0.0000
# 3 40.2821 42.6681 140.3419 0.0000 0.0000 0.0000
# 4 0.0000 0.0000 0.0000 27.5955 0.0000 0.0000
# 5 0.0000 0.0000 0.0000 0.0000 36.6341 0.0000
# 6 0.0000 0.0000 0.0000 0.0000 0.0000 22.4789
#
#
#
# Elastic Compliance Matrix: (Units=1/GPa)
#
#
# Indices 1 2 3 4 5 6 
#
# 1 0.010395 -0.004405 -0.001644 0.000000 0.000000 0.000000
# 2 -0.004405 0.030697 -0.008068 0.000000 0.000000 0.000000
# 3 -0.001644 -0.008068 0.010050 0.000000 0.000000 0.000000
# 4 0.000000 0.000000 0.000000 0.036238 0.000000 0.000000
# 5 0.000000 0.000000 0.000000 0.000000 0.027297 0.000000
# 6 0.000000 0.000000 0.000000 0.000000 0.000000 0.044486
#
#
# Mechanical properties :
#
#
# Convention : Reuss Voigt Hill
#
# Bulk Modulus (GPa) = 43.65553 57.97618 50.81585
# Shear Modulus (GPa) = 25.63664 30.14827 27.89245
#
# Velocity S-wave (km/s) = 3.49358 3.78854 3.64405
# Velocity P-wave (km/s) = 6.08746 6.83658 6.47286
#
# Compressibility (1/GPa) = 0.02290661
#
# Stress axis : x y z
#
# Youngs Moduli (GPa) = 96.20322 32.57689 99.49804
#
# Poissons Ratio (x) = 0.14350 0.16361
# Poissons Ratio (y) = 0.42376 0.80279
# Poissons Ratio (z) = 0.15819 0.26284
#
# Static dielectric constant tensor:
#      x y z
#    x 3.891700 0.000000 0.000000 
#    y 0.000000 3.654930 0.000000 
#    z 0.000000 0.000000 4.130550 
# 
# 
# High freq. dielectric constant tensor:
#      x y z
#    x 1.815970 0.000000 0.000000 
#    y 0.000000 1.792650 0.000000 
#    z 0.000000 0.000000 1.840660 
# 
# From -- ./inp_files/22163.got.cif
#   From: 2010.03.12/outbox.cif.g09.slc.cpg/sg67_12_cif.got.tgz:22163.got - 2010.04.10 22:41:39.
