data_PCOD8279547
_publ_section_title
;
Structure prediction by ZEFSAII (Michael W. Deem and Ramdas Pophale) SiO2 
 PCOD8279547
Probable space group: C M M A
;
_chemical_formula_sum "Si O2"
_cell_formula_units_Z 96
_cell_length_a 8.773411
_cell_length_b 27.203962
_cell_length_c 23.852780
_cell_angle_alpha 90.000000
_cell_angle_beta 90.000000
_cell_angle_gamma 90.000000
_cell_volume 5692.979723
_symmetry_space_group_name_H-M "C M M A"
_symmetry_group_IT_number 67
_symmetry_cell_setting 'orthorhombic'
loop_
_space_group_symop_operation_xyz
x,y,z
-x,1/2-y,z
x,-y,-z
-x,1/2+y,-z
-x,-y,-z
x,1/2+y,-z
-x,y,z
x,1/2-y,z
1/2+x,1/2+y,z
1/2-x,-y,z
1/2+x,1/2-y,-z
1/2-x,y,-z
1/2-x,1/2-y,-z
1/2+x,y,-z
1/2-x,1/2+y,z
1/2+x,-y,z
loop_
_atom_site_type_symbol
_atom_site_label
_atom_site_fract_x
_atom_site_fract_y
_atom_site_fract_z
Si Si1 0.179734 0.850869 0.327799
Si Si2 0.320105 0.107030 0.159475
Si Si3 0.320600 0.305872 0.443179
Si Si4 0.818947 0.947984 0.940402
Si Si5 0.177217 0.051211 0.730278
Si Si6 0.323830 0.693425 0.221882
O O1 0.234592 0.838212 0.390482
O O2 0.222188 0.907601 0.315533
O O3 0.266068 0.815216 0.285011
O O4 0.000000 0.841644 0.319627
O O5 0.500000 0.105025 0.148240
O O6 0.228370 0.093454 0.103749
O O7 0.269218 0.069368 0.208451
O O8 0.273736 0.161851 0.177673
O O9 0.500000 0.307979 0.449121
O O10 0.263559 0.250000 0.434239
O O11 0.250000 0.328254 0.500000
O O12 0.000000 0.952349 0.944890
O O13 0.750000 0.000000 0.920704
O O14 0.750000 0.932389 0.000000
O O15 0.000000 0.042292 0.731181
O O16 0.250000 0.000000 0.712762
O O17 0.500000 0.677986 0.217969
O O18 0.299688 0.750000 0.205847
#
# Coordination Sequence:
#
# PCOD8279547 Si02
#       6
#    16  16  16  16  16  16
#     4   9  18  32  48  67  93 126 160 192 233 287
#     4  10  20  34  51  72  98 130 165 199 240 288
#     4   9  17  29  46  67  91 119 151 190 236 284
#     4  11  21  34  52  75 103 133 166 203 244 289
#     4   9  18  30  46  68  93 121 154 192 232 278
#     4  10  20  32  48  73 101 127 158 198 241 285
#
# _framework density 16.862874000000001
#
# number of rings (size 3 to 8) (size 9 to 14) (size 15 to 20)
#    0.000    2.333    0.000    5.000    0.000    7.333 
#    0.000    1.667    0.000    1.000    0.000    3.500 
#    0.000    0.000    0.000    0.000    0.000    0.000 
#
# Total GULP energy -595249.750171 kJ/mol
# GULP energy per Si atom -12401.036462 kJ/mol
# Density = 1.682449 g / cm^3
# Si number density = 16.862874 Si / 1000 Ang^3
#
#
#
# Elastic Constant Matrix: (Units=GPa)
#
#
# Indices 1 2 3 4 5 6 
#
# 1 71.0950 34.7367 42.0825 0.0000 0.0000 0.0000
# 2 34.7367 92.5307 58.0500 0.0000 0.0000 0.0000
# 3 42.0825 58.0500 126.5620 0.0000 0.0000 0.0000
# 4 0.0000 0.0000 0.0000 24.1307 0.0000 0.0000
# 5 0.0000 0.0000 0.0000 0.0000 28.9297 0.0000
# 6 0.0000 0.0000 0.0000 0.0000 0.0000 28.5177
#
#
#
# Elastic Compliance Matrix: (Units=1/GPa)
#
#
# Indices 1 2 3 4 5 6 
#
# 1 0.018696 -0.004379 -0.004208 0.000000 0.000000 0.000000
# 2 -0.004379 0.016199 -0.005974 0.000000 0.000000 0.000000
# 3 -0.004208 -0.005974 0.012041 0.000000 0.000000 0.000000
# 4 0.000000 0.000000 0.000000 0.041441 0.000000 0.000000
# 5 0.000000 0.000000 0.000000 0.000000 0.034567 0.000000
# 6 0.000000 0.000000 0.000000 0.000000 0.000000 0.035066
#
#
# Mechanical properties :
#
#
# Convention : Reuss Voigt Hill
#
# Bulk Modulus (GPa) = 56.13601 62.21402 59.17501
# Shear Modulus (GPa) = 25.89757 26.67017 26.28387
#
# Velocity S-wave (km/s) = 3.92315 3.98124 3.95230
# Velocity P-wave (km/s) = 7.34053 7.62285 7.48302
#
# Compressibility (1/GPa) = 0.01781388
#
# Stress axis : x y z
#
# Youngs Moduli (GPa) = 53.48753 61.73297 83.05232
#
# Poissons Ratio (x) = 0.27030 0.34950
# Poissons Ratio (y) = 0.23420 0.49615
# Poissons Ratio (z) = 0.22509 0.36879
#
# Static dielectric constant tensor:
#      x y z
#    x 3.180220 0.000000 0.000000 
#    y 0.000000 3.201890 0.000000 
#    z 0.000000 0.000000 3.182700 
# 
# 
# High freq. dielectric constant tensor:
#      x y z
#    x 1.656900 0.000000 0.000000 
#    y 0.000000 1.637340 0.000000 
#    z 0.000000 0.000000 1.642560 
# 
# From -- ./inp_files/37178.got.cif
#   From: 2010.03.12/outbox.cif.g09.slc.cpg/sg67_19_cif.got.tgz:37178.got - 2010.04.10 22:41:39.
