data_PCOD8279675
_publ_section_title
;
Structure prediction by ZEFSAII (Michael W. Deem and Ramdas Pophale) SiO2 
 PCOD8279675
Probable space group: C M M A
;
_chemical_formula_sum "Si O2"
_cell_formula_units_Z 104
_cell_length_a 28.231212
_cell_length_b 19.987897
_cell_length_c 9.578352
_cell_angle_alpha 90.000000
_cell_angle_beta 90.000000
_cell_angle_gamma 90.000000
_cell_volume 5404.896965
_symmetry_space_group_name_H-M "C M M A"
_symmetry_group_IT_number 67
_symmetry_cell_setting 'orthorhombic'
loop_
_space_group_symop_operation_xyz
x,y,z
-x,1/2-y,z
x,-y,-z
-x,1/2+y,-z
-x,-y,-z
x,1/2+y,-z
-x,y,z
x,1/2-y,z
1/2+x,1/2+y,z
1/2-x,-y,z
1/2+x,1/2-y,-z
1/2-x,y,-z
1/2-x,1/2-y,-z
1/2+x,y,-z
1/2-x,1/2+y,z
1/2+x,-y,z
loop_
_atom_site_type_symbol
_atom_site_label
_atom_site_fract_x
_atom_site_fract_y
_atom_site_fract_z
Si Si1 0.446664 0.857679 0.650224
Si Si2 0.054322 0.853034 0.659543
Si Si3 0.322899 0.996400 0.834969
Si Si4 0.608567 0.250000 0.844077
Si Si5 0.750669 0.891883 0.834110
Si Si6 0.585143 0.998033 0.341893
Si Si7 0.943316 0.250000 0.863088
Si Si8 0.277026 0.250000 0.852834
O O1 0.500000 0.833463 0.638424
O O2 0.425115 0.840865 0.497235
O O3 0.445665 0.936043 0.686662
O O4 0.424568 0.814383 0.775693
O O5 0.090205 0.815723 0.763179
O O6 0.000000 0.827750 0.678932
O O7 0.053833 0.932589 0.688258
O O8 0.292246 0.059289 0.782454
O O9 0.298854 0.925847 0.787572
O O10 0.372874 0.001379 0.765824
O O11 0.328771 0.000000 0.000000
O O12 0.665526 0.250000 0.862794
O O13 0.585222 0.250000 0.994821
O O14 0.759636 0.817300 0.771529
O O15 0.750000 0.887371 0.000000
O O16 0.604677 0.000000 0.500000
O O17 0.000000 0.250000 0.893079
O O18 0.250000 0.250000 0.000000
#
# Coordination Sequence:
#
# PCOD8279675 Si02
#       8
#    16  16  16   8  16  16   8   8
#     4   9  19  36  55  75 107 150 185 215 261 324
#     4  10  20  36  57  81 112 150 187 222 265 319
#     4   9  17  32  52  73  99 134 175 217 269 328
#     4  12  23  35  57  86 112 140 184 234 277 321
#     4   8  16  31  50  70  96 133 175 217 263 325
#     4  10  20  33  53  82 109 138 181 227 266 317
#     4  10  21  36  53  80 115 146 181 224 271 326
#     4  10  20  33  50  76 106 136 176 226 274 321
#
# _framework density 19.241810000000001
#
# number of rings (size 3 to 8) (size 9 to 14) (size 15 to 20)
#    0.000    2.462    0.000    3.462    0.000    8.000 
#    0.000    1.538    0.000    3.692    0.000   16.154 
#    0.000    0.000    0.000    0.000    0.000    0.000 
#
# Total GULP energy -644286.045051 kJ/mol
# GULP energy per Si atom -12390.116251 kJ/mol
# Density = 1.919802 g / cm^3
# Si number density = 19.241810 Si / 1000 Ang^3
#
#
#
# Elastic Constant Matrix: (Units=GPa)
#
#
# Indices 1 2 3 4 5 6 
#
# 1 83.1815 28.1165 31.3137 0.0000 0.0000 0.0000
# 2 28.1165 155.0030 47.5183 0.0000 0.0000 0.0000
# 3 31.3137 47.5183 80.1143 0.0000 0.0000 0.0000
# 4 0.0000 0.0000 0.0000 19.2082 0.0000 0.0000
# 5 0.0000 0.0000 0.0000 0.0000 3.7210 0.0000
# 6 0.0000 0.0000 0.0000 0.0000 0.0000 25.6058
#
#
#
# Elastic Compliance Matrix: (Units=1/GPa)
#
#
# Indices 1 2 3 4 5 6 
#
# 1 0.014240 -0.001072 -0.004930 0.000000 0.000000 0.000000
# 2 -0.001072 0.007966 -0.004306 0.000000 0.000000 0.000000
# 3 -0.004930 -0.004306 0.016963 0.000000 0.000000 0.000000
# 4 0.000000 0.000000 0.000000 0.052061 0.000000 0.000000
# 5 0.000000 0.000000 0.000000 0.000000 0.268748 0.000000
# 6 0.000000 0.000000 0.000000 0.000000 0.000000 0.039054
#
#
# Mechanical properties :
#
#
# Convention : Reuss Voigt Hill
#
# Bulk Modulus (GPa) = 53.89827 59.13288 56.51557
# Shear Modulus (GPa) = 11.74171 23.79701 17.76936
#
# Velocity S-wave (km/s) = 2.47294 3.52054 3.04217
# Velocity P-wave (km/s) = 6.01878 6.87923 6.46334
#
# Compressibility (1/GPa) = 0.01855347
#
# Stress axis : x y z
#
# Youngs Moduli (GPa) = 70.22403 125.53452 58.95087
#
# Poissons Ratio (x) = 0.13452 0.29065
# Poissons Ratio (y) = 0.07525 0.25384
# Poissons Ratio (z) = 0.34623 0.54055
#
# Static dielectric constant tensor:
#      x y z
#    x 3.375270 0.000000 0.000000 
#    y 0.000000 4.345300 0.000000 
#    z 0.000000 0.000000 3.318260 
# 
# 
# High freq. dielectric constant tensor:
#      x y z
#    x 1.730710 0.000000 0.000000 
#    y 0.000000 1.771380 0.000000 
#    z 0.000000 0.000000 1.719070 
# 
# From -- ./inp_files/13857.got.cif
#   From: 2010.03.12/outbox.cif.g09.slc.cpg/sg67_7_cif.got.tgz:13857.got - 2010.04.10 22:41:39.
