data_PCOD8279083
_publ_section_title
;
Structure prediction by ZEFSAII (Michael W. Deem and Ramdas Pophale) SiO2 
 PCOD8279083
Probable space group: C M M A
;
_chemical_formula_sum "Si O2"
_cell_formula_units_Z 72
_cell_length_a 8.931926
_cell_length_b 25.522170
_cell_length_c 19.957944
_cell_angle_alpha 90.000000
_cell_angle_beta 90.000000
_cell_angle_gamma 90.000000
_cell_volume 4549.655500
_symmetry_space_group_name_H-M "C M M A"
_symmetry_group_IT_number 67
_symmetry_cell_setting 'orthorhombic'
loop_
_space_group_symop_operation_xyz
x,y,z
-x,1/2-y,z
x,-y,-z
-x,1/2+y,-z
-x,-y,-z
x,1/2+y,-z
-x,y,z
x,1/2-y,z
1/2+x,1/2+y,z
1/2-x,-y,z
1/2+x,1/2-y,-z
1/2-x,y,-z
1/2-x,1/2-y,-z
1/2+x,y,-z
1/2-x,1/2+y,z
1/2+x,-y,z
loop_
_atom_site_type_symbol
_atom_site_label
_atom_site_fract_x
_atom_site_fract_y
_atom_site_fract_z
Si Si1 0.825275 0.344012 0.150519
Si Si2 0.324078 0.446593 0.929907
Si Si3 0.322377 0.250000 0.072612
Si Si4 0.177276 0.191816 0.291895
Si Si5 0.166036 0.687386 0.564180
O O1 0.789745 0.401625 0.123609
O O2 0.727938 0.301848 0.111289
O O3 0.778542 0.344653 0.229081
O O4 0.000000 0.329190 0.141769
O O5 0.500000 0.455091 0.940844
O O6 0.250000 0.500000 0.902686
O O7 0.250000 0.430015 0.000000
O O8 0.500000 0.250000 0.065283
O O9 0.250000 0.250000 0.000000
O O10 0.240562 0.250000 0.276684
O O11 0.240082 0.170540 0.363784
O O12 0.000000 0.195213 0.300603
O O13 0.165977 0.750000 0.561511
O O14 0.250000 0.663317 0.500000
O O15 0.000000 0.664545 0.558947
#
# Coordination Sequence:
#
# PCOD8279083 Si02
#       5
#    16  16   8  16  16
#     4  10  19  33  51  68  88 118 152 185 221 268
#     4  10  20  33  51  69  86 112 145 185 230 268
#     4  12  24  34  46  66  91 120 149 182 223 264
#     4   8  13  24  43  61  83 115 148 177 210 257
#     4   8  13  21  35  55  78 111 146 175 206 243
#
# _framework density 15.825374999999999
#
# number of rings (size 3 to 8) (size 9 to 14) (size 15 to 20)
#    0.000    2.667    1.111    4.333    0.000    3.556 
#    0.000    1.111    0.000    0.000    0.000    0.000 
#    0.000    0.889    0.000   11.111    0.000    0.444 
#
# Total GULP energy -446094.027938 kJ/mol
# GULP energy per Si atom -12391.500776 kJ/mol
# Density = 1.578936 g / cm^3
# Si number density = 15.825375 Si / 1000 Ang^3
#
#
#
# Elastic Constant Matrix: (Units=GPa)
#
#
# Indices 1 2 3 4 5 6 
#
# 1 72.3405 34.6307 50.6849 0.0000 0.0000 0.0000
# 2 34.6307 74.0767 65.5590 0.0000 0.0000 0.0000
# 3 50.6849 65.5590 174.0442 0.0000 0.0000 0.0000
# 4 0.0000 0.0000 0.0000 14.7648 0.0000 0.0000
# 5 0.0000 0.0000 0.0000 0.0000 21.0750 0.0000
# 6 0.0000 0.0000 0.0000 0.0000 0.0000 16.1578
#
#
#
# Elastic Compliance Matrix: (Units=1/GPa)
#
#
# Indices 1 2 3 4 5 6 
#
# 1 0.018979 -0.005972 -0.003277 0.000000 0.000000 0.000000
# 2 -0.005972 0.022129 -0.006597 0.000000 0.000000 0.000000
# 3 -0.003277 -0.006597 0.009185 0.000000 0.000000 0.000000
# 4 0.000000 0.000000 0.000000 0.067729 0.000000 0.000000
# 5 0.000000 0.000000 0.000000 0.000000 0.047450 0.000000
# 6 0.000000 0.000000 0.000000 0.000000 0.000000 0.061889
#
#
# Mechanical properties :
#
#
# Convention : Reuss Voigt Hill
#
# Bulk Modulus (GPa) = 53.76002 69.13448 61.44725
# Shear Modulus (GPa) = 18.84991 21.70531 20.27761
#
# Velocity S-wave (km/s) = 3.45500 3.70746 3.58346
# Velocity P-wave (km/s) = 7.06828 7.88085 7.48560
#
# Compressibility (1/GPa) = 0.01860118
#
# Stress axis : x y z
#
# Youngs Moduli (GPa) = 52.69067 45.18864 108.87403
#
# Poissons Ratio (x) = 0.26986 0.35683
# Poissons Ratio (y) = 0.31466 0.71820
# Poissons Ratio (z) = 0.17269 0.29809
#
# Static dielectric constant tensor:
#      x y z
#    x 2.948130 0.000000 0.000000 
#    y 0.000000 2.709670 0.000000 
#    z 0.000000 0.000000 3.467500 
# 
# 
# High freq. dielectric constant tensor:
#      x y z
#    x 1.592780 0.000000 0.000000 
#    y 0.000000 1.558150 0.000000 
#    z 0.000000 0.000000 1.623620 
# 
# From -- ./inp_files/37065.got.cif
#   From: 2010.03.12/outbox.cif.g09.slc.cpg/sg67_19_cif.got.tgz:37065.got - 2010.04.10 22:41:39.
