data_PCOD8279981
_publ_section_title
;
Structure prediction by ZEFSAII (Michael W. Deem and Ramdas Pophale) SiO2 
 PCOD8279981
Probable space group: C M M A
;
_chemical_formula_sum "Si O2"
_cell_formula_units_Z 112
_cell_length_a 27.031554
_cell_length_b 16.831604
_cell_length_c 12.442220
_cell_angle_alpha 90.000000
_cell_angle_beta 90.000000
_cell_angle_gamma 90.000000
_cell_volume 5661.016156
_symmetry_space_group_name_H-M "C M M A"
_symmetry_group_IT_number 67
_symmetry_cell_setting 'orthorhombic'
loop_
_space_group_symop_operation_xyz
x,y,z
-x,1/2-y,z
x,-y,-z
-x,1/2+y,-z
-x,-y,-z
x,1/2+y,-z
-x,y,z
x,1/2-y,z
1/2+x,1/2+y,z
1/2-x,-y,z
1/2+x,1/2-y,-z
1/2-x,y,-z
1/2-x,1/2-y,-z
1/2+x,y,-z
1/2-x,1/2+y,z
1/2+x,-y,z
loop_
_atom_site_type_symbol
_atom_site_label
_atom_site_fract_x
_atom_site_fract_y
_atom_site_fract_z
Si Si1 0.054995 0.842304 0.679145
Si Si2 0.304700 0.158360 0.976564
Si Si3 0.558302 0.158930 0.248375
Si Si4 0.846268 0.087491 0.231894
Si Si5 0.380425 0.053825 0.098540
Si Si6 0.801234 0.910994 0.537879
Si Si7 0.094478 0.093354 0.529579
O O1 0.061631 0.750000 0.700637
O O2 0.097347 0.886749 0.744948
O O3 0.059364 0.859754 0.552325
O O4 0.000000 0.870051 0.716912
O O5 0.308800 0.250000 0.005067
O O6 0.339239 0.112605 0.057241
O O7 0.250000 0.126019 0.000000
O O8 0.320612 0.144761 0.853767
O O9 0.500000 0.160530 0.244822
O O10 0.578587 0.250000 0.247760
O O11 0.576180 0.108543 0.145847
O O12 0.576021 0.110159 0.351789
O O13 0.810154 0.091146 0.334166
O O14 0.852403 0.998284 0.188554
O O15 0.401434 0.000000 0.000000
O O16 0.750000 0.866916 0.500000
O O17 0.849381 0.872782 0.480923
O O18 0.796160 0.000000 0.500000
O O19 0.093207 0.000000 0.500000
#
# Coordination Sequence:
#
# PCOD8279981 Si02
#       7
#    16  16  16  16  16  16  16
#     4  10  20  35  56  81 111 149 189 231 283 340
#     4  10  22  40  61  84 112 148 189 236 287 335
#     4  11  23  38  57  82 115 154 190 231 290 352
#     4  10  21  36  58  86 114 145 188 238 282 333
#     4  10  22  39  60  84 108 142 191 243 291 336
#     4   9  18  32  52  81 116 147 177 219 271 325
#     4  10  20  34  54  83 116 151 192 233 275 334
#
# _framework density 19.784433
#
# number of rings (size 3 to 8) (size 9 to 14) (size 15 to 20)
#    0.000    2.000    0.000    4.286    0.000   10.286 
#    0.000    2.143    0.000   22.286    0.000    0.000 
#    0.000    0.571    0.000    0.000    0.000    0.000 
#
# Total GULP energy -694210.862207 kJ/mol
# GULP energy per Si atom -12396.622539 kJ/mol
# Density = 1.973940 g / cm^3
# Si number density = 19.784433 Si / 1000 Ang^3
#
#
#
# Elastic Constant Matrix: (Units=GPa)
#
#
# Indices 1 2 3 4 5 6 
#
# 1 121.5826 39.1292 75.3856 0.0000 0.0000 0.0000
# 2 39.1292 75.8640 47.0749 0.0000 0.0000 0.0000
# 3 75.3856 47.0749 124.3680 0.0000 0.0000 0.0000
# 4 0.0000 0.0000 0.0000 36.6474 0.0000 0.0000
# 5 0.0000 0.0000 0.0000 0.0000 23.8126 0.0000
# 6 0.0000 0.0000 0.0000 0.0000 0.0000 40.6780
#
#
#
# Elastic Compliance Matrix: (Units=1/GPa)
#
#
# Indices 1 2 3 4 5 6 
#
# 1 0.013522 -0.002468 -0.007262 0.000000 0.000000 0.000000
# 2 -0.002468 0.017678 -0.005195 0.000000 0.000000 0.000000
# 3 -0.007262 -0.005195 0.014409 0.000000 0.000000 0.000000
# 4 0.000000 0.000000 0.000000 0.027287 0.000000 0.000000
# 5 0.000000 0.000000 0.000000 0.000000 0.041995 0.000000
# 6 0.000000 0.000000 0.000000 0.000000 0.000000 0.024583
#
#
# Mechanical properties :
#
#
# Convention : Reuss Voigt Hill
#
# Bulk Modulus (GPa) = 63.45942 71.66599 67.56270
# Shear Modulus (GPa) = 28.64043 30.90927 29.77485
#
# Velocity S-wave (km/s) = 3.80889 3.95689 3.88359
# Velocity P-wave (km/s) = 7.17556 7.56161 7.37111
#
# Compressibility (1/GPa) = 0.01575810
#
# Stress axis : x y z
#
# Youngs Moduli (GPa) = 73.95392 56.56636 69.40051
#
# Poissons Ratio (x) = 0.13961 0.50399
# Poissons Ratio (y) = 0.18253 0.36057
# Poissons Ratio (z) = 0.53706 0.29389
#
# Static dielectric constant tensor:
#      x y z
#    x 4.097530 0.000000 0.000000 
#    y 0.000000 3.608850 0.000000 
#    z 0.000000 0.000000 3.693570 
# 
# 
# High freq. dielectric constant tensor:
#      x y z
#    x 1.779440 0.000000 0.000000 
#    y 0.000000 1.768760 0.000000 
#    z 0.000000 0.000000 1.772110 
# 
# From -- ./inp_files/23825.got.cif
#   From: 2010.03.12/outbox.cif.g09.slc.cpg/sg67_12_cif.got.tgz:23825.got - 2010.04.10 22:41:39.
