data_PCOD8279695
_publ_section_title
;
Structure prediction by ZEFSAII (Michael W. Deem and Ramdas Pophale) SiO2 
 PCOD8279695
Probable space group: C M M A
;
_chemical_formula_sum "Si O2"
_cell_formula_units_Z 116
_cell_length_a 25.639152
_cell_length_b 9.305808
_cell_length_c 26.034725
_cell_angle_alpha 90.000000
_cell_angle_beta 90.000000
_cell_angle_gamma 90.000000
_cell_volume 6211.703813
_symmetry_space_group_name_H-M "C M M A"
_symmetry_group_IT_number 67
_symmetry_cell_setting 'orthorhombic'
loop_
_space_group_symop_operation_xyz
x,y,z
-x,1/2-y,z
x,-y,-z
-x,1/2+y,-z
-x,-y,-z
x,1/2+y,-z
-x,y,z
x,1/2-y,z
1/2+x,1/2+y,z
1/2-x,-y,z
1/2+x,1/2-y,-z
1/2-x,y,-z
1/2-x,1/2-y,-z
1/2+x,y,-z
1/2-x,1/2+y,z
1/2+x,-y,z
loop_
_atom_site_type_symbol
_atom_site_label
_atom_site_fract_x
_atom_site_fract_y
_atom_site_fract_z
Si Si1 0.346624 0.584732 0.705067
Si Si2 0.750000 0.000000 0.000000
Si Si3 0.057272 0.081312 0.052177
Si Si4 0.297682 0.085377 0.616747
Si Si5 0.338378 0.085568 0.080273
Si Si6 0.900555 0.084851 0.447490
Si Si7 0.057123 0.911039 0.358830
Si Si8 0.699957 0.084246 0.190217
O O1 0.332059 0.750000 0.693135
O O2 0.308495 0.484050 0.672376
O O3 0.405091 0.545840 0.687723
O O4 0.343557 0.554788 0.766080
O O5 0.791552 0.081086 0.962560
O O6 0.069116 0.250000 0.043990
O O7 0.000000 0.063867 0.081585
O O8 0.109944 0.011716 0.074837
O O9 0.048409 0.000000 0.000000
O O10 0.283127 0.250000 0.625948
O O11 0.343588 0.066569 0.576231
O O12 0.250000 0.000000 0.591150
O O13 0.357235 0.250000 0.083204
O O14 0.317251 0.028123 0.134565
O O15 0.915225 0.250000 0.457253
O O16 0.904575 0.000000 0.500000
O O17 0.940633 0.018184 0.406898
O O18 0.070042 0.750000 0.378766
O O19 0.000000 0.920301 0.334583
O O20 0.714806 0.250000 0.186141
O O21 0.750000 0.000000 0.209428
#
# Coordination Sequence:
#
# PCOD8279695 Si02
#       8
#    16   4  16  16  16  16  16  16
#     4   9  18  34  55  77 105 136 173 220 268 321
#     4  12  22  36  58  82 118 156 194 234 280 340
#     4  10  21  37  58  82 108 141 183 228 273 324
#     4  10  20  33  51  75 102 135 176 216 262 315
#     4  11  23  37  56  84 117 152 193 235 282 336
#     4  10  21  35  51  74 105 139 175 217 263 314
#     4   9  18  34  56  79 102 134 176 219 267 321
#     4  10  21  36  53  80 113 145 181 223 272 325
#
# _framework density 18.674426
#
# number of rings (size 3 to 8) (size 9 to 14) (size 15 to 20)
#    0.000    2.069    1.379    1.862    0.000    6.069 
#    0.000    2.069    0.000    2.483    0.000    0.000 
#    0.000    0.000    0.000    0.000    0.000    0.000 
#
# Total GULP energy -718507.107226 kJ/mol
# GULP energy per Si atom -12388.053573 kJ/mol
# Density = 1.863192 g / cm^3
# Si number density = 18.674426 Si / 1000 Ang^3
#
#
#
# Elastic Constant Matrix: (Units=GPa)
#
#
# Indices 1 2 3 4 5 6 
#
# 1 117.8162 50.7298 45.9752 0.0000 0.0000 0.0000
# 2 50.7298 95.3877 39.1750 0.0000 0.0000 0.0000
# 3 45.9752 39.1750 118.3109 0.0000 0.0000 0.0000
# 4 0.0000 0.0000 0.0000 23.4816 0.0000 0.0000
# 5 0.0000 0.0000 0.0000 0.0000 10.3723 0.0000
# 6 0.0000 0.0000 0.0000 0.0000 0.0000 22.9258
#
#
#
# Elastic Compliance Matrix: (Units=1/GPa)
#
#
# Indices 1 2 3 4 5 6 
#
# 1 0.011813 -0.005089 -0.002905 0.000000 0.000000 0.000000
# 2 -0.005089 0.014326 -0.002766 0.000000 0.000000 0.000000
# 3 -0.002905 -0.002766 0.010497 0.000000 0.000000 0.000000
# 4 0.000000 0.000000 0.000000 0.042586 0.000000 0.000000
# 5 0.000000 0.000000 0.000000 0.000000 0.096411 0.000000
# 6 0.000000 0.000000 0.000000 0.000000 0.000000 0.043619
#
#
# Mechanical properties :
#
#
# Convention : Reuss Voigt Hill
#
# Bulk Modulus (GPa) = 66.15900 67.03054 66.59477
# Shear Modulus (GPa) = 20.34077 24.39827 22.36952
#
# Velocity S-wave (km/s) = 3.30393 3.61849 3.46478
# Velocity P-wave (km/s) = 7.07525 7.30959 7.19337
#
# Compressibility (1/GPa) = 0.01511510
#
# Stress axis : x y z
#
# Youngs Moduli (GPa) = 84.65350 69.80274 95.26375
#
# Poissons Ratio (x) = 0.35524 0.27677
# Poissons Ratio (y) = 0.43082 0.26350
# Poissons Ratio (z) = 0.24594 0.19307
#
# Static dielectric constant tensor:
#      x y z
#    x 3.838690 0.000000 0.000000 
#    y 0.000000 3.560760 0.000000 
#    z 0.000000 0.000000 3.349770 
# 
# 
# High freq. dielectric constant tensor:
#      x y z
#    x 1.733430 0.000000 0.000000 
#    y 0.000000 1.730350 0.000000 
#    z 0.000000 0.000000 1.707920 
# 
# From -- ./inp_files/45012.got.cif
#   From: 2010.03.12/outbox.cif.g09.slc.cpg/sg67_23_cif.got.tgz:45012.got - 2010.04.10 22:41:39.
