data_PCOD8279812
_publ_section_title
;
Structure prediction by ZEFSAII (Michael W. Deem and Ramdas Pophale) SiO2 
 PCOD8279812
Probable space group: C M M A
;
_chemical_formula_sum "Si O2"
_cell_formula_units_Z 128
_cell_length_a 26.066490
_cell_length_b 24.025389
_cell_length_c 10.485882
_cell_angle_alpha 90.000000
_cell_angle_beta 90.000000
_cell_angle_gamma 90.000000
_cell_volume 6566.862898
_symmetry_space_group_name_H-M "C M M A"
_symmetry_group_IT_number 67
_symmetry_cell_setting 'orthorhombic'
loop_
_space_group_symop_operation_xyz
x,y,z
-x,1/2-y,z
x,-y,-z
-x,1/2+y,-z
-x,-y,-z
x,1/2+y,-z
-x,y,z
x,1/2-y,z
1/2+x,1/2+y,z
1/2-x,-y,z
1/2+x,1/2-y,-z
1/2-x,y,-z
1/2-x,1/2-y,-z
1/2+x,y,-z
1/2-x,1/2+y,z
1/2+x,-y,z
loop_
_atom_site_type_symbol
_atom_site_label
_atom_site_fract_x
_atom_site_fract_y
_atom_site_fract_z
Si Si1 0.287779 0.186232 0.802387
Si Si2 0.941310 0.619125 0.696579
Si Si3 0.175064 0.314177 0.714544
Si Si4 0.619078 0.413006 0.185134
Si Si5 0.360296 0.313266 0.563796
Si Si6 0.364551 0.392335 0.900483
Si Si7 0.194002 0.502655 0.848877
Si Si8 0.942469 0.007264 0.638123
O O1 0.288057 0.250000 0.847209
O O2 0.229768 0.166707 0.772793
O O3 0.320056 0.176064 0.675311
O O4 0.315940 0.150592 0.914977
O O5 0.909975 0.645968 0.577398
O O6 0.911048 0.637625 0.824572
O O7 0.940311 0.552490 0.704387
O O8 0.000000 0.641195 0.695060
O O9 0.164665 0.250000 0.747079
O O10 0.128615 0.349434 0.775057
O O11 0.172154 0.325152 0.563506
O O12 0.669549 0.448546 0.214128
O O13 0.575565 0.443480 0.267409
O O14 0.610176 0.413091 0.032538
O O15 0.381043 0.250000 0.565907
O O16 0.340765 0.443434 0.816995
O O17 0.250000 0.500000 0.786036
O O18 0.198290 0.500000 0.000000
O O19 0.000000 0.026404 0.607627
O O20 0.913821 0.000000 0.500000
#
# Coordination Sequence:
#
# PCOD8279812 Si02
#       8
#    16  16  16  16  16  16  16  16
#     4   9  18  33  55  80 110 147 185 228 275 329
#     4  10  20  35  56  81 109 140 181 234 284 333
#     4  10  20  34  54  81 110 144 185 227 276 336
#     4  11  21  34  54  77 108 147 182 229 284 338
#     4   9  18  34  56  81 110 143 183 231 280 334
#     4  10  20  34  51  79 112 143 184 229 276 332
#     4   9  17  30  48  71 103 143 180 215 264 325
#     4  10  21  37  57  79 104 138 183 234 285 336
#
# _framework density 19.491803999999998
#
# number of rings (size 3 to 8) (size 9 to 14) (size 15 to 20)
#    0.000    2.250    1.250    1.875    0.000    4.250 
#    0.000    2.500    0.000    1.125    0.000    1.750 
#    0.000    0.000    0.000    0.000    0.000    0.000 
#
# Total GULP energy -792936.676007 kJ/mol
# GULP energy per Si atom -12389.635563 kJ/mol
# Density = 1.944744 g / cm^3
# Si number density = 19.491804 Si / 1000 Ang^3
#
#
#
# Elastic Constant Matrix: (Units=GPa)
#
#
# Indices 1 2 3 4 5 6 
#
# 1 99.2909 35.1946 30.3081 0.0000 0.0000 0.0000
# 2 35.1946 80.7228 22.3857 0.0000 0.0000 0.0000
# 3 30.3081 22.3857 72.5202 0.0000 0.0000 0.0000
# 4 0.0000 0.0000 0.0000 30.5251 0.0000 0.0000
# 5 0.0000 0.0000 0.0000 0.0000 22.9899 0.0000
# 6 0.0000 0.0000 0.0000 0.0000 0.0000 29.2466
#
#
#
# Elastic Compliance Matrix: (Units=1/GPa)
#
#
# Indices 1 2 3 4 5 6 
#
# 1 0.012890 -0.004512 -0.003994 0.000000 0.000000 0.000000
# 2 -0.004512 0.015127 -0.002784 0.000000 0.000000 0.000000
# 3 -0.003994 -0.002784 0.016318 0.000000 0.000000 0.000000
# 4 0.000000 0.000000 0.000000 0.032760 0.000000 0.000000
# 5 0.000000 0.000000 0.000000 0.000000 0.043497 0.000000
# 6 0.000000 0.000000 0.000000 0.000000 0.000000 0.034192
#
#
# Mechanical properties :
#
#
# Convention : Reuss Voigt Hill
#
# Bulk Modulus (GPa) = 45.96700 47.59008 46.77854
# Shear Modulus (GPa) = 27.08311 27.52866 27.30589
#
# Velocity S-wave (km/s) = 3.73159 3.76216 3.74691
# Velocity P-wave (km/s) = 6.49618 6.58333 6.53990
#
# Compressibility (1/GPa) = 0.02175474
#
# Stress axis : x y z
#
# Youngs Moduli (GPa) = 77.57909 66.10526 61.28255
#
# Poissons Ratio (x) = 0.29829 0.24478
# Poissons Ratio (y) = 0.35006 0.17059
# Poissons Ratio (z) = 0.30987 0.18402
#
# Static dielectric constant tensor:
#      x y z
#    x 3.617170 0.000000 0.000000 
#    y 0.000000 3.650400 0.000000 
#    z 0.000000 0.000000 3.414290 
# 
# 
# High freq. dielectric constant tensor:
#      x y z
#    x 1.746770 0.000000 0.000000 
#    y 0.000000 1.760160 0.000000 
#    z 0.000000 0.000000 1.743790 
# 
# From -- ./inp_files/22357.got.cif
#   From: 2010.03.12/outbox.cif.g09.slc.cpg/sg67_12_cif.got.tgz:22357.got - 2010.04.10 22:41:39.
