data_PCOD8279139
_publ_section_title
;
Structure prediction by ZEFSAII (Michael W. Deem and Ramdas Pophale) SiO2 
 PCOD8279139
Probable space group: C M M A
;
_chemical_formula_sum "Si O2"
_cell_formula_units_Z 80
_cell_length_a 15.017689
_cell_length_b 25.364934
_cell_length_c 10.411482
_cell_angle_alpha 90.000000
_cell_angle_beta 90.000000
_cell_angle_gamma 90.000000
_cell_volume 3965.969734
_symmetry_space_group_name_H-M "C M M A"
_symmetry_group_IT_number 67
_symmetry_cell_setting 'orthorhombic'
loop_
_space_group_symop_operation_xyz
x,y,z
-x,1/2-y,z
x,-y,-z
-x,1/2+y,-z
-x,-y,-z
x,1/2+y,-z
-x,y,z
x,1/2-y,z
1/2+x,1/2+y,z
1/2-x,-y,z
1/2+x,1/2-y,-z
1/2-x,y,-z
1/2-x,1/2-y,-z
1/2+x,y,-z
1/2-x,1/2+y,z
1/2+x,-y,z
loop_
_atom_site_type_symbol
_atom_site_label
_atom_site_fract_x
_atom_site_fract_y
_atom_site_fract_z
Si Si1 0.896048 0.049291 0.714558
Si Si2 0.240801 0.133368 0.639649
Si Si3 0.599846 0.589022 0.978943
Si Si4 0.822559 0.691357 0.111068
Si Si5 0.896259 0.569987 0.741453
O O1 0.833694 0.086813 0.628911
O O2 0.861039 0.055025 0.861692
O O3 0.000000 0.066547 0.699848
O O4 0.884051 0.988048 0.680392
O O5 0.250000 0.161283 0.500000
O O6 0.217283 0.175279 0.750137
O O7 0.339109 0.109917 0.658681
O O8 0.500000 0.570758 0.999985
O O9 0.603086 0.650488 0.937049
O O10 0.646171 0.575209 0.114225
O O11 0.863484 0.750000 0.124706
O O12 0.750000 0.690447 0.000000
O O13 0.000000 0.586974 0.737040
#
# Coordination Sequence:
#
# PCOD8279139 Si02
#       5
#    16  16  16  16  16
#     4   9  19  33  53  80 112 148 185 225 266 321
#     4  11  23  37  54  80 113 148 185 224 272 324
#     4   9  17  32  54  82 110 137 177 228 279 324
#     4  10  20  37  59  80 103 133 180 230 278 327
#     4  10  19  33  53  80 113 148 184 222 269 321
#
# _framework density 20.171612
#
# number of rings (size 3 to 8) (size 9 to 14) (size 15 to 20)
#    0.000    2.200    2.000    1.200    0.000    5.600 
#    0.000    4.000    0.000    0.600    0.000    2.800 
#    0.000    0.000    0.000    0.000    0.000    0.000 
#
# Total GULP energy -495617.390584 kJ/mol
# GULP energy per Si atom -12390.434765 kJ/mol
# Density = 2.012570 g / cm^3
# Si number density = 20.171612 Si / 1000 Ang^3
#
#
#
# Elastic Constant Matrix: (Units=GPa)
#
#
# Indices 1 2 3 4 5 6 
#
# 1 53.7126 3.4929 4.8949 0.0000 0.0000 0.0000
# 2 3.4929 71.8942 4.6179 0.0000 0.0000 0.0000
# 3 4.8949 4.6179 101.5926 0.0000 0.0000 0.0000
# 4 0.0000 0.0000 0.0000 11.4352 0.0000 0.0000
# 5 0.0000 0.0000 0.0000 0.0000 20.4152 0.0000
# 6 0.0000 0.0000 0.0000 0.0000 0.0000 18.5907
#
#
#
# Elastic Compliance Matrix: (Units=1/GPa)
#
#
# Indices 1 2 3 4 5 6 
#
# 1 0.018752 -0.000856 -0.000865 0.000000 0.000000 0.000000
# 2 -0.000856 0.013989 -0.000595 0.000000 0.000000 0.000000
# 3 -0.000865 -0.000595 0.009912 0.000000 0.000000 0.000000
# 4 0.000000 0.000000 0.000000 0.087450 0.000000 0.000000
# 5 0.000000 0.000000 0.000000 0.000000 0.048983 0.000000
# 6 0.000000 0.000000 0.000000 0.000000 0.000000 0.053790
#
#
# Mechanical properties :
#
#
# Convention : Reuss Voigt Hill
#
# Bulk Modulus (GPa) = 26.29956 28.13455 27.21705
# Shear Modulus (GPa) = 19.98561 24.36781 22.17671
#
# Velocity S-wave (km/s) = 3.15108 3.47944 3.31932
# Velocity P-wave (km/s) = 5.12887 5.48815 5.31155
#
# Compressibility (1/GPa) = 0.03802346
#
# Stress axis : x y z
#
# Youngs Moduli (GPa) = 53.32755 71.48431 100.88860
#
# Poissons Ratio (x) = 0.06116 0.08723
# Poissons Ratio (y) = 0.04562 0.05999
# Poissons Ratio (z) = 0.04611 0.04251
#
# Static dielectric constant tensor:
#      x y z
#    x 3.528710 0.000000 0.000000 
#    y 0.000000 3.636950 0.000000 
#    z 0.000000 0.000000 3.815790 
# 
# 
# High freq. dielectric constant tensor:
#      x y z
#    x 1.777680 0.000000 0.000000 
#    y 0.000000 1.760860 0.000000 
#    z 0.000000 0.000000 1.790890 
# 
# From -- ./inp_files/9926.got.cif
#   From: 2010.03.12/outbox.cif.g09.slc.cpg/sg67_5_cif.got.tgz:9926.got - 2010.04.10 22:41:39.
