data_PCOD8279021
_publ_section_title
;
Structure prediction by ZEFSAII (Michael W. Deem and Ramdas Pophale) SiO2 
 PCOD8279021
Probable space group: C M M A
;
_chemical_formula_sum "Si O2"
_cell_formula_units_Z 100
_cell_length_a 17.641432
_cell_length_b 20.688188
_cell_length_c 15.309446
_cell_angle_alpha 90.000000
_cell_angle_beta 90.000000
_cell_angle_gamma 90.000000
_cell_volume 5587.477205
_symmetry_space_group_name_H-M "C M M A"
_symmetry_group_IT_number 67
_symmetry_cell_setting 'orthorhombic'
loop_
_space_group_symop_operation_xyz
x,y,z
-x,1/2-y,z
x,-y,-z
-x,1/2+y,-z
-x,-y,-z
x,1/2+y,-z
-x,y,z
x,1/2-y,z
1/2+x,1/2+y,z
1/2-x,-y,z
1/2+x,1/2-y,-z
1/2-x,y,-z
1/2-x,1/2-y,-z
1/2+x,y,-z
1/2-x,1/2+y,z
1/2+x,-y,z
loop_
_atom_site_type_symbol
_atom_site_label
_atom_site_fract_x
_atom_site_fract_y
_atom_site_fract_z
Si Si1 0.750000 0.000000 0.000000
Si Si2 0.087056 0.954424 0.573652
Si Si3 0.912435 0.000638 0.232910
Si Si4 0.676811 0.097409 0.130395
Si Si5 0.410962 0.677570 0.351851
Si Si6 0.916212 0.824967 0.997690
Si Si7 0.659188 0.130674 0.822285
O O1 0.696390 0.956254 0.941163
O O2 0.118301 0.879841 0.582689
O O3 0.000000 0.947710 0.546718
O O4 0.127734 0.000000 0.500000
O O5 0.098755 0.991045 0.664177
O O6 0.873160 0.933698 0.207316
O O7 0.000000 0.999565 0.206249
O O8 0.872089 0.058205 0.181240
O O9 0.627427 0.151199 0.083044
O O10 0.749853 0.129471 0.175284
O O11 0.500000 0.665996 0.332286
O O12 0.397054 0.750000 0.390850
O O13 0.367672 0.672769 0.260019
O O14 0.925663 0.750000 0.010911
O O15 0.000000 0.857174 0.991194
O O16 0.869355 0.837406 0.910484
#
# Coordination Sequence:
#
# PCOD8279021 Si02
#       7
#     4  16  16  16  16  16  16
#     4  12  20  36  48  72  98 132 170 222 248 300
#     4   8  15  29  51  79 106 129 163 209 258 312
#     4  10  19  32  53  76  99 133 169 213 267 308
#     4  12  21  35  50  71 103 133 175 215 258 307
#     4   9  17  29  48  76 106 133 163 205 256 308
#     4  11  23  36  50  70  98 136 179 218 255 302
#     4  11  19  31  50  72 101 132 170 212 260 308
#
# _framework density 17.897164
#
# number of rings (size 3 to 8) (size 9 to 14) (size 15 to 20)
#    0.000    1.760    3.200    3.360    0.000    3.200 
#    0.000    2.400    0.000    8.640    0.000    5.600 
#    0.000    0.000    0.000    0.000    0.000    0.000 
#
# Total GULP energy -619835.792126 kJ/mol
# GULP energy per Si atom -12396.715843 kJ/mol
# Density = 1.785643 g / cm^3
# Si number density = 17.897164 Si / 1000 Ang^3
#
#
#
# Elastic Constant Matrix: (Units=GPa)
#
#
# Indices 1 2 3 4 5 6 
#
# 1 81.9194 36.5244 25.8453 0.0000 0.0000 0.0000
# 2 36.5244 103.6536 58.9855 0.0000 0.0000 0.0000
# 3 25.8453 58.9855 63.4224 0.0000 0.0000 0.0000
# 4 0.0000 0.0000 0.0000 23.8632 0.0000 0.0000
# 5 0.0000 0.0000 0.0000 0.0000 10.5287 0.0000
# 6 0.0000 0.0000 0.0000 0.0000 0.0000 4.7606
#
#
#
# Elastic Compliance Matrix: (Units=1/GPa)
#
#
# Indices 1 2 3 4 5 6 
#
# 1 0.014665 -0.003753 -0.002486 0.000000 0.000000 0.000000
# 2 -0.003753 0.021454 -0.018424 0.000000 0.000000 0.000000
# 3 -0.002486 -0.018424 0.033916 0.000000 0.000000 0.000000
# 4 0.000000 0.000000 0.000000 0.041906 0.000000 0.000000
# 5 0.000000 0.000000 0.000000 0.000000 0.094979 0.000000
# 6 0.000000 0.000000 0.000000 0.000000 0.000000 0.210059
#
#
# Mechanical properties :
#
#
# Convention : Reuss Voigt Hill
#
# Bulk Modulus (GPa) = 48.28794 54.63398 51.46096
# Shear Modulus (GPa) = 10.56621 16.33983 13.45302
#
# Velocity S-wave (km/s) = 2.43242 3.02484 2.74466
# Velocity P-wave (km/s) = 5.91001 6.54159 6.23381
#
# Compressibility (1/GPa) = 0.02070910
#
# Stress axis : x y z
#
# Youngs Moduli (GPa) = 68.19154 46.61029 29.48497
#
# Poissons Ratio (x) = 0.17492 0.07329
# Poissons Ratio (y) = 0.25591 0.54324
# Poissons Ratio (z) = 0.16950 0.85876
#
# Static dielectric constant tensor:
#      x y z
#    x 3.558370 0.000000 0.000000 
#    y 0.000000 3.491250 0.000000 
#    z 0.000000 0.000000 3.232660 
# 
# 
# High freq. dielectric constant tensor:
#      x y z
#    x 1.681440 0.000000 0.000000 
#    y 0.000000 1.695790 0.000000 
#    z 0.000000 0.000000 1.672850 
# 
# From -- ./inp_files/28635.got.cif
#   From: 2010.03.12/outbox.cif.g09.slc.cpg/sg67_15_cif.got.tgz:28635.got - 2010.04.10 22:41:39.
