data_PCOD8279231
_publ_section_title
;
Structure prediction by ZEFSAII (Michael W. Deem and Ramdas Pophale) SiO2 
 PCOD8279231
Probable space group: C M M A
;
_chemical_formula_sum "Si O2"
_cell_formula_units_Z 104
_cell_length_a 8.535875
_cell_length_b 31.995539
_cell_length_c 20.518966
_cell_angle_alpha 90.000000
_cell_angle_beta 90.000000
_cell_angle_gamma 90.000000
_cell_volume 5603.933193
_symmetry_space_group_name_H-M "C M M A"
_symmetry_group_IT_number 67
_symmetry_cell_setting 'orthorhombic'
loop_
_space_group_symop_operation_xyz
x,y,z
-x,1/2-y,z
x,-y,-z
-x,1/2+y,-z
-x,-y,-z
x,1/2+y,-z
-x,y,z
x,1/2-y,z
1/2+x,1/2+y,z
1/2-x,-y,z
1/2+x,1/2-y,-z
1/2-x,y,-z
1/2-x,1/2-y,-z
1/2+x,y,-z
1/2-x,1/2+y,z
1/2+x,-y,z
loop_
_atom_site_type_symbol
_atom_site_label
_atom_site_fract_x
_atom_site_fract_y
_atom_site_fract_z
Si Si1 0.178866 0.794982 0.308617
Si Si2 0.186063 0.044522 0.571399
Si Si3 0.819384 0.402545 0.189636
Si Si4 0.685838 0.953782 0.066674
Si Si5 0.685283 0.887099 0.673962
Si Si6 0.321056 0.682461 0.836845
Si Si7 0.313384 0.250000 0.928313
O O1 0.254418 0.750000 0.333506
O O2 0.256219 0.839283 0.333448
O O3 0.189826 0.792810 0.230798
O O4 0.000000 0.795160 0.332044
O O5 0.250000 0.054187 0.500000
O O6 0.246578 0.082469 0.616916
O O7 0.000000 0.042170 0.570028
O O8 0.250000 0.000000 0.597423
O O9 0.751349 0.431866 0.132403
O O10 0.729210 0.408827 0.257771
O O11 0.796375 0.356038 0.164443
O O12 0.000000 0.412125 0.202960
O O13 0.500000 0.952730 0.064236
O O14 0.750000 0.000000 0.069586
O O15 0.750000 0.932036 0.000000
O O16 0.500000 0.882972 0.672437
O O17 0.500000 0.668077 0.849356
O O18 0.259254 0.709605 0.895496
O O19 0.500000 0.250000 0.924188
O O20 0.250000 0.250000 0.000000
#
# Coordination Sequence:
#
# PCOD8279231 Si02
#       7
#    16  16  16  16  16  16   8
#     4   8  13  26  51  76  98 127 166 208 252 304
#     4  10  20  35  55  80 109 145 185 220 268 324
#     4  10  21  35  52  78 107 136 171 216 268 318
#     4  10  21  36  54  73  96 128 170 213 261 318
#     4   9  19  33  52  80 108 137 177 222 265 319
#     4  10  19  34  53  73  98 131 169 211 260 316
#     4  12  24  36  50  70  98 132 173 220 269 322
#
# _framework density 18.558394
#
# number of rings (size 3 to 8) (size 9 to 14) (size 15 to 20)
#    0.000    2.308    0.769    4.385    0.000    4.923 
#    0.000    4.615    0.000    0.462    0.000    0.000 
#    0.000    0.000    0.000    0.000    0.000    0.615 
#
# Total GULP energy -644276.055990 kJ/mol
# GULP energy per Si atom -12389.924154 kJ/mol
# Density = 1.851615 g / cm^3
# Si number density = 18.558394 Si / 1000 Ang^3
#
#
#
# Elastic Constant Matrix: (Units=GPa)
#
#
# Indices 1 2 3 4 5 6 
#
# 1 33.5746 19.9958 18.2328 0.0000 0.0000 0.0000
# 2 19.9958 127.8523 81.6690 0.0000 0.0000 0.0000
# 3 18.2328 81.6690 107.5532 0.0000 0.0000 0.0000
# 4 0.0000 0.0000 0.0000 34.5307 0.0000 0.0000
# 5 0.0000 0.0000 0.0000 0.0000 23.5851 0.0000
# 6 0.0000 0.0000 0.0000 0.0000 0.0000 21.6566
#
#
#
# Elastic Compliance Matrix: (Units=1/GPa)
#
#
# Indices 1 2 3 4 5 6 
#
# 1 0.033435 -0.003124 -0.003296 0.000000 0.000000 0.000000
# 2 -0.003124 0.015481 -0.011225 0.000000 0.000000 0.000000
# 3 -0.003296 -0.011225 0.018380 0.000000 0.000000 0.000000
# 4 0.000000 0.000000 0.000000 0.028960 0.000000 0.000000
# 5 0.000000 0.000000 0.000000 0.000000 0.042400 0.000000
# 6 0.000000 0.000000 0.000000 0.000000 0.000000 0.046175
#
#
# Mechanical properties :
#
#
# Convention : Reuss Voigt Hill
#
# Bulk Modulus (GPa) = 31.24476 56.53060 43.88768
# Shear Modulus (GPa) = 21.66478 25.89330 23.77904
#
# Velocity S-wave (km/s) = 3.42041 3.73933 3.58342
# Velocity P-wave (km/s) = 5.69837 7.01217 6.38913
#
# Compressibility (1/GPa) = 0.03200536
#
# Stress axis : x y z
#
# Youngs Moduli (GPa) = 29.90900 64.59692 54.40585
#
# Poissons Ratio (x) = 0.20178 0.17932
# Poissons Ratio (y) = 0.09343 0.61073
# Poissons Ratio (z) = 0.09858 0.72513
#
# Static dielectric constant tensor:
#      x y z
#    x 3.322390 0.000000 0.000000 
#    y 0.000000 3.151970 0.000000 
#    z 0.000000 0.000000 3.499860 
# 
# 
# High freq. dielectric constant tensor:
#      x y z
#    x 1.708040 0.000000 0.000000 
#    y 0.000000 1.729030 0.000000 
#    z 0.000000 0.000000 1.701980 
# 
# From -- ./inp_files/41136.got.cif
#   From: 2010.03.12/outbox.cif.g09.slc.cpg/sg67_21_cif.got.tgz:41136.got - 2010.04.10 22:41:39.
