data_PCOD8279546
_publ_section_title
;
Structure prediction by ZEFSAII (Michael W. Deem and Ramdas Pophale) SiO2 
 PCOD8279546
Probable space group: C M M A
;
_chemical_formula_sum "Si O2"
_cell_formula_units_Z 80
_cell_length_a 9.118946
_cell_length_b 27.011749
_cell_length_c 18.857116
_cell_angle_alpha 90.000000
_cell_angle_beta 90.000000
_cell_angle_gamma 90.000000
_cell_volume 4644.859931
_symmetry_space_group_name_H-M "C M M A"
_symmetry_group_IT_number 67
_symmetry_cell_setting 'orthorhombic'
loop_
_space_group_symop_operation_xyz
x,y,z
-x,1/2-y,z
x,-y,-z
-x,1/2+y,-z
-x,-y,-z
x,1/2+y,-z
-x,y,z
x,1/2-y,z
1/2+x,1/2+y,z
1/2-x,-y,z
1/2+x,1/2-y,-z
1/2-x,y,-z
1/2-x,1/2-y,-z
1/2+x,y,-z
1/2-x,1/2+y,z
1/2+x,-y,z
loop_
_atom_site_type_symbol
_atom_site_label
_atom_site_fract_x
_atom_site_fract_y
_atom_site_fract_z
Si Si1 0.168575 0.950196 0.709248
Si Si2 0.171202 0.806607 0.930308
Si Si3 0.830757 0.807135 0.346866
Si Si4 0.826376 0.390274 0.428254
Si Si5 0.828146 0.149298 0.217367
O O1 0.212316 0.930946 0.631185
O O2 0.207826 0.908024 0.766720
O O3 0.000000 0.963666 0.711665
O O4 0.250000 0.000000 0.730002
O O5 0.219182 0.750000 0.916190
O O6 0.219152 0.839222 0.862939
O O7 0.000000 0.810658 0.944044
O O8 0.250000 0.828081 0.000000
O O9 0.815735 0.750000 0.367510
O O10 0.740663 0.837619 0.405477
O O11 0.763889 0.815489 0.268976
O O12 0.000000 0.824185 0.347067
O O13 0.750000 0.408803 0.500000
O O14 0.000000 0.384133 0.438542
O O15 0.000000 0.160532 0.230531
#
# Coordination Sequence:
#
# PCOD8279546 Si02
#       5
#    16  16  16  16  16
#     4   9  19  34  52  73  94 120 157 200 245 292
#     4   9  17  29  47  72 102 133 162 194 233 278
#     4  10  20  32  48  72  99 128 163 200 238 283
#     4  10  21  36  52  71  96 126 160 198 241 290
#     4   9  18  33  51  71  97 130 165 199 239 287
#
# _framework density 17.223341000000001
#
# number of rings (size 3 to 8) (size 9 to 14) (size 15 to 20)
#    0.000    2.600    0.000    3.000    0.000    8.000 
#    0.000    4.000    0.000    0.600    0.000    4.200 
#    0.000    0.000    0.000    0.000    0.000    0.000 
#
# Total GULP energy -496043.578542 kJ/mol
# GULP energy per Si atom -12401.089464 kJ/mol
# Density = 1.718414 g / cm^3
# Si number density = 17.223341 Si / 1000 Ang^3
#
#
#
# Elastic Constant Matrix: (Units=GPa)
#
#
# Indices 1 2 3 4 5 6 
#
# 1 61.9964 34.1610 36.8676 0.0000 0.0000 0.0000
# 2 34.1610 85.5037 42.9051 0.0000 0.0000 0.0000
# 3 36.8676 42.9051 124.5534 0.0000 0.0000 0.0000
# 4 0.0000 0.0000 0.0000 15.7702 0.0000 0.0000
# 5 0.0000 0.0000 0.0000 0.0000 31.9673 0.0000
# 6 0.0000 0.0000 0.0000 0.0000 0.0000 29.9081
#
#
#
# Elastic Compliance Matrix: (Units=1/GPa)
#
#
# Indices 1 2 3 4 5 6 
#
# 1 0.022436 -0.006808 -0.004296 0.000000 0.000000 0.000000
# 2 -0.006808 0.016205 -0.003567 0.000000 0.000000 0.000000
# 3 -0.004296 -0.003567 0.010529 0.000000 0.000000 0.000000
# 4 0.000000 0.000000 0.000000 0.063411 0.000000 0.000000
# 5 0.000000 0.000000 0.000000 0.000000 0.031282 0.000000
# 6 0.000000 0.000000 0.000000 0.000000 0.000000 0.033436
#
#
# Mechanical properties :
#
#
# Convention : Reuss Voigt Hill
#
# Bulk Modulus (GPa) = 50.43310 55.54677 52.98993
# Shear Modulus (GPa) = 23.44663 26.07044 24.75853
#
# Velocity S-wave (km/s) = 3.69362 3.89481 3.79555
# Velocity P-wave (km/s) = 6.89462 7.24893 7.07399
#
# Compressibility (1/GPa) = 0.01982825
#
# Stress axis : x y z
#
# Youngs Moduli (GPa) = 44.57124 61.70788 94.97583
#
# Poissons Ratio (x) = 0.42012 0.40800
# Poissons Ratio (y) = 0.30345 0.33879
# Poissons Ratio (z) = 0.19147 0.22012
#
# Static dielectric constant tensor:
#      x y z
#    x 3.258920 0.000000 0.000000 
#    y 0.000000 3.060480 0.000000 
#    z 0.000000 0.000000 3.255220 
# 
# 
# High freq. dielectric constant tensor:
#      x y z
#    x 1.670470 0.000000 0.000000 
#    y 0.000000 1.650570 0.000000 
#    z 0.000000 0.000000 1.659520 
# 
# From -- ./inp_files/32123.got.cif
#   From: 2010.03.12/outbox.cif.g09.slc.cpg/sg67_17_cif.got.tgz:32123.got - 2010.04.10 22:41:39.
