data_PCOD8279903
_publ_section_title
;
Structure prediction by ZEFSAII (Michael W. Deem and Ramdas Pophale) SiO2 
 PCOD8279903
Probable space group: C M M A
;
_chemical_formula_sum "Si O2"
_cell_formula_units_Z 96
_cell_length_a 18.250841
_cell_length_b 8.910946
_cell_length_c 31.061591
_cell_angle_alpha 90.000000
_cell_angle_beta 90.000000
_cell_angle_gamma 90.000000
_cell_volume 5051.616700
_symmetry_space_group_name_H-M "C M M A"
_symmetry_group_IT_number 67
_symmetry_cell_setting 'orthorhombic'
loop_
_space_group_symop_operation_xyz
x,y,z
-x,1/2-y,z
x,-y,-z
-x,1/2+y,-z
-x,-y,-z
x,1/2+y,-z
-x,y,z
x,1/2-y,z
1/2+x,1/2+y,z
1/2-x,-y,z
1/2+x,1/2-y,-z
1/2-x,y,-z
1/2-x,1/2-y,-z
1/2+x,y,-z
1/2-x,1/2+y,z
1/2+x,-y,z
loop_
_atom_site_type_symbol
_atom_site_label
_atom_site_fract_x
_atom_site_fract_y
_atom_site_fract_z
Si Si1 0.171073 0.071878 0.287971
Si Si2 0.671057 0.071344 0.877592
Si Si3 0.587289 0.580945 0.542281
Si Si4 0.583701 0.073429 0.628403
Si Si5 0.915255 0.925000 0.045346
Si Si6 0.417984 0.428085 0.794260
O O1 0.178376 0.250000 0.286593
O O2 0.130885 0.017548 0.331235
O O3 0.124640 0.011217 0.247505
O O4 0.250000 0.000000 0.285867
O O5 0.677274 0.250000 0.880503
O O6 0.623033 0.017718 0.837090
O O7 0.750000 0.000000 0.871657
O O8 0.634050 0.009081 0.920274
O O9 0.619613 0.500000 0.500000
O O10 0.500000 0.572945 0.541408
O O11 0.616342 0.750000 0.542111
O O12 0.616540 0.501429 0.585417
O O13 0.500000 0.023402 0.636519
O O14 0.588853 0.250000 0.622100
O O15 0.894742 0.750000 0.043484
O O16 0.000000 0.948991 0.057538
O O17 0.896844 0.000000 0.000000
O O18 0.500000 0.495634 0.794353
O O19 0.421687 0.250000 0.792665
#
# Coordination Sequence:
#
# PCOD8279903 Si02
#       6
#    16  16  16  16  16  16
#     4  10  20  34  53  76 104 137 172 212 258 309
#     4  11  22  36  56  82 114 149 185 225 271 323
#     4   9  16  26  43  69 100 131 164 206 255 304
#     4   9  17  30  49  72  98 131 172 213 252 299
#     4  10  21  38  60  85 113 145 184 229 275 324
#     4   9  18  34  57  82 106 137 179 222 263 312
#
# _framework density 19.003817999999999
#
# number of rings (size 3 to 8) (size 9 to 14) (size 15 to 20)
#    0.000    2.333    0.000    3.000    0.000    6.667 
#    0.000    2.500    0.000    4.000    0.000    3.500 
#    0.000    0.000    0.000    0.000    0.000    0.000 
#
# Total GULP energy -595286.380180 kJ/mol
# GULP energy per Si atom -12401.799587 kJ/mol
# Density = 1.896056 g / cm^3
# Si number density = 19.003818 Si / 1000 Ang^3
#
#
#
# Elastic Constant Matrix: (Units=GPa)
#
#
# Indices 1 2 3 4 5 6 
#
# 1 129.8768 43.5679 92.9057 0.0000 0.0000 0.0000
# 2 43.5679 68.3381 55.4408 0.0000 0.0000 0.0000
# 3 92.9057 55.4408 175.5129 0.0000 0.0000 0.0000
# 4 0.0000 0.0000 0.0000 24.7126 0.0000 0.0000
# 5 0.0000 0.0000 0.0000 0.0000 9.4109 0.0000
# 6 0.0000 0.0000 0.0000 0.0000 0.0000 26.7642
#
#
#
# Elastic Compliance Matrix: (Units=1/GPa)
#
#
# Indices 1 2 3 4 5 6 
#
# 1 0.013035 -0.003647 -0.005748 0.000000 0.000000 0.000000
# 2 -0.003647 0.020696 -0.004607 0.000000 0.000000 0.000000
# 3 -0.005748 -0.004607 0.010195 0.000000 0.000000 0.000000
# 4 0.000000 0.000000 0.000000 0.040465 0.000000 0.000000
# 5 0.000000 0.000000 0.000000 0.000000 0.106260 0.000000
# 6 0.000000 0.000000 0.000000 0.000000 0.000000 0.037363
#
#
# Mechanical properties :
#
#
# Convention : Reuss Voigt Hill
#
# Bulk Modulus (GPa) = 62.80467 84.17298 73.48883
# Shear Modulus (GPa) = 19.13335 24.29845 21.71590
#
# Velocity S-wave (km/s) = 3.17648 3.57964 3.38407
# Velocity P-wave (km/s) = 6.82448 7.84053 7.35009
#
# Compressibility (1/GPa) = 0.01592238
#
# Stress axis : x y z
#
# Youngs Moduli (GPa) = 76.71919 48.31947 98.08516
#
# Poissons Ratio (x) = 0.17622 0.56376
# Poissons Ratio (y) = 0.27980 0.45186
# Poissons Ratio (z) = 0.44096 0.22260
#
# Static dielectric constant tensor:
#      x y z
#    x 3.387440 0.000000 0.000000 
#    y 0.000000 3.355210 0.000000 
#    z 0.000000 0.000000 3.734150 
# 
# 
# High freq. dielectric constant tensor:
#      x y z
#    x 1.723120 0.000000 0.000000 
#    y 0.000000 1.725330 0.000000 
#    z 0.000000 0.000000 1.758980 
# 
# From -- ./inp_files/44575.got.cif
#   From: 2010.03.12/outbox.cif.g09.slc.cpg/sg67_23_cif.got.tgz:44575.got - 2010.04.10 22:41:39.
