data_PCOD8279502
_publ_section_title
;
Structure prediction by ZEFSAII (Michael W. Deem and Ramdas Pophale) SiO2 
 PCOD8279502
Probable space group: C M M A
;
_chemical_formula_sum "Si O2"
_cell_formula_units_Z 80
_cell_length_a 29.960088
_cell_length_b 8.871804
_cell_length_c 15.619628
_cell_angle_alpha 90.000000
_cell_angle_beta 90.000000
_cell_angle_gamma 90.000000
_cell_volume 4151.697568
_symmetry_space_group_name_H-M "C M M A"
_symmetry_group_IT_number 67
_symmetry_cell_setting 'orthorhombic'
loop_
_space_group_symop_operation_xyz
x,y,z
-x,1/2-y,z
x,-y,-z
-x,1/2+y,-z
-x,-y,-z
x,1/2+y,-z
-x,y,z
x,1/2-y,z
1/2+x,1/2+y,z
1/2-x,-y,z
1/2+x,1/2-y,-z
1/2-x,y,-z
1/2-x,1/2-y,-z
1/2+x,y,-z
1/2-x,1/2+y,z
1/2+x,-y,z
loop_
_atom_site_type_symbol
_atom_site_label
_atom_site_fract_x
_atom_site_fract_y
_atom_site_fract_z
Si Si1 0.606382 0.570950 0.238796
Si Si2 0.906008 0.083176 0.583722
Si Si3 0.447352 0.076612 0.087744
Si Si4 0.301968 0.083167 0.418698
Si Si5 0.293344 0.574363 0.244789
O O1 0.604786 0.750000 0.244806
O O2 0.586976 0.508457 0.328317
O O3 0.574902 0.511953 0.164797
O O4 0.657272 0.516999 0.216009
O O5 0.927938 0.250000 0.592499
O O6 0.854113 0.102828 0.567743
O O7 0.927167 0.000000 0.500000
O O8 0.500000 0.061388 0.098893
O O9 0.431967 0.250000 0.087844
O O10 0.431288 0.000000 0.000000
O O11 0.281135 0.250000 0.403332
O O12 0.280758 0.000000 0.500000
O O13 0.289501 0.968806 0.343648
O O14 0.289178 0.750000 0.229724
O O15 0.250000 0.500000 0.196454
#
# Coordination Sequence:
#
# PCOD8279502 Si02
#       5
#    16  16  16  16  16
#     4  10  20  34  54  80 110 145 183 223 270 322
#     4   9  16  27  45  70 102 141 184 227 269 315
#     4  10  21  38  62  91 118 141 168 208 262 323
#     4   9  16  26  40  59  87 125 171 223 273 316
#     4  10  20  32  46  67  97 135 179 222 263 309
#
# _framework density 19.269227000000001
#
# number of rings (size 3 to 8) (size 9 to 14) (size 15 to 20)
#    0.000    2.400    0.000    3.000    0.000    8.800 
#    0.000    2.000    0.000    1.200    0.000    4.200 
#    0.000    0.000    0.000    0.000    0.000    0.000 
#
# Total GULP energy -495639.891178 kJ/mol
# GULP energy per Si atom -12390.997279 kJ/mol
# Density = 1.922537 g / cm^3
# Si number density = 19.269227 Si / 1000 Ang^3
#
#
#
# Elastic Constant Matrix: (Units=GPa)
#
#
# Indices 1 2 3 4 5 6 
#
# 1 24.7802 19.6933 30.2728 0.0000 0.0000 0.0000
# 2 19.6933 98.9040 47.4845 0.0000 0.0000 0.0000
# 3 30.2728 47.4845 113.3807 0.0000 0.0000 0.0000
# 4 0.0000 0.0000 0.0000 30.9011 0.0000 0.0000
# 5 0.0000 0.0000 0.0000 0.0000 57.2534 0.0000
# 6 0.0000 0.0000 0.0000 0.0000 0.0000 25.4391
#
#
#
# Elastic Compliance Matrix: (Units=1/GPa)
#
#
# Indices 1 2 3 4 5 6 
#
# 1 0.062210 -0.005523 -0.014297 0.000000 0.000000 0.000000
# 2 -0.005523 0.013146 -0.004031 0.000000 0.000000 0.000000
# 3 -0.014297 -0.004031 0.014325 0.000000 0.000000 0.000000
# 4 0.000000 0.000000 0.000000 0.032361 0.000000 0.000000
# 5 0.000000 0.000000 0.000000 0.000000 0.017466 0.000000
# 6 0.000000 0.000000 0.000000 0.000000 0.000000 0.039310
#
#
# Mechanical properties :
#
#
# Convention : Reuss Voigt Hill
#
# Bulk Modulus (GPa) = 23.82125 47.99622 35.90873
# Shear Modulus (GPa) = 20.78890 32.02635 26.40762
#
# Velocity S-wave (km/s) = 3.28817 4.08124 3.70598
# Velocity P-wave (km/s) = 5.17738 6.86812 6.08179
#
# Compressibility (1/GPa) = 0.04197933
#
# Stress axis : x y z
#
# Youngs Moduli (GPa) = 16.07460 76.07017 69.80620
#
# Poissons Ratio (x) = 0.42012 0.99803
# Poissons Ratio (y) = 0.08878 0.28138
# Poissons Ratio (z) = 0.22982 0.30663
#
# Static dielectric constant tensor:
#      x y z
#    x 3.659770 0.000000 0.000000 
#    y 0.000000 3.848100 0.000000 
#    z 0.000000 0.000000 3.284590 
# 
# 
# High freq. dielectric constant tensor:
#      x y z
#    x 1.737590 0.000000 0.000000 
#    y 0.000000 1.768640 0.000000 
#    z 0.000000 0.000000 1.716100 
# 
# From -- ./inp_files/36068.got.cif
#   From: 2010.03.12/outbox.cif.g09.slc.cpg/sg67_19_cif.got.tgz:36068.got - 2010.04.10 22:41:39.
