data_PCOD8279321
_publ_section_title
;
Structure prediction by ZEFSAII (Michael W. Deem and Ramdas Pophale) SiO2 
 PCOD8279321
Probable space group: C M M A
;
_chemical_formula_sum "Si O2"
_cell_formula_units_Z 48
_cell_length_a 17.061246
_cell_length_b 25.227010
_cell_length_c 5.110582
_cell_angle_alpha 90.000000
_cell_angle_beta 90.000000
_cell_angle_gamma 90.000000
_cell_volume 2199.616077
_symmetry_space_group_name_H-M "C M M A"
_symmetry_group_IT_number 67
_symmetry_cell_setting 'orthorhombic'
loop_
_space_group_symop_operation_xyz
x,y,z
-x,1/2-y,z
x,-y,-z
-x,1/2+y,-z
-x,-y,-z
x,1/2+y,-z
-x,y,z
x,1/2-y,z
1/2+x,1/2+y,z
1/2-x,-y,z
1/2+x,1/2-y,-z
1/2-x,y,-z
1/2-x,1/2-y,-z
1/2+x,y,-z
1/2-x,1/2+y,z
1/2+x,-y,z
loop_
_atom_site_type_symbol
_atom_site_label
_atom_site_fract_x
_atom_site_fract_y
_atom_site_fract_z
Si Si1 0.589059 0.310397 0.613563
Si Si2 0.665374 0.354570 0.110214
Si Si3 0.662773 0.976072 0.752970
O O1 0.500000 0.322390 0.528636
O O2 0.599955 0.250000 0.707835
O O3 0.642837 0.318479 0.357526
O O4 0.608113 0.347835 0.862000
O O5 0.664345 0.413151 0.231551
O O6 0.750000 0.338338 0.000000
O O7 0.618534 0.000000 0.500000
O O8 0.750000 0.000000 0.751766
O O9 0.616392 0.000000 0.000000
#
# Coordination Sequence:
#
# PCOD8279321 Si02
#       3
#    16  16  16
#     4  11  26  46  65  90 137 186 214 260 341 403
#     4  12  23  39  71 105 124 166 230 280 314 380
#     4  10  19  34  59  95 126 166 198 258 327 397
#
# _framework density 21.82199
#
# number of rings (size 3 to 8) (size 9 to 14) (size 15 to 20)
#    0.000    1.000    3.333    5.000    4.667    6.667 
#    0.000    0.000    0.000   20.000    0.000    0.000 
#    0.000    0.000    0.000    0.000    0.000    0.000 
#
# Total GULP energy -297455.172018 kJ/mol
# GULP energy per Si atom -12393.965501 kJ/mol
# Density = 2.177232 g / cm^3
# Si number density = 21.821990 Si / 1000 Ang^3
#
#
#
# Elastic Constant Matrix: (Units=GPa)
#
#
# Indices 1 2 3 4 5 6 
#
# 1 70.8306 54.1116 40.3667 0.0000 0.0000 0.0000
# 2 54.1116 106.7972 52.3963 0.0000 0.0000 0.0000
# 3 40.3667 52.3963 206.7340 0.0000 0.0000 0.0000
# 4 0.0000 0.0000 0.0000 50.5665 0.0000 0.0000
# 5 0.0000 0.0000 0.0000 0.0000 19.0669 0.0000
# 6 0.0000 0.0000 0.0000 0.0000 0.0000 0.6637
#
#
#
# Elastic Compliance Matrix: (Units=1/GPa)
#
#
# Indices 1 2 3 4 5 6 
#
# 1 0.023608 -0.011077 -0.001802 0.000000 0.000000 0.000000
# 2 -0.011077 0.015891 -0.001865 0.000000 0.000000 0.000000
# 3 -0.001802 -0.001865 0.005662 0.000000 0.000000 0.000000
# 4 0.000000 0.000000 0.000000 0.019776 0.000000 0.000000
# 5 0.000000 0.000000 0.000000 0.000000 0.052447 0.000000
# 6 0.000000 0.000000 0.000000 0.000000 0.000000 1.506627
#
#
# Mechanical properties :
#
#
# Convention : Reuss Voigt Hill
#
# Bulk Modulus (GPa) = 63.80696 75.34566 69.57631
# Shear Modulus (GPa) = 3.01437 29.89192 16.45315
#
# Velocity S-wave (km/s) = 1.17658 3.70511 2.74883
# Velocity P-wave (km/s) = 5.58113 7.27366 6.48287
#
# Compressibility (1/GPa) = 0.01567227
#
# Stress axis : x y z
#
# Youngs Moduli (GPa) = 42.35868 62.92864 176.62905
#
# Poissons Ratio (x) = 0.69709 0.31830
# Poissons Ratio (y) = 0.46923 0.32934
# Poissons Ratio (z) = 0.07633 0.11734
#
# Static dielectric constant tensor:
#      x y z
#    x 3.610020 0.000000 0.000000 
#    y 0.000000 3.894410 0.000000 
#    z 0.000000 0.000000 2.517490 
# 
# 
# High freq. dielectric constant tensor:
#      x y z
#    x 1.817490 0.000000 0.000000 
#    y 0.000000 1.861640 0.000000 
#    z 0.000000 0.000000 1.894370 
# 
# From -- ./inp_files/1162.got.cif
#   From: 2010.03.12/outbox.cif.g09.slc.cpg/sg67_1_cif.got.tgz:1162.got - 2010.04.10 22:41:39.
