data_PCOD8279240
_publ_section_title
;
Structure prediction by ZEFSAII (Michael W. Deem and Ramdas Pophale) SiO2 
 PCOD8279240
Probable space group: C M M A
;
_chemical_formula_sum "Si O2"
_cell_formula_units_Z 88
_cell_length_a 9.294513
_cell_length_b 21.614731
_cell_length_c 22.809674
_cell_angle_alpha 90.000000
_cell_angle_beta 90.000000
_cell_angle_gamma 90.000000
_cell_volume 4582.426972
_symmetry_space_group_name_H-M "C M M A"
_symmetry_group_IT_number 67
_symmetry_cell_setting 'orthorhombic'
loop_
_space_group_symop_operation_xyz
x,y,z
-x,1/2-y,z
x,-y,-z
-x,1/2+y,-z
-x,-y,-z
x,1/2+y,-z
-x,y,z
x,1/2-y,z
1/2+x,1/2+y,z
1/2-x,-y,z
1/2+x,1/2-y,-z
1/2-x,y,-z
1/2-x,1/2-y,-z
1/2+x,y,-z
1/2-x,1/2+y,z
1/2+x,-y,z
loop_
_atom_site_type_symbol
_atom_site_label
_atom_site_fract_x
_atom_site_fract_y
_atom_site_fract_z
Si Si1 0.250000 0.500000 0.645352
Si Si2 0.162471 0.401611 0.443408
Si Si3 0.157865 0.908784 0.264039
Si Si4 0.828732 0.938141 0.137612
Si Si5 0.667627 0.680169 0.940046
Si Si6 0.831666 0.178946 0.640491
O O1 0.155432 0.544264 0.604517
O O2 0.143133 0.463770 0.688606
O O3 0.250000 0.424647 0.500000
O O4 0.244677 0.342640 0.416618
O O5 0.000000 0.383521 0.461081
O O6 0.235557 0.928067 0.203653
O O7 0.231181 0.852176 0.299699
O O8 0.000000 0.887459 0.243911
O O9 0.785386 0.875186 0.103538
O O10 0.000000 0.950132 0.135585
O O11 0.750000 0.000000 0.112113
O O12 0.500000 0.674728 0.953793
O O13 0.702269 0.750000 0.915163
O O14 0.750000 0.668849 0.000000
O O15 0.804275 0.250000 0.648537
O O16 0.000000 0.161952 0.632019
#
# Coordination Sequence:
#
# PCOD8279240 Si02
#       6
#     8  16  16  16  16  16
#     4  10  19  34  54  76 103 134 170 208 260 316
#     4  11  23  36  54  78 104 135 172 217 265 318
#     4   9  17  31  52  77 105 136 170 210 261 318
#     4  10  20  34  54  83 115 147 184 228 277 329
#     4   9  19  36  57  80 109 148 192 234 275 321
#     4   9  19  36  56  77 103 136 174 217 266 321
#
# _framework density 19.203799
#
# number of rings (size 3 to 8) (size 9 to 14) (size 15 to 20)
#    0.000    2.364    0.909    1.364    0.000    5.455 
#    0.000    5.455    0.000    0.000    0.000    2.545 
#    0.000    0.000    0.000    0.000    0.000    0.000 
#
# Total GULP energy -545170.365681 kJ/mol
# GULP energy per Si atom -12390.235584 kJ/mol
# Density = 1.916009 g / cm^3
# Si number density = 19.203799 Si / 1000 Ang^3
#
#
#
# Elastic Constant Matrix: (Units=GPa)
#
#
# Indices 1 2 3 4 5 6 
#
# 1 66.6820 41.2011 36.0307 0.0000 0.0000 0.0000
# 2 41.2011 153.3002 73.1665 0.0000 0.0000 0.0000
# 3 36.0307 73.1665 115.3368 0.0000 0.0000 0.0000
# 4 0.0000 0.0000 0.0000 18.8683 0.0000 0.0000
# 5 0.0000 0.0000 0.0000 0.0000 22.8619 0.0000
# 6 0.0000 0.0000 0.0000 0.0000 0.0000 24.2154
#
#
#
# Elastic Compliance Matrix: (Units=1/GPa)
#
#
# Indices 1 2 3 4 5 6 
#
# 1 0.019129 -0.003283 -0.003893 0.000000 0.000000 0.000000
# 2 -0.003283 0.009919 -0.005267 0.000000 0.000000 0.000000
# 3 -0.003893 -0.005267 0.013228 0.000000 0.000000 0.000000
# 4 0.000000 0.000000 0.000000 0.052999 0.000000 0.000000
# 5 0.000000 0.000000 0.000000 0.000000 0.043741 0.000000
# 6 0.000000 0.000000 0.000000 0.000000 0.000000 0.041296
#
#
# Mechanical properties :
#
#
# Convention : Reuss Voigt Hill
#
# Bulk Modulus (GPa) = 57.50575 70.67952 64.09264
# Shear Modulus (GPa) = 23.69739 25.51716 24.60727
#
# Velocity S-wave (km/s) = 3.51664 3.64917 3.58351
# Velocity P-wave (km/s) = 6.81902 7.39189 7.11123
#
# Compressibility (1/GPa) = 0.01738957
#
# Stress axis : x y z
#
# Youngs Moduli (GPa) = 52.27782 100.81413 75.59936
#
# Poissons Ratio (x) = 0.33097 0.29431
# Poissons Ratio (y) = 0.17163 0.39818
# Poissons Ratio (z) = 0.20352 0.53098
#
# Static dielectric constant tensor:
#      x y z
#    x 3.237710 0.000000 0.000000 
#    y 0.000000 3.662410 0.000000 
#    z 0.000000 0.000000 3.622090 
# 
# 
# High freq. dielectric constant tensor:
#      x y z
#    x 1.721670 0.000000 0.000000 
#    y 0.000000 1.752730 0.000000 
#    z 0.000000 0.000000 1.744340 
# 
# From -- ./inp_files/36958.got.cif
#   From: 2010.03.12/outbox.cif.g09.slc.cpg/sg67_19_cif.got.tgz:36958.got - 2010.04.10 22:41:39.
