data_PCOD8279226
_publ_section_title
;
Structure prediction by ZEFSAII (Michael W. Deem and Ramdas Pophale) SiO2 
 PCOD8279226
Probable space group: C M M A
;
_chemical_formula_sum "Si O2"
_cell_formula_units_Z 104
_cell_length_a 31.971860
_cell_length_b 8.951318
_cell_length_c 20.024186
_cell_angle_alpha 90.000000
_cell_angle_beta 90.000000
_cell_angle_gamma 90.000000
_cell_volume 5730.727516
_symmetry_space_group_name_H-M "C M M A"
_symmetry_group_IT_number 67
_symmetry_cell_setting 'orthorhombic'
loop_
_space_group_symop_operation_xyz
x,y,z
-x,1/2-y,z
x,-y,-z
-x,1/2+y,-z
-x,-y,-z
x,1/2+y,-z
-x,y,z
x,1/2-y,z
1/2+x,1/2+y,z
1/2-x,-y,z
1/2+x,1/2-y,-z
1/2-x,y,-z
1/2-x,1/2-y,-z
1/2+x,y,-z
1/2-x,1/2+y,z
1/2+x,-y,z
loop_
_atom_site_type_symbol
_atom_site_label
_atom_site_fract_x
_atom_site_fract_y
_atom_site_fract_z
Si Si1 0.562491 0.420802 0.161357
Si Si2 0.867891 0.422439 0.332711
Si Si3 0.793035 0.070560 0.428036
Si Si4 0.143372 0.420469 0.180932
Si Si5 0.794227 0.076396 0.064630
Si Si6 0.546334 0.923790 0.686266
Si Si7 0.000000 0.576609 0.929922
O O1 0.553601 0.250000 0.141961
O O2 0.610925 0.457967 0.154622
O O3 0.546193 0.457017 0.235136
O O4 0.540753 0.529827 0.110046
O O5 0.876252 0.250000 0.344995
O O6 0.832306 0.481074 0.383008
O O7 0.848923 0.453568 0.259146
O O8 0.913368 0.497028 0.346922
O O9 0.788785 0.250000 0.431717
O O10 0.801474 0.000000 0.500000
O O11 0.750000 0.000000 0.398613
O O12 0.127052 0.250000 0.172382
O O13 0.183581 0.449089 0.135592
O O14 0.789387 0.250000 0.048509
O O15 0.750000 0.000000 0.073774
O O16 0.817107 0.000000 0.000000
O O17 0.500000 0.977040 0.659427
O O18 0.551920 0.750000 0.671490
O O19 0.000000 0.750000 0.942070
O O20 0.000000 0.500000 0.000000
#
# Coordination Sequence:
#
# PCOD8279226 Si02
#       7
#    16  16  16  16  16  16   8
#     4  10  19  34  52  72  99 128 163 208 254 309
#     4   9  19  34  52  79 109 137 177 222 262 311
#     4  10  20  35  56  81 111 146 182 219 262 320
#     4   9  19  35  52  74 102 133 169 211 260 311
#     4  10  20  34  52  70  94 126 166 210 254 310
#     4   9  17  31  52  77 106 137 171 213 260 310
#     4  12  24  36  50  68  94 130 169 212 261 312
#
# _framework density 18.147783
#
# number of rings (size 3 to 8) (size 9 to 14) (size 15 to 20)
#    0.000    2.308    0.769    3.000    0.000    4.615 
#    0.000    1.538    0.000    0.462    0.000    0.000 
#    0.000    0.000    0.000    0.000    0.000    0.000 
#
# Total GULP energy -644440.445366 kJ/mol
# GULP energy per Si atom -12393.085488 kJ/mol
# Density = 1.810648 g / cm^3
# Si number density = 18.147783 Si / 1000 Ang^3
#
#
#
# Elastic Constant Matrix: (Units=GPa)
#
#
# Indices 1 2 3 4 5 6 
#
# 1 144.5103 56.5308 68.5105 0.0000 0.0000 0.0000
# 2 56.5308 89.3522 40.2154 0.0000 0.0000 0.0000
# 3 68.5105 40.2154 75.7632 0.0000 0.0000 0.0000
# 4 0.0000 0.0000 0.0000 24.5746 0.0000 0.0000
# 5 0.0000 0.0000 0.0000 0.0000 70.5116 0.0000
# 6 0.0000 0.0000 0.0000 0.0000 0.0000 32.8991
#
#
#
# Elastic Compliance Matrix: (Units=1/GPa)
#
#
# Indices 1 2 3 4 5 6 
#
# 1 0.013058 -0.003872 -0.009753 0.000000 0.000000 0.000000
# 2 -0.003872 0.015853 -0.004913 0.000000 0.000000 0.000000
# 3 -0.009753 -0.004913 0.024626 0.000000 0.000000 0.000000
# 4 0.000000 0.000000 0.000000 0.040692 0.000000 0.000000
# 5 0.000000 0.000000 0.000000 0.000000 0.014182 0.000000
# 6 0.000000 0.000000 0.000000 0.000000 0.000000 0.030396
#
#
# Mechanical properties :
#
#
# Convention : Reuss Voigt Hill
#
# Bulk Modulus (GPa) = 60.75050 71.12659 65.93854
# Shear Modulus (GPa) = 27.56766 35.22168 31.39467
#
# Velocity S-wave (km/s) = 3.90175 4.41026 4.16377
# Velocity P-wave (km/s) = 7.33800 8.07539 7.71551
#
# Compressibility (1/GPa) = 0.01646077
#
# Stress axis : x y z
#
# Youngs Moduli (GPa) = 76.57877 63.08033 40.60678
#
# Poissons Ratio (x) = 0.24425 0.39604
# Poissons Ratio (y) = 0.29652 0.19951
# Poissons Ratio (z) = 0.74688 0.30993
#
# Static dielectric constant tensor:
#      x y z
#    x 3.534610 0.000000 0.000000 
#    y 0.000000 3.458280 0.000000 
#    z 0.000000 0.000000 3.057790 
# 
# 
# High freq. dielectric constant tensor:
#      x y z
#    x 1.706660 0.000000 0.000000 
#    y 0.000000 1.709400 0.000000 
#    z 0.000000 0.000000 1.682970 
# 
# From -- ./inp_files/40205.got.cif
#   From: 2010.03.12/outbox.cif.g09.slc.cpg/sg67_21_cif.got.tgz:40205.got - 2010.04.10 22:41:39.
