data_PCOD8279241
_publ_section_title
;
Structure prediction by ZEFSAII (Michael W. Deem and Ramdas Pophale) SiO2 
 PCOD8279241
Probable space group: C M M A
;
_chemical_formula_sum "Si O2"
_cell_formula_units_Z 104
_cell_length_a 21.068376
_cell_length_b 8.847585
_cell_length_c 28.794873
_cell_angle_alpha 90.000000
_cell_angle_beta 90.000000
_cell_angle_gamma 90.000000
_cell_volume 5367.486633
_symmetry_space_group_name_H-M "C M M A"
_symmetry_group_IT_number 67
_symmetry_cell_setting 'orthorhombic'
loop_
_space_group_symop_operation_xyz
x,y,z
-x,1/2-y,z
x,-y,-z
-x,1/2+y,-z
-x,-y,-z
x,1/2+y,-z
-x,y,z
x,1/2-y,z
1/2+x,1/2+y,z
1/2-x,-y,z
1/2+x,1/2-y,-z
1/2-x,y,-z
1/2-x,1/2-y,-z
1/2+x,y,-z
1/2-x,1/2+y,z
1/2+x,-y,z
loop_
_atom_site_type_symbol
_atom_site_label
_atom_site_fract_x
_atom_site_fract_y
_atom_site_fract_z
Si Si1 0.316104 0.928051 0.108864
Si Si2 0.185009 0.426859 0.216582
Si Si3 0.109471 0.927989 0.618356
Si Si4 0.429048 0.570024 0.280058
Si Si5 0.927447 0.927841 0.049782
Si Si6 0.000000 0.575562 0.549063
Si Si7 0.682845 0.571222 0.544418
O O1 0.314128 0.750000 0.099122
O O2 0.324195 0.967281 0.162841
O O3 0.250000 0.000000 0.090125
O O4 0.377615 0.999387 0.084978
O O5 0.191300 0.250000 0.225016
O O6 0.250000 0.500000 0.235851
O O7 0.123392 0.491639 0.243692
O O8 0.122867 0.750000 0.620856
O O9 0.089797 0.989103 0.668916
O O10 0.058413 0.974355 0.580224
O O11 0.168081 0.018706 0.597262
O O12 0.500000 0.510003 0.267173
O O13 0.430310 0.750000 0.279632
O O14 0.915194 0.750000 0.046594
O O15 0.000000 0.962048 0.066098
O O16 0.914779 0.000000 0.000000
O O17 0.000000 0.500000 0.500000
O O18 0.000000 0.750000 0.539207
O O19 0.642330 0.500000 0.500000
O O20 0.680815 0.750000 0.540769
O O21 0.750000 0.500000 0.536073
#
# Coordination Sequence:
#
# PCOD8279241 Si02
#       7
#    16  16  16  16  16   8  16
#     4  10  20  35  56  83 115 151 194 243 291 343
#     4   9  19  35  57  83 111 146 187 234 284 336
#     4  10  19  34  54  77 104 136 172 211 258 311
#     4   9  17  33  57  82 109 143 184 228 272 325
#     4  10  21  37  57  83 117 156 196 240 291 346
#     4  10  20  32  50  74 100 134 170 206 251 304
#     4  11  22  37  55  76 102 133 168 210 256 310
#
# _framework density 19.375921999999999
#
# number of rings (size 3 to 8) (size 9 to 14) (size 15 to 20)
#    0.000    2.154    0.769    3.231    0.000    4.923 
#    0.000    5.385    0.000    1.385    0.000    0.000 
#    0.000    0.000    0.000    0.000    0.000    0.000 
#
# Total GULP energy -644346.247083 kJ/mol
# GULP energy per Si atom -12391.273982 kJ/mol
# Density = 1.933182 g / cm^3
# Si number density = 19.375922 Si / 1000 Ang^3
#
#
#
# Elastic Constant Matrix: (Units=GPa)
#
#
# Indices 1 2 3 4 5 6 
#
# 1 147.1789 49.6981 82.8388 0.0000 0.0000 0.0000
# 2 49.6981 68.6891 43.5351 0.0000 0.0000 0.0000
# 3 82.8388 43.5351 107.3441 0.0000 0.0000 0.0000
# 4 0.0000 0.0000 0.0000 37.1129 0.0000 0.0000
# 5 0.0000 0.0000 0.0000 0.0000 60.4640 0.0000
# 6 0.0000 0.0000 0.0000 0.0000 0.0000 72.8989
#
#
#
# Elastic Compliance Matrix: (Units=1/GPa)
#
#
# Indices 1 2 3 4 5 6 
#
# 1 0.012792 -0.004036 -0.008235 0.000000 0.000000 0.000000
# 2 -0.004036 0.020869 -0.005349 0.000000 0.000000 0.000000
# 3 -0.008235 -0.005349 0.017840 0.000000 0.000000 0.000000
# 4 0.000000 0.000000 0.000000 0.026945 0.000000 0.000000
# 5 0.000000 0.000000 0.000000 0.000000 0.016539 0.000000
# 6 0.000000 0.000000 0.000000 0.000000 0.000000 0.013718
#
#
# Mechanical properties :
#
#
# Convention : Reuss Voigt Hill
#
# Bulk Modulus (GPa) = 61.49652 75.03957 68.26804
# Shear Modulus (GPa) = 33.47536 43.90451 38.68994
#
# Velocity S-wave (km/s) = 4.16104 4.76534 4.47341
# Velocity P-wave (km/s) = 7.40900 8.31206 7.87349
#
# Compressibility (1/GPa) = 0.01626108
#
# Stress axis : x y z
#
# Youngs Moduli (GPa) = 78.17091 47.91864 56.05267
#
# Poissons Ratio (x) = 0.19341 0.46160
# Poissons Ratio (y) = 0.31551 0.29982
# Poissons Ratio (z) = 0.64375 0.25631
#
# Static dielectric constant tensor:
#      x y z
#    x 3.516170 0.000000 0.000000 
#    y 0.000000 3.467680 0.000000 
#    z 0.000000 0.000000 3.614510 
# 
# 
# High freq. dielectric constant tensor:
#      x y z
#    x 1.764870 0.000000 0.000000 
#    y 0.000000 1.736280 0.000000 
#    z 0.000000 0.000000 1.754530 
# 
# From -- ./inp_files/44697.got.cif
#   From: 2010.03.12/outbox.cif.g09.slc.cpg/sg67_23_cif.got.tgz:44697.got - 2010.04.10 22:41:39.
