data_PCOD8279624
_publ_section_title
;
Structure prediction by ZEFSAII (Michael W. Deem and Ramdas Pophale) SiO2 
 PCOD8279624
Probable space group: C M M A
;
_chemical_formula_sum "Si O2"
_cell_formula_units_Z 88
_cell_length_a 16.580526
_cell_length_b 9.767049
_cell_length_c 29.542819
_cell_angle_alpha 90.000000
_cell_angle_beta 90.000000
_cell_angle_gamma 90.000000
_cell_volume 4784.247121
_symmetry_space_group_name_H-M "C M M A"
_symmetry_group_IT_number 67
_symmetry_cell_setting 'orthorhombic'
loop_
_space_group_symop_operation_xyz
x,y,z
-x,1/2-y,z
x,-y,-z
-x,1/2+y,-z
-x,-y,-z
x,1/2+y,-z
-x,y,z
x,1/2-y,z
1/2+x,1/2+y,z
1/2-x,-y,z
1/2+x,1/2-y,-z
1/2-x,y,-z
1/2-x,1/2-y,-z
1/2+x,y,-z
1/2-x,1/2+y,z
1/2+x,-y,z
loop_
_atom_site_type_symbol
_atom_site_label
_atom_site_fract_x
_atom_site_fract_y
_atom_site_fract_z
Si Si1 0.169714 0.409794 0.906094
Si Si2 0.177289 0.906322 0.197332
Si Si3 0.086792 0.089030 0.714682
Si Si4 0.405561 0.600628 0.536968
Si Si5 0.324094 0.590330 0.627677
Si Si6 0.000000 0.411436 0.955213
O O1 0.191027 0.250000 0.915323
O O2 0.250000 0.500000 0.920735
O O3 0.148954 0.437384 0.853662
O O4 0.084768 0.450335 0.930114
O O5 0.205407 0.750000 0.201891
O O6 0.108735 0.943430 0.233331
O O7 0.250000 0.000000 0.211948
O O8 0.081232 0.250000 0.706922
O O9 0.146677 0.031737 0.676432
O O10 0.000000 0.020446 0.706765
O O11 0.365088 0.500000 0.500000
O O12 0.500000 0.603119 0.529343
O O13 0.367943 0.750000 0.527444
O O14 0.390385 0.560713 0.589171
O O15 0.300676 0.750000 0.630892
O O16 0.250000 0.500000 0.612234
O O17 0.000000 0.250000 0.965855
O O18 0.000000 0.500000 0.000000
#
# Coordination Sequence:
#
# PCOD8279624 Si02
#       6
#    16  16  16  16  16   8
#     4   9  19  35  55  80 110 143 179 223 271 319
#     4   9  17  30  51  76 102 132 166 205 250 301
#     4   9  17  29  49  75  98 126 165 203 240 289
#     4   9  18  33  52  71  92 120 156 198 241 286
#     4  10  20  33  49  70  97 127 158 197 241 287
#     4  10  22  38  56  80 110 144 184 228 271 318
#
# _framework density 18.393698000000001
#
# number of rings (size 3 to 8) (size 9 to 14) (size 15 to 20)
#    0.000    2.727    0.000    1.091    1.273    4.364 
#    0.000    3.636    0.000    3.273    0.000    0.000 
#    0.000    0.000    0.000    0.000    0.000    0.000 
#
# Total GULP energy -545089.845275 kJ/mol
# GULP energy per Si atom -12388.405574 kJ/mol
# Density = 1.835183 g / cm^3
# Si number density = 18.393698 Si / 1000 Ang^3
#
#
#
# Elastic Constant Matrix: (Units=GPa)
#
#
# Indices 1 2 3 4 5 6 
#
# 1 96.7629 45.4703 46.9829 0.0000 0.0000 0.0000
# 2 45.4703 54.7902 48.7083 0.0000 0.0000 0.0000
# 3 46.9829 48.7083 112.3757 0.0000 0.0000 0.0000
# 4 0.0000 0.0000 0.0000 22.5783 0.0000 0.0000
# 5 0.0000 0.0000 0.0000 0.0000 -8.0611 0.0000
# 6 0.0000 0.0000 0.0000 0.0000 0.0000 20.8642
#
#
#
# Elastic Compliance Matrix: (Units=1/GPa)
#
#
# Indices 1 2 3 4 5 6 
#
# 1 0.017122 -0.012764 -0.001626 0.000000 0.000000 0.000000
# 2 -0.012764 0.039208 -0.011658 0.000000 0.000000 0.000000
# 3 -0.001626 -0.011658 0.014632 0.000000 0.000000 0.000000
# 4 0.000000 0.000000 0.000000 0.044290 0.000000 0.000000
# 5 0.000000 0.000000 0.000000 0.000000 -0.124052 0.000000
# 6 0.000000 0.000000 0.000000 0.000000 0.000000 0.047929
#
#
# Mechanical properties :
#
#
# Convention : Reuss Voigt Hill
#
# Bulk Modulus (GPa) = 53.00613 60.69465 56.85039
# Shear Modulus (GPa) = 51.27471 15.26076 33.26773
#
# Velocity S-wave (km/s) = 5.28552 2.88353 4.25743
# Velocity P-wave (km/s) = 8.13198 6.64496 7.42579
#
# Compressibility (1/GPa) = 0.01886574
#
# Stress axis : x y z
#
# Youngs Moduli (GPa) = 58.40413 25.50486 68.34516
#
# Poissons Ratio (x) = 0.32554 0.11113
# Poissons Ratio (y) = 0.74547 0.79677
# Poissons Ratio (z) = 0.09497 0.29734
#
# Static dielectric constant tensor:
#      x y z
#    x 4.839140 0.000000 0.000000 
#    y 0.000000 3.597660 0.000000 
#    z 0.000000 0.000000 3.487940 
# 
# 
# High freq. dielectric constant tensor:
#      x y z
#    x 1.706920 0.000000 0.000000 
#    y 0.000000 1.690360 0.000000 
#    z 0.000000 0.000000 1.724640 
# 
# From -- ./inp_files/44312.got.cif
#   From: 2010.03.12/outbox.cif.g09.slc.cpg/sg67_23_cif.got.tgz:44312.got - 2010.04.10 22:41:39.
