data_PCOD8279267
_publ_section_title
;
Structure prediction by ZEFSAII (Michael W. Deem and Ramdas Pophale) SiO2 
 PCOD8279267
Probable space group: C M M A
;
_chemical_formula_sum "Si O2"
_cell_formula_units_Z 80
_cell_length_a 28.952455
_cell_length_b 8.643480
_cell_length_c 15.718708
_cell_angle_alpha 90.000000
_cell_angle_beta 90.000000
_cell_angle_gamma 90.000000
_cell_volume 3933.606139
_symmetry_space_group_name_H-M "C M M A"
_symmetry_group_IT_number 67
_symmetry_cell_setting 'orthorhombic'
loop_
_space_group_symop_operation_xyz
x,y,z
-x,1/2-y,z
x,-y,-z
-x,1/2+y,-z
-x,-y,-z
x,1/2+y,-z
-x,y,z
x,1/2-y,z
1/2+x,1/2+y,z
1/2-x,-y,z
1/2+x,1/2-y,-z
1/2-x,y,-z
1/2-x,1/2-y,-z
1/2+x,y,-z
1/2-x,1/2+y,z
1/2+x,-y,z
loop_
_atom_site_type_symbol
_atom_site_label
_atom_site_fract_x
_atom_site_fract_y
_atom_site_fract_z
Si Si1 0.947809 0.434366 0.751206
Si Si2 0.201605 0.066646 0.152890
Si Si3 0.796929 0.431904 0.661855
Si Si4 0.606523 0.069478 0.411698
Si Si5 0.109752 0.933661 0.087266
O O1 0.946614 0.250000 0.750195
O O2 0.922524 0.500758 0.667035
O O3 0.921376 0.495508 0.834721
O O4 0.000000 0.497487 0.752878
O O5 0.201968 0.250000 0.146855
O O6 0.250000 0.000000 0.118543
O O7 0.193059 0.014610 0.249384
O O8 0.161408 0.998251 0.094773
O O9 0.791654 0.250000 0.679092
O O10 0.750000 0.500000 0.620329
O O11 0.839275 0.469033 0.599417
O O12 0.597691 0.250000 0.415253
O O13 0.588501 0.000000 0.500000
O O14 0.110753 0.750000 0.084980
O O15 0.088100 0.000000 0.000000
#
# Coordination Sequence:
#
# PCOD8279267 Si02
#       5
#    16  16  16  16  16
#     4   9  19  39  64  85 114 156 195 239 298 356
#     4  11  21  35  58  87 119 158 198 239 288 343
#     4  10  19  34  55  83 117 157 197 240 288 345
#     4  10  21  37  58  86 118 154 197 241 291 346
#     4  11  22  39  61  89 121 154 197 241 290 350
#
# _framework density 20.337572000000002
#
# number of rings (size 3 to 8) (size 9 to 14) (size 15 to 20)
#    0.000    1.800    2.000    4.200    0.000    3.200 
#    0.000    4.000    0.000    4.200    0.000    0.000 
#    0.000    0.000    0.000    0.000    0.000    0.000 
#
# Total GULP energy -496064.255952 kJ/mol
# GULP energy per Si atom -12401.606399 kJ/mol
# Density = 2.029128 g / cm^3
# Si number density = 20.337572 Si / 1000 Ang^3
#
#
#
# Elastic Constant Matrix: (Units=GPa)
#
#
# Indices 1 2 3 4 5 6 
#
# 1 134.9084 38.7345 80.6588 0.0000 0.0000 0.0000
# 2 38.7345 81.0388 36.2188 0.0000 0.0000 0.0000
# 3 80.6588 36.2188 163.4070 0.0000 0.0000 0.0000
# 4 0.0000 0.0000 0.0000 33.2030 0.0000 0.0000
# 5 0.0000 0.0000 0.0000 0.0000 16.1839 0.0000
# 6 0.0000 0.0000 0.0000 0.0000 0.0000 17.7945
#
#
#
# Elastic Compliance Matrix: (Units=1/GPa)
#
#
# Indices 1 2 3 4 5 6 
#
# 1 0.011219 -0.003205 -0.004827 0.000000 0.000000 0.000000
# 2 -0.003205 0.014612 -0.001657 0.000000 0.000000 0.000000
# 3 -0.004827 -0.001657 0.008870 0.000000 0.000000 0.000000
# 4 0.000000 0.000000 0.000000 0.030118 0.000000 0.000000
# 5 0.000000 0.000000 0.000000 0.000000 0.061790 0.000000
# 6 0.000000 0.000000 0.000000 0.000000 0.000000 0.056197
#
#
# Mechanical properties :
#
#
# Convention : Reuss Voigt Hill
#
# Bulk Modulus (GPa) = 65.26282 76.73094 70.99688
# Shear Modulus (GPa) = 24.12073 28.35242 26.23657
#
# Velocity S-wave (km/s) = 3.44760 3.73780 3.59563
# Velocity P-wave (km/s) = 6.92873 7.51258 7.22655
#
# Compressibility (1/GPa) = 0.01532266
#
# Stress axis : x y z
#
# Youngs Moduli (GPa) = 89.13662 68.43655 112.74324
#
# Poissons Ratio (x) = 0.21933 0.54425
# Poissons Ratio (y) = 0.28567 0.18679
# Poissons Ratio (z) = 0.43029 0.11339
#
# Static dielectric constant tensor:
#      x y z
#    x 3.739340 0.000000 0.000000 
#    y 0.000000 3.462010 0.000000 
#    z 0.000000 0.000000 3.761660 
# 
# 
# High freq. dielectric constant tensor:
#      x y z
#    x 1.795710 0.000000 0.000000 
#    y 0.000000 1.777290 0.000000 
#    z 0.000000 0.000000 1.795390 
# 
# From -- ./inp_files/35767.got.cif
#   From: 2010.03.12/outbox.cif.g09.slc.cpg/sg67_18_cif.got.tgz:35767.got - 2010.04.10 22:41:39.
