data_PCOD8279211
_publ_section_title
;
Structure prediction by ZEFSAII (Michael W. Deem and Ramdas Pophale) SiO2 
 PCOD8279211
Probable space group: C M M A
;
_chemical_formula_sum "Si O2"
_cell_formula_units_Z 88
_cell_length_a 15.747798
_cell_length_b 8.950302
_cell_length_c 30.089960
_cell_angle_alpha 90.000000
_cell_angle_beta 90.000000
_cell_angle_gamma 90.000000
_cell_volume 4241.106079
_symmetry_space_group_name_H-M "C M M A"
_symmetry_group_IT_number 67
_symmetry_cell_setting 'orthorhombic'
loop_
_space_group_symop_operation_xyz
x,y,z
-x,1/2-y,z
x,-y,-z
-x,1/2+y,-z
-x,-y,-z
x,1/2+y,-z
-x,y,z
x,1/2-y,z
1/2+x,1/2+y,z
1/2-x,-y,z
1/2+x,1/2-y,-z
1/2-x,y,-z
1/2-x,1/2-y,-z
1/2+x,y,-z
1/2-x,1/2+y,z
1/2+x,-y,z
loop_
_atom_site_type_symbol
_atom_site_label
_atom_site_fract_x
_atom_site_fract_y
_atom_site_fract_z
Si Si1 0.400431 0.576482 0.810538
Si Si2 0.663799 0.572931 0.103197
Si Si3 0.000000 0.926469 0.952342
Si Si4 0.341813 0.071960 0.456773
Si Si5 0.901495 0.914249 0.362221
Si Si6 0.398938 0.083977 0.721978
O O1 0.500000 0.545382 0.816923
O O2 0.378305 0.750000 0.815663
O O3 0.349211 0.482933 0.846762
O O4 0.369230 0.521260 0.762348
O O5 0.673073 0.750000 0.102984
O O6 0.750000 0.500000 0.083607
O O7 0.584032 0.519557 0.073651
O O8 0.000000 0.750000 0.957764
O O9 0.000000 0.000000 0.000000
O O10 0.338275 0.250000 0.462150
O O11 0.389322 0.021679 0.411828
O O12 0.388701 0.000000 0.500000
O O13 0.250000 0.000000 0.453893
O O14 0.858936 0.750000 0.358883
O O15 0.000000 0.900093 0.352009
O O16 0.860906 0.019976 0.324376
O O17 0.500000 0.089433 0.719850
O O18 0.362124 0.250000 0.729061
#
# Coordination Sequence:
#
# PCOD8279211 Si02
#       6
#    16  16   8  16  16  16
#     4  10  19  33  57  86 116 156 200 242 291 351
#     4  11  23  41  63  93 128 165 208 259 310 362
#     4  10  24  44  68  94 128 168 210 258 311 366
#     4  10  20  34  52  71  94 127 166 211 263 323
#     4   9  18  33  51  73 102 134 172 219 270 326
#     4   9  17  29  49  78 110 145 183 227 278 334
#
# _framework density 20.749303999999999
#
# number of rings (size 3 to 8) (size 9 to 14) (size 15 to 20)
#    0.000    2.182    0.909    2.727    0.000    6.545 
#    0.000    2.727    0.000    2.182    0.000    0.000 
#    0.000    0.000    0.000    0.000    0.000    0.000 
#
# Total GULP energy -545519.699886 kJ/mol
# GULP energy per Si atom -12398.174997 kJ/mol
# Density = 2.070208 g / cm^3
# Si number density = 20.749304 Si / 1000 Ang^3
#
#
#
# Elastic Constant Matrix: (Units=GPa)
#
#
# Indices 1 2 3 4 5 6 
#
# 1 71.8801 37.9319 44.2853 0.0000 0.0000 0.0000
# 2 37.9319 101.9981 56.8284 0.0000 0.0000 0.0000
# 3 44.2853 56.8284 158.8602 0.0000 0.0000 0.0000
# 4 0.0000 0.0000 0.0000 42.6469 0.0000 0.0000
# 5 0.0000 0.0000 0.0000 0.0000 8.4460 0.0000
# 6 0.0000 0.0000 0.0000 0.0000 0.0000 24.2540
#
#
#
# Elastic Compliance Matrix: (Units=1/GPa)
#
#
# Indices 1 2 3 4 5 6 
#
# 1 0.018671 -0.005050 -0.003398 0.000000 0.000000 0.000000
# 2 -0.005050 0.013610 -0.003461 0.000000 0.000000 0.000000
# 3 -0.003398 -0.003461 0.008480 0.000000 0.000000 0.000000
# 4 0.000000 0.000000 0.000000 0.023448 0.000000 0.000000
# 5 0.000000 0.000000 0.000000 0.000000 0.118400 0.000000
# 6 0.000000 0.000000 0.000000 0.000000 0.000000 0.041230
#
#
# Mechanical properties :
#
#
# Convention : Reuss Voigt Hill
#
# Bulk Modulus (GPa) = 59.02232 67.86996 63.44614
# Shear Modulus (GPa) = 19.73895 27.98222 23.86059
#
# Velocity S-wave (km/s) = 3.08767 3.67629 3.39476
# Velocity P-wave (km/s) = 6.42019 7.12746 6.78305
#
# Compressibility (1/GPa) = 0.01694274
#
# Stress axis : x y z
#
# Youngs Moduli (GPa) = 53.55983 73.47282 117.92076
#
# Poissons Ratio (x) = 0.37104 0.40073
# Poissons Ratio (y) = 0.27048 0.40813
# Poissons Ratio (z) = 0.18201 0.25429
#
# Static dielectric constant tensor:
#      x y z
#    x 3.573490 0.000000 0.000000 
#    y 0.000000 3.893720 0.000000 
#    z 0.000000 0.000000 4.064340 
# 
# 
# High freq. dielectric constant tensor:
#      x y z
#    x 1.784050 0.000000 0.000000 
#    y 0.000000 1.816740 0.000000 
#    z 0.000000 0.000000 1.821850 
# 
# From -- ./inp_files/45785.got.cif
#   From: 2010.03.12/outbox.cif.g09.slc.cpg/sg67_23_cif.got.tgz:45785.got - 2010.04.10 22:41:39.
