data_PCOD8279257
_publ_section_title
;
Structure prediction by ZEFSAII (Michael W. Deem and Ramdas Pophale) SiO2 
 PCOD8279257
Probable space group: C M M A
;
_chemical_formula_sum "Si O2"
_cell_formula_units_Z 88
_cell_length_a 8.866511
_cell_length_b 27.071287
_cell_length_c 19.235641
_cell_angle_alpha 90.000000
_cell_angle_beta 90.000000
_cell_angle_gamma 90.000000
_cell_volume 4617.089821
_symmetry_space_group_name_H-M "C M M A"
_symmetry_group_IT_number 67
_symmetry_cell_setting 'orthorhombic'
loop_
_space_group_symop_operation_xyz
x,y,z
-x,1/2-y,z
x,-y,-z
-x,1/2+y,-z
-x,-y,-z
x,1/2+y,-z
-x,y,z
x,1/2-y,z
1/2+x,1/2+y,z
1/2-x,-y,z
1/2+x,1/2-y,-z
1/2-x,y,-z
1/2-x,1/2-y,-z
1/2+x,y,-z
1/2-x,1/2+y,z
1/2+x,-y,z
loop_
_atom_site_type_symbol
_atom_site_label
_atom_site_fract_x
_atom_site_fract_y
_atom_site_fract_z
Si Si1 0.680137 0.250000 0.924590
Si Si2 0.177843 0.359730 0.573994
Si Si3 0.831179 0.193234 0.310485
Si Si4 0.679038 0.657311 0.164687
Si Si5 0.677234 0.550002 0.346800
Si Si6 0.675699 0.949947 0.185440
O O1 0.500000 0.250000 0.928566
O O2 0.741169 0.300140 0.886911
O O3 0.750000 0.250000 0.000000
O O4 0.250000 0.348686 0.500000
O O5 0.220946 0.314388 0.624356
O O6 0.248351 0.408034 0.607551
O O7 0.000000 0.364953 0.566314
O O8 0.841906 0.250000 0.291380
O O9 0.761978 0.166492 0.242852
O O10 0.000000 0.172424 0.327427
O O11 0.500000 0.661603 0.166002
O O12 0.727723 0.600622 0.144887
O O13 0.500000 0.549073 0.359512
O O14 0.750000 0.500000 0.374971
O O15 0.718683 0.557445 0.266024
O O16 0.500000 0.957858 0.175869
O O17 0.750000 0.000000 0.154635
#
# Coordination Sequence:
#
# PCOD8279257 Si02
#       6
#     8  16  16  16  16  16
#     4  10  20  36  60  90 123 154 187 222 273 330
#     4  12  25  39  54  74 105 144 187 235 289 341
#     4  10  19  36  61  83 103 136 185 233 282 343
#     4   9  16  32  59  85 111 150 188 223 272 338
#     4  10  19  34  55  79 108 139 181 231 286 341
#     4   9  17  30  52  81 112 143 183 229 276 329
#
# _framework density 19.059623999999999
#
# number of rings (size 3 to 8) (size 9 to 14) (size 15 to 20)
#    0.000    2.000    2.727    2.182    0.000    1.818 
#    0.000    3.636    0.000    0.545    0.000    3.818 
#    0.000    0.000    0.000    0.000    0.000    0.000 
#
# Total GULP energy -545355.486592 kJ/mol
# GULP energy per Si atom -12394.442877 kJ/mol
# Density = 1.901624 g / cm^3
# Si number density = 19.059624 Si / 1000 Ang^3
#
#
#
# Elastic Constant Matrix: (Units=GPa)
#
#
# Indices 1 2 3 4 5 6 
#
# 1 62.8191 29.4235 26.0228 0.0000 0.0000 0.0000
# 2 29.4235 153.3701 55.8648 0.0000 0.0000 0.0000
# 3 26.0228 55.8648 74.2591 0.0000 0.0000 0.0000
# 4 0.0000 0.0000 0.0000 23.5972 0.0000 0.0000
# 5 0.0000 0.0000 0.0000 0.0000 24.1353 0.0000
# 6 0.0000 0.0000 0.0000 0.0000 0.0000 29.6884
#
#
#
# Elastic Compliance Matrix: (Units=1/GPa)
#
#
# Indices 1 2 3 4 5 6 
#
# 1 0.018929 -0.001674 -0.005374 0.000000 0.000000 0.000000
# 2 -0.001674 0.009129 -0.006281 0.000000 0.000000 0.000000
# 3 -0.005374 -0.006281 0.020075 0.000000 0.000000 0.000000
# 4 0.000000 0.000000 0.000000 0.042378 0.000000 0.000000
# 5 0.000000 0.000000 0.000000 0.000000 0.041433 0.000000
# 6 0.000000 0.000000 0.000000 0.000000 0.000000 0.033683
#
#
# Mechanical properties :
#
#
# Convention : Reuss Voigt Hill
#
# Bulk Modulus (GPa) = 46.56645 57.00781 51.78713
# Shear Modulus (GPa) = 25.06966 27.42666 26.24816
#
# Velocity S-wave (km/s) = 3.63068 3.79752 3.71504
# Velocity P-wave (km/s) = 6.48543 7.01451 6.75515
#
# Compressibility (1/GPa) = 0.02147469
#
# Stress axis : x y z
#
# Youngs Moduli (GPa) = 52.82905 109.53769 49.81322
#
# Poissons Ratio (x) = 0.18336 0.26770
# Poissons Ratio (y) = 0.08843 0.31289
# Poissons Ratio (z) = 0.28390 0.68804
#
# Static dielectric constant tensor:
#      x y z
#    x 3.367980 0.000000 0.000000 
#    y 0.000000 3.776230 0.000000 
#    z 0.000000 0.000000 3.285100 
# 
# 
# High freq. dielectric constant tensor:
#      x y z
#    x 1.717550 0.000000 0.000000 
#    y 0.000000 1.764510 0.000000 
#    z 0.000000 0.000000 1.706690 
# 
# From -- ./inp_files/32420.got.cif
#   From: 2010.03.12/outbox.cif.g09.slc.cpg/sg67_17_cif.got.tgz:32420.got - 2010.04.10 22:41:39.
