data_PCOD8279819
_publ_section_title
;
Structure prediction by ZEFSAII (Michael W. Deem and Ramdas Pophale) SiO2 
 PCOD8279819
Probable space group: C M M A
;
_chemical_formula_sum "Si O2"
_cell_formula_units_Z 96
_cell_length_a 8.798430
_cell_length_b 19.337861
_cell_length_c 30.812487
_cell_angle_alpha 90.000000
_cell_angle_beta 90.000000
_cell_angle_gamma 90.000000
_cell_volume 5242.523317
_symmetry_space_group_name_H-M "C M M A"
_symmetry_group_IT_number 67
_symmetry_cell_setting 'orthorhombic'
loop_
_space_group_symop_operation_xyz
x,y,z
-x,1/2-y,z
x,-y,-z
-x,1/2+y,-z
-x,-y,-z
x,1/2+y,-z
-x,y,z
x,1/2-y,z
1/2+x,1/2+y,z
1/2-x,-y,z
1/2+x,1/2-y,-z
1/2-x,y,-z
1/2-x,1/2-y,-z
1/2+x,y,-z
1/2-x,1/2+y,z
1/2+x,-y,z
loop_
_atom_site_type_symbol
_atom_site_label
_atom_site_fract_x
_atom_site_fract_y
_atom_site_fract_z
Si Si1 0.180053 0.927539 0.453841
Si Si2 0.328795 0.667602 0.210858
Si Si3 0.174928 0.831479 0.615370
Si Si4 0.829718 0.667808 0.296820
Si Si5 0.180483 0.926277 0.045167
Si Si6 0.321625 0.328645 0.123268
O O1 0.250000 0.906408 0.500000
O O2 0.220721 0.867956 0.420089
O O3 0.000000 0.934727 0.458235
O O4 0.250000 0.000000 0.437654
O O5 0.500000 0.640261 0.213595
O O6 0.321440 0.750000 0.211528
O O7 0.238992 0.637238 0.252270
O O8 0.255530 0.640007 0.166331
O O9 0.199706 0.750000 0.609996
O O10 0.227102 0.856728 0.662914
O O11 0.000000 0.852414 0.608823
O O12 0.830778 0.750000 0.294322
O O13 0.000000 0.638929 0.302802
O O14 0.230823 0.872649 0.082000
O O15 0.000000 0.932508 0.040747
O O16 0.250000 0.000000 0.057683
O O17 0.250000 0.899205 0.000000
O O18 0.500000 0.333034 0.130742
O O19 0.268920 0.250000 0.114931
#
# Coordination Sequence:
#
# PCOD8279819 Si02
#       6
#    16  16  16  16  16  16
#     4  11  22  38  58  78 103 136 175 214 257 310
#     4   9  16  26  43  69  99 130 163 200 243 291
#     4  10  20  34  53  79 109 138 172 215 259 302
#     4   9  16  27  45  70 101 136 170 204 246 297
#     4  10  20  34  52  71  94 126 162 199 240 290
#     4   9  18  32  49  71  98 127 160 199 243 289
#
# _framework density 18.311793000000002
#
# number of rings (size 3 to 8) (size 9 to 14) (size 15 to 20)
#    0.000    2.333    0.000    4.500    0.000    7.000 
#    0.000    0.000    0.000    1.000    0.000    4.667 
#    0.000    0.000    0.000    0.000    0.000    0.000 
#
# Total GULP energy -595249.856958 kJ/mol
# GULP energy per Si atom -12401.038687 kJ/mol
# Density = 1.827011 g / cm^3
# Si number density = 18.311793 Si / 1000 Ang^3
#
#
#
# Elastic Constant Matrix: (Units=GPa)
#
#
# Indices 1 2 3 4 5 6 
#
# 1 120.5167 33.0207 65.2891 0.0000 0.0000 0.0000
# 2 33.0207 43.5347 55.1540 0.0000 0.0000 0.0000
# 3 65.2891 55.1540 151.1921 0.0000 0.0000 0.0000
# 4 0.0000 0.0000 0.0000 0.9763 0.0000 0.0000
# 5 0.0000 0.0000 0.0000 0.0000 38.3215 0.0000
# 6 0.0000 0.0000 0.0000 0.0000 0.0000 20.9724
#
#
#
# Elastic Compliance Matrix: (Units=1/GPa)
#
#
# Indices 1 2 3 4 5 6 
#
# 1 0.011273 -0.004431 -0.003252 0.000000 0.000000 0.000000
# 2 -0.004431 0.044450 -0.014301 0.000000 0.000000 0.000000
# 3 -0.003252 -0.014301 0.013235 0.000000 0.000000 0.000000
# 4 0.000000 0.000000 0.000000 1.024305 0.000000 0.000000
# 5 0.000000 0.000000 0.000000 0.000000 0.026095 0.000000
# 6 0.000000 0.000000 0.000000 0.000000 0.000000 0.047682
#
#
# Mechanical properties :
#
#
# Convention : Reuss Voigt Hill
#
# Bulk Modulus (GPa) = 40.01650 69.13013 54.57332
# Shear Modulus (GPa) = 4.10058 22.83935 13.46997
#
# Velocity S-wave (km/s) = 1.49806 3.53547 2.71512
# Velocity P-wave (km/s) = 4.98924 7.38239 6.30049
#
# Compressibility (1/GPa) = 0.02498969
#
# Stress axis : x y z
#
# Youngs Moduli (GPa) = 88.70531 22.49736 75.55511
#
# Poissons Ratio (x) = 0.09969 0.24568
# Poissons Ratio (y) = 0.39307 1.08055
# Poissons Ratio (z) = 0.28844 0.32175
#
# Static dielectric constant tensor:
#      x y z
#    x 3.508310 0.000000 0.000000 
#    y 0.000000 3.008370 0.000000 
#    z 0.000000 0.000000 3.557150 
# 
# 
# High freq. dielectric constant tensor:
#      x y z
#    x 1.725650 0.000000 0.000000 
#    y 0.000000 1.662440 0.000000 
#    z 0.000000 0.000000 1.724840 
# 
# From -- ./inp_files/43501.got.cif
#   From: 2010.03.12/outbox.cif.g09.slc.cpg/sg67_22_cif.got.tgz:43501.got - 2010.04.10 22:41:39.
