data_PCOD8279345
_publ_section_title
;
Structure prediction by ZEFSAII (Michael W. Deem and Ramdas Pophale) SiO2 
 PCOD8279345
Probable space group: C M M A
;
_chemical_formula_sum "Si O2"
_cell_formula_units_Z 96
_cell_length_a 17.717517
_cell_length_b 27.336774
_cell_length_c 10.510696
_cell_angle_alpha 90.000000
_cell_angle_beta 90.000000
_cell_angle_gamma 90.000000
_cell_volume 5090.747958
_symmetry_space_group_name_H-M "C M M A"
_symmetry_group_IT_number 67
_symmetry_cell_setting 'orthorhombic'
loop_
_space_group_symop_operation_xyz
x,y,z
-x,1/2-y,z
x,-y,-z
-x,1/2+y,-z
-x,-y,-z
x,1/2+y,-z
-x,y,z
x,1/2-y,z
1/2+x,1/2+y,z
1/2-x,-y,z
1/2+x,1/2-y,-z
1/2-x,y,-z
1/2-x,1/2-y,-z
1/2+x,y,-z
1/2-x,1/2+y,z
1/2+x,-y,z
loop_
_atom_site_type_symbol
_atom_site_label
_atom_site_fract_x
_atom_site_fract_y
_atom_site_fract_z
Si Si1 0.089323 0.421374 0.725011
Si Si2 0.417145 0.024019 0.637945
Si Si3 0.694016 0.141862 0.110666
Si Si4 0.081670 0.193577 0.063372
Si Si5 0.688592 0.307646 0.710347
Si Si6 0.833223 0.607481 0.530136
O O1 0.107018 0.479523 0.729857
O O2 0.142357 0.401685 0.836912
O O3 0.111988 0.395617 0.591513
O O4 0.000000 0.411142 0.747077
O O5 0.500000 0.043337 0.675390
O O6 0.361890 0.070759 0.642002
O O7 0.418640 0.000000 0.500000
O O8 0.637296 0.180496 0.050174
O O9 0.736892 0.169467 0.224852
O O10 0.750000 0.121850 0.000000
O O11 0.067403 0.250000 0.049246
O O12 0.000000 0.166583 0.053910
O O13 0.117554 0.182075 0.199838
O O14 0.700634 0.250000 0.682161
O O15 0.670972 0.336521 0.579705
O O16 0.750000 0.588073 0.500000
#
# Coordination Sequence:
#
# PCOD8279345 Si02
#       6
#    16  16  16  16  16  16
#     4  10  20  36  57  85 114 144 182 230 282 332
#     4   8  17  33  54  78 107 138 173 217 268 324
#     4  10  19  35  56  81 110 147 189 233 278 326
#     4   9  18  33  55  78 101 142 195 237 274 328
#     4  10  21  36  53  78 114 149 182 225 282 334
#     4  11  20  34  54  85 110 148 184 227 271 336
#
# _framework density 18.857738999999999
#
# number of rings (size 3 to 8) (size 9 to 14) (size 15 to 20)
#    0.000    2.333    1.667    2.500    0.000    6.667 
#    0.000    0.000    0.000    9.000    0.000   10.500 
#    0.000    0.000    0.000    0.000    0.000    0.000 
#
# Total GULP energy -594844.606404 kJ/mol
# GULP energy per Si atom -12392.595967 kJ/mol
# Density = 1.881482 g / cm^3
# Si number density = 18.857739 Si / 1000 Ang^3
#
#
#
# Elastic Constant Matrix: (Units=GPa)
#
#
# Indices 1 2 3 4 5 6 
#
# 1 134.2245 52.7055 36.4673 0.0000 0.0000 0.0000
# 2 52.7055 97.7269 34.1653 0.0000 0.0000 0.0000
# 3 36.4673 34.1653 54.1288 0.0000 0.0000 0.0000
# 4 0.0000 0.0000 0.0000 29.5647 0.0000 0.0000
# 5 0.0000 0.0000 0.0000 0.0000 20.5818 0.0000
# 6 0.0000 0.0000 0.0000 0.0000 0.0000 26.1256
#
#
#
# Elastic Compliance Matrix: (Units=1/GPa)
#
#
# Indices 1 2 3 4 5 6 
#
# 1 0.010195 -0.003974 -0.004360 0.000000 0.000000 0.000000
# 2 -0.003974 0.014679 -0.006588 0.000000 0.000000 0.000000
# 3 -0.004360 -0.006588 0.025570 0.000000 0.000000 0.000000
# 4 0.000000 0.000000 0.000000 0.033824 0.000000 0.000000
# 5 0.000000 0.000000 0.000000 0.000000 0.048587 0.000000
# 6 0.000000 0.000000 0.000000 0.000000 0.000000 0.038277
#
#
# Mechanical properties :
#
#
# Convention : Reuss Voigt Hill
#
# Bulk Modulus (GPa) = 48.54346 59.19514 53.86930
# Shear Modulus (GPa) = 24.05663 26.10389 25.08026
#
# Velocity S-wave (km/s) = 3.57555 3.72459 3.65083
# Velocity P-wave (km/s) = 6.54553 7.06791 6.81173
#
# Compressibility (1/GPa) = 0.02060010
#
# Stress axis : x y z
#
# Youngs Moduli (GPa) = 98.08372 68.12470 39.10813
#
# Poissons Ratio (x) = 0.27074 0.17052
# Poissons Ratio (y) = 0.38980 0.25763
# Poissons Ratio (z) = 0.42768 0.44879
#
# Static dielectric constant tensor:
#      x y z
#    x 3.276020 0.000000 0.000000 
#    y 0.000000 3.560540 0.000000 
#    z 0.000000 0.000000 3.287170 
# 
# 
# High freq. dielectric constant tensor:
#      x y z
#    x 1.749780 0.000000 0.000000 
#    y 0.000000 1.720860 0.000000 
#    z 0.000000 0.000000 1.706210 
# 
# From -- ./inp_files/19830.got.cif
#   From: 2010.03.12/outbox.cif.g09.slc.cpg/sg67_10_cif.got.tgz:19830.got - 2010.04.10 22:41:39.
