data_PCOD8279896
_publ_section_title
;
Structure prediction by ZEFSAII (Michael W. Deem and Ramdas Pophale) SiO2 
 PCOD8279896
Probable space group: C M M A
;
_chemical_formula_sum "Si O2"
_cell_formula_units_Z 96
_cell_length_a 19.849453
_cell_length_b 8.914914
_cell_length_c 29.970452
_cell_angle_alpha 90.000000
_cell_angle_beta 90.000000
_cell_angle_gamma 90.000000
_cell_volume 5303.456292
_symmetry_space_group_name_H-M "C M M A"
_symmetry_group_IT_number 67
_symmetry_cell_setting 'orthorhombic'
loop_
_space_group_symop_operation_xyz
x,y,z
-x,1/2-y,z
x,-y,-z
-x,1/2+y,-z
-x,-y,-z
x,1/2+y,-z
-x,y,z
x,1/2-y,z
1/2+x,1/2+y,z
1/2-x,-y,z
1/2+x,1/2-y,-z
1/2-x,y,-z
1/2-x,1/2-y,-z
1/2+x,y,-z
1/2-x,1/2+y,z
1/2+x,-y,z
loop_
_atom_site_type_symbol
_atom_site_label
_atom_site_fract_x
_atom_site_fract_y
_atom_site_fract_z
Si Si1 0.576337 0.573044 0.545421
Si Si2 0.320051 0.572218 0.953297
Si Si3 0.319410 0.573194 0.719634
Si Si4 0.318550 0.073631 0.382032
Si Si5 0.422887 0.923350 0.876319
Si Si6 0.578449 0.924000 0.214827
O O1 0.603981 0.500000 0.500000
O O2 0.500000 0.520388 0.554815
O O3 0.581062 0.750000 0.539950
O O4 0.620808 0.515799 0.586877
O O5 0.311279 0.750000 0.958900
O O6 0.250000 0.500000 0.936963
O O7 0.377158 0.529730 0.917882
O O8 0.342519 0.500000 0.000000
O O9 0.312851 0.750000 0.724996
O O10 0.250000 0.500000 0.736767
O O11 0.333968 0.524699 0.668670
O O12 0.381532 0.515541 0.748261
O O13 0.309673 0.250000 0.385638
O O14 0.250000 0.000000 0.399507
O O15 0.500000 0.957205 0.889576
O O16 0.412701 0.750000 0.863570
O O17 0.399995 0.021320 0.834176
O O18 0.500000 0.956868 0.222970
O O19 0.596135 0.750000 0.219157
#
# Coordination Sequence:
#
# PCOD8279896 Si02
#       6
#    16  16  16  16  16  16
#     4   9  18  33  51  72  99 130 166 206 247 294
#     4  10  20  34  53  76 103 134 168 208 252 300
#     4  10  20  35  55  77 103 136 172 212 258 307
#     4   9  19  34  52  74 100 131 166 206 250 298
#     4   9  19  36  55  75 101 135 174 212 252 301
#     4  10  21  36  54  78 107 137 171 213 258 305
#
# _framework density 18.101403000000001
#
# number of rings (size 3 to 8) (size 9 to 14) (size 15 to 20)
#    0.000    2.500    0.000    2.000    0.000    5.667 
#    0.000    5.000    0.000    2.000    0.000    0.000 
#    0.000    0.000    0.000    0.000    0.000    0.000 
#
# Total GULP energy -595328.029064 kJ/mol
# GULP energy per Si atom -12402.667272 kJ/mol
# Density = 1.806020 g / cm^3
# Si number density = 18.101403 Si / 1000 Ang^3
#
#
#
# Elastic Constant Matrix: (Units=GPa)
#
#
# Indices 1 2 3 4 5 6 
#
# 1 105.8980 43.9240 84.3056 0.0000 0.0000 0.0000
# 2 43.9240 65.5436 46.7365 0.0000 0.0000 0.0000
# 3 84.3056 46.7365 118.4432 0.0000 0.0000 0.0000
# 4 0.0000 0.0000 0.0000 30.9352 0.0000 0.0000
# 5 0.0000 0.0000 0.0000 0.0000 36.3544 0.0000
# 6 0.0000 0.0000 0.0000 0.0000 0.0000 30.6331
#
#
#
# Elastic Compliance Matrix: (Units=1/GPa)
#
#
# Indices 1 2 3 4 5 6 
#
# 1 0.022999 -0.005204 -0.014317 0.000000 0.000000 0.000000
# 2 -0.005204 0.022408 -0.005138 0.000000 0.000000 0.000000
# 3 -0.014317 -0.005138 0.020661 0.000000 0.000000 0.000000
# 4 0.000000 0.000000 0.000000 0.032326 0.000000 0.000000
# 5 0.000000 0.000000 0.000000 0.000000 0.027507 0.000000
# 6 0.000000 0.000000 0.000000 0.000000 0.000000 0.032644
#
#
# Mechanical properties :
#
#
# Convention : Reuss Voigt Hill
#
# Bulk Modulus (GPa) = 59.70022 71.09078 65.39550
# Shear Modulus (GPa) = 23.42502 27.24579 25.33540
#
# Velocity S-wave (km/s) = 3.60126 3.88387 3.74523
# Velocity P-wave (km/s) = 7.09540 7.71177 7.41000
#
# Compressibility (1/GPa) = 0.01675036
#
# Stress axis : x y z
#
# Youngs Moduli (GPa) = 43.47931 44.62660 48.40072
#
# Poissons Ratio (x) = 0.23224 0.69296
# Poissons Ratio (y) = 0.22627 0.24868
# Poissons Ratio (z) = 0.62250 0.22928
#
# Static dielectric constant tensor:
#      x y z
#    x 3.428610 0.000000 0.000000 
#    y 0.000000 3.354550 0.000000 
#    z 0.000000 0.000000 3.421370 
# 
# 
# High freq. dielectric constant tensor:
#      x y z
#    x 1.702430 0.000000 0.000000 
#    y 0.000000 1.705260 0.000000 
#    z 0.000000 0.000000 1.702960 
# 
# From -- ./inp_files/43433.got.cif
#   From: 2010.03.12/outbox.cif.g09.slc.cpg/sg67_22_cif.got.tgz:43433.got - 2010.04.10 22:41:39.
