data_PCOD8279390
_publ_section_title
;
Structure prediction by ZEFSAII (Michael W. Deem and Ramdas Pophale) SiO2 
 PCOD8279390
Probable space group: C M M A
;
_chemical_formula_sum "Si O2"
_cell_formula_units_Z 80
_cell_length_a 16.706068
_cell_length_b 21.065681
_cell_length_c 11.598870
_cell_angle_alpha 90.000000
_cell_angle_beta 90.000000
_cell_angle_gamma 90.000000
_cell_volume 4081.928836
_symmetry_space_group_name_H-M "C M M A"
_symmetry_group_IT_number 67
_symmetry_cell_setting 'orthorhombic'
loop_
_space_group_symop_operation_xyz
x,y,z
-x,1/2-y,z
x,-y,-z
-x,1/2+y,-z
-x,-y,-z
x,1/2+y,-z
-x,y,z
x,1/2-y,z
1/2+x,1/2+y,z
1/2-x,-y,z
1/2+x,1/2-y,-z
1/2-x,y,-z
1/2-x,1/2-y,-z
1/2+x,y,-z
1/2-x,1/2+y,z
1/2+x,-y,z
loop_
_atom_site_type_symbol
_atom_site_label
_atom_site_fract_x
_atom_site_fract_y
_atom_site_fract_z
Si Si1 0.909856 0.677032 0.731431
Si Si2 0.908113 0.912604 0.537294
Si Si3 0.842460 0.822918 0.974499
Si Si4 0.092742 0.554375 0.090868
Si Si5 0.338742 0.526366 0.664473
O O1 0.909929 0.750000 0.701723
O O2 0.875057 0.643733 0.617899
O O3 0.854465 0.661155 0.840260
O O4 0.000000 0.652754 0.759320
O O5 0.852887 0.913956 0.422054
O O6 0.000000 0.901346 0.501316
O O7 0.902190 0.975384 0.616692
O O8 0.870527 0.750000 0.002040
O O9 0.750000 0.832039 0.000000
O O10 0.892900 0.874002 0.046511
O O11 0.145311 0.544713 0.204435
O O12 0.000000 0.546543 0.121662
O O13 0.119323 0.500000 0.000000
O O14 0.250000 0.500000 0.650529
#
# Coordination Sequence:
#
# PCOD8279390 Si02
#       5
#    16  16  16  16  16
#     4   9  18  34  59  86 112 150 198 243 290 353
#     4  10  19  36  59  81 112 151 194 242 292 352
#     4  10  22  38  58  87 124 162 201 248 304 362
#     4  11  24  39  60  90 120 157 205 251 300 362
#     4  11  23  36  55  83 118 151 190 240 299 357
#
# _framework density 19.598578
#
# number of rings (size 3 to 8) (size 9 to 14) (size 15 to 20)
#    0.000    1.800    0.000    5.400    5.600    4.400 
#    0.000    1.000    0.000    4.800    0.000    0.000 
#    0.000    0.000    0.000    0.000    0.000    0.000 
#
# Total GULP energy -495929.232558 kJ/mol
# GULP energy per Si atom -12398.230814 kJ/mol
# Density = 1.955397 g / cm^3
# Si number density = 19.598578 Si / 1000 Ang^3
#
#
#
# Elastic Constant Matrix: (Units=GPa)
#
#
# Indices 1 2 3 4 5 6 
#
# 1 87.8877 33.6557 65.2348 0.0000 0.0000 0.0000
# 2 33.6557 76.7651 65.3012 0.0000 0.0000 0.0000
# 3 65.2348 65.3012 170.4101 0.0000 0.0000 0.0000
# 4 0.0000 0.0000 0.0000 42.4223 0.0000 0.0000
# 5 0.0000 0.0000 0.0000 0.0000 27.6688 0.0000
# 6 0.0000 0.0000 0.0000 0.0000 0.0000 22.0251
#
#
#
# Elastic Compliance Matrix: (Units=1/GPa)
#
#
# Indices 1 2 3 4 5 6 
#
# 1 0.016269 -0.002722 -0.005185 0.000000 0.000000 0.000000
# 2 -0.002722 0.019782 -0.006538 0.000000 0.000000 0.000000
# 3 -0.005185 -0.006538 0.010359 0.000000 0.000000 0.000000
# 4 0.000000 0.000000 0.000000 0.023572 0.000000 0.000000
# 5 0.000000 0.000000 0.000000 0.000000 0.036142 0.000000
# 6 0.000000 0.000000 0.000000 0.000000 0.000000 0.045403
#
#
# Mechanical properties :
#
#
# Convention : Reuss Voigt Hill
#
# Bulk Modulus (GPa) = 57.08136 73.71626 65.39881
# Shear Modulus (GPa) = 26.84456 29.81467 28.32961
#
# Velocity S-wave (km/s) = 3.70499 3.90457 3.80609
# Velocity P-wave (km/s) = 6.89138 7.61724 7.26338
#
# Compressibility (1/GPa) = 0.01751885
#
# Stress axis : x y z
#
# Youngs Moduli (GPa) = 61.46642 50.55028 96.53858
#
# Poissons Ratio (x) = 0.13761 0.50053
# Poissons Ratio (y) = 0.16732 0.63122
# Poissons Ratio (z) = 0.31869 0.33052
#
# Static dielectric constant tensor:
#      x y z
#    x 3.476550 0.000000 0.000000 
#    y 0.000000 3.741200 0.000000 
#    z 0.000000 0.000000 3.710680 
# 
# 
# High freq. dielectric constant tensor:
#      x y z
#    x 1.760790 0.000000 0.000000 
#    y 0.000000 1.756440 0.000000 
#    z 0.000000 0.000000 1.767890 
# 
# From -- ./inp_files/17968.got.cif
#   From: 2010.03.12/outbox.cif.g09.slc.cpg/sg67_9_cif.got.tgz:17968.got - 2010.04.10 22:41:39.
