data_PCOD8279734
_publ_section_title
;
Structure prediction by ZEFSAII (Michael W. Deem and Ramdas Pophale) SiO2 
 PCOD8279734
Probable space group: C M M A
;
_chemical_formula_sum "Si O2"
_cell_formula_units_Z 116
_cell_length_a 25.874523
_cell_length_b 9.389595
_cell_length_c 25.509301
_cell_angle_alpha 90.000000
_cell_angle_beta 90.000000
_cell_angle_gamma 90.000000
_cell_volume 6197.517631
_symmetry_space_group_name_H-M "C M M A"
_symmetry_group_IT_number 67
_symmetry_cell_setting 'orthorhombic'
loop_
_space_group_symop_operation_xyz
x,y,z
-x,1/2-y,z
x,-y,-z
-x,1/2+y,-z
-x,-y,-z
x,1/2+y,-z
-x,y,z
x,1/2-y,z
1/2+x,1/2+y,z
1/2-x,-y,z
1/2+x,1/2-y,-z
1/2-x,y,-z
1/2-x,1/2-y,-z
1/2+x,y,-z
1/2-x,1/2+y,z
1/2+x,-y,z
loop_
_atom_site_type_symbol
_atom_site_label
_atom_site_fract_x
_atom_site_fract_y
_atom_site_fract_z
Si Si1 0.943809 0.913262 0.552000
Si Si2 0.100851 0.586137 0.946801
Si Si3 0.297322 0.913335 0.118780
Si Si4 0.201443 0.915524 0.313354
Si Si5 0.669683 0.588688 0.413079
Si Si6 0.443087 0.410075 0.142745
Si Si7 0.750000 0.000000 0.500000
Si Si8 0.846967 0.587231 0.207457
O O1 0.937002 0.750000 0.536345
O O2 0.890105 0.961066 0.578996
O O3 0.000000 0.934475 0.582808
O O4 0.949047 0.000000 0.500000
O O5 0.085790 0.750000 0.956705
O O6 0.157787 0.570771 0.923473
O O7 0.061449 0.518851 0.905318
O O8 0.096768 0.500000 0.000000
O O9 0.282524 0.750000 0.128636
O O10 0.250000 0.000000 0.093670
O O11 0.310138 0.982740 0.174957
O O12 0.214655 0.750000 0.321728
O O13 0.156724 0.938226 0.269947
O O14 0.250000 0.000000 0.289883
O O15 0.188337 0.979513 0.369526
O O16 0.670265 0.750000 0.391789
O O17 0.709250 0.585568 0.462921
O O18 0.500000 0.423651 0.166598
O O19 0.431994 0.250000 0.121728
O O20 0.405526 0.447525 0.190850
O O21 0.831435 0.750000 0.193922
#
# Coordination Sequence:
#
# PCOD8279734 Si02
#       8
#    16  16  16  16  16  16   4  16
#     4   9  18  34  55  78 104 138 180 222 264 312
#     4  10  21  35  51  75 108 143 181 224 270 322
#     4  10  20  33  52  77 103 137 178 220 266 320
#     4  11  23  37  55  81 113 146 181 222 269 326
#     4  11  23  37  56  83 115 150 186 229 277 330
#     4   9  18  35  59  82 105 138 180 224 273 325
#     4  12  22  36  58  86 114 152 186 230 276 336
#     4   9  19  36  56  79 106 137 174 220 270 321
#
# _framework density 18.717172000000001
#
# number of rings (size 3 to 8) (size 9 to 14) (size 15 to 20)
#    0.000    2.069    1.379    1.862    0.000    5.793 
#    0.000    2.069    0.000    0.828    0.000    0.000 
#    0.000    0.000    0.000    0.000    0.000    0.000 
#
# Total GULP energy -718631.839049 kJ/mol
# GULP energy per Si atom -12390.204122 kJ/mol
# Density = 1.867457 g / cm^3
# Si number density = 18.717172 Si / 1000 Ang^3
#
#
#
# Elastic Constant Matrix: (Units=GPa)
#
#
# Indices 1 2 3 4 5 6 
#
# 1 122.5651 43.3045 41.5151 0.0000 0.0000 0.0000
# 2 43.3045 105.0326 47.0397 0.0000 0.0000 0.0000
# 3 41.5151 47.0397 101.7861 0.0000 0.0000 0.0000
# 4 0.0000 0.0000 0.0000 23.4198 0.0000 0.0000
# 5 0.0000 0.0000 0.0000 0.0000 12.7881 0.0000
# 6 0.0000 0.0000 0.0000 0.0000 0.0000 22.8570
#
#
#
# Elastic Compliance Matrix: (Units=1/GPa)
#
#
# Indices 1 2 3 4 5 6 
#
# 1 0.010137 -0.002935 -0.002778 0.000000 0.000000 0.000000
# 2 -0.002935 0.012856 -0.004744 0.000000 0.000000 0.000000
# 3 -0.002778 -0.004744 0.013150 0.000000 0.000000 0.000000
# 4 0.000000 0.000000 0.000000 0.042699 0.000000 0.000000
# 5 0.000000 0.000000 0.000000 0.000000 0.078198 0.000000
# 6 0.000000 0.000000 0.000000 0.000000 0.000000 0.043750
#
#
# Mechanical properties :
#
#
# Convention : Reuss Voigt Hill
#
# Bulk Modulus (GPa) = 65.66798 65.90029 65.78414
# Shear Modulus (GPa) = 22.04779 24.98127 23.51453
#
# Velocity S-wave (km/s) = 3.43584 3.65728 3.54829
# Velocity P-wave (km/s) = 7.13446 7.28829 7.21179
#
# Compressibility (1/GPa) = 0.01522812
#
# Stress axis : x y z
#
# Youngs Moduli (GPa) = 98.64861 77.78665 76.04576
#
# Poissons Ratio (x) = 0.22833 0.21126
# Poissons Ratio (y) = 0.28956 0.36076
# Poissons Ratio (z) = 0.27405 0.36902
#
# Static dielectric constant tensor:
#      x y z
#    x 3.994810 0.000000 0.000000 
#    y 0.000000 3.596060 0.000000 
#    z 0.000000 0.000000 3.123380 
# 
# 
# High freq. dielectric constant tensor:
#      x y z
#    x 1.738730 0.000000 0.000000 
#    y 0.000000 1.735640 0.000000 
#    z 0.000000 0.000000 1.701730 
# 
# From -- ./inp_files/42835.got.cif
#   From: 2010.03.12/outbox.cif.g09.slc.cpg/sg67_22_cif.got.tgz:42835.got - 2010.04.10 22:41:39.
