data_PCOD8279688
_publ_section_title
;
Structure prediction by ZEFSAII (Michael W. Deem and Ramdas Pophale) SiO2 
 PCOD8279688
Probable space group: C M M A
;
_chemical_formula_sum "Si O2"
_cell_formula_units_Z 72
_cell_length_a 8.958372
_cell_length_b 32.142391
_cell_length_c 13.344526
_cell_angle_alpha 90.000000
_cell_angle_beta 90.000000
_cell_angle_gamma 90.000000
_cell_volume 3842.469463
_symmetry_space_group_name_H-M "C M M A"
_symmetry_group_IT_number 67
_symmetry_cell_setting 'orthorhombic'
loop_
_space_group_symop_operation_xyz
x,y,z
-x,1/2-y,z
x,-y,-z
-x,1/2+y,-z
-x,-y,-z
x,1/2+y,-z
-x,y,z
x,1/2-y,z
1/2+x,1/2+y,z
1/2-x,-y,z
1/2+x,1/2-y,-z
1/2-x,y,-z
1/2-x,1/2-y,-z
1/2+x,y,-z
1/2-x,1/2+y,z
1/2+x,-y,z
loop_
_atom_site_type_symbol
_atom_site_label
_atom_site_fract_x
_atom_site_fract_y
_atom_site_fract_z
Si Si1 0.674992 0.250000 0.392757
Si Si2 0.826072 0.913343 0.599859
Si Si3 0.324203 0.543670 0.195122
Si Si4 0.173503 0.337026 0.694702
Si Si5 0.675103 0.878594 0.900053
O O1 0.500000 0.250000 0.411081
O O2 0.750000 0.250000 0.500000
O O3 0.724663 0.209825 0.328953
O O4 0.750000 0.931501 0.500000
O O5 0.788092 0.944661 0.689979
O O6 0.765054 0.867462 0.622931
O O7 0.000000 0.909525 0.580579
O O8 0.500000 0.541912 0.174734
O O9 0.250000 0.500000 0.169578
O O10 0.251032 0.577222 0.122021
O O11 0.208923 0.346150 0.810967
O O12 0.000000 0.344414 0.671426
O O13 0.500000 0.885309 0.915949
O O14 0.750000 0.859812 0.000000
#
# Coordination Sequence:
#
# PCOD8279688 Si02
#       5
#     8  16  16  16  16
#     4  10  20  34  53  80 110 140 173 210 253 300
#     4  10  20  33  51  74 103 138 175 213 256 307
#     4  10  21  36  53  76 104 134 171 216 260 307
#     4   9  19  35  54  76 105 138 173 213 257 305
#     4  10  20  36  57  78 102 135 172 213 260 309
#
# _framework density 18.737949
#
# number of rings (size 3 to 8) (size 9 to 14) (size 15 to 20)
#    0.000    2.222    0.000    2.667    0.000    7.111 
#    0.000    5.000    0.000    0.000    0.000    0.000 
#    0.000    0.000    0.000    0.000    0.000    0.000 
#
# Total GULP energy -446532.359765 kJ/mol
# GULP energy per Si atom -12403.676660 kJ/mol
# Density = 1.869530 g / cm^3
# Si number density = 18.737949 Si / 1000 Ang^3
#
#
#
# Elastic Constant Matrix: (Units=GPa)
#
#
# Indices 1 2 3 4 5 6 
#
# 1 74.7628 29.9095 41.0896 0.0000 0.0000 0.0000
# 2 29.9095 106.3452 31.8493 0.0000 0.0000 0.0000
# 3 41.0896 31.8493 110.7282 0.0000 0.0000 0.0000
# 4 0.0000 0.0000 0.0000 17.2279 0.0000 0.0000
# 5 0.0000 0.0000 0.0000 0.0000 37.6239 0.0000
# 6 0.0000 0.0000 0.0000 0.0000 0.0000 25.4761
#
#
#
# Elastic Compliance Matrix: (Units=1/GPa)
#
#
# Indices 1 2 3 4 5 6 
#
# 1 0.017810 -0.003315 -0.005655 0.000000 0.000000 0.000000
# 2 -0.003315 0.010907 -0.001907 0.000000 0.000000 0.000000
# 3 -0.005655 -0.001907 0.011678 0.000000 0.000000 0.000000
# 4 0.000000 0.000000 0.000000 0.058046 0.000000 0.000000
# 5 0.000000 0.000000 0.000000 0.000000 0.026579 0.000000
# 6 0.000000 0.000000 0.000000 0.000000 0.000000 0.039252
#
#
# Mechanical properties :
#
#
# Convention : Reuss Voigt Hill
#
# Bulk Modulus (GPa) = 53.64850 55.28146 54.46498
# Shear Modulus (GPa) = 26.00901 28.66476 27.33689
#
# Velocity S-wave (km/s) = 3.72968 3.91547 3.82371
# Velocity P-wave (km/s) = 6.87317 7.07161 6.97310
#
# Compressibility (1/GPa) = 0.01863985
#
# Stress axis : x y z
#
# Youngs Moduli (GPa) = 56.14755 91.68517 85.62900
#
# Poissons Ratio (x) = 0.30397 0.48427
# Poissons Ratio (y) = 0.18615 0.16329
# Poissons Ratio (z) = 0.31754 0.17484
#
# Static dielectric constant tensor:
#      x y z
#    x 3.488310 0.000000 0.000000 
#    y 0.000000 3.373620 0.000000 
#    z 0.000000 0.000000 3.665200 
# 
# 
# High freq. dielectric constant tensor:
#      x y z
#    x 1.736780 0.000000 0.000000 
#    y 0.000000 1.713890 0.000000 
#    z 0.000000 0.000000 1.734580 
# 
# From -- ./inp_files/25264.got.cif
#   From: 2010.03.12/outbox.cif.g09.slc.cpg/sg67_13_cif.got.tgz:25264.got - 2010.04.10 22:41:39.
