data_PCOD8279183
_publ_section_title
;
Structure prediction by ZEFSAII (Michael W. Deem and Ramdas Pophale) SiO2 
 PCOD8279183
Probable space group: C M M A
;
_chemical_formula_sum "Si O2"
_cell_formula_units_Z 64
_cell_length_a 16.348705
_cell_length_b 34.244556
_cell_length_c 4.791167
_cell_angle_alpha 90.000000
_cell_angle_beta 90.000000
_cell_angle_gamma 90.000000
_cell_volume 2682.354699
_symmetry_space_group_name_H-M "C M M A"
_symmetry_group_IT_number 67
_symmetry_cell_setting 'orthorhombic'
loop_
_space_group_symop_operation_xyz
x,y,z
-x,1/2-y,z
x,-y,-z
-x,1/2+y,-z
-x,-y,-z
x,1/2+y,-z
-x,y,z
x,1/2-y,z
1/2+x,1/2+y,z
1/2-x,-y,z
1/2+x,1/2-y,-z
1/2-x,y,-z
1/2-x,1/2-y,-z
1/2+x,y,-z
1/2-x,1/2+y,z
1/2+x,-y,z
loop_
_atom_site_type_symbol
_atom_site_label
_atom_site_fract_x
_atom_site_fract_y
_atom_site_fract_z
Si Si1 0.091944 0.411853 0.645765
Si Si2 0.163793 0.166355 0.844612
Si Si3 0.091982 0.706037 0.651869
Si Si4 0.409108 0.536239 0.157822
O O1 0.147540 0.373677 0.673804
O O2 0.131242 0.445512 0.440337
O O3 0.000000 0.401426 0.537192
O O4 0.087220 0.427368 0.955969
O O5 0.156367 0.198205 0.598454
O O6 0.250000 0.166505 0.000000
O O7 0.099523 0.176128 0.088543
O O8 0.108037 0.750000 0.760713
O O9 0.000000 0.701319 0.533109
O O10 0.500000 0.520713 0.238479
O O11 0.362521 0.500000 0.000000
#
# Coordination Sequence:
#
# PCOD8279183 Si02
#       4
#    16  16  16  16
#     4  10  19  33  55  82 118 161 203 250 305 371
#     4  12  25  40  61  92 129 168 213 266 328 393
#     4  11  24  43  66  90 120 163 217 274 330 393
#     4   9  17  30  52  84 117 151 198 253 301 352
#
# _framework density 23.859632999999999
#
# number of rings (size 3 to 8) (size 9 to 14) (size 15 to 20)
#    0.000    1.500    0.000    6.000    0.000   10.000 
#    0.000    0.000    0.000    0.750    0.000    3.500 
#    0.000    0.000    0.000    0.000    0.000   16.750 
#
# Total GULP energy -396438.864400 kJ/mol
# GULP energy per Si atom -12388.714512 kJ/mol
# Density = 2.380533 g / cm^3
# Si number density = 23.859633 Si / 1000 Ang^3
#
#
#
# Elastic Constant Matrix: (Units=GPa)
#
#
# Indices 1 2 3 4 5 6 
#
# 1 59.1281 43.3541 25.0515 0.0000 0.0000 0.0000
# 2 43.3541 119.0790 46.2516 0.0000 0.0000 0.0000
# 3 25.0515 46.2516 143.8319 0.0000 0.0000 0.0000
# 4 0.0000 0.0000 0.0000 61.4942 0.0000 0.0000
# 5 0.0000 0.0000 0.0000 0.0000 29.2777 0.0000
# 6 0.0000 0.0000 0.0000 0.0000 0.0000 11.4595
#
#
#
# Elastic Compliance Matrix: (Units=1/GPa)
#
#
# Indices 1 2 3 4 5 6 
#
# 1 0.023360 -0.007913 -0.001524 0.000000 0.000000 0.000000
# 2 -0.007913 0.012277 -0.002570 0.000000 0.000000 0.000000
# 3 -0.001524 -0.002570 0.008044 0.000000 0.000000 0.000000
# 4 0.000000 0.000000 0.000000 0.016262 0.000000 0.000000
# 5 0.000000 0.000000 0.000000 0.000000 0.034156 0.000000
# 6 0.000000 0.000000 0.000000 0.000000 0.000000 0.087264
#
#
# Mechanical properties :
#
#
# Convention : Reuss Voigt Hill
#
# Bulk Modulus (GPa) = 50.84429 61.26147 56.05288
# Shear Modulus (GPa) = 23.59251 34.27175 28.93213
#
# Velocity S-wave (km/s) = 3.14794 3.79409 3.48601
# Velocity P-wave (km/s) = 5.87951 6.70261 6.30451
#
# Compressibility (1/GPa) = 0.01966789
#
# Stress axis : x y z
#
# Youngs Moduli (GPa) = 42.80800 81.45468 124.31137
#
# Poissons Ratio (x) = 0.64454 0.18947
# Poissons Ratio (y) = 0.33874 0.31943
# Poissons Ratio (z) = 0.06525 0.20931
#
# Static dielectric constant tensor:
#      x y z
#    x 3.753580 0.000000 0.000000 
#    y 0.000000 4.339310 0.000000 
#    z 0.000000 0.000000 4.532190 
# 
# 
# High freq. dielectric constant tensor:
#      x y z
#    x 1.883670 0.000000 0.000000 
#    y 0.000000 1.953770 0.000000 
#    z 0.000000 0.000000 1.967810 
# 
# From -- ./inp_files/2219.got.cif
#   From: 2010.03.12/outbox.cif.g09.slc.cpg/sg67_2_cif.got.tgz:2219.got - 2010.04.10 22:41:39.
