data_PCOD8279832
_publ_section_title
;
Structure prediction by ZEFSAII (Michael W. Deem and Ramdas Pophale) SiO2 
 PCOD8279832
Probable space group: C M M A
;
_chemical_formula_sum "Si O2"
_cell_formula_units_Z 96
_cell_length_a 8.749563
_cell_length_b 18.617588
_cell_length_c 30.812149
_cell_angle_alpha 90.000000
_cell_angle_beta 90.000000
_cell_angle_gamma 90.000000
_cell_volume 5019.168401
_symmetry_space_group_name_H-M "C M M A"
_symmetry_group_IT_number 67
_symmetry_cell_setting 'orthorhombic'
loop_
_space_group_symop_operation_xyz
x,y,z
-x,1/2-y,z
x,-y,-z
-x,1/2+y,-z
-x,-y,-z
x,1/2+y,-z
-x,y,z
x,1/2-y,z
1/2+x,1/2+y,z
1/2-x,-y,z
1/2+x,1/2-y,-z
1/2-x,y,-z
1/2-x,1/2-y,-z
1/2+x,y,-z
1/2-x,1/2+y,z
1/2+x,-y,z
loop_
_atom_site_type_symbol
_atom_site_label
_atom_site_fract_x
_atom_site_fract_y
_atom_site_fract_z
Si Si1 0.319438 0.078304 0.703639
Si Si2 0.678887 0.167793 0.126588
Si Si3 0.318312 0.578025 0.955742
Si Si4 0.818981 0.668687 0.784727
Si Si5 0.177818 0.333536 0.380623
Si Si6 0.819312 0.575190 0.453529
O O1 0.500000 0.071309 0.706090
O O2 0.255037 0.118409 0.746346
O O3 0.268936 0.124889 0.662329
O O4 0.250000 0.000000 0.699838
O O5 0.500000 0.157632 0.133254
O O6 0.725383 0.250000 0.119308
O O7 0.737298 0.125770 0.084472
O O8 0.760606 0.137021 0.169536
O O9 0.500000 0.574322 0.959490
O O10 0.250000 0.500000 0.948149
O O11 0.250000 0.611789 0.000000
O O12 0.757000 0.750000 0.777991
O O13 0.000000 0.668684 0.784406
O O14 0.212569 0.250000 0.373480
O O15 0.277130 0.361500 0.420720
O O16 0.000000 0.347114 0.390598
O O17 0.750000 0.500000 0.436396
O O18 0.750000 0.595423 0.500000
O O19 0.000000 0.567336 0.457624
#
# Coordination Sequence:
#
# PCOD8279832 Si02
#       6
#    16  16  16  16  16  16
#     4  10  21  36  55  80 109 141 178 220 265 315
#     4   9  19  35  53  75 103 134 168 209 258 308
#     4  10  20  34  52  73 100 133 169 210 255 305
#     4   9  18  34  55  77 102 135 175 215 256 307
#     4  10  21  38  59  82 111 147 184 225 274 323
#     4  11  22  38  60  85 114 147 185 227 272 323
#
# _framework density 19.126674000000001
#
# number of rings (size 3 to 8) (size 9 to 14) (size 15 to 20)
#    0.000    2.167    0.000    4.000    0.000    7.667 
#    0.000    3.333    0.000    3.000    0.000    0.000 
#    0.000    0.000    0.000    0.000    0.000    0.000 
#
# Total GULP energy -595323.451516 kJ/mol
# GULP energy per Si atom -12402.571907 kJ/mol
# Density = 1.908314 g / cm^3
# Si number density = 19.126674 Si / 1000 Ang^3
#
#
#
# Elastic Constant Matrix: (Units=GPa)
#
#
# Indices 1 2 3 4 5 6 
#
# 1 67.5080 38.5400 51.1376 0.0000 0.0000 0.0000
# 2 38.5400 115.8768 90.6068 0.0000 0.0000 0.0000
# 3 51.1376 90.6068 168.2784 0.0000 0.0000 0.0000
# 4 0.0000 0.0000 0.0000 43.6476 0.0000 0.0000
# 5 0.0000 0.0000 0.0000 0.0000 32.6162 0.0000
# 6 0.0000 0.0000 0.0000 0.0000 0.0000 28.8896
#
#
#
# Elastic Compliance Matrix: (Units=1/GPa)
#
#
# Indices 1 2 3 4 5 6 
#
# 1 0.019935 -0.003270 -0.004297 0.000000 0.000000 0.000000
# 2 -0.003270 0.015442 -0.007320 0.000000 0.000000 0.000000
# 3 -0.004297 -0.007320 0.011190 0.000000 0.000000 0.000000
# 4 0.000000 0.000000 0.000000 0.022911 0.000000 0.000000
# 5 0.000000 0.000000 0.000000 0.000000 0.030660 0.000000
# 6 0.000000 0.000000 0.000000 0.000000 0.000000 0.034614
#
#
# Mechanical properties :
#
#
# Convention : Reuss Voigt Hill
#
# Bulk Modulus (GPa) = 59.55618 79.13687 69.34653
# Shear Modulus (GPa) = 29.39024 32.45594 30.92309
#
# Velocity S-wave (km/s) = 3.92421 4.12381 4.02525
# Velocity P-wave (km/s) = 7.19291 8.00870 7.61174
#
# Compressibility (1/GPa) = 0.01679087
#
# Stress axis : x y z
#
# Youngs Moduli (GPa) = 50.16257 64.76024 89.36536
#
# Poissons Ratio (x) = 0.21178 0.38403
# Poissons Ratio (y) = 0.16404 0.65420
# Poissons Ratio (z) = 0.21556 0.47408
#
# Static dielectric constant tensor:
#      x y z
#    x 3.394760 0.000000 0.000000 
#    y 0.000000 3.524350 0.000000 
#    z 0.000000 0.000000 3.773830 
# 
# 
# High freq. dielectric constant tensor:
#      x y z
#    x 1.736650 0.000000 0.000000 
#    y 0.000000 1.740220 0.000000 
#    z 0.000000 0.000000 1.759790 
# 
# From -- ./inp_files/43520.got.cif
#   From: 2010.03.12/outbox.cif.g09.slc.cpg/sg67_22_cif.got.tgz:43520.got - 2010.04.10 22:41:39.
