data_PCOD8279698
_publ_section_title
;
Structure prediction by ZEFSAII (Michael W. Deem and Ramdas Pophale) SiO2 
 PCOD8279698
Probable space group: C M M A
;
_chemical_formula_sum "Si O2"
_cell_formula_units_Z 88
_cell_length_a 8.905688
_cell_length_b 16.031943
_cell_length_c 30.114329
_cell_angle_alpha 90.000000
_cell_angle_beta 90.000000
_cell_angle_gamma 90.000000
_cell_volume 4299.587850
_symmetry_space_group_name_H-M "C M M A"
_symmetry_group_IT_number 67
_symmetry_cell_setting 'orthorhombic'
loop_
_space_group_symop_operation_xyz
x,y,z
-x,1/2-y,z
x,-y,-z
-x,1/2+y,-z
-x,-y,-z
x,1/2+y,-z
-x,y,z
x,1/2-y,z
1/2+x,1/2+y,z
1/2-x,-y,z
1/2+x,1/2-y,-z
1/2-x,y,-z
1/2-x,1/2-y,-z
1/2+x,y,-z
1/2-x,1/2+y,z
1/2+x,-y,z
loop_
_atom_site_type_symbol
_atom_site_label
_atom_site_fract_x
_atom_site_fract_y
_atom_site_fract_z
Si Si1 0.181484 0.750000 0.048537
Si Si2 0.179028 0.912160 0.904822
Si Si3 0.835252 0.846790 0.628237
Si Si4 0.823194 0.658317 0.812288
Si Si5 0.178440 0.088053 0.279462
Si Si6 0.333290 0.150329 0.456539
O O1 0.242398 0.834123 0.071398
O O2 0.000000 0.750000 0.048202
O O3 0.250000 0.750000 0.000000
O O4 0.216370 0.903949 0.852452
O O5 0.000000 0.910774 0.914258
O O6 0.250000 0.000000 0.921488
O O7 0.847746 0.750000 0.618472
O O8 0.768509 0.859058 0.677682
O O9 0.736782 0.886950 0.588924
O O10 0.000000 0.888454 0.626041
O O11 0.756269 0.750000 0.822889
O O12 0.753478 0.626704 0.765846
O O13 0.000000 0.665645 0.806949
O O14 0.000000 0.082632 0.275753
O O15 0.250000 0.000000 0.286980
O O16 0.500000 0.115253 0.459013
O O17 0.330130 0.250000 0.456070
O O18 0.250000 0.115579 0.500000
#
# Coordination Sequence:
#
# PCOD8279698 Si02
#       6
#     8  16  16  16  16  16
#     4  12  26  46  70  98 132 172 220 272 325 382
#     4  11  22  40  66  98 134 174 217 266 321 379
#     4   9  17  30  48  70  96 130 173 217 262 320
#     4   9  17  33  59  87 117 156 200 245 294 353
#     4  10  20  33  51  75 106 144 185 227 276 333
#     4   9  16  26  43  68  96 125 159 206 263 322
#
# _framework density 20.467078000000001
#
# number of rings (size 3 to 8) (size 9 to 14) (size 15 to 20)
#    0.000    2.182    0.909    3.000    0.000    5.455 
#    0.000    2.727    0.000    1.636    0.000    3.818 
#    0.000    0.000    0.000    0.000    0.000    0.000 
#
# Total GULP energy -545313.573632 kJ/mol
# GULP energy per Si atom -12393.490310 kJ/mol
# Density = 2.042049 g / cm^3
# Si number density = 20.467078 Si / 1000 Ang^3
#
#
#
# Elastic Constant Matrix: (Units=GPa)
#
#
# Indices 1 2 3 4 5 6 
#
# 1 101.2075 45.0328 65.9805 0.0000 0.0000 0.0000
# 2 45.0328 88.3348 38.1172 0.0000 0.0000 0.0000
# 3 65.9805 38.1172 162.1939 0.0000 0.0000 0.0000
# 4 0.0000 0.0000 0.0000 13.7316 0.0000 0.0000
# 5 0.0000 0.0000 0.0000 0.0000 25.8865 0.0000
# 6 0.0000 0.0000 0.0000 0.0000 0.0000 19.6220
#
#
#
# Elastic Compliance Matrix: (Units=1/GPa)
#
#
# Indices 1 2 3 4 5 6 
#
# 1 0.015777 -0.005869 -0.005039 0.000000 0.000000 0.000000
# 2 -0.005869 0.014781 -0.001086 0.000000 0.000000 0.000000
# 3 -0.005039 -0.001086 0.008471 0.000000 0.000000 0.000000
# 4 0.000000 0.000000 0.000000 0.072825 0.000000 0.000000
# 5 0.000000 0.000000 0.000000 0.000000 0.038630 0.000000
# 6 0.000000 0.000000 0.000000 0.000000 0.000000 0.050963
#
#
# Mechanical properties :
#
#
# Convention : Reuss Voigt Hill
#
# Bulk Modulus (GPa) = 66.48546 72.22192 69.35369
# Shear Modulus (GPa) = 21.69680 25.35506 23.52593
#
# Velocity S-wave (km/s) = 3.25942 3.52351 3.39404
# Velocity P-wave (km/s) = 6.83518 7.20534 7.02270
#
# Compressibility (1/GPa) = 0.01504088
#
# Stress axis : x y z
#
# Youngs Moduli (GPa) = 63.38330 67.65356 118.05582
#
# Poissons Ratio (x) = 0.39704 0.59487
# Poissons Ratio (y) = 0.37198 0.12825
# Poissons Ratio (z) = 0.31938 0.07349
#
# Static dielectric constant tensor:
#      x y z
#    x 3.679910 0.000000 0.000000 
#    y 0.000000 3.455010 0.000000 
#    z 0.000000 0.000000 4.122390 
# 
# 
# High freq. dielectric constant tensor:
#      x y z
#    x 1.779130 0.000000 0.000000 
#    y 0.000000 1.781920 0.000000 
#    z 0.000000 0.000000 1.817930 
# 
# From -- ./inp_files/45212.got.cif
#   From: 2010.03.12/outbox.cif.g09.slc.cpg/sg67_23_cif.got.tgz:45212.got - 2010.04.10 22:41:39.
