data_PCOD8279828
_publ_section_title
;
Structure prediction by ZEFSAII (Michael W. Deem and Ramdas Pophale) SiO2 
 PCOD8279828
Probable space group: C M M A
;
_chemical_formula_sum "Si O2"
_cell_formula_units_Z 96
_cell_length_a 18.671075
_cell_length_b 8.863026
_cell_length_c 30.981845
_cell_angle_alpha 90.000000
_cell_angle_beta 90.000000
_cell_angle_gamma 90.000000
_cell_volume 5126.944589
_symmetry_space_group_name_H-M "C M M A"
_symmetry_group_IT_number 67
_symmetry_cell_setting 'orthorhombic'
loop_
_space_group_symop_operation_xyz
x,y,z
-x,1/2-y,z
x,-y,-z
-x,1/2+y,-z
-x,-y,-z
x,1/2+y,-z
-x,y,z
x,1/2-y,z
1/2+x,1/2+y,z
1/2-x,-y,z
1/2+x,1/2-y,-z
1/2-x,y,-z
1/2-x,1/2-y,-z
1/2+x,y,-z
1/2-x,1/2+y,z
1/2+x,-y,z
loop_
_atom_site_type_symbol
_atom_site_label
_atom_site_fract_x
_atom_site_fract_y
_atom_site_fract_z
Si Si1 0.582487 0.074378 0.626048
Si Si2 0.584053 0.074799 0.798770
Si Si3 0.172216 0.428643 0.874328
Si Si4 0.081410 0.072004 0.955781
Si Si5 0.585080 0.919563 0.711807
Si Si6 0.673186 0.070861 0.543822
O O1 0.500000 0.032398 0.619063
O O2 0.592963 0.250000 0.635355
O O3 0.622678 0.022445 0.583065
O O4 0.615581 0.987049 0.667154
O O5 0.500000 0.042546 0.804831
O O6 0.602352 0.250000 0.804156
O O7 0.626393 0.978694 0.833547
O O8 0.611003 0.021186 0.751796
O O9 0.179383 0.250000 0.873751
O O10 0.250000 0.500000 0.872897
O O11 0.131559 0.485983 0.917181
O O12 0.085250 0.250000 0.960528
O O13 0.000000 0.018616 0.946434
O O14 0.110322 0.000000 0.000000
O O15 0.500000 0.922799 0.709682
O O16 0.614199 0.750000 0.717801
O O17 0.679350 0.250000 0.538761
O O18 0.640597 0.000000 0.500000
O O19 0.750000 0.000000 0.553192
#
# Coordination Sequence:
#
# PCOD8279828 Si02
#       6
#    16  16  16  16  16  16
#     4   9  18  33  52  75 103 133 167 210 259 308
#     4  10  20  35  57  82 107 139 179 220 263 314
#     4  11  23  38  55  78 111 146 181 222 268 317
#     4   9  19  36  58  82 107 138 177 221 266 313
#     4   9  17  30  51  79 107 135 169 212 261 310
#     4  10  20  34  52  72  98 133 170 209 252 302
#
# _framework density 18.724602999999998
#
# number of rings (size 3 to 8) (size 9 to 14) (size 15 to 20)
#    0.000    2.333    0.000    3.000    0.000    7.000 
#    0.000    4.167    0.000    2.000    0.000    0.000 
#    0.000    0.000    0.000    0.000    0.000    0.000 
#
# Total GULP energy -595273.912502 kJ/mol
# GULP energy per Si atom -12401.539844 kJ/mol
# Density = 1.868199 g / cm^3
# Si number density = 18.724603 Si / 1000 Ang^3
#
#
#
# Elastic Constant Matrix: (Units=GPa)
#
#
# Indices 1 2 3 4 5 6 
#
# 1 61.4414 34.2105 62.7445 0.0000 0.0000 0.0000
# 2 34.2105 72.6702 54.2407 0.0000 0.0000 0.0000
# 3 62.7445 54.2407 171.9615 0.0000 0.0000 0.0000
# 4 0.0000 0.0000 0.0000 38.4900 0.0000 0.0000
# 5 0.0000 0.0000 0.0000 0.0000 -1.8755 0.0000
# 6 0.0000 0.0000 0.0000 0.0000 0.0000 21.2806
#
#
#
# Elastic Compliance Matrix: (Units=1/GPa)
#
#
# Indices 1 2 3 4 5 6 
#
# 1 0.028731 -0.007456 -0.008131 0.000000 0.000000 0.000000
# 2 -0.007456 0.019933 -0.003567 0.000000 0.000000 0.000000
# 3 -0.008131 -0.003567 0.009907 0.000000 0.000000 0.000000
# 4 0.000000 0.000000 0.000000 0.025981 0.000000 0.000000
# 5 0.000000 0.000000 0.000000 0.000000 -0.533185 0.000000
# 6 0.000000 0.000000 0.000000 0.000000 0.000000 0.046991
#
#
# Mechanical properties :
#
#
# Convention : Reuss Voigt Hill
#
# Bulk Modulus (GPa) = 49.35199 67.60716 58.47958
# Shear Modulus (GPa) = -14.02219 21.90417 3.94099
#
# Velocity S-wave (km/s) = -2.73951 3.42395 1.45234
# Velocity P-wave (km/s) = 4.05061 7.19831 5.84051
#
# Compressibility (1/GPa) = 0.02026261
#
# Stress axis : x y z
#
# Youngs Moduli (GPa) = 34.80528 50.16756 100.93627
#
# Poissons Ratio (x) = 0.37407 0.82075
# Poissons Ratio (y) = 0.25952 0.36001
# Poissons Ratio (z) = 0.28302 0.17893
#
# Static dielectric constant tensor:
#      x y z
#    x 3.259060 0.000000 0.000000 
#    y 0.000000 3.482680 0.000000 
#    z 0.000000 0.000000 3.705950 
# 
# 
# High freq. dielectric constant tensor:
#      x y z
#    x 1.700260 0.000000 0.000000 
#    y 0.000000 1.734310 0.000000 
#    z 0.000000 0.000000 1.744650 
# 
# From -- ./inp_files/44621.got.cif
#   From: 2010.03.12/outbox.cif.g09.slc.cpg/sg67_23_cif.got.tgz:44621.got - 2010.04.10 22:41:39.
