data_PCOD8279928
_publ_section_title
;
Structure prediction by ZEFSAII (Michael W. Deem and Ramdas Pophale) SiO2 
 PCOD8279928
Probable space group: C M M A
;
_chemical_formula_sum "Si O2"
_cell_formula_units_Z 88
_cell_length_a 9.186887
_cell_length_b 20.585018
_cell_length_c 24.573938
_cell_angle_alpha 90.000000
_cell_angle_beta 90.000000
_cell_angle_gamma 90.000000
_cell_volume 4647.232320
_symmetry_space_group_name_H-M "C M M A"
_symmetry_group_IT_number 67
_symmetry_cell_setting 'orthorhombic'
loop_
_space_group_symop_operation_xyz
x,y,z
-x,1/2-y,z
x,-y,-z
-x,1/2+y,-z
-x,-y,-z
x,1/2+y,-z
-x,y,z
x,1/2-y,z
1/2+x,1/2+y,z
1/2-x,-y,z
1/2+x,1/2-y,-z
1/2-x,y,-z
1/2-x,1/2-y,-z
1/2+x,y,-z
1/2-x,1/2+y,z
1/2+x,-y,z
loop_
_atom_site_type_symbol
_atom_site_label
_atom_site_fract_x
_atom_site_fract_y
_atom_site_fract_z
Si Si1 0.831564 0.176293 0.857811
Si Si2 0.174076 0.934962 0.057264
Si Si3 0.831382 0.109485 0.443378
Si Si4 0.835565 0.250000 0.445936
Si Si5 0.828166 0.062599 0.329837
Si Si6 0.171375 0.676825 0.747663
O O1 0.794017 0.250000 0.876782
O O2 0.788522 0.126328 0.905029
O O3 0.742702 0.156922 0.804468
O O4 0.000000 0.169982 0.842752
O O5 0.000000 0.945101 0.050777
O O6 0.250000 0.000000 0.081808
O O7 0.250000 0.919777 0.000000
O O8 0.750000 0.094363 0.500000
O O9 0.801011 0.181619 0.416828
O O10 0.781391 0.064310 0.393674
O O11 0.000000 0.099749 0.457086
O O12 0.750000 0.250000 0.500000
O O13 0.000000 0.250000 0.464660
O O14 0.774300 0.126860 0.298379
O O15 0.000000 0.054892 0.323889
O O16 0.750000 0.000000 0.303799
O O17 0.217279 0.750000 0.730103
O O18 0.000000 0.672252 0.755636
#
# Coordination Sequence:
#
# PCOD8279928 Si02
#       6
#    16  16  16   8  16  16
#     4   9  19  36  56  79 108 140 175 217 267 314
#     4  10  20  34  53  78 110 147 183 220 260 307
#     4   9  18  32  51  74 100 131 165 206 254 306
#     4   8  14  26  46  70  94 120 154 196 241 288
#     4  10  22  37  53  76 105 136 170 211 259 311
#     4   9  19  36  58  80 101 132 176 220 261 308
#
# _framework density 18.936001000000001
#
# number of rings (size 3 to 8) (size 9 to 14) (size 15 to 20)
#    0.000    2.727    0.000    1.091    1.273    4.364 
#    0.000    5.455    0.000    0.000    0.000    0.000 
#    0.000    0.000    0.000    0.000    0.000    0.000 
#
# Total GULP energy -545154.979066 kJ/mol
# GULP energy per Si atom -12389.885888 kJ/mol
# Density = 1.889290 g / cm^3
# Si number density = 18.936001 Si / 1000 Ang^3
#
#
#
# Elastic Constant Matrix: (Units=GPa)
#
#
# Indices 1 2 3 4 5 6 
#
# 1 49.6158 48.8688 43.2145 0.0000 0.0000 0.0000
# 2 48.8688 135.8659 79.2960 0.0000 0.0000 0.0000
# 3 43.2145 79.2960 106.3666 0.0000 0.0000 0.0000
# 4 0.0000 0.0000 0.0000 26.4753 0.0000 0.0000
# 5 0.0000 0.0000 0.0000 0.0000 28.9393 0.0000
# 6 0.0000 0.0000 0.0000 0.0000 0.0000 29.1943
#
#
#
# Elastic Compliance Matrix: (Units=1/GPa)
#
#
# Indices 1 2 3 4 5 6 
#
# 1 0.035155 -0.007627 -0.008596 0.000000 0.000000 0.000000
# 2 -0.007627 0.014684 -0.007848 0.000000 0.000000 0.000000
# 3 -0.008596 -0.007848 0.018745 0.000000 0.000000 0.000000
# 4 0.000000 0.000000 0.000000 0.037771 0.000000 0.000000
# 5 0.000000 0.000000 0.000000 0.000000 0.034555 0.000000
# 6 0.000000 0.000000 0.000000 0.000000 0.000000 0.034253
#
#
# Mechanical properties :
#
#
# Convention : Reuss Voigt Hill
#
# Bulk Modulus (GPa) = 48.92432 70.51187 59.71809
# Shear Modulus (GPa) = 21.72779 24.95306 23.34042
#
# Velocity S-wave (km/s) = 3.39105 3.63403 3.51464
# Velocity P-wave (km/s) = 6.42068 7.41121 6.93365
#
# Compressibility (1/GPa) = 0.02043973
#
# Stress axis : x y z
#
# Youngs Moduli (GPa) = 28.44557 68.10096 53.34850
#
# Poissons Ratio (x) = 0.51944 0.45860
# Poissons Ratio (y) = 0.21697 0.41868
# Poissons Ratio (z) = 0.24453 0.53446
#
# Static dielectric constant tensor:
#      x y z
#    x 3.397900 0.000000 0.000000 
#    y 0.000000 3.754310 0.000000 
#    z 0.000000 0.000000 3.300880 
# 
# 
# High freq. dielectric constant tensor:
#      x y z
#    x 1.729080 0.000000 0.000000 
#    y 0.000000 1.750780 0.000000 
#    z 0.000000 0.000000 1.720920 
# 
# From -- ./inp_files/40680.got.cif
#   From: 2010.03.12/outbox.cif.g09.slc.cpg/sg67_21_cif.got.tgz:40680.got - 2010.04.10 22:41:39.
