data_PCOD8279385
_publ_section_title
;
Structure prediction by ZEFSAII (Michael W. Deem and Ramdas Pophale) SiO2 
 PCOD8279385
Probable space group: C M M A
;
_chemical_formula_sum "Si O2"
_cell_formula_units_Z 80
_cell_length_a 16.036605
_cell_length_b 17.576614
_cell_length_c 15.246962
_cell_angle_alpha 90.000000
_cell_angle_beta 90.000000
_cell_angle_gamma 90.000000
_cell_volume 4297.649225
_symmetry_space_group_name_H-M "C M M A"
_symmetry_group_IT_number 67
_symmetry_cell_setting 'orthorhombic'
loop_
_space_group_symop_operation_xyz
x,y,z
-x,1/2-y,z
x,-y,-z
-x,1/2+y,-z
-x,-y,-z
x,1/2+y,-z
-x,y,z
x,1/2-y,z
1/2+x,1/2+y,z
1/2-x,-y,z
1/2+x,1/2-y,-z
1/2-x,y,-z
1/2-x,1/2-y,-z
1/2+x,y,-z
1/2-x,1/2+y,z
1/2+x,-y,z
loop_
_atom_site_type_symbol
_atom_site_label
_atom_site_fract_x
_atom_site_fract_y
_atom_site_fract_z
Si Si1 0.634022 0.119684 0.326145
Si Si2 0.818748 0.336223 0.327569
Si Si3 0.593504 0.416111 0.514219
Si Si4 0.500000 0.167890 0.192428
Si Si5 0.500000 0.983595 0.898359
Si Si6 0.841410 0.477032 0.213797
O O1 0.719795 0.164216 0.333514
O O2 0.589833 0.124814 0.420024
O O3 0.580921 0.161578 0.252716
O O4 0.643774 0.031222 0.297844
O O5 0.850752 0.250000 0.310698
O O6 0.852437 0.366360 0.419962
O O7 0.846109 0.390184 0.247174
O O8 0.633233 0.500000 0.500000
O O9 0.500000 0.423144 0.552583
O O10 0.500000 0.250000 0.146197
O O11 0.500000 0.106963 0.114748
O O12 0.415207 0.016981 0.856877
O O13 0.500000 0.000000 0.000000
O O14 0.750000 0.500000 0.173365
#
# Coordination Sequence:
#
# PCOD8279385 Si02
#       6
#    16  16  16   8   8  16
#     4  10  19  36  57  76 107 155 197 228 276 327
#     4  11  23  35  52  81 114 149 194 238 276 321
#     4  11  22  34  53  75 109 157 199 235 274 322
#     4  10  20  36  60  86 113 139 182 241 280 317
#     4  10  22  40  65  91 112 144 184 216 274 366
#     4   9  20  38  61  83 111 150 185 226 280 336
#
# _framework density 18.614827999999999
#
# number of rings (size 3 to 8) (size 9 to 14) (size 15 to 20)
#    0.000    1.800    3.000    1.200    1.400    4.000 
#    0.000    1.000    0.000    0.000    0.000    8.400 
#    0.000    0.000    0.000    0.000    0.000    0.000 
#
# Total GULP energy -495951.530513 kJ/mol
# GULP energy per Si atom -12398.788263 kJ/mol
# Density = 1.857246 g / cm^3
# Si number density = 18.614828 Si / 1000 Ang^3
#
#
#
# Elastic Constant Matrix: (Units=GPa)
#
#
# Indices 1 2 3 4 5 6 
#
# 1 123.1221 40.6689 55.0165 0.0000 0.0000 0.0000
# 2 40.6689 155.9006 52.1689 0.0000 0.0000 0.0000
# 3 55.0165 52.1689 114.3458 0.0000 0.0000 0.0000
# 4 0.0000 0.0000 0.0000 12.8555 0.0000 0.0000
# 5 0.0000 0.0000 0.0000 0.0000 16.1598 0.0000
# 6 0.0000 0.0000 0.0000 0.0000 0.0000 15.9178
#
#
#
# Elastic Compliance Matrix: (Units=1/GPa)
#
#
# Indices 1 2 3 4 5 6 
#
# 1 0.010547 -0.001243 -0.004507 0.000000 0.000000 0.000000
# 2 -0.001243 0.007717 -0.002923 0.000000 0.000000 0.000000
# 3 -0.004507 -0.002923 0.012247 0.000000 0.000000 0.000000
# 4 0.000000 0.000000 0.000000 0.077788 0.000000 0.000000
# 5 0.000000 0.000000 0.000000 0.000000 0.061882 0.000000
# 6 0.000000 0.000000 0.000000 0.000000 0.000000 0.062823
#
#
# Mechanical properties :
#
#
# Convention : Reuss Voigt Hill
#
# Bulk Modulus (GPa) = 75.95920 76.56412 76.26166
# Shear Modulus (GPa) = 19.62808 25.35423 22.49115
#
# Velocity S-wave (km/s) = 3.25073 3.69459 3.47974
# Velocity P-wave (km/s) = 7.41512 7.70844 7.56320
#
# Compressibility (1/GPa) = 0.01316496
#
# Stress axis : x y z
#
# Youngs Moduli (GPa) = 94.81662 129.59142 81.64954
#
# Poissons Ratio (x) = 0.16108 0.36802
# Poissons Ratio (y) = 0.11785 0.23863
# Poissons Ratio (z) = 0.42737 0.37874
#
# Static dielectric constant tensor:
#      x y z
#    x 3.603090 0.000000 0.000000 
#    y 0.000000 3.449760 0.000000 
#    z 0.000000 0.000000 2.968150 
# 
# 
# High freq. dielectric constant tensor:
#      x y z
#    x 1.736770 0.000000 0.000000 
#    y 0.000000 1.721360 0.000000 
#    z 0.000000 0.000000 1.681850 
# 
# From -- ./inp_files/28434.got.cif
#   From: 2010.03.12/outbox.cif.g09.slc.cpg/sg67_15_cif.got.tgz:28434.got - 2010.04.10 22:41:39.
