data_PCOD8279504
_publ_section_title
;
Structure prediction by ZEFSAII (Michael W. Deem and Ramdas Pophale) SiO2 
 PCOD8279504
Probable space group: C M M A
;
_chemical_formula_sum "Si O2"
_cell_formula_units_Z 64
_cell_length_a 26.253383
_cell_length_b 8.917613
_cell_length_c 14.560108
_cell_angle_alpha 90.000000
_cell_angle_beta 90.000000
_cell_angle_gamma 90.000000
_cell_volume 3408.776224
_symmetry_space_group_name_H-M "C M M A"
_symmetry_group_IT_number 67
_symmetry_cell_setting 'orthorhombic'
loop_
_space_group_symop_operation_xyz
x,y,z
-x,1/2-y,z
x,-y,-z
-x,1/2+y,-z
-x,-y,-z
x,1/2+y,-z
-x,y,z
x,1/2-y,z
1/2+x,1/2+y,z
1/2-x,-y,z
1/2+x,1/2-y,-z
1/2-x,y,-z
1/2-x,1/2-y,-z
1/2+x,y,-z
1/2-x,1/2+y,z
1/2+x,-y,z
loop_
_atom_site_type_symbol
_atom_site_label
_atom_site_fract_x
_atom_site_fract_y
_atom_site_fract_z
Si Si1 0.058062 0.586681 0.083878
Si Si2 0.696690 0.927955 0.096686
Si Si3 0.441623 0.926346 0.597096
Si Si4 0.606856 0.574672 0.235908
O O1 0.084413 0.750000 0.097672
O O2 0.060444 0.485807 0.174520
O O3 0.000000 0.613685 0.057762
O O4 0.085770 0.500000 0.000000
O O5 0.701963 0.750000 0.083952
O O6 0.657991 0.967798 0.179675
O O7 0.750000 0.000000 0.127086
O O8 0.678725 0.000000 0.000000
O O9 0.500000 0.963562 0.627257
O O10 0.433387 0.750000 0.589560
O O11 0.429520 0.000000 0.500000
O O12 0.399369 0.992149 0.666818
O O13 0.601873 0.750000 0.252938
#
# Coordination Sequence:
#
# PCOD8279504 Si02
#       4
#    16  16  16  16
#     4  10  20  32  46  68 100 137 174 210 252 305
#     4  10  21  36  55  79 107 140 178 220 266 316
#     4  10  21  37  57  81 109 142 179 219 264 314
#     4  11  22  34  52  78 105 136 175 217 263 315
#
# _framework density 18.775065999999999
#
# number of rings (size 3 to 8) (size 9 to 14) (size 15 to 20)
#    0.000    1.750    0.000    5.250    0.000   12.000 
#    0.000    0.000    0.000    0.750    0.000    5.250 
#    0.000    0.000    0.000    0.000    0.000    0.000 
#
# Total GULP energy -396625.078167 kJ/mol
# GULP energy per Si atom -12394.533693 kJ/mol
# Density = 1.873233 g / cm^3
# Si number density = 18.775066 Si / 1000 Ang^3
#
#
#
# Elastic Constant Matrix: (Units=GPa)
#
#
# Indices 1 2 3 4 5 6 
#
# 1 81.0884 58.0111 59.2741 0.0000 0.0000 0.0000
# 2 58.0111 130.5676 76.8099 0.0000 0.0000 0.0000
# 3 59.2741 76.8099 152.9787 0.0000 0.0000 0.0000
# 4 0.0000 0.0000 0.0000 39.1181 0.0000 0.0000
# 5 0.0000 0.0000 0.0000 0.0000 29.9288 0.0000
# 6 0.0000 0.0000 0.0000 0.0000 0.0000 18.1189
#
#
#
# Elastic Compliance Matrix: (Units=1/GPa)
#
#
# Indices 1 2 3 4 5 6 
#
# 1 0.020224 -0.006210 -0.004718 0.000000 0.000000 0.000000
# 2 -0.006210 0.012776 -0.004009 0.000000 0.000000 0.000000
# 3 -0.004718 -0.004009 0.010378 0.000000 0.000000 0.000000
# 4 0.000000 0.000000 0.000000 0.025564 0.000000 0.000000
# 5 0.000000 0.000000 0.000000 0.000000 0.033413 0.000000
# 6 0.000000 0.000000 0.000000 0.000000 0.000000 0.055191
#
#
# Mechanical properties :
#
#
# Convention : Reuss Voigt Hill
#
# Bulk Modulus (GPa) = 74.05092 83.64722 78.84907
# Shear Modulus (GPa) = 26.05262 28.80246 27.42754
#
# Velocity S-wave (km/s) = 3.72912 3.92098 3.82625
# Velocity P-wave (km/s) = 7.62027 8.07142 7.84909
#
# Compressibility (1/GPa) = 0.01350422
#
# Stress axis : x y z
#
# Youngs Moduli (GPa) = 49.44733 78.27094 96.36043
#
# Poissons Ratio (x) = 0.48605 0.45463
# Poissons Ratio (y) = 0.30706 0.38628
# Poissons Ratio (z) = 0.23329 0.31377
#
# Static dielectric constant tensor:
#      x y z
#    x 3.306270 0.000000 0.000000 
#    y 0.000000 3.868660 0.000000 
#    z 0.000000 0.000000 3.470680 
# 
# 
# High freq. dielectric constant tensor:
#      x y z
#    x 1.706980 0.000000 0.000000 
#    y 0.000000 1.753470 0.000000 
#    z 0.000000 0.000000 1.719220 
# 
# From -- ./inp_files/25211.got.cif
#   From: 2010.03.12/outbox.cif.g09.slc.cpg/sg67_13_cif.got.tgz:25211.got - 2010.04.10 22:41:39.
