data_PCOD8279439
_publ_section_title
;
Structure prediction by ZEFSAII (Michael W. Deem and Ramdas Pophale) SiO2 
 PCOD8279439
Probable space group: C M M A
;
_chemical_formula_sum "Si O2"
_cell_formula_units_Z 104
_cell_length_a 26.695532
_cell_length_b 9.384619
_cell_length_c 24.562492
_cell_angle_alpha 90.000000
_cell_angle_beta 90.000000
_cell_angle_gamma 90.000000
_cell_volume 6153.577180
_symmetry_space_group_name_H-M "C M M A"
_symmetry_group_IT_number 67
_symmetry_cell_setting 'orthorhombic'
loop_
_space_group_symop_operation_xyz
x,y,z
-x,1/2-y,z
x,-y,-z
-x,1/2+y,-z
-x,-y,-z
x,1/2+y,-z
-x,y,z
x,1/2-y,z
1/2+x,1/2+y,z
1/2-x,-y,z
1/2+x,1/2-y,-z
1/2-x,y,-z
1/2-x,1/2-y,-z
1/2+x,y,-z
1/2-x,1/2+y,z
1/2+x,-y,z
loop_
_atom_site_type_symbol
_atom_site_label
_atom_site_fract_x
_atom_site_fract_y
_atom_site_fract_z
Si Si1 0.594449 0.581012 0.872841
Si Si2 0.000000 0.919541 0.056437
Si Si3 0.704182 0.091569 0.118365
Si Si4 0.942447 0.408555 0.347474
Si Si5 0.706158 0.094358 0.247732
Si Si6 0.940285 0.088165 0.552173
Si Si7 0.405548 0.918750 0.749961
O O1 0.599063 0.750000 0.871222
O O2 0.549548 0.529503 0.911443
O O3 0.648818 0.524145 0.894489
O O4 0.582562 0.530051 0.811487
O O5 0.000000 0.750000 0.047767
O O6 0.000000 0.000000 0.000000
O O7 0.708710 0.250000 0.093362
O O8 0.709537 0.098435 0.182883
O O9 0.750000 0.000000 0.093019
O O10 0.917527 0.250000 0.345193
O O11 0.918205 0.506799 0.394718
O O12 0.939619 0.489424 0.289895
O O13 0.000000 0.387980 0.362194
O O14 0.715052 0.250000 0.271976
O O15 0.651526 0.040300 0.265141
O O16 0.750000 0.000000 0.273607
O O17 0.919082 0.250000 0.550555
O O18 0.000000 0.093961 0.553680
O O19 0.921268 0.000000 0.500000
O O20 0.415984 0.750000 0.743106
#
# Coordination Sequence:
#
# PCOD8279439 Si02
#       7
#    16   8  16  16  16  16  16
#     4   8  16  30  49  69  89 117 153 186 224 275
#     4  10  20  36  54  70  88 118 155 194 231 266
#     4   8  13  24  42  66  91 113 140 177 218 268
#     4  10  20  30  39  58  90 123 151 185 227 268
#     4   8  14  24  39  60  86 112 141 174 212 260
#     4   9  16  27  43  60  79 110 152 193 229 267
#     4   9  17  29  45  66  88 115 151 185 216 266
#
# _framework density 16.900739000000002
#
# number of rings (size 3 to 8) (size 9 to 14) (size 15 to 20)
#    0.000    3.231    0.000    2.769    1.077    3.385 
#    0.000    3.846    0.000    0.462    0.000    3.231 
#    0.000    0.615    0.000    6.462    0.000    4.154 
#
# Total GULP energy -644334.886917 kJ/mol
# GULP energy per Si atom -12391.055518 kJ/mol
# Density = 1.686227 g / cm^3
# Si number density = 16.900739 Si / 1000 Ang^3
#
#
#
# Elastic Constant Matrix: (Units=GPa)
#
#
# Indices 1 2 3 4 5 6 
#
# 1 79.0167 34.2327 37.3863 0.0000 0.0000 0.0000
# 2 34.2327 89.0905 46.1750 0.0000 0.0000 0.0000
# 3 37.3863 46.1750 88.4789 0.0000 0.0000 0.0000
# 4 0.0000 0.0000 0.0000 21.2504 0.0000 0.0000
# 5 0.0000 0.0000 0.0000 0.0000 1.9981 0.0000
# 6 0.0000 0.0000 0.0000 0.0000 0.0000 23.3094
#
#
#
# Elastic Compliance Matrix: (Units=1/GPa)
#
#
# Indices 1 2 3 4 5 6 
#
# 1 0.016699 -0.003782 -0.005082 0.000000 0.000000 0.000000
# 2 -0.003782 0.016243 -0.006879 0.000000 0.000000 0.000000
# 3 -0.005082 -0.006879 0.017039 0.000000 0.000000 0.000000
# 4 0.000000 0.000000 0.000000 0.047058 0.000000 0.000000
# 5 0.000000 0.000000 0.000000 0.000000 0.500467 0.000000
# 6 0.000000 0.000000 0.000000 0.000000 0.000000 0.042901
#
#
# Mechanical properties :
#
#
# Convention : Reuss Voigt Hill
#
# Bulk Modulus (GPa) = 54.06875 54.68601 54.37738
# Shear Modulus (GPa) = 7.37399 18.56439 12.96919
#
# Velocity S-wave (km/s) = 2.09107 3.31786 2.77316
# Velocity P-wave (km/s) = 6.15561 6.86331 6.51907
#
# Compressibility (1/GPa) = 0.01849497
#
# Stress axis : x y z
#
# Youngs Moduli (GPa) = 59.88462 61.56468 58.68799
#
# Poissons Ratio (x) = 0.23287 0.29825
# Poissons Ratio (y) = 0.22651 0.40369
# Poissons Ratio (z) = 0.30433 0.42348
#
# Static dielectric constant tensor:
#      x y z
#    x 3.231450 0.000000 0.000000 
#    y 0.000000 3.286180 0.000000 
#    z 0.000000 0.000000 2.889170 
# 
# 
# High freq. dielectric constant tensor:
#      x y z
#    x 1.628160 0.000000 0.000000 
#    y 0.000000 1.643180 0.000000 
#    z 0.000000 0.000000 1.619140 
# 
# From -- ./inp_files/42783.got.cif
#   From: 2010.03.12/outbox.cif.g09.slc.cpg/sg67_22_cif.got.tgz:42783.got - 2010.04.10 22:41:39.
