data_PCOD8279374
_publ_section_title
;
Structure prediction by ZEFSAII (Michael W. Deem and Ramdas Pophale) SiO2 
 PCOD8279374
Probable space group: C M M A
;
_chemical_formula_sum "Si O2"
_cell_formula_units_Z 112
_cell_length_a 15.438565
_cell_length_b 25.263928
_cell_length_c 14.180942
_cell_angle_alpha 90.000000
_cell_angle_beta 90.000000
_cell_angle_gamma 90.000000
_cell_volume 5531.117524
_symmetry_space_group_name_H-M "C M M A"
_symmetry_group_IT_number 67
_symmetry_cell_setting 'orthorhombic'
loop_
_space_group_symop_operation_xyz
x,y,z
-x,1/2-y,z
x,-y,-z
-x,1/2+y,-z
-x,-y,-z
x,1/2+y,-z
-x,y,z
x,1/2-y,z
1/2+x,1/2+y,z
1/2-x,-y,z
1/2+x,1/2-y,-z
1/2-x,y,-z
1/2-x,1/2-y,-z
1/2+x,y,-z
1/2-x,1/2+y,z
1/2+x,-y,z
loop_
_atom_site_type_symbol
_atom_site_label
_atom_site_fract_x
_atom_site_fract_y
_atom_site_fract_z
Si Si1 0.598822 0.811225 0.090673
Si Si2 0.099803 0.492247 0.896975
Si Si3 0.257886 0.189027 0.221066
Si Si4 0.237711 0.379327 0.609088
Si Si5 0.095360 0.463636 0.582242
Si Si6 0.901382 0.131247 0.897396
Si Si7 0.332120 0.534371 0.284479
O O1 0.500000 0.819465 0.126765
O O2 0.612370 0.750000 0.057879
O O3 0.664414 0.825744 0.175609
O O4 0.618986 0.851354 0.004877
O O5 0.111232 0.430538 0.874108
O O6 0.152723 0.532510 0.828241
O O7 0.000000 0.510350 0.895576
O O8 0.140018 0.500000 0.000000
O O9 0.276321 0.250000 0.209645
O O10 0.266149 0.174715 0.331704
O O11 0.335115 0.159467 0.170110
O O12 0.250000 0.365019 0.500000
O O13 0.149197 0.412306 0.611390
O O14 0.316643 0.409296 0.664743
O O15 0.139347 0.500000 0.500000
O O16 0.086037 0.503257 0.671370
O O17 0.000000 0.444445 0.551261
O O18 0.000000 0.148137 0.873750
O O19 0.250000 0.500000 0.314546
#
# Coordination Sequence:
#
# PCOD8279374 Si02
#       7
#    16  16  16  16  16  16  16
#     4   9  19  38  63  89 119 159 211 265 310 365
#     4  10  22  38  55  84 127 165 200 241 290 361
#     4  11  24  40  62  90 119 160 211 262 321 380
#     4  11  23  40  60  86 119 155 204 262 313 362
#     4  10  19  35  61  89 117 151 195 246 298 357
#     4  10  20  37  61  90 127 164 200 251 308 372
#     4  10  20  34  55  80 114 157 190 237 288 352
#
# _framework density 20.249072999999999
#
# number of rings (size 3 to 8) (size 9 to 14) (size 15 to 20)
#    0.000    1.857    1.429    3.000    2.000    4.286 
#    2.571    1.429    0.000    0.000    0.000    2.000 
#    0.000    0.000    0.000    0.000    0.000    0.000 
#
# Total GULP energy -693893.124405 kJ/mol
# GULP energy per Si atom -12390.948650 kJ/mol
# Density = 2.020299 g / cm^3
# Si number density = 20.249073 Si / 1000 Ang^3
#
#
#
# Elastic Constant Matrix: (Units=GPa)
#
#
# Indices 1 2 3 4 5 6 
#
# 1 81.5545 27.7126 41.9007 0.0000 0.0000 0.0000
# 2 27.7126 39.4167 27.0991 0.0000 0.0000 0.0000
# 3 41.9007 27.0991 141.8258 0.0000 0.0000 0.0000
# 4 0.0000 0.0000 0.0000 38.9440 0.0000 0.0000
# 5 0.0000 0.0000 0.0000 0.0000 24.5386 0.0000
# 6 0.0000 0.0000 0.0000 0.0000 0.0000 18.7645
#
#
#
# Elastic Compliance Matrix: (Units=1/GPa)
#
#
# Indices 1 2 3 4 5 6 
#
# 1 0.017291 -0.009952 -0.003207 0.000000 0.000000 0.000000
# 2 -0.009952 0.034935 -0.003735 0.000000 0.000000 0.000000
# 3 -0.003207 -0.003735 0.008712 0.000000 0.000000 0.000000
# 4 0.000000 0.000000 0.000000 0.025678 0.000000 0.000000
# 5 0.000000 0.000000 0.000000 0.000000 0.040752 0.000000
# 6 0.000000 0.000000 0.000000 0.000000 0.000000 0.053292
#
#
# Mechanical properties :
#
#
# Convention : Reuss Voigt Hill
#
# Bulk Modulus (GPa) = 36.83225 50.69130 43.76177
# Shear Modulus (GPa) = 22.37161 27.52172 24.94667
#
# Velocity S-wave (km/s) = 3.32749 3.69068 3.51378
# Velocity P-wave (km/s) = 5.74387 6.57645 6.17421
#
# Compressibility (1/GPa) = 0.02715012
#
# Stress axis : x y z
#
# Youngs Moduli (GPa) = 57.83318 28.62490 114.78459
#
# Poissons Ratio (x) = 0.28488 0.36810
# Poissons Ratio (y) = 0.57556 0.42870
# Poissons Ratio (z) = 0.18546 0.10691
#
# Static dielectric constant tensor:
#      x y z
#    x 3.704850 0.000000 0.000000 
#    y 0.000000 3.580030 0.000000 
#    z 0.000000 0.000000 3.814860 
# 
# 
# High freq. dielectric constant tensor:
#      x y z
#    x 1.790690 0.000000 0.000000 
#    y 0.000000 1.771280 0.000000 
#    z 0.000000 0.000000 1.792780 
# 
# From -- ./inp_files/27746.got.cif
#   From: 2010.03.12/outbox.cif.g09.slc.cpg/sg67_14_cif.got.tgz:27746.got - 2010.04.10 22:41:39.
