data_PCOD8279866
_publ_section_title
;
Structure prediction by ZEFSAII (Michael W. Deem and Ramdas Pophale) SiO2 
 PCOD8279866
Probable space group: C M M A
;
_chemical_formula_sum "Si O2"
_cell_formula_units_Z 104
_cell_length_a 8.866157
_cell_length_b 24.793800
_cell_length_c 27.391974
_cell_angle_alpha 90.000000
_cell_angle_beta 90.000000
_cell_angle_gamma 90.000000
_cell_volume 6021.460501
_symmetry_space_group_name_H-M "C M M A"
_symmetry_group_IT_number 67
_symmetry_cell_setting 'orthorhombic'
loop_
_space_group_symop_operation_xyz
x,y,z
-x,1/2-y,z
x,-y,-z
-x,1/2+y,-z
-x,-y,-z
x,1/2+y,-z
-x,y,z
x,1/2-y,z
1/2+x,1/2+y,z
1/2-x,-y,z
1/2+x,1/2-y,-z
1/2-x,y,-z
1/2-x,1/2-y,-z
1/2+x,y,-z
1/2-x,1/2+y,z
1/2+x,-y,z
loop_
_atom_site_type_symbol
_atom_site_label
_atom_site_fract_x
_atom_site_fract_y
_atom_site_fract_z
Si Si1 0.673929 0.189202 0.451583
Si Si2 0.823066 0.650235 0.347935
Si Si3 0.679299 0.057280 0.714417
Si Si4 0.323525 0.250000 0.947713
Si Si5 0.675933 0.250000 0.699786
Si Si6 0.322582 0.666473 0.132083
Si Si7 0.324617 0.444377 0.826294
Si Si8 0.175548 0.750000 0.198837
O O1 0.500000 0.193123 0.463449
O O2 0.735235 0.250000 0.439993
O O3 0.750000 0.164696 0.500000
O O4 0.702403 0.148571 0.406337
O O5 0.765268 0.596508 0.322291
O O6 0.714980 0.697539 0.330499
O O7 0.000000 0.660462 0.335715
O O8 0.500000 0.058110 0.705248
O O9 0.718247 0.072097 0.770788
O O10 0.750000 0.000000 0.701967
O O11 0.500000 0.250000 0.955778
O O12 0.273158 0.304343 0.918501
O O13 0.250000 0.250000 0.000000
O O14 0.500000 0.250000 0.714890
O O15 0.787208 0.250000 0.745067
O O16 0.500000 0.673220 0.139569
O O17 0.275572 0.603434 0.136111
O O18 0.244249 0.695983 0.176662
O O19 0.500000 0.455110 0.829812
O O20 0.250000 0.500000 0.843436
O O21 0.000000 0.750000 0.189010
#
# Coordination Sequence:
#
# PCOD8279866 Si02
#       8
#    16  16  16   8   8  16  16   8
#     4   9  18  33  51  72  99 128 160 202 254 309
#     4  11  21  35  52  74 103 131 165 213 258 300
#     4  10  20  34  52  76 103 138 175 208 249 303
#     4   9  18  32  52  75 102 135 172 213 259 304
#     4  12  23  33  47  71 103 139 170 200 248 312
#     4   9  18  34  52  72 101 137 170 207 255 306
#     4   9  18  32  51  73 100 131 168 207 246 294
#     4  11  21  31  47  72 101 132 166 209 252 296
#
# _framework density 17.271557000000001
#
# number of rings (size 3 to 8) (size 9 to 14) (size 15 to 20)
#    0.000    2.154    0.769    3.692    0.000    4.923 
#    0.000    0.000    0.000    0.923    0.000    6.462 
#    0.000    0.000    0.000    0.000    0.000    0.000 
#
# Total GULP energy -644557.932892 kJ/mol
# GULP energy per Si atom -12395.344863 kJ/mol
# Density = 1.723225 g / cm^3
# Si number density = 17.271557 Si / 1000 Ang^3
#
#
#
# Elastic Constant Matrix: (Units=GPa)
#
#
# Indices 1 2 3 4 5 6 
#
# 1 40.1282 40.9574 30.5386 0.0000 0.0000 0.0000
# 2 40.9574 131.0774 65.9375 0.0000 0.0000 0.0000
# 3 30.5386 65.9375 108.7551 0.0000 0.0000 0.0000
# 4 0.0000 0.0000 0.0000 25.6567 0.0000 0.0000
# 5 0.0000 0.0000 0.0000 0.0000 28.3630 0.0000
# 6 0.0000 0.0000 0.0000 0.0000 0.0000 -481.4198
#
#
#
# Elastic Compliance Matrix: (Units=1/GPa)
#
#
# Indices 1 2 3 4 5 6 
#
# 1 0.038425 -0.009466 -0.005051 0.000000 0.000000 0.000000
# 2 -0.009466 0.013309 -0.005411 0.000000 0.000000 0.000000
# 3 -0.005051 -0.005411 0.013894 0.000000 0.000000 0.000000
# 4 0.000000 0.000000 0.000000 0.038976 0.000000 0.000000
# 5 0.000000 0.000000 0.000000 0.000000 0.035257 0.000000
# 6 0.000000 0.000000 0.000000 0.000000 0.000000 -0.002077
#
#
# Mechanical properties :
#
#
# Convention : Reuss Voigt Hill
#
# Bulk Modulus (GPa) = 38.80076 61.64753 50.22415
# Shear Modulus (GPa) = 26.84842 -75.97820 -24.56489
#
# Velocity S-wave (km/s) = 3.94698 -6.63972 -3.77540
# Velocity P-wave (km/s) = 6.57916 4.79693 3.18393
#
# Compressibility (1/GPa) = 0.02577269
#
# Stress axis : x y z
#
# Youngs Moduli (GPa) = 26.02445 75.13800 71.97402
#
# Poissons Ratio (x) = 0.71125 0.36353
# Poissons Ratio (y) = 0.24635 0.38945
# Poissons Ratio (z) = 0.13144 0.40657
#
# Static dielectric constant tensor:
#      x y z
#    x 3.235550 0.000000 0.000000 
#    y 0.000000 3.180390 0.000000 
#    z 0.000000 0.000000 3.209240 
# 
# 
# High freq. dielectric constant tensor:
#      x y z
#    x 1.672230 0.000000 0.000000 
#    y 0.000000 1.657400 0.000000 
#    z 0.000000 0.000000 1.651910 
# 
# From -- ./inp_files/43761.got.cif
#   From: 2010.03.12/outbox.cif.g09.slc.cpg/sg67_22_cif.got.tgz:43761.got - 2010.04.10 22:41:39.
