data_PCOD8279602
_publ_section_title
;
Structure prediction by ZEFSAII (Michael W. Deem and Ramdas Pophale) SiO2 
 PCOD8279602
Probable space group: C M M A
;
_chemical_formula_sum "Si O2"
_cell_formula_units_Z 80
_cell_length_a 26.836378
_cell_length_b 8.639763
_cell_length_c 19.703958
_cell_angle_alpha 90.000000
_cell_angle_beta 90.000000
_cell_angle_gamma 90.000000
_cell_volume 4568.558632
_symmetry_space_group_name_H-M "C M M A"
_symmetry_group_IT_number 67
_symmetry_cell_setting 'orthorhombic'
loop_
_space_group_symop_operation_xyz
x,y,z
-x,1/2-y,z
x,-y,-z
-x,1/2+y,-z
-x,-y,-z
x,1/2+y,-z
-x,y,z
x,1/2-y,z
1/2+x,1/2+y,z
1/2-x,-y,z
1/2+x,1/2-y,-z
1/2-x,y,-z
1/2-x,1/2-y,-z
1/2+x,y,-z
1/2-x,1/2+y,z
1/2+x,-y,z
loop_
_atom_site_type_symbol
_atom_site_label
_atom_site_fract_x
_atom_site_fract_y
_atom_site_fract_z
Si Si1 0.441255 0.577537 0.567430
Si Si2 0.196694 0.566723 0.926668
Si Si3 0.942849 0.931804 0.708583
Si Si4 0.442596 0.919709 0.064782
Si Si5 0.385652 0.070187 0.171365
O O1 0.417714 0.500000 0.500000
O O2 0.500000 0.589195 0.558275
O O3 0.418925 0.750000 0.577032
O O4 0.427828 0.471820 0.631761
O O5 0.200339 0.750000 0.932424
O O6 0.250000 0.500000 0.905235
O O7 0.158810 0.520606 0.866345
O O8 0.179981 0.500000 0.000000
O O9 0.939770 0.750000 0.720881
O O10 0.000000 0.988861 0.723881
O O11 0.900014 0.012853 0.753633
O O12 0.500000 0.895113 0.050721
O O13 0.417605 0.750000 0.076256
O O14 0.435383 0.031987 0.128586
O O15 0.416739 0.000000 0.000000
O O16 0.372645 0.250000 0.173273
#
# Coordination Sequence:
#
# PCOD8279602 Si02
#       5
#    16  16  16  16  16
#     4   9  16  27  44  66  93 128 168 206 242 282
#     4  11  22  39  59  78  98 121 155 199 248 298
#     4  10  20  33  48  69  99 134 170 207 246 288
#     4  10  20  33  47  64  88 120 158 197 235 277
#     4  12  23  34  49  70  96 126 159 196 242 292
#
# _framework density 17.510994
#
# number of rings (size 3 to 8) (size 9 to 14) (size 15 to 20)
#    0.000    1.600    0.000    7.200    0.000    7.200 
#    0.000    0.000    0.000    0.000    0.000    0.000 
#    0.000    0.800    0.000    8.000    0.000    5.200 
#
# Total GULP energy -495746.312763 kJ/mol
# GULP energy per Si atom -12393.657819 kJ/mol
# Density = 1.747114 g / cm^3
# Si number density = 17.510994 Si / 1000 Ang^3
#
#
#
# Elastic Constant Matrix: (Units=GPa)
#
#
# Indices 1 2 3 4 5 6 
#
# 1 66.2322 32.0131 37.3097 0.0000 0.0000 0.0000
# 2 32.0131 126.6362 38.4407 0.0000 0.0000 0.0000
# 3 37.3097 38.4407 116.4931 0.0000 0.0000 0.0000
# 4 0.0000 0.0000 0.0000 33.7430 0.0000 0.0000
# 5 0.0000 0.0000 0.0000 0.0000 15.4728 0.0000
# 6 0.0000 0.0000 0.0000 0.0000 0.0000 19.9719
#
#
#
# Elastic Compliance Matrix: (Units=1/GPa)
#
#
# Indices 1 2 3 4 5 6 
#
# 1 0.019655 -0.003398 -0.005174 0.000000 0.000000 0.000000
# 2 -0.003398 0.009363 -0.002001 0.000000 0.000000 0.000000
# 3 -0.005174 -0.002001 0.010902 0.000000 0.000000 0.000000
# 4 0.000000 0.000000 0.000000 0.029636 0.000000 0.000000
# 5 0.000000 0.000000 0.000000 0.000000 0.064630 0.000000
# 6 0.000000 0.000000 0.000000 0.000000 0.000000 0.050070
#
#
# Mechanical properties :
#
#
# Convention : Reuss Voigt Hill
#
# Bulk Modulus (GPa) = 53.26649 58.32095 55.79372
# Shear Modulus (GPa) = 23.62273 27.27741 25.45007
#
# Velocity S-wave (km/s) = 3.67689 3.95109 3.81645
# Velocity P-wave (km/s) = 6.96498 7.36155 7.16601
#
# Compressibility (1/GPa) = 0.01877353
#
# Stress axis : x y z
#
# Youngs Moduli (GPa) = 50.87665 106.80090 91.72963
#
# Poissons Ratio (x) = 0.36294 0.47458
# Poissons Ratio (y) = 0.17289 0.18358
# Poissons Ratio (z) = 0.26322 0.21374
#
# Static dielectric constant tensor:
#      x y z
#    x 2.971180 0.000000 0.000000 
#    y 0.000000 3.670640 0.000000 
#    z 0.000000 0.000000 3.309650 
# 
# 
# High freq. dielectric constant tensor:
#      x y z
#    x 1.630640 0.000000 0.000000 
#    y 0.000000 1.700080 0.000000 
#    z 0.000000 0.000000 1.671720 
# 
# From -- ./inp_files/36072.got.cif
#   From: 2010.03.12/outbox.cif.g09.slc.cpg/sg67_19_cif.got.tgz:36072.got - 2010.04.10 22:41:39.
