data_PCOD8279422
_publ_section_title
;
Structure prediction by ZEFSAII (Michael W. Deem and Ramdas Pophale) SiO2 
 PCOD8279422
Probable space group: C M M A
;
_chemical_formula_sum "Si O2"
_cell_formula_units_Z 56
_cell_length_a 14.913491
_cell_length_b 18.514661
_cell_length_c 9.231806
_cell_angle_alpha 90.000000
_cell_angle_beta 90.000000
_cell_angle_gamma 90.000000
_cell_volume 2549.069934
_symmetry_space_group_name_H-M "C M M A"
_symmetry_group_IT_number 67
_symmetry_cell_setting 'orthorhombic'
loop_
_space_group_symop_operation_xyz
x,y,z
-x,1/2-y,z
x,-y,-z
-x,1/2+y,-z
-x,-y,-z
x,1/2+y,-z
-x,y,z
x,1/2-y,z
1/2+x,1/2+y,z
1/2-x,-y,z
1/2+x,1/2-y,-z
1/2-x,y,-z
1/2-x,1/2-y,-z
1/2+x,y,-z
1/2-x,1/2+y,z
1/2+x,-y,z
loop_
_atom_site_type_symbol
_atom_site_label
_atom_site_fract_x
_atom_site_fract_y
_atom_site_fract_z
Si Si1 0.339485 0.869607 0.947227
Si Si2 0.750000 0.500000 0.788004
Si Si3 0.101561 0.394080 0.258811
Si Si4 0.893448 0.250000 0.417350
Si Si5 0.100674 0.250000 0.734065
O O1 0.385547 0.822355 0.824867
O O2 0.309351 0.946555 0.884843
O O3 0.250000 0.827659 0.000000
O O4 0.403498 0.882782 0.084908
O O5 0.824868 0.544734 0.696149
O O6 0.138659 0.321366 0.333087
O O7 0.000000 0.414646 0.309995
O O8 0.848103 0.250000 0.578922
O O9 0.000000 0.250000 0.416238
O O10 0.000000 0.250000 0.681930
#
# Coordination Sequence:
#
# PCOD8279422 Si02
#       5
#    16   8  16   8   8
#     4  10  20  37  57  86 119 147 191 241 288 348
#     4  10  23  38  57  90 121 148 191 242 289 348
#     4  10  19  37  63  86 115 153 192 239 292 345
#     4   9  21  39  58  84 115 151 198 244 285 337
#     4  11  22  37  59  86 117 153 194 242 291 341
#
# _framework density 21.968798
#
# number of rings (size 3 to 8) (size 9 to 14) (size 15 to 20)
#    0.000    2.000    0.000    6.000    0.000    8.000 
#    0.000   14.286    0.000    5.143    0.000    0.000 
#    0.000    0.000    0.000    0.000    0.000    0.000 
#
# Total GULP energy -346888.747795 kJ/mol
# GULP energy per Si atom -12388.883850 kJ/mol
# Density = 2.191880 g / cm^3
# Si number density = 21.968798 Si / 1000 Ang^3
#
#
#
# Elastic Constant Matrix: (Units=GPa)
#
#
# Indices 1 2 3 4 5 6 
#
# 1 90.4853 52.1680 22.2721 0.0000 0.0000 0.0000
# 2 52.1680 164.9534 58.3325 0.0000 0.0000 0.0000
# 3 22.2721 58.3325 71.6990 0.0000 0.0000 0.0000
# 4 0.0000 0.0000 0.0000 -2.0577 0.0000 0.0000
# 5 0.0000 0.0000 0.0000 0.0000 20.6511 0.0000
# 6 0.0000 0.0000 0.0000 0.0000 0.0000 41.5109
#
#
#
# Elastic Compliance Matrix: (Units=1/GPa)
#
#
# Indices 1 2 3 4 5 6 
#
# 1 0.013568 -0.003932 -0.001016 0.000000 0.000000 0.000000
# 2 -0.003932 0.009650 -0.006630 0.000000 0.000000 0.000000
# 3 -0.001016 -0.006630 0.019657 0.000000 0.000000 0.000000
# 4 0.000000 0.000000 0.000000 -0.485985 0.000000 0.000000
# 5 0.000000 0.000000 0.000000 0.000000 0.048424 0.000000
# 6 0.000000 0.000000 0.000000 0.000000 0.000000 0.024090
#
#
# Mechanical properties :
#
#
# Convention : Reuss Voigt Hill
#
# Bulk Modulus (GPa) = 50.70979 65.85366 58.28172
# Shear Modulus (GPa) = -14.66846 24.97853 5.15504
#
# Velocity S-wave (km/s) = -2.58678 3.37560 1.53350
# Velocity P-wave (km/s) = 3.76972 6.72562 5.45183
#
# Compressibility (1/GPa) = 0.01972006
#
# Stress axis : x y z
#
# Youngs Moduli (GPa) = 73.70040 103.62323 50.87322
#
# Poissons Ratio (x) = 0.40743 0.05168
# Poissons Ratio (y) = 0.28978 0.33728
# Poissons Ratio (z) = 0.07488 0.68701
#
# Static dielectric constant tensor:
#      x y z
#    x 4.227370 0.000000 0.000000 
#    y 0.000000 3.985810 0.000000 
#    z 0.000000 0.000000 3.844100 
# 
# 
# High freq. dielectric constant tensor:
#      x y z
#    x 1.864760 0.000000 0.000000 
#    y 0.000000 1.866030 0.000000 
#    z 0.000000 0.000000 1.844660 
# 
# From -- ./inp_files/9138.got.cif
#   From: 2010.03.12/outbox.cif.g09.slc.cpg/sg67_5_cif.got.tgz:9138.got - 2010.04.10 22:41:39.
