data_PCOD8279750
_publ_section_title
;
Structure prediction by ZEFSAII (Michael W. Deem and Ramdas Pophale) SiO2 
 PCOD8279750
Probable space group: C M M A
;
_chemical_formula_sum "Si O2"
_cell_formula_units_Z 80
_cell_length_a 8.865695
_cell_length_b 23.698347
_cell_length_c 20.222269
_cell_angle_alpha 90.000000
_cell_angle_beta 90.000000
_cell_angle_gamma 90.000000
_cell_volume 4248.745562
_symmetry_space_group_name_H-M "C M M A"
_symmetry_group_IT_number 67
_symmetry_cell_setting 'orthorhombic'
loop_
_space_group_symop_operation_xyz
x,y,z
-x,1/2-y,z
x,-y,-z
-x,1/2+y,-z
-x,-y,-z
x,1/2+y,-z
-x,y,z
x,1/2-y,z
1/2+x,1/2+y,z
1/2-x,-y,z
1/2+x,1/2-y,-z
1/2-x,y,-z
1/2-x,1/2-y,-z
1/2+x,y,-z
1/2-x,1/2+y,z
1/2+x,-y,z
loop_
_atom_site_type_symbol
_atom_site_label
_atom_site_fract_x
_atom_site_fract_y
_atom_site_fract_z
Si Si1 0.332120 0.750000 0.755707
Si Si2 0.168112 0.750000 0.089850
Si Si3 0.177352 0.356202 0.304497
Si Si4 0.823983 0.814999 0.430571
Si Si5 0.179289 0.132454 0.065775
Si Si6 0.322992 0.439413 0.808876
O O1 0.500000 0.750000 0.721799
O O2 0.352161 0.750000 0.832712
O O3 0.237113 0.696101 0.736448
O O4 0.261343 0.803958 0.067222
O O5 0.000000 0.750000 0.057709
O O6 0.256892 0.357524 0.376009
O O7 0.218995 0.411526 0.261849
O O8 0.000000 0.350098 0.315049
O O9 0.787557 0.750000 0.410390
O O10 0.750000 0.830407 0.500000
O O11 0.000000 0.825517 0.437303
O O12 0.237094 0.098751 0.130426
O O13 0.000000 0.132260 0.061666
O O14 0.250000 0.103310 0.000000
O O15 0.500000 0.446512 0.815606
O O16 0.250000 0.500000 0.812671
#
# Coordination Sequence:
#
# PCOD8279750 Si02
#       6
#     8   8  16  16  16  16
#     4  11  21  32  53  86 115 147 188 229 281 340
#     4  11  22  36  57  86 117 151 186 229 283 342
#     4  11  21  36  58  84 116 152 188 233 285 336
#     4  10  20  33  52  84 122 158 192 225 274 334
#     4  11  23  40  59  84 115 150 188 232 287 345
#     4  10  24  42  61  83 109 146 193 240 289 337
#
# _framework density 18.829087000000001
#
# number of rings (size 3 to 8) (size 9 to 14) (size 15 to 20)
#    0.000    1.400    3.000    2.700    0.000    5.200 
#    0.000    2.000    0.000    0.600    0.000    4.200 
#    0.000    0.000    0.000    0.000    0.000    0.000 
#
# Total GULP energy -496038.095658 kJ/mol
# GULP energy per Si atom -12400.952391 kJ/mol
# Density = 1.878623 g / cm^3
# Si number density = 18.829087 Si / 1000 Ang^3
#
#
#
# Elastic Constant Matrix: (Units=GPa)
#
#
# Indices 1 2 3 4 5 6 
#
# 1 91.8564 44.2157 65.7469 0.0000 0.0000 0.0000
# 2 44.2157 107.6568 57.3969 0.0000 0.0000 0.0000
# 3 65.7469 57.3969 152.5176 0.0000 0.0000 0.0000
# 4 0.0000 0.0000 0.0000 34.3835 0.0000 0.0000
# 5 0.0000 0.0000 0.0000 0.0000 36.6452 0.0000
# 6 0.0000 0.0000 0.0000 0.0000 0.0000 31.7253
#
#
#
# Elastic Compliance Matrix: (Units=1/GPa)
#
#
# Indices 1 2 3 4 5 6 
#
# 1 0.016918 -0.003828 -0.005852 0.000000 0.000000 0.000000
# 2 -0.003828 0.012487 -0.003049 0.000000 0.000000 0.000000
# 3 -0.005852 -0.003049 0.010227 0.000000 0.000000 0.000000
# 4 0.000000 0.000000 0.000000 0.029084 0.000000 0.000000
# 5 0.000000 0.000000 0.000000 0.000000 0.027289 0.000000
# 6 0.000000 0.000000 0.000000 0.000000 0.000000 0.031521
#
#
# Mechanical properties :
#
#
# Convention : Reuss Voigt Hill
#
# Bulk Modulus (GPa) = 70.55828 76.30554 73.43191
# Shear Modulus (GPa) = 31.70425 32.86222 32.28324
#
# Velocity S-wave (km/s) = 4.10785 4.18220 4.14519
# Velocity P-wave (km/s) = 7.74943 7.99590 7.87363
#
# Compressibility (1/GPa) = 0.01417268
#
# Stress axis : x y z
#
# Youngs Moduli (GPa) = 59.10798 80.08631 97.78257
#
# Poissons Ratio (x) = 0.30659 0.57226
# Poissons Ratio (y) = 0.22628 0.29812
# Poissons Ratio (z) = 0.34592 0.24416
#
# Static dielectric constant tensor:
#      x y z
#    x 3.560770 0.000000 0.000000 
#    y 0.000000 3.194160 0.000000 
#    z 0.000000 0.000000 3.799750 
# 
# 
# High freq. dielectric constant tensor:
#      x y z
#    x 1.744930 0.000000 0.000000 
#    y 0.000000 1.698030 0.000000 
#    z 0.000000 0.000000 1.751420 
# 
# From -- ./inp_files/36884.got.cif
#   From: 2010.03.12/outbox.cif.g09.slc.cpg/sg67_19_cif.got.tgz:36884.got - 2010.04.10 22:41:39.
