data_PCOD8279107
_publ_section_title
;
Structure prediction by ZEFSAII (Michael W. Deem and Ramdas Pophale) SiO2 
 PCOD8279107
Probable space group: C M M A
;
_chemical_formula_sum "Si O2"
_cell_formula_units_Z 104
_cell_length_a 8.835456
_cell_length_b 26.863999
_cell_length_c 23.785623
_cell_angle_alpha 90.000000
_cell_angle_beta 90.000000
_cell_angle_gamma 90.000000
_cell_volume 5645.652749
_symmetry_space_group_name_H-M "C M M A"
_symmetry_group_IT_number 67
_symmetry_cell_setting 'orthorhombic'
loop_
_space_group_symop_operation_xyz
x,y,z
-x,1/2-y,z
x,-y,-z
-x,1/2+y,-z
-x,-y,-z
x,1/2+y,-z
-x,y,z
x,1/2-y,z
1/2+x,1/2+y,z
1/2-x,-y,z
1/2+x,1/2-y,-z
1/2-x,y,-z
1/2-x,1/2-y,-z
1/2+x,y,-z
1/2-x,1/2+y,z
1/2+x,-y,z
loop_
_atom_site_type_symbol
_atom_site_label
_atom_site_fract_x
_atom_site_fract_y
_atom_site_fract_z
Si Si1 0.823247 0.192653 0.559699
Si Si2 0.321015 0.550197 0.725507
Si Si3 0.331268 0.305703 0.242577
Si Si4 0.678263 0.750000 0.060822
Si Si5 0.678259 0.949500 0.853753
Si Si6 0.673808 0.842342 0.878089
Si Si7 0.176822 0.141577 0.336261
O O1 0.795521 0.250000 0.576832
O O2 0.750000 0.180837 0.500000
O O3 0.741288 0.157085 0.603739
O O4 0.000000 0.180148 0.557383
O O5 0.500000 0.548027 0.722242
O O6 0.250000 0.500000 0.700787
O O7 0.264240 0.557644 0.789678
O O8 0.262699 0.593330 0.685431
O O9 0.500000 0.314986 0.267671
O O10 0.313337 0.250000 0.220064
O O11 0.306232 0.340437 0.189044
O O12 0.208758 0.315092 0.290882
O O13 0.500000 0.750000 0.055382
O O14 0.724485 0.801075 0.091836
O O15 0.750000 0.750000 0.000000
O O16 0.500000 0.956388 0.854668
O O17 0.722007 0.900005 0.890819
O O18 0.750000 0.000000 0.880043
O O19 0.500000 0.832036 0.895520
O O20 0.000000 0.131415 0.341425
#
# Coordination Sequence:
#
# PCOD8279107 Si02
#       7
#    16  16  16   8  16  16  16
#     4  10  21  38  58  78 103 139 182 229 280 333
#     4  10  19  34  52  76 109 146 185 225 276 332
#     4  10  19  33  52  75 109 150 184 222 280 337
#     4  12  26  42  62  88 116 154 197 240 283 336
#     4   9  18  32  54  81 114 152 189 229 281 338
#     4  10  19  37  59  82 114 154 190 232 284 337
#     4  12  23  33  50  78 111 146 184 227 274 332
#
# _framework density 18.421254000000001
#
# number of rings (size 3 to 8) (size 9 to 14) (size 15 to 20)
#    0.000    1.692    2.308    3.462    0.000    4.923 
#    0.000    0.000    0.000    0.923    0.000    6.462 
#    0.000    0.000    0.000    0.000    0.000    0.000 
#
# Total GULP energy -644670.402941 kJ/mol
# GULP energy per Si atom -12397.507749 kJ/mol
# Density = 1.837933 g / cm^3
# Si number density = 18.421254 Si / 1000 Ang^3
#
#
#
# Elastic Constant Matrix: (Units=GPa)
#
#
# Indices 1 2 3 4 5 6 
#
# 1 99.8078 48.5638 31.0820 0.0000 0.0000 0.0000
# 2 48.5638 137.6060 37.0791 0.0000 0.0000 0.0000
# 3 31.0820 37.0791 52.5743 0.0000 0.0000 0.0000
# 4 0.0000 0.0000 0.0000 13.7076 0.0000 0.0000
# 5 0.0000 0.0000 0.0000 0.0000 27.7901 0.0000
# 6 0.0000 0.0000 0.0000 0.0000 0.0000 33.6839
#
#
#
# Elastic Compliance Matrix: (Units=1/GPa)
#
#
# Indices 1 2 3 4 5 6 
#
# 1 0.013322 -0.003185 -0.005630 0.000000 0.000000 0.000000
# 2 -0.003185 0.009733 -0.004982 0.000000 0.000000 0.000000
# 3 -0.005630 -0.004982 0.025863 0.000000 0.000000 0.000000
# 4 0.000000 0.000000 0.000000 0.072952 0.000000 0.000000
# 5 0.000000 0.000000 0.000000 0.000000 0.035984 0.000000
# 6 0.000000 0.000000 0.000000 0.000000 0.000000 0.029688
#
#
# Mechanical properties :
#
#
# Convention : Reuss Voigt Hill
#
# Bulk Modulus (GPa) = 46.89298 58.15977 52.52638
# Shear Modulus (GPa) = 22.49782 26.58722 24.54252
#
# Velocity S-wave (km/s) = 3.49850 3.80319 3.65402
# Velocity P-wave (km/s) = 6.46765 7.13627 6.81017
#
# Compressibility (1/GPa) = 0.02132515
#
# Stress axis : x y z
#
# Youngs Moduli (GPa) = 75.06333 102.73839 38.66554
#
# Poissons Ratio (x) = 0.32718 0.21769
# Poissons Ratio (y) = 0.23904 0.19263
# Poissons Ratio (z) = 0.42261 0.51184
#
# Static dielectric constant tensor:
#      x y z
#    x 3.433420 0.000000 0.000000 
#    y 0.000000 3.676400 0.000000 
#    z 0.000000 0.000000 3.225490 
# 
# 
# High freq. dielectric constant tensor:
#      x y z
#    x 1.714830 0.000000 0.000000 
#    y 0.000000 1.726800 0.000000 
#    z 0.000000 0.000000 1.682130 
# 
# From -- ./inp_files/37270.got.cif
#   From: 2010.03.12/outbox.cif.g09.slc.cpg/sg67_19_cif.got.tgz:37270.got - 2010.04.10 22:41:39.
