data_PCOD8279742
_publ_section_title
;
Structure prediction by ZEFSAII (Michael W. Deem and Ramdas Pophale) SiO2 
 PCOD8279742
Probable space group: C M M A
;
_chemical_formula_sum "Si O2"
_cell_formula_units_Z 52
_cell_length_a 21.209230
_cell_length_b 14.195289
_cell_length_c 10.072611
_cell_angle_alpha 90.000000
_cell_angle_beta 90.000000
_cell_angle_gamma 90.000000
_cell_volume 3032.572570
_symmetry_space_group_name_H-M "C M M A"
_symmetry_group_IT_number 67
_symmetry_cell_setting 'orthorhombic'
loop_
_space_group_symop_operation_xyz
x,y,z
-x,1/2-y,z
x,-y,-z
-x,1/2+y,-z
-x,-y,-z
x,1/2+y,-z
-x,y,z
x,1/2-y,z
1/2+x,1/2+y,z
1/2-x,-y,z
1/2+x,1/2-y,-z
1/2-x,y,-z
1/2-x,1/2-y,-z
1/2+x,y,-z
1/2-x,1/2+y,z
1/2+x,-y,z
loop_
_atom_site_type_symbol
_atom_site_label
_atom_site_fract_x
_atom_site_fract_y
_atom_site_fract_z
Si Si1 0.926393 0.045650 0.358665
Si Si2 0.425354 0.750000 0.971927
Si Si3 0.250000 0.500000 0.000000
Si Si4 0.925780 0.750000 0.726865
Si Si5 0.129055 0.561201 0.117581
O O1 0.904420 0.155588 0.352005
O O2 0.000000 0.036802 0.321938
O O3 0.911844 0.000000 0.500000
O O4 0.885047 0.986157 0.257303
O O5 0.500000 0.750000 0.972745
O O6 0.400314 0.663596 0.886452
O O7 0.397997 0.750000 0.122666
O O8 0.205023 0.564783 0.093418
O O9 0.000000 0.750000 0.739089
O O10 0.096575 0.500000 0.000000
#
# Coordination Sequence:
#
# PCOD8279742 Si02
#       5
#    16   8   4   8  16
#     4  10  20  33  52  79 114 146 177 228 287 343
#     4  11  20  30  58  89 108 141 183 235 292 331
#     4   8  20  38  56  76 106 152 198 232 264 308
#     4   9  16  29  48  73 105 143 174 210 277 337
#     4  10  20  36  54  79 109 143 190 231 266 321
#
# _framework density 17.147158000000001
#
# number of rings (size 3 to 8) (size 9 to 14) (size 15 to 20)
#    0.923    1.231    3.077    0.923    0.000    3.077 
#    0.000    3.846    0.000    0.000    0.000    6.462 
#    0.000    0.000    0.000    0.000    0.000    0.000 
#
# Total GULP energy -322232.671125 kJ/mol
# GULP energy per Si atom -12393.564274 kJ/mol
# Density = 1.710813 g / cm^3
# Si number density = 17.147158 Si / 1000 Ang^3
#
#
#
# Elastic Constant Matrix: (Units=GPa)
#
#
# Indices 1 2 3 4 5 6 
#
# 1 80.7852 44.5314 43.9454 0.0000 0.0000 0.0000
# 2 44.5314 163.7595 67.6043 0.0000 0.0000 0.0000
# 3 43.9454 67.6043 112.8996 0.0000 0.0000 0.0000
# 4 0.0000 0.0000 0.0000 30.7877 0.0000 0.0000
# 5 0.0000 0.0000 0.0000 0.0000 10.3209 0.0000
# 6 0.0000 0.0000 0.0000 0.0000 0.0000 16.8593
#
#
#
# Elastic Compliance Matrix: (Units=1/GPa)
#
#
# Indices 1 2 3 4 5 6 
#
# 1 0.016397 -0.002423 -0.004931 0.000000 0.000000 0.000000
# 2 -0.002423 0.008470 -0.004129 0.000000 0.000000 0.000000
# 3 -0.004931 -0.004129 0.013249 0.000000 0.000000 0.000000
# 4 0.000000 0.000000 0.000000 0.032480 0.000000 0.000000
# 5 0.000000 0.000000 0.000000 0.000000 0.096891 0.000000
# 6 0.000000 0.000000 0.000000 0.000000 0.000000 0.059315
#
#
# Mechanical properties :
#
#
# Convention : Reuss Voigt Hill
#
# Bulk Modulus (GPa) = 66.00800 74.40073 70.20436
# Shear Modulus (GPa) = 19.62190 25.01779 22.31985
#
# Velocity S-wave (km/s) = 3.38646 3.82384 3.61177
# Velocity P-wave (km/s) = 7.33957 7.93595 7.64358
#
# Compressibility (1/GPa) = 0.01514968
#
# Stress axis : x y z
#
# Youngs Moduli (GPa) = 60.98780 118.06674 75.47653
#
# Poissons Ratio (x) = 0.28607 0.37221
# Poissons Ratio (y) = 0.14777 0.31161
# Poissons Ratio (z) = 0.30076 0.48745
#
# Static dielectric constant tensor:
#      x y z
#    x 2.899770 0.000000 0.000000 
#    y 0.000000 3.302690 0.000000 
#    z 0.000000 0.000000 3.085510 
# 
# 
# High freq. dielectric constant tensor:
#      x y z
#    x 1.629080 0.000000 0.000000 
#    y 0.000000 1.670980 0.000000 
#    z 0.000000 0.000000 1.650620 
# 
# From -- ./inp_files/6435.got.cif
#   From: 2010.03.12/outbox.cif.g09.slc.cpg/sg67_4_cif.got.tgz:6435.got - 2010.04.10 22:41:39.
