data_PCOD8279887
_publ_section_title
;
Structure prediction by ZEFSAII (Michael W. Deem and Ramdas Pophale) SiO2 
 PCOD8279887
Probable space group: C M M A
;
_chemical_formula_sum "Si O2"
_cell_formula_units_Z 96
_cell_length_a 8.797476
_cell_length_b 19.021079
_cell_length_c 30.650480
_cell_angle_alpha 90.000000
_cell_angle_beta 90.000000
_cell_angle_gamma 90.000000
_cell_volume 5128.974268
_symmetry_space_group_name_H-M "C M M A"
_symmetry_group_IT_number 67
_symmetry_cell_setting 'orthorhombic'
loop_
_space_group_symop_operation_xyz
x,y,z
-x,1/2-y,z
x,-y,-z
-x,1/2+y,-z
-x,-y,-z
x,1/2+y,-z
-x,y,z
x,1/2-y,z
1/2+x,1/2+y,z
1/2-x,-y,z
1/2+x,1/2-y,-z
1/2-x,y,-z
1/2-x,1/2-y,-z
1/2+x,y,-z
1/2-x,1/2+y,z
1/2+x,-y,z
loop_
_atom_site_type_symbol
_atom_site_label
_atom_site_fract_x
_atom_site_fract_y
_atom_site_fract_z
Si Si1 0.675852 0.668378 0.883049
Si Si2 0.678996 0.670389 0.369084
Si Si3 0.820140 0.926768 0.953362
Si Si4 0.180596 0.574970 0.710478
Si Si5 0.821570 0.925730 0.199056
Si Si6 0.171548 0.333708 0.543287
O O1 0.500000 0.656856 0.895542
O O2 0.716811 0.750000 0.878667
O O3 0.780191 0.635569 0.920487
O O4 0.714862 0.631938 0.837326
O O5 0.500000 0.666817 0.374444
O O6 0.735905 0.750000 0.362446
O O7 0.735040 0.627747 0.327086
O O8 0.749219 0.637028 0.413005
O O9 0.000000 0.935001 0.957637
O O10 0.750000 0.000000 0.935858
O O11 0.750000 0.907322 0.000000
O O12 0.250000 0.500000 0.698702
O O13 0.246494 0.602286 0.756391
O O14 0.000000 0.569868 0.713744
O O15 0.000000 0.936695 0.206304
O O16 0.750000 0.000000 0.184636
O O17 0.184560 0.250000 0.542700
O O18 0.250000 0.365131 0.500000
O O19 0.000000 0.360290 0.543333
#
# Coordination Sequence:
#
# PCOD8279887 Si02
#       6
#    16  16  16  16  16  16
#     4  10  22  39  57  81 114 147 179 220 270 319
#     4   9  18  32  49  71  99 130 165 206 252 300
#     4  11  22  38  61  86 112 145 185 226 267 314
#     4  10  20  34  53  75 101 134 170 211 257 306
#     4  10  20  35  56  78 102 136 176 217 259 307
#     4   9  16  26  43  68  97 129 164 203 247 296
#
# _framework density 18.717193000000002
#
# number of rings (size 3 to 8) (size 9 to 14) (size 15 to 20)
#    0.000    2.167    0.000    5.000    0.000    7.333 
#    0.000    0.000    0.000    0.500    0.000    3.500 
#    0.000    0.000    0.000    0.000    0.000    0.000 
#
# Total GULP energy -595295.695828 kJ/mol
# GULP energy per Si atom -12401.993663 kJ/mol
# Density = 1.867459 g / cm^3
# Si number density = 18.717193 Si / 1000 Ang^3
#
#
#
# Elastic Constant Matrix: (Units=GPa)
#
#
# Indices 1 2 3 4 5 6 
#
# 1 103.7649 45.8282 68.2809 0.0000 0.0000 0.0000
# 2 45.8282 92.7194 82.9933 0.0000 0.0000 0.0000
# 3 68.2809 82.9933 154.9835 0.0000 0.0000 0.0000
# 4 0.0000 0.0000 0.0000 28.3823 0.0000 0.0000
# 5 0.0000 0.0000 0.0000 0.0000 35.5622 0.0000
# 6 0.0000 0.0000 0.0000 0.0000 0.0000 21.8193
#
#
#
# Elastic Compliance Matrix: (Units=1/GPa)
#
#
# Indices 1 2 3 4 5 6 
#
# 1 0.013907 -0.002669 -0.004698 0.000000 0.000000 0.000000
# 2 -0.002669 0.021226 -0.010191 0.000000 0.000000 0.000000
# 3 -0.004698 -0.010191 0.013979 0.000000 0.000000 0.000000
# 4 0.000000 0.000000 0.000000 0.035233 0.000000 0.000000
# 5 0.000000 0.000000 0.000000 0.000000 0.028120 0.000000
# 6 0.000000 0.000000 0.000000 0.000000 0.000000 0.045831
#
#
# Mechanical properties :
#
#
# Convention : Reuss Voigt Hill
#
# Bulk Modulus (GPa) = 71.44092 82.85252 77.14672
# Shear Modulus (GPa) = 25.24268 27.44379 26.34324
#
# Velocity S-wave (km/s) = 3.67636 3.83330 3.75565
# Velocity P-wave (km/s) = 7.50149 7.99711 7.75326
#
# Compressibility (1/GPa) = 0.01399758
#
# Stress axis : x y z
#
# Youngs Moduli (GPa) = 71.90478 47.11199 71.53474
#
# Poissons Ratio (x) = 0.12573 0.33607
# Poissons Ratio (y) = 0.19189 0.72899
# Poissons Ratio (z) = 0.33781 0.48011
#
# Static dielectric constant tensor:
#      x y z
#    x 3.474000 0.000000 0.000000 
#    y 0.000000 3.243100 0.000000 
#    z 0.000000 0.000000 3.624770 
# 
# 
# High freq. dielectric constant tensor:
#      x y z
#    x 1.735390 0.000000 0.000000 
#    y 0.000000 1.699180 0.000000 
#    z 0.000000 0.000000 1.741990 
# 
# From -- ./inp_files/43457.got.cif
#   From: 2010.03.12/outbox.cif.g09.slc.cpg/sg67_22_cif.got.tgz:43457.got - 2010.04.10 22:41:39.
