data_PCOD8279252
_publ_section_title
;
Structure prediction by ZEFSAII (Michael W. Deem and Ramdas Pophale) SiO2 
 PCOD8279252
Probable space group: C M M A
;
_chemical_formula_sum "Si O2"
_cell_formula_units_Z 116
_cell_length_a 33.599046
_cell_length_b 18.187970
_cell_length_c 10.257390
_cell_angle_alpha 90.000000
_cell_angle_beta 90.000000
_cell_angle_gamma 90.000000
_cell_volume 6268.275034
_symmetry_space_group_name_H-M "C M M A"
_symmetry_group_IT_number 67
_symmetry_cell_setting 'orthorhombic'
loop_
_space_group_symop_operation_xyz
x,y,z
-x,1/2-y,z
x,-y,-z
-x,1/2+y,-z
-x,-y,-z
x,1/2+y,-z
-x,y,z
x,1/2-y,z
1/2+x,1/2+y,z
1/2-x,-y,z
1/2+x,1/2-y,-z
1/2-x,y,-z
1/2-x,1/2-y,-z
1/2+x,y,-z
1/2-x,1/2+y,z
1/2+x,-y,z
loop_
_atom_site_type_symbol
_atom_site_label
_atom_site_fract_x
_atom_site_fract_y
_atom_site_fract_z
Si Si1 0.188365 0.452800 0.618846
Si Si2 0.750000 0.000000 0.000000
Si Si3 0.894237 0.049570 0.128067
Si Si4 0.600376 0.549188 0.617459
Si Si5 0.046349 0.165705 0.221393
Si Si6 0.954774 0.334542 0.521341
Si Si7 0.250696 0.831215 0.654555
Si Si8 0.308686 0.078601 0.814117
O O1 0.208528 0.500000 0.500000
O O2 0.144983 0.423237 0.577470
O O3 0.214699 0.388937 0.683054
O O4 0.181830 0.505470 0.737775
O O5 0.723495 0.058333 0.922105
O O6 0.928492 0.111357 0.129415
O O7 0.852463 0.096423 0.128457
O O8 0.900810 0.994644 0.248449
O O9 0.897175 0.000000 0.000000
O O10 0.583420 0.500000 0.500000
O O11 0.572553 0.620748 0.622726
O O12 0.054984 0.250000 0.181067
O O13 0.058927 0.153524 0.371900
O O14 0.000000 0.147494 0.202188
O O15 0.950537 0.250000 0.560641
O O16 0.000000 0.361153 0.538369
O O17 0.260172 0.750000 0.711496
O O18 0.250000 0.826747 0.500000
O O19 0.208975 0.858042 0.718588
#
# Coordination Sequence:
#
# PCOD8279252 Si02
#       8
#    16   4  16  16  16  16  16  16
#     4  10  19  34  55  77 108 142 179 231 289 340
#     4  12  20  36  64  76  94 160 210 218 260 356
#     4  11  23  38  58  89 121 153 202 249 290 347
#     4  10  20  34  55  86 111 146 194 247 292 338
#     4   9  19  37  61  87 118 157 194 236 299 364
#     4   9  18  34  57  85 117 153 192 236 296 362
#     4  11  22  34  54  85 112 138 181 238 294 341
#     4  11  22  37  59  80 109 152 197 232 284 347
#
# _framework density 18.505890000000001
#
# number of rings (size 3 to 8) (size 9 to 14) (size 15 to 20)
#    0.000    1.793    4.828    0.828    0.000    2.207 
#    0.000    3.793    0.000    4.138    0.000    0.000 
#    0.000    0.000    0.000    0.000    0.000    0.000 
#
# Total GULP energy -718799.577470 kJ/mol
# GULP energy per Si atom -12393.096163 kJ/mol
# Density = 1.846377 g / cm^3
# Si number density = 18.505890 Si / 1000 Ang^3
#
#
#
# Elastic Constant Matrix: (Units=GPa)
#
#
# Indices 1 2 3 4 5 6 
#
# 1 115.6642 67.1747 36.2755 0.0000 0.0000 0.0000
# 2 67.1747 104.0477 30.8976 0.0000 0.0000 0.0000
# 3 36.2755 30.8976 81.6916 0.0000 0.0000 0.0000
# 4 0.0000 0.0000 0.0000 -31.7892 0.0000 0.0000
# 5 0.0000 0.0000 0.0000 0.0000 34.4973 0.0000
# 6 0.0000 0.0000 0.0000 0.0000 0.0000 -3.3581
#
#
#
# Elastic Compliance Matrix: (Units=1/GPa)
#
#
# Indices 1 2 3 4 5 6 
#
# 1 0.014573 -0.008434 -0.003281 0.000000 0.000000 0.000000
# 2 -0.008434 0.015708 -0.002196 0.000000 0.000000 0.000000
# 3 -0.003281 -0.002196 0.014529 0.000000 0.000000 0.000000
# 4 0.000000 0.000000 0.000000 -0.031457 0.000000 0.000000
# 5 0.000000 0.000000 0.000000 0.000000 0.028988 0.000000
# 6 0.000000 0.000000 0.000000 0.000000 0.000000 -0.297784
#
#
# Mechanical properties :
#
#
# Convention : Reuss Voigt Hill
#
# Bulk Modulus (GPa) = 58.86744 63.34437 61.10590
# Shear Modulus (GPa) = -22.52686 11.00703 -5.75991
#
# Velocity S-wave (km/s) = -3.49274 2.44147 -1.76614
# Velocity P-wave (km/s) = 3.95140 6.50010 5.37889
#
# Compressibility (1/GPa) = 0.01698732
#
# Stress axis : x y z
#
# Youngs Moduli (GPa) = 68.61888 63.66016 68.82886
#
# Poissons Ratio (x) = 0.53693 0.22585
# Poissons Ratio (y) = 0.57875 0.15115
# Poissons Ratio (z) = 0.22516 0.13980
#
# Static dielectric constant tensor:
#      x y z
#    x 3.966910 0.000000 0.000000 
#    y 0.000000 3.453690 0.000000 
#    z 0.000000 0.000000 3.246220 
# 
# 
# High freq. dielectric constant tensor:
#      x y z
#    x 1.725250 0.000000 0.000000 
#    y 0.000000 1.706640 0.000000 
#    z 0.000000 0.000000 1.696740 
# 
# From -- ./inp_files/23951.got.cif
#   From: 2010.03.12/outbox.cif.g09.slc.cpg/sg67_12_cif.got.tgz:23951.got - 2010.04.10 22:41:39.
