data_PCOD8279868
_publ_section_title
;
Structure prediction by ZEFSAII (Michael W. Deem and Ramdas Pophale) SiO2 
 PCOD8279868
Probable space group: C M M A
;
_chemical_formula_sum "Si O2"
_cell_formula_units_Z 104
_cell_length_a 8.928361
_cell_length_b 26.110980
_cell_length_c 22.687280
_cell_angle_alpha 90.000000
_cell_angle_beta 90.000000
_cell_angle_gamma 90.000000
_cell_volume 5289.046009
_symmetry_space_group_name_H-M "C M M A"
_symmetry_group_IT_number 67
_symmetry_cell_setting 'orthorhombic'
loop_
_space_group_symop_operation_xyz
x,y,z
-x,1/2-y,z
x,-y,-z
-x,1/2+y,-z
-x,-y,-z
x,1/2+y,-z
-x,y,z
x,1/2-y,z
1/2+x,1/2+y,z
1/2-x,-y,z
1/2+x,1/2-y,-z
1/2-x,y,-z
1/2-x,1/2-y,-z
1/2+x,y,-z
1/2-x,1/2+y,z
1/2+x,-y,z
loop_
_atom_site_type_symbol
_atom_site_label
_atom_site_fract_x
_atom_site_fract_y
_atom_site_fract_z
Si Si1 0.324493 0.151410 0.057754
Si Si2 0.173210 0.308018 0.816429
Si Si3 0.177767 0.553375 0.346107
Si Si4 0.673851 0.250000 0.438060
Si Si5 0.174032 0.553260 0.895378
Si Si6 0.323658 0.139152 0.436478
Si Si7 0.172651 0.403074 0.232599
O O1 0.500000 0.146561 0.047731
O O2 0.286126 0.185857 0.114627
O O3 0.254296 0.095391 0.064919
O O4 0.250000 0.177357 0.000000
O O5 0.207380 0.250000 0.797252
O O6 0.272621 0.344691 0.775664
O O7 0.000000 0.322310 0.806040
O O8 0.250000 0.500000 0.366019
O O9 0.235899 0.596380 0.391647
O O10 0.230026 0.568338 0.281160
O O11 0.000000 0.548044 0.346169
O O12 0.500000 0.250000 0.450536
O O13 0.750000 0.250000 0.500000
O O14 0.717042 0.304494 0.407544
O O15 0.250000 0.500000 0.911204
O O16 0.198944 0.565471 0.826835
O O17 0.000000 0.551636 0.911745
O O18 0.500000 0.133517 0.445283
O O19 0.250000 0.131073 0.500000
O O20 0.000000 0.402356 0.251860
#
# Coordination Sequence:
#
# PCOD8279868 Si02
#       7
#    16  16  16   8  16  16  16
#     4  10  20  34  52  76 107 140 177 219 265 322
#     4   9  19  37  59  81 108 144 182 223 273 329
#     4  11  23  38  56  82 114 151 191 233 281 338
#     4   8  14  30  54  78 104 136 176 222 267 318
#     4  10  20  34  53  76 101 134 175 220 272 324
#     4   9  19  35  57  83 112 147 188 231 280 334
#     4  10  21  37  57  81 109 141 180 229 279 330
#
# _framework density 19.663281000000001
#
# number of rings (size 3 to 8) (size 9 to 14) (size 15 to 20)
#    0.000    2.308    0.000    2.308    0.000    6.154 
#    1.385    3.077    0.000    0.000    0.000    0.000 
#    0.000    0.000    0.000    0.000    0.000    0.000 
#
# Total GULP energy -644703.512019 kJ/mol
# GULP energy per Si atom -12398.144462 kJ/mol
# Density = 1.961853 g / cm^3
# Si number density = 19.663281 Si / 1000 Ang^3
#
#
#
# Elastic Constant Matrix: (Units=GPa)
#
#
# Indices 1 2 3 4 5 6 
#
# 1 69.5281 34.2468 23.7337 0.0000 0.0000 0.0000
# 2 34.2468 120.1082 26.3517 0.0000 0.0000 0.0000
# 3 23.7337 26.3517 58.9837 0.0000 0.0000 0.0000
# 4 0.0000 0.0000 0.0000 18.9085 0.0000 0.0000
# 5 0.0000 0.0000 0.0000 0.0000 29.9712 0.0000
# 6 0.0000 0.0000 0.0000 0.0000 0.0000 31.3752
#
#
#
# Elastic Compliance Matrix: (Units=1/GPa)
#
#
# Indices 1 2 3 4 5 6 
#
# 1 0.018242 -0.003981 -0.005562 0.000000 0.000000 0.000000
# 2 -0.003981 0.010099 -0.002910 0.000000 0.000000 0.000000
# 3 -0.005562 -0.002910 0.020492 0.000000 0.000000 0.000000
# 4 0.000000 0.000000 0.000000 0.052886 0.000000 0.000000
# 5 0.000000 0.000000 0.000000 0.000000 0.033365 0.000000
# 6 0.000000 0.000000 0.000000 0.000000 0.000000 0.031872
#
#
# Mechanical properties :
#
#
# Convention : Reuss Voigt Hill
#
# Bulk Modulus (GPa) = 41.79268 46.36494 44.07881
# Shear Modulus (GPa) = 25.02012 27.00348 26.01180
#
# Velocity S-wave (km/s) = 3.57098 3.70982 3.64106
# Velocity P-wave (km/s) = 6.18893 6.47927 6.33577
#
# Compressibility (1/GPa) = 0.02392763
#
# Stress axis : x y z
#
# Youngs Moduli (GPa) = 54.81817 99.01497 48.79999
#
# Poissons Ratio (x) = 0.39420 0.27140
# Poissons Ratio (y) = 0.21824 0.14201
# Poissons Ratio (z) = 0.30487 0.28815
#
# Static dielectric constant tensor:
#      x y z
#    x 3.546930 0.000000 0.000000 
#    y 0.000000 3.946310 0.000000 
#    z 0.000000 0.000000 3.424780 
# 
# 
# High freq. dielectric constant tensor:
#      x y z
#    x 1.769940 0.000000 0.000000 
#    y 0.000000 1.776480 0.000000 
#    z 0.000000 0.000000 1.749550 
# 
# From -- ./inp_files/39958.got.cif
#   From: 2010.03.12/outbox.cif.g09.slc.cpg/sg67_20_cif.got.tgz:39958.got - 2010.04.10 22:41:39.
