data_PCOD8279875
_publ_section_title
;
Structure prediction by ZEFSAII (Michael W. Deem and Ramdas Pophale) SiO2 
 PCOD8279875
Probable space group: C M M A
;
_chemical_formula_sum "Si O2"
_cell_formula_units_Z 80
_cell_length_a 28.620512
_cell_length_b 16.249237
_cell_length_c 8.614032
_cell_angle_alpha 90.000000
_cell_angle_beta 90.000000
_cell_angle_gamma 90.000000
_cell_volume 4006.054493
_symmetry_space_group_name_H-M "C M M A"
_symmetry_group_IT_number 67
_symmetry_cell_setting 'orthorhombic'
loop_
_space_group_symop_operation_xyz
x,y,z
-x,1/2-y,z
x,-y,-z
-x,1/2+y,-z
-x,-y,-z
x,1/2+y,-z
-x,y,z
x,1/2-y,z
1/2+x,1/2+y,z
1/2-x,-y,z
1/2+x,1/2-y,-z
1/2-x,y,-z
1/2-x,1/2-y,-z
1/2+x,y,-z
1/2-x,1/2+y,z
1/2+x,-y,z
loop_
_atom_site_type_symbol
_atom_site_label
_atom_site_fract_x
_atom_site_fract_y
_atom_site_fract_z
Si Si1 0.804728 0.511808 0.823268
Si Si2 0.947212 0.417874 0.095316
Si Si3 0.870694 0.077659 0.600848
Si Si4 0.447838 0.659462 0.784258
Si Si5 0.364445 0.845480 0.290813
O O1 0.750000 0.500000 0.804457
O O2 0.826869 0.441858 0.712160
O O3 0.819838 0.604384 0.774889
O O4 0.821117 0.500000 0.000000
O O5 0.911067 0.393195 0.231011
O O6 0.000000 0.427800 0.164427
O O7 0.932644 0.500000 0.000000
O O8 0.945959 0.344441 0.970576
O O9 0.914863 0.092447 0.708751
O O10 0.861691 0.151955 0.479283
O O11 0.884185 0.000000 0.500000
O O12 0.500000 0.641443 0.724334
O O13 0.431321 0.750000 0.733603
O O14 0.362750 0.750000 0.237674
#
# Coordination Sequence:
#
# PCOD8279875 Si02
#       5
#    16  16  16  16  16
#     4  10  22  43  66  84 107 146 193 241 292 349
#     4  10  20  35  57  84 116 158 202 236 274 332
#     4  10  21  36  57  83 113 150 188 230 285 349
#     4  10  20  34  52  77 111 150 191 233 273 316
#     4  11  22  36  57  89 123 153 189 237 295 349
#
# _framework density 19.969773
#
# number of rings (size 3 to 8) (size 9 to 14) (size 15 to 20)
#    0.000    1.800    0.000    5.400    0.000    6.000 
#    0.000    6.000    0.000    0.000    0.000    0.000 
#    0.000    0.000    0.000    0.000    0.000    0.000 
#
# Total GULP energy -495788.177571 kJ/mol
# GULP energy per Si atom -12394.704439 kJ/mol
# Density = 1.992432 g / cm^3
# Si number density = 19.969773 Si / 1000 Ang^3
#
#
#
# Elastic Constant Matrix: (Units=GPa)
#
#
# Indices 1 2 3 4 5 6 
#
# 1 113.6940 57.9403 55.4971 0.0000 0.0000 0.0000
# 2 57.9403 94.9830 35.4186 0.0000 0.0000 0.0000
# 3 55.4971 35.4186 115.3227 0.0000 0.0000 0.0000
# 4 0.0000 0.0000 0.0000 25.2747 0.0000 0.0000
# 5 0.0000 0.0000 0.0000 0.0000 11.2777 0.0000
# 6 0.0000 0.0000 0.0000 0.0000 0.0000 20.4599
#
#
#
# Elastic Compliance Matrix: (Units=1/GPa)
#
#
# Indices 1 2 3 4 5 6 
#
# 1 0.014903 -0.007246 -0.004946 0.000000 0.000000 0.000000
# 2 -0.007246 0.015413 -0.001247 0.000000 0.000000 0.000000
# 3 -0.004946 -0.001247 0.011434 0.000000 0.000000 0.000000
# 4 0.000000 0.000000 0.000000 0.039565 0.000000 0.000000
# 5 0.000000 0.000000 0.000000 0.000000 0.088671 0.000000
# 6 0.000000 0.000000 0.000000 0.000000 0.000000 0.048876
#
#
# Mechanical properties :
#
#
# Convention : Reuss Voigt Hill
#
# Bulk Modulus (GPa) = 67.23939 69.07908 68.15924
# Shear Modulus (GPa) = 19.94426 23.07871 21.51149
#
# Velocity S-wave (km/s) = 3.16369 3.40322 3.28564
# Velocity P-wave (km/s) = 6.86213 7.07880 6.97131
#
# Compressibility (1/GPa) = 0.01487223
#
# Stress axis : x y z
#
# Youngs Moduli (GPa) = 67.10163 64.87857 87.45503
#
# Poissons Ratio (x) = 0.47014 0.43257
# Poissons Ratio (y) = 0.48624 0.10903
# Poissons Ratio (z) = 0.33190 0.08088
#
# Static dielectric constant tensor:
#      x y z
#    x 3.466810 0.000000 0.000000 
#    y 0.000000 3.687620 0.000000 
#    z 0.000000 0.000000 3.964950 
# 
# 
# High freq. dielectric constant tensor:
#      x y z
#    x 1.769820 0.000000 0.000000 
#    y 0.000000 1.777690 0.000000 
#    z 0.000000 0.000000 1.784030 
# 
# From -- ./inp_files/13524.got.cif
#   From: 2010.03.12/outbox.cif.g09.slc.cpg/sg67_7_cif.got.tgz:13524.got - 2010.04.10 22:41:39.
