data_PCOD8279392
_publ_section_title
;
Structure prediction by ZEFSAII (Michael W. Deem and Ramdas Pophale) SiO2 
 PCOD8279392
Probable space group: C M M A
;
_chemical_formula_sum "Si O2"
_cell_formula_units_Z 96
_cell_length_a 16.765117
_cell_length_b 19.071814
_cell_length_c 14.733570
_cell_angle_alpha 90.000000
_cell_angle_beta 90.000000
_cell_angle_gamma 90.000000
_cell_volume 4710.929251
_symmetry_space_group_name_H-M "C M M A"
_symmetry_group_IT_number 67
_symmetry_cell_setting 'orthorhombic'
loop_
_space_group_symop_operation_xyz
x,y,z
-x,1/2-y,z
x,-y,-z
-x,1/2+y,-z
-x,-y,-z
x,1/2+y,-z
-x,y,z
x,1/2-y,z
1/2+x,1/2+y,z
1/2-x,-y,z
1/2+x,1/2-y,-z
1/2-x,y,-z
1/2-x,1/2-y,-z
1/2+x,y,-z
1/2-x,1/2+y,z
1/2+x,-y,z
loop_
_atom_site_type_symbol
_atom_site_label
_atom_site_fract_x
_atom_site_fract_y
_atom_site_fract_z
Si Si1 0.341228 0.330812 0.027436
Si Si2 0.661725 0.095533 0.539125
Si Si3 0.092361 0.170754 0.303017
Si Si4 0.092868 0.583309 0.864470
Si Si5 0.093770 0.429158 0.828922
Si Si6 0.591031 0.961276 0.625939
O O1 0.369165 0.250000 0.030741
O O2 0.356366 0.366407 0.125092
O O3 0.250000 0.336928 0.000000
O O4 0.392679 0.373750 0.955423
O O5 0.750000 0.099961 0.500000
O O6 0.642036 0.160692 0.604177
O O7 0.601947 0.096856 0.452657
O O8 0.648662 0.025812 0.600147
O O9 0.102942 0.250000 0.269679
O O10 0.129683 0.122482 0.223222
O O11 0.000000 0.152860 0.322109
O O12 0.124025 0.503344 0.871163
O O13 0.000000 0.579455 0.846110
O O14 0.114830 0.428180 0.722312
O O15 0.000000 0.416879 0.846405
O O16 0.500000 0.988356 0.629400
#
# Coordination Sequence:
#
# PCOD8279392 Si02
#       6
#    16  16  16  16  16  16
#     4  11  25  42  57  84 125 164 196 235 300 369
#     4  11  21  34  54  86 121 155 194 243 298 364
#     4  10  20  36  59  86 117 158 205 249 297 355
#     4  10  20  38  63  90 115 149 204 258 298 345
#     4  10  21  38  63  91 115 149 203 258 298 345
#     4  10  19  36  59  82 114 152 196 251 304 349
#
# _framework density 20.378146000000001
#
# number of rings (size 3 to 8) (size 9 to 14) (size 15 to 20)
#    0.000    1.667    1.667    4.500    0.000    6.333 
#    3.000    0.833    0.000    1.000    0.000    0.000 
#    0.000    0.000    0.000    0.000    0.000    0.000 
#
# Total GULP energy -595146.249339 kJ/mol
# GULP energy per Si atom -12398.880195 kJ/mol
# Density = 2.033176 g / cm^3
# Si number density = 20.378146 Si / 1000 Ang^3
#
#
#
# Elastic Constant Matrix: (Units=GPa)
#
#
# Indices 1 2 3 4 5 6 
#
# 1 50.9098 16.6425 22.7547 0.0000 0.0000 0.0000
# 2 16.6425 98.1683 52.8312 0.0000 0.0000 0.0000
# 3 22.7547 52.8312 139.5035 0.0000 0.0000 0.0000
# 4 0.0000 0.0000 0.0000 33.4168 0.0000 0.0000
# 5 0.0000 0.0000 0.0000 0.0000 24.2198 0.0000
# 6 0.0000 0.0000 0.0000 0.0000 0.0000 -6.2488
#
#
#
# Elastic Compliance Matrix: (Units=1/GPa)
#
#
# Indices 1 2 3 4 5 6 
#
# 1 0.021564 -0.002214 -0.002679 0.000000 0.000000 0.000000
# 2 -0.002214 0.013021 -0.004570 0.000000 0.000000 0.000000
# 3 -0.002679 -0.004570 0.009336 0.000000 0.000000 0.000000
# 4 0.000000 0.000000 0.000000 0.029925 0.000000 0.000000
# 5 0.000000 0.000000 0.000000 0.000000 0.041289 0.000000
# 6 0.000000 0.000000 0.000000 0.000000 0.000000 -0.160030
#
#
# Mechanical properties :
#
#
# Convention : Reuss Voigt Hill
#
# Bulk Modulus (GPa) = 40.00796 52.55984 46.28390
# Shear Modulus (GPa) = -283.48489 23.36778 -130.05856
#
# Velocity S-wave (km/s) = -11.80738 3.38998 -7.99757
# Velocity P-wave (km/s) = 12.89225 6.41645 7.90694
#
# Compressibility (1/GPa) = 0.02499502
#
# Stress axis : x y z
#
# Youngs Moduli (GPa) = 46.37428 76.79619 107.11218
#
# Poissons Ratio (x) = 0.17003 0.28693
# Poissons Ratio (y) = 0.10267 0.48953
# Poissons Ratio (z) = 0.12423 0.35098
#
# Static dielectric constant tensor:
#      x y z
#    x 3.504620 0.000000 0.000000 
#    y 0.000000 3.709950 0.000000 
#    z 0.000000 0.000000 4.055960 
# 
# 
# High freq. dielectric constant tensor:
#      x y z
#    x 1.777480 0.000000 0.000000 
#    y 0.000000 1.779760 0.000000 
#    z 0.000000 0.000000 1.812870 
# 
# From -- ./inp_files/27251.got.cif
#   From: 2010.03.12/outbox.cif.g09.slc.cpg/sg67_14_cif.got.tgz:27251.got - 2010.04.10 22:41:39.
