data_PCOD8279052
_publ_section_title
;
Structure prediction by ZEFSAII (Michael W. Deem and Ramdas Pophale) SiO2 
 PCOD8279052
Probable space group: C M M A
;
_chemical_formula_sum "Si O2"
_cell_formula_units_Z 96
_cell_length_a 14.985907
_cell_length_b 10.662897
_cell_length_c 27.649799
_cell_angle_alpha 90.000000
_cell_angle_beta 90.000000
_cell_angle_gamma 90.000000
_cell_volume 4418.249386
_symmetry_space_group_name_H-M "C M M A"
_symmetry_group_IT_number 67
_symmetry_cell_setting 'orthorhombic'
loop_
_space_group_symop_operation_xyz
x,y,z
-x,1/2-y,z
x,-y,-z
-x,1/2+y,-z
-x,-y,-z
x,1/2+y,-z
-x,y,z
x,1/2-y,z
1/2+x,1/2+y,z
1/2-x,-y,z
1/2+x,1/2-y,-z
1/2-x,y,-z
1/2-x,1/2-y,-z
1/2+x,y,-z
1/2-x,1/2+y,z
1/2+x,-y,z
loop_
_atom_site_type_symbol
_atom_site_label
_atom_site_fract_x
_atom_site_fract_y
_atom_site_fract_z
Si Si1 0.654796 0.614113 0.692464
Si Si2 0.347485 0.884665 0.357608
Si Si3 0.604126 0.390827 0.536049
Si Si4 0.102701 0.609154 0.202936
Si Si5 0.856968 0.750000 0.053243
Si Si6 0.853682 0.997248 0.104251
Si Si7 0.644425 0.250000 0.942888
O O1 0.607038 0.750000 0.685706
O O2 0.599159 0.501688 0.666466
O O3 0.751143 0.619439 0.667543
O O4 0.662318 0.583728 0.749526
O O5 0.395786 0.750000 0.348435
O O6 0.339324 0.906678 0.414959
O O7 0.637647 0.500000 0.500000
O O8 0.500000 0.409899 0.548328
O O9 0.620020 0.250000 0.514242
O O10 0.121231 0.750000 0.183299
O O11 0.128993 0.510145 0.161639
O O12 0.000000 0.592038 0.217917
O O13 0.897013 0.875495 0.078227
O O14 0.750901 0.750000 0.058927
O O15 0.888751 0.750000 0.997943
O O16 0.750000 0.000000 0.092463
O O17 0.895220 0.126467 0.083726
#
# Coordination Sequence:
#
# PCOD8279052 Si02
#       7
#    16  16  16  16   8  16   8
#     4   9  19  35  54  76 100 141 189 232 275 324
#     4   9  18  34  54  80 111 144 176 232 280 325
#     4   9  18  33  54  81 115 153 187 219 266 328
#     4  10  21  38  58  78 108 148 191 233 279 342
#     4   9  16  32  53  79 115 149 183 219 277 333
#     4  10  19  32  54  84 109 145 183 229 283 330
#     4   9  18  30  51  85 115 141 181 233 271 331
#
# _framework density 21.728064
#
# number of rings (size 3 to 8) (size 9 to 14) (size 15 to 20)
#    0.000    2.667    0.833    0.500    2.333    3.333 
#    1.500    2.083    0.000   12.000    0.000    0.000 
#    0.000    0.000    0.000    0.000    0.000    0.000 
#
# Total GULP energy -594692.482412 kJ/mol
# GULP energy per Si atom -12389.426717 kJ/mol
# Density = 2.167861 g / cm^3
# Si number density = 21.728064 Si / 1000 Ang^3
#
#
#
# Elastic Constant Matrix: (Units=GPa)
#
#
# Indices 1 2 3 4 5 6 
#
# 1 32.3548 4.4904 20.1026 0.0000 0.0000 0.0000
# 2 4.4904 238.1417 115.4485 0.0000 0.0000 0.0000
# 3 20.1026 115.4485 173.4153 0.0000 0.0000 0.0000
# 4 0.0000 0.0000 0.0000 45.2590 0.0000 0.0000
# 5 0.0000 0.0000 0.0000 0.0000 -5.7162 0.0000
# 6 0.0000 0.0000 0.0000 0.0000 0.0000 2.5340
#
#
#
# Elastic Compliance Matrix: (Units=1/GPa)
#
#
# Indices 1 2 3 4 5 6 
#
# 1 0.033859 0.001867 -0.005168 0.000000 0.000000 0.000000
# 2 0.001867 0.006303 -0.004413 0.000000 0.000000 0.000000
# 3 -0.005168 -0.004413 0.009303 0.000000 0.000000 0.000000
# 4 0.000000 0.000000 0.000000 0.022095 0.000000 0.000000
# 5 0.000000 0.000000 0.000000 0.000000 -0.174942 0.000000
# 6 0.000000 0.000000 0.000000 0.000000 0.000000 0.394630
#
#
# Mechanical properties :
#
#
# Convention : Reuss Voigt Hill
#
# Bulk Modulus (GPa) = 29.37869 80.44386 54.91127
# Shear Modulus (GPa) = 15.72216 28.67338 22.19777
#
# Velocity S-wave (km/s) = 2.69288 3.63664 3.19974
# Velocity P-wave (km/s) = 4.81863 7.39844 6.24324
#
# Compressibility (1/GPa) = 0.03403828
#
# Stress axis : x y z
#
# Youngs Moduli (GPa) = 29.53412 158.64984 107.48953
#
# Poissons Ratio (x) = -0.29618 0.55549
# Poissons Ratio (y) = -0.05514 0.47431
# Poissons Ratio (z) = 0.15263 0.70007
#
# Static dielectric constant tensor:
#      x y z
#    x 3.301300 0.000000 0.000000 
#    y 0.000000 5.546470 0.000000 
#    z 0.000000 0.000000 3.820320 
# 
# 
# High freq. dielectric constant tensor:
#      x y z
#    x 1.806830 0.000000 0.000000 
#    y 0.000000 1.876520 0.000000 
#    z 0.000000 0.000000 1.852320 
# 
# From -- ./inp_files/42174.got.cif
#   From: 2010.03.12/outbox.cif.g09.slc.cpg/sg67_22_cif.got.tgz:42174.got - 2010.04.10 22:41:39.
