data_PCOD8279281
_publ_section_title
;
Structure prediction by ZEFSAII (Michael W. Deem and Ramdas Pophale) SiO2 
 PCOD8279281
Probable space group: C M M A
;
_chemical_formula_sum "Si O2"
_cell_formula_units_Z 64
_cell_length_a 37.926673
_cell_length_b 10.072880
_cell_length_c 8.925892
_cell_angle_alpha 90.000000
_cell_angle_beta 90.000000
_cell_angle_gamma 90.000000
_cell_volume 3409.965893
_symmetry_space_group_name_H-M "C M M A"
_symmetry_group_IT_number 67
_symmetry_cell_setting 'orthorhombic'
loop_
_space_group_symop_operation_xyz
x,y,z
-x,1/2-y,z
x,-y,-z
-x,1/2+y,-z
-x,-y,-z
x,1/2+y,-z
-x,y,z
x,1/2-y,z
1/2+x,1/2+y,z
1/2-x,-y,z
1/2+x,1/2-y,-z
1/2-x,y,-z
1/2-x,1/2-y,-z
1/2+x,y,-z
1/2-x,1/2+y,z
1/2+x,-y,z
loop_
_atom_site_type_symbol
_atom_site_label
_atom_site_fract_x
_atom_site_fract_y
_atom_site_fract_z
Si Si1 0.714880 0.250000 0.173886
Si Si2 0.293627 0.250000 0.818378
Si Si3 0.100412 0.404522 0.641417
Si Si4 0.540414 0.099464 0.128892
Si Si5 0.167497 0.489753 0.822735
O O1 0.753912 0.250000 0.246384
O O2 0.695158 0.379987 0.231542
O O3 0.712961 0.250000 0.995053
O O4 0.316277 0.374029 0.760541
O O5 0.100891 0.500000 0.500000
O O6 0.106560 0.250000 0.596699
O O7 0.062902 0.422596 0.721704
O O8 0.129902 0.455526 0.755079
O O9 0.500000 0.069532 0.171934
O O10 0.545193 0.250000 0.068957
O O11 0.553608 0.000000 0.000000
O O12 0.162570 0.500000 0.000000
#
# Coordination Sequence:
#
# PCOD8279281 Si02
#       5
#     8   8  16  16  16
#     4   9  16  32  51  83 114 137 174 235 285 334
#     4   9  18  28  55  85 108 137 182 227 289 338
#     4  11  24  39  55  79 114 154 190 229 272 324
#     4   9  19  38  63  90 117 144 180 227 276 327
#     4  10  19  34  56  82 110 143 182 234 282 333
#
# _framework density 18.768516999999999
#
# number of rings (size 3 to 8) (size 9 to 14) (size 15 to 20)
#    0.000    2.250    1.250    1.500    1.750    4.500 
#    0.000    0.000    0.000    4.500    0.000    0.000 
#    0.000    0.000    0.000    0.000    0.000    0.000 
#
# Total GULP energy -396741.736411 kJ/mol
# GULP energy per Si atom -12398.179263 kJ/mol
# Density = 1.872580 g / cm^3
# Si number density = 18.768517 Si / 1000 Ang^3
#
#
#
# Elastic Constant Matrix: (Units=GPa)
#
#
# Indices 1 2 3 4 5 6 
#
# 1 110.6414 64.0626 37.7342 0.0000 0.0000 0.0000
# 2 64.0626 165.8087 50.1606 0.0000 0.0000 0.0000
# 3 37.7342 50.1606 58.2825 0.0000 0.0000 0.0000
# 4 0.0000 0.0000 0.0000 13.1964 0.0000 0.0000
# 5 0.0000 0.0000 0.0000 0.0000 6.1393 0.0000
# 6 0.0000 0.0000 0.0000 0.0000 0.0000 31.1541
#
#
#
# Elastic Compliance Matrix: (Units=1/GPa)
#
#
# Indices 1 2 3 4 5 6 
#
# 1 0.012808 -0.003299 -0.005453 0.000000 0.000000 0.000000
# 2 -0.003299 0.009004 -0.005613 0.000000 0.000000 0.000000
# 3 -0.005453 -0.005613 0.025519 0.000000 0.000000 0.000000
# 4 0.000000 0.000000 0.000000 0.075778 0.000000 0.000000
# 5 0.000000 0.000000 0.000000 0.000000 0.162884 0.000000
# 6 0.000000 0.000000 0.000000 0.000000 0.000000 0.032099
#
#
# Mechanical properties :
#
#
# Convention : Reuss Voigt Hill
#
# Bulk Modulus (GPa) = 53.76182 70.96082 62.36132
# Shear Modulus (GPa) = 14.16338 22.28298 18.22318
#
# Velocity S-wave (km/s) = 2.75004 3.44939 3.11938
# Velocity P-wave (km/s) = 6.22820 7.33177 6.80241
#
# Compressibility (1/GPa) = 0.01860056
#
# Stress axis : x y z
#
# Youngs Moduli (GPa) = 78.07532 111.06515 39.18581
#
# Poissons Ratio (x) = 0.36639 0.21369
# Poissons Ratio (y) = 0.25756 0.21996
# Poissons Ratio (z) = 0.42577 0.62343
#
# Static dielectric constant tensor:
#      x y z
#    x 3.620240 0.000000 0.000000 
#    y 0.000000 3.755620 0.000000 
#    z 0.000000 0.000000 3.067610 
# 
# 
# High freq. dielectric constant tensor:
#      x y z
#    x 1.745350 0.000000 0.000000 
#    y 0.000000 1.748090 0.000000 
#    z 0.000000 0.000000 1.684130 
# 
# From -- ./inp_files/6754.got.cif
#   From: 2010.03.12/outbox.cif.g09.slc.cpg/sg67_4_cif.got.tgz:6754.got - 2010.04.10 22:41:39.
