data_PCOD8279018
_publ_section_title
;
Structure prediction by ZEFSAII (Michael W. Deem and Ramdas Pophale) SiO2 
 PCOD8279018
Probable space group: C M M A
;
_chemical_formula_sum "Si O2"
_cell_formula_units_Z 104
_cell_length_a 29.877204
_cell_length_b 19.172989
_cell_length_c 9.702551
_cell_angle_alpha 90.000000
_cell_angle_beta 90.000000
_cell_angle_gamma 90.000000
_cell_volume 5557.963748
_symmetry_space_group_name_H-M "C M M A"
_symmetry_group_IT_number 67
_symmetry_cell_setting 'orthorhombic'
loop_
_space_group_symop_operation_xyz
x,y,z
-x,1/2-y,z
x,-y,-z
-x,1/2+y,-z
-x,-y,-z
x,1/2+y,-z
-x,y,z
x,1/2-y,z
1/2+x,1/2+y,z
1/2-x,-y,z
1/2+x,1/2-y,-z
1/2-x,y,-z
1/2-x,1/2-y,-z
1/2+x,y,-z
1/2-x,1/2+y,z
1/2+x,-y,z
loop_
_atom_site_type_symbol
_atom_site_label
_atom_site_fract_x
_atom_site_fract_y
_atom_site_fract_z
Si Si1 0.829097 0.000000 0.000000
Si Si2 0.879867 0.668390 0.587699
Si Si3 0.194747 0.326570 0.211667
Si Si4 0.270880 0.432538 0.238191
Si Si5 0.653301 0.668427 0.701336
Si Si6 0.874854 0.137374 0.005227
Si Si7 0.950578 0.168226 0.201484
O O1 0.862559 0.940632 0.946790
O O2 0.797879 0.032458 0.884520
O O3 0.882224 0.750000 0.614762
O O4 0.833249 0.643717 0.657517
O O5 0.880190 0.650641 0.425324
O O6 0.922590 0.635793 0.668614
O O7 0.216026 0.250000 0.242553
O O8 0.232404 0.383046 0.175401
O O9 0.161882 0.314703 0.081145
O O10 0.250000 0.500000 0.321305
O O11 0.303557 0.381537 0.323959
O O12 0.667685 0.750000 0.697080
O O13 0.627184 0.650647 0.841472
O O14 0.924824 0.153447 0.057855
O O15 0.956286 0.250000 0.220524
O O16 0.000000 0.133367 0.196931
#
# Coordination Sequence:
#
# PCOD8279018 Si02
#       7
#     8  16  16  16  16  16  16
#     4  10  21  34  49  72 108 150 169 222 266 315
#     4   8  17  34  51  74 107 139 167 211 272 322
#     4  10  19  32  53  74 100 139 186 225 260 306
#     4  11  21  33  49  72 105 143 183 223 259 300
#     4  10  20  33  52  75 106 143 179 216 262 315
#     4  10  19  33  54  77 106 136 178 216 269 309
#     4   9  17  33  59  85 104 128 170 221 266 318
#
# _framework density 18.711887999999998
#
# number of rings (size 3 to 8) (size 9 to 14) (size 15 to 20)
#    0.000    2.308    1.538    3.000    2.154    0.615 
#    0.000    7.308    0.000    2.769    0.000    4.308 
#    0.000    0.000    0.000    0.000    0.000    0.000 
#
# Total GULP energy -644219.298725 kJ/mol
# GULP energy per Si atom -12388.832668 kJ/mol
# Density = 1.866930 g / cm^3
# Si number density = 18.711888 Si / 1000 Ang^3
#
#
#
# Elastic Constant Matrix: (Units=GPa)
#
#
# Indices 1 2 3 4 5 6 
#
# 1 105.2361 46.6840 39.4909 0.0000 0.0000 0.0000
# 2 46.6840 97.2389 20.5545 0.0000 0.0000 0.0000
# 3 39.4909 20.5545 116.9509 0.0000 0.0000 0.0000
# 4 0.0000 0.0000 0.0000 10.4004 0.0000 0.0000
# 5 0.0000 0.0000 0.0000 0.0000 12.9370 0.0000
# 6 0.0000 0.0000 0.0000 0.0000 0.0000 17.7927
#
#
#
# Elastic Compliance Matrix: (Units=1/GPa)
#
#
# Indices 1 2 3 4 5 6 
#
# 1 0.013328 -0.005658 -0.003506 0.000000 0.000000 0.000000
# 2 -0.005658 0.013082 -0.000389 0.000000 0.000000 0.000000
# 3 -0.003506 -0.000389 0.009803 0.000000 0.000000 0.000000
# 4 0.000000 0.000000 0.000000 0.096150 0.000000 0.000000
# 5 0.000000 0.000000 0.000000 0.000000 0.077298 0.000000
# 6 0.000000 0.000000 0.000000 0.000000 0.000000 0.056203
#
#
# Mechanical properties :
#
#
# Convention : Reuss Voigt Hill
#
# Bulk Modulus (GPa) = 58.45214 59.20942 58.83078
# Shear Modulus (GPa) = 17.20153 22.40578 19.80365
#
# Velocity S-wave (km/s) = 3.03526 3.46411 3.25675
# Velocity P-wave (km/s) = 6.60224 6.90735 6.75651
#
# Compressibility (1/GPa) = 0.01710801
#
# Stress axis : x y z
#
# Youngs Moduli (GPa) = 75.03055 76.43910 102.01105
#
# Poissons Ratio (x) = 0.43246 0.35766
# Poissons Ratio (y) = 0.42449 0.03967
# Poissons Ratio (z) = 0.26307 0.02973
#
# Static dielectric constant tensor:
#      x y z
#    x 3.533020 0.000000 0.000000 
#    y 0.000000 3.808950 0.000000 
#    z 0.000000 0.000000 3.317890 
# 
# 
# High freq. dielectric constant tensor:
#      x y z
#    x 1.703200 0.000000 0.000000 
#    y 0.000000 1.719930 0.000000 
#    z 0.000000 0.000000 1.711770 
# 
# From -- ./inp_files/14728.got.cif
#   From: 2010.03.12/outbox.cif.g09.slc.cpg/sg67_8_cif.got.tgz:14728.got - 2010.04.10 22:41:39.
