data_PCOD8279753
_publ_section_title
;
Structure prediction by ZEFSAII (Michael W. Deem and Ramdas Pophale) SiO2 
 PCOD8279753
Probable space group: C M M A
;
_chemical_formula_sum "Si O2"
_cell_formula_units_Z 104
_cell_length_a 27.773717
_cell_length_b 19.346893
_cell_length_c 10.522292
_cell_angle_alpha 90.000000
_cell_angle_beta 90.000000
_cell_angle_gamma 90.000000
_cell_volume 5653.997150
_symmetry_space_group_name_H-M "C M M A"
_symmetry_group_IT_number 67
_symmetry_cell_setting 'orthorhombic'
loop_
_space_group_symop_operation_xyz
x,y,z
-x,1/2-y,z
x,-y,-z
-x,1/2+y,-z
-x,-y,-z
x,1/2+y,-z
-x,y,z
x,1/2-y,z
1/2+x,1/2+y,z
1/2-x,-y,z
1/2+x,1/2-y,-z
1/2-x,y,-z
1/2-x,1/2-y,-z
1/2+x,y,-z
1/2-x,1/2+y,z
1/2+x,-y,z
loop_
_atom_site_type_symbol
_atom_site_label
_atom_site_fract_x
_atom_site_fract_y
_atom_site_fract_z
Si Si1 0.124631 0.825412 0.411765
Si Si2 0.838316 0.826495 0.143621
Si Si3 0.293788 0.953413 0.212853
Si Si4 0.113682 0.033473 0.865696
Si Si5 0.556658 0.048934 0.382334
Si Si6 0.208367 0.828577 0.597648
Si Si7 0.250000 0.876887 0.000000
O O1 0.100211 0.750000 0.407141
O O2 0.162646 0.833528 0.295940
O O3 0.081020 0.878061 0.408903
O O4 0.155872 0.834185 0.536751
O O5 0.857512 0.750000 0.102139
O O6 0.874223 0.886888 0.096083
O O7 0.783187 0.832374 0.094995
O O8 0.295777 0.883029 0.290630
O O9 0.250000 0.000000 0.265129
O O10 0.341524 0.999152 0.208639
O O11 0.286299 0.928359 0.069795
O O12 0.071742 0.024330 0.760009
O O13 0.098183 0.000000 0.000000
O O14 0.500000 0.058837 0.382638
O O15 0.572679 0.000000 0.500000
O O16 0.217457 0.750000 0.648047
O O17 0.250000 0.850215 0.500000
#
# Coordination Sequence:
#
# PCOD8279753 Si02
#       7
#    16  16  16  16  16  16   8
#     4   9  19  38  58  80 111 144 182 232 283 334
#     4  10  20  33  53  77 106 148 188 226 272 329
#     4  12  22  35  51  77 111 152 197 230 274 334
#     4  11  21  39  58  80 118 149 183 241 291 339
#     4  10  22  39  62  89 111 141 189 238 288 348
#     4  10  22  37  52  77 113 152 192 234 278 333
#     4  12  20  34  50  72 108 150 192 228 260 324
#
# _framework density 18.394068000000001
#
# number of rings (size 3 to 8) (size 9 to 14) (size 15 to 20)
#    0.000    1.538    3.077    2.308    2.154    3.385 
#    0.000    0.000    0.000    0.000    0.000    0.000 
#    0.000    0.000    0.000    0.000    0.000    0.000 
#
# Total GULP energy -644415.720091 kJ/mol
# GULP energy per Si atom -12392.610002 kJ/mol
# Density = 1.835220 g / cm^3
# Si number density = 18.394068 Si / 1000 Ang^3
#
#
#
# Elastic Constant Matrix: (Units=GPa)
#
#
# Indices 1 2 3 4 5 6 
#
# 1 80.2193 44.3800 38.0240 0.0000 0.0000 0.0000
# 2 44.3800 135.3821 60.9503 0.0000 0.0000 0.0000
# 3 38.0240 60.9503 92.7125 0.0000 0.0000 0.0000
# 4 0.0000 0.0000 0.0000 20.9847 0.0000 0.0000
# 5 0.0000 0.0000 0.0000 0.0000 26.6600 0.0000
# 6 0.0000 0.0000 0.0000 0.0000 0.0000 21.3831
#
#
#
# Elastic Compliance Matrix: (Units=1/GPa)
#
#
# Indices 1 2 3 4 5 6 
#
# 1 0.016479 -0.003351 -0.004555 0.000000 0.000000 0.000000
# 2 -0.003351 0.011173 -0.005971 0.000000 0.000000 0.000000
# 3 -0.004555 -0.005971 0.016580 0.000000 0.000000 0.000000
# 4 0.000000 0.000000 0.000000 0.047654 0.000000 0.000000
# 5 0.000000 0.000000 0.000000 0.000000 0.037509 0.000000
# 6 0.000000 0.000000 0.000000 0.000000 0.000000 0.046766
#
#
# Mechanical properties :
#
#
# Convention : Reuss Voigt Hill
#
# Bulk Modulus (GPa) = 60.69121 66.11364 63.40242
# Shear Modulus (GPa) = 23.87673 24.80285 24.33979
#
# Velocity S-wave (km/s) = 3.60678 3.67606 3.64158
# Velocity P-wave (km/s) = 7.10012 7.35111 7.22671
#
# Compressibility (1/GPa) = 0.01647685
#
# Stress axis : x y z
#
# Youngs Moduli (GPa) = 60.68299 89.49930 60.31435
#
# Poissons Ratio (x) = 0.29993 0.27476
# Poissons Ratio (y) = 0.20336 0.36014
# Poissons Ratio (z) = 0.27644 0.53440
#
# Static dielectric constant tensor:
#      x y z
#    x 3.058900 0.000000 0.000000 
#    y 0.000000 3.683440 0.000000 
#    z 0.000000 0.000000 3.426700 
# 
# 
# High freq. dielectric constant tensor:
#      x y z
#    x 1.680960 0.000000 0.000000 
#    y 0.000000 1.731090 0.000000 
#    z 0.000000 0.000000 1.714680 
# 
# From -- ./inp_files/22986.got.cif
#   From: 2010.03.12/outbox.cif.g09.slc.cpg/sg67_12_cif.got.tgz:22986.got - 2010.04.10 22:41:39.
