data_PCOD8279980
_publ_section_title
;
Structure prediction by ZEFSAII (Michael W. Deem and Ramdas Pophale) SiO2 
 PCOD8279980
Probable space group: C M M A
;
_chemical_formula_sum "Si O2"
_cell_formula_units_Z 96
_cell_length_a 23.673784
_cell_length_b 8.733303
_cell_length_c 25.346241
_cell_angle_alpha 90.000000
_cell_angle_beta 90.000000
_cell_angle_gamma 90.000000
_cell_volume 5240.343661
_symmetry_space_group_name_H-M "C M M A"
_symmetry_group_IT_number 67
_symmetry_cell_setting 'orthorhombic'
loop_
_space_group_symop_operation_xyz
x,y,z
-x,1/2-y,z
x,-y,-z
-x,1/2+y,-z
-x,-y,-z
x,1/2+y,-z
-x,y,z
x,1/2-y,z
1/2+x,1/2+y,z
1/2-x,-y,z
1/2+x,1/2-y,-z
1/2-x,y,-z
1/2-x,1/2-y,-z
1/2+x,y,-z
1/2-x,1/2+y,z
1/2+x,-y,z
loop_
_atom_site_type_symbol
_atom_site_label
_atom_site_fract_x
_atom_site_fract_y
_atom_site_fract_z
Si Si1 0.000000 0.072989 0.689304
Si Si2 0.602821 0.925965 0.836429
Si Si3 0.885420 0.430472 0.346473
Si Si4 0.689077 0.570809 0.744961
Si Si5 0.436226 0.425603 0.052960
Si Si6 0.500000 0.577298 0.207841
Si Si7 0.435291 0.071915 0.442879
O O1 0.000000 0.250000 0.669265
O O2 0.053992 0.977547 0.673720
O O3 0.000000 0.065248 0.751879
O O4 0.583965 0.750000 0.825158
O O5 0.656356 0.966179 0.799569
O O6 0.609738 0.949295 0.899579
O O7 0.555952 0.053019 0.825385
O O8 0.876426 0.250000 0.348018
O O9 0.838897 0.501479 0.307809
O O10 0.886396 0.497110 0.406232
O O11 0.693593 0.750000 0.735012
O O12 0.750000 0.500000 0.752427
O O13 0.500000 0.488469 0.066805
O O14 0.442344 0.250000 0.039879
O O15 0.411287 0.500000 0.000000
O O16 0.500000 0.750000 0.231634
O O17 0.500000 0.044987 0.420650
O O18 0.422449 0.250000 0.447279
O O19 0.430014 0.000000 0.500000
#
# Coordination Sequence:
#
# PCOD8279980 Si02
#       7
#     8  16  16  16  16   8  16
#     4  12  22  34  51  78 115 152 184 221 282 341
#     4  10  20  36  56  76 109 151 184 221 281 342
#     4  12  23  36  57  85 116 149 190 234 279 337
#     4  11  24  41  61  81 108 146 189 238 289 339
#     4   9  17  30  49  76 110 147 182 219 268 331
#     4  12  22  30  49  82 113 142 181 225 274 333
#     4  10  20  34  54  82 120 159 192 228 277 332
#
# _framework density 18.319407999999999
#
# number of rings (size 3 to 8) (size 9 to 14) (size 15 to 20)
#    0.000    1.333    3.333    4.000    0.000    2.000 
#    0.000    0.000    0.000    1.000    0.000    7.000 
#    0.000    0.000    0.000    0.000    0.000    0.000 
#
# Total GULP energy -594637.752901 kJ/mol
# GULP energy per Si atom -12388.286519 kJ/mol
# Density = 1.827771 g / cm^3
# Si number density = 18.319408 Si / 1000 Ang^3
#
#
#
# Elastic Constant Matrix: (Units=GPa)
#
#
# Indices 1 2 3 4 5 6 
#
# 1 98.8970 50.7494 57.8133 0.0000 0.0000 0.0000
# 2 50.7494 114.3730 61.1145 0.0000 0.0000 0.0000
# 3 57.8133 61.1145 132.1327 0.0000 0.0000 0.0000
# 4 0.0000 0.0000 0.0000 33.1344 0.0000 0.0000
# 5 0.0000 0.0000 0.0000 0.0000 15.4656 0.0000
# 6 0.0000 0.0000 0.0000 0.0000 0.0000 24.8920
#
#
#
# Elastic Compliance Matrix: (Units=1/GPa)
#
#
# Indices 1 2 3 4 5 6 
#
# 1 0.014946 -0.004168 -0.004612 0.000000 0.000000 0.000000
# 2 -0.004168 0.012776 -0.004086 0.000000 0.000000 0.000000
# 3 -0.004612 -0.004086 0.011476 0.000000 0.000000 0.000000
# 4 0.000000 0.000000 0.000000 0.030180 0.000000 0.000000
# 5 0.000000 0.000000 0.000000 0.000000 0.064659 0.000000
# 6 0.000000 0.000000 0.000000 0.000000 0.000000 0.040173
#
#
# Mechanical properties :
#
#
# Convention : Reuss Voigt Hill
#
# Bulk Modulus (GPa) = 74.25327 76.08413 75.16870
# Shear Modulus (GPa) = 24.45826 26.41345 25.43585
#
# Velocity S-wave (km/s) = 3.65787 3.80126 3.73025
# Velocity P-wave (km/s) = 7.64595 7.80309 7.72492
#
# Compressibility (1/GPa) = 0.01346742
#
# Stress axis : x y z
#
# Youngs Moduli (GPa) = 66.90670 78.27409 87.14030
#
# Poissons Ratio (x) = 0.32621 0.40189
# Poissons Ratio (y) = 0.27884 0.35602
# Poissons Ratio (z) = 0.30857 0.31979
#
# Static dielectric constant tensor:
#      x y z
#    x 3.015870 0.000000 0.000000 
#    y 0.000000 3.446980 0.000000 
#    z 0.000000 0.000000 3.787580 
# 
# 
# High freq. dielectric constant tensor:
#      x y z
#    x 1.659240 0.000000 0.000000 
#    y 0.000000 1.720890 0.000000 
#    z 0.000000 0.000000 1.728250 
# 
# From -- ./inp_files/42598.got.cif
#   From: 2010.03.12/outbox.cif.g09.slc.cpg/sg67_22_cif.got.tgz:42598.got - 2010.04.10 22:41:39.
