data_PCOD8279132
_publ_section_title
;
Structure prediction by ZEFSAII (Michael W. Deem and Ramdas Pophale) SiO2 
 PCOD8279132
Probable space group: C M M A
;
_chemical_formula_sum "Si O2"
_cell_formula_units_Z 96
_cell_length_a 8.863918
_cell_length_b 25.704845
_cell_length_c 23.324702
_cell_angle_alpha 90.000000
_cell_angle_beta 90.000000
_cell_angle_gamma 90.000000
_cell_volume 5314.431615
_symmetry_space_group_name_H-M "C M M A"
_symmetry_group_IT_number 67
_symmetry_cell_setting 'orthorhombic'
loop_
_space_group_symop_operation_xyz
x,y,z
-x,1/2-y,z
x,-y,-z
-x,1/2+y,-z
-x,-y,-z
x,1/2+y,-z
-x,y,z
x,1/2-y,z
1/2+x,1/2+y,z
1/2-x,-y,z
1/2+x,1/2-y,-z
1/2-x,y,-z
1/2-x,1/2-y,-z
1/2+x,y,-z
1/2-x,1/2+y,z
1/2+x,-y,z
loop_
_atom_site_type_symbol
_atom_site_label
_atom_site_fract_x
_atom_site_fract_y
_atom_site_fract_z
Si Si1 0.821755 0.349960 0.561149
Si Si2 0.824987 0.250000 0.635437
Si Si3 0.823015 0.946802 0.757389
Si Si4 0.321167 0.445604 0.626286
Si Si5 0.322468 0.690154 0.940661
Si Si6 0.179155 0.848262 0.829104
Si Si7 0.178231 0.250000 0.242214
O O1 0.750000 0.338684 0.500000
O O2 0.779324 0.300981 0.600256
O O3 0.749133 0.401295 0.587343
O O4 0.000000 0.357538 0.555247
O O5 0.732634 0.250000 0.693351
O O6 0.000000 0.250000 0.650885
O O7 0.775274 0.934312 0.692128
O O8 0.765711 0.900654 0.798080
O O9 0.000000 0.953527 0.761652
O O10 0.750000 0.000000 0.779547
O O11 0.500000 0.447328 0.617735
O O12 0.250000 0.500000 0.606043
O O13 0.500000 0.682651 0.944487
O O14 0.277532 0.750000 0.928289
O O15 0.255731 0.653910 0.891068
O O16 0.250000 0.671254 0.000000
O O17 0.239227 0.800649 0.790647
O O18 0.000000 0.846232 0.836493
O O19 0.000000 0.250000 0.243313
#
# Coordination Sequence:
#
# PCOD8279132 Si02
#       7
#    16   8  16  16  16  16   8
#     4  11  23  39  57  79 105 139 179 221 268 319
#     4  10  23  39  55  77 109 142 177 220 266 318
#     4   9  19  34  54  79 107 141 178 215 261 314
#     4  10  20  37  59  83 110 139 175 220 270 323
#     4  10  20  33  51  76 108 145 182 219 263 312
#     4  10  19  33  53  79 110 142 178 218 261 313
#     4  10  20  33  54  81 109 140 174 216 267 318
#
# _framework density 18.064019999999999
#
# number of rings (size 3 to 8) (size 9 to 14) (size 15 to 20)
#    0.000    2.000    0.833    2.750    0.000    5.667 
#    0.000    1.667    0.000    0.500    0.000    3.500 
#    0.000    0.000    0.000    0.000    0.000    0.000 
#
# Total GULP energy -595403.764520 kJ/mol
# GULP energy per Si atom -12404.245094 kJ/mol
# Density = 1.802291 g / cm^3
# Si number density = 18.064020 Si / 1000 Ang^3
#
#
#
# Elastic Constant Matrix: (Units=GPa)
#
#
# Indices 1 2 3 4 5 6 
#
# 1 52.9796 32.4966 35.1373 0.0000 0.0000 0.0000
# 2 32.4966 109.9392 53.6018 0.0000 0.0000 0.0000
# 3 35.1373 53.6018 113.1995 0.0000 0.0000 0.0000
# 4 0.0000 0.0000 0.0000 -182.2457 0.0000 0.0000
# 5 0.0000 0.0000 0.0000 0.0000 35.0721 0.0000
# 6 0.0000 0.0000 0.0000 0.0000 0.0000 27.5985
#
#
#
# Elastic Compliance Matrix: (Units=1/GPa)
#
#
# Indices 1 2 3 4 5 6 
#
# 1 0.025576 -0.004797 -0.005668 0.000000 0.000000 0.000000
# 2 -0.004797 0.012726 -0.004537 0.000000 0.000000 0.000000
# 3 -0.005668 -0.004537 0.012742 0.000000 0.000000 0.000000
# 4 0.000000 0.000000 0.000000 -0.005487 0.000000 0.000000
# 5 0.000000 0.000000 0.000000 0.000000 0.028513 0.000000
# 6 0.000000 0.000000 0.000000 0.000000 0.000000 0.036234
#
#
# Mechanical properties :
#
#
# Convention : Reuss Voigt Hill
#
# Bulk Modulus (GPa) = 47.52614 57.62105 52.57359
# Shear Modulus (GPa) = 33.93989 -13.58951 10.17519
#
# Velocity S-wave (km/s) = 4.33929 -2.74578 2.37594
# Velocity P-wave (km/s) = 7.17446 4.68136 6.05756
#
# Compressibility (1/GPa) = 0.02104105
#
# Stress axis : x y z
#
# Youngs Moduli (GPa) = 39.09872 78.58037 78.48359
#
# Poissons Ratio (x) = 0.37693 0.44481
# Poissons Ratio (y) = 0.18755 0.35608
# Poissons Ratio (z) = 0.22160 0.35652
#
# Static dielectric constant tensor:
#      x y z
#    x 3.304340 0.000000 0.000000 
#    y 0.000000 3.428060 0.000000 
#    z 0.000000 0.000000 3.364300 
# 
# 
# High freq. dielectric constant tensor:
#      x y z
#    x 1.702730 0.000000 0.000000 
#    y 0.000000 1.697770 0.000000 
#    z 0.000000 0.000000 1.702250 
# 
# From -- ./inp_files/40821.got.cif
#   From: 2010.03.12/outbox.cif.g09.slc.cpg/sg67_21_cif.got.tgz:40821.got - 2010.04.10 22:41:39.
