data_PCOD8279854
_publ_section_title
;
Structure prediction by ZEFSAII (Michael W. Deem and Ramdas Pophale) SiO2 
 PCOD8279854
Probable space group: C M M A
;
_chemical_formula_sum "Si O2"
_cell_formula_units_Z 72
_cell_length_a 9.603146
_cell_length_b 14.506029
_cell_length_c 28.849984
_cell_angle_alpha 90.000000
_cell_angle_beta 90.000000
_cell_angle_gamma 90.000000
_cell_volume 4018.904161
_symmetry_space_group_name_H-M "C M M A"
_symmetry_group_IT_number 67
_symmetry_cell_setting 'orthorhombic'
loop_
_space_group_symop_operation_xyz
x,y,z
-x,1/2-y,z
x,-y,-z
-x,1/2+y,-z
-x,-y,-z
x,1/2+y,-z
-x,y,z
x,1/2-y,z
1/2+x,1/2+y,z
1/2-x,-y,z
1/2+x,1/2-y,-z
1/2-x,y,-z
1/2-x,1/2-y,-z
1/2+x,y,-z
1/2-x,1/2+y,z
1/2+x,-y,z
loop_
_atom_site_type_symbol
_atom_site_label
_atom_site_fract_x
_atom_site_fract_y
_atom_site_fract_z
Si Si1 0.154837 0.640771 0.959265
Si Si2 0.834357 0.250000 0.311184
Si Si3 0.335404 0.250000 0.792308
Si Si4 0.834949 0.086870 0.142555
Si Si5 0.839902 0.750000 0.545701
Si Si6 0.836570 0.905501 0.619339
O O1 0.152493 0.750000 0.962196
O O2 0.214388 0.612651 0.909262
O O3 0.000000 0.601035 0.966242
O O4 0.250000 0.598378 0.000000
O O5 0.770817 0.250000 0.259320
O O6 0.785808 0.156102 0.336794
O O7 0.000000 0.250000 0.311811
O O8 0.500000 0.250000 0.788399
O O9 0.284664 0.337316 0.821142
O O10 0.000000 0.070884 0.144190
O O11 0.750000 0.000000 0.159748
O O12 0.750000 0.750000 0.500000
O O13 0.806535 0.842924 0.574315
O O14 0.000000 0.750000 0.530891
O O15 0.000000 0.930113 0.622976
O O16 0.750000 0.000000 0.617047
#
# Coordination Sequence:
#
# PCOD8279854 Si02
#       6
#    16   8   8  16   8  16
#     4   9  17  31  50  70  93 124 160 195 234 285
#     4   8  16  32  54  75  97 131 170 204 247 303
#     4   9  17  34  56  73  97 134 166 196 244 305
#     4  10  20  34  52  74  99 127 161 199 241 292
#     4   9  19  34  50  72 106 143 178 212 250 298
#     4   9  18  33  52  76 104 134 171 214 254 296
#
# _framework density 17.915330999999998
#
# number of rings (size 3 to 8) (size 9 to 14) (size 15 to 20)
#    0.000    2.889    1.111    1.333    0.000    3.556 
#    0.000    6.667    0.000    1.333    0.000    0.000 
#    0.000    0.000    0.000    0.000    0.000    0.000 
#
# Total GULP energy -446228.379447 kJ/mol
# GULP energy per Si atom -12395.232762 kJ/mol
# Density = 1.787455 g / cm^3
# Si number density = 17.915331 Si / 1000 Ang^3
#
#
#
# Elastic Constant Matrix: (Units=GPa)
#
#
# Indices 1 2 3 4 5 6 
#
# 1 52.1341 55.9321 55.8481 0.0000 0.0000 0.0000
# 2 55.9321 132.6487 79.3417 0.0000 0.0000 0.0000
# 3 55.8481 79.3417 170.5115 0.0000 0.0000 0.0000
# 4 0.0000 0.0000 0.0000 30.3016 0.0000 0.0000
# 5 0.0000 0.0000 0.0000 0.0000 19.2318 0.0000
# 6 0.0000 0.0000 0.0000 0.0000 0.0000 33.7142
#
#
#
# Elastic Compliance Matrix: (Units=1/GPa)
#
#
# Indices 1 2 3 4 5 6 
#
# 1 0.040858 -0.012781 -0.007435 0.000000 0.000000 0.000000
# 2 -0.012781 0.014444 -0.002535 0.000000 0.000000 0.000000
# 3 -0.007435 -0.002535 0.009480 0.000000 0.000000 0.000000
# 4 0.000000 0.000000 0.000000 0.033002 0.000000 0.000000
# 5 0.000000 0.000000 0.000000 0.000000 0.051997 0.000000
# 6 0.000000 0.000000 0.000000 0.000000 0.000000 0.029661
#
#
# Mechanical properties :
#
#
# Convention : Reuss Voigt Hill
#
# Bulk Modulus (GPa) = 51.86791 81.94867 66.90829
# Shear Modulus (GPa) = 21.61041 27.59434 24.60237
#
# Velocity S-wave (km/s) = 3.47688 3.92888 3.70977
# Velocity P-wave (km/s) = 6.71810 8.15003 7.46846
#
# Compressibility (1/GPa) = 0.01927974
#
# Stress axis : x y z
#
# Youngs Moduli (GPa) = 24.47498 69.23296 105.49042
#
# Poissons Ratio (x) = 0.88485 0.78435
# Poissons Ratio (y) = 0.31281 0.26741
# Poissons Ratio (z) = 0.18198 0.17550
#
# Static dielectric constant tensor:
#      x y z
#    x 3.111620 0.000000 0.000000 
#    y 0.000000 3.267930 0.000000 
#    z 0.000000 0.000000 3.546470 
# 
# 
# High freq. dielectric constant tensor:
#      x y z
#    x 1.664320 0.000000 0.000000 
#    y 0.000000 1.696980 0.000000 
#    z 0.000000 0.000000 1.698070 
# 
# From -- ./inp_files/45167.got.cif
#   From: 2010.03.12/outbox.cif.g09.slc.cpg/sg67_23_cif.got.tgz:45167.got - 2010.04.10 22:41:39.
