data_PCOD8279501
_publ_section_title
;
Structure prediction by ZEFSAII (Michael W. Deem and Ramdas Pophale) SiO2 
 PCOD8279501
Probable space group: C M M A
;
_chemical_formula_sum "Si O2"
_cell_formula_units_Z 68
_cell_length_a 9.066320
_cell_length_b 20.663547
_cell_length_c 20.751237
_cell_angle_alpha 90.000000
_cell_angle_beta 90.000000
_cell_angle_gamma 90.000000
_cell_volume 3887.585078
_symmetry_space_group_name_H-M "C M M A"
_symmetry_group_IT_number 67
_symmetry_cell_setting 'orthorhombic'
loop_
_space_group_symop_operation_xyz
x,y,z
-x,1/2-y,z
x,-y,-z
-x,1/2+y,-z
-x,-y,-z
x,1/2+y,-z
-x,y,z
x,1/2-y,z
1/2+x,1/2+y,z
1/2-x,-y,z
1/2+x,1/2-y,-z
1/2-x,y,-z
1/2-x,1/2-y,-z
1/2+x,y,-z
1/2-x,1/2+y,z
1/2+x,-y,z
loop_
_atom_site_type_symbol
_atom_site_label
_atom_site_fract_x
_atom_site_fract_y
_atom_site_fract_z
Si Si1 0.835666 0.123999 0.560112
Si Si2 0.250000 0.000000 0.500000
Si Si3 0.833153 0.827184 0.936753
Si Si4 0.827816 0.174308 0.317675
Si Si5 0.666467 0.673045 0.811031
O O1 0.750000 0.158180 0.500000
O O2 0.744453 0.134905 0.624603
O O3 0.000000 0.153252 0.566763
O O4 0.847959 0.046745 0.545925
O O5 0.833358 0.750000 0.936215
O O6 0.748942 0.854444 0.874036
O O7 0.000000 0.853705 0.936716
O O8 0.750000 0.853419 0.000000
O O9 0.798012 0.250000 0.328505
O O10 0.753964 0.149378 0.251866
O O11 0.000000 0.158495 0.314483
O O12 0.500000 0.645748 0.809124
O O13 0.664758 0.750000 0.813746
#
# Coordination Sequence:
#
# PCOD8279501 Si02
#       5
#    16   4  16  16  16
#     4  10  20  34  53  71  90 115 146 183 224 269
#     4   8  22  36  56  72  90 112 144 182 226 272
#     4   9  15  22  33  50  73 104 144 185 221 257
#     4  10  20  32  46  66  92 121 152 185 224 269
#     4   9  16  26  39  55  79 111 146 183 222 263
#
# _framework density 17.491578000000001
#
# number of rings (size 3 to 8) (size 9 to 14) (size 15 to 20)
#    0.706    1.882    0.000    3.176    0.000    7.529 
#    0.000    0.000    0.000    0.000    0.000    0.000 
#    0.000    0.000    0.000    1.059    0.000   16.235 
#
# Total GULP energy -421415.781723 kJ/mol
# GULP energy per Si atom -12394.581815 kJ/mol
# Density = 1.745177 g / cm^3
# Si number density = 17.491578 Si / 1000 Ang^3
#
#
#
# Elastic Constant Matrix: (Units=GPa)
#
#
# Indices 1 2 3 4 5 6 
#
# 1 175.5065 18.9494 95.7780 0.0000 0.0000 0.0000
# 2 18.9494 20.7739 24.8741 0.0000 0.0000 0.0000
# 3 95.7780 24.8741 189.3119 0.0000 0.0000 0.0000
# 4 0.0000 0.0000 0.0000 -0.8466 0.0000 0.0000
# 5 0.0000 0.0000 0.0000 0.0000 40.7890 0.0000
# 6 0.0000 0.0000 0.0000 0.0000 0.0000 9.9651
#
#
#
# Elastic Compliance Matrix: (Units=1/GPa)
#
#
# Indices 1 2 3 4 5 6 
#
# 1 0.008017 -0.002915 -0.003673 0.000000 0.000000 0.000000
# 2 -0.002915 0.058184 -0.006170 0.000000 0.000000 0.000000
# 3 -0.003673 -0.006170 0.007951 0.000000 0.000000 0.000000
# 4 0.000000 0.000000 0.000000 -1.181142 0.000000 0.000000
# 5 0.000000 0.000000 0.000000 0.000000 0.024516 0.000000
# 6 0.000000 0.000000 0.000000 0.000000 0.000000 0.100351
#
#
# Mechanical properties :
#
#
# Convention : Reuss Voigt Hill
#
# Bulk Modulus (GPa) = 20.56078 73.86617 47.21347
# Shear Modulus (GPa) = -5.31692 26.38087 10.53197
#
# Velocity S-wave (km/s) = -1.74537 3.88777 2.45647
# Velocity P-wave (km/s) = 2.77821 7.90407 5.92422
#
# Compressibility (1/GPa) = 0.04863629
#
# Stress axis : x y z
#
# Youngs Moduli (GPa) = 124.73561 17.18675 125.76588
#
# Poissons Ratio (x) = 0.05010 0.46194
# Poissons Ratio (y) = 0.36359 0.77601
# Poissons Ratio (z) = 0.45815 0.10605
#
# Static dielectric constant tensor:
#      x y z
#    x 3.432570 0.000000 0.000000 
#    y 0.000000 2.511060 0.000000 
#    z 0.000000 0.000000 3.392230 
# 
# 
# High freq. dielectric constant tensor:
#      x y z
#    x 1.696840 0.000000 0.000000 
#    y 0.000000 1.588130 0.000000 
#    z 0.000000 0.000000 1.691080 
# 
# From -- ./inp_files/32254.got.cif
#   From: 2010.03.12/outbox.cif.g09.slc.cpg/sg67_17_cif.got.tgz:32254.got - 2010.04.10 22:41:39.
