data_PCOD8279594
_publ_section_title
;
Structure prediction by ZEFSAII (Michael W. Deem and Ramdas Pophale) SiO2 
 PCOD8279594
Probable space group: C M M A
;
_chemical_formula_sum "Si O2"
_cell_formula_units_Z 104
_cell_length_a 21.891596
_cell_length_b 8.991705
_cell_length_c 27.162036
_cell_angle_alpha 90.000000
_cell_angle_beta 90.000000
_cell_angle_gamma 90.000000
_cell_volume 5346.650492
_symmetry_space_group_name_H-M "C M M A"
_symmetry_group_IT_number 67
_symmetry_cell_setting 'orthorhombic'
loop_
_space_group_symop_operation_xyz
x,y,z
-x,1/2-y,z
x,-y,-z
-x,1/2+y,-z
-x,-y,-z
x,1/2+y,-z
-x,y,z
x,1/2-y,z
1/2+x,1/2+y,z
1/2-x,-y,z
1/2+x,1/2-y,-z
1/2-x,y,-z
1/2-x,1/2-y,-z
1/2+x,y,-z
1/2-x,1/2+y,z
1/2+x,-y,z
loop_
_atom_site_type_symbol
_atom_site_label
_atom_site_fract_x
_atom_site_fract_y
_atom_site_fract_z
Si Si1 0.069091 0.920628 0.221266
Si Si2 0.142344 0.416140 0.142391
Si Si3 0.750000 0.000000 0.208526
Si Si4 0.816004 0.072277 0.950866
Si Si5 0.331008 0.088010 0.293224
Si Si6 0.189217 0.075362 0.390063
Si Si7 0.068679 0.425117 0.447827
O O1 0.081491 0.750000 0.205795
O O2 0.103085 0.959149 0.272356
O O3 0.000000 0.953896 0.233691
O O4 0.088305 0.026605 0.176822
O O5 0.127632 0.250000 0.123825
O O6 0.205309 0.408139 0.173101
O O7 0.143922 0.527537 0.096111
O O8 0.711802 0.105424 0.245025
O O9 0.811268 0.250000 0.955647
O O10 0.750000 0.000000 0.943237
O O11 0.845707 0.000000 0.000000
O O12 0.332500 0.250000 0.319435
O O13 0.310211 0.964400 0.332156
O O14 0.196569 0.250000 0.396528
O O15 0.124460 0.019247 0.412898
O O16 0.250000 0.000000 0.414537
O O17 0.079376 0.500000 0.500000
O O18 0.073461 0.250000 0.455098
O O19 0.000000 0.466599 0.427495
#
# Coordination Sequence:
#
# PCOD8279594 Si02
#       7
#    16  16   8  16  16  16  16
#     4   9  20  38  56  77 108 145 186 232 278 326
#     4  11  21  33  54  81 109 142 182 226 274 328
#     4  10  20  32  53  76 111 140 182 222 272 318
#     4  11  21  34  52  77 111 144 178 221 274 333
#     4  10  20  34  54  79 109 146 186 226 271 325
#     4  11  23  37  56  84 119 153 188 234 287 343
#     4   9  20  40  63  86 112 146 190 238 287 340
#
# _framework density 19.451430999999999
#
# number of rings (size 3 to 8) (size 9 to 14) (size 15 to 20)
#    0.000    1.846    1.538    3.231    0.000    6.154 
#    0.000    1.538    0.000    0.462    0.000    0.000 
#    0.000    0.000    0.000    0.000    0.000    0.000 
#
# Total GULP energy -644497.853042 kJ/mol
# GULP energy per Si atom -12394.189482 kJ/mol
# Density = 1.940716 g / cm^3
# Si number density = 19.451431 Si / 1000 Ang^3
#
#
#
# Elastic Constant Matrix: (Units=GPa)
#
#
# Indices 1 2 3 4 5 6 
#
# 1 133.5303 33.5342 43.0621 0.0000 0.0000 0.0000
# 2 33.5342 99.8938 28.7729 0.0000 0.0000 0.0000
# 3 43.0621 28.7729 78.8272 0.0000 0.0000 0.0000
# 4 0.0000 0.0000 0.0000 29.6616 0.0000 0.0000
# 5 0.0000 0.0000 0.0000 0.0000 18.8833 0.0000
# 6 0.0000 0.0000 0.0000 0.0000 0.0000 23.7389
#
#
#
# Elastic Compliance Matrix: (Units=1/GPa)
#
#
# Indices 1 2 3 4 5 6 
#
# 1 0.009394 -0.001872 -0.004448 0.000000 0.000000 0.000000
# 2 -0.001872 0.011560 -0.003197 0.000000 0.000000 0.000000
# 3 -0.004448 -0.003197 0.016283 0.000000 0.000000 0.000000
# 4 0.000000 0.000000 0.000000 0.033714 0.000000 0.000000
# 5 0.000000 0.000000 0.000000 0.000000 0.052957 0.000000
# 6 0.000000 0.000000 0.000000 0.000000 0.000000 0.042125
#
#
# Mechanical properties :
#
#
# Convention : Reuss Voigt Hill
#
# Bulk Modulus (GPa) = 54.93896 58.10996 56.52446
# Shear Modulus (GPa) = 26.15976 28.24891 27.20434
#
# Velocity S-wave (km/s) = 3.67123 3.81501 3.74381
# Velocity P-wave (km/s) = 6.80265 7.02460 6.91452
#
# Compressibility (1/GPa) = 0.01820202
#
# Stress axis : x y z
#
# Youngs Moduli (GPa) = 106.45539 86.50596 61.41440
#
# Poissons Ratio (x) = 0.16195 0.27318
# Poissons Ratio (y) = 0.19930 0.19633
# Poissons Ratio (z) = 0.47354 0.27654
#
# Static dielectric constant tensor:
#      x y z
#    x 3.775240 0.000000 0.000000 
#    y 0.000000 3.448100 0.000000 
#    z 0.000000 0.000000 3.544790 
# 
# 
# High freq. dielectric constant tensor:
#      x y z
#    x 1.749680 0.000000 0.000000 
#    y 0.000000 1.757740 0.000000 
#    z 0.000000 0.000000 1.746460 
# 
# From -- ./inp_files/44824.got.cif
#   From: 2010.03.12/outbox.cif.g09.slc.cpg/sg67_23_cif.got.tgz:44824.got - 2010.04.10 22:41:39.
