data_PCOD8279599
_publ_section_title
;
Structure prediction by ZEFSAII (Michael W. Deem and Ramdas Pophale) SiO2 
 PCOD8279599
Probable space group: C M M A
;
_chemical_formula_sum "Si O2"
_cell_formula_units_Z 100
_cell_length_a 14.307355
_cell_length_b 21.451902
_cell_length_c 19.152793
_cell_angle_alpha 90.000000
_cell_angle_beta 90.000000
_cell_angle_gamma 90.000000
_cell_volume 5878.374794
_symmetry_space_group_name_H-M "C M M A"
_symmetry_group_IT_number 67
_symmetry_cell_setting 'orthorhombic'
loop_
_space_group_symop_operation_xyz
x,y,z
-x,1/2-y,z
x,-y,-z
-x,1/2+y,-z
-x,-y,-z
x,1/2+y,-z
-x,y,z
x,1/2-y,z
1/2+x,1/2+y,z
1/2-x,-y,z
1/2+x,1/2-y,-z
1/2-x,y,-z
1/2-x,1/2-y,-z
1/2+x,y,-z
1/2-x,1/2+y,z
1/2+x,-y,z
loop_
_atom_site_type_symbol
_atom_site_label
_atom_site_fract_x
_atom_site_fract_y
_atom_site_fract_z
Si Si1 0.283345 0.823503 0.239704
Si Si2 0.390176 0.320901 0.894671
Si Si3 0.897954 0.177285 0.834453
Si Si4 0.395916 0.675837 0.523700
Si Si5 0.108632 0.899843 0.029679
Si Si6 0.780774 0.675708 0.606900
Si Si7 0.750000 0.500000 0.000000
O O1 0.297650 0.750000 0.242766
O O2 0.348336 0.849404 0.177345
O O3 0.176237 0.842266 0.223958
O O4 0.306100 0.851808 0.316327
O O5 0.500000 0.320249 0.886017
O O6 0.353576 0.250000 0.907999
O O7 0.360420 0.365664 0.958113
O O8 0.894176 0.250000 0.849201
O O9 0.000000 0.156307 0.807152
O O10 0.873910 0.147792 0.908420
O O11 0.500000 0.648293 0.537370
O O12 0.399916 0.750000 0.524165
O O13 0.322513 0.652427 0.582415
O O14 0.359345 0.652989 0.447698
O O15 0.178385 0.957529 0.044911
O O16 0.000000 0.921678 0.026500
O O17 0.778264 0.750000 0.609545
#
# Coordination Sequence:
#
# PCOD8279599 Si02
#       7
#    16  16  16  16  16  16   4
#     4   9  16  24  35  55  80 101 126 164 209 252
#     4   9  17  29  45  63  82 106 135 170 213 253
#     4   9  17  29  45  63  82 106 135 170 213 253
#     4   8  13  21  32  43  59  92 133 165 194 225
#     4  10  20  33  47  63  83 106 139 176 206 246
#     4   8  14  22  30  45  69  93 124 166 200 231
#     4  12  22  32  46  62  80 108 138 172 216 246
#
# _framework density 17.011503999999999
#
# number of rings (size 3 to 8) (size 9 to 14) (size 15 to 20)
#    0.000    3.040    0.000    2.640    0.000    3.200 
#    0.000    9.600    0.000    0.000    0.000    0.000 
#    0.000    0.000    0.000    0.000    0.000   51.200 
#
# Total GULP energy -619473.184140 kJ/mol
# GULP energy per Si atom -12389.463683 kJ/mol
# Density = 1.697279 g / cm^3
# Si number density = 17.011504 Si / 1000 Ang^3
#
#
#
# Elastic Constant Matrix: (Units=GPa)
#
#
# Indices 1 2 3 4 5 6 
#
# 1 49.6820 17.5978 8.5161 0.0000 0.0000 0.0000
# 2 17.5978 19.2314 15.4392 0.0000 0.0000 0.0000
# 3 8.5161 15.4392 83.7063 0.0000 0.0000 0.0000
# 4 0.0000 0.0000 0.0000 0.3308 0.0000 0.0000
# 5 0.0000 0.0000 0.0000 0.0000 20.9216 0.0000
# 6 0.0000 0.0000 0.0000 0.0000 0.0000 18.1384
#
#
#
# Elastic Compliance Matrix: (Units=1/GPa)
#
#
# Indices 1 2 3 4 5 6 
#
# 1 0.030177 -0.029520 0.002375 0.000000 0.000000 0.000000
# 2 -0.029520 0.089914 -0.013581 0.000000 0.000000 0.000000
# 3 0.002375 -0.013581 0.014210 0.000000 0.000000 0.000000
# 4 0.000000 0.000000 0.000000 3.022755 0.000000 0.000000
# 5 0.000000 0.000000 0.000000 0.000000 0.047797 0.000000
# 6 0.000000 0.000000 0.000000 0.000000 0.000000 0.055132
#
#
# Mechanical properties :
#
#
# Convention : Reuss Voigt Hill
#
# Bulk Modulus (GPa) = 18.92217 26.19176 22.55696
# Shear Modulus (GPa) = 1.48851 15.28261 8.38556
#
# Velocity S-wave (km/s) = 0.93643 3.00053 2.22262
# Velocity P-wave (km/s) = 3.50949 5.23776 4.45818
#
# Compressibility (1/GPa) = 0.05284807
#
# Stress axis : x y z
#
# Youngs Moduli (GPa) = 33.13742 11.12177 70.37380
#
# Poissons Ratio (x) = 0.32832 -0.16712
# Poissons Ratio (y) = 0.97823 0.95573
# Poissons Ratio (z) = -0.07869 0.15104
#
# Static dielectric constant tensor:
#      x y z
#    x 3.558800 0.000000 0.000000 
#    y 0.000000 2.622310 0.000000 
#    z 0.000000 0.000000 3.389980 
# 
# 
# High freq. dielectric constant tensor:
#      x y z
#    x 1.675310 0.000000 0.000000 
#    y 0.000000 1.574470 0.000000 
#    z 0.000000 0.000000 1.651780 
# 
# From -- ./inp_files/33714.got.cif
#   From: 2010.03.12/outbox.cif.g09.slc.cpg/sg67_17_cif.got.tgz:33714.got - 2010.04.10 22:41:39.
