data_PCOD8279266
_publ_section_title
;
Structure prediction by ZEFSAII (Michael W. Deem and Ramdas Pophale) SiO2 
 PCOD8279266
Probable space group: C M M A
;
_chemical_formula_sum "Si O2"
_cell_formula_units_Z 96
_cell_length_a 28.514963
_cell_length_b 8.879391
_cell_length_c 20.429338
_cell_angle_alpha 90.000000
_cell_angle_beta 90.000000
_cell_angle_gamma 90.000000
_cell_volume 5172.616569
_symmetry_space_group_name_H-M "C M M A"
_symmetry_group_IT_number 67
_symmetry_cell_setting 'orthorhombic'
loop_
_space_group_symop_operation_xyz
x,y,z
-x,1/2-y,z
x,-y,-z
-x,1/2+y,-z
-x,-y,-z
x,1/2+y,-z
-x,y,z
x,1/2-y,z
1/2+x,1/2+y,z
1/2-x,-y,z
1/2+x,1/2-y,-z
1/2-x,y,-z
1/2-x,1/2-y,-z
1/2+x,y,-z
1/2-x,1/2+y,z
1/2+x,-y,z
loop_
_atom_site_type_symbol
_atom_site_label
_atom_site_fract_x
_atom_site_fract_y
_atom_site_fract_z
Si Si1 0.605797 0.572001 0.431847
Si Si2 0.202845 0.073326 0.373023
Si Si3 0.202163 0.072030 0.222476
Si Si4 0.944641 0.576773 0.933004
Si Si5 0.054279 0.923977 0.315243
Si Si6 0.108636 0.571768 0.185447
O O1 0.590207 0.500000 0.500000
O O2 0.604344 0.750000 0.437912
O O3 0.658035 0.514712 0.413382
O O4 0.568926 0.522602 0.377189
O O5 0.208639 0.250000 0.379057
O O6 0.195522 0.023952 0.298005
O O7 0.250000 0.000000 0.402391
O O8 0.203708 0.250000 0.213195
O O9 0.250000 0.000000 0.194939
O O10 0.159606 0.003520 0.181263
O O11 0.928347 0.750000 0.932491
O O12 0.921747 0.486769 0.874186
O O13 0.000000 0.562377 0.924927
O O14 0.927641 0.500000 0.000000
O O15 0.064385 0.750000 0.331220
O O16 0.083370 0.978415 0.252375
O O17 0.000000 0.952613 0.299885
O O18 0.113466 0.750000 0.180846
#
# Coordination Sequence:
#
# PCOD8279266 Si02
#       6
#    16  16  16  16  16  16
#     4  11  23  39  56  78 106 142 183 229 282 339
#     4   9  19  34  54  78 107 139 177 223 276 333
#     4  10  19  34  55  83 115 147 187 231 280 335
#     4  10  21  37  58  86 121 159 196 235 280 331
#     4  10  22  39  58  81 108 141 184 232 280 332
#     4  11  21  35  59  88 118 151 187 232 283 334
#
# _framework density 18.559272
#
# number of rings (size 3 to 8) (size 9 to 14) (size 15 to 20)
#    0.000    1.833    1.667    2.500    0.000    5.333 
#    0.000    1.667    0.000    0.500    0.000    3.500 
#    0.000    0.000    0.000    0.000    0.000    0.000 
#
# Total GULP energy -595440.852587 kJ/mol
# GULP energy per Si atom -12405.017762 kJ/mol
# Density = 1.851703 g / cm^3
# Si number density = 18.559272 Si / 1000 Ang^3
#
#
#
# Elastic Constant Matrix: (Units=GPa)
#
#
# Indices 1 2 3 4 5 6 
#
# 1 75.4925 36.6988 25.8990 0.0000 0.0000 0.0000
# 2 36.6988 80.1249 38.5644 0.0000 0.0000 0.0000
# 3 25.8990 38.5644 93.1743 0.0000 0.0000 0.0000
# 4 0.0000 0.0000 0.0000 30.0711 0.0000 0.0000
# 5 0.0000 0.0000 0.0000 0.0000 78.3268 0.0000
# 6 0.0000 0.0000 0.0000 0.0000 0.0000 34.6736
#
#
#
# Elastic Compliance Matrix: (Units=1/GPa)
#
#
# Indices 1 2 3 4 5 6 
#
# 1 0.017309 -0.007008 -0.001911 0.000000 0.000000 0.000000
# 2 -0.007008 0.018423 -0.005677 0.000000 0.000000 0.000000
# 3 -0.001911 -0.005677 0.013613 0.000000 0.000000 0.000000
# 4 0.000000 0.000000 0.000000 0.033255 0.000000 0.000000
# 5 0.000000 0.000000 0.000000 0.000000 0.012767 0.000000
# 6 0.000000 0.000000 0.000000 0.000000 0.000000 0.028840
#
#
# Mechanical properties :
#
#
# Convention : Reuss Voigt Hill
#
# Bulk Modulus (GPa) = 49.61985 50.12402 49.87194
# Shear Modulus (GPa) = 31.22735 38.45626 34.84181
#
# Velocity S-wave (km/s) = 4.10637 4.55695 4.33751
# Velocity P-wave (km/s) = 7.01975 7.39958 7.21217
#
# Compressibility (1/GPa) = 0.02015322
#
# Stress axis : x y z
#
# Youngs Moduli (GPa) = 57.77468 54.28052 73.45732
#
# Poissons Ratio (x) = 0.38041 0.14034
# Poissons Ratio (y) = 0.40489 0.41702
# Poissons Ratio (z) = 0.11038 0.30816
#
# Static dielectric constant tensor:
#      x y z
#    x 3.483330 0.000000 0.000000 
#    y 0.000000 3.443190 0.000000 
#    z 0.000000 0.000000 3.291480 
# 
# 
# High freq. dielectric constant tensor:
#      x y z
#    x 1.724980 0.000000 0.000000 
#    y 0.000000 1.728760 0.000000 
#    z 0.000000 0.000000 1.704040 
# 
# From -- ./inp_files/37143.got.cif
#   From: 2010.03.12/outbox.cif.g09.slc.cpg/sg67_19_cif.got.tgz:37143.got - 2010.04.10 22:41:39.
