data_PCOD8279600
_publ_section_title
;
Structure prediction by ZEFSAII (Michael W. Deem and Ramdas Pophale) SiO2 
 PCOD8279600
Probable space group: C M M A
;
_chemical_formula_sum "Si O2"
_cell_formula_units_Z 80
_cell_length_a 8.725667
_cell_length_b 26.828718
_cell_length_c 19.896021
_cell_angle_alpha 90.000000
_cell_angle_beta 90.000000
_cell_angle_gamma 90.000000
_cell_volume 4657.627862
_symmetry_space_group_name_H-M "C M M A"
_symmetry_group_IT_number 67
_symmetry_cell_setting 'orthorhombic'
loop_
_space_group_symop_operation_xyz
x,y,z
-x,1/2-y,z
x,-y,-z
-x,1/2+y,-z
-x,-y,-z
x,1/2+y,-z
-x,y,z
x,1/2-y,z
1/2+x,1/2+y,z
1/2-x,-y,z
1/2+x,1/2-y,-z
1/2-x,y,-z
1/2-x,1/2-y,-z
1/2+x,y,-z
1/2-x,1/2+y,z
1/2+x,-y,z
loop_
_atom_site_type_symbol
_atom_site_label
_atom_site_fract_x
_atom_site_fract_y
_atom_site_fract_z
Si Si1 0.316917 0.807037 0.787355
Si Si2 0.668490 0.692580 0.563753
Si Si3 0.817377 0.053214 0.572492
Si Si4 0.333193 0.191339 0.064264
Si Si5 0.179399 0.864255 0.668976
O O1 0.500000 0.811461 0.782686
O O2 0.269920 0.750000 0.767027
O O3 0.255917 0.818503 0.863038
O O4 0.239427 0.850606 0.743133
O O5 0.500000 0.667585 0.574562
O O6 0.643886 0.750000 0.549778
O O7 0.750000 0.666773 0.500000
O O8 0.779332 0.685379 0.627051
O O9 0.750000 0.069748 0.500000
O O10 0.768627 0.091000 0.631855
O O11 0.000000 0.050003 0.567488
O O12 0.750000 0.000000 0.593536
O O13 0.500000 0.166618 0.065445
O O14 0.346803 0.250000 0.052925
O O15 0.250000 0.166645 0.000000
O O16 0.000000 0.875873 0.670791
#
# Coordination Sequence:
#
# PCOD8279600 Si02
#       5
#    16  16  16  16  16
#     4   9  18  32  47  66  96 133 168 201 239 281
#     4  10  20  33  47  63  86 118 155 193 231 272
#     4  11  22  39  59  77  96 118 150 193 241 290
#     4   8  14  25  42  63  89 123 162 200 236 275
#     4  12  23  33  47  69  95 123 156 193 236 283
#
# _framework density 17.176124999999999
#
# number of rings (size 3 to 8) (size 9 to 14) (size 15 to 20)
#    0.000    2.000    0.000    7.200    0.000    4.800 
#    0.000    2.000    0.000    0.000    0.000    0.000 
#    0.000    0.800    0.000    8.400    0.000    5.000 
#
# Total GULP energy -495528.689132 kJ/mol
# GULP energy per Si atom -12388.217228 kJ/mol
# Density = 1.713703 g / cm^3
# Si number density = 17.176125 Si / 1000 Ang^3
#
#
#
# Elastic Constant Matrix: (Units=GPa)
#
#
# Indices 1 2 3 4 5 6 
#
# 1 111.0875 33.3636 50.8484 0.0000 0.0000 0.0000
# 2 33.3636 67.7676 41.8934 0.0000 0.0000 0.0000
# 3 50.8484 41.8934 135.4896 0.0000 0.0000 0.0000
# 4 0.0000 0.0000 0.0000 18.6040 0.0000 0.0000
# 5 0.0000 0.0000 0.0000 0.0000 28.9045 0.0000
# 6 0.0000 0.0000 0.0000 0.0000 0.0000 19.6297
#
#
#
# Elastic Compliance Matrix: (Units=1/GPa)
#
#
# Indices 1 2 3 4 5 6 
#
# 1 0.011584 -0.003728 -0.003195 0.000000 0.000000 0.000000
# 2 -0.003728 0.019443 -0.004613 0.000000 0.000000 0.000000
# 3 -0.003195 -0.004613 0.010006 0.000000 0.000000 0.000000
# 4 0.000000 0.000000 0.000000 0.053752 0.000000 0.000000
# 5 0.000000 0.000000 0.000000 0.000000 0.034597 0.000000
# 6 0.000000 0.000000 0.000000 0.000000 0.000000 0.050943
#
#
# Mechanical properties :
#
#
# Convention : Reuss Voigt Hill
#
# Bulk Modulus (GPa) = 55.67291 62.95060 59.31175
# Shear Modulus (GPa) = 23.87968 25.97694 24.92831
#
# Velocity S-wave (km/s) = 3.73270 3.89316 3.81377
# Velocity P-wave (km/s) = 7.14568 7.54576 7.34844
#
# Compressibility (1/GPa) = 0.01796206
#
# Stress axis : x y z
#
# Youngs Moduli (GPa) = 86.32685 51.43157 99.94193
#
# Poissons Ratio (x) = 0.19174 0.31928
# Poissons Ratio (y) = 0.32184 0.46100
# Poissons Ratio (z) = 0.27578 0.23724
#
# Static dielectric constant tensor:
#      x y z
#    x 3.568330 0.000000 0.000000 
#    y 0.000000 2.922570 0.000000 
#    z 0.000000 0.000000 3.394380 
# 
# 
# High freq. dielectric constant tensor:
#      x y z
#    x 1.672010 0.000000 0.000000 
#    y 0.000000 1.618960 0.000000 
#    z 0.000000 0.000000 1.660860 
# 
# From -- ./inp_files/37377.got.cif
#   From: 2010.03.12/outbox.cif.g09.slc.cpg/sg67_19_cif.got.tgz:37377.got - 2010.04.10 22:41:39.
