data_PCOD8279359
_publ_section_title
;
Structure prediction by ZEFSAII (Michael W. Deem and Ramdas Pophale) SiO2 
 PCOD8279359
Probable space group: C M M A
;
_chemical_formula_sum "Si O2"
_cell_formula_units_Z 80
_cell_length_a 28.762000
_cell_length_b 8.899242
_cell_length_c 15.466481
_cell_angle_alpha 90.000000
_cell_angle_beta 90.000000
_cell_angle_gamma 90.000000
_cell_volume 3958.800452
_symmetry_space_group_name_H-M "C M M A"
_symmetry_group_IT_number 67
_symmetry_cell_setting 'orthorhombic'
loop_
_space_group_symop_operation_xyz
x,y,z
-x,1/2-y,z
x,-y,-z
-x,1/2+y,-z
-x,-y,-z
x,1/2+y,-z
-x,y,z
x,1/2-y,z
1/2+x,1/2+y,z
1/2-x,-y,z
1/2+x,1/2-y,-z
1/2-x,y,-z
1/2-x,1/2-y,-z
1/2+x,y,-z
1/2-x,1/2+y,z
1/2+x,-y,z
loop_
_atom_site_type_symbol
_atom_site_label
_atom_site_fract_x
_atom_site_fract_y
_atom_site_fract_z
Si Si1 0.202577 0.427583 0.143397
Si Si2 0.296494 0.574688 0.343432
Si Si3 0.394581 0.572188 0.411234
Si Si4 0.945775 0.076598 0.744538
Si Si5 0.390381 0.428005 0.085818
O O1 0.202596 0.250000 0.127565
O O2 0.250000 0.500000 0.107549
O O3 0.196707 0.469887 0.243850
O O4 0.160985 0.504080 0.092188
O O5 0.290256 0.750000 0.355101
O O6 0.250000 0.500000 0.382388
O O7 0.341921 0.515631 0.393694
O O8 0.412609 0.500000 0.500000
O O9 0.396798 0.750000 0.418393
O O10 0.428391 0.522387 0.334854
O O11 0.934355 0.250000 0.724833
O O12 0.920672 0.022440 0.831867
O O13 0.000000 0.048885 0.757694
O O14 0.388043 0.250000 0.076567
O O15 0.413639 0.500000 0.000000
#
# Coordination Sequence:
#
# PCOD8279359 Si02
#       5
#    16  16  16  16  16
#     4  10  19  35  58  87 122 160 203 246 294 352
#     4   9  19  34  56  85 120 159 200 242 290 347
#     4  11  23  40  62  92 124 160 202 247 298 357
#     4  10  23  44  67  90 118 154 198 250 306 361
#     4  11  23  39  62  91 123 159 199 246 299 358
#
# _framework density 20.208141000000001
#
# number of rings (size 3 to 8) (size 9 to 14) (size 15 to 20)
#    0.000    1.800    2.000    1.800    0.000    5.200 
#    0.000    4.000    0.000    0.000    0.000    0.000 
#    0.000    0.000    0.000    0.000    0.000    0.000 
#
# Total GULP energy -496177.470899 kJ/mol
# GULP energy per Si atom -12404.436772 kJ/mol
# Density = 2.016215 g / cm^3
# Si number density = 20.208141 Si / 1000 Ang^3
#
#
#
# Elastic Constant Matrix: (Units=GPa)
#
#
# Indices 1 2 3 4 5 6 
#
# 1 104.9151 38.9799 53.4005 0.0000 0.0000 0.0000
# 2 38.9799 77.1326 52.7311 0.0000 0.0000 0.0000
# 3 53.4005 52.7311 133.9434 0.0000 0.0000 0.0000
# 4 0.0000 0.0000 0.0000 32.5822 0.0000 0.0000
# 5 0.0000 0.0000 0.0000 0.0000 -3.2985 0.0000
# 6 0.0000 0.0000 0.0000 0.0000 0.0000 29.1337
#
#
#
# Elastic Compliance Matrix: (Units=1/GPa)
#
#
# Indices 1 2 3 4 5 6 
#
# 1 0.012836 -0.004089 -0.003508 0.000000 0.000000 0.000000
# 2 -0.004089 0.019041 -0.005866 0.000000 0.000000 0.000000
# 3 -0.003508 -0.005866 0.011174 0.000000 0.000000 0.000000
# 4 0.000000 0.000000 0.000000 0.030692 0.000000 0.000000
# 5 0.000000 0.000000 0.000000 0.000000 -0.303170 0.000000
# 6 0.000000 0.000000 0.000000 0.000000 0.000000 0.034325
#
#
# Mechanical properties :
#
#
# Convention : Reuss Voigt Hill
#
# Bulk Modulus (GPa) = 62.01273 67.35712 64.68492
# Shear Modulus (GPa) = -30.71214 23.07546 -3.81834
#
# Velocity S-wave (km/s) = -3.90268 3.38285 -1.37608
# Velocity P-wave (km/s) = 3.23199 6.97584 5.43636
#
# Compressibility (1/GPa) = 0.01612572
#
# Stress axis : x y z
#
# Youngs Moduli (GPa) = 77.90540 52.51736 89.49576
#
# Poissons Ratio (x) = 0.21473 0.31393
# Poissons Ratio (y) = 0.31854 0.52499
# Poissons Ratio (z) = 0.27328 0.30807
#
# Static dielectric constant tensor:
#      x y z
#    x 3.707710 0.000000 0.000000 
#    y 0.000000 3.646660 0.000000 
#    z 0.000000 0.000000 3.727280 
# 
# 
# High freq. dielectric constant tensor:
#      x y z
#    x 1.787360 0.000000 0.000000 
#    y 0.000000 1.789840 0.000000 
#    z 0.000000 0.000000 1.793590 
# 
# From -- ./inp_files/32292.got.cif
#   From: 2010.03.12/outbox.cif.g09.slc.cpg/sg67_17_cif.got.tgz:32292.got - 2010.04.10 22:41:39.
