data_PCOD8279063
_publ_section_title
;
Structure prediction by ZEFSAII (Michael W. Deem and Ramdas Pophale) SiO2 
 PCOD8279063
Probable space group: C M M A
;
_chemical_formula_sum "Si O2"
_cell_formula_units_Z 88
_cell_length_a 16.270785
_cell_length_b 18.357880
_cell_length_c 15.700632
_cell_angle_alpha 90.000000
_cell_angle_beta 90.000000
_cell_angle_gamma 90.000000
_cell_volume 4689.733538
_symmetry_space_group_name_H-M "C M M A"
_symmetry_group_IT_number 67
_symmetry_cell_setting 'orthorhombic'
loop_
_space_group_symop_operation_xyz
x,y,z
-x,1/2-y,z
x,-y,-z
-x,1/2+y,-z
-x,-y,-z
x,1/2+y,-z
-x,y,z
x,1/2-y,z
1/2+x,1/2+y,z
1/2-x,-y,z
1/2+x,1/2-y,-z
1/2-x,y,-z
1/2-x,1/2-y,-z
1/2+x,y,-z
1/2-x,1/2+y,z
1/2+x,-y,z
loop_
_atom_site_type_symbol
_atom_site_label
_atom_site_fract_x
_atom_site_fract_y
_atom_site_fract_z
Si Si1 0.331318 0.833662 0.957684
Si Si2 0.000000 0.335486 0.032582
Si Si3 0.250000 0.500000 0.692266
Si Si4 0.401658 0.250000 0.536608
Si Si5 0.500000 0.336232 0.768498
Si Si6 0.689381 0.360287 0.239442
Si Si7 0.844613 0.866437 0.665336
Si Si8 0.904544 0.750000 0.345535
O O1 0.333053 0.750000 0.987029
O O2 0.416877 0.870005 0.990820
O O3 0.325211 0.839265 0.857036
O O4 0.250000 0.870819 0.000000
O O5 0.000000 0.250000 0.013717
O O6 0.000000 0.353054 0.132060
O O7 0.308682 0.551701 0.750715
O O8 0.189981 0.553144 0.637241
O O9 0.500000 0.250000 0.544085
O O10 0.365562 0.321924 0.580955
O O11 0.366754 0.250000 0.440807
O O12 0.500000 0.250000 0.747704
O O13 0.422303 0.374811 0.726431
O O14 0.775185 0.327132 0.276072
O O15 0.618409 0.323476 0.295575
O O16 0.000000 0.750000 0.358259
#
# Coordination Sequence:
#
# PCOD8279063 Si02
#       8
#    16   8   8   8   8  16  16   8
#     4  10  19  32  55  87 120 151 201 255 297 347
#     4   9  20  30  49  89 121 146 196 251 312 347
#     4   8  24  38  56  90 118 168 196 234 299 357
#     4  11  21  39  65 100 114 144 196 263 306 342
#     4  11  18  32  65  95 112 152 200 265 303 339
#     4  10  21  40  58  86 119 166 198 239 297 353
#     4  10  19  38  61  90 120 150 202 245 301 352
#     4  11  25  39  64  91 124 152 195 250 306 363
#
# _framework density 18.764392999999998
#
# number of rings (size 3 to 8) (size 9 to 14) (size 15 to 20)
#    1.091    0.909    2.727    1.636    1.273    2.909 
#    1.636    2.273    0.000    3.273    0.000    0.000 
#    0.000    0.000    0.000    0.000    0.000    0.000 
#
# Total GULP energy -545142.108455 kJ/mol
# GULP energy per Si atom -12389.593374 kJ/mol
# Density = 1.872168 g / cm^3
# Si number density = 18.764393 Si / 1000 Ang^3
#
#
#
# Elastic Constant Matrix: (Units=GPa)
#
#
# Indices 1 2 3 4 5 6 
#
# 1 115.2474 33.5271 63.2945 0.0000 0.0000 0.0000
# 2 33.5271 91.3035 30.2116 0.0000 0.0000 0.0000
# 3 63.2945 30.2116 146.5936 0.0000 0.0000 0.0000
# 4 0.0000 0.0000 0.0000 0.5255 0.0000 0.0000
# 5 0.0000 0.0000 0.0000 0.0000 24.8887 0.0000
# 6 0.0000 0.0000 0.0000 0.0000 0.0000 21.4534
#
#
#
# Elastic Compliance Matrix: (Units=1/GPa)
#
#
# Indices 1 2 3 4 5 6 
#
# 1 0.012050 -0.002901 -0.004605 0.000000 0.000000 0.000000
# 2 -0.002901 0.012452 -0.001314 0.000000 0.000000 0.000000
# 3 -0.004605 -0.001314 0.009081 0.000000 0.000000 0.000000
# 4 0.000000 0.000000 0.000000 1.902832 0.000000 0.000000
# 5 0.000000 0.000000 0.000000 0.000000 0.040179 0.000000
# 6 0.000000 0.000000 0.000000 0.000000 0.000000 0.046613
#
#
# Mechanical properties :
#
#
# Convention : Reuss Voigt Hill
#
# Bulk Modulus (GPa) = 62.72121 67.46786 65.09453
# Shear Modulus (GPa) = 2.44360 24.44762 13.44561
#
# Velocity S-wave (km/s) = 1.14240 3.61345 2.67975
# Velocity P-wave (km/s) = 5.93619 7.31045 6.65887
#
# Compressibility (1/GPa) = 0.01594357
#
# Stress axis : x y z
#
# Youngs Moduli (GPa) = 82.98753 80.30522 110.12500
#
# Poissons Ratio (x) = 0.23297 0.50712
# Poissons Ratio (y) = 0.24075 0.14468
# Poissons Ratio (z) = 0.38215 0.10550
#
# Static dielectric constant tensor:
#      x y z
#    x 3.680890 0.000000 0.000000 
#    y 0.000000 3.125960 0.000000 
#    z 0.000000 0.000000 3.283290 
# 
# 
# High freq. dielectric constant tensor:
#      x y z
#    x 1.742780 0.000000 0.000000 
#    y 0.000000 1.690910 0.000000 
#    z 0.000000 0.000000 1.723540 
# 
# From -- ./inp_files/28617.got.cif
#   From: 2010.03.12/outbox.cif.g09.slc.cpg/sg67_15_cif.got.tgz:28617.got - 2010.04.10 22:41:39.
