data_PCOD8279092
_publ_section_title
;
Structure prediction by ZEFSAII (Michael W. Deem and Ramdas Pophale) SiO2 
 PCOD8279092
Probable space group: C M M A
;
_chemical_formula_sum "Si O2"
_cell_formula_units_Z 96
_cell_length_a 25.339319
_cell_length_b 20.906041
_cell_length_c 10.565480
_cell_angle_alpha 90.000000
_cell_angle_beta 90.000000
_cell_angle_gamma 90.000000
_cell_volume 5597.008532
_symmetry_space_group_name_H-M "C M M A"
_symmetry_group_IT_number 67
_symmetry_cell_setting 'orthorhombic'
loop_
_space_group_symop_operation_xyz
x,y,z
-x,1/2-y,z
x,-y,-z
-x,1/2+y,-z
-x,-y,-z
x,1/2+y,-z
-x,y,z
x,1/2-y,z
1/2+x,1/2+y,z
1/2-x,-y,z
1/2+x,1/2-y,-z
1/2-x,y,-z
1/2-x,1/2-y,-z
1/2+x,y,-z
1/2-x,1/2+y,z
1/2+x,-y,z
loop_
_atom_site_type_symbol
_atom_site_label
_atom_site_fract_x
_atom_site_fract_y
_atom_site_fract_z
Si Si1 0.309377 0.398593 0.010420
Si Si2 0.309677 0.499921 0.789639
Si Si3 0.000000 0.402039 0.954109
Si Si4 0.437577 0.677251 0.335011
Si Si5 0.097091 0.456183 0.380569
Si Si6 0.500000 0.016347 0.795083
Si Si7 0.408463 0.321964 0.956534
O O1 0.321161 0.430429 0.148081
O O2 0.250000 0.371660 0.000000
O O3 0.317915 0.450162 0.901495
O O4 0.348413 0.340472 0.985101
O O5 0.250000 0.500000 0.736698
O O6 0.347211 0.481082 0.673289
O O7 0.052914 0.360877 0.952943
O O8 0.000000 0.447499 0.073899
O O9 0.000000 0.440875 0.823115
O O10 0.500000 0.666685 0.354294
O O11 0.421794 0.750000 0.379018
O O12 0.405067 0.621141 0.410872
O O13 0.423574 0.667930 0.188811
O O14 0.083218 0.500000 0.500000
O O15 0.052493 0.465624 0.277238
O O16 0.416009 0.250000 0.998231
#
# Coordination Sequence:
#
# PCOD8279092 Si02
#       7
#    16  16   8  16  16   8  16
#     4   9  17  31  51  72 103 133 161 208 259 311
#     4   9  18  33  51  74 102 134 166 207 265 307
#     4  11  19  32  52  71 104 134 159 203 255 310
#     4  10  19  33  51  75 107 137 170 212 255 302
#     4  12  21  33  53  79 105 131 177 224 251 301
#     4  11  21  32  50  77 102 128 163 207 263 302
#     4  11  18  28  48  74 105 133 166 204 245 311
#
# _framework density 17.15202
#
# number of rings (size 3 to 8) (size 9 to 14) (size 15 to 20)
#    0.000    1.667    5.000    2.500    0.000    3.333 
#    0.000    0.000    0.000    5.000    0.000    1.167 
#    0.000    0.000    0.000    0.000    0.000    0.000 
#
# Total GULP energy -594926.750913 kJ/mol
# GULP energy per Si atom -12394.307311 kJ/mol
# Density = 1.711298 g / cm^3
# Si number density = 17.152020 Si / 1000 Ang^3
#
#
#
# Elastic Constant Matrix: (Units=GPa)
#
#
# Indices 1 2 3 4 5 6 
#
# 1 87.4116 36.5974 13.4076 0.0000 0.0000 0.0000
# 2 36.5974 118.0045 26.6964 0.0000 0.0000 0.0000
# 3 13.4076 26.6964 27.8240 0.0000 0.0000 0.0000
# 4 0.0000 0.0000 0.0000 22.5742 0.0000 0.0000
# 5 0.0000 0.0000 0.0000 0.0000 19.4834 0.0000
# 6 0.0000 0.0000 0.0000 0.0000 0.0000 28.1983
#
#
#
# Elastic Compliance Matrix: (Units=1/GPa)
#
#
# Indices 1 2 3 4 5 6 
#
# 1 0.013359 -0.003432 -0.003145 0.000000 0.000000 0.000000
# 2 -0.003432 0.011705 -0.009577 0.000000 0.000000 0.000000
# 3 -0.003145 -0.009577 0.046645 0.000000 0.000000 0.000000
# 4 0.000000 0.000000 0.000000 0.044298 0.000000 0.000000
# 5 0.000000 0.000000 0.000000 0.000000 0.051326 0.000000
# 6 0.000000 0.000000 0.000000 0.000000 0.000000 0.035463
#
#
# Mechanical properties :
#
#
# Convention : Reuss Voigt Hill
#
# Bulk Modulus (GPa) = 25.37961 42.96030 34.16996
# Shear Modulus (GPa) = 20.14199 24.48710 22.31455
#
# Velocity S-wave (km/s) = 3.43056 3.78253 3.61083
# Velocity P-wave (km/s) = 5.52455 6.64664 6.11140
#
# Compressibility (1/GPa) = 0.03940171
#
# Stress axis : x y z
#
# Youngs Moduli (GPa) = 74.85425 85.43191 21.43869
#
# Poissons Ratio (x) = 0.29318 0.06742
# Poissons Ratio (y) = 0.25688 0.20532
# Poissons Ratio (z) = 0.23540 0.81820
#
# Static dielectric constant tensor:
#      x y z
#    x 3.487670 0.000000 0.000000 
#    y 0.000000 3.591680 0.000000 
#    z 0.000000 0.000000 2.933510 
# 
# 
# High freq. dielectric constant tensor:
#      x y z
#    x 1.667780 0.000000 0.000000 
#    y 0.000000 1.666350 0.000000 
#    z 0.000000 0.000000 1.617420 
# 
# From -- ./inp_files/22110.got.cif
#   From: 2010.03.12/outbox.cif.g09.slc.cpg/sg67_12_cif.got.tgz:22110.got - 2010.04.10 22:41:39.
