data_PCOD8279567
_publ_section_title
;
Structure prediction by ZEFSAII (Michael W. Deem and Ramdas Pophale) SiO2 
 PCOD8279567
Probable space group: C M M A
;
_chemical_formula_sum "Si O2"
_cell_formula_units_Z 120
_cell_length_a 26.264806
_cell_length_b 8.812452
_cell_length_c 27.911626
_cell_angle_alpha 90.000000
_cell_angle_beta 90.000000
_cell_angle_gamma 90.000000
_cell_volume 6460.350769
_symmetry_space_group_name_H-M "C M M A"
_symmetry_group_IT_number 67
_symmetry_cell_setting 'orthorhombic'
loop_
_space_group_symop_operation_xyz
x,y,z
-x,1/2-y,z
x,-y,-z
-x,1/2+y,-z
-x,-y,-z
x,1/2+y,-z
-x,y,z
x,1/2-y,z
1/2+x,1/2+y,z
1/2-x,-y,z
1/2+x,1/2-y,-z
1/2-x,y,-z
1/2-x,1/2-y,-z
1/2+x,y,-z
1/2-x,1/2+y,z
1/2+x,-y,z
loop_
_atom_site_type_symbol
_atom_site_label
_atom_site_fract_x
_atom_site_fract_y
_atom_site_fract_z
Si Si1 0.057140 0.416761 0.271426
Si Si2 0.603545 0.428222 0.352927
Si Si3 0.873967 0.074913 0.797547
Si Si4 0.800211 0.429471 0.948017
Si Si5 0.894266 0.427796 0.103197
Si Si6 0.942269 0.072314 0.548774
Si Si7 0.500000 0.928386 0.052944
Si Si8 0.196241 0.072985 0.712988
O O1 0.083684 0.250000 0.265633
O O2 0.060330 0.475127 0.325878
O O3 0.080432 0.549846 0.239212
O O4 0.000000 0.398360 0.254912
O O5 0.593814 0.250000 0.345222
O O6 0.597152 0.472098 0.408737
O O7 0.657649 0.478115 0.329491
O O8 0.872050 0.250000 0.814784
O O9 0.823553 0.029606 0.766779
O O10 0.885958 0.962567 0.841125
O O11 0.794398 0.250000 0.950259
O O12 0.750000 0.500000 0.921676
O O13 0.852146 0.472033 0.922581
O O14 0.803034 0.500000 0.000000
O O15 0.885406 0.250000 0.093803
O O16 0.949943 0.477822 0.083350
O O17 0.942904 0.250000 0.541242
O O18 0.000000 0.014903 0.559929
O O19 0.921014 0.000000 0.500000
O O20 0.500000 0.750000 0.045211
O O21 0.500000 0.000000 0.000000
O O22 0.203699 0.250000 0.710432
O O23 0.250000 0.000000 0.702509
#
# Coordination Sequence:
#
# PCOD8279567 Si02
#       8
#    16  16  16  16  16  16   8  16
#     4  10  20  32  49  74 104 136 171 216 264 313
#     4   9  18  33  51  73 101 136 179 221 265 324
#     4  10  22  38  54  78 107 141 180 218 264 325
#     4  11  22  39  62  88 114 144 182 228 281 336
#     4  11  23  40  60  86 118 151 187 234 283 335
#     4   9  17  29  47  72 104 140 175 217 270 324
#     4  10  24  42  62  86 116 154 194 234 279 332
#     4   9  19  35  55  77 103 134 176 223 271 326
#
# _framework density 18.574842
#
# number of rings (size 3 to 8) (size 9 to 14) (size 15 to 20)
#    0.000    2.133    0.000    4.400    0.933    7.467 
#    0.000    2.667    0.000    0.400    0.000    2.800 
#    0.000    0.000    0.000    0.000    0.000    0.000 
#
# Total GULP energy -743544.157685 kJ/mol
# GULP energy per Si atom -12392.402628 kJ/mol
# Density = 1.853256 g / cm^3
# Si number density = 18.574842 Si / 1000 Ang^3
#
#
#
# Elastic Constant Matrix: (Units=GPa)
#
#
# Indices 1 2 3 4 5 6 
#
# 1 116.3782 35.6473 51.7714 0.0000 0.0000 0.0000
# 2 35.6473 61.6231 29.6074 0.0000 0.0000 0.0000
# 3 51.7714 29.6074 112.7901 0.0000 0.0000 0.0000
# 4 0.0000 0.0000 0.0000 32.0399 0.0000 0.0000
# 5 0.0000 0.0000 0.0000 0.0000 20.1042 0.0000
# 6 0.0000 0.0000 0.0000 0.0000 0.0000 29.9303
#
#
#
# Elastic Compliance Matrix: (Units=1/GPa)
#
#
# Indices 1 2 3 4 5 6 
#
# 1 0.011965 -0.004901 -0.004205 0.000000 0.000000 0.000000
# 2 -0.004901 0.020577 -0.003152 0.000000 0.000000 0.000000
# 3 -0.004205 -0.003152 0.011624 0.000000 0.000000 0.000000
# 4 0.000000 0.000000 0.000000 0.031211 0.000000 0.000000
# 5 0.000000 0.000000 0.000000 0.000000 0.049741 0.000000
# 6 0.000000 0.000000 0.000000 0.000000 0.000000 0.033411
#
#
# Mechanical properties :
#
#
# Convention : Reuss Voigt Hill
#
# Bulk Modulus (GPa) = 50.89279 58.31596 54.60437
# Shear Modulus (GPa) = 26.37212 27.99922 27.18567
#
# Velocity S-wave (km/s) = 3.77208 3.88670 3.82982
# Velocity P-wave (km/s) = 6.81393 7.18368 7.00125
#
# Compressibility (1/GPa) = 0.01964915
#
# Stress axis : x y z
#
# Youngs Moduli (GPa) = 83.58020 48.59792 86.03081
#
# Poissons Ratio (x) = 0.23816 0.36179
# Poissons Ratio (y) = 0.40960 0.27117
# Poissons Ratio (z) = 0.35149 0.15318
#
# Static dielectric constant tensor:
#      x y z
#    x 4.049950 0.000000 0.000000 
#    y 0.000000 3.558600 0.000000 
#    z 0.000000 0.000000 3.769000 
# 
# 
# High freq. dielectric constant tensor:
#      x y z
#    x 1.711480 0.000000 0.000000 
#    y 0.000000 1.726410 0.000000 
#    z 0.000000 0.000000 1.716900 
# 
# From -- ./inp_files/44996.got.cif
#   From: 2010.03.12/outbox.cif.g09.slc.cpg/sg67_23_cif.got.tgz:44996.got - 2010.04.10 22:41:39.
