data_PCOD8279943
_publ_section_title
;
Structure prediction by ZEFSAII (Michael W. Deem and Ramdas Pophale) SiO2 
 PCOD8279943
Probable space group: C M M A
;
_chemical_formula_sum "Si O2"
_cell_formula_units_Z 72
_cell_length_a 15.926846
_cell_length_b 9.491647
_cell_length_c 24.543788
_cell_angle_alpha 90.000000
_cell_angle_beta 90.000000
_cell_angle_gamma 90.000000
_cell_volume 3710.333521
_symmetry_space_group_name_H-M "C M M A"
_symmetry_group_IT_number 67
_symmetry_cell_setting 'orthorhombic'
loop_
_space_group_symop_operation_xyz
x,y,z
-x,1/2-y,z
x,-y,-z
-x,1/2+y,-z
-x,-y,-z
x,1/2+y,-z
-x,y,z
x,1/2-y,z
1/2+x,1/2+y,z
1/2-x,-y,z
1/2+x,1/2-y,-z
1/2-x,y,-z
1/2-x,1/2-y,-z
1/2+x,y,-z
1/2-x,1/2+y,z
1/2+x,-y,z
loop_
_atom_site_type_symbol
_atom_site_label
_atom_site_fract_x
_atom_site_fract_y
_atom_site_fract_z
Si Si1 0.166995 0.413463 0.120704
Si Si2 0.096147 0.596822 0.333113
Si Si3 0.168351 0.914030 0.753944
Si Si4 0.402748 0.087199 0.451200
Si Si5 0.500000 0.916315 0.055629
O O1 0.187918 0.250000 0.110608
O O2 0.250000 0.500000 0.102339
O O3 0.144157 0.442933 0.183461
O O4 0.084446 0.461140 0.087689
O O5 0.133491 0.750000 0.313862
O O6 0.099541 0.477639 0.286412
O O7 0.137215 0.550551 0.391251
O O8 0.000000 0.621892 0.346544
O O9 0.180717 0.750000 0.742882
O O10 0.250000 0.000000 0.737198
O O11 0.500000 0.044391 0.450299
O O12 0.389146 0.250000 0.464391
O O13 0.357723 0.000000 0.500000
O O14 0.500000 0.750000 0.044609
O O15 0.500000 0.000000 0.000000
#
# Coordination Sequence:
#
# PCOD8279943 Si02
#       5
#    16  16  16  16   8
#     4   9  20  38  59  82 114 150 187 231 279 327
#     4   9  18  31  47  72 104 134 167 213 265 314
#     4  10  20  34  54  76 102 137 175 215 264 320
#     4   8  14  25  41  62  92 128 164 206 256 308
#     4  10  22  40  60  86 118 152 187 230 275 322
#
# _framework density 19.405265
#
# number of rings (size 3 to 8) (size 9 to 14) (size 15 to 20)
#    0.000    2.889    0.000    2.000    1.556    3.556 
#    0.000    4.444    0.000    0.667    0.000    4.667 
#    0.000    0.000    0.000    0.000    0.000    0.000 
#
# Total GULP energy -446033.414558 kJ/mol
# GULP energy per Si atom -12389.817071 kJ/mol
# Density = 1.936110 g / cm^3
# Si number density = 19.405265 Si / 1000 Ang^3
#
#
#
# Elastic Constant Matrix: (Units=GPa)
#
#
# Indices 1 2 3 4 5 6 
#
# 1 79.3883 42.9948 54.8370 0.0000 0.0000 0.0000
# 2 42.9948 97.2613 75.0500 0.0000 0.0000 0.0000
# 3 54.8370 75.0500 129.5733 0.0000 0.0000 0.0000
# 4 0.0000 0.0000 0.0000 38.2661 0.0000 0.0000
# 5 0.0000 0.0000 0.0000 0.0000 -1.1268 0.0000
# 6 0.0000 0.0000 0.0000 0.0000 0.0000 26.8593
#
#
#
# Elastic Compliance Matrix: (Units=1/GPa)
#
#
# Indices 1 2 3 4 5 6 
#
# 1 0.018575 -0.003879 -0.005615 0.000000 0.000000 0.000000
# 2 -0.003879 0.019400 -0.009595 0.000000 0.000000 0.000000
# 3 -0.005615 -0.009595 0.015651 0.000000 0.000000 0.000000
# 4 0.000000 0.000000 0.000000 0.026133 0.000000 0.000000
# 5 0.000000 0.000000 0.000000 0.000000 -0.887444 0.000000
# 6 0.000000 0.000000 0.000000 0.000000 0.000000 0.037231
#
#
# Mechanical properties :
#
#
# Convention : Reuss Voigt Hill
#
# Bulk Modulus (GPa) = 64.72670 72.44296 68.58483
# Shear Modulus (GPa) = -6.87638 21.68913 7.40637
#
# Velocity S-wave (km/s) = -1.88448 3.34682 1.95575
# Velocity P-wave (km/s) = 5.35655 7.23516 6.36554
#
# Compressibility (1/GPa) = 0.01544958
#
# Stress axis : x y z
#
# Youngs Moduli (GPa) = 53.83504 51.54584 63.89203
#
# Poissons Ratio (x) = 0.19994 0.35873
# Poissons Ratio (y) = 0.20882 0.61306
# Poissons Ratio (z) = 0.30226 0.49459
#
# Static dielectric constant tensor:
#      x y z
#    x 3.265760 0.000000 0.000000 
#    y 0.000000 3.613850 0.000000 
#    z 0.000000 0.000000 3.672210 
# 
# 
# High freq. dielectric constant tensor:
#      x y z
#    x 1.725120 0.000000 0.000000 
#    y 0.000000 1.753180 0.000000 
#    z 0.000000 0.000000 1.763970 
# 
# From -- ./inp_files/40499.got.cif
#   From: 2010.03.12/outbox.cif.g09.slc.cpg/sg67_21_cif.got.tgz:40499.got - 2010.04.10 22:41:39.
