data_PCOD8279543
_publ_section_title
;
Structure prediction by ZEFSAII (Michael W. Deem and Ramdas Pophale) SiO2 
 PCOD8279543
Probable space group: C M M A
;
_chemical_formula_sum "Si O2"
_cell_formula_units_Z 104
_cell_length_a 8.914599
_cell_length_b 30.369654
_cell_length_c 23.065092
_cell_angle_alpha 90.000000
_cell_angle_beta 90.000000
_cell_angle_gamma 90.000000
_cell_volume 6244.488176
_symmetry_space_group_name_H-M "C M M A"
_symmetry_group_IT_number 67
_symmetry_cell_setting 'orthorhombic'
loop_
_space_group_symop_operation_xyz
x,y,z
-x,1/2-y,z
x,-y,-z
-x,1/2+y,-z
-x,-y,-z
x,1/2+y,-z
-x,y,z
x,1/2-y,z
1/2+x,1/2+y,z
1/2-x,-y,z
1/2+x,1/2-y,-z
1/2-x,y,-z
1/2-x,1/2-y,-z
1/2+x,y,-z
1/2-x,1/2+y,z
1/2+x,-y,z
loop_
_atom_site_type_symbol
_atom_site_label
_atom_site_fract_x
_atom_site_fract_y
_atom_site_fract_z
Si Si1 0.323879 0.841325 0.113138
Si Si2 0.168963 0.750000 0.940802
Si Si3 0.321101 0.579584 0.941682
Si Si4 0.322359 0.300437 0.675492
Si Si5 0.674943 0.044394 0.183253
Si Si6 0.176266 0.363664 0.768759
Si Si7 0.667522 0.698009 0.556286
O O1 0.500000 0.851725 0.122781
O O2 0.290826 0.791759 0.096935
O O3 0.254744 0.872393 0.063366
O O4 0.227791 0.844836 0.170657
O O5 0.000000 0.750000 0.960043
O O6 0.250000 0.750000 0.000000
O O7 0.500000 0.583012 0.947564
O O8 0.272486 0.553705 0.883195
O O9 0.250000 0.557396 0.000000
O O10 0.500000 0.302982 0.674608
O O11 0.271660 0.250000 0.691357
O O12 0.261911 0.337104 0.719232
O O13 0.261379 0.314554 0.612945
O O14 0.500000 0.036671 0.182719
O O15 0.716335 0.084001 0.227887
O O16 0.750000 0.000000 0.206680
O O17 0.000000 0.356445 0.760143
O O18 0.500000 0.677997 0.561047
O O19 0.657231 0.750000 0.549195
O O20 0.750000 0.677613 0.500000
#
# Coordination Sequence:
#
# PCOD8279543 Si02
#       7
#    16   8  16  16  16  16  16
#     4  10  20  34  49  66  89 120 153 195 240 285
#     4  10  22  34  46  64  86 112 151 194 233 278
#     4  10  20  34  50  71  94 117 147 187 234 293
#     4  10  20  32  48  72 102 137 175 211 243 283
#     4   9  20  36  53  72  95 120 153 194 242 298
#     4  10  21  36  51  72  98 126 160 200 243 291
#     4   9  16  27  44  67  98 136 175 212 248 285
#
# _framework density 16.654686999999999
#
# number of rings (size 3 to 8) (size 9 to 14) (size 15 to 20)
#    0.000    2.308    0.000    3.692    1.077    9.231 
#    0.000    1.538    0.000    0.000    0.000    0.000 
#    0.000    0.615    0.000    6.462    0.000    3.846 
#
# Total GULP energy -644512.776914 kJ/mol
# GULP energy per Si atom -12394.476479 kJ/mol
# Density = 1.661678 g / cm^3
# Si number density = 16.654687 Si / 1000 Ang^3
#
#
#
# Elastic Constant Matrix: (Units=GPa)
#
#
# Indices 1 2 3 4 5 6 
#
# 1 61.6682 40.1524 27.1395 0.0000 0.0000 0.0000
# 2 40.1524 91.1404 34.1280 0.0000 0.0000 0.0000
# 3 27.1395 34.1280 83.5640 0.0000 0.0000 0.0000
# 4 0.0000 0.0000 0.0000 16.0015 0.0000 0.0000
# 5 0.0000 0.0000 0.0000 0.0000 33.8981 0.0000
# 6 0.0000 0.0000 0.0000 0.0000 0.0000 24.7893
#
#
#
# Elastic Compliance Matrix: (Units=1/GPa)
#
#
# Indices 1 2 3 4 5 6 
#
# 1 0.023861 -0.008984 -0.004080 0.000000 0.000000 0.000000
# 2 -0.008984 0.016336 -0.003754 0.000000 0.000000 0.000000
# 3 -0.004080 -0.003754 0.014825 0.000000 0.000000 0.000000
# 4 0.000000 0.000000 0.000000 0.062494 0.000000 0.000000
# 5 0.000000 0.000000 0.000000 0.000000 0.029500 0.000000
# 6 0.000000 0.000000 0.000000 0.000000 0.000000 0.040340
#
#
# Mechanical properties :
#
#
# Convention : Reuss Voigt Hill
#
# Bulk Modulus (GPa) = 46.76082 48.80137 47.78110
# Shear Modulus (GPa) = 21.91813 23.93462 22.92637
#
# Velocity S-wave (km/s) = 3.63165 3.79504 3.71424
# Velocity P-wave (km/s) = 6.76187 6.96911 6.86627
#
# Compressibility (1/GPa) = 0.02138542
#
# Stress axis : x y z
#
# Youngs Moduli (GPa) = 41.90902 61.21535 67.45313
#
# Poissons Ratio (x) = 0.54998 0.27523
# Poissons Ratio (y) = 0.37652 0.25320
# Poissons Ratio (z) = 0.17100 0.22979
#
# Static dielectric constant tensor:
#      x y z
#    x 3.276760 0.000000 0.000000 
#    y 0.000000 3.868670 0.000000 
#    z 0.000000 0.000000 3.908170 
# 
# 
# High freq. dielectric constant tensor:
#      x y z
#    x 1.658550 0.000000 0.000000 
#    y 0.000000 1.617050 0.000000 
#    z 0.000000 0.000000 1.627370 
# 
# From -- ./inp_files/40193.got.cif
#   From: 2010.03.12/outbox.cif.g09.slc.cpg/sg67_21_cif.got.tgz:40193.got - 2010.04.10 22:41:39.
