data_PCOD8279287
_publ_section_title
;
Structure prediction by ZEFSAII (Michael W. Deem and Ramdas Pophale) SiO2 
 PCOD8279287
Probable space group: C M M A
;
_chemical_formula_sum "Si O2"
_cell_formula_units_Z 80
_cell_length_a 18.372782
_cell_length_b 24.944351
_cell_length_c 9.409360
_cell_angle_alpha 90.000000
_cell_angle_beta 90.000000
_cell_angle_gamma 90.000000
_cell_volume 4312.282618
_symmetry_space_group_name_H-M "C M M A"
_symmetry_group_IT_number 67
_symmetry_cell_setting 'orthorhombic'
loop_
_space_group_symop_operation_xyz
x,y,z
-x,1/2-y,z
x,-y,-z
-x,1/2+y,-z
-x,-y,-z
x,1/2+y,-z
-x,y,z
x,1/2-y,z
1/2+x,1/2+y,z
1/2-x,-y,z
1/2+x,1/2-y,-z
1/2-x,y,-z
1/2-x,1/2-y,-z
1/2+x,y,-z
1/2-x,1/2+y,z
1/2+x,-y,z
loop_
_atom_site_type_symbol
_atom_site_label
_atom_site_fract_x
_atom_site_fract_y
_atom_site_fract_z
Si Si1 0.417379 0.998347 0.668723
Si Si2 0.679047 0.311285 0.087258
Si Si3 0.174156 0.398651 0.676402
Si Si4 0.841808 0.603585 0.646297
Si Si5 0.917967 0.188788 0.173423
O O1 0.500000 0.989893 0.719067
O O2 0.388816 0.056238 0.719005
O O3 0.409091 0.000000 0.500000
O O4 0.369087 0.950540 0.735999
O O5 0.691558 0.250000 0.138195
O O6 0.662601 0.347429 0.223906
O O7 0.750000 0.331341 0.000000
O O8 0.608217 0.316177 0.988672
O O9 0.142390 0.385945 0.520116
O O10 0.258704 0.413000 0.669487
O O11 0.862511 0.658085 0.724499
O O12 0.915152 0.250000 0.224012
O O13 0.000000 0.166018 0.184570
#
# Coordination Sequence:
#
# PCOD8279287 Si02
#       5
#    16  16  16  16  16
#     4   9  18  33  53  78 111 147 179 221 279 333
#     4  10  20  37  57  79 110 148 186 227 279 334
#     4  10  20  33  57  85 109 141 186 232 275 325
#     4  10  19  34  56  84 112 142 182 230 278 331
#     4  10  21  37  57  80 110 149 185 221 277 342
#
# _framework density 18.551659999999998
#
# number of rings (size 3 to 8) (size 9 to 14) (size 15 to 20)
#    0.000    2.200    2.000    1.200    0.000    4.800 
#    0.000    3.000    0.000    4.800    0.000    0.000 
#    0.000    0.000    0.000    0.000    0.000    0.000 
#
# Total GULP energy -495996.230927 kJ/mol
# GULP energy per Si atom -12399.905773 kJ/mol
# Density = 1.850944 g / cm^3
# Si number density = 18.551660 Si / 1000 Ang^3
#
#
#
# Elastic Constant Matrix: (Units=GPa)
#
#
# Indices 1 2 3 4 5 6 
#
# 1 107.9468 50.3907 27.9328 0.0000 0.0000 0.0000
# 2 50.3907 117.9547 56.5858 0.0000 0.0000 0.0000
# 3 27.9328 56.5858 65.6331 0.0000 0.0000 0.0000
# 4 0.0000 0.0000 0.0000 18.5568 0.0000 0.0000
# 5 0.0000 0.0000 0.0000 0.0000 21.6752 0.0000
# 6 0.0000 0.0000 0.0000 0.0000 0.0000 32.2206
#
#
#
# Elastic Compliance Matrix: (Units=1/GPa)
#
#
# Indices 1 2 3 4 5 6 
#
# 1 0.011621 -0.004420 -0.001135 0.000000 0.000000 0.000000
# 2 -0.004420 0.016138 -0.012033 0.000000 0.000000 0.000000
# 3 -0.001135 -0.012033 0.026093 0.000000 0.000000 0.000000
# 4 0.000000 0.000000 0.000000 0.053889 0.000000 0.000000
# 5 0.000000 0.000000 0.000000 0.000000 0.046136 0.000000
# 6 0.000000 0.000000 0.000000 0.000000 0.000000 0.031036
#
#
# Mechanical properties :
#
#
# Convention : Reuss Voigt Hill
#
# Bulk Modulus (GPa) = 53.54127 62.37256 57.95691
# Shear Modulus (GPa) = 22.09319 24.93222 23.51271
#
# Velocity S-wave (km/s) = 3.45469 3.66995 3.56394
# Velocity P-wave (km/s) = 6.69600 7.18693 6.94581
#
# Compressibility (1/GPa) = 0.01867718
#
# Stress axis : x y z
#
# Youngs Moduli (GPa) = 86.05258 61.96382 38.32394
#
# Poissons Ratio (x) = 0.27388 0.04350
# Poissons Ratio (y) = 0.38035 0.46114
# Poissons Ratio (z) = 0.09767 0.74559
#
# Static dielectric constant tensor:
#      x y z
#    x 3.531820 0.000000 0.000000 
#    y 0.000000 3.446470 0.000000 
#    z 0.000000 0.000000 3.131640 
# 
# 
# High freq. dielectric constant tensor:
#      x y z
#    x 1.730110 0.000000 0.000000 
#    y 0.000000 1.724020 0.000000 
#    z 0.000000 0.000000 1.687880 
# 
# From -- ./inp_files/9971.got.cif
#   From: 2010.03.12/outbox.cif.g09.slc.cpg/sg67_5_cif.got.tgz:9971.got - 2010.04.10 22:41:39.
