data_PCOD8279309
_publ_section_title
;
Structure prediction by ZEFSAII (Michael W. Deem and Ramdas Pophale) SiO2 
 PCOD8279309
Probable space group: C M M A
;
_chemical_formula_sum "Si O2"
_cell_formula_units_Z 80
_cell_length_a 14.745463
_cell_length_b 24.066877
_cell_length_c 9.698565
_cell_angle_alpha 90.000000
_cell_angle_beta 90.000000
_cell_angle_gamma 90.000000
_cell_volume 3441.800021
_symmetry_space_group_name_H-M "C M M A"
_symmetry_group_IT_number 67
_symmetry_cell_setting 'orthorhombic'
loop_
_space_group_symop_operation_xyz
x,y,z
-x,1/2-y,z
x,-y,-z
-x,1/2+y,-z
-x,-y,-z
x,1/2+y,-z
-x,y,z
x,1/2-y,z
1/2+x,1/2+y,z
1/2-x,-y,z
1/2+x,1/2-y,-z
1/2-x,y,-z
1/2-x,1/2-y,-z
1/2+x,y,-z
1/2-x,1/2+y,z
1/2+x,-y,z
loop_
_atom_site_type_symbol
_atom_site_label
_atom_site_fract_x
_atom_site_fract_y
_atom_site_fract_z
Si Si1 0.107889 0.852757 0.551031
Si Si2 0.891838 0.647819 0.235332
Si Si3 0.392434 0.750000 0.263426
Si Si4 0.847320 0.028174 0.368529
Si Si5 0.891937 0.250000 0.948815
Si Si6 0.899596 0.466929 0.878247
O O1 0.139832 0.841616 0.393252
O O2 0.140741 0.803295 0.650480
O O3 0.159755 0.906047 0.610888
O O4 0.000000 0.861637 0.557760
O O5 0.855974 0.696453 0.135198
O O6 0.851175 0.589555 0.175905
O O7 0.000000 0.645255 0.235168
O O8 0.500000 0.750000 0.255105
O O9 0.353106 0.750000 0.106123
O O10 0.894900 0.000000 0.500000
O O11 0.750000 0.000000 0.344371
O O12 0.909897 0.012649 0.240953
O O13 0.000000 0.250000 0.952464
O O14 0.000000 0.450581 0.931678
O O15 0.846217 0.500000 0.000000
#
# Coordination Sequence:
#
# PCOD8279309 Si02
#       6
#    16  16   8  16   8  16
#     4  10  19  34  58  86 118 154 195 244 297 352
#     4   9  17  30  49  76 112 149 182 228 292 352
#     4   9  19  31  53  89 119 148 190 245 303 352
#     4  11  23  38  57  82 118 156 200 244 292 352
#     4   9  17  29  47  78 118 148 180 235 294 351
#     4  10  21  35  56  85 113 146 193 244 300 359
#
# _framework density 23.243651
#
# number of rings (size 3 to 8) (size 9 to 14) (size 15 to 20)
#    0.000    2.200    2.000    1.200    2.800    3.600 
#    0.000    0.000    0.000    3.600    0.000    1.400 
#    0.000    0.000    0.000    0.000    0.000    0.000 
#
# Total GULP energy -495749.307197 kJ/mol
# GULP energy per Si atom -12393.732680 kJ/mol
# Density = 2.319075 g / cm^3
# Si number density = 23.243651 Si / 1000 Ang^3
#
#
#
# Elastic Constant Matrix: (Units=GPa)
#
#
# Indices 1 2 3 4 5 6 
#
# 1 22.4187 12.4572 2.8329 0.0000 0.0000 0.0000
# 2 12.4572 228.4781 129.2720 0.0000 0.0000 0.0000
# 3 2.8329 129.2720 217.5749 0.0000 0.0000 0.0000
# 4 0.0000 0.0000 0.0000 51.2393 0.0000 0.0000
# 5 0.0000 0.0000 0.0000 0.0000 -0.5033 0.0000
# 6 0.0000 0.0000 0.0000 0.0000 0.0000 15.9784
#
#
#
# Elastic Compliance Matrix: (Units=1/GPa)
#
#
# Indices 1 2 3 4 5 6 
#
# 1 0.046261 -0.003286 0.001350 0.000000 0.000000 0.000000
# 2 -0.003286 0.006827 -0.004013 0.000000 0.000000 0.000000
# 3 0.001350 -0.004013 0.006963 0.000000 0.000000 0.000000
# 4 0.000000 0.000000 0.000000 0.019516 0.000000 0.000000
# 5 0.000000 0.000000 0.000000 0.000000 -1.986802 0.000000
# 6 0.000000 0.000000 0.000000 0.000000 0.000000 0.062584
#
#
# Mechanical properties :
#
#
# Convention : Reuss Voigt Hill
#
# Bulk Modulus (GPa) = 20.76754 84.17731 52.47243
# Shear Modulus (GPa) = -2.75224 34.93686 16.09231
#
# Velocity S-wave (km/s) = -1.08934 3.88115 2.63407
# Velocity P-wave (km/s) = 2.71513 7.50855 5.64580
#
# Compressibility (1/GPa) = 0.04815207
#
# Stress axis : x y z
#
# Youngs Moduli (GPa) = 21.61649 146.48494 143.61600
#
# Poissons Ratio (x) = 0.48137 -0.19390
# Poissons Ratio (y) = 0.07104 0.57637
# Poissons Ratio (z) = -0.02918 0.58788
#
# Static dielectric constant tensor:
#      x y z
#    x 3.446530 0.000000 0.000000 
#    y 0.000000 4.328890 0.000000 
#    z 0.000000 0.000000 4.542620 
# 
# 
# High freq. dielectric constant tensor:
#      x y z
#    x 1.874280 0.000000 0.000000 
#    y 0.000000 1.924710 0.000000 
#    z 0.000000 0.000000 1.932150 
# 
# From -- ./inp_files/11147.got.cif
#   From: 2010.03.12/outbox.cif.g09.slc.cpg/sg67_6_cif.got.tgz:11147.got - 2010.04.10 22:41:39.
