data_PCOD8279883
_publ_section_title
;
Structure prediction by ZEFSAII (Michael W. Deem and Ramdas Pophale) SiO2 
 PCOD8279883
Probable space group: C M M A
;
_chemical_formula_sum "Si O2"
_cell_formula_units_Z 104
_cell_length_a 8.968856
_cell_length_b 29.720440
_cell_length_c 23.210178
_cell_angle_alpha 90.000000
_cell_angle_beta 90.000000
_cell_angle_gamma 90.000000
_cell_volume 6186.866672
_symmetry_space_group_name_H-M "C M M A"
_symmetry_group_IT_number 67
_symmetry_cell_setting 'orthorhombic'
loop_
_space_group_symop_operation_xyz
x,y,z
-x,1/2-y,z
x,-y,-z
-x,1/2+y,-z
-x,-y,-z
x,1/2+y,-z
-x,y,z
x,1/2-y,z
1/2+x,1/2+y,z
1/2-x,-y,z
1/2+x,1/2-y,-z
1/2-x,y,-z
1/2-x,1/2-y,-z
1/2+x,y,-z
1/2-x,1/2+y,z
1/2+x,-y,z
loop_
_atom_site_type_symbol
_atom_site_label
_atom_site_fract_x
_atom_site_fract_y
_atom_site_fract_z
Si Si1 0.668336 0.168832 0.389534
Si Si2 0.674756 0.697006 0.817260
Si Si3 0.171713 0.074222 0.559555
Si Si4 0.671444 0.250000 0.559760
Si Si5 0.172334 0.198783 0.945676
Si Si6 0.172640 0.360980 0.278106
Si Si7 0.172143 0.043802 0.323940
O O1 0.500000 0.187876 0.389074
O O2 0.681898 0.128079 0.434468
O O3 0.786387 0.206252 0.405257
O O4 0.712423 0.155213 0.325784
O O5 0.500000 0.690483 0.803249
O O6 0.716077 0.750000 0.808096
O O7 0.710263 0.679919 0.882254
O O8 0.776880 0.663663 0.779994
O O9 0.250000 0.059377 0.500000
O O10 0.253713 0.052402 0.613880
O O11 0.000000 0.058310 0.558590
O O12 0.500000 0.250000 0.546704
O O13 0.750000 0.250000 0.500000
O O14 0.227725 0.250000 0.944687
O O15 0.000000 0.195065 0.957940
O O16 0.250000 0.173308 0.000000
O O17 0.190784 0.415309 0.278164
O O18 0.000000 0.348541 0.291367
O O19 0.000000 0.033831 0.335659
O O20 0.250000 0.000000 0.295930
#
# Coordination Sequence:
#
# PCOD8279883 Si02
#       7
#    16  16  16   8  16  16  16
#     4  10  21  36  52  68  90 123 157 194 241 287
#     4   9  18  31  47  69 100 138 174 206 238 281
#     4  10  20  34  53  74  95 119 148 185 234 291
#     4  12  24  36  50  68  90 118 157 200 239 284
#     4   8  14  25  41  63  93 130 170 207 242 275
#     4  10  21  35  51  73  99 126 159 202 244 285
#     4  10  21  37  55  74  96 121 153 194 242 294
#
# _framework density 16.809801
#
# number of rings (size 3 to 8) (size 9 to 14) (size 15 to 20)
#    0.000    2.308    0.000    3.923    1.077    6.154 
#    0.000    3.077    0.000    0.000    0.000    0.000 
#    0.000    0.615    0.000    6.769    0.000    5.231 
#
# Total GULP energy -644450.764345 kJ/mol
# GULP energy per Si atom -12393.283930 kJ/mol
# Density = 1.677154 g / cm^3
# Si number density = 16.809801 Si / 1000 Ang^3
#
#
#
# Elastic Constant Matrix: (Units=GPa)
#
#
# Indices 1 2 3 4 5 6 
#
# 1 102.9695 39.8859 32.2274 0.0000 0.0000 0.0000
# 2 39.8859 75.0028 27.6246 0.0000 0.0000 0.0000
# 3 32.2274 27.6246 77.7059 0.0000 0.0000 0.0000
# 4 0.0000 0.0000 0.0000 9.8078 0.0000 0.0000
# 5 0.0000 0.0000 0.0000 0.0000 30.8759 0.0000
# 6 0.0000 0.0000 0.0000 0.0000 0.0000 25.2825
#
#
#
# Elastic Compliance Matrix: (Units=1/GPa)
#
#
# Indices 1 2 3 4 5 6 
#
# 1 0.012953 -0.005649 -0.003364 0.000000 0.000000 0.000000
# 2 -0.005649 0.017806 -0.003987 0.000000 0.000000 0.000000
# 3 -0.003364 -0.003987 0.015681 0.000000 0.000000 0.000000
# 4 0.000000 0.000000 0.000000 0.101960 0.000000 0.000000
# 5 0.000000 0.000000 0.000000 0.000000 0.032388 0.000000
# 6 0.000000 0.000000 0.000000 0.000000 0.000000 0.039553
#
#
# Mechanical properties :
#
#
# Convention : Reuss Voigt Hill
#
# Bulk Modulus (GPa) = 48.92379 50.57268 49.74823
# Shear Modulus (GPa) = 19.75090 23.58924 21.67007
#
# Velocity S-wave (km/s) = 3.43149 3.75013 3.59435
# Velocity P-wave (km/s) = 6.69834 6.99299 6.84725
#
# Compressibility (1/GPa) = 0.02043995
#
# Stress axis : x y z
#
# Youngs Moduli (GPa) = 77.20441 56.16239 63.76975
#
# Poissons Ratio (x) = 0.31728 0.21450
# Poissons Ratio (y) = 0.43615 0.25425
# Poissons Ratio (z) = 0.25968 0.22392
#
# Static dielectric constant tensor:
#      x y z
#    x 3.231160 0.000000 0.000000 
#    y 0.000000 3.113270 0.000000 
#    z 0.000000 0.000000 3.233840 
# 
# 
# High freq. dielectric constant tensor:
#      x y z
#    x 1.663090 0.000000 0.000000 
#    y 0.000000 1.623200 0.000000 
#    z 0.000000 0.000000 1.631740 
# 
# From -- ./inp_files/40233.got.cif
#   From: 2010.03.12/outbox.cif.g09.slc.cpg/sg67_21_cif.got.tgz:40233.got - 2010.04.10 22:41:39.
