data_PCOD8279084
_publ_section_title
;
Structure prediction by ZEFSAII (Michael W. Deem and Ramdas Pophale) SiO2 
 PCOD8279084
Probable space group: C M M A
;
_chemical_formula_sum "Si O2"
_cell_formula_units_Z 128
_cell_length_a 18.821814
_cell_length_b 23.087820
_cell_length_c 18.092553
_cell_angle_alpha 90.000000
_cell_angle_beta 90.000000
_cell_angle_gamma 90.000000
_cell_volume 7862.203104
_symmetry_space_group_name_H-M "C M M A"
_symmetry_group_IT_number 67
_symmetry_cell_setting 'orthorhombic'
loop_
_space_group_symop_operation_xyz
x,y,z
-x,1/2-y,z
x,-y,-z
-x,1/2+y,-z
-x,-y,-z
x,1/2+y,-z
-x,y,z
x,1/2-y,z
1/2+x,1/2+y,z
1/2-x,-y,z
1/2+x,1/2-y,-z
1/2-x,y,-z
1/2-x,1/2-y,-z
1/2+x,y,-z
1/2-x,1/2+y,z
1/2+x,-y,z
loop_
_atom_site_type_symbol
_atom_site_label
_atom_site_fract_x
_atom_site_fract_y
_atom_site_fract_z
Si Si1 0.582450 0.183608 0.716558
Si Si2 0.916415 0.380375 0.868798
Si Si3 0.829893 0.681120 0.580061
Si Si4 0.417150 0.816796 0.720362
Si Si5 0.168016 0.817600 0.002480
Si Si6 0.915874 0.370662 0.129273
Si Si7 0.669744 0.318776 0.417963
Si Si8 0.416629 0.495352 0.918176
O O1 0.500000 0.178522 0.699664
O O2 0.605185 0.250000 0.730091
O O3 0.621327 0.155983 0.645346
O O4 0.604561 0.147438 0.788133
O O5 0.892645 0.354187 0.790578
O O6 0.897451 0.448670 0.868922
O O7 0.000000 0.369646 0.883753
O O8 0.872405 0.350536 0.932921
O O9 0.833525 0.750000 0.580639
O O10 0.749940 0.659875 0.595097
O O11 0.856171 0.659093 0.499036
O O12 0.500000 0.823175 0.705740
O O13 0.396011 0.750000 0.735057
O O14 0.378935 0.843233 0.647969
O O15 0.163371 0.750000 0.019640
O O16 0.128608 0.830470 0.925723
O O17 0.250000 0.838089 0.000000
O O18 0.889703 0.436952 0.121012
O O19 0.000000 0.362205 0.113827
O O20 0.665821 0.250000 0.416745
O O21 0.500000 0.490186 0.928090
O O22 0.381895 0.500000 0.000000
#
# Coordination Sequence:
#
# PCOD8279084 Si02
#       8
#    16  16  16  16  16  16  16  16
#     4   9  17  27  41  65  93 118 145 180 223 268
#     4  10  19  33  51  68  89 119 155 191 229 274
#     4   8  14  25  41  61  87 120 151 176 211 263
#     4   9  17  27  41  65  93 118 145 180 223 268
#     4  11  23  34  45  66  94 121 150 185 228 275
#     4  10  19  33  51  68  89 119 155 191 229 274
#     4   8  14  25  41  61  87 120 151 176 211 263
#     4   9  16  30  52  72  85 110 155 199 232 266
#
# _framework density 16.280424
#
# number of rings (size 3 to 8) (size 9 to 14) (size 15 to 20)
#    0.000    2.750    1.250    1.875    0.000    3.500 
#    0.000    6.250    0.000    0.000    0.000    0.875 
#    0.000    7.000    0.000    0.000    0.000    0.000 
#
# Total GULP energy -793319.421364 kJ/mol
# GULP energy per Si atom -12395.615959 kJ/mol
# Density = 1.624337 g / cm^3
# Si number density = 16.280424 Si / 1000 Ang^3
#
#
#
# Elastic Constant Matrix: (Units=GPa)
#
#
# Indices 1 2 3 4 5 6 
#
# 1 51.9964 18.3356 51.3057 0.0000 0.0000 0.0000
# 2 18.3356 53.8842 35.9020 0.0000 0.0000 0.0000
# 3 51.3057 35.9020 146.1404 0.0000 0.0000 0.0000
# 4 0.0000 0.0000 0.0000 3.2582 0.0000 0.0000
# 5 0.0000 0.0000 0.0000 0.0000 22.5457 0.0000
# 6 0.0000 0.0000 0.0000 0.0000 0.0000 10.5402
#
#
#
# Elastic Compliance Matrix: (Units=1/GPa)
#
#
# Indices 1 2 3 4 5 6 
#
# 1 0.030070 -0.003824 -0.009617 0.000000 0.000000 0.000000
# 2 -0.003824 0.022677 -0.004228 0.000000 0.000000 0.000000
# 3 -0.009617 -0.004228 0.011258 0.000000 0.000000 0.000000
# 4 0.000000 0.000000 0.000000 0.306919 0.000000 0.000000
# 5 0.000000 0.000000 0.000000 0.000000 0.044354 0.000000
# 6 0.000000 0.000000 0.000000 0.000000 0.000000 0.094875
#
#
# Mechanical properties :
#
#
# Convention : Reuss Voigt Hill
#
# Bulk Modulus (GPa) = 34.88581 51.45639 43.17110
# Shear Modulus (GPa) = 9.00823 17.03401 13.02112
#
# Velocity S-wave (km/s) = 2.35482 3.23815 2.83115
# Velocity P-wave (km/s) = 5.37291 6.75690 6.10425
#
# Compressibility (1/GPa) = 0.02866495
#
# Stress axis : x y z
#
# Youngs Moduli (GPa) = 33.25553 44.09760 88.82706
#
# Poissons Ratio (x) = 0.16865 0.85427
# Poissons Ratio (y) = 0.12718 0.37559
# Poissons Ratio (z) = 0.31983 0.18646
#
# Static dielectric constant tensor:
#      x y z
#    x 3.034060 0.000000 0.000000 
#    y 0.000000 2.932810 0.000000 
#    z 0.000000 0.000000 3.415420 
# 
# 
# High freq. dielectric constant tensor:
#      x y z
#    x 1.612940 0.000000 0.000000 
#    y 0.000000 1.589210 0.000000 
#    z 0.000000 0.000000 1.635720 
# 
# From -- ./inp_files/35267.got.cif
#   From: 2010.03.12/outbox.cif.g09.slc.cpg/sg67_18_cif.got.tgz:35267.got - 2010.04.10 22:41:39.
