data_PCOD8279150
_publ_section_title
;
Structure prediction by ZEFSAII (Michael W. Deem and Ramdas Pophale) SiO2 
 PCOD8279150
Probable space group: C M M A
;
_chemical_formula_sum "Si O2"
_cell_formula_units_Z 80
_cell_length_a 15.173057
_cell_length_b 10.226655
_cell_length_c 27.831057
_cell_angle_alpha 90.000000
_cell_angle_beta 90.000000
_cell_angle_gamma 90.000000
_cell_volume 4318.534518
_symmetry_space_group_name_H-M "C M M A"
_symmetry_group_IT_number 67
_symmetry_cell_setting 'orthorhombic'
loop_
_space_group_symop_operation_xyz
x,y,z
-x,1/2-y,z
x,-y,-z
-x,1/2+y,-z
-x,-y,-z
x,1/2+y,-z
-x,y,z
x,1/2-y,z
1/2+x,1/2+y,z
1/2-x,-y,z
1/2+x,1/2-y,-z
1/2-x,y,-z
1/2-x,1/2-y,-z
1/2+x,y,-z
1/2-x,1/2+y,z
1/2+x,-y,z
loop_
_atom_site_type_symbol
_atom_site_label
_atom_site_fract_x
_atom_site_fract_y
_atom_site_fract_z
Si Si1 0.842702 0.888781 0.972002
Si Si2 0.000000 0.595118 0.699955
Si Si3 0.897864 0.897327 0.539418
Si Si4 0.500000 0.904251 0.192640
Si Si5 0.172912 0.402014 0.356076
Si Si6 0.323961 0.402457 0.860509
O O1 0.892930 0.750000 0.975105
O O2 0.830273 0.927345 0.917061
O O3 0.750000 0.877840 0.000000
O O4 0.899168 0.000000 0.000000
O O5 0.000000 0.535494 0.753746
O O6 0.087001 0.547920 0.672283
O O7 0.000000 0.750000 0.700925
O O8 0.884628 0.750000 0.519424
O O9 0.842284 0.918046 0.587333
O O10 0.000000 0.922854 0.551666
O O11 0.863097 0.000000 0.500000
O O12 0.500000 0.750000 0.196428
O O13 0.585876 0.950015 0.163835
O O14 0.195645 0.250000 0.343786
O O15 0.250000 0.500000 0.339782
O O16 0.301874 0.250000 0.849103
O O17 0.250000 0.500000 0.839368
#
# Coordination Sequence:
#
# PCOD8279150 Si02
#       6
#    16   8  16   8  16  16
#     4   9  15  25  45  70  99 136 169 200 247 301
#     4   9  18  38  60  75 103 141 177 221 274 325
#     4   9  17  31  51  76 108 146 181 215 260 314
#     4   9  20  36  56  81 103 135 181 223 264 321
#     4  10  20  35  57  82 107 140 182 223 266 321
#     4  10  19  33  54  78 106 137 174 216 259 311
#
# _framework density 18.524804
#
# number of rings (size 3 to 8) (size 9 to 14) (size 15 to 20)
#    0.000    2.600    3.000    0.000    0.000    2.000 
#    0.000    3.500    0.000    1.200    0.000    0.000 
#    0.000    0.000    0.000    0.000    0.000    0.000 
#
# Total GULP energy -495678.199076 kJ/mol
# GULP energy per Si atom -12391.954977 kJ/mol
# Density = 1.848264 g / cm^3
# Si number density = 18.524804 Si / 1000 Ang^3
#
#
#
# Elastic Constant Matrix: (Units=GPa)
#
#
# Indices 1 2 3 4 5 6 
#
# 1 119.8084 58.5019 55.6951 0.0000 0.0000 0.0000
# 2 58.5019 104.6711 39.9083 0.0000 0.0000 0.0000
# 3 55.6951 39.9083 103.4754 0.0000 0.0000 0.0000
# 4 0.0000 0.0000 0.0000 -176.9884 0.0000 0.0000
# 5 0.0000 0.0000 0.0000 0.0000 16.2838 0.0000
# 6 0.0000 0.0000 0.0000 0.0000 0.0000 24.7338
#
#
#
# Elastic Compliance Matrix: (Units=1/GPa)
#
#
# Indices 1 2 3 4 5 6 
#
# 1 0.013427 -0.005568 -0.005079 0.000000 0.000000 0.000000
# 2 -0.005568 0.013510 -0.002214 0.000000 0.000000 0.000000
# 3 -0.005079 -0.002214 0.013252 0.000000 0.000000 0.000000
# 4 0.000000 0.000000 0.000000 -0.005650 0.000000 0.000000
# 5 0.000000 0.000000 0.000000 0.000000 0.061411 0.000000
# 6 0.000000 0.000000 0.000000 0.000000 0.000000 0.040431
#
#
# Mechanical properties :
#
#
# Convention : Reuss Voigt Hill
#
# Bulk Modulus (GPa) = 69.12471 70.68505 69.90488
# Shear Modulus (GPa) = 29.95395 -15.60420 7.17487
#
# Velocity S-wave (km/s) = 4.02551 -2.90546 1.97016
# Velocity P-wave (km/s) = 7.68128 5.19463 6.55691
#
# Compressibility (1/GPa) = 0.01446661
#
# Stress axis : x y z
#
# Youngs Moduli (GPa) = 74.47903 74.02181 75.46098
#
# Poissons Ratio (x) = 0.41212 0.38330
# Poissons Ratio (y) = 0.41467 0.16704
# Poissons Ratio (z) = 0.37832 0.16385
#
# Static dielectric constant tensor:
#      x y z
#    x 3.258710 0.000000 0.000000 
#    y 0.000000 4.521180 0.000000 
#    z 0.000000 0.000000 3.468930 
# 
# 
# High freq. dielectric constant tensor:
#      x y z
#    x 1.700220 0.000000 0.000000 
#    y 0.000000 1.708840 0.000000 
#    z 0.000000 0.000000 1.715470 
# 
# From -- ./inp_files/44289.got.cif
#   From: 2010.03.12/outbox.cif.g09.slc.cpg/sg67_23_cif.got.tgz:44289.got - 2010.04.10 22:41:39.
