data_PCOD8279556
_publ_section_title
;
Structure prediction by ZEFSAII (Michael W. Deem and Ramdas Pophale) SiO2 
 PCOD8279556
Probable space group: C M M A
;
_chemical_formula_sum "Si O2"
_cell_formula_units_Z 88
_cell_length_a 9.350480
_cell_length_b 21.850246
_cell_length_c 22.444734
_cell_angle_alpha 90.000000
_cell_angle_beta 90.000000
_cell_angle_gamma 90.000000
_cell_volume 4585.690073
_symmetry_space_group_name_H-M "C M M A"
_symmetry_group_IT_number 67
_symmetry_cell_setting 'orthorhombic'
loop_
_space_group_symop_operation_xyz
x,y,z
-x,1/2-y,z
x,-y,-z
-x,1/2+y,-z
-x,-y,-z
x,1/2+y,-z
-x,y,z
x,1/2-y,z
1/2+x,1/2+y,z
1/2-x,-y,z
1/2+x,1/2-y,-z
1/2-x,y,-z
1/2-x,1/2-y,-z
1/2+x,y,-z
1/2-x,1/2+y,z
1/2+x,-y,z
loop_
_atom_site_type_symbol
_atom_site_label
_atom_site_fract_x
_atom_site_fract_y
_atom_site_fract_z
Si Si1 0.661908 0.177535 0.555983
Si Si2 0.842008 0.424464 0.947642
Si Si3 0.667979 0.178864 0.326254
Si Si4 0.250000 0.000000 0.841690
Si Si5 0.837308 0.180291 0.103206
Si Si6 0.840526 0.881933 0.774907
O O1 0.500000 0.150647 0.557261
O O2 0.653648 0.250000 0.550229
O O3 0.750000 0.150298 0.500000
O O4 0.747461 0.158530 0.614936
O O5 0.855145 0.464324 0.887062
O O6 0.769718 0.359208 0.935896
O O7 0.000000 0.413793 0.972609
O O8 0.750000 0.456988 0.000000
O O9 0.500000 0.167856 0.336207
O O10 0.699004 0.250000 0.310624
O O11 0.722603 0.134027 0.274387
O O12 0.328389 0.048664 0.799356
O O13 0.797243 0.250000 0.091328
O O14 0.815867 0.166333 0.172693
O O15 0.000000 0.165026 0.084751
O O16 0.000000 0.874428 0.747928
#
# Coordination Sequence:
#
# PCOD8279556 Si02
#       6
#    16  16  16   8  16  16
#     4   9  16  27  45  70 103 142 180 217 258 304
#     4  11  23  38  58  81 104 132 167 209 257 309
#     4  10  20  32  48  75 110 144 178 215 256 306
#     4  10  23  40  58  78 101 130 170 216 262 312
#     4   9  19  36  56  78 106 138 170 206 252 308
#     4  10  20  35  55  77 102 134 172 215 262 309
#
# _framework density 19.190131999999998
#
# number of rings (size 3 to 8) (size 9 to 14) (size 15 to 20)
#    0.000    2.182    0.000    3.000    0.000   11.273 
#    0.000    0.000    0.000    0.000    0.000    0.636 
#    0.000    4.364    0.000    0.000    0.000    0.000 
#
# Total GULP energy -545428.310825 kJ/mol
# GULP energy per Si atom -12396.097973 kJ/mol
# Density = 1.914645 g / cm^3
# Si number density = 19.190132 Si / 1000 Ang^3
#
#
#
# Elastic Constant Matrix: (Units=GPa)
#
#
# Indices 1 2 3 4 5 6 
#
# 1 161.0179 40.7118 66.1096 0.0000 0.0000 0.0000
# 2 40.7118 82.9293 41.8625 0.0000 0.0000 0.0000
# 3 66.1096 41.8625 106.2459 0.0000 0.0000 0.0000
# 4 0.0000 0.0000 0.0000 15.7544 0.0000 0.0000
# 5 0.0000 0.0000 0.0000 0.0000 36.3663 0.0000
# 6 0.0000 0.0000 0.0000 0.0000 0.0000 7.6343
#
#
#
# Elastic Compliance Matrix: (Units=1/GPa)
#
#
# Indices 1 2 3 4 5 6 
#
# 1 0.008573 -0.001892 -0.004589 0.000000 0.000000 0.000000
# 2 -0.001892 0.015470 -0.004918 0.000000 0.000000 0.000000
# 3 -0.004589 -0.004918 0.014205 0.000000 0.000000 0.000000
# 4 0.000000 0.000000 0.000000 0.063474 0.000000 0.000000
# 5 0.000000 0.000000 0.000000 0.000000 0.027498 0.000000
# 6 0.000000 0.000000 0.000000 0.000000 0.000000 0.130988
#
#
# Mechanical properties :
#
#
# Convention : Reuss Voigt Hill
#
# Bulk Modulus (GPa) = 64.72464 71.95122 68.33793
# Shear Modulus (GPa) = 17.35168 25.38496 21.36832
#
# Velocity S-wave (km/s) = 3.01025 3.64100 3.34054
# Velocity P-wave (km/s) = 6.77373 7.43311 7.11107
#
# Compressibility (1/GPa) = 0.01545007
#
# Stress axis : x y z
#
# Youngs Moduli (GPa) = 116.64588 64.64127 70.39680
#
# Poissons Ratio (x) = 0.12232 0.32304
# Poissons Ratio (y) = 0.22072 0.34621
# Poissons Ratio (z) = 0.53526 0.31791
#
# Static dielectric constant tensor:
#      x y z
#    x 3.580490 0.000000 0.000000 
#    y 0.000000 3.227800 0.000000 
#    z 0.000000 0.000000 3.490460 
# 
# 
# High freq. dielectric constant tensor:
#      x y z
#    x 1.754260 0.000000 0.000000 
#    y 0.000000 1.717490 0.000000 
#    z 0.000000 0.000000 1.742580 
# 
# From -- ./inp_files/36948.got.cif
#   From: 2010.03.12/outbox.cif.g09.slc.cpg/sg67_19_cif.got.tgz:36948.got - 2010.04.10 22:41:39.
