data_PCOD8279899
_publ_section_title
;
Structure prediction by ZEFSAII (Michael W. Deem and Ramdas Pophale) SiO2 
 PCOD8279899
Probable space group: C M M A
;
_chemical_formula_sum "Si O2"
_cell_formula_units_Z 112
_cell_length_a 9.093780
_cell_length_b 18.046960
_cell_length_c 36.061607
_cell_angle_alpha 90.000000
_cell_angle_beta 90.000000
_cell_angle_gamma 90.000000
_cell_volume 5918.253659
_symmetry_space_group_name_H-M "C M M A"
_symmetry_group_IT_number 67
_symmetry_cell_setting 'orthorhombic'
loop_
_space_group_symop_operation_xyz
x,y,z
-x,1/2-y,z
x,-y,-z
-x,1/2+y,-z
-x,-y,-z
x,1/2+y,-z
-x,y,z
x,1/2-y,z
1/2+x,1/2+y,z
1/2-x,-y,z
1/2+x,1/2-y,-z
1/2-x,y,-z
1/2-x,1/2-y,-z
1/2+x,y,-z
1/2-x,1/2+y,z
1/2+x,-y,z
loop_
_atom_site_type_symbol
_atom_site_label
_atom_site_fract_x
_atom_site_fract_y
_atom_site_fract_z
Si Si1 0.674473 0.921013 0.753077
Si Si2 0.174362 0.921571 0.390542
Si Si3 0.331275 0.836821 0.182685
Si Si4 0.672545 0.834823 0.536906
Si Si5 0.828306 0.422805 0.108642
Si Si6 0.174475 0.332944 0.681053
Si Si7 0.673237 0.665125 0.037120
O O1 0.500000 0.931294 0.753455
O O2 0.730522 0.880376 0.715912
O O3 0.750000 0.000000 0.755513
O O4 0.778351 0.127985 0.787792
O O5 0.226764 0.882989 0.428428
O O6 0.230105 0.871084 0.356624
O O7 0.000000 0.931771 0.389471
O O8 0.250000 0.000000 0.386888
O O9 0.500000 0.854868 0.193435
O O10 0.302057 0.750000 0.181351
O O11 0.291872 0.868833 0.142569
O O12 0.500000 0.842186 0.531056
O O13 0.718715 0.750000 0.544388
O O14 0.750000 0.865821 0.500000
O O15 0.750000 0.500000 0.115475
O O16 0.769206 0.383928 0.071333
O O17 0.000000 0.438302 0.105442
O O18 0.240894 0.250000 0.683331
O O19 0.000000 0.328506 0.681249
O O20 0.500000 0.657736 0.032058
O O21 0.719004 0.750000 0.044734
O O22 0.750000 0.634823 0.000000
#
# Coordination Sequence:
#
# PCOD8279899 Si02
#       7
#    16  16  16  16  16  16  16
#     4  11  22  36  56  82 112 143 176 217 265 315
#     4  10  20  34  53  76 103 135 171 211 256 308
#     4  10  21  38  59  81 107 141 180 221 266 316
#     4   9  18  33  53  75  99 131 171 212 254 302
#     4  10  21  36  54  77 106 140 176 215 261 312
#     4   9  18  34  56  79 103 135 176 218 259 307
#     4   9  18  34  55  77 102 134 173 215 259 309
#
# _framework density 18.924500999999999
#
# number of rings (size 3 to 8) (size 9 to 14) (size 15 to 20)
#    0.000    2.286    0.000    2.571    0.000    7.714 
#    0.000    3.571    0.000    5.571    0.000    0.000 
#    0.000    0.000    0.000    0.000    0.000    0.000 
#
# Total GULP energy -694567.058803 kJ/mol
# GULP energy per Si atom -12402.983193 kJ/mol
# Density = 1.888143 g / cm^3
# Si number density = 18.924501 Si / 1000 Ang^3
#
#
#
# Elastic Constant Matrix: (Units=GPa)
#
#
# Indices 1 2 3 4 5 6 
#
# 1 38.0672 37.5774 43.7065 0.0000 0.0000 0.0000
# 2 37.5774 134.9707 76.0213 0.0000 0.0000 0.0000
# 3 43.7065 76.0213 159.9837 0.0000 0.0000 0.0000
# 4 0.0000 0.0000 0.0000 21.2499 0.0000 0.0000
# 5 0.0000 0.0000 0.0000 0.0000 25.9661 0.0000
# 6 0.0000 0.0000 0.0000 0.0000 0.0000 25.4322
#
#
#
# Elastic Compliance Matrix: (Units=1/GPa)
#
#
# Indices 1 2 3 4 5 6 
#
# 1 0.042977 -0.007308 -0.008268 0.000000 0.000000 0.000000
# 2 -0.007308 0.011359 -0.003401 0.000000 0.000000 0.000000
# 3 -0.008268 -0.003401 0.010126 0.000000 0.000000 0.000000
# 4 0.000000 0.000000 0.000000 0.047059 0.000000 0.000000
# 5 0.000000 0.000000 0.000000 0.000000 0.038512 0.000000
# 6 0.000000 0.000000 0.000000 0.000000 0.000000 0.039320
#
#
# Mechanical properties :
#
#
# Convention : Reuss Voigt Hill
#
# Bulk Modulus (GPa) = 37.72670 71.95912 54.84291
# Shear Modulus (GPa) = 21.17356 26.24405 23.70880
#
# Velocity S-wave (km/s) = 3.34854 3.72798 3.54335
# Velocity P-wave (km/s) = 5.91007 7.52578 6.76632
#
# Compressibility (1/GPa) = 0.02650643
#
# Stress axis : x y z
#
# Youngs Moduli (GPa) = 23.26847 88.03261 98.75885
#
# Poissons Ratio (x) = 0.64336 0.81656
# Poissons Ratio (y) = 0.17005 0.33590
# Poissons Ratio (z) = 0.19239 0.29942
#
# Static dielectric constant tensor:
#      x y z
#    x 3.247690 0.000000 0.000000 
#    y 0.000000 3.543400 0.000000 
#    z 0.000000 0.000000 3.734700 
# 
# 
# High freq. dielectric constant tensor:
#      x y z
#    x 1.712070 0.000000 0.000000 
#    y 0.000000 1.744280 0.000000 
#    z 0.000000 0.000000 1.752990 
# 
# From -- ./inp_files/45597.got.cif
#   From: 2010.03.12/outbox.cif.g09.slc.cpg/sg67_23_cif.got.tgz:45597.got - 2010.04.10 22:41:39.
