data_PCOD8279326
_publ_section_title
;
Structure prediction by ZEFSAII (Michael W. Deem and Ramdas Pophale) SiO2 
 PCOD8279326
Probable space group: C M M A
;
_chemical_formula_sum "Si O2"
_cell_formula_units_Z 104
_cell_length_a 8.558928
_cell_length_b 31.861519
_cell_length_c 20.474957
_cell_angle_alpha 90.000000
_cell_angle_beta 90.000000
_cell_angle_gamma 90.000000
_cell_volume 5583.529928
_symmetry_space_group_name_H-M "C M M A"
_symmetry_group_IT_number 67
_symmetry_cell_setting 'orthorhombic'
loop_
_space_group_symop_operation_xyz
x,y,z
-x,1/2-y,z
x,-y,-z
-x,1/2+y,-z
-x,-y,-z
x,1/2+y,-z
-x,y,z
x,1/2-y,z
1/2+x,1/2+y,z
1/2-x,-y,z
1/2+x,1/2-y,-z
1/2-x,y,-z
1/2-x,1/2-y,-z
1/2+x,y,-z
1/2-x,1/2+y,z
1/2+x,-y,z
loop_
_atom_site_type_symbol
_atom_site_label
_atom_site_fract_x
_atom_site_fract_y
_atom_site_fract_z
Si Si1 0.177436 0.795146 0.307939
Si Si2 0.315421 0.955553 0.571111
Si Si3 0.819558 0.404119 0.185263
Si Si4 0.683473 0.046169 0.066170
Si Si5 0.685755 0.887930 0.677351
Si Si6 0.321914 0.681862 0.837792
Si Si7 0.313842 0.250000 0.928381
O O1 0.254617 0.750000 0.332114
O O2 0.252780 0.839748 0.332573
O O3 0.185580 0.793201 0.229870
O O4 0.000000 0.794823 0.332679
O O5 0.500000 0.959330 0.567788
O O6 0.250000 0.945217 0.500000
O O7 0.262693 0.917095 0.617154
O O8 0.250000 0.000000 0.597543
O O9 0.729284 0.432080 0.133405
O O10 0.752001 0.410239 0.258115
O O11 0.796265 0.356553 0.164197
O O12 0.000000 0.416677 0.185135
O O13 0.500000 0.045224 0.059845
O O14 0.750000 0.000000 0.069592
O O15 0.750000 0.068588 0.000000
O O16 0.500000 0.885022 0.685675
O O17 0.500000 0.667119 0.851688
O O18 0.258868 0.709343 0.895970
O O19 0.500000 0.250000 0.924124
O O20 0.250000 0.250000 0.000000
#
# Coordination Sequence:
#
# PCOD8279326 Si02
#       7
#    16  16  16  16  16  16   8
#     4   8  13  26  52  78  99 130 171 214 262 318
#     4  10  20  35  56  81 111 149 188 227 274 331
#     4  11  22  36  55  82 111 142 178 223 276 327
#     4  11  22  39  59  79 103 136 177 223 272 331
#     4   9  19  34  53  81 112 142 183 230 276 329
#     4  10  19  35  54  74 100 134 173 217 269 324
#     4  12  24  36  50  72 100 134 177 224 275 332
#
# _framework density 18.626211000000001
#
# number of rings (size 3 to 8) (size 9 to 14) (size 15 to 20)
#    0.000    2.000    0.769    6.231    0.000    2.462 
#    0.000    4.615    0.000    0.462    0.000    0.000 
#    0.000    0.000    0.000    0.000    0.000    0.615 
#
# Total GULP energy -644356.133670 kJ/mol
# GULP energy per Si atom -12391.464109 kJ/mol
# Density = 1.858382 g / cm^3
# Si number density = 18.626211 Si / 1000 Ang^3
#
#
#
# Elastic Constant Matrix: (Units=GPa)
#
#
# Indices 1 2 3 4 5 6 
#
# 1 84.8161 33.6138 34.6620 0.0000 0.0000 0.0000
# 2 33.6138 120.6174 75.8653 0.0000 0.0000 0.0000
# 3 34.6620 75.8653 107.3294 0.0000 0.0000 0.0000
# 4 0.0000 0.0000 0.0000 20.2447 0.0000 0.0000
# 5 0.0000 0.0000 0.0000 0.0000 26.5056 0.0000
# 6 0.0000 0.0000 0.0000 0.0000 0.0000 24.7782
#
#
#
# Elastic Compliance Matrix: (Units=1/GPa)
#
#
# Indices 1 2 3 4 5 6 
#
# 1 0.013816 -0.001879 -0.003133 0.000000 0.000000 0.000000
# 2 -0.001879 0.015183 -0.010125 0.000000 0.000000 0.000000
# 3 -0.003133 -0.010125 0.017486 0.000000 0.000000 0.000000
# 4 0.000000 0.000000 0.000000 0.049396 0.000000 0.000000
# 5 0.000000 0.000000 0.000000 0.000000 0.037728 0.000000
# 6 0.000000 0.000000 0.000000 0.000000 0.000000 0.040358
#
#
# Mechanical properties :
#
#
# Convention : Reuss Voigt Hill
#
# Bulk Modulus (GPa) = 61.69460 66.78278 64.23869
# Shear Modulus (GPa) = 23.85000 25.54716 24.69858
#
# Velocity S-wave (km/s) = 3.58222 3.70749 3.64540
# Velocity P-wave (km/s) = 7.09254 7.36609 7.23061
#
# Compressibility (1/GPa) = 0.01620887
#
# Stress axis : x y z
#
# Youngs Moduli (GPa) = 72.38237 65.86438 57.18948
#
# Poissons Ratio (x) = 0.12378 0.17919
# Poissons Ratio (y) = 0.13603 0.57904
# Poissons Ratio (z) = 0.22680 0.66687
#
# Static dielectric constant tensor:
#      x y z
#    x 3.400270 0.000000 0.000000 
#    y 0.000000 2.437040 0.000000 
#    z 0.000000 0.000000 3.883270 
# 
# 
# High freq. dielectric constant tensor:
#      x y z
#    x 1.716770 0.000000 0.000000 
#    y 0.000000 1.732490 0.000000 
#    z 0.000000 0.000000 1.704580 
# 
# From -- ./inp_files/41135.got.cif
#   From: 2010.03.12/outbox.cif.g09.slc.cpg/sg67_21_cif.got.tgz:41135.got - 2010.04.10 22:41:39.
