data_PCOD8279571
_publ_section_title
;
Structure prediction by ZEFSAII (Michael W. Deem and Ramdas Pophale) SiO2 
 PCOD8279571
Probable space group: C M M A
;
_chemical_formula_sum "Si O2"
_cell_formula_units_Z 96
_cell_length_a 8.909817
_cell_length_b 23.597788
_cell_length_c 25.679175
_cell_angle_alpha 90.000000
_cell_angle_beta 90.000000
_cell_angle_gamma 90.000000
_cell_volume 5399.097201
_symmetry_space_group_name_H-M "C M M A"
_symmetry_group_IT_number 67
_symmetry_cell_setting 'orthorhombic'
loop_
_space_group_symop_operation_xyz
x,y,z
-x,1/2-y,z
x,-y,-z
-x,1/2+y,-z
-x,-y,-z
x,1/2+y,-z
-x,y,z
x,1/2-y,z
1/2+x,1/2+y,z
1/2-x,-y,z
1/2+x,1/2-y,-z
1/2-x,y,-z
1/2-x,1/2-y,-z
1/2+x,y,-z
1/2-x,1/2+y,z
1/2+x,-y,z
loop_
_atom_site_type_symbol
_atom_site_label
_atom_site_fract_x
_atom_site_fract_y
_atom_site_fract_z
Si Si1 0.328179 0.871172 0.251491
Si Si2 0.828383 0.250000 0.290708
Si Si3 0.674100 0.060381 0.163620
Si Si4 0.677333 0.939910 0.354624
Si Si5 0.823284 0.250000 0.599797
Si Si6 0.320641 0.631238 0.555063
Si Si7 0.825104 0.561031 0.048916
O O1 0.500000 0.883721 0.237230
O O2 0.294668 0.804490 0.255414
O O3 0.226695 0.894249 0.205385
O O4 0.285929 0.899580 0.306156
O O5 0.724749 0.250000 0.340757
O O6 0.000000 0.250000 0.310601
O O7 0.500000 0.048908 0.171159
O O8 0.706702 0.087289 0.106121
O O9 0.750000 0.000000 0.172928
O O10 0.500000 0.945545 0.364643
O O11 0.757808 0.914542 0.404884
O O12 0.750000 0.000000 0.341582
O O13 0.762563 0.193956 0.570890
O O14 0.000000 0.250000 0.598538
O O15 0.500000 0.627411 0.553016
O O16 0.250000 0.615321 0.500000
O O17 0.750000 0.500000 0.050142
O O18 0.000000 0.555706 0.037718
O O19 0.750000 0.595467 0.000000
#
# Coordination Sequence:
#
# PCOD8279571 Si02
#       7
#    16   8  16  16   8  16  16
#     4  10  21  36  56  80 106 137 174 214 262 312
#     4  10  20  37  59  82 106 135 170 213 261 313
#     4  10  20  32  49  75 109 144 180 218 260 309
#     4  11  23  39  58  80 107 140 175 214 259 311
#     4  10  21  37  59  86 110 135 169 211 260 311
#     4  11  23  39  59  84 110 138 173 212 258 311
#     4   9  16  26  42  67  99 138 177 216 258 303
#
# _framework density 17.780750000000001
#
# number of rings (size 3 to 8) (size 9 to 14) (size 15 to 20)
#    0.000    1.833    1.667    3.250    0.000    6.333 
#    0.000    1.667    0.000    0.000    0.000    0.583 
#    0.000    0.000    0.000    0.000    0.000    0.000 
#
# Total GULP energy -595141.453922 kJ/mol
# GULP energy per Si atom -12398.780290 kJ/mol
# Density = 1.774028 g / cm^3
# Si number density = 17.780750 Si / 1000 Ang^3
#
#
#
# Elastic Constant Matrix: (Units=GPa)
#
#
# Indices 1 2 3 4 5 6 
#
# 1 76.0761 31.5618 51.5374 0.0000 0.0000 0.0000
# 2 31.5618 94.7555 40.2025 0.0000 0.0000 0.0000
# 3 51.5374 40.2025 131.3220 0.0000 0.0000 0.0000
# 4 0.0000 0.0000 0.0000 3.9859 0.0000 0.0000
# 5 0.0000 0.0000 0.0000 0.0000 33.8221 0.0000
# 6 0.0000 0.0000 0.0000 0.0000 0.0000 22.8214
#
#
#
# Elastic Compliance Matrix: (Units=1/GPa)
#
#
# Indices 1 2 3 4 5 6 
#
# 1 0.018929 -0.003624 -0.006319 0.000000 0.000000 0.000000
# 2 -0.003624 0.012823 -0.002503 0.000000 0.000000 0.000000
# 3 -0.006319 -0.002503 0.010861 0.000000 0.000000 0.000000
# 4 0.000000 0.000000 0.000000 0.250883 0.000000 0.000000
# 5 0.000000 0.000000 0.000000 0.000000 0.029567 0.000000
# 6 0.000000 0.000000 0.000000 0.000000 0.000000 0.043818
#
#
# Mechanical properties :
#
#
# Convention : Reuss Voigt Hill
#
# Bulk Modulus (GPa) = 56.43343 60.97301 58.70322
# Shear Modulus (GPa) = 12.57289 24.04934 18.31111
#
# Velocity S-wave (km/s) = 2.66203 3.68169 3.21257
# Velocity P-wave (km/s) = 6.42308 7.24149 6.84453
#
# Compressibility (1/GPa) = 0.01771999
#
# Stress axis : x y z
#
# Youngs Moduli (GPa) = 52.82837 77.98709 92.07039
#
# Poissons Ratio (x) = 0.28262 0.58183
# Poissons Ratio (y) = 0.19145 0.23048
# Poissons Ratio (z) = 0.33384 0.19522
#
# Static dielectric constant tensor:
#      x y z
#    x 3.382730 0.000000 0.000000 
#    y 0.000000 3.205400 0.000000 
#    z 0.000000 0.000000 3.881450 
# 
# 
# High freq. dielectric constant tensor:
#      x y z
#    x 1.699610 0.000000 0.000000 
#    y 0.000000 1.660970 0.000000 
#    z 0.000000 0.000000 1.699440 
# 
# From -- ./inp_files/40851.got.cif
#   From: 2010.03.12/outbox.cif.g09.slc.cpg/sg67_21_cif.got.tgz:40851.got - 2010.04.10 22:41:39.
