data_PCOD8279116
_publ_section_title
;
Structure prediction by ZEFSAII (Michael W. Deem and Ramdas Pophale) SiO2 
 PCOD8279116
Probable space group: C M M A
;
_chemical_formula_sum "Si O2"
_cell_formula_units_Z 96
_cell_length_a 8.820802
_cell_length_b 25.562369
_cell_length_c 24.962289
_cell_angle_alpha 90.000000
_cell_angle_beta 90.000000
_cell_angle_gamma 90.000000
_cell_volume 5628.511791
_symmetry_space_group_name_H-M "C M M A"
_symmetry_group_IT_number 67
_symmetry_cell_setting 'orthorhombic'
loop_
_space_group_symop_operation_xyz
x,y,z
-x,1/2-y,z
x,-y,-z
-x,1/2+y,-z
-x,-y,-z
x,1/2+y,-z
-x,y,z
x,1/2-y,z
1/2+x,1/2+y,z
1/2-x,-y,z
1/2+x,1/2-y,-z
1/2-x,y,-z
1/2-x,1/2-y,-z
1/2+x,y,-z
1/2-x,1/2+y,z
1/2+x,-y,z
loop_
_atom_site_type_symbol
_atom_site_label
_atom_site_fract_x
_atom_site_fract_y
_atom_site_fract_z
Si Si1 0.180889 0.055387 0.943092
Si Si2 0.676570 0.943342 0.449191
Si Si3 0.321678 0.643027 0.128959
Si Si4 0.172230 0.750000 0.127917
Si Si5 0.677335 0.943765 0.331201
Si Si6 0.323066 0.854886 0.253574
Si Si7 0.330957 0.750000 0.744799
O O1 0.228117 0.097942 0.899800
O O2 0.000000 0.051179 0.947191
O O3 0.250000 0.000000 0.924840
O O4 0.250000 0.072255 0.000000
O O5 0.500000 0.947864 0.459959
O O6 0.750000 0.911705 0.500000
O O7 0.710861 0.919203 0.390440
O O8 0.750000 0.000000 0.448220
O O9 0.500000 0.638529 0.116779
O O10 0.261372 0.698803 0.107244
O O11 0.284805 0.636177 0.191520
O O12 0.172987 0.750000 0.191458
O O13 0.000000 0.750000 0.105635
O O14 0.500000 0.951950 0.323014
O O15 0.743295 0.903497 0.287382
O O16 0.750000 0.000000 0.321839
O O17 0.500000 0.849097 0.263137
O O18 0.250496 0.801901 0.276544
O O19 0.500000 0.750000 0.722126
#
# Coordination Sequence:
#
# PCOD8279116 Si02
#       7
#    16  16  16   8  16  16   8
#     4  11  22  38  57  76  99 128 163 201 237 278
#     4   9  15  24  39  58  83 115 153 190 227 271
#     4  10  19  33  53  76 100 128 160 195 237 285
#     4   9  17  31  50  74 101 128 158 195 237 281
#     4   9  18  30  43  64  94 126 156 190 231 277
#     4   9  18  32  49  69  96 128 159 190 231 281
#     4   9  17  29  47  70  93 120 159 199 233 271
#
# _framework density 17.056018000000002
#
# number of rings (size 3 to 8) (size 9 to 14) (size 15 to 20)
#    0.000    2.500    0.000    4.000    0.000    4.667 
#    0.000    2.083    0.000    0.000    0.000    0.583 
#    0.000    0.000    0.000    0.000    0.000    0.000 
#
# Total GULP energy -594957.871150 kJ/mol
# GULP energy per Si atom -12394.955649 kJ/mol
# Density = 1.701720 g / cm^3
# Si number density = 17.056018 Si / 1000 Ang^3
#
#
#
# Elastic Constant Matrix: (Units=GPa)
#
#
# Indices 1 2 3 4 5 6 
#
# 1 101.2788 53.4306 47.5829 0.0000 0.0000 0.0000
# 2 53.4306 122.9309 65.3155 0.0000 0.0000 0.0000
# 3 47.5829 65.3155 76.7601 0.0000 0.0000 0.0000
# 4 0.0000 0.0000 0.0000 1.0520 0.0000 0.0000
# 5 0.0000 0.0000 0.0000 0.0000 19.3560 0.0000
# 6 0.0000 0.0000 0.0000 0.0000 0.0000 28.1838
#
#
#
# Elastic Compliance Matrix: (Units=1/GPa)
#
#
# Indices 1 2 3 4 5 6 
#
# 1 0.014431 -0.002773 -0.006586 0.000000 0.000000 0.000000
# 2 -0.002773 0.015380 -0.011368 0.000000 0.000000 0.000000
# 3 -0.006586 -0.011368 0.026783 0.000000 0.000000 0.000000
# 4 0.000000 0.000000 0.000000 0.950533 0.000000 0.000000
# 5 0.000000 0.000000 0.000000 0.000000 0.051664 0.000000
# 6 0.000000 0.000000 0.000000 0.000000 0.000000 0.035481
#
#
# Mechanical properties :
#
#
# Convention : Reuss Voigt Hill
#
# Bulk Modulus (GPa) = 66.04930 70.40309 68.22619
# Shear Modulus (GPa) = 4.38300 18.69443 11.53871
#
# Velocity S-wave (km/s) = 1.60479 3.31427 2.60382
# Velocity P-wave (km/s) = 6.49944 7.48419 7.00913
#
# Compressibility (1/GPa) = 0.01514021
#
# Stress axis : x y z
#
# Youngs Moduli (GPa) = 69.29578 65.02025 37.33685
#
# Poissons Ratio (x) = 0.18030 0.24590
# Poissons Ratio (y) = 0.19215 0.42444
# Poissons Ratio (z) = 0.45639 0.73914
#
# Static dielectric constant tensor:
#      x y z
#    x 3.307130 0.000000 0.000000 
#    y 0.000000 3.183070 0.000000 
#    z 0.000000 0.000000 3.677070 
# 
# 
# High freq. dielectric constant tensor:
#      x y z
#    x 1.670670 0.000000 0.000000 
#    y 0.000000 1.638980 0.000000 
#    z 0.000000 0.000000 1.646240 
# 
# From -- ./inp_files/40964.got.cif
#   From: 2010.03.12/outbox.cif.g09.slc.cpg/sg67_21_cif.got.tgz:40964.got - 2010.04.10 22:41:39.
