data_PCOD8279900
_publ_section_title
;
Structure prediction by ZEFSAII (Michael W. Deem and Ramdas Pophale) SiO2 
 PCOD8279900
Probable space group: C M M A
;
_chemical_formula_sum "Si O2"
_cell_formula_units_Z 96
_cell_length_a 19.975043
_cell_length_b 8.901907
_cell_length_c 29.584011
_cell_angle_alpha 90.000000
_cell_angle_beta 90.000000
_cell_angle_gamma 90.000000
_cell_volume 5260.509764
_symmetry_space_group_name_H-M "C M M A"
_symmetry_group_IT_number 67
_symmetry_cell_setting 'orthorhombic'
loop_
_space_group_symop_operation_xyz
x,y,z
-x,1/2-y,z
x,-y,-z
-x,1/2+y,-z
-x,-y,-z
x,1/2+y,-z
-x,y,z
x,1/2-y,z
1/2+x,1/2+y,z
1/2-x,-y,z
1/2+x,1/2-y,-z
1/2-x,y,-z
1/2-x,1/2-y,-z
1/2+x,y,-z
1/2-x,1/2+y,z
1/2+x,-y,z
loop_
_atom_site_type_symbol
_atom_site_label
_atom_site_fract_x
_atom_site_fract_y
_atom_site_fract_z
Si Si1 0.575849 0.572772 0.546242
Si Si2 0.319462 0.571772 0.952123
Si Si3 0.318119 0.574135 0.721450
Si Si4 0.318435 0.072754 0.380918
Si Si5 0.422624 0.077499 0.888143
Si Si6 0.577017 0.921863 0.216302
O O1 0.602441 0.500000 0.500000
O O2 0.500000 0.520650 0.556395
O O3 0.580555 0.750000 0.540779
O O4 0.621225 0.515002 0.587610
O O5 0.311318 0.750000 0.957058
O O6 0.250000 0.500000 0.934602
O O7 0.377819 0.535296 0.916967
O O8 0.339273 0.500000 0.000000
O O9 0.307691 0.750000 0.723698
O O10 0.250000 0.500000 0.739632
O O11 0.333671 0.520370 0.670317
O O12 0.379433 0.530210 0.752979
O O13 0.310548 0.250000 0.383917
O O14 0.250000 0.000000 0.398731
O O15 0.500000 0.044275 0.899122
O O16 0.405404 0.250000 0.900119
O O17 0.407259 0.045186 0.835883
O O18 0.500000 0.956998 0.226926
O O19 0.594101 0.750000 0.227970
#
# Coordination Sequence:
#
# PCOD8279900 Si02
#       6
#    16  16  16  16  16  16
#     4   9  18  33  51  71  97 128 163 203 247 296
#     4  11  22  37  57  80 108 140 176 217 260 307
#     4  10  20  34  53  76 103 136 173 213 256 305
#     4   9  19  34  51  72  99 131 165 205 251 297
#     4   9  19  37  58  79 106 139 174 213 258 307
#     4   9  19  36  56  78 106 138 171 212 260 306
#
# _framework density 18.249182000000001
#
# number of rings (size 3 to 8) (size 9 to 14) (size 15 to 20)
#    0.000    2.500    0.000    3.500    0.000    4.667 
#    0.000    5.000    0.000    2.000    0.000    0.000 
#    0.000    0.000    0.000    0.000    0.000    0.000 
#
# Total GULP energy -595297.093952 kJ/mol
# GULP energy per Si atom -12402.022791 kJ/mol
# Density = 1.820765 g / cm^3
# Si number density = 18.249182 Si / 1000 Ang^3
#
#
#
# Elastic Constant Matrix: (Units=GPa)
#
#
# Indices 1 2 3 4 5 6 
#
# 1 110.7109 46.2226 73.4828 0.0000 0.0000 0.0000
# 2 46.2226 75.3338 42.6430 0.0000 0.0000 0.0000
# 3 73.4828 42.6430 91.6965 0.0000 0.0000 0.0000
# 4 0.0000 0.0000 0.0000 30.4165 0.0000 0.0000
# 5 0.0000 0.0000 0.0000 0.0000 34.5348 0.0000
# 6 0.0000 0.0000 0.0000 0.0000 0.0000 33.3348
#
#
#
# Elastic Compliance Matrix: (Units=1/GPa)
#
#
# Indices 1 2 3 4 5 6 
#
# 1 0.020322 -0.004412 -0.014234 0.000000 0.000000 0.000000
# 2 -0.004412 0.018975 -0.005289 0.000000 0.000000 0.000000
# 3 -0.014234 -0.005289 0.024771 0.000000 0.000000 0.000000
# 4 0.000000 0.000000 0.000000 0.032877 0.000000 0.000000
# 5 0.000000 0.000000 0.000000 0.000000 0.028956 0.000000
# 6 0.000000 0.000000 0.000000 0.000000 0.000000 0.029999
#
#
# Mechanical properties :
#
#
# Convention : Reuss Voigt Hill
#
# Bulk Modulus (GPa) = 61.72876 66.93753 64.33315
# Shear Modulus (GPa) = 23.90419 27.35007 25.62713
#
# Velocity S-wave (km/s) = 3.62315 3.87551 3.75145
# Velocity P-wave (km/s) = 7.16951 7.53561 7.35484
#
# Compressibility (1/GPa) = 0.01619990
#
# Stress axis : x y z
#
# Youngs Moduli (GPa) = 49.20800 52.70112 40.36917
#
# Poissons Ratio (x) = 0.23251 0.57460
# Poissons Ratio (y) = 0.21710 0.21350
# Poissons Ratio (z) = 0.70041 0.27872
#
# Static dielectric constant tensor:
#      x y z
#    x 3.406220 0.000000 0.000000 
#    y 0.000000 3.259660 0.000000 
#    z 0.000000 0.000000 3.398410 
# 
# 
# High freq. dielectric constant tensor:
#      x y z
#    x 1.710610 0.000000 0.000000 
#    y 0.000000 1.705170 0.000000 
#    z 0.000000 0.000000 1.706790 
# 
# From -- ./inp_files/43437.got.cif
#   From: 2010.03.12/outbox.cif.g09.slc.cpg/sg67_22_cif.got.tgz:43437.got - 2010.04.10 22:41:39.
