data_PCOD8279152
_publ_section_title
;
Structure prediction by ZEFSAII (Michael W. Deem and Ramdas Pophale) SiO2 
 PCOD8279152
Probable space group: C M M A
;
_chemical_formula_sum "Si O2"
_cell_formula_units_Z 80
_cell_length_a 18.425216
_cell_length_b 8.730770
_cell_length_c 25.844598
_cell_angle_alpha 90.000000
_cell_angle_beta 90.000000
_cell_angle_gamma 90.000000
_cell_volume 4157.525452
_symmetry_space_group_name_H-M "C M M A"
_symmetry_group_IT_number 67
_symmetry_cell_setting 'orthorhombic'
loop_
_space_group_symop_operation_xyz
x,y,z
-x,1/2-y,z
x,-y,-z
-x,1/2+y,-z
-x,-y,-z
x,1/2+y,-z
-x,y,z
x,1/2-y,z
1/2+x,1/2+y,z
1/2-x,-y,z
1/2+x,1/2-y,-z
1/2-x,y,-z
1/2-x,1/2-y,-z
1/2+x,y,-z
1/2-x,1/2+y,z
1/2+x,-y,z
loop_
_atom_site_type_symbol
_atom_site_label
_atom_site_fract_x
_atom_site_fract_y
_atom_site_fract_z
Si Si1 0.670780 0.930575 0.250260
Si Si2 0.828282 0.931965 0.553808
Si Si3 0.418763 0.568085 0.347870
Si Si4 0.414983 0.427349 0.157585
Si Si5 0.086250 0.422046 0.051666
O O1 0.677986 0.750000 0.253771
O O2 0.627533 0.996822 0.299818
O O3 0.750000 0.000000 0.249360
O O4 0.627727 0.973292 0.198923
O O5 0.822226 0.750000 0.549574
O O6 0.882839 0.985709 0.598561
O O7 0.858129 0.000000 0.500000
O O8 0.750000 0.000000 0.567156
O O9 0.500000 0.499867 0.344895
O O10 0.421309 0.750000 0.345150
O O11 0.500000 0.459702 0.164945
O O12 0.395943 0.250000 0.164804
O O13 0.388539 0.479599 0.100961
O O14 0.117069 0.250000 0.056378
O O15 0.000000 0.418791 0.048313
O O16 0.118510 0.500000 0.000000
#
# Coordination Sequence:
#
# PCOD8279152 Si02
#       5
#    16  16  16  16  16
#     4  11  22  37  57  78 104 139 179 221 268 324
#     4  10  19  33  54  78 107 141 177 216 258 310
#     4   9  19  35  55  79 106 137 174 218 268 319
#     4  10  20  34  53  79 110 141 177 223 270 317
#     4   9  16  27  46  74 107 142 179 219 265 315
#
# _framework density 19.242215000000002
#
# number of rings (size 3 to 8) (size 9 to 14) (size 15 to 20)
#    0.000    2.200    0.000    4.200    0.000    4.800 
#    0.000    3.000    0.000    7.200    0.000    4.200 
#    0.000    0.000    0.000    0.000    0.000    0.000 
#
# Total GULP energy -496068.613081 kJ/mol
# GULP energy per Si atom -12401.715327 kJ/mol
# Density = 1.919842 g / cm^3
# Si number density = 19.242215 Si / 1000 Ang^3
#
#
#
# Elastic Constant Matrix: (Units=GPa)
#
#
# Indices 1 2 3 4 5 6 
#
# 1 79.1356 31.9974 66.6124 0.0000 0.0000 0.0000
# 2 31.9974 75.8219 35.1289 0.0000 0.0000 0.0000
# 3 66.6124 35.1289 162.0445 0.0000 0.0000 0.0000
# 4 0.0000 0.0000 0.0000 25.0793 0.0000 0.0000
# 5 0.0000 0.0000 0.0000 0.0000 4.5866 0.0000
# 6 0.0000 0.0000 0.0000 0.0000 0.0000 9.4070
#
#
#
# Elastic Compliance Matrix: (Units=1/GPa)
#
#
# Indices 1 2 3 4 5 6 
#
# 1 0.021171 -0.005450 -0.007522 0.000000 0.000000 0.000000
# 2 -0.005450 0.016064 -0.001242 0.000000 0.000000 0.000000
# 3 -0.007522 -0.001242 0.009532 0.000000 0.000000 0.000000
# 4 0.000000 0.000000 0.000000 0.039873 0.000000 0.000000
# 5 0.000000 0.000000 0.000000 0.000000 0.218025 0.000000
# 6 0.000000 0.000000 0.000000 0.000000 0.000000 0.106304
#
#
# Mechanical properties :
#
#
# Convention : Reuss Voigt Hill
#
# Bulk Modulus (GPa) = 54.52308 64.94215 59.73262
# Shear Modulus (GPa) = 11.22307 20.03215 15.62761
#
# Velocity S-wave (km/s) = 2.41768 3.23003 2.85292
# Velocity P-wave (km/s) = 6.01583 6.90897 6.47781
#
# Compressibility (1/GPa) = 0.01834086
#
# Stress axis : x y z
#
# Youngs Moduli (GPa) = 47.23368 62.25050 104.90549
#
# Poissons Ratio (x) = 0.33924 0.78906
# Poissons Ratio (y) = 0.25741 0.13032
# Poissons Ratio (z) = 0.35527 0.07733
#
# Static dielectric constant tensor:
#      x y z
#    x 3.365250 0.000000 0.000000 
#    y 0.000000 3.457880 0.000000 
#    z 0.000000 0.000000 3.773620 
# 
# 
# High freq. dielectric constant tensor:
#      x y z
#    x 1.724150 0.000000 0.000000 
#    y 0.000000 1.743730 0.000000 
#    z 0.000000 0.000000 1.768100 
# 
# From -- ./inp_files/43310.got.cif
#   From: 2010.03.12/outbox.cif.g09.slc.cpg/sg67_22_cif.got.tgz:43310.got - 2010.04.10 22:41:39.
