data_PCOD8279756
_publ_section_title
;
Structure prediction by ZEFSAII (Michael W. Deem and Ramdas Pophale) SiO2 
 PCOD8279756
Probable space group: C M M A
;
_chemical_formula_sum "Si O2"
_cell_formula_units_Z 88
_cell_length_a 8.919537
_cell_length_b 26.494878
_cell_length_c 19.229023
_cell_angle_alpha 90.000000
_cell_angle_beta 90.000000
_cell_angle_gamma 90.000000
_cell_volume 4544.242032
_symmetry_space_group_name_H-M "C M M A"
_symmetry_group_IT_number 67
_symmetry_cell_setting 'orthorhombic'
loop_
_space_group_symop_operation_xyz
x,y,z
-x,1/2-y,z
x,-y,-z
-x,1/2+y,-z
-x,-y,-z
x,1/2+y,-z
-x,y,z
x,1/2-y,z
1/2+x,1/2+y,z
1/2-x,-y,z
1/2+x,1/2-y,-z
1/2-x,y,-z
1/2-x,1/2-y,-z
1/2+x,y,-z
1/2-x,1/2+y,z
1/2+x,-y,z
loop_
_atom_site_type_symbol
_atom_site_label
_atom_site_fract_x
_atom_site_fract_y
_atom_site_fract_z
Si Si1 0.163354 0.692167 0.564760
Si Si2 0.325007 0.850420 0.688277
Si Si3 0.169727 0.050489 0.144550
Si Si4 0.677655 0.845285 0.849105
Si Si5 0.167725 0.548695 0.690203
Si Si6 0.320222 0.250000 0.924415
O O1 0.140159 0.750000 0.545550
O O2 0.250000 0.665764 0.500000
O O3 0.252841 0.690458 0.637402
O O4 0.000000 0.666201 0.573051
O O5 0.500000 0.850870 0.676933
O O6 0.284286 0.838379 0.767858
O O7 0.260159 0.903749 0.663741
O O8 0.261287 0.100856 0.122645
O O9 0.166008 0.046561 0.226937
O O10 0.000000 0.053617 0.114967
O O11 0.250000 0.000000 0.114133
O O12 0.500000 0.842535 0.863392
O O13 0.763199 0.800188 0.886603
O O14 0.250000 0.500000 0.659273
O O15 0.000000 0.551096 0.660559
O O16 0.500000 0.250000 0.927299
O O17 0.250000 0.250000 0.000000
#
# Coordination Sequence:
#
# PCOD8279756 Si02
#       6
#    16  16  16  16  16   8
#     4  10  21  36  53  74 102 139 180 223 273 328
#     4  10  20  33  53  80 110 142 179 225 272 318
#     4   9  16  28  49  79 113 148 184 229 281 330
#     4  10  21  37  57  85 116 149 190 234 280 331
#     4   9  16  27  45  71 105 140 177 219 268 321
#     4  12  26  44  64  84 113 152 191 230 276 334
#
# _framework density 19.365165000000001
#
# number of rings (size 3 to 8) (size 9 to 14) (size 15 to 20)
#    0.000    2.182    0.000    3.545    1.273    7.636 
#    0.000    0.000    0.000    1.091    0.000    7.636 
#    0.000    0.000    0.000    0.000    0.000    0.000 
#
# Total GULP energy -545484.632539 kJ/mol
# GULP energy per Si atom -12397.378012 kJ/mol
# Density = 1.932109 g / cm^3
# Si number density = 19.365165 Si / 1000 Ang^3
#
#
#
# Elastic Constant Matrix: (Units=GPa)
#
#
# Indices 1 2 3 4 5 6 
#
# 1 165.5444 64.7695 60.2338 0.0000 0.0000 0.0000
# 2 64.7695 117.1959 43.0693 0.0000 0.0000 0.0000
# 3 60.2338 43.0693 68.8949 0.0000 0.0000 0.0000
# 4 0.0000 0.0000 0.0000 0.4343 0.0000 0.0000
# 5 0.0000 0.0000 0.0000 0.0000 23.5128 0.0000
# 6 0.0000 0.0000 0.0000 0.0000 0.0000 39.5723
#
#
#
# Elastic Compliance Matrix: (Units=1/GPa)
#
#
# Indices 1 2 3 4 5 6 
#
# 1 0.009548 -0.002868 -0.006555 0.000000 0.000000 0.000000
# 2 -0.002868 0.011939 -0.004956 0.000000 0.000000 0.000000
# 3 -0.006555 -0.004956 0.023344 0.000000 0.000000 0.000000
# 4 0.000000 0.000000 0.000000 2.302661 0.000000 0.000000
# 5 0.000000 0.000000 0.000000 0.000000 0.042530 0.000000
# 6 0.000000 0.000000 0.000000 0.000000 0.000000 0.025270
#
#
# Mechanical properties :
#
#
# Convention : Reuss Voigt Hill
#
# Bulk Modulus (GPa) = 62.21576 76.42006 69.31791
# Shear Modulus (GPa) = 2.04131 24.94138 13.49134
#
# Velocity S-wave (km/s) = 1.02781 3.59270 2.64234
# Velocity P-wave (km/s) = 5.79706 7.53381 6.72176
#
# Compressibility (1/GPa) = 0.01607310
#
# Stress axis : x y z
#
# Youngs Moduli (GPa) = 104.73858 83.75837 42.83789
#
# Poissons Ratio (x) = 0.24020 0.28078
# Poissons Ratio (y) = 0.30037 0.21232
# Poissons Ratio (z) = 0.68651 0.41514
#
# Static dielectric constant tensor:
#      x y z
#    x 3.905440 0.000000 0.000000 
#    y 0.000000 3.562950 0.000000 
#    z 0.000000 0.000000 3.257840 
# 
# 
# High freq. dielectric constant tensor:
#      x y z
#    x 1.777230 0.000000 0.000000 
#    y 0.000000 1.753620 0.000000 
#    z 0.000000 0.000000 1.710910 
# 
# From -- ./inp_files/36940.got.cif
#   From: 2010.03.12/outbox.cif.g09.slc.cpg/sg67_19_cif.got.tgz:36940.got - 2010.04.10 22:41:39.
