data_PCOD8279970
_publ_section_title
;
Structure prediction by ZEFSAII (Michael W. Deem and Ramdas Pophale) SiO2 
 PCOD8279970
Probable space group: C M M A
;
_chemical_formula_sum "Si O2"
_cell_formula_units_Z 80
_cell_length_a 8.894844
_cell_length_b 26.182453
_cell_length_c 18.560613
_cell_angle_alpha 90.000000
_cell_angle_beta 90.000000
_cell_angle_gamma 90.000000
_cell_volume 4322.559538
_symmetry_space_group_name_H-M "C M M A"
_symmetry_group_IT_number 67
_symmetry_cell_setting 'orthorhombic'
loop_
_space_group_symop_operation_xyz
x,y,z
-x,1/2-y,z
x,-y,-z
-x,1/2+y,-z
-x,-y,-z
x,1/2+y,-z
-x,y,z
x,1/2-y,z
1/2+x,1/2+y,z
1/2-x,-y,z
1/2+x,1/2-y,-z
1/2-x,y,-z
1/2-x,1/2-y,-z
1/2+x,y,-z
1/2-x,1/2+y,z
1/2+x,-y,z
loop_
_atom_site_type_symbol
_atom_site_label
_atom_site_fract_x
_atom_site_fract_y
_atom_site_fract_z
Si Si1 0.674862 0.159368 0.679052
Si Si2 0.174986 0.338439 0.832917
Si Si3 0.177849 0.250000 0.077821
Si Si4 0.326912 0.047418 0.675596
Si Si5 0.323361 0.250000 0.577230
Si Si6 0.174617 0.548097 0.169692
O O1 0.500000 0.167465 0.700188
O O2 0.773450 0.165882 0.750381
O O3 0.698280 0.103600 0.641489
O O4 0.730249 0.200273 0.620923
O O5 0.271911 0.300590 0.880747
O O6 0.200316 0.395853 0.865128
O O7 0.000000 0.323324 0.836652
O O8 0.000000 0.250000 0.070505
O O9 0.250000 0.250000 0.000000
O O10 0.500000 0.033975 0.682850
O O11 0.253564 0.049885 0.753592
O O12 0.250000 0.000000 0.631668
O O13 0.500000 0.250000 0.566389
O O14 0.250000 0.250000 0.500000
O O15 0.250000 0.500000 0.125879
O O16 0.000000 0.536604 0.178816
#
# Coordination Sequence:
#
# PCOD8279970 Si02
#       6
#    16  16   8  16   8  16
#     4   9  18  32  51  75 102 132 166 205 250 300
#     4  10  20  34  54  81 108 134 170 212 251 297
#     4  12  25  40  57  75 101 137 173 212 259 306
#     4   9  15  24  41  67  98 128 159 197 242 291
#     4  10  21  36  51  69  95 127 165 208 255 304
#     4   9  16  26  44  72 105 135 163 200 244 291
#
# _framework density 18.507553000000001
#
# number of rings (size 3 to 8) (size 9 to 14) (size 15 to 20)
#    0.000    2.400    0.000    4.500    0.000    4.800 
#    0.000    0.000    0.000    1.200    0.000    8.400 
#    0.000    0.000    0.000    0.000    0.000    0.000 
#
# Total GULP energy -495601.081007 kJ/mol
# GULP energy per Si atom -12390.027025 kJ/mol
# Density = 1.846543 g / cm^3
# Si number density = 18.507553 Si / 1000 Ang^3
#
#
#
# Elastic Constant Matrix: (Units=GPa)
#
#
# Indices 1 2 3 4 5 6 
#
# 1 124.6179 76.3563 36.6906 0.0000 0.0000 0.0000
# 2 76.3563 189.3580 55.8363 0.0000 0.0000 0.0000
# 3 36.6906 55.8363 65.3143 0.0000 0.0000 0.0000
# 4 0.0000 0.0000 0.0000 -1.7098 0.0000 0.0000
# 5 0.0000 0.0000 0.0000 0.0000 23.1883 0.0000
# 6 0.0000 0.0000 0.0000 0.0000 0.0000 33.0124
#
#
#
# Elastic Compliance Matrix: (Units=1/GPa)
#
#
# Indices 1 2 3 4 5 6 
#
# 1 0.011146 -0.003541 -0.003234 0.000000 0.000000 0.000000
# 2 -0.003541 0.008186 -0.005009 0.000000 0.000000 0.000000
# 3 -0.003234 -0.005009 0.021410 0.000000 0.000000 0.000000
# 4 0.000000 0.000000 0.000000 -0.584865 0.000000 0.000000
# 5 0.000000 0.000000 0.000000 0.000000 0.043125 0.000000
# 6 0.000000 0.000000 0.000000 0.000000 0.000000 0.030292
#
#
# Mechanical properties :
#
#
# Convention : Reuss Voigt Hill
#
# Bulk Modulus (GPa) = 58.22975 79.67297 68.95136
# Shear Modulus (GPa) = -11.32723 24.92531 6.79904
#
# Velocity S-wave (km/s) = -2.47661 3.67381 1.91876
# Velocity P-wave (km/s) = 4.83248 7.81909 6.49965
#
# Compressibility (1/GPa) = 0.01717335
#
# Stress axis : x y z
#
# Youngs Moduli (GPa) = 89.71472 122.16305 46.70820
#
# Poissons Ratio (x) = 0.43257 0.15108
# Poissons Ratio (y) = 0.31767 0.23395
# Poissons Ratio (z) = 0.29018 0.61189
#
# Static dielectric constant tensor:
#      x y z
#    x 3.550770 0.000000 0.000000 
#    y 0.000000 4.920370 0.000000 
#    z 0.000000 0.000000 2.874500 
# 
# 
# High freq. dielectric constant tensor:
#      x y z
#    x 1.731130 0.000000 0.000000 
#    y 0.000000 1.755970 0.000000 
#    z 0.000000 0.000000 1.646110 
# 
# From -- ./inp_files/32165.got.cif
#   From: 2010.03.12/outbox.cif.g09.slc.cpg/sg67_17_cif.got.tgz:32165.got - 2010.04.10 22:41:39.
