data_PCOD8279308
_publ_section_title
;
Structure prediction by ZEFSAII (Michael W. Deem and Ramdas Pophale) SiO2 
 PCOD8279308
Probable space group: C M M A
;
_chemical_formula_sum "Si O2"
_cell_formula_units_Z 96
_cell_length_a 28.527559
_cell_length_b 8.629843
_cell_length_c 20.710035
_cell_angle_alpha 90.000000
_cell_angle_beta 90.000000
_cell_angle_gamma 90.000000
_cell_volume 5098.569456
_symmetry_space_group_name_H-M "C M M A"
_symmetry_group_IT_number 67
_symmetry_cell_setting 'orthorhombic'
loop_
_space_group_symop_operation_xyz
x,y,z
-x,1/2-y,z
x,-y,-z
-x,1/2+y,-z
-x,-y,-z
x,1/2+y,-z
-x,y,z
x,1/2-y,z
1/2+x,1/2+y,z
1/2-x,-y,z
1/2+x,1/2-y,-z
1/2-x,y,-z
1/2-x,1/2-y,-z
1/2+x,y,-z
1/2-x,1/2+y,z
1/2+x,-y,z
loop_
_atom_site_type_symbol
_atom_site_label
_atom_site_fract_x
_atom_site_fract_y
_atom_site_fract_z
Si Si1 0.945341 0.929320 0.317396
Si Si2 0.446997 0.066666 0.066584
Si Si3 0.390982 0.932034 0.433994
Si Si4 0.700785 0.433425 0.379368
Si Si5 0.201305 0.432772 0.238827
Si Si6 0.110461 0.432945 0.810353
O O1 0.935130 0.750000 0.332889
O O2 0.920148 0.980458 0.251613
O O3 0.000000 0.962183 0.308452
O O4 0.926088 0.030967 0.375896
O O5 0.500000 0.005479 0.076480
O O6 0.446121 0.250000 0.063739
O O7 0.416117 0.006484 0.126151
O O8 0.425906 0.000000 0.000000
O O9 0.384316 0.750000 0.439396
O O10 0.412973 0.000000 0.500000
O O11 0.340388 0.011040 0.425764
O O12 0.703397 0.250000 0.378156
O O13 0.750000 0.500000 0.405155
O O14 0.689535 0.493261 0.307855
O O15 0.205469 0.250000 0.246646
O O16 0.250000 0.500000 0.211300
O O17 0.160054 0.479191 0.190137
O O18 0.119085 0.250000 0.812404
#
# Coordination Sequence:
#
# PCOD8279308 Si02
#       6
#    16  16  16  16  16  16
#     4  10  21  38  60  84 110 144 187 235 285 336
#     4   9  18  33  54  83 119 158 195 231 275 329
#     4  12  25  41  59  81 110 147 188 234 286 340
#     4  11  21  37  59  84 113 145 182 228 281 339
#     4  11  21  34  55  84 115 148 185 229 279 334
#     4  10  19  34  58  85 116 151 189 232 280 333
#
# _framework density 18.828811000000002
#
# number of rings (size 3 to 8) (size 9 to 14) (size 15 to 20)
#    0.000    1.500    1.667    6.000    0.000    3.667 
#    0.000    1.667    0.000    3.500    0.000    3.500 
#    0.000    0.000    0.000    0.000    0.000    0.000 
#
# Total GULP energy -595421.585485 kJ/mol
# GULP energy per Si atom -12404.616364 kJ/mol
# Density = 1.878596 g / cm^3
# Si number density = 18.828811 Si / 1000 Ang^3
#
#
#
# Elastic Constant Matrix: (Units=GPa)
#
#
# Indices 1 2 3 4 5 6 
#
# 1 110.9852 43.8683 59.9856 0.0000 0.0000 0.0000
# 2 43.8683 117.8031 45.6963 0.0000 0.0000 0.0000
# 3 59.9856 45.6963 130.0173 0.0000 0.0000 0.0000
# 4 0.0000 0.0000 0.0000 28.0140 0.0000 0.0000
# 5 0.0000 0.0000 0.0000 0.0000 30.8936 0.0000
# 6 0.0000 0.0000 0.0000 0.0000 0.0000 30.2952
#
#
#
# Elastic Compliance Matrix: (Units=1/GPa)
#
#
# Indices 1 2 3 4 5 6 
#
# 1 0.012787 -0.002864 -0.004893 0.000000 0.000000 0.000000
# 2 -0.002864 0.010470 -0.002359 0.000000 0.000000 0.000000
# 3 -0.004893 -0.002359 0.010778 0.000000 0.000000 0.000000
# 4 0.000000 0.000000 0.000000 0.035696 0.000000 0.000000
# 5 0.000000 0.000000 0.000000 0.000000 0.032369 0.000000
# 6 0.000000 0.000000 0.000000 0.000000 0.000000 0.033009
#
#
# Mechanical properties :
#
#
# Convention : Reuss Voigt Hill
#
# Bulk Modulus (GPa) = 72.44245 73.10068 72.77157
# Shear Modulus (GPa) = 31.26172 31.79092 31.52632
#
# Velocity S-wave (km/s) = 4.07911 4.11350 4.09634
# Velocity P-wave (km/s) = 7.79380 7.84023 7.81705
#
# Compressibility (1/GPa) = 0.01380406
#
# Stress axis : x y z
#
# Youngs Moduli (GPa) = 78.20688 95.51056 92.78440
#
# Poissons Ratio (x) = 0.27350 0.45398
# Poissons Ratio (y) = 0.22395 0.21885
# Poissons Ratio (z) = 0.38266 0.22528
#
# Static dielectric constant tensor:
#      x y z
#    x 3.588060 0.000000 0.000000 
#    y 0.000000 3.426550 0.000000 
#    z 0.000000 0.000000 3.501420 
# 
# 
# High freq. dielectric constant tensor:
#      x y z
#    x 1.735850 0.000000 0.000000 
#    y 0.000000 1.734360 0.000000 
#    z 0.000000 0.000000 1.717560 
# 
# From -- ./inp_files/39867.got.cif
#   From: 2010.03.12/outbox.cif.g09.slc.cpg/sg67_20_cif.got.tgz:39867.got - 2010.04.10 22:41:39.
