data_PCOD8279119
_publ_section_title
;
Structure prediction by ZEFSAII (Michael W. Deem and Ramdas Pophale) SiO2 
 PCOD8279119
Probable space group: C M M A
;
_chemical_formula_sum "Si O2"
_cell_formula_units_Z 80
_cell_length_a 27.257735
_cell_length_b 8.731558
_cell_length_c 18.715289
_cell_angle_alpha 90.000000
_cell_angle_beta 90.000000
_cell_angle_gamma 90.000000
_cell_volume 4454.285460
_symmetry_space_group_name_H-M "C M M A"
_symmetry_group_IT_number 67
_symmetry_cell_setting 'orthorhombic'
loop_
_space_group_symop_operation_xyz
x,y,z
-x,1/2-y,z
x,-y,-z
-x,1/2+y,-z
-x,-y,-z
x,1/2+y,-z
-x,y,z
x,1/2-y,z
1/2+x,1/2+y,z
1/2-x,-y,z
1/2+x,1/2-y,-z
1/2-x,y,-z
1/2-x,1/2-y,-z
1/2+x,y,-z
1/2-x,1/2+y,z
1/2+x,-y,z
loop_
_atom_site_type_symbol
_atom_site_label
_atom_site_fract_x
_atom_site_fract_y
_atom_site_fract_z
Si Si1 0.800644 0.568815 0.839437
Si Si2 0.445091 0.573016 0.794230
Si Si3 0.197611 0.568082 0.575885
Si Si4 0.148254 0.569540 0.293025
Si Si5 0.895945 0.571574 0.924086
O O1 0.797207 0.750000 0.827964
O O2 0.750000 0.500000 0.869152
O O3 0.812230 0.489056 0.764168
O O4 0.841862 0.523506 0.897155
O O5 0.500000 0.538184 0.766202
O O6 0.437700 0.750000 0.813274
O O7 0.406595 0.524872 0.732810
O O8 0.436254 0.481101 0.866973
O O9 0.181282 0.500000 0.500000
O O10 0.201401 0.750000 0.570818
O O11 0.250000 0.500000 0.599474
O O12 0.156762 0.518005 0.632867
O O13 0.154869 0.750000 0.304219
O O14 0.900415 0.750000 0.933144
O O15 0.907631 0.500000 0.000000
#
# Coordination Sequence:
#
# PCOD8279119 Si02
#       5
#    16  16  16  16  16
#     4  10  20  33  49  71  98 131 170 207 247 295
#     4   9  19  36  57  78  99 127 165 208 254 302
#     4  11  21  34  52  77 109 141 173 205 242 288
#     4  10  19  33  53  76 103 133 166 206 250 295
#     4  10  21  35  51  72  99 130 165 207 253 303
#
# _framework density 17.960232000000001
#
# number of rings (size 3 to 8) (size 9 to 14) (size 15 to 20)
#    0.000    2.000    0.000    4.800    0.000    4.400 
#    0.000    2.000    0.000    0.600    0.000    0.000 
#    0.000    0.000    0.000    0.000    0.000    0.000 
#
# Total GULP energy -496129.985921 kJ/mol
# GULP energy per Si atom -12403.249648 kJ/mol
# Density = 1.791935 g / cm^3
# Si number density = 17.960232 Si / 1000 Ang^3
#
#
#
# Elastic Constant Matrix: (Units=GPa)
#
#
# Indices 1 2 3 4 5 6 
#
# 1 98.1584 31.2411 42.9477 0.0000 0.0000 0.0000
# 2 31.2411 91.4000 44.0803 0.0000 0.0000 0.0000
# 3 42.9477 44.0803 116.6784 0.0000 0.0000 0.0000
# 4 0.0000 0.0000 0.0000 29.8086 0.0000 0.0000
# 5 0.0000 0.0000 0.0000 0.0000 -36.7603 0.0000
# 6 0.0000 0.0000 0.0000 0.0000 0.0000 22.9899
#
#
#
# Elastic Compliance Matrix: (Units=1/GPa)
#
#
# Indices 1 2 3 4 5 6 
#
# 1 0.012605 -0.002532 -0.003683 0.000000 0.000000 0.000000
# 2 -0.002532 0.013887 -0.004314 0.000000 0.000000 0.000000
# 3 -0.003683 -0.004314 0.011556 0.000000 0.000000 0.000000
# 4 0.000000 0.000000 0.000000 0.033547 0.000000 0.000000
# 5 0.000000 0.000000 0.000000 0.000000 -0.027203 0.000000
# 6 0.000000 0.000000 0.000000 0.000000 0.000000 0.043497
#
#
# Mechanical properties :
#
#
# Convention : Reuss Voigt Hill
#
# Bulk Modulus (GPa) = 58.86153 60.30832 59.58493
# Shear Modulus (GPa) = 43.62530 15.73881 29.68206
#
# Velocity S-wave (km/s) = 4.93383 2.96347 4.06970
# Velocity P-wave (km/s) = 8.08092 6.73508 7.43850
#
# Compressibility (1/GPa) = 0.01698902
#
# Stress axis : x y z
#
# Youngs Moduli (GPa) = 79.33346 72.00875 86.53350
#
# Poissons Ratio (x) = 0.18234 0.31871
# Poissons Ratio (y) = 0.20089 0.37334
# Poissons Ratio (z) = 0.29219 0.31068
#
# Static dielectric constant tensor:
#      x y z
#    x 3.339150 0.000000 0.000000 
#    y 0.000000 3.417960 0.000000 
#    z 0.000000 0.000000 3.333500 
# 
# 
# High freq. dielectric constant tensor:
#      x y z
#    x 1.686160 0.000000 0.000000 
#    y 0.000000 1.710700 0.000000 
#    z 0.000000 0.000000 1.685670 
# 
# From -- ./inp_files/32114.got.cif
#   From: 2010.03.12/outbox.cif.g09.slc.cpg/sg67_17_cif.got.tgz:32114.got - 2010.04.10 22:41:39.
