data_PCOD8279393
_publ_section_title
;
Structure prediction by ZEFSAII (Michael W. Deem and Ramdas Pophale) SiO2 
 PCOD8279393
Probable space group: C M M A
;
_chemical_formula_sum "Si O2"
_cell_formula_units_Z 96
_cell_length_a 14.157393
_cell_length_b 17.665167
_cell_length_c 20.297545
_cell_angle_alpha 90.000000
_cell_angle_beta 90.000000
_cell_angle_gamma 90.000000
_cell_volume 5076.268068
_symmetry_space_group_name_H-M "C M M A"
_symmetry_group_IT_number 67
_symmetry_cell_setting 'orthorhombic'
loop_
_space_group_symop_operation_xyz
x,y,z
-x,1/2-y,z
x,-y,-z
-x,1/2+y,-z
-x,-y,-z
x,1/2+y,-z
-x,y,z
x,1/2-y,z
1/2+x,1/2+y,z
1/2-x,-y,z
1/2+x,1/2-y,-z
1/2-x,y,-z
1/2-x,1/2-y,-z
1/2+x,y,-z
1/2-x,1/2+y,z
1/2+x,-y,z
loop_
_atom_site_type_symbol
_atom_site_label
_atom_site_fract_x
_atom_site_fract_y
_atom_site_fract_z
Si Si1 0.500000 0.536788 0.321360
Si Si2 0.708513 0.915880 0.319039
Si Si3 0.808922 0.161763 0.795895
Si Si4 0.184464 0.163580 0.562801
Si Si5 0.179674 0.163095 0.944331
Si Si6 0.000000 0.928748 0.202636
Si Si7 0.500000 0.564089 0.945866
Si Si8 0.500000 0.065280 0.445525
O O1 0.404806 0.586333 0.330470
O O2 0.500000 0.501177 0.249129
O O3 0.500000 0.468952 0.373058
O O4 0.729691 0.877826 0.248700
O O5 0.759088 0.867832 0.375068
O O6 0.750000 0.000000 0.320452
O O7 0.817335 0.250000 0.778024
O O8 0.777235 0.149592 0.871587
O O9 0.910038 0.123700 0.783157
O O10 0.155721 0.250000 0.577582
O O11 0.250000 0.156831 0.500000
O O12 0.091715 0.116388 0.546103
O O13 0.151954 0.250000 0.953750
O O14 0.088519 0.115638 0.958000
O O15 0.250000 0.134575 0.000000
O O16 0.000000 0.964972 0.129549
O O17 0.500000 0.500000 0.000000
O O18 0.500000 0.000000 0.500000
#
# Coordination Sequence:
#
# PCOD8279393 Si02
#       8
#     8  16  16  16  16   8   8   8
#     4  12  24  38  57  92 119 159 197 236 301 357
#     4  12  23  40  62  88 123 158 197 246 302 362
#     4  10  20  37  61  86 113 152 200 251 303 354
#     4  11  25  43  64  93 125 162 206 252 298 356
#     4   9  19  37  58  80 111 154 199 241 292 356
#     4  10  19  36  59  84 118 145 196 257 300 356
#     4  10  21  33  52  86 116 150 189 244 303 352
#     4  12  23  39  68  94 122 162 205 252 301 357
#
# _framework density 18.911531
#
# number of rings (size 3 to 8) (size 9 to 14) (size 15 to 20)
#    0.000    1.333    3.333    2.250    0.000    3.667 
#    0.000    5.000    0.000    2.000    0.000    0.000 
#    0.000    0.000    0.000    0.000    0.000    0.000 
#
# Total GULP energy -595281.574029 kJ/mol
# GULP energy per Si atom -12401.699459 kJ/mol
# Density = 1.886849 g / cm^3
# Si number density = 18.911531 Si / 1000 Ang^3
#
#
#
# Elastic Constant Matrix: (Units=GPa)
#
#
# Indices 1 2 3 4 5 6 
#
# 1 135.4292 67.0893 54.8552 0.0000 0.0000 0.0000
# 2 67.0893 99.2496 65.7326 0.0000 0.0000 0.0000
# 3 54.8552 65.7326 121.0062 0.0000 0.0000 0.0000
# 4 0.0000 0.0000 0.0000 38.3395 0.0000 0.0000
# 5 0.0000 0.0000 0.0000 0.0000 29.5603 0.0000
# 6 0.0000 0.0000 0.0000 0.0000 0.0000 22.9790
#
#
#
# Elastic Compliance Matrix: (Units=1/GPa)
#
#
# Indices 1 2 3 4 5 6 
#
# 1 0.011277 -0.006618 -0.001517 0.000000 0.000000 0.000000
# 2 -0.006618 0.019621 -0.007659 0.000000 0.000000 0.000000
# 3 -0.001517 -0.007659 0.013112 0.000000 0.000000 0.000000
# 4 0.000000 0.000000 0.000000 0.026083 0.000000 0.000000
# 5 0.000000 0.000000 0.000000 0.000000 0.033829 0.000000
# 6 0.000000 0.000000 0.000000 0.000000 0.000000 0.043518
#
#
# Mechanical properties :
#
#
# Convention : Reuss Voigt Hill
#
# Bulk Modulus (GPa) = 80.49594 81.22659 80.86127
# Shear Modulus (GPa) = 27.29729 29.37629 28.33679
#
# Velocity S-wave (km/s) = 3.80336 3.94554 3.87510
# Velocity P-wave (km/s) = 7.87047 7.98752 7.92921
#
# Compressibility (1/GPa) = 0.01242299
#
# Stress axis : x y z
#
# Youngs Moduli (GPa) = 88.67713 50.96485 76.26586
#
# Poissons Ratio (x) = 0.33729 0.11570
# Poissons Ratio (y) = 0.58687 0.58409
# Poissons Ratio (z) = 0.13453 0.39032
#
# Static dielectric constant tensor:
#      x y z
#    x 3.324950 0.000000 0.000000 
#    y 0.000000 3.550250 0.000000 
#    z 0.000000 0.000000 3.743270 
# 
# 
# High freq. dielectric constant tensor:
#      x y z
#    x 1.738500 0.000000 0.000000 
#    y 0.000000 1.734590 0.000000 
#    z 0.000000 0.000000 1.753420 
# 
# From -- ./inp_files/38590.got.cif
#   From: 2010.03.12/outbox.cif.g09.slc.cpg/sg67_20_cif.got.tgz:38590.got - 2010.04.10 22:41:39.
