data_PCOD8279880
_publ_section_title
;
Structure prediction by ZEFSAII (Michael W. Deem and Ramdas Pophale) SiO2 
 PCOD8279880
Probable space group: C M M A
;
_chemical_formula_sum "Si O2"
_cell_formula_units_Z 96
_cell_length_a 19.763050
_cell_length_b 19.966178
_cell_length_c 13.384420
_cell_angle_alpha 90.000000
_cell_angle_beta 90.000000
_cell_angle_gamma 90.000000
_cell_volume 5281.392741
_symmetry_space_group_name_H-M "C M M A"
_symmetry_group_IT_number 67
_symmetry_cell_setting 'orthorhombic'
loop_
_space_group_symop_operation_xyz
x,y,z
-x,1/2-y,z
x,-y,-z
-x,1/2+y,-z
-x,-y,-z
x,1/2+y,-z
-x,y,z
x,1/2-y,z
1/2+x,1/2+y,z
1/2-x,-y,z
1/2+x,1/2-y,-z
1/2-x,y,-z
1/2-x,1/2-y,-z
1/2+x,y,-z
1/2-x,1/2+y,z
1/2+x,-y,z
loop_
_atom_site_type_symbol
_atom_site_label
_atom_site_fract_x
_atom_site_fract_y
_atom_site_fract_z
Si Si1 0.207907 0.938669 0.782759
Si Si2 0.426998 0.672225 0.959066
Si Si3 0.284349 0.328111 0.106437
Si Si4 0.422602 0.173868 0.611048
Si Si5 0.574898 0.117207 0.826414
Si Si6 0.682815 0.068724 0.552727
O O1 0.245160 0.868944 0.808539
O O2 0.132162 0.940417 0.829413
O O3 0.202643 0.947871 0.665247
O O4 0.250000 0.000000 0.829973
O O5 0.500000 0.639951 0.925664
O O6 0.429753 0.750000 0.937216
O O7 0.362098 0.644130 0.899048
O O8 0.416782 0.663607 0.077351
O O9 0.281416 0.250000 0.135579
O O10 0.250000 0.340885 0.000000
O O11 0.500000 0.159864 0.580467
O O12 0.402095 0.250000 0.585842
O O13 0.412128 0.162945 0.729264
O O14 0.376257 0.123968 0.545972
O O15 0.500000 0.083994 0.822496
O O16 0.750000 0.097501 0.500000
O O17 0.658205 0.000000 0.500000
#
# Coordination Sequence:
#
# PCOD8279880 Si02
#       6
#    16  16  16  16  16  16
#     4  11  21  35  57  78 109 144 181 230 279 318
#     4   9  16  29  50  74 108 150 182 211 254 314
#     4  10  20  34  52  81 114 145 183 219 264 330
#     4   9  18  31  52  85 116 138 174 230 283 332
#     4   9  17  30  50  78 109 143 182 221 267 319
#     4  10  20  38  58  76 107 145 188 234 280 332
#
# _framework density 18.177023999999999
#
# number of rings (size 3 to 8) (size 9 to 14) (size 15 to 20)
#    0.000    2.333    3.333    0.500    0.000    5.667 
#    0.000    0.833    0.000    3.000    0.000    2.333 
#    0.000    0.000    0.000    0.000    0.000    0.000 
#
# Total GULP energy -594849.510985 kJ/mol
# GULP energy per Si atom -12392.698146 kJ/mol
# Density = 1.813565 g / cm^3
# Si number density = 18.177024 Si / 1000 Ang^3
#
#
#
# Elastic Constant Matrix: (Units=GPa)
#
#
# Indices 1 2 3 4 5 6 
#
# 1 162.2215 67.9734 26.3717 0.0000 0.0000 0.0000
# 2 67.9734 99.7925 26.7285 0.0000 0.0000 0.0000
# 3 26.3717 26.7285 44.5549 0.0000 0.0000 0.0000
# 4 0.0000 0.0000 0.0000 22.7565 0.0000 0.0000
# 5 0.0000 0.0000 0.0000 0.0000 17.9313 0.0000
# 6 0.0000 0.0000 0.0000 0.0000 0.0000 30.5424
#
#
#
# Elastic Compliance Matrix: (Units=1/GPa)
#
#
# Indices 1 2 3 4 5 6 
#
# 1 0.008761 -0.005455 -0.001913 0.000000 0.000000 0.000000
# 2 -0.005455 0.015336 -0.005971 0.000000 0.000000 0.000000
# 3 -0.001913 -0.005971 0.027159 0.000000 0.000000 0.000000
# 4 0.000000 0.000000 0.000000 0.043944 0.000000 0.000000
# 5 0.000000 0.000000 0.000000 0.000000 0.055768 0.000000
# 6 0.000000 0.000000 0.000000 0.000000 0.000000 0.032741
#
#
# Mechanical properties :
#
#
# Convention : Reuss Voigt Hill
#
# Bulk Modulus (GPa) = 40.68863 60.96845 50.82854
# Shear Modulus (GPa) = 22.87487 26.61239 24.74363
#
# Velocity S-wave (km/s) = 3.55131 3.83046 3.69353
# Velocity P-wave (km/s) = 6.26490 7.29230 6.79804
#
# Compressibility (1/GPa) = 0.02457689
#
# Stress axis : x y z
#
# Youngs Moduli (GPa) = 114.13861 65.20614 36.82070
#
# Poissons Ratio (x) = 0.35572 0.07044
# Poissons Ratio (y) = 0.62266 0.21986
# Poissons Ratio (z) = 0.21836 0.38935
#
# Static dielectric constant tensor:
#      x y z
#    x 4.074550 0.000000 0.000000 
#    y 0.000000 3.122270 0.000000 
#    z 0.000000 0.000000 3.066730 
# 
# 
# High freq. dielectric constant tensor:
#      x y z
#    x 1.730480 0.000000 0.000000 
#    y 0.000000 1.678320 0.000000 
#    z 0.000000 0.000000 1.672320 
# 
# From -- ./inp_files/20840.got.cif
#   From: 2010.03.12/outbox.cif.g09.slc.cpg/sg67_11_cif.got.tgz:20840.got - 2010.04.10 22:41:39.
