data_PCOD8279703
_publ_section_title
;
Structure prediction by ZEFSAII (Michael W. Deem and Ramdas Pophale) SiO2 
 PCOD8279703
Probable space group: C M M A
;
_chemical_formula_sum "Si O2"
_cell_formula_units_Z 80
_cell_length_a 8.909025
_cell_length_b 19.468525
_cell_length_c 25.696162
_cell_angle_alpha 90.000000
_cell_angle_beta 90.000000
_cell_angle_gamma 90.000000
_cell_volume 4456.885617
_symmetry_space_group_name_H-M "C M M A"
_symmetry_group_IT_number 67
_symmetry_cell_setting 'orthorhombic'
loop_
_space_group_symop_operation_xyz
x,y,z
-x,1/2-y,z
x,-y,-z
-x,1/2+y,-z
-x,-y,-z
x,1/2+y,-z
-x,y,z
x,1/2-y,z
1/2+x,1/2+y,z
1/2-x,-y,z
1/2+x,1/2-y,-z
1/2-x,y,-z
1/2-x,1/2-y,-z
1/2+x,y,-z
1/2-x,1/2+y,z
1/2+x,-y,z
loop_
_atom_site_type_symbol
_atom_site_label
_atom_site_fract_x
_atom_site_fract_y
_atom_site_fract_z
Si Si1 0.174907 0.670240 0.747142
Si Si2 0.673709 0.828757 0.852947
Si Si3 0.321986 0.427811 0.053869
Si Si4 0.174870 0.073871 0.663791
Si Si5 0.174127 0.426258 0.548685
O O1 0.213746 0.750000 0.738934
O O2 0.230574 0.645873 0.803699
O O3 0.259569 0.628435 0.703255
O O4 0.000000 0.655061 0.742717
O O5 0.500000 0.839457 0.838994
O O6 0.709643 0.750000 0.866642
O O7 0.721993 0.872934 0.902523
O O8 0.500000 0.435925 0.047220
O O9 0.250000 0.500000 0.070462
O O10 0.250000 0.401773 0.000000
O O11 0.202076 0.105950 0.605844
O O12 0.000000 0.063541 0.674651
O O13 0.250000 0.000000 0.671338
O O14 0.250000 0.500000 0.550298
O O15 0.250000 0.384333 0.500000
O O16 0.000000 0.433514 0.536531
#
# Coordination Sequence:
#
# PCOD8279703 Si02
#       5
#    16  16  16  16  16
#     4  10  21  36  54  76 102 134 171 211 256 304
#     4   9  19  36  55  74  98 131 170 208 248 296
#     4  10  20  34  53  76 103 134 165 200 245 295
#     4  10  20  33  51  76 104 134 169 210 254 302
#     4   9  16  26  43  68  97 129 163 201 248 297
#
# _framework density 17.949753999999999
#
# number of rings (size 3 to 8) (size 9 to 14) (size 15 to 20)
#    0.000    2.400    0.000    3.600    0.000    6.400 
#    0.000    2.000    0.000    0.600    0.000    0.000 
#    0.000    0.000    0.000    0.000    0.000    0.000 
#
# Total GULP energy -495858.184876 kJ/mol
# GULP energy per Si atom -12396.454622 kJ/mol
# Density = 1.790890 g / cm^3
# Si number density = 17.949754 Si / 1000 Ang^3
#
#
#
# Elastic Constant Matrix: (Units=GPa)
#
#
# Indices 1 2 3 4 5 6 
#
# 1 118.3758 49.7131 86.2345 0.0000 0.0000 0.0000
# 2 49.7131 64.0863 79.1642 0.0000 0.0000 0.0000
# 3 86.2345 79.1642 175.2044 0.0000 0.0000 0.0000
# 4 0.0000 0.0000 0.0000 -36.0716 0.0000 0.0000
# 5 0.0000 0.0000 0.0000 0.0000 31.4232 0.0000
# 6 0.0000 0.0000 0.0000 0.0000 0.0000 25.9209
#
#
#
# Elastic Compliance Matrix: (Units=1/GPa)
#
#
# Indices 1 2 3 4 5 6 
#
# 1 0.013918 -0.005283 -0.004463 0.000000 0.000000 0.000000
# 2 -0.005283 0.037320 -0.014262 0.000000 0.000000 0.000000
# 3 -0.004463 -0.014262 0.014349 0.000000 0.000000 0.000000
# 4 0.000000 0.000000 0.000000 -0.027723 0.000000 0.000000
# 5 0.000000 0.000000 0.000000 0.000000 0.031824 0.000000
# 6 0.000000 0.000000 0.000000 0.000000 0.000000 0.038579
#
#
# Mechanical properties :
#
#
# Convention : Reuss Voigt Hill
#
# Bulk Modulus (GPa) = 56.91751 87.54333 72.23042
# Shear Modulus (GPa) = 30.83763 13.75815 22.29789
#
# Velocity S-wave (km/s) = 4.14937 2.77154 3.52837
# Velocity P-wave (km/s) = 7.39828 7.68890 7.54499
#
# Compressibility (1/GPa) = 0.01756929
#
# Stress axis : x y z
#
# Youngs Moduli (GPa) = 71.85149 26.79522 69.69321
#
# Poissons Ratio (x) = 0.14156 0.31104
# Poissons Ratio (y) = 0.37960 0.99399
# Poissons Ratio (z) = 0.32068 0.38216
#
# Static dielectric constant tensor:
#      x y z
#    x 3.465130 0.000000 0.000000 
#    y 0.000000 3.051280 0.000000 
#    z 0.000000 0.000000 3.971600 
# 
# 
# High freq. dielectric constant tensor:
#      x y z
#    x 1.711130 0.000000 0.000000 
#    y 0.000000 1.660300 0.000000 
#    z 0.000000 0.000000 1.714300 
# 
# From -- ./inp_files/43278.got.cif
#   From: 2010.03.12/outbox.cif.g09.slc.cpg/sg67_22_cif.got.tgz:43278.got - 2010.04.10 22:41:39.
