data_PCOD8279879
_publ_section_title
;
Structure prediction by ZEFSAII (Michael W. Deem and Ramdas Pophale) SiO2 
 PCOD8279879
Probable space group: C M M A
;
_chemical_formula_sum "Si O2"
_cell_formula_units_Z 96
_cell_length_a 16.708246
_cell_length_b 18.828798
_cell_length_c 16.007779
_cell_angle_alpha 90.000000
_cell_angle_beta 90.000000
_cell_angle_gamma 90.000000
_cell_volume 5035.986266
_symmetry_space_group_name_H-M "C M M A"
_symmetry_group_IT_number 67
_symmetry_cell_setting 'orthorhombic'
loop_
_space_group_symop_operation_xyz
x,y,z
-x,1/2-y,z
x,-y,-z
-x,1/2+y,-z
-x,-y,-z
x,1/2+y,-z
-x,y,z
x,1/2-y,z
1/2+x,1/2+y,z
1/2-x,-y,z
1/2+x,1/2-y,-z
1/2-x,y,-z
1/2-x,1/2-y,-z
1/2+x,y,-z
1/2-x,1/2+y,z
1/2+x,-y,z
loop_
_atom_site_type_symbol
_atom_site_label
_atom_site_fract_x
_atom_site_fract_y
_atom_site_fract_z
Si Si1 0.909333 0.971107 0.085022
Si Si2 0.693589 0.829025 0.574149
Si Si3 0.406355 0.033223 0.413734
Si Si4 0.252993 0.327270 0.750284
Si Si5 0.910627 0.670561 0.159559
Si Si6 0.834243 0.532064 0.748267
O O1 0.904592 0.885242 0.083210
O O2 0.000000 0.999548 0.088092
O O3 0.866930 0.996668 0.168487
O O4 0.867718 0.000000 0.000000
O O5 0.655967 0.750000 0.556761
O O6 0.750000 0.855355 0.500000
O O7 0.626395 0.886958 0.594478
O O8 0.753768 0.823269 0.651229
O O9 0.500000 0.041033 0.419940
O O10 0.372126 0.000000 0.500000
O O11 0.388301 0.982799 0.333291
O O12 0.277284 0.250000 0.788424
O O13 0.161175 0.346656 0.776348
O O14 0.320209 0.385302 0.773734
O O15 0.901593 0.750000 0.122974
O O16 0.000000 0.661853 0.201891
O O17 0.750000 0.500000 0.721745
#
# Coordination Sequence:
#
# PCOD8279879 Si02
#       6
#    16  16  16  16  16  16
#     4  10  21  37  57  82 112 147 188 233 280 337
#     4  10  20  34  54  80 111 148 185 229 285 341
#     4  11  24  38  57  85 115 149 191 236 278 333
#     4  10  20  34  52  81 112 143 186 229 280 335
#     4   9  17  32  54  80 111 143 178 228 285 335
#     4  12  21  36  59  84 111 150 184 231 282 337
#
# _framework density 19.062799999999999
#
# number of rings (size 3 to 8) (size 9 to 14) (size 15 to 20)
#    0.000    1.667    3.333    1.500    0.000    2.667 
#    0.000    2.500    0.000    6.000    0.000    0.000 
#    0.000    0.000    0.000    0.000    0.000    0.000 
#
# Total GULP energy -594698.092877 kJ/mol
# GULP energy per Si atom -12389.543602 kJ/mol
# Density = 1.901941 g / cm^3
# Si number density = 19.062800 Si / 1000 Ang^3
#
#
#
# Elastic Constant Matrix: (Units=GPa)
#
#
# Indices 1 2 3 4 5 6 
#
# 1 46.7854 43.0845 18.6844 0.0000 0.0000 0.0000
# 2 43.0845 140.2191 43.0486 0.0000 0.0000 0.0000
# 3 18.6844 43.0486 108.6716 0.0000 0.0000 0.0000
# 4 0.0000 0.0000 0.0000 23.3242 0.0000 0.0000
# 5 0.0000 0.0000 0.0000 0.0000 17.9109 0.0000
# 6 0.0000 0.0000 0.0000 0.0000 0.0000 22.9847
#
#
#
# Elastic Compliance Matrix: (Units=1/GPa)
#
#
# Indices 1 2 3 4 5 6 
#
# 1 0.030089 -0.008717 -0.001720 0.000000 0.000000 0.000000
# 2 -0.008717 0.010645 -0.002718 0.000000 0.000000 0.000000
# 3 -0.001720 -0.002718 0.010574 0.000000 0.000000 0.000000
# 4 0.000000 0.000000 0.000000 0.042874 0.000000 0.000000
# 5 0.000000 0.000000 0.000000 0.000000 0.055832 0.000000
# 6 0.000000 0.000000 0.000000 0.000000 0.000000 0.043507
#
#
# Mechanical properties :
#
#
# Convention : Reuss Voigt Hill
#
# Bulk Modulus (GPa) = 40.00416 56.14568 48.07492
# Shear Modulus (GPa) = 21.91409 25.56786 23.74097
#
# Velocity S-wave (km/s) = 3.39421 3.66627 3.53286
# Velocity P-wave (km/s) = 6.03257 6.88760 6.47422
#
# Compressibility (1/GPa) = 0.02499740
#
# Stress axis : x y z
#
# Youngs Moduli (GPa) = 33.23502 93.94432 94.56755
#
# Poissons Ratio (x) = 0.81893 0.16267
# Poissons Ratio (y) = 0.28971 0.25703
# Poissons Ratio (z) = 0.05717 0.25533
#
# Static dielectric constant tensor:
#      x y z
#    x 3.398890 0.000000 0.000000 
#    y 0.000000 4.035420 0.000000 
#    z 0.000000 0.000000 3.438700 
# 
# 
# High freq. dielectric constant tensor:
#      x y z
#    x 1.720260 0.000000 0.000000 
#    y 0.000000 1.758750 0.000000 
#    z 0.000000 0.000000 1.725190 
# 
# From -- ./inp_files/27192.got.cif
#   From: 2010.03.12/outbox.cif.g09.slc.cpg/sg67_14_cif.got.tgz:27192.got - 2010.04.10 22:41:39.
