data_PCOD8279464
_publ_section_title
;
Structure prediction by ZEFSAII (Michael W. Deem and Ramdas Pophale) SiO2 
 PCOD8279464
Probable space group: C M M A
;
_chemical_formula_sum "Si O2"
_cell_formula_units_Z 104
_cell_length_a 9.319920
_cell_length_b 24.618526
_cell_length_c 28.503467
_cell_angle_alpha 90.000000
_cell_angle_beta 90.000000
_cell_angle_gamma 90.000000
_cell_volume 6539.912224
_symmetry_space_group_name_H-M "C M M A"
_symmetry_group_IT_number 67
_symmetry_cell_setting 'orthorhombic'
loop_
_space_group_symop_operation_xyz
x,y,z
-x,1/2-y,z
x,-y,-z
-x,1/2+y,-z
-x,-y,-z
x,1/2+y,-z
-x,y,z
x,1/2-y,z
1/2+x,1/2+y,z
1/2-x,-y,z
1/2+x,1/2-y,-z
1/2-x,y,-z
1/2-x,1/2-y,-z
1/2+x,y,-z
1/2-x,1/2+y,z
1/2+x,-y,z
loop_
_atom_site_type_symbol
_atom_site_label
_atom_site_fract_x
_atom_site_fract_y
_atom_site_fract_z
Si Si1 0.832210 0.446065 0.546579
Si Si2 0.000000 0.814609 0.038495
Si Si3 0.834799 0.685436 0.696946
Si Si4 0.667423 0.158491 0.392780
Si Si5 0.174900 0.250000 0.449939
Si Si6 0.000000 0.314485 0.065917
Si Si7 0.658630 0.314114 0.215428
Si Si8 0.720883 0.314466 0.113127
O O1 0.750000 0.500000 0.564288
O O2 0.750000 0.424923 0.500000
O O3 0.819542 0.401727 0.587020
O O4 0.000000 0.457959 0.535340
O O5 0.867982 0.836103 0.068893
O O6 0.000000 0.750000 0.033240
O O7 0.000000 0.840517 0.986298
O O8 0.820305 0.750000 0.691001
O O9 0.731649 0.656925 0.659313
O O10 0.777933 0.665369 0.747718
O O11 0.000000 0.667103 0.691069
O O12 0.500000 0.177810 0.392789
O O13 0.769475 0.197260 0.423026
O O14 0.250000 0.250000 0.500000
O O15 0.000000 0.250000 0.453226
O O16 0.875151 0.335068 0.099059
O O17 0.000000 0.250000 0.059855
O O18 0.500000 0.330091 0.233587
O O19 0.674107 0.250000 0.210870
O O20 0.681173 0.340101 0.163674
O O21 0.702754 0.250000 0.116510
#
# Coordination Sequence:
#
# PCOD8279464 Si02
#       8
#    16   8  16  16   8   8  16  16
#     4  10  21  36  56  79 100 127 156 187 224 267
#     4   9  14  22  30  40  58  82 114 154 203 266
#     4  10  20  31  45  65  86 113 147 185 230 273
#     4  11  22  36  53  73  99 126 157 190 231 276
#     4  12  24  36  52  74 100 130 160 188 227 272
#     4   9  16  20  28  42  60  82 110 156 211 254
#     4   9  16  26  38  50  68  98 132 170 215 265
#     4   9  15  22  31  43  60  83 118 157 207 262
#
# _framework density 15.902354000000001
#
# number of rings (size 3 to 8) (size 9 to 14) (size 15 to 20)
#    0.000    2.154    1.538    3.462    1.077    6.154 
#    0.000    0.000    0.000    0.000    0.000    0.000 
#    0.000    0.000    0.000    0.000    0.000    0.000 
#
# Total GULP energy -644261.507288 kJ/mol
# GULP energy per Si atom -12389.644371 kJ/mol
# Density = 1.586616 g / cm^3
# Si number density = 15.902354 Si / 1000 Ang^3
#
#
#
# Elastic Constant Matrix: (Units=GPa)
#
#
# Indices 1 2 3 4 5 6 
#
# 1 139.4910 20.5685 51.0771 0.0000 0.0000 0.0000
# 2 20.5685 29.6594 19.9965 0.0000 0.0000 0.0000
# 3 51.0771 19.9965 108.4810 0.0000 0.0000 0.0000
# 4 0.0000 0.0000 0.0000 6.3236 0.0000 0.0000
# 5 0.0000 0.0000 0.0000 0.0000 45.0887 0.0000
# 6 0.0000 0.0000 0.0000 0.0000 0.0000 14.2171
#
#
#
# Elastic Compliance Matrix: (Units=1/GPa)
#
#
# Indices 1 2 3 4 5 6 
#
# 1 0.009037 -0.003881 -0.003540 0.000000 0.000000 0.000000
# 2 -0.003881 0.040167 -0.005577 0.000000 0.000000 0.000000
# 3 -0.003540 -0.005577 0.011913 0.000000 0.000000 0.000000
# 4 0.000000 0.000000 0.000000 0.158137 0.000000 0.000000
# 5 0.000000 0.000000 0.000000 0.000000 0.022178 0.000000
# 6 0.000000 0.000000 0.000000 0.000000 0.000000 0.070338
#
#
# Mechanical properties :
#
#
# Convention : Reuss Voigt Hill
#
# Bulk Modulus (GPa) = 28.47164 51.21287 39.84226
# Shear Modulus (GPa) = 14.30723 25.52516 19.91620
#
# Velocity S-wave (km/s) = 3.00274 4.01074 3.54277
# Velocity P-wave (km/s) = 5.47402 7.32957 6.46867
#
# Compressibility (1/GPa) = 0.03512267
#
# Stress axis : x y z
#
# Youngs Moduli (GPa) = 110.65242 24.89582 83.94285
#
# Poissons Ratio (x) = 0.09661 0.29714
# Poissons Ratio (y) = 0.42942 0.46814
# Poissons Ratio (z) = 0.39168 0.13884
#
# Static dielectric constant tensor:
#      x y z
#    x 3.242300 0.000000 0.000000 
#    y 0.000000 2.382070 0.000000 
#    z 0.000000 0.000000 3.278860 
# 
# 
# High freq. dielectric constant tensor:
#      x y z
#    x 1.636330 0.000000 0.000000 
#    y 0.000000 1.519290 0.000000 
#    z 0.000000 0.000000 1.627230 
# 
# From -- ./inp_files/45435.got.cif
#   From: 2010.03.12/outbox.cif.g09.slc.cpg/sg67_23_cif.got.tgz:45435.got - 2010.04.10 22:41:39.
