data_PCOD8279827
_publ_section_title
;
Structure prediction by ZEFSAII (Michael W. Deem and Ramdas Pophale) SiO2 
 PCOD8279827
Probable space group: C M M A
;
_chemical_formula_sum "Si O2"
_cell_formula_units_Z 80
_cell_length_a 19.348496
_cell_length_b 8.740227
_cell_length_c 25.570496
_cell_angle_alpha 90.000000
_cell_angle_beta 90.000000
_cell_angle_gamma 90.000000
_cell_volume 4324.232898
_symmetry_space_group_name_H-M "C M M A"
_symmetry_group_IT_number 67
_symmetry_cell_setting 'orthorhombic'
loop_
_space_group_symop_operation_xyz
x,y,z
-x,1/2-y,z
x,-y,-z
-x,1/2+y,-z
-x,-y,-z
x,1/2+y,-z
-x,y,z
x,1/2-y,z
1/2+x,1/2+y,z
1/2-x,-y,z
1/2+x,1/2-y,-z
1/2-x,y,-z
1/2-x,1/2-y,-z
1/2+x,y,-z
1/2-x,1/2+y,z
1/2+x,-y,z
loop_
_atom_site_type_symbol
_atom_site_label
_atom_site_fract_x
_atom_site_fract_y
_atom_site_fract_z
Si Si1 0.578909 0.570520 0.351127
Si Si2 0.823895 0.431403 0.445325
Si Si3 0.918576 0.426140 0.139616
Si Si4 0.177406 0.569412 0.055687
Si Si5 0.917902 0.578033 0.245475
O O1 0.500000 0.519929 0.361043
O O2 0.584405 0.750000 0.341672
O O3 0.622283 0.517300 0.401145
O O4 0.610767 0.490345 0.299713
O O5 0.850646 0.500000 0.500000
O O6 0.817942 0.250000 0.450384
O O7 0.750000 0.500000 0.430123
O O8 0.898753 0.250000 0.131119
O O9 0.882140 0.529702 0.096499
O O10 0.891762 0.477226 0.196760
O O11 0.000000 0.454058 0.134116
O O12 0.184943 0.750000 0.050172
O O13 0.250000 0.500000 0.075168
O O14 0.156004 0.500000 0.000000
O O15 0.889987 0.750000 0.238600
O O16 0.000000 0.573290 0.247471
#
# Coordination Sequence:
#
# PCOD8279827 Si02
#       5
#    16  16  16  16  16
#     4   9  18  33  52  74 100 131 167 207 252 302
#     4  10  20  34  52  72  98 132 167 205 250 301
#     4  10  20  35  56  81 109 141 177 217 261 309
#     4  11  22  38  58  79 107 141 178 218 263 315
#     4   9  17  30  50  77 106 135 168 209 258 307
#
# _framework density 18.500392000000002
#
# number of rings (size 3 to 8) (size 9 to 14) (size 15 to 20)
#    0.000    2.200    0.000    4.800    0.000    6.000 
#    0.000    1.000    0.000    2.400    0.000    0.000 
#    0.000    0.000    0.000    0.000    0.000    0.000 
#
# Total GULP energy -496084.199492 kJ/mol
# GULP energy per Si atom -12402.104987 kJ/mol
# Density = 1.845828 g / cm^3
# Si number density = 18.500392 Si / 1000 Ang^3
#
#
#
# Elastic Constant Matrix: (Units=GPa)
#
#
# Indices 1 2 3 4 5 6 
#
# 1 57.2494 37.4893 63.4510 0.0000 0.0000 0.0000
# 2 37.4893 115.4331 61.8671 0.0000 0.0000 0.0000
# 3 63.4510 61.8671 147.2285 0.0000 0.0000 0.0000
# 4 0.0000 0.0000 0.0000 36.5604 0.0000 0.0000
# 5 0.0000 0.0000 0.0000 0.0000 5.3828 0.0000
# 6 0.0000 0.0000 0.0000 0.0000 0.0000 24.7613
#
#
#
# Elastic Compliance Matrix: (Units=1/GPa)
#
#
# Indices 1 2 3 4 5 6 
#
# 1 0.034973 -0.004234 -0.013293 0.000000 0.000000 0.000000
# 2 -0.004234 0.011694 -0.003089 0.000000 0.000000 0.000000
# 3 -0.013293 -0.003089 0.013819 0.000000 0.000000 0.000000
# 4 0.000000 0.000000 0.000000 0.027352 0.000000 0.000000
# 5 0.000000 0.000000 0.000000 0.000000 0.185775 0.000000
# 6 0.000000 0.000000 0.000000 0.000000 0.000000 0.040386
#
#
# Mechanical properties :
#
#
# Convention : Reuss Voigt Hill
#
# Bulk Modulus (GPa) = 51.93801 71.72510 61.83156
# Shear Modulus (GPa) = 13.82553 23.81448 18.82001
#
# Velocity S-wave (km/s) = 2.73666 3.59171 3.19294
# Velocity P-wave (km/s) = 6.17420 7.48693 6.86203
#
# Compressibility (1/GPa) = 0.01925372
#
# Stress axis : x y z
#
# Youngs Moduli (GPa) = 28.59337 85.51621 72.36236
#
# Poissons Ratio (x) = 0.36204 0.96194
# Poissons Ratio (y) = 0.12105 0.22355
# Poissons Ratio (z) = 0.38010 0.26418
#
# Static dielectric constant tensor:
#      x y z
#    x 3.182420 0.000000 0.000000 
#    y 0.000000 3.506360 0.000000 
#    z 0.000000 0.000000 3.572400 
# 
# 
# High freq. dielectric constant tensor:
#      x y z
#    x 1.688800 0.000000 0.000000 
#    y 0.000000 1.731540 0.000000 
#    z 0.000000 0.000000 1.730350 
# 
# From -- ./inp_files/43329.got.cif
#   From: 2010.03.12/outbox.cif.g09.slc.cpg/sg67_22_cif.got.tgz:43329.got - 2010.04.10 22:41:39.
