data_PCOD8279929
_publ_section_title
;
Structure prediction by ZEFSAII (Michael W. Deem and Ramdas Pophale) SiO2 
 PCOD8279929
Probable space group: C M M A
;
_chemical_formula_sum "Si O2"
_cell_formula_units_Z 96
_cell_length_a 8.726036
_cell_length_b 25.736909
_cell_length_c 23.417370
_cell_angle_alpha 90.000000
_cell_angle_beta 90.000000
_cell_angle_gamma 90.000000
_cell_volume 5259.100926
_symmetry_space_group_name_H-M "C M M A"
_symmetry_group_IT_number 67
_symmetry_cell_setting 'orthorhombic'
loop_
_space_group_symop_operation_xyz
x,y,z
-x,1/2-y,z
x,-y,-z
-x,1/2+y,-z
-x,-y,-z
x,1/2+y,-z
-x,y,z
x,1/2-y,z
1/2+x,1/2+y,z
1/2-x,-y,z
1/2+x,1/2-y,-z
1/2-x,y,-z
1/2-x,1/2-y,-z
1/2+x,y,-z
1/2-x,1/2+y,z
1/2+x,-y,z
loop_
_atom_site_type_symbol
_atom_site_label
_atom_site_fract_x
_atom_site_fract_y
_atom_site_fract_z
Si Si1 0.817706 0.349601 0.562163
Si Si2 0.818438 0.250000 0.631582
Si Si3 0.820168 0.946345 0.758737
Si Si4 0.318270 0.445301 0.628643
Si Si5 0.320638 0.689613 0.939895
Si Si6 0.181404 0.846003 0.826939
Si Si7 0.318096 0.250000 0.239568
O O1 0.750000 0.341550 0.500000
O O2 0.757878 0.301348 0.599908
O O3 0.754537 0.402105 0.588828
O O4 0.000000 0.351947 0.559203
O O5 0.754551 0.250000 0.695944
O O6 0.000000 0.250000 0.632319
O O7 0.767334 0.934453 0.693954
O O8 0.763595 0.900158 0.799534
O O9 0.000000 0.952565 0.761204
O O10 0.750000 0.000000 0.781528
O O11 0.500000 0.445548 0.621340
O O12 0.250000 0.500000 0.607976
O O13 0.500000 0.678045 0.940260
O O14 0.286057 0.750000 0.927383
O O15 0.239052 0.655155 0.891884
O O16 0.250000 0.672482 0.000000
O O17 0.258140 0.800722 0.791276
O O18 0.000000 0.839277 0.824765
O O19 0.500000 0.250000 0.236629
#
# Coordination Sequence:
#
# PCOD8279929 Si02
#       7
#    16   8  16  16  16  16   8
#     4  11  22  38  57  79 105 139 178 220 267 319
#     4   9  21  38  56  77 107 142 179 218 263 319
#     4   9  20  36  56  81 109 143 181 220 268 320
#     4  10  20  37  58  82 109 138 175 221 271 323
#     4  10  20  34  53  78 110 148 187 224 268 317
#     4  11  21  34  53  81 115 146 179 222 268 318
#     4  11  21  34  53  81 110 142 179 218 266 319
#
# _framework density 18.254071
#
# number of rings (size 3 to 8) (size 9 to 14) (size 15 to 20)
#    0.000    1.833    0.833    3.500    0.000    3.000 
#    0.000    5.417    0.000    0.500    0.000    3.500 
#    0.000    0.000    0.000    0.000    0.000    0.000 
#
# Total GULP energy -595397.102878 kJ/mol
# GULP energy per Si atom -12404.106310 kJ/mol
# Density = 1.821252 g / cm^3
# Si number density = 18.254071 Si / 1000 Ang^3
#
#
#
# Elastic Constant Matrix: (Units=GPa)
#
#
# Indices 1 2 3 4 5 6 
#
# 1 70.9468 38.7279 41.1282 0.0000 0.0000 0.0000
# 2 38.7279 121.4391 71.2211 0.0000 0.0000 0.0000
# 3 41.1282 71.2211 139.5838 0.0000 0.0000 0.0000
# 4 0.0000 0.0000 0.0000 23.1876 0.0000 0.0000
# 5 0.0000 0.0000 0.0000 0.0000 31.4682 0.0000
# 6 0.0000 0.0000 0.0000 0.0000 0.0000 25.3102
#
#
#
# Elastic Compliance Matrix: (Units=1/GPa)
#
#
# Indices 1 2 3 4 5 6 
#
# 1 0.018139 -0.003782 -0.003415 0.000000 0.000000 0.000000
# 2 -0.003782 0.012539 -0.005284 0.000000 0.000000 0.000000
# 3 -0.003415 -0.005284 0.010866 0.000000 0.000000 0.000000
# 4 0.000000 0.000000 0.000000 0.043127 0.000000 0.000000
# 5 0.000000 0.000000 0.000000 0.000000 0.031778 0.000000
# 6 0.000000 0.000000 0.000000 0.000000 0.000000 0.039510
#
#
# Mechanical properties :
#
#
# Convention : Reuss Voigt Hill
#
# Bulk Modulus (GPa) = 60.30043 70.45823 65.37933
# Shear Modulus (GPa) = 26.81700 28.05268 27.43484
#
# Velocity S-wave (km/s) = 3.83704 3.92444 3.88099
# Velocity P-wave (km/s) = 7.26197 7.69529 7.48176
#
# Compressibility (1/GPa) = 0.01658363
#
# Stress axis : x y z
#
# Youngs Moduli (GPa) = 55.12914 79.74808 92.02685
#
# Poissons Ratio (x) = 0.30160 0.31427
# Poissons Ratio (y) = 0.20849 0.48625
# Poissons Ratio (z) = 0.18827 0.42137
#
# Static dielectric constant tensor:
#      x y z
#    x 3.384340 0.000000 0.000000 
#    y 0.000000 1.677600 0.000000 
#    z 0.000000 0.000000 3.617650 
# 
# 
# High freq. dielectric constant tensor:
#      x y z
#    x 1.713540 0.000000 0.000000 
#    y 0.000000 1.704570 0.000000 
#    z 0.000000 0.000000 1.712970 
# 
# From -- ./inp_files/40822.got.cif
#   From: 2010.03.12/outbox.cif.g09.slc.cpg/sg67_21_cif.got.tgz:40822.got - 2010.04.10 22:41:39.
