data_PCOD8279173
_publ_section_title
;
Structure prediction by ZEFSAII (Michael W. Deem and Ramdas Pophale) SiO2 
 PCOD8279173
Probable space group: C M M A
;
_chemical_formula_sum "Si O2"
_cell_formula_units_Z 112
_cell_length_a 26.120848
_cell_length_b 19.137734
_cell_length_c 12.699747
_cell_angle_alpha 90.000000
_cell_angle_beta 90.000000
_cell_angle_gamma 90.000000
_cell_volume 6348.525306
_symmetry_space_group_name_H-M "C M M A"
_symmetry_group_IT_number 67
_symmetry_cell_setting 'orthorhombic'
loop_
_space_group_symop_operation_xyz
x,y,z
-x,1/2-y,z
x,-y,-z
-x,1/2+y,-z
-x,-y,-z
x,1/2+y,-z
-x,y,z
x,1/2-y,z
1/2+x,1/2+y,z
1/2-x,-y,z
1/2+x,1/2-y,-z
1/2-x,y,-z
1/2-x,1/2-y,-z
1/2+x,y,-z
1/2-x,1/2+y,z
1/2+x,-y,z
loop_
_atom_site_type_symbol
_atom_site_label
_atom_site_fract_x
_atom_site_fract_y
_atom_site_fract_z
Si Si1 0.943387 0.333010 0.989186
Si Si2 0.878022 0.170687 0.180860
Si Si3 0.142849 0.579624 0.627701
Si Si4 0.744541 0.080355 0.305310
Si Si5 0.238718 0.671238 0.884009
Si Si6 0.136222 0.918463 0.389709
Si Si7 0.940370 0.667842 0.245921
O O1 0.943071 0.250000 0.994235
O O2 0.924362 0.355017 0.872720
O O3 0.000000 0.362738 0.007283
O O4 0.909282 0.363257 0.083854
O O5 0.895295 0.250000 0.206539
O O6 0.887633 0.124730 0.285404
O O7 0.820612 0.168835 0.141329
O O8 0.202971 0.600516 0.635139
O O9 0.130740 0.498435 0.647755
O O10 0.122543 0.596763 0.511158
O O11 0.732696 0.122825 0.199191
O O12 0.696472 0.099256 0.378762
O O13 0.750000 0.000000 0.273259
O O14 0.260470 0.750000 0.874852
O O15 0.250000 0.641537 0.000000
O O16 0.097339 0.872202 0.323560
O O17 0.932197 0.750000 0.262715
O O18 0.000000 0.648574 0.267316
#
# Coordination Sequence:
#
# PCOD8279173 Si02
#       7
#    16  16  16  16  16  16  16
#     4   8  15  30  52  74  95 124 161 200 245 297
#     4   9  17  31  50  69  98 131 158 200 253 297
#     4   9  19  35  49  74 104 130 169 213 252 292
#     4   9  18  32  50  71  97 132 173 209 244 297
#     4   9  18  29  43  68 100 128 158 200 248 299
#     4  10  19  33  55  72  96 139 174 205 254 307
#     4   9  19  35  54  78 104 128 166 217 257 297
#
# _framework density 17.641893
#
# number of rings (size 3 to 8) (size 9 to 14) (size 15 to 20)
#    0.000    3.000    0.000    1.286    2.000    3.143 
#    0.000    3.571    0.000    7.714    0.000    0.000 
#    0.000    0.000    0.000    0.000    0.000    0.000 
#
# Total GULP energy -694028.980367 kJ/mol
# GULP energy per Si atom -12393.374649 kJ/mol
# Density = 1.760174 g / cm^3
# Si number density = 17.641893 Si / 1000 Ang^3
#
#
#
# Elastic Constant Matrix: (Units=GPa)
#
#
# Indices 1 2 3 4 5 6 
#
# 1 59.9167 32.1497 46.6939 0.0000 0.0000 0.0000
# 2 32.1497 51.6339 55.4902 0.0000 0.0000 0.0000
# 3 46.6939 55.4902 140.9690 0.0000 0.0000 0.0000
# 4 0.0000 0.0000 0.0000 29.8741 0.0000 0.0000
# 5 0.0000 0.0000 0.0000 0.0000 30.1791 0.0000
# 6 0.0000 0.0000 0.0000 0.0000 0.0000 23.6892
#
#
#
# Elastic Compliance Matrix: (Units=1/GPa)
#
#
# Indices 1 2 3 4 5 6 
#
# 1 0.026257 -0.012136 -0.003920 0.000000 0.000000 0.000000
# 2 -0.012136 0.039176 -0.011401 0.000000 0.000000 0.000000
# 3 -0.003920 -0.011401 0.012880 0.000000 0.000000 0.000000
# 4 0.000000 0.000000 0.000000 0.033474 0.000000 0.000000
# 5 0.000000 0.000000 0.000000 0.000000 0.033136 0.000000
# 6 0.000000 0.000000 0.000000 0.000000 0.000000 0.042213
#
#
# Mechanical properties :
#
#
# Convention : Reuss Voigt Hill
#
# Bulk Modulus (GPa) = 42.73742 57.90968 50.32355
# Shear Modulus (GPa) = 20.01206 24.62753 22.31979
#
# Velocity S-wave (km/s) = 3.37166 3.74032 3.56077
# Velocity P-wave (km/s) = 6.27973 7.17981 6.74480
#
# Compressibility (1/GPa) = 0.02339870
#
# Stress axis : x y z
#
# Youngs Moduli (GPa) = 38.08576 25.52567 77.63893
#
# Poissons Ratio (x) = 0.30977 0.30435
# Poissons Ratio (y) = 0.46220 0.88518
# Poissons Ratio (z) = 0.14930 0.29103
#
# Static dielectric constant tensor:
#      x y z
#    x 3.225030 0.000000 0.000000 
#    y 0.000000 3.176220 0.000000 
#    z 0.000000 0.000000 3.430890 
# 
# 
# High freq. dielectric constant tensor:
#      x y z
#    x 1.668930 0.000000 0.000000 
#    y 0.000000 1.659240 0.000000 
#    z 0.000000 0.000000 1.690920 
# 
# From -- ./inp_files/21130.got.cif
#   From: 2010.03.12/outbox.cif.g09.slc.cpg/sg67_11_cif.got.tgz:21130.got - 2010.04.10 22:41:39.
