data_PCOD8279304
_publ_section_title
;
Structure prediction by ZEFSAII (Michael W. Deem and Ramdas Pophale) SiO2 
 PCOD8279304
Probable space group: C M M A
;
_chemical_formula_sum "Si O2"
_cell_formula_units_Z 112
_cell_length_a 23.229836
_cell_length_b 17.582427
_cell_length_c 13.152150
_cell_angle_alpha 90.000000
_cell_angle_beta 90.000000
_cell_angle_gamma 90.000000
_cell_volume 5371.823318
_symmetry_space_group_name_H-M "C M M A"
_symmetry_group_IT_number 67
_symmetry_cell_setting 'orthorhombic'
loop_
_space_group_symop_operation_xyz
x,y,z
-x,1/2-y,z
x,-y,-z
-x,1/2+y,-z
-x,-y,-z
x,1/2+y,-z
-x,y,z
x,1/2-y,z
1/2+x,1/2+y,z
1/2-x,-y,z
1/2+x,1/2-y,-z
1/2-x,y,-z
1/2-x,1/2-y,-z
1/2+x,y,-z
1/2-x,1/2+y,z
1/2+x,-y,z
loop_
_atom_site_type_symbol
_atom_site_label
_atom_site_fract_x
_atom_site_fract_y
_atom_site_fract_z
Si Si1 0.660406 0.336604 0.157194
Si Si2 0.332065 0.163367 0.926624
Si Si3 0.564852 0.085560 0.463948
Si Si4 0.934376 0.938493 0.230929
Si Si5 0.264768 0.412006 0.752370
Si Si6 0.139468 0.836342 0.626304
Si Si7 0.567224 0.386642 0.808628
O O1 0.644200 0.250000 0.180933
O O2 0.603029 0.386451 0.157414
O O3 0.705220 0.365427 0.242092
O O4 0.686366 0.345156 0.043683
O O5 0.319302 0.250000 0.889861
O O6 0.297434 0.103593 0.858179
O O7 0.399731 0.143368 0.909255
O O8 0.500000 0.116231 0.486135
O O9 0.578555 0.087785 0.345189
O O10 0.612835 0.135305 0.520283
O O11 0.569546 0.000000 0.500000
O O12 0.000000 0.924927 0.200601
O O13 0.917776 0.025827 0.214114
O O14 0.250000 0.500000 0.739524
O O15 0.304056 0.385045 0.657835
O O16 0.159633 0.750000 0.612105
O O17 0.089920 0.840215 0.711548
O O18 0.500000 0.371906 0.824418
#
# Coordination Sequence:
#
# PCOD8279304 Si02
#       7
#    16  16  16  16  16  16  16
#     4  11  23  40  61  83 118 164 201 247 306 359
#     4  10  22  38  58  87 121 157 201 249 299 361
#     4  10  20  38  65  91 122 162 199 242 299 360
#     4  10  22  39  61  89 119 157 205 250 297 360
#     4  11  23  39  63  90 116 154 201 255 303 362
#     4  11  22  37  61  93 124 154 199 253 305 361
#     4  10  19  34  57  87 123 158 195 246 303 356
#
# _framework density 20.849532
#
# number of rings (size 3 to 8) (size 9 to 14) (size 15 to 20)
#    0.000    1.571    1.429    5.143    0.000    7.429 
#    0.000    5.000    0.000    1.714    0.000    0.000 
#    0.000    0.000    0.000    0.000    0.000    0.000 
#
# Total GULP energy -694451.343935 kJ/mol
# GULP energy per Si atom -12400.916856 kJ/mol
# Density = 2.080208 g / cm^3
# Si number density = 20.849532 Si / 1000 Ang^3
#
#
#
# Elastic Constant Matrix: (Units=GPa)
#
#
# Indices 1 2 3 4 5 6 
#
# 1 75.5362 47.6018 15.6223 0.0000 0.0000 0.0000
# 2 47.6018 124.2292 33.4322 0.0000 0.0000 0.0000
# 3 15.6223 33.4322 40.7971 0.0000 0.0000 0.0000
# 4 0.0000 0.0000 0.0000 27.9840 0.0000 0.0000
# 5 0.0000 0.0000 0.0000 0.0000 36.2813 0.0000
# 6 0.0000 0.0000 0.0000 0.0000 0.0000 33.1180
#
#
#
# Elastic Compliance Matrix: (Units=1/GPa)
#
#
# Indices 1 2 3 4 5 6 
#
# 1 0.017529 -0.006300 -0.001550 0.000000 0.000000 0.000000
# 2 -0.006300 0.012591 -0.007906 0.000000 0.000000 0.000000
# 3 -0.001550 -0.007906 0.031584 0.000000 0.000000 0.000000
# 4 0.000000 0.000000 0.000000 0.035735 0.000000 0.000000
# 5 0.000000 0.000000 0.000000 0.000000 0.027562 0.000000
# 6 0.000000 0.000000 0.000000 0.000000 0.000000 0.030195
#
#
# Mechanical properties :
#
#
# Convention : Reuss Voigt Hill
#
# Bulk Modulus (GPa) = 33.12014 48.20834 40.66424
# Shear Modulus (GPa) = 25.41019 29.07039 27.24029
#
# Velocity S-wave (km/s) = 3.49484 3.73808 3.61850
# Velocity P-wave (km/s) = 5.67494 6.46554 6.08310
#
# Compressibility (1/GPa) = 0.03019311
#
# Stress axis : x y z
#
# Youngs Moduli (GPa) = 57.04764 79.42118 31.66194
#
# Poissons Ratio (x) = 0.50033 0.04908
# Poissons Ratio (y) = 0.35938 0.25031
# Poissons Ratio (z) = 0.08842 0.62789
#
# Static dielectric constant tensor:
#      x y z
#    x 3.940580 0.000000 0.000000 
#    y 0.000000 3.738880 0.000000 
#    z 0.000000 0.000000 3.410550 
# 
# 
# High freq. dielectric constant tensor:
#      x y z
#    x 1.824180 0.000000 0.000000 
#    y 0.000000 1.818550 0.000000 
#    z 0.000000 0.000000 1.798260 
# 
# From -- ./inp_files/30133.got.cif
#   From: 2010.03.12/outbox.cif.g09.slc.cpg/sg67_16_cif.got.tgz:30133.got - 2010.04.10 22:41:39.
