data_PCOD8279351
_publ_section_title
;
Structure prediction by ZEFSAII (Michael W. Deem and Ramdas Pophale) SiO2 
 PCOD8279351
Probable space group: C M M A
;
_chemical_formula_sum "Si O2"
_cell_formula_units_Z 96
_cell_length_a 28.552485
_cell_length_b 8.872553
_cell_length_c 20.416427
_cell_angle_alpha 90.000000
_cell_angle_beta 90.000000
_cell_angle_gamma 90.000000
_cell_volume 5172.163612
_symmetry_space_group_name_H-M "C M M A"
_symmetry_group_IT_number 67
_symmetry_cell_setting 'orthorhombic'
loop_
_space_group_symop_operation_xyz
x,y,z
-x,1/2-y,z
x,-y,-z
-x,1/2+y,-z
-x,-y,-z
x,1/2+y,-z
-x,y,z
x,1/2-y,z
1/2+x,1/2+y,z
1/2-x,-y,z
1/2+x,1/2-y,-z
1/2-x,y,-z
1/2-x,1/2-y,-z
1/2+x,y,-z
1/2-x,1/2+y,z
1/2+x,-y,z
loop_
_atom_site_type_symbol
_atom_site_label
_atom_site_fract_x
_atom_site_fract_y
_atom_site_fract_z
Si Si1 0.891670 0.928168 0.813806
Si Si2 0.444710 0.576670 0.932738
Si Si3 0.702750 0.073213 0.373526
Si Si4 0.893357 0.426709 0.567074
Si Si5 0.054605 0.075312 0.696874
Si Si6 0.797959 0.427781 0.777768
O O1 0.887032 0.750000 0.817362
O O2 0.921660 0.986801 0.874024
O O3 0.917018 0.973116 0.746777
O O4 0.840426 0.001451 0.818463
O O5 0.500000 0.563745 0.923595
O O6 0.428359 0.750000 0.932176
O O7 0.428298 0.500000 0.000000
O O8 0.707912 0.250000 0.380919
O O9 0.658233 0.011613 0.413774
O O10 0.695063 0.027943 0.298092
O O11 0.750000 0.000000 0.402108
O O12 0.910928 0.500000 0.500000
O O13 0.891262 0.250000 0.556624
O O14 0.930297 0.469170 0.623515
O O15 0.067043 0.250000 0.711131
O O16 0.000000 0.043347 0.705306
O O17 0.796690 0.250000 0.788703
O O18 0.750000 0.500000 0.804552
#
# Coordination Sequence:
#
# PCOD8279351 Si02
#       6
#    16  16  16  16  16  16
#     4  12  23  35  57  88 119 151 189 233 280 332
#     4  10  21  38  60  87 121 159 195 234 282 333
#     4   9  18  33  53  75 104 136 174 222 276 335
#     4  10  21  37  53  75 104 140 181 229 284 343
#     4  10  21  39  59  77 104 144 188 235 288 341
#     4  10  19  35  57  83 114 147 186 231 282 336
#
# _framework density 18.560898000000002
#
# number of rings (size 3 to 8) (size 9 to 14) (size 15 to 20)
#    0.000    1.833    1.667    3.000    0.000    6.000 
#    0.000    1.667    0.000    0.500    0.000    3.500 
#    0.000    0.000    0.000    0.000    0.000    0.000 
#
# Total GULP energy -595377.795042 kJ/mol
# GULP energy per Si atom -12403.704063 kJ/mol
# Density = 1.851865 g / cm^3
# Si number density = 18.560898 Si / 1000 Ang^3
#
#
#
# Elastic Constant Matrix: (Units=GPa)
#
#
# Indices 1 2 3 4 5 6 
#
# 1 67.8315 38.0388 17.8054 0.0000 0.0000 0.0000
# 2 38.0388 93.5481 36.4015 0.0000 0.0000 0.0000
# 3 17.8054 36.4015 72.5443 0.0000 0.0000 0.0000
# 4 0.0000 0.0000 0.0000 31.3364 0.0000 0.0000
# 5 0.0000 0.0000 0.0000 0.0000 15.1659 0.0000
# 6 0.0000 0.0000 0.0000 0.0000 0.0000 27.0008
#
#
#
# Elastic Compliance Matrix: (Units=1/GPa)
#
#
# Indices 1 2 3 4 5 6 
#
# 1 0.019154 -0.007405 -0.000985 0.000000 0.000000 0.000000
# 2 -0.007405 0.016146 -0.006284 0.000000 0.000000 0.000000
# 3 -0.000985 -0.006284 0.017180 0.000000 0.000000 0.000000
# 4 0.000000 0.000000 0.000000 0.031912 0.000000 0.000000
# 5 0.000000 0.000000 0.000000 0.000000 0.065937 0.000000
# 6 0.000000 0.000000 0.000000 0.000000 0.000000 0.037036
#
#
# Mechanical properties :
#
#
# Convention : Reuss Voigt Hill
#
# Bulk Modulus (GPa) = 43.23341 46.49060 44.86200
# Shear Modulus (GPa) = 22.27925 24.14582 23.21254
#
# Velocity S-wave (km/s) = 3.46834 3.61071 3.54024
# Velocity P-wave (km/s) = 6.27555 6.51805 6.39795
#
# Compressibility (1/GPa) = 0.02313026
#
# Stress axis : x y z
#
# Youngs Moduli (GPa) = 52.20946 61.93473 58.20739
#
# Poissons Ratio (x) = 0.45862 0.05736
# Poissons Ratio (y) = 0.38660 0.36580
# Poissons Ratio (z) = 0.05145 0.38922
#
# Static dielectric constant tensor:
#      x y z
#    x 3.574360 0.000000 0.000000 
#    y 0.000000 3.425360 0.000000 
#    z 0.000000 0.000000 3.361760 
# 
# 
# High freq. dielectric constant tensor:
#      x y z
#    x 1.726850 0.000000 0.000000 
#    y 0.000000 1.721560 0.000000 
#    z 0.000000 0.000000 1.705600 
# 
# From -- ./inp_files/37205.got.cif
#   From: 2010.03.12/outbox.cif.g09.slc.cpg/sg67_19_cif.got.tgz:37205.got - 2010.04.10 22:41:39.
