data_PCOD8279337
_publ_section_title
;
Structure prediction by ZEFSAII (Michael W. Deem and Ramdas Pophale) SiO2 
 PCOD8279337
Probable space group: C M M A
;
_chemical_formula_sum "Si O2"
_cell_formula_units_Z 96
_cell_length_a 8.686114
_cell_length_b 23.726845
_cell_length_c 26.073863
_cell_angle_alpha 90.000000
_cell_angle_beta 90.000000
_cell_angle_gamma 90.000000
_cell_volume 5373.668821
_symmetry_space_group_name_H-M "C M M A"
_symmetry_group_IT_number 67
_symmetry_cell_setting 'orthorhombic'
loop_
_space_group_symop_operation_xyz
x,y,z
-x,1/2-y,z
x,-y,-z
-x,1/2+y,-z
-x,-y,-z
x,1/2+y,-z
-x,y,z
x,1/2-y,z
1/2+x,1/2+y,z
1/2-x,-y,z
1/2+x,1/2-y,-z
1/2-x,y,-z
1/2-x,1/2-y,-z
1/2+x,y,-z
1/2-x,1/2+y,z
1/2+x,-y,z
loop_
_atom_site_type_symbol
_atom_site_label
_atom_site_fract_x
_atom_site_fract_y
_atom_site_fract_z
Si Si1 0.182300 0.438563 0.146826
Si Si2 0.181021 0.750000 0.210145
Si Si3 0.319730 0.561813 0.549588
Si Si4 0.182436 0.628823 0.240553
Si Si5 0.319450 0.938861 0.661582
Si Si6 0.817110 0.250000 0.904188
Si Si7 0.316936 0.869128 0.945576
O O1 0.250000 0.500000 0.156083
O O2 0.227191 0.400906 0.195144
O O3 0.253670 0.412705 0.095684
O O4 0.000000 0.441743 0.141424
O O5 0.231581 0.694453 0.241192
O O6 0.253946 0.750000 0.153117
O O7 0.000000 0.750000 0.202766
O O8 0.500000 0.558792 0.541875
O O9 0.250000 0.500000 0.549438
O O10 0.250000 0.595453 0.500000
O O11 0.276009 0.587607 0.605493
O O12 0.238655 0.603760 0.294791
O O13 0.000000 0.621013 0.231700
O O14 0.500000 0.947284 0.665213
O O15 0.250000 0.000000 0.671260
O O16 0.757816 0.305834 0.933137
O O17 0.000000 0.250000 0.902043
O O18 0.500000 0.872447 0.945931
O O19 0.250000 0.887815 0.000000
#
# Coordination Sequence:
#
# PCOD8279337 Si02
#       7
#    16   8  16  16  16   8  16
#     4  12  25  40  57  79 105 138 173 209 252 304
#     4   9  16  31  57  81 101 132 168 205 254 303
#     4   9  15  24  38  61  92 128 167 205 247 294
#     4  10  19  35  56  78 104 135 170 211 256 304
#     4   9  18  29  45  70 101 134 169 208 250 300
#     4   9  17  33  59  85 108 135 167 206 252 302
#     4  11  22  39  60  84 110 137 170 208 252 302
#
# _framework density 17.864889000000002
#
# number of rings (size 3 to 8) (size 9 to 14) (size 15 to 20)
#    0.000    2.000    1.667    3.750    0.000    3.000 
#    0.000    4.167    0.000    0.000    0.000    0.583 
#    0.000    0.000    0.000    0.000    0.000    0.000 
#
# Total GULP energy -594973.439279 kJ/mol
# GULP energy per Si atom -12395.279985 kJ/mol
# Density = 1.782423 g / cm^3
# Si number density = 17.864889 Si / 1000 Ang^3
#
#
#
# Elastic Constant Matrix: (Units=GPa)
#
#
# Indices 1 2 3 4 5 6 
#
# 1 66.6695 28.3331 41.8108 0.0000 0.0000 0.0000
# 2 28.3331 105.6510 60.7320 0.0000 0.0000 0.0000
# 3 41.8108 60.7320 178.5949 0.0000 0.0000 0.0000
# 4 0.0000 0.0000 0.0000 15.4433 0.0000 0.0000
# 5 0.0000 0.0000 0.0000 0.0000 19.2346 0.0000
# 6 0.0000 0.0000 0.0000 0.0000 0.0000 17.5068
#
#
#
# Elastic Compliance Matrix: (Units=1/GPa)
#
#
# Indices 1 2 3 4 5 6 
#
# 1 0.018336 -0.003045 -0.003257 0.000000 0.000000 0.000000
# 2 -0.003045 0.012271 -0.003460 0.000000 0.000000 0.000000
# 3 -0.003257 -0.003460 0.007538 0.000000 0.000000 0.000000
# 4 0.000000 0.000000 0.000000 0.064753 0.000000 0.000000
# 5 0.000000 0.000000 0.000000 0.000000 0.051990 0.000000
# 6 0.000000 0.000000 0.000000 0.000000 0.000000 0.057121
#
#
# Mechanical properties :
#
#
# Convention : Reuss Voigt Hill
#
# Bulk Modulus (GPa) = 53.70268 68.07414 60.88841
# Shear Modulus (GPa) = 21.03144 25.10624 23.06884
#
# Velocity S-wave (km/s) = 3.43483 3.75285 3.59736
# Velocity P-wave (km/s) = 6.77174 7.54760 7.17017
#
# Compressibility (1/GPa) = 0.01862104
#
# Stress axis : x y z
#
# Youngs Moduli (GPa) = 54.53720 81.49611 132.65538
#
# Poissons Ratio (x) = 0.24815 0.43209
# Poissons Ratio (y) = 0.16606 0.45896
# Poissons Ratio (z) = 0.17764 0.28196
#
# Static dielectric constant tensor:
#      x y z
#    x 3.244510 0.000000 0.000000 
#    y 0.000000 3.319340 0.000000 
#    z 0.000000 0.000000 4.206020 
# 
# 
# High freq. dielectric constant tensor:
#      x y z
#    x 1.682780 0.000000 0.000000 
#    y 0.000000 1.663540 0.000000 
#    z 0.000000 0.000000 1.709050 
# 
# From -- ./inp_files/43698.got.cif
#   From: 2010.03.12/outbox.cif.g09.slc.cpg/sg67_22_cif.got.tgz:43698.got - 2010.04.10 22:41:39.
