data_PCOD8279250
_publ_section_title
;
Structure prediction by ZEFSAII (Michael W. Deem and Ramdas Pophale) SiO2 
 PCOD8279250
Probable space group: C M M A
;
_chemical_formula_sum "Si O2"
_cell_formula_units_Z 128
_cell_length_a 19.848151
_cell_length_b 17.740257
_cell_length_c 19.670668
_cell_angle_alpha 90.000000
_cell_angle_beta 90.000000
_cell_angle_gamma 90.000000
_cell_volume 6926.264476
_symmetry_space_group_name_H-M "C M M A"
_symmetry_group_IT_number 67
_symmetry_cell_setting 'orthorhombic'
loop_
_space_group_symop_operation_xyz
x,y,z
-x,1/2-y,z
x,-y,-z
-x,1/2+y,-z
-x,-y,-z
x,1/2+y,-z
-x,y,z
x,1/2-y,z
1/2+x,1/2+y,z
1/2-x,-y,z
1/2+x,1/2-y,-z
1/2-x,y,-z
1/2-x,1/2-y,-z
1/2+x,y,-z
1/2-x,1/2+y,z
1/2+x,-y,z
loop_
_atom_site_type_symbol
_atom_site_label
_atom_site_fract_x
_atom_site_fract_y
_atom_site_fract_z
Si Si1 0.806064 0.098766 0.826783
Si Si2 0.837085 0.659649 0.688441
Si Si3 0.578833 0.072398 0.954057
Si Si4 0.819945 0.337961 0.967708
Si Si5 0.314551 0.663873 0.689241
Si Si6 0.424475 0.339852 0.412395
Si Si7 0.343546 0.568166 0.182687
Si Si8 0.425318 0.660663 0.436426
O O1 0.839554 0.119117 0.898273
O O2 0.832611 0.155644 0.768810
O O3 0.725992 0.107495 0.840906
O O4 0.826878 0.017557 0.798063
O O5 0.841978 0.750000 0.700422
O O6 0.760399 0.630609 0.678406
O O7 0.870425 0.615838 0.752555
O O8 0.874938 0.631044 0.621103
O O9 0.500000 0.088716 0.957987
O O10 0.600237 0.064411 0.875764
O O11 0.618657 0.144918 0.981825
O O12 0.598778 0.000000 0.000000
O O13 0.814429 0.250000 0.952696
O O14 0.750000 0.368367 0.000000
O O15 0.312880 0.750000 0.667814
O O16 0.370785 0.624643 0.640987
O O17 0.500000 0.369800 0.395679
O O18 0.425423 0.250000 0.407819
O O19 0.402615 0.366016 0.488298
O O20 0.500000 0.629420 0.420598
O O21 0.426367 0.750000 0.434674
#
# Coordination Sequence:
#
# PCOD8279250 Si02
#       8
#    16  16  16  16  16  16  16  16
#     4  10  19  34  55  77 101 134 178 216 257 316
#     4   9  18  30  47  75 105 130 165 215 266 310
#     4  11  23  39  57  79 109 142 179 221 265 317
#     4  11  22  36  60  86 106 136 179 223 268 319
#     4   9  17  29  46  72 104 129 161 215 262 304
#     4   8  14  26  45  69  97 133 173 208 253 311
#     4  10  20  34  55  75 100 140 175 212 261 319
#     4   8  14  26  45  69  98 132 170 210 254 311
#
# _framework density 18.48038
#
# number of rings (size 3 to 8) (size 9 to 14) (size 15 to 20)
#    0.000    2.500    2.500    1.125    0.000    2.500 
#    0.000    3.750    0.000    2.250    0.000    5.250 
#    0.000    0.000    0.000    0.000    0.000    0.000 
#
# Total GULP energy -793216.659216 kJ/mol
# GULP energy per Si atom -12394.010300 kJ/mol
# Density = 1.843832 g / cm^3
# Si number density = 18.480380 Si / 1000 Ang^3
#
#
#
# Elastic Constant Matrix: (Units=GPa)
#
#
# Indices 1 2 3 4 5 6 
#
# 1 98.7470 20.3307 75.8448 0.0000 0.0000 0.0000
# 2 20.3307 34.9835 24.2645 0.0000 0.0000 0.0000
# 3 75.8448 24.2645 145.3801 0.0000 0.0000 0.0000
# 4 0.0000 0.0000 0.0000 18.9585 0.0000 0.0000
# 5 0.0000 0.0000 0.0000 0.0000 33.2095 0.0000
# 6 0.0000 0.0000 0.0000 0.0000 0.0000 13.2955
#
#
#
# Elastic Compliance Matrix: (Units=1/GPa)
#
#
# Indices 1 2 3 4 5 6 
#
# 1 0.017459 -0.004330 -0.008386 0.000000 0.000000 0.000000
# 2 -0.004330 0.033401 -0.003316 0.000000 0.000000 0.000000
# 3 -0.008386 -0.003316 0.011807 0.000000 0.000000 0.000000
# 4 0.000000 0.000000 0.000000 0.052747 0.000000 0.000000
# 5 0.000000 0.000000 0.000000 0.000000 0.030112 0.000000
# 6 0.000000 0.000000 0.000000 0.000000 0.000000 0.075214
#
#
# Mechanical properties :
#
#
# Convention : Reuss Voigt Hill
#
# Bulk Modulus (GPa) = 32.67553 57.77671 45.22612
# Shear Modulus (GPa) = 19.01109 23.67072 21.34090
#
# Velocity S-wave (km/s) = 3.21084 3.58279 3.40190
# Velocity P-wave (km/s) = 5.60942 6.96038 6.32109
#
# Compressibility (1/GPa) = 0.03060394
#
# Stress axis : x y z
#
# Youngs Moduli (GPa) = 57.27603 29.93904 84.69687
#
# Poissons Ratio (x) = 0.12964 0.71025
# Poissons Ratio (y) = 0.24801 0.28084
# Poissons Ratio (z) = 0.48031 0.09927
#
# Static dielectric constant tensor:
#      x y z
#    x 3.462300 0.000000 0.000000 
#    y 0.000000 3.014980 0.000000 
#    z 0.000000 0.000000 3.565260 
# 
# 
# High freq. dielectric constant tensor:
#      x y z
#    x 1.703920 0.000000 0.000000 
#    y 0.000000 1.681290 0.000000 
#    z 0.000000 0.000000 1.725640 
# 
# From -- ./inp_files/35241.got.cif
#   From: 2010.03.12/outbox.cif.g09.slc.cpg/sg67_18_cif.got.tgz:35241.got - 2010.04.10 22:41:39.
