data_PCOD8279633
_publ_section_title
;
Structure prediction by ZEFSAII (Michael W. Deem and Ramdas Pophale) SiO2 
 PCOD8279633
Probable space group: C M M A
;
_chemical_formula_sum "Si O2"
_cell_formula_units_Z 96
_cell_length_a 8.791613
_cell_length_b 23.592004
_cell_length_c 25.823903
_cell_angle_alpha 90.000000
_cell_angle_beta 90.000000
_cell_angle_gamma 90.000000
_cell_volume 5356.181405
_symmetry_space_group_name_H-M "C M M A"
_symmetry_group_IT_number 67
_symmetry_cell_setting 'orthorhombic'
loop_
_space_group_symop_operation_xyz
x,y,z
-x,1/2-y,z
x,-y,-z
-x,1/2+y,-z
-x,-y,-z
x,1/2+y,-z
-x,y,z
x,1/2-y,z
1/2+x,1/2+y,z
1/2-x,-y,z
1/2+x,1/2-y,-z
1/2-x,y,-z
1/2-x,1/2-y,-z
1/2+x,y,-z
1/2-x,1/2+y,z
1/2+x,-y,z
loop_
_atom_site_type_symbol
_atom_site_label
_atom_site_fract_x
_atom_site_fract_y
_atom_site_fract_z
Si Si1 0.178612 0.560997 0.150901
Si Si2 0.320060 0.750000 0.207824
Si Si3 0.324234 0.561172 0.548923
Si Si4 0.319392 0.629001 0.245010
Si Si5 0.322126 0.938069 0.663666
Si Si6 0.680899 0.250000 0.909133
Si Si7 0.321448 0.863865 0.947871
O O1 0.250000 0.500000 0.144076
O O2 0.255328 0.591186 0.199177
O O3 0.217927 0.594819 0.099118
O O4 0.000000 0.556394 0.161234
O O5 0.500000 0.750000 0.204291
O O6 0.263329 0.693885 0.237730
O O7 0.254245 0.750000 0.149540
O O8 0.500000 0.555246 0.537041
O O9 0.250000 0.500000 0.550453
O O10 0.250000 0.595666 0.500000
O O11 0.295365 0.587602 0.605785
O O12 0.500000 0.624453 0.244854
O O13 0.255425 0.607314 0.299233
O O14 0.500000 0.943805 0.676255
O O15 0.250000 0.000000 0.671319
O O16 0.500000 0.250000 0.910135
O O17 0.742112 0.304089 0.938931
O O18 0.500000 0.855085 0.954505
O O19 0.250000 0.890723 0.000000
#
# Coordination Sequence:
#
# PCOD8279633 Si02
#       7
#    16   8  16  16  16   8  16
#     4  11  24  40  58  80 107 140 176 213 259 314
#     4   9  20  36  58  83 104 133 170 213 265 314
#     4   9  16  26  43  67 101 139 179 218 258 305
#     4  11  21  37  58  80 106 137 175 217 263 315
#     4  10  20  33  49  76 110 146 181 218 262 310
#     4  11  20  38  63  85 110 137 171 217 264 314
#     4  11  24  40  59  84 110 139 175 215 262 314
#
# _framework density 17.923216
#
# number of rings (size 3 to 8) (size 9 to 14) (size 15 to 20)
#    0.000    1.667    1.667    4.000    0.000    4.333 
#    0.000    3.333    0.000    0.000    0.000    0.583 
#    0.000    0.000    0.000    0.000    0.000    0.000 
#
# Total GULP energy -595124.807416 kJ/mol
# GULP energy per Si atom -12398.433488 kJ/mol
# Density = 1.788242 g / cm^3
# Si number density = 17.923216 Si / 1000 Ang^3
#
#
#
# Elastic Constant Matrix: (Units=GPa)
#
#
# Indices 1 2 3 4 5 6 
#
# 1 94.6898 32.7841 57.5138 0.0000 0.0000 0.0000
# 2 32.7841 84.0616 43.1763 0.0000 0.0000 0.0000
# 3 57.5138 43.1763 148.3338 0.0000 0.0000 0.0000
# 4 0.0000 0.0000 0.0000 52.0047 0.0000 0.0000
# 5 0.0000 0.0000 0.0000 0.0000 19.8242 0.0000
# 6 0.0000 0.0000 0.0000 0.0000 0.0000 23.1792
#
#
#
# Elastic Compliance Matrix: (Units=1/GPa)
#
#
# Indices 1 2 3 4 5 6 
#
# 1 0.014537 -0.003262 -0.004687 0.000000 0.000000 0.000000
# 2 -0.003262 0.014719 -0.003020 0.000000 0.000000 0.000000
# 3 -0.004687 -0.003020 0.009438 0.000000 0.000000 0.000000
# 4 0.000000 0.000000 0.000000 0.019229 0.000000 0.000000
# 5 0.000000 0.000000 0.000000 0.000000 0.050443 0.000000
# 6 0.000000 0.000000 0.000000 0.000000 0.000000 0.043142
#
#
# Mechanical properties :
#
#
# Convention : Reuss Voigt Hill
#
# Bulk Modulus (GPa) = 59.67756 66.00374 62.84065
# Shear Modulus (GPa) = 27.92808 31.90904 29.91856
#
# Velocity S-wave (km/s) = 3.95170 4.22396 4.09009
# Velocity P-wave (km/s) = 7.36137 7.79069 7.57907
#
# Compressibility (1/GPa) = 0.01675672
#
# Stress axis : x y z
#
# Youngs Moduli (GPa) = 68.78970 67.93856 105.95740
#
# Poissons Ratio (x) = 0.22162 0.49662
# Poissons Ratio (y) = 0.22440 0.31994
# Poissons Ratio (z) = 0.32242 0.20514
#
# Static dielectric constant tensor:
#      x y z
#    x 3.443760 0.000000 0.000000 
#    y 0.000000 3.204140 0.000000 
#    z 0.000000 0.000000 4.137790 
# 
# 
# High freq. dielectric constant tensor:
#      x y z
#    x 1.707550 0.000000 0.000000 
#    y 0.000000 1.663150 0.000000 
#    z 0.000000 0.000000 1.713090 
# 
# From -- ./inp_files/43694.got.cif
#   From: 2010.03.12/outbox.cif.g09.slc.cpg/sg67_22_cif.got.tgz:43694.got - 2010.04.10 22:41:39.
