data_PCOD8279349
_publ_section_title
;
Structure prediction by ZEFSAII (Michael W. Deem and Ramdas Pophale) SiO2 
 PCOD8279349
Probable space group: C M M A
;
_chemical_formula_sum "Si O2"
_cell_formula_units_Z 96
_cell_length_a 28.771287
_cell_length_b 8.828987
_cell_length_c 20.715275
_cell_angle_alpha 90.000000
_cell_angle_beta 90.000000
_cell_angle_gamma 90.000000
_cell_volume 5262.121477
_symmetry_space_group_name_H-M "C M M A"
_symmetry_group_IT_number 67
_symmetry_cell_setting 'orthorhombic'
loop_
_space_group_symop_operation_xyz
x,y,z
-x,1/2-y,z
x,-y,-z
-x,1/2+y,-z
-x,-y,-z
x,1/2+y,-z
-x,y,z
x,1/2-y,z
1/2+x,1/2+y,z
1/2-x,-y,z
1/2+x,1/2-y,-z
1/2-x,y,-z
1/2-x,1/2-y,-z
1/2+x,y,-z
1/2-x,1/2+y,z
1/2+x,-y,z
loop_
_atom_site_type_symbol
_atom_site_label
_atom_site_fract_x
_atom_site_fract_y
_atom_site_fract_z
Si Si1 0.553252 0.071114 0.065967
Si Si2 0.890746 0.070590 0.434166
Si Si3 0.703145 0.426897 0.236316
Si Si4 0.945174 0.424802 0.680281
Si Si5 0.797877 0.571234 0.385692
Si Si6 0.105142 0.430094 0.808730
O O1 0.500000 0.022066 0.077093
O O2 0.558163 0.250000 0.061162
O O3 0.583057 0.004532 0.125546
O O4 0.572868 0.000000 0.000000
O O5 0.888228 0.250000 0.439577
O O6 0.911190 0.000000 0.500000
O O7 0.925315 0.025255 0.377122
O O8 0.839446 0.004237 0.424525
O O9 0.708871 0.250000 0.228068
O O10 0.750000 0.500000 0.207956
O O11 0.695474 0.471033 0.310721
O O12 0.658429 0.486904 0.196803
O O13 0.930460 0.250000 0.668997
O O14 0.924178 0.487298 0.747283
O O15 0.000000 0.443822 0.683409
O O16 0.797823 0.750000 0.397471
O O17 0.750000 0.500000 0.411727
O O18 0.102833 0.250000 0.809832
#
# Coordination Sequence:
#
# PCOD8279349 Si02
#       6
#    16  16  16  16  16  16
#     4   9  17  30  50  77 109 143 178 214 258 311
#     4  12  25  40  57  77 106 142 180 222 271 324
#     4   9  17  30  51  77 107 135 169 213 259 312
#     4  10  20  37  60  82 104 134 177 226 273 323
#     4  10  19  35  57  82 110 138 174 218 270 324
#     4   9  16  31  55  81 106 139 177 216 260 315
#
# _framework density 18.243593000000001
#
# number of rings (size 3 to 8) (size 9 to 14) (size 15 to 20)
#    0.000    2.167    1.667    2.500    0.000    3.667 
#    0.000    3.333    0.000    2.500    0.000    3.500 
#    0.000    0.000    0.000    0.000    0.000    0.000 
#
# Total GULP energy -595265.941902 kJ/mol
# GULP energy per Si atom -12401.373790 kJ/mol
# Density = 1.820207 g / cm^3
# Si number density = 18.243593 Si / 1000 Ang^3
#
#
#
# Elastic Constant Matrix: (Units=GPa)
#
#
# Indices 1 2 3 4 5 6 
#
# 1 109.8890 33.6108 66.7242 0.0000 0.0000 0.0000
# 2 33.6108 60.3334 38.6442 0.0000 0.0000 0.0000
# 3 66.7242 38.6442 138.4940 0.0000 0.0000 0.0000
# 4 0.0000 0.0000 0.0000 24.6148 0.0000 0.0000
# 5 0.0000 0.0000 0.0000 0.0000 29.4048 0.0000
# 6 0.0000 0.0000 0.0000 0.0000 0.0000 28.7740
#
#
#
# Elastic Compliance Matrix: (Units=1/GPa)
#
#
# Indices 1 2 3 4 5 6 
#
# 1 0.013660 -0.004133 -0.005428 0.000000 0.000000 0.000000
# 2 -0.004133 0.021432 -0.003989 0.000000 0.000000 0.000000
# 3 -0.005428 -0.003989 0.010949 0.000000 0.000000 0.000000
# 4 0.000000 0.000000 0.000000 0.040626 0.000000 0.000000
# 5 0.000000 0.000000 0.000000 0.000000 0.034008 0.000000
# 6 0.000000 0.000000 0.000000 0.000000 0.000000 0.034754
#
#
# Mechanical properties :
#
#
# Convention : Reuss Voigt Hill
#
# Bulk Modulus (GPa) = 52.79624 65.18607 58.99116
# Shear Modulus (GPa) = 26.47718 27.87455 27.17586
#
# Velocity S-wave (km/s) = 3.81374 3.91309 3.86374
# Velocity P-wave (km/s) = 6.95667 7.49832 7.23257
#
# Compressibility (1/GPa) = 0.01894074
#
# Stress axis : x y z
#
# Youngs Moduli (GPa) = 73.20605 46.65912 91.33550
#
# Poissons Ratio (x) = 0.19285 0.49576
# Poissons Ratio (y) = 0.30257 0.36433
# Poissons Ratio (z) = 0.39736 0.18612
#
# Static dielectric constant tensor:
#      x y z
#    x 3.526220 0.000000 0.000000 
#    y 0.000000 3.227420 0.000000 
#    z 0.000000 0.000000 3.442970 
# 
# 
# High freq. dielectric constant tensor:
#      x y z
#    x 1.712830 0.000000 0.000000 
#    y 0.000000 1.688220 0.000000 
#    z 0.000000 0.000000 1.696880 
# 
# From -- ./inp_files/37129.got.cif
#   From: 2010.03.12/outbox.cif.g09.slc.cpg/sg67_19_cif.got.tgz:37129.got - 2010.04.10 22:41:39.
