data_PCOD8279891
_publ_section_title
;
Structure prediction by ZEFSAII (Michael W. Deem and Ramdas Pophale) SiO2 
 PCOD8279891
Probable space group: C M M A
;
_chemical_formula_sum "Si O2"
_cell_formula_units_Z 96
_cell_length_a 8.989981
_cell_length_b 17.913340
_cell_length_c 31.175736
_cell_angle_alpha 90.000000
_cell_angle_beta 90.000000
_cell_angle_gamma 90.000000
_cell_volume 5020.558802
_symmetry_space_group_name_H-M "C M M A"
_symmetry_group_IT_number 67
_symmetry_cell_setting 'orthorhombic'
loop_
_space_group_symop_operation_xyz
x,y,z
-x,1/2-y,z
x,-y,-z
-x,1/2+y,-z
-x,-y,-z
x,1/2+y,-z
-x,y,z
x,1/2-y,z
1/2+x,1/2+y,z
1/2-x,-y,z
1/2+x,1/2-y,-z
1/2-x,y,-z
1/2-x,1/2-y,-z
1/2+x,y,-z
1/2-x,1/2+y,z
1/2+x,-y,z
loop_
_atom_site_type_symbol
_atom_site_label
_atom_site_fract_x
_atom_site_fract_y
_atom_site_fract_z
Si Si1 0.332073 0.339025 0.042244
Si Si2 0.168681 0.161387 0.296074
Si Si3 0.168039 0.338959 0.788740
Si Si4 0.323534 0.420338 0.372292
Si Si5 0.168014 0.660966 0.873229
Si Si6 0.325133 0.835049 0.543117
O O1 0.500000 0.369487 0.042562
O O2 0.330844 0.250000 0.042225
O O3 0.247988 0.369888 0.084173
O O4 0.250000 0.369963 0.000000
O O5 0.171168 0.250000 0.296794
O O6 0.239542 0.130995 0.251934
O O7 0.268087 0.133565 0.335064
O O8 0.000000 0.131190 0.299738
O O9 0.167775 0.250000 0.789206
O O10 0.245060 0.369998 0.831776
O O11 0.000000 0.369765 0.786292
O O12 0.500000 0.427175 0.369591
O O13 0.250000 0.500000 0.366498
O O14 0.271375 0.385510 0.417422
O O15 0.168921 0.750000 0.873181
O O16 0.000000 0.630513 0.872169
O O17 0.500000 0.839788 0.536860
O O18 0.273791 0.750000 0.551839
O O19 0.250000 0.866549 0.500000
#
# Coordination Sequence:
#
# PCOD8279891 Si02
#       6
#    16  16  16  16  16  16
#     4   9  15  21  28  39  58  88 128 173 222 277
#     4  10  20  34  53  76 100 128 165 208 253 302
#     4   9  16  26  41  61  84 111 145 188 238 288
#     4  11  23  38  55  77 107 140 174 211 253 301
#     4   9  15  22  32  47  69  97 132 178 229 279
#     4   9  19  36  58  82 107 137 173 212 253 297
#
# _framework density 19.121376999999999
#
# number of rings (size 3 to 8) (size 9 to 14) (size 15 to 20)
#    0.000    2.500    0.000    3.000    0.000    9.333 
#    0.000    3.333    0.000    0.000    0.000    0.000 
#    0.000    0.000    0.000    0.000    0.000    0.833 
#
# Total GULP energy -595245.898108 kJ/mol
# GULP energy per Si atom -12400.956211 kJ/mol
# Density = 1.907786 g / cm^3
# Si number density = 19.121377 Si / 1000 Ang^3
#
#
#
# Elastic Constant Matrix: (Units=GPa)
#
#
# Indices 1 2 3 4 5 6 
#
# 1 135.7080 17.6471 77.4651 0.0000 0.0000 0.0000
# 2 17.6471 12.7571 15.8750 0.0000 0.0000 0.0000
# 3 77.4651 15.8750 177.3439 0.0000 0.0000 0.0000
# 4 0.0000 0.0000 0.0000 -0.6400 0.0000 0.0000
# 5 0.0000 0.0000 0.0000 0.0000 43.9699 0.0000
# 6 0.0000 0.0000 0.0000 0.0000 0.0000 15.9641
#
#
#
# Elastic Compliance Matrix: (Units=1/GPa)
#
#
# Indices 1 2 3 4 5 6 
#
# 1 0.010900 -0.010300 -0.003839 0.000000 0.000000 0.000000
# 2 -0.010300 0.097948 -0.004269 0.000000 0.000000 0.000000
# 3 -0.003839 -0.004269 0.007698 0.000000 0.000000 0.000000
# 4 0.000000 0.000000 0.000000 -1.562599 0.000000 0.000000
# 5 0.000000 0.000000 0.000000 0.000000 0.022743 0.000000
# 6 0.000000 0.000000 0.000000 0.000000 0.000000 0.062640
#
#
# Mechanical properties :
#
#
# Convention : Reuss Voigt Hill
#
# Bulk Modulus (GPa) = 12.54235 60.86481 36.70358
# Shear Modulus (GPa) = -3.85422 26.18027 11.16302
#
# Velocity S-wave (km/s) = -1.42128 3.70423 2.41881
# Velocity P-wave (km/s) = 1.96982 7.08484 5.19977
#
# Compressibility (1/GPa) = 0.07972987
#
# Stress axis : x y z
#
# Youngs Moduli (GPa) = 91.74689 10.20947 129.90799
#
# Poissons Ratio (x) = 0.10516 0.49871
# Poissons Ratio (y) = 0.94502 0.55453
# Poissons Ratio (z) = 0.35221 0.04358
#
# Static dielectric constant tensor:
#      x y z
#    x 3.724590 0.000000 0.000000 
#    y 0.000000 2.866020 0.000000 
#    z 0.000000 0.000000 3.746720 
# 
# 
# High freq. dielectric constant tensor:
#      x y z
#    x 1.759200 0.000000 0.000000 
#    y 0.000000 1.673730 0.000000 
#    z 0.000000 0.000000 1.763660 
# 
# From -- ./inp_files/43474.got.cif
#   From: 2010.03.12/outbox.cif.g09.slc.cpg/sg67_22_cif.got.tgz:43474.got - 2010.04.10 22:41:39.
