data_PCOD8279676
_publ_section_title
;
Structure prediction by ZEFSAII (Michael W. Deem and Ramdas Pophale) SiO2 
 PCOD8279676
Probable space group: C M M A
;
_chemical_formula_sum "Si O2"
_cell_formula_units_Z 96
_cell_length_a 15.893061
_cell_length_b 24.489955
_cell_length_c 14.167590
_cell_angle_alpha 90.000000
_cell_angle_beta 90.000000
_cell_angle_gamma 90.000000
_cell_volume 5514.314320
_symmetry_space_group_name_H-M "C M M A"
_symmetry_group_IT_number 67
_symmetry_cell_setting 'orthorhombic'
loop_
_space_group_symop_operation_xyz
x,y,z
-x,1/2-y,z
x,-y,-z
-x,1/2+y,-z
-x,-y,-z
x,1/2+y,-z
-x,y,z
x,1/2-y,z
1/2+x,1/2+y,z
1/2-x,-y,z
1/2+x,1/2-y,-z
1/2-x,y,-z
1/2-x,1/2-y,-z
1/2+x,y,-z
1/2-x,1/2+y,z
1/2+x,-y,z
loop_
_atom_site_type_symbol
_atom_site_label
_atom_site_fract_x
_atom_site_fract_y
_atom_site_fract_z
Si Si1 0.835832 0.112882 0.384834
Si Si2 0.840237 0.684975 0.968016
Si Si3 0.093950 0.999398 0.611735
Si Si4 0.500000 0.185190 0.083601
Si Si5 0.403522 0.688926 0.230052
Si Si6 0.500000 0.685141 0.699156
Si Si7 0.143945 0.882092 0.397027
O O1 0.892345 0.150773 0.319833
O O2 0.870978 0.119157 0.490703
O O3 0.740097 0.132469 0.374362
O O4 0.845704 0.049531 0.352636
O O5 0.841199 0.750000 0.974673
O O6 0.852076 0.666369 0.859722
O O7 0.750000 0.661162 0.000000
O O8 0.915702 0.661586 0.033484
O O9 0.125448 0.058277 0.647270
O O10 0.000000 0.988793 0.650192
O O11 0.095541 0.000000 0.500000
O O12 0.500000 0.250000 0.075572
O O13 0.500000 0.166549 0.192171
O O14 0.500000 0.689640 0.198769
O O15 0.373539 0.750000 0.257043
O O16 0.500000 0.750000 0.688031
O O17 0.583801 0.662379 0.649953
#
# Coordination Sequence:
#
# PCOD8279676 Si02
#       7
#    16  16  16   8  16   8  16
#     4  10  21  33  54  78 105 138 178 220 262 307
#     4   9  17  31  52  73  97 130 171 222 270 309
#     4   9  16  31  56  77  99 130 174 224 268 298
#     4   9  18  34  51  71  97 131 175 218 257 305
#     4  10  20  33  50  76 108 138 171 214 268 325
#     4  11  24  36  52  73 107 149 182 210 254 321
#     4  10  21  37  50  75 108 141 179 219 256 304
#
# _framework density 17.409236
#
# number of rings (size 3 to 8) (size 9 to 14) (size 15 to 20)
#    0.000    2.333    1.667    1.000    4.667    3.333 
#    0.000    1.667    0.000    0.000    0.000    2.333 
#    0.000    0.000    0.000    0.000    0.000    0.000 
#
# Total GULP energy -595110.154207 kJ/mol
# GULP energy per Si atom -12398.128213 kJ/mol
# Density = 1.736961 g / cm^3
# Si number density = 17.409236 Si / 1000 Ang^3
#
#
#
# Elastic Constant Matrix: (Units=GPa)
#
#
# Indices 1 2 3 4 5 6 
#
# 1 108.0500 29.4525 45.7673 0.0000 0.0000 0.0000
# 2 29.4525 77.3659 42.2108 0.0000 0.0000 0.0000
# 3 45.7673 42.2108 83.7141 0.0000 0.0000 0.0000
# 4 0.0000 0.0000 0.0000 -0.0452 0.0000 0.0000
# 5 0.0000 0.0000 0.0000 0.0000 26.3427 0.0000
# 6 0.0000 0.0000 0.0000 0.0000 0.0000 21.7147
#
#
#
# Elastic Compliance Matrix: (Units=1/GPa)
#
#
# Indices 1 2 3 4 5 6 
#
# 1 0.012150 -0.001381 -0.005946 0.000000 0.000000 0.000000
# 2 -0.001381 0.017988 -0.008315 0.000000 0.000000 0.000000
# 3 -0.005946 -0.008315 0.019389 0.000000 0.000000 0.000000
# 4 0.000000 0.000000 0.000000-22.099709 0.000000 0.000000
# 5 0.000000 0.000000 0.000000 0.000000 0.037961 0.000000
# 6 0.000000 0.000000 0.000000 0.000000 0.000000 0.046052
#
#
# Mechanical properties :
#
#
# Convention : Reuss Voigt Hill
#
# Bulk Modulus (GPa) = 54.81727 55.99904 55.40815
# Shear Modulus (GPa) = -0.22801 19.71573 9.74386
#
# Velocity S-wave (km/s) = -0.36229 3.36889 2.36835
# Velocity P-wave (km/s) = 5.60186 6.88249 6.27493
#
# Compressibility (1/GPa) = 0.01824243
#
# Stress axis : x y z
#
# Youngs Moduli (GPa) = 82.30375 55.59257 51.57609
#
# Poissons Ratio (x) = 0.07679 0.30668
# Poissons Ratio (y) = 0.11368 0.42885
# Poissons Ratio (z) = 0.48939 0.46225
#
# Static dielectric constant tensor:
#      x y z
#    x 3.409330 0.000000 0.000000 
#    y 0.000000 3.080660 0.000000 
#    z 0.000000 0.000000 3.056450 
# 
# 
# High freq. dielectric constant tensor:
#      x y z
#    x 1.688730 0.000000 0.000000 
#    y 0.000000 1.641860 0.000000 
#    z 0.000000 0.000000 1.649930 
# 
# From -- ./inp_files/27424.got.cif
#   From: 2010.03.12/outbox.cif.g09.slc.cpg/sg67_14_cif.got.tgz:27424.got - 2010.04.10 22:41:39.
