data_PCOD8279431
_publ_section_title
;
Structure prediction by ZEFSAII (Michael W. Deem and Ramdas Pophale) SiO2 
 PCOD8279431
Probable space group: C M M A
;
_chemical_formula_sum "Si O2"
_cell_formula_units_Z 88
_cell_length_a 14.231767
_cell_length_b 15.286158
_cell_length_c 19.702630
_cell_angle_alpha 90.000000
_cell_angle_beta 90.000000
_cell_angle_gamma 90.000000
_cell_volume 4286.288222
_symmetry_space_group_name_H-M "C M M A"
_symmetry_group_IT_number 67
_symmetry_cell_setting 'orthorhombic'
loop_
_space_group_symop_operation_xyz
x,y,z
-x,1/2-y,z
x,-y,-z
-x,1/2+y,-z
-x,-y,-z
x,1/2+y,-z
-x,y,z
x,1/2-y,z
1/2+x,1/2+y,z
1/2-x,-y,z
1/2+x,1/2-y,-z
1/2-x,y,-z
1/2-x,1/2-y,-z
1/2+x,y,-z
1/2-x,1/2+y,z
1/2+x,-y,z
loop_
_atom_site_type_symbol
_atom_site_label
_atom_site_fract_x
_atom_site_fract_y
_atom_site_fract_z
Si Si1 0.250000 0.000000 0.213923
Si Si2 0.610654 0.651583 0.559587
Si Si3 0.739441 0.652207 0.110785
Si Si4 0.607825 0.396986 0.007767
Si Si5 0.111203 0.153654 0.409041
Si Si6 0.611306 0.984802 0.669682
O O1 0.281387 0.917301 0.169424
O O2 0.338821 0.030289 0.258674
O O3 0.500000 0.637842 0.557258
O O4 0.637072 0.750000 0.581875
O O5 0.651758 0.632223 0.484279
O O6 0.651810 0.585125 0.615309
O O7 0.741917 0.750000 0.141703
O O8 0.655453 0.648951 0.056423
O O9 0.839649 0.631704 0.076243
O O10 0.500000 0.366949 0.012670
O O11 0.618373 0.500000 0.000000
O O12 0.146834 0.250000 0.385548
O O13 0.143157 0.080765 0.355748
O O14 0.000000 0.154140 0.414839
O O15 0.500000 0.975905 0.680100
#
# Coordination Sequence:
#
# PCOD8279431 Si02
#       6
#     8  16  16  16  16  16
#     4  12  26  41  51  80 118 156 202 228 266 330
#     4   8  14  28  53  81 104 131 177 238 298 348
#     4  11  23  41  62  87 124 158 189 234 281 330
#     4  10  19  38  71  99 121 146 181 236 291 334
#     4   8  14  28  53  81 104 131 177 238 298 348
#     4  10  21  36  55  74 105 150 190 230 282 339
#
# _framework density 20.530584999999999
#
# number of rings (size 3 to 8) (size 9 to 14) (size 15 to 20)
#    0.000    2.364    1.818    3.273    0.000    6.545 
#    0.000    1.818    0.000    2.182    0.000    0.000 
#    0.000    0.000    0.000    0.000    0.000    0.000 
#
# Total GULP energy -545500.908460 kJ/mol
# GULP energy per Si atom -12397.747920 kJ/mol
# Density = 2.048386 g / cm^3
# Si number density = 20.530585 Si / 1000 Ang^3
#
#
#
# Elastic Constant Matrix: (Units=GPa)
#
#
# Indices 1 2 3 4 5 6 
#
# 1 65.8882 -17.9162 -4.0397 0.0000 0.0000 0.0000
# 2 -17.9162 93.7484 15.3618 0.0000 0.0000 0.0000
# 3 -4.0397 15.3618 72.3238 0.0000 0.0000 0.0000
# 4 0.0000 0.0000 0.0000 14.9112 0.0000 0.0000
# 5 0.0000 0.0000 0.0000 0.0000 20.1275 0.0000
# 6 0.0000 0.0000 0.0000 0.0000 0.0000 -1.9226
#
#
#
# Elastic Compliance Matrix: (Units=1/GPa)
#
#
# Indices 1 2 3 4 5 6 
#
# 1 0.016014 0.003019 0.000253 0.000000 0.000000 0.000000
# 2 0.003019 0.011621 -0.002300 0.000000 0.000000 0.000000
# 3 0.000253 -0.002300 0.014329 0.000000 0.000000 0.000000
# 4 0.000000 0.000000 0.000000 0.067064 0.000000 0.000000
# 5 0.000000 0.000000 0.000000 0.000000 0.049683 0.000000
# 6 0.000000 0.000000 0.000000 0.000000 0.000000 -0.520136
#
#
# Mechanical properties :
#
#
# Convention : Reuss Voigt Hill
#
# Bulk Modulus (GPa) = 22.77464 24.30802 23.54133
# Shear Modulus (GPa) = -14.33758 22.52685 4.09464
#
# Velocity S-wave (km/s) = -2.64550 3.31605 1.41377
# Velocity P-wave (km/s) = 1.33624 5.15045 3.76249
#
# Compressibility (1/GPa) = 0.04390849
#
# Stress axis : x y z
#
# Youngs Moduli (GPa) = 62.44677 86.05405 69.78705
#
# Poissons Ratio (x) = -0.25979 -0.01767
# Poissons Ratio (y) = -0.18852 0.16048
# Poissons Ratio (z) = -0.01581 0.19789
#
# Static dielectric constant tensor:
#      x y z
#    x 3.552930 0.000000 0.000000 
#    y 0.000000 4.045430 0.000000 
#    z 0.000000 0.000000 3.624510 
# 
# 
# High freq. dielectric constant tensor:
#      x y z
#    x 1.798480 0.000000 0.000000 
#    y 0.000000 1.815250 0.000000 
#    z 0.000000 0.000000 1.777330 
# 
# From -- ./inp_files/38307.got.cif
#   From: 2010.03.12/outbox.cif.g09.slc.cpg/sg67_20_cif.got.tgz:38307.got - 2010.04.10 22:41:39.
