data_PCOD8279117
_publ_section_title
;
Structure prediction by ZEFSAII (Michael W. Deem and Ramdas Pophale) SiO2 
 PCOD8279117
Probable space group: C M M A
;
_chemical_formula_sum "Si O2"
_cell_formula_units_Z 104
_cell_length_a 26.182818
_cell_length_b 8.868805
_cell_length_c 22.754426
_cell_angle_alpha 90.000000
_cell_angle_beta 90.000000
_cell_angle_gamma 90.000000
_cell_volume 5283.812251
_symmetry_space_group_name_H-M "C M M A"
_symmetry_group_IT_number 67
_symmetry_cell_setting 'orthorhombic'
loop_
_space_group_symop_operation_xyz
x,y,z
-x,1/2-y,z
x,-y,-z
-x,1/2+y,-z
-x,-y,-z
x,1/2+y,-z
-x,y,z
x,1/2-y,z
1/2+x,1/2+y,z
1/2-x,-y,z
1/2+x,1/2-y,-z
1/2-x,y,-z
1/2-x,1/2-y,-z
1/2+x,y,-z
1/2-x,1/2+y,z
1/2+x,-y,z
loop_
_atom_site_type_symbol
_atom_site_label
_atom_site_fract_x
_atom_site_fract_y
_atom_site_fract_z
Si Si1 0.556783 0.572947 0.817425
Si Si2 0.196023 0.929191 0.646518
Si Si3 0.652584 0.073688 0.770047
Si Si4 0.303151 0.571528 0.106001
Si Si5 0.400904 0.428226 0.058215
Si Si6 0.388893 0.428581 0.435590
Si Si7 0.500000 0.576646 0.561630
O O1 0.500000 0.520681 0.799587
O O2 0.563418 0.750000 0.811481
O O3 0.596387 0.498697 0.772540
O O4 0.566397 0.523707 0.884900
O O5 0.199258 0.750000 0.640924
O O6 0.182432 0.982530 0.712536
O O7 0.250000 0.000000 0.628155
O O8 0.152691 0.991179 0.604127
O O9 0.643760 0.250000 0.768006
O O10 0.685246 0.024545 0.826638
O O11 0.302256 0.750000 0.097602
O O12 0.250000 0.500000 0.086999
O O13 0.344755 0.499026 0.063407
O O14 0.397433 0.250000 0.051399
O O15 0.426839 0.500000 0.000000
O O16 0.385236 0.500000 0.500000
O O17 0.378033 0.250000 0.438805
O O18 0.445675 0.462405 0.406811
O O19 0.500000 0.750000 0.546356
O O20 0.500000 0.500000 0.500000
#
# Coordination Sequence:
#
# PCOD8279117 Si02
#       7
#    16  16  16  16  16  16   8
#     4   9  19  36  57  80 107 140 178 222 271 324
#     4  11  23  39  58  84 116 151 191 235 283 337
#     4   9  20  37  56  79 108 140 179 224 273 328
#     4  10  19  33  53  76 101 134 174 218 269 322
#     4  10  20  34  51  74 105 138 175 218 265 320
#     4  10  20  37  60  87 118 154 193 236 283 335
#     4   8  16  32  56  82 110 144 184 226 271 322
#
# _framework density 19.682759000000001
#
# number of rings (size 3 to 8) (size 9 to 14) (size 15 to 20)
#    0.000    2.308    0.000    2.308    0.000    4.308 
#    1.385    3.077    0.000    0.000    0.000    0.000 
#    0.000    0.000    0.000    0.000    0.000    0.000 
#
# Total GULP energy -644646.696479 kJ/mol
# GULP energy per Si atom -12397.051855 kJ/mol
# Density = 1.963796 g / cm^3
# Si number density = 19.682759 Si / 1000 Ang^3
#
#
#
# Elastic Constant Matrix: (Units=GPa)
#
#
# Indices 1 2 3 4 5 6 
#
# 1 127.1774 37.2917 26.3144 0.0000 0.0000 0.0000
# 2 37.2917 64.9071 27.7899 0.0000 0.0000 0.0000
# 3 26.3144 27.7899 63.7331 0.0000 0.0000 0.0000
# 4 0.0000 0.0000 0.0000 29.4460 0.0000 0.0000
# 5 0.0000 0.0000 0.0000 0.0000 22.2708 0.0000
# 6 0.0000 0.0000 0.0000 0.0000 0.0000 32.3022
#
#
#
# Elastic Compliance Matrix: (Units=1/GPa)
#
#
# Indices 1 2 3 4 5 6 
#
# 1 0.009645 -0.004717 -0.001925 0.000000 0.000000 0.000000
# 2 -0.004717 0.021250 -0.007318 0.000000 0.000000 0.000000
# 3 -0.001925 -0.007318 0.019676 0.000000 0.000000 0.000000
# 4 0.000000 0.000000 0.000000 0.033960 0.000000 0.000000
# 5 0.000000 0.000000 0.000000 0.000000 0.044902 0.000000
# 6 0.000000 0.000000 0.000000 0.000000 0.000000 0.030958
#
#
# Mechanical properties :
#
#
# Convention : Reuss Voigt Hill
#
# Bulk Modulus (GPa) = 44.15005 48.73438 46.44222
# Shear Modulus (GPa) = 25.52824 27.76524 26.64674
#
# Velocity S-wave (km/s) = 3.60527 3.75992 3.68341
# Velocity P-wave (km/s) = 6.30953 6.60780 6.46039
#
# Compressibility (1/GPa) = 0.02265003
#
# Stress axis : x y z
#
# Youngs Moduli (GPa) = 103.68601 47.05905 50.82232
#
# Poissons Ratio (x) = 0.22197 0.09785
# Poissons Ratio (y) = 0.48907 0.37193
# Poissons Ratio (z) = 0.19963 0.34439
#
# Static dielectric constant tensor:
#      x y z
#    x 3.881750 0.000000 0.000000 
#    y 0.000000 3.557880 0.000000 
#    z 0.000000 0.000000 3.565810 
# 
# 
# High freq. dielectric constant tensor:
#      x y z
#    x 1.776730 0.000000 0.000000 
#    y 0.000000 1.771430 0.000000 
#    z 0.000000 0.000000 1.751950 
# 
# From -- ./inp_files/39959.got.cif
#   From: 2010.03.12/outbox.cif.g09.slc.cpg/sg67_20_cif.got.tgz:39959.got - 2010.04.10 22:41:39.
