data_PCOD8279772
_publ_section_title
;
Structure prediction by ZEFSAII (Michael W. Deem and Ramdas Pophale) SiO2 
 PCOD8279772
Probable space group: C M M A
;
_chemical_formula_sum "Si O2"
_cell_formula_units_Z 48
_cell_length_a 16.050042
_cell_length_b 16.127881
_cell_length_c 8.733014
_cell_angle_alpha 90.000000
_cell_angle_beta 90.000000
_cell_angle_gamma 90.000000
_cell_volume 2260.568335
_symmetry_space_group_name_H-M "C M M A"
_symmetry_group_IT_number 67
_symmetry_cell_setting 'orthorhombic'
loop_
_space_group_symop_operation_xyz
x,y,z
-x,1/2-y,z
x,-y,-z
-x,1/2+y,-z
-x,-y,-z
x,1/2+y,-z
-x,y,z
x,1/2-y,z
1/2+x,1/2+y,z
1/2-x,-y,z
1/2+x,1/2-y,-z
1/2-x,y,-z
1/2-x,1/2-y,-z
1/2+x,y,-z
1/2-x,1/2+y,z
1/2+x,-y,z
loop_
_atom_site_type_symbol
_atom_site_label
_atom_site_fract_x
_atom_site_fract_y
_atom_site_fract_z
Si Si1 0.657433 0.417363 0.434935
Si Si2 0.905759 0.250000 0.604284
Si Si3 0.096560 0.921846 0.101014
Si Si4 0.841924 0.250000 0.934163
O O1 0.612298 0.500000 0.500000
O O2 0.750000 0.414032 0.500000
O O3 0.610948 0.333562 0.493408
O O4 0.654417 0.422645 0.251160
O O5 0.843091 0.250000 0.748630
O O6 0.000000 0.250000 0.666406
O O7 0.112342 0.834939 0.010222
O O8 0.000000 0.928315 0.148784
O O9 0.124028 0.000000 0.000000
O O10 0.750000 0.250000 0.000000
#
# Coordination Sequence:
#
# PCOD8279772 Si02
#       4
#    16   8  16   8
#     4  10  21  37  60  89 119 151 193 243 293 345
#     4  10  21  39  60  81 115 158 196 236 288 350
#     4  10  22  41  63  86 117 157 198 240 290 349
#     4  10  20  33  58  87 116 152 191 240 292 344
#
# _framework density 21.233599000000002
#
# number of rings (size 3 to 8) (size 9 to 14) (size 15 to 20)
#    0.000    2.000    0.000    5.000    0.000   14.000 
#    0.000    1.667    0.000    0.000    0.000    0.000 
#    0.000    0.000    0.000    0.000    0.000    0.000 
#
# Total GULP energy -297379.217984 kJ/mol
# GULP energy per Si atom -12390.800749 kJ/mol
# Density = 2.118527 g / cm^3
# Si number density = 21.233599 Si / 1000 Ang^3
#
#
#
# Elastic Constant Matrix: (Units=GPa)
#
#
# Indices 1 2 3 4 5 6 
#
# 1 106.7099 45.0375 54.0961 0.0000 0.0000 0.0000
# 2 45.0375 282.6772 58.8807 0.0000 0.0000 0.0000
# 3 54.0961 58.8807 66.8761 0.0000 0.0000 0.0000
# 4 0.0000 0.0000 0.0000 37.7335 0.0000 0.0000
# 5 0.0000 0.0000 0.0000 0.0000 28.4597 0.0000
# 6 0.0000 0.0000 0.0000 0.0000 0.0000 29.8567
#
#
#
# Elastic Compliance Matrix: (Units=1/GPa)
#
#
# Indices 1 2 3 4 5 6 
#
# 1 0.015893 0.000178 -0.013013 0.000000 0.000000 0.000000
# 2 0.000178 0.004334 -0.003960 0.000000 0.000000 0.000000
# 3 -0.013013 -0.003960 0.028966 0.000000 0.000000 0.000000
# 4 0.000000 0.000000 0.000000 0.026502 0.000000 0.000000
# 5 0.000000 0.000000 0.000000 0.000000 0.035137 0.000000
# 6 0.000000 0.000000 0.000000 0.000000 0.000000 0.033493
#
#
# Mechanical properties :
#
#
# Convention : Reuss Voigt Hill
#
# Bulk Modulus (GPa) = 64.08818 85.81019 74.94918
# Shear Modulus (GPa) = 27.30532 39.09326 33.19929
#
# Velocity S-wave (km/s) = 3.58990 4.29546 3.95843
# Velocity P-wave (km/s) = 6.88703 8.06855 7.50109
#
# Compressibility (1/GPa) = 0.01560350
#
# Stress axis : x y z
#
# Youngs Moduli (GPa) = 62.92254 230.72943 34.52370
#
# Poissons Ratio (x) = -0.04116 0.44924
# Poissons Ratio (y) = -0.01122 0.13672
# Poissons Ratio (z) = 0.81878 0.91374
#
# Static dielectric constant tensor:
#      x y z
#    x 3.584660 0.000000 0.000000 
#    y 0.000000 5.215420 0.000000 
#    z 0.000000 0.000000 3.375360 
# 
# 
# High freq. dielectric constant tensor:
#      x y z
#    x 1.818130 0.000000 0.000000 
#    y 0.000000 1.882670 0.000000 
#    z 0.000000 0.000000 1.783310 
# 
# From -- ./inp_files/7398.got.cif
#   From: 2010.03.12/outbox.cif.g09.slc.cpg/sg67_4_cif.got.tgz:7398.got - 2010.04.10 22:41:39.
