data_PCOD8279580
_publ_section_title
;
Structure prediction by ZEFSAII (Michael W. Deem and Ramdas Pophale) SiO2 
 PCOD8279580
Probable space group: C M M A
;
_chemical_formula_sum "Si O2"
_cell_formula_units_Z 72
_cell_length_a 8.857986
_cell_length_b 26.360422
_cell_length_c 16.151488
_cell_angle_alpha 90.000000
_cell_angle_beta 90.000000
_cell_angle_gamma 90.000000
_cell_volume 3771.376470
_symmetry_space_group_name_H-M "C M M A"
_symmetry_group_IT_number 67
_symmetry_cell_setting 'orthorhombic'
loop_
_space_group_symop_operation_xyz
x,y,z
-x,1/2-y,z
x,-y,-z
-x,1/2+y,-z
-x,-y,-z
x,1/2+y,-z
-x,y,z
x,1/2-y,z
1/2+x,1/2+y,z
1/2-x,-y,z
1/2+x,1/2-y,-z
1/2-x,y,-z
1/2-x,1/2-y,-z
1/2+x,y,-z
1/2-x,1/2+y,z
1/2+x,-y,z
loop_
_atom_site_type_symbol
_atom_site_label
_atom_site_fract_x
_atom_site_fract_y
_atom_site_fract_z
Si Si1 0.819877 0.104508 0.238959
Si Si2 0.330408 0.194784 0.652776
Si Si3 0.833214 0.047994 0.618406
Si Si4 0.250000 0.631471 0.500000
Si Si5 0.319198 0.446065 0.087759
O O1 0.759837 0.158100 0.277014
O O2 0.771337 0.061275 0.303300
O O3 0.733706 0.096460 0.152711
O O4 0.000000 0.102999 0.226855
O O5 0.500000 0.204615 0.679957
O O6 0.246348 0.250000 0.649622
O O7 0.337268 0.168044 0.563048
O O8 0.855679 0.094201 0.553676
O O9 0.000000 0.032952 0.649273
O O10 0.750000 0.000000 0.575816
O O11 0.500000 0.449534 0.082709
O O12 0.250000 0.500000 0.115305
O O13 0.250000 0.429766 0.000000
#
# Coordination Sequence:
#
# PCOD8279580 Si02
#       5
#    16  16  16   8  16
#     4  10  20  35  54  77 106 139 175 214 259 309
#     4   9  18  33  53  75  99 131 173 220 267 313
#     4  11  22  34  49  71 102 140 179 218 261 312
#     4  10  20  32  50  72 102 134 174 220 268 316
#     4  11  21  35  56  83 114 143 173 207 248 301
#
# _framework density 19.091173000000001
#
# number of rings (size 3 to 8) (size 9 to 14) (size 15 to 20)
#    0.000    1.778    0.000    6.000    0.000    3.556 
#    0.000    0.000    0.000   14.000    0.000    0.000 
#    0.000    0.000    0.000    0.000    0.000    0.000 
#
# Total GULP energy -446086.642737 kJ/mol
# GULP energy per Si atom -12391.295632 kJ/mol
# Density = 1.904772 g / cm^3
# Si number density = 19.091173 Si / 1000 Ang^3
#
#
#
# Elastic Constant Matrix: (Units=GPa)
#
#
# Indices 1 2 3 4 5 6 
#
# 1 118.8986 40.2666 37.4240 0.0000 0.0000 0.0000
# 2 40.2666 136.0345 67.8301 0.0000 0.0000 0.0000
# 3 37.4240 67.8301 128.5276 0.0000 0.0000 0.0000
# 4 0.0000 0.0000 0.0000 17.7634 0.0000 0.0000
# 5 0.0000 0.0000 0.0000 0.0000 22.6033 0.0000
# 6 0.0000 0.0000 0.0000 0.0000 0.0000 16.2246
#
#
#
# Elastic Compliance Matrix: (Units=1/GPa)
#
#
# Indices 1 2 3 4 5 6 
#
# 1 0.009634 -0.001972 -0.001764 0.000000 0.000000 0.000000
# 2 -0.001972 0.010380 -0.004904 0.000000 0.000000 0.000000
# 3 -0.001764 -0.004904 0.010882 0.000000 0.000000 0.000000
# 4 0.000000 0.000000 0.000000 0.056295 0.000000 0.000000
# 5 0.000000 0.000000 0.000000 0.000000 0.044241 0.000000
# 6 0.000000 0.000000 0.000000 0.000000 0.000000 0.061635
#
#
# Mechanical properties :
#
#
# Convention : Reuss Voigt Hill
#
# Bulk Modulus (GPa) = 73.44531 74.94469 74.19500
# Shear Modulus (GPa) = 23.26815 27.18094 25.22454
#
# Velocity S-wave (km/s) = 3.49491 3.77735 3.63887
# Velocity P-wave (km/s) = 7.40541 7.63976 7.52350
#
# Compressibility (1/GPa) = 0.01361557
#
# Stress axis : x y z
#
# Youngs Moduli (GPa) = 103.80249 96.34009 91.89336
#
# Poissons Ratio (x) = 0.18996 0.16214
# Poissons Ratio (y) = 0.20468 0.45063
# Poissons Ratio (z) = 0.18316 0.47243
#
# Static dielectric constant tensor:
#      x y z
#    x 3.331840 0.000000 0.000000 
#    y 0.000000 3.875990 0.000000 
#    z 0.000000 0.000000 3.441500 
# 
# 
# High freq. dielectric constant tensor:
#      x y z
#    x 1.734000 0.000000 0.000000 
#    y 0.000000 1.735270 0.000000 
#    z 0.000000 0.000000 1.734030 
# 
# From -- ./inp_files/32055.got.cif
#   From: 2010.03.12/outbox.cif.g09.slc.cpg/sg67_17_cif.got.tgz:32055.got - 2010.04.10 22:41:39.
