data_PCOD8279142
_publ_section_title
;
Structure prediction by ZEFSAII (Michael W. Deem and Ramdas Pophale) SiO2 
 PCOD8279142
Probable space group: C M M A
;
_chemical_formula_sum "Si O2"
_cell_formula_units_Z 96
_cell_length_a 19.009739
_cell_length_b 8.703336
_cell_length_c 31.063325
_cell_angle_alpha 90.000000
_cell_angle_beta 90.000000
_cell_angle_gamma 90.000000
_cell_volume 5139.369523
_symmetry_space_group_name_H-M "C M M A"
_symmetry_group_IT_number 67
_symmetry_cell_setting 'orthorhombic'
loop_
_space_group_symop_operation_xyz
x,y,z
-x,1/2-y,z
x,-y,-z
-x,1/2+y,-z
-x,-y,-z
x,1/2+y,-z
-x,y,z
x,1/2-y,z
1/2+x,1/2+y,z
1/2-x,-y,z
1/2+x,1/2-y,-z
1/2-x,y,-z
1/2-x,1/2-y,-z
1/2+x,y,-z
1/2-x,1/2+y,z
1/2+x,-y,z
loop_
_atom_site_type_symbol
_atom_site_label
_atom_site_fract_x
_atom_site_fract_y
_atom_site_fract_z
Si Si1 0.175019 0.432449 0.791212
Si Si2 0.826716 0.069422 0.635831
Si Si3 0.675022 0.568248 0.117563
Si Si4 0.421275 0.932572 0.712910
Si Si5 0.916986 0.073401 0.955222
Si Si6 0.326877 0.070778 0.458576
O O1 0.181105 0.250000 0.794730
O O2 0.250000 0.500000 0.777104
O O3 0.150581 0.499828 0.836819
O O4 0.118019 0.485472 0.756172
O O5 0.817677 0.250000 0.641800
O O6 0.879988 0.001652 0.671343
O O7 0.859737 0.031879 0.588383
O O8 0.750000 0.000000 0.642693
O O9 0.681393 0.750000 0.121295
O O10 0.750000 0.500000 0.103517
O O11 0.617245 0.522929 0.082860
O O12 0.500000 0.001531 0.713237
O O13 0.424210 0.750000 0.710482
O O14 0.892354 0.250000 0.953514
O O15 0.000000 0.058462 0.949810
O O16 0.891741 0.000000 0.000000
O O17 0.321929 0.250000 0.466022
O O18 0.369009 0.000000 0.500000
O O19 0.250000 0.000000 0.458187
#
# Coordination Sequence:
#
# PCOD8279142 Si02
#       6
#    16  16  16  16  16  16
#     4  10  19  33  54  77 101 131 166 206 254 303
#     4   9  17  29  47  70  94 123 159 198 242 290
#     4  11  22  37  57  81 110 141 176 217 261 308
#     4   9  18  32  50  72  97 126 163 204 244 292
#     4  10  21  38  59  83 112 145 181 219 260 307
#     4   9  15  23  38  62  90 118 150 191 237 283
#
# _framework density 18.679334999999998
#
# number of rings (size 3 to 8) (size 9 to 14) (size 15 to 20)
#    0.000    2.333    0.000    5.000    0.000    2.667 
#    0.000    4.167    0.000    4.500    0.000    0.000 
#    0.000    0.000    0.000    0.000    0.000    4.500 
#
# Total GULP energy -595016.199150 kJ/mol
# GULP energy per Si atom -12396.170816 kJ/mol
# Density = 1.863682 g / cm^3
# Si number density = 18.679335 Si / 1000 Ang^3
#
#
#
# Elastic Constant Matrix: (Units=GPa)
#
#
# Indices 1 2 3 4 5 6 
#
# 1 87.5480 29.6228 79.1047 0.0000 0.0000 0.0000
# 2 29.6228 89.5464 52.7876 0.0000 0.0000 0.0000
# 3 79.1047 52.7876 170.1209 0.0000 0.0000 0.0000
# 4 0.0000 0.0000 0.0000 -91.7374 0.0000 0.0000
# 5 0.0000 0.0000 0.0000 0.0000 7.8585 0.0000
# 6 0.0000 0.0000 0.0000 0.0000 0.0000 21.1472
#
#
#
# Elastic Compliance Matrix: (Units=1/GPa)
#
#
# Indices 1 2 3 4 5 6 
#
# 1 0.019836 -0.001376 -0.008797 0.000000 0.000000 0.000000
# 2 -0.001376 0.013763 -0.003631 0.000000 0.000000 0.000000
# 3 -0.008797 -0.003631 0.011095 0.000000 0.000000 0.000000
# 4 0.000000 0.000000 0.000000 -0.010901 0.000000 0.000000
# 5 0.000000 0.000000 0.000000 0.000000 0.127250 0.000000
# 6 0.000000 0.000000 0.000000 0.000000 0.000000 0.047287
#
#
# Mechanical properties :
#
#
# Convention : Reuss Voigt Hill
#
# Bulk Modulus (GPa) = 58.52359 74.47174 66.49767
# Shear Modulus (GPa) = 20.69246 -0.16632 10.26307
#
# Velocity S-wave (km/s) = 3.33193 -0.29872 2.34655
# Velocity P-wave (km/s) = 6.79714 6.31158 6.55885
#
# Compressibility (1/GPa) = 0.01708713
#
# Stress axis : x y z
#
# Youngs Moduli (GPa) = 50.41272 72.65892 90.13031
#
# Poissons Ratio (x) = 0.10001 0.79284
# Poissons Ratio (y) = 0.06939 0.32722
# Poissons Ratio (z) = 0.44346 0.26379
#
# Static dielectric constant tensor:
#      x y z
#    x 3.259190 0.000000 0.000000 
#    y 0.000000 3.410310 0.000000 
#    z 0.000000 0.000000 4.131520 
# 
# 
# High freq. dielectric constant tensor:
#      x y z
#    x 1.692970 0.000000 0.000000 
#    y 0.000000 1.721280 0.000000 
#    z 0.000000 0.000000 1.749410 
# 
# From -- ./inp_files/44612.got.cif
#   From: 2010.03.12/outbox.cif.g09.slc.cpg/sg67_23_cif.got.tgz:44612.got - 2010.04.10 22:41:39.
