data_PCOD8279085
_publ_section_title
;
Structure prediction by ZEFSAII (Michael W. Deem and Ramdas Pophale) SiO2 
 PCOD8279085
Probable space group: C M M A
;
_chemical_formula_sum "Si O2"
_cell_formula_units_Z 104
_cell_length_a 9.636413
_cell_length_b 26.360885
_cell_length_c 23.804218
_cell_angle_alpha 90.000000
_cell_angle_beta 90.000000
_cell_angle_gamma 90.000000
_cell_volume 6046.851598
_symmetry_space_group_name_H-M "C M M A"
_symmetry_group_IT_number 67
_symmetry_cell_setting 'orthorhombic'
loop_
_space_group_symop_operation_xyz
x,y,z
-x,1/2-y,z
x,-y,-z
-x,1/2+y,-z
-x,-y,-z
x,1/2+y,-z
-x,y,z
x,1/2-y,z
1/2+x,1/2+y,z
1/2-x,-y,z
1/2+x,1/2-y,-z
1/2-x,y,-z
1/2-x,1/2-y,-z
1/2+x,y,-z
1/2-x,1/2+y,z
1/2+x,-y,z
loop_
_atom_site_type_symbol
_atom_site_label
_atom_site_fract_x
_atom_site_fract_y
_atom_site_fract_z
Si Si1 0.158214 0.545518 0.225852
Si Si2 0.340883 0.191631 0.051525
Si Si3 0.161278 0.250000 0.555684
Si Si4 0.342755 0.545620 0.643992
Si Si5 0.839730 0.656980 0.364544
Si Si6 0.660376 0.348275 0.171629
Si Si7 0.157256 0.692099 0.735140
O O1 0.250000 0.500000 0.201676
O O2 0.193830 0.556070 0.290927
O O3 0.193500 0.594418 0.189029
O O4 0.000000 0.529140 0.218724
O O5 0.500000 0.185722 0.033691
O O6 0.304394 0.250000 0.065246
O O7 0.306329 0.158173 0.106049
O O8 0.250000 0.170843 0.000000
O O9 0.250000 0.250000 0.500000
O O10 0.200524 0.199069 0.589612
O O11 0.000000 0.250000 0.539588
O O12 0.500000 0.527334 0.636581
O O13 0.250000 0.500000 0.618724
O O14 0.318513 0.599469 0.611727
O O15 0.741072 0.660962 0.311104
O O16 0.000000 0.664318 0.345158
O O17 0.500000 0.333719 0.184552
O O18 0.762797 0.311684 0.205836
O O19 0.153716 0.750000 0.715862
O O20 0.000000 0.670789 0.740389
#
# Coordination Sequence:
#
# PCOD8279085 Si02
#       7
#    16  16   8  16  16  16  16
#     4   9  17  29  46  69  98 129 162 204 246 298
#     4   9  18  32  50  70  92 123 163 206 250 298
#     4  10  22  38  60  82 106 142 181 220 257 302
#     4   9  17  30  49  75 104 135 173 211 253 306
#     4  10  19  35  56  76 102 142 180 208 250 311
#     4  10  19  33  51  70  95 133 173 203 245 311
#     4  11  22  31  44  74 109 135 161 206 260 302
#
# _framework density 17.199031999999999
#
# number of rings (size 3 to 8) (size 9 to 14) (size 15 to 20)
#    0.000    2.308    2.308    0.923    0.000    4.000 
#    0.000    1.538    0.000    0.923    0.000    6.462 
#    0.000    0.000    0.000    0.000    0.000    0.000 
#
# Total GULP energy -644744.723695 kJ/mol
# GULP energy per Si atom -12398.936994 kJ/mol
# Density = 1.715989 g / cm^3
# Si number density = 17.199032 Si / 1000 Ang^3
#
#
#
# Elastic Constant Matrix: (Units=GPa)
#
#
# Indices 1 2 3 4 5 6 
#
# 1 84.6862 48.0117 43.8434 0.0000 0.0000 0.0000
# 2 48.0117 111.9517 36.3760 0.0000 0.0000 0.0000
# 3 43.8434 36.3760 68.5013 0.0000 0.0000 0.0000
# 4 0.0000 0.0000 0.0000 14.3361 0.0000 0.0000
# 5 0.0000 0.0000 0.0000 0.0000 27.8980 0.0000
# 6 0.0000 0.0000 0.0000 0.0000 0.0000 27.9291
#
#
#
# Elastic Compliance Matrix: (Units=1/GPa)
#
#
# Indices 1 2 3 4 5 6 
#
# 1 0.019991 -0.005337 -0.009961 0.000000 0.000000 0.000000
# 2 -0.005337 0.012220 -0.003073 0.000000 0.000000 0.000000
# 3 -0.009961 -0.003073 0.022606 0.000000 0.000000 0.000000
# 4 0.000000 0.000000 0.000000 0.069754 0.000000 0.000000
# 5 0.000000 0.000000 0.000000 0.000000 0.035845 0.000000
# 6 0.000000 0.000000 0.000000 0.000000 0.000000 0.035805
#
#
# Mechanical properties :
#
#
# Convention : Reuss Voigt Hill
#
# Bulk Modulus (GPa) = 55.32723 57.95571 56.64147
# Shear Modulus (GPa) = 20.92166 23.15983 22.04075
#
# Velocity S-wave (km/s) = 3.49154 3.67356 3.58370
# Velocity P-wave (km/s) = 6.96370 7.19469 7.08014
#
# Compressibility (1/GPa) = 0.01807428
#
# Stress axis : x y z
#
# Youngs Moduli (GPa) = 50.02292 81.83491 44.23670
#
# Poissons Ratio (x) = 0.43673 0.44064
# Poissons Ratio (y) = 0.26696 0.13595
# Poissons Ratio (z) = 0.49828 0.25150
#
# Static dielectric constant tensor:
#      x y z
#    x 3.297960 0.000000 0.000000 
#    y 0.000000 3.311180 0.000000 
#    z 0.000000 0.000000 2.910530 
# 
# 
# High freq. dielectric constant tensor:
#      x y z
#    x 1.668120 0.000000 0.000000 
#    y 0.000000 1.664790 0.000000 
#    z 0.000000 0.000000 1.627230 
# 
# From -- ./inp_files/40209.got.cif
#   From: 2010.03.12/outbox.cif.g09.slc.cpg/sg67_21_cif.got.tgz:40209.got - 2010.04.10 22:41:39.
