data_PCOD8279185
_publ_section_title
;
Structure prediction by ZEFSAII (Michael W. Deem and Ramdas Pophale) SiO2 
 PCOD8279185
Probable space group: C M M A
;
_chemical_formula_sum "Si O2"
_cell_formula_units_Z 80
_cell_length_a 17.988759
_cell_length_b 10.417038
_cell_length_c 22.955880
_cell_angle_alpha 90.000000
_cell_angle_beta 90.000000
_cell_angle_gamma 90.000000
_cell_volume 4301.692851
_symmetry_space_group_name_H-M "C M M A"
_symmetry_group_IT_number 67
_symmetry_cell_setting 'orthorhombic'
loop_
_space_group_symop_operation_xyz
x,y,z
-x,1/2-y,z
x,-y,-z
-x,1/2+y,-z
-x,-y,-z
x,1/2+y,-z
-x,y,z
x,1/2-y,z
1/2+x,1/2+y,z
1/2-x,-y,z
1/2+x,1/2-y,-z
1/2-x,y,-z
1/2-x,1/2-y,-z
1/2+x,y,-z
1/2-x,1/2+y,z
1/2+x,-y,z
loop_
_atom_site_type_symbol
_atom_site_label
_atom_site_fract_x
_atom_site_fract_y
_atom_site_fract_z
Si Si1 0.411635 0.750000 0.924718
Si Si2 0.671343 0.750000 0.036352
Si Si3 0.692599 0.104418 0.666848
Si Si4 0.670672 0.387533 0.532490
Si Si5 0.664638 0.508710 0.121442
Si Si6 0.082121 0.102431 0.232866
O O1 0.500000 0.750000 0.910306
O O2 0.370104 0.623350 0.901615
O O3 0.399208 0.750000 0.993730
O O4 0.659710 0.622555 0.074447
O O5 0.750000 0.750000 0.000000
O O6 0.723607 0.250000 0.674616
O O7 0.677017 0.075108 0.599651
O O8 0.618384 0.083941 0.703868
O O9 0.750000 0.000000 0.691176
O O10 0.623851 0.500000 0.500000
O O11 0.629869 0.250000 0.526349
O O12 0.750000 0.379359 0.500000
O O13 0.750000 0.500000 0.138295
O O14 0.624350 0.531506 0.181901
O O15 0.079629 0.250000 0.215043
O O16 0.000000 0.043498 0.237722
#
# Coordination Sequence:
#
# PCOD8279185 Si02
#       6
#     8   8  16  16  16  16
#     4  12  28  42  64 102 136 160 200 257 318 372
#     4  12  24  44  68  96 126 162 204 255 302 360
#     4  10  19  33  55  84 113 146 192 241 293 341
#     4   9  15  25  46  76 111 143 177 235 287 333
#     4  12  23  43  70  90 123 164 204 254 309 361
#     4  10  22  40  60  84 115 153 204 249 292 356
#
# _framework density 18.597329999999999
#
# number of rings (size 3 to 8) (size 9 to 14) (size 15 to 20)
#    0.000    1.400    5.000    1.800    0.000    2.400 
#    1.800    0.000    0.000    0.600    0.000    0.000 
#    0.000    0.000    0.000    0.000    0.000    0.000 
#
# Total GULP energy -495614.505124 kJ/mol
# GULP energy per Si atom -12390.362628 kJ/mol
# Density = 1.855500 g / cm^3
# Si number density = 18.597330 Si / 1000 Ang^3
#
#
#
# Elastic Constant Matrix: (Units=GPa)
#
#
# Indices 1 2 3 4 5 6 
#
# 1 119.1696 61.3914 56.7404 0.0000 0.0000 0.0000
# 2 61.3914 143.1511 59.4169 0.0000 0.0000 0.0000
# 3 56.7404 59.4169 138.1752 0.0000 0.0000 0.0000
# 4 0.0000 0.0000 0.0000 51.0937 0.0000 0.0000
# 5 0.0000 0.0000 0.0000 0.0000 -0.7681 0.0000
# 6 0.0000 0.0000 0.0000 0.0000 0.0000 -21.3918
#
#
#
# Elastic Compliance Matrix: (Units=1/GPa)
#
#
# Indices 1 2 3 4 5 6 
#
# 1 0.011872 -0.003734 -0.003269 0.000000 0.000000 0.000000
# 2 -0.003734 0.009678 -0.002628 0.000000 0.000000 0.000000
# 3 -0.003269 -0.002628 0.009710 0.000000 0.000000 0.000000
# 4 0.000000 0.000000 0.000000 0.019572 0.000000 0.000000
# 5 0.000000 0.000000 0.000000 0.000000 -1.301865 0.000000
# 6 0.000000 0.000000 0.000000 0.000000 0.000000 -0.046747
#
#
# Mechanical properties :
#
#
# Convention : Reuss Voigt Hill
#
# Bulk Modulus (GPa) = 83.36056 83.95480 83.65768
# Shear Modulus (GPa) = -3.92305 20.64990 8.36342
#
# Velocity S-wave (km/s) = -1.45398 3.33583 2.12294
# Velocity P-wave (km/s) = 6.48865 7.75103 7.14776
#
# Compressibility (1/GPa) = 0.01199608
#
# Stress axis : x y z
#
# Youngs Moduli (GPa) = 84.23337 103.32720 102.98870
#
# Poissons Ratio (x) = 0.38586 0.33669
# Poissons Ratio (y) = 0.31456 0.27067
# Poissons Ratio (z) = 0.27538 0.27156
#
# Static dielectric constant tensor:
#      x y z
#    x 3.345220 0.000000 0.000000 
#    y 0.000000 4.466460 0.000000 
#    z 0.000000 0.000000 3.529370 
# 
# 
# High freq. dielectric constant tensor:
#      x y z
#    x 1.689400 0.000000 0.000000 
#    y 0.000000 1.740180 0.000000 
#    z 0.000000 0.000000 1.736820 
# 
# From -- ./inp_files/38872.got.cif
#   From: 2010.03.12/outbox.cif.g09.slc.cpg/sg67_20_cif.got.tgz:38872.got - 2010.04.10 22:41:39.
