data_PCOD8279668
_publ_section_title
;
Structure prediction by ZEFSAII (Michael W. Deem and Ramdas Pophale) SiO2 
 PCOD8279668
Probable space group: C M M A
;
_chemical_formula_sum "Si O2"
_cell_formula_units_Z 80
_cell_length_a 8.964131
_cell_length_b 19.762545
_cell_length_c 25.210585
_cell_angle_alpha 90.000000
_cell_angle_beta 90.000000
_cell_angle_gamma 90.000000
_cell_volume 4466.157041
_symmetry_space_group_name_H-M "C M M A"
_symmetry_group_IT_number 67
_symmetry_cell_setting 'orthorhombic'
loop_
_space_group_symop_operation_xyz
x,y,z
-x,1/2-y,z
x,-y,-z
-x,1/2+y,-z
-x,-y,-z
x,1/2+y,-z
-x,y,z
x,1/2-y,z
1/2+x,1/2+y,z
1/2-x,-y,z
1/2+x,1/2-y,-z
1/2-x,y,-z
1/2-x,1/2-y,-z
1/2+x,y,-z
1/2-x,1/2+y,z
1/2+x,-y,z
loop_
_atom_site_type_symbol
_atom_site_label
_atom_site_fract_x
_atom_site_fract_y
_atom_site_fract_z
Si Si1 0.824149 0.826722 0.553634
Si Si2 0.825286 0.431552 0.359621
Si Si3 0.668223 0.669550 0.052032
Si Si4 0.173930 0.170623 0.840855
Si Si5 0.323725 0.570017 0.238233
O O1 0.772148 0.750000 0.564509
O O2 0.750000 0.854927 0.500000
O O3 0.768059 0.870543 0.603496
O O4 0.000000 0.831727 0.546570
O O5 0.750000 0.500000 0.379981
O O6 0.780284 0.415544 0.299184
O O7 0.000000 0.441830 0.364989
O O8 0.500000 0.640797 0.054632
O O9 0.665273 0.750000 0.049158
O O10 0.759085 0.645262 0.103396
O O11 0.750000 0.640013 0.000000
O O12 0.202707 0.250000 0.832579
O O13 0.257943 0.132449 0.794034
O O14 0.000000 0.152899 0.840056
O O15 0.500000 0.565421 0.229501
O O16 0.250000 0.500000 0.218778
#
# Coordination Sequence:
#
# PCOD8279668 Si02
#       5
#    16  16  16  16  16
#     4   9  18  33  51  72  99 130 163 199 242 291
#     4   9  19  34  52  73  97 127 163 204 246 292
#     4   9  16  27  45  70 100 133 168 207 252 299
#     4  10  20  33  50  75 105 134 168 211 254 298
#     4  10  20  35  54  74  99 133 170 208 254 305
#
# _framework density 17.912492
#
# number of rings (size 3 to 8) (size 9 to 14) (size 15 to 20)
#    0.000    2.600    0.000    1.800    0.000    6.400 
#    0.000    4.000    0.000    3.000    0.000    4.200 
#    0.000    0.000    0.000    0.000    0.000    0.000 
#
# Total GULP energy -496062.341639 kJ/mol
# GULP energy per Si atom -12401.558541 kJ/mol
# Density = 1.787172 g / cm^3
# Si number density = 17.912492 Si / 1000 Ang^3
#
#
#
# Elastic Constant Matrix: (Units=GPa)
#
#
# Indices 1 2 3 4 5 6 
#
# 1 87.6506 41.3138 52.7836 0.0000 0.0000 0.0000
# 2 41.3138 73.6865 66.8003 0.0000 0.0000 0.0000
# 3 52.7836 66.8003 126.0034 0.0000 0.0000 0.0000
# 4 0.0000 0.0000 0.0000 9.7421 0.0000 0.0000
# 5 0.0000 0.0000 0.0000 0.0000 33.8847 0.0000
# 6 0.0000 0.0000 0.0000 0.0000 0.0000 27.7698
#
#
#
# Elastic Compliance Matrix: (Units=1/GPa)
#
#
# Indices 1 2 3 4 5 6 
#
# 1 0.016421 -0.005720 -0.003847 0.000000 0.000000 0.000000
# 2 -0.005720 0.028121 -0.012512 0.000000 0.000000 0.000000
# 3 -0.003847 -0.012512 0.016181 0.000000 0.000000 0.000000
# 4 0.000000 0.000000 0.000000 0.102647 0.000000 0.000000
# 5 0.000000 0.000000 0.000000 0.000000 0.029512 0.000000
# 6 0.000000 0.000000 0.000000 0.000000 0.000000 0.036010
#
#
# Mechanical properties :
#
#
# Convention : Reuss Voigt Hill
#
# Bulk Modulus (GPa) = 60.36471 67.68179 64.02325
# Shear Modulus (GPa) = 17.94871 22.70883 20.32877
#
# Velocity S-wave (km/s) = 3.16891 3.56443 3.37247
# Velocity P-wave (km/s) = 6.86748 7.40317 7.14035
#
# Compressibility (1/GPa) = 0.01656597
#
# Stress axis : x y z
#
# Youngs Moduli (GPa) = 60.89597 35.56104 61.80107
#
# Poissons Ratio (x) = 0.20340 0.23773
# Poissons Ratio (y) = 0.34831 0.77326
# Poissons Ratio (z) = 0.23425 0.44494
#
# Static dielectric constant tensor:
#      x y z
#    x 3.388710 0.000000 0.000000 
#    y 0.000000 3.169930 0.000000 
#    z 0.000000 0.000000 3.488730 
# 
# 
# High freq. dielectric constant tensor:
#      x y z
#    x 1.702120 0.000000 0.000000 
#    y 0.000000 1.667090 0.000000 
#    z 0.000000 0.000000 1.700760 
# 
# From -- ./inp_files/43214.got.cif
#   From: 2010.03.12/outbox.cif.g09.slc.cpg/sg67_22_cif.got.tgz:43214.got - 2010.04.10 22:41:39.
