data_PCOD8279723
_publ_section_title
;
Structure prediction by ZEFSAII (Michael W. Deem and Ramdas Pophale) SiO2 
 PCOD8279723
Probable space group: C M M A
;
_chemical_formula_sum "Si O2"
_cell_formula_units_Z 52
_cell_length_a 19.870666
_cell_length_b 9.092418
_cell_length_c 16.058351
_cell_angle_alpha 90.000000
_cell_angle_beta 90.000000
_cell_angle_gamma 90.000000
_cell_volume 2901.300835
_symmetry_space_group_name_H-M "C M M A"
_symmetry_group_IT_number 67
_symmetry_cell_setting 'orthorhombic'
loop_
_space_group_symop_operation_xyz
x,y,z
-x,1/2-y,z
x,-y,-z
-x,1/2+y,-z
-x,-y,-z
x,1/2+y,-z
-x,y,z
x,1/2-y,z
1/2+x,1/2+y,z
1/2-x,-y,z
1/2+x,1/2-y,-z
1/2-x,y,-z
1/2-x,1/2-y,-z
1/2+x,y,-z
1/2-x,1/2+y,z
1/2+x,-y,z
loop_
_atom_site_type_symbol
_atom_site_label
_atom_site_fract_x
_atom_site_fract_y
_atom_site_fract_z
Si Si1 0.187276 0.585865 0.840223
Si Si2 0.421778 0.577754 0.747646
Si Si3 0.750000 0.000000 0.000000
Si Si4 0.580005 0.583894 0.419329
O O1 0.181025 0.750000 0.803633
O O2 0.250000 0.500000 0.796713
O O3 0.119080 0.495621 0.823259
O O4 0.201223 0.596132 0.939978
O O5 0.500000 0.545948 0.763989
O O6 0.406635 0.750000 0.743170
O O7 0.396402 0.504021 0.662184
O O8 0.609314 0.500000 0.500000
O O9 0.500000 0.586904 0.423940
O O10 0.608578 0.750000 0.416812
#
# Coordination Sequence:
#
# PCOD8279723 Si02
#       4
#    16  16   4  16
#     4  10  20  35  57  79 103 134 173 215 258 313
#     4  10  20  33  51  78 110 140 174 217 262 305
#     4   8  22  36  60  80 100 132 172 216 254 316
#     4   9  16  27  45  70 102 139 177 214 255 303
#
# _framework density 17.922995
#
# number of rings (size 3 to 8) (size 9 to 14) (size 15 to 20)
#    0.923    1.538    0.000    3.231    0.000    5.538 
#    0.000    0.769    0.000    0.923    0.000    6.462 
#    0.000    0.000    0.000    0.000    0.000    0.000 
#
# Total GULP energy -322221.714603 kJ/mol
# GULP energy per Si atom -12393.142869 kJ/mol
# Density = 1.788220 g / cm^3
# Si number density = 17.922995 Si / 1000 Ang^3
#
#
#
# Elastic Constant Matrix: (Units=GPa)
#
#
# Indices 1 2 3 4 5 6 
#
# 1 67.1516 56.8176 44.6111 0.0000 0.0000 0.0000
# 2 56.8176 165.3128 50.9457 0.0000 0.0000 0.0000
# 3 44.6111 50.9457 100.0456 0.0000 0.0000 0.0000
# 4 0.0000 0.0000 0.0000 29.6160 0.0000 0.0000
# 5 0.0000 0.0000 0.0000 0.0000 16.0545 0.0000
# 6 0.0000 0.0000 0.0000 0.0000 0.0000 23.7300
#
#
#
# Elastic Compliance Matrix: (Units=1/GPa)
#
#
# Indices 1 2 3 4 5 6 
#
# 1 0.025697 -0.006287 -0.008257 0.000000 0.000000 0.000000
# 2 -0.006287 0.008714 -0.001634 0.000000 0.000000 0.000000
# 3 -0.008257 -0.001634 0.014509 0.000000 0.000000 0.000000
# 4 0.000000 0.000000 0.000000 0.033765 0.000000 0.000000
# 5 0.000000 0.000000 0.000000 0.000000 0.062288 0.000000
# 6 0.000000 0.000000 0.000000 0.000000 0.000000 0.042141
#
#
# Mechanical properties :
#
#
# Convention : Reuss Voigt Hill
#
# Bulk Modulus (GPa) = 60.37182 70.80653 65.58917
# Shear Modulus (GPa) = 22.22322 25.88913 24.05618
#
# Velocity S-wave (km/s) = 3.52508 3.80473 3.66757
# Velocity P-wave (km/s) = 7.09404 7.67418 7.38981
#
# Compressibility (1/GPa) = 0.01656402
#
# Stress axis : x y z
#
# Youngs Moduli (GPa) = 38.91554 114.76429 68.92275
#
# Poissons Ratio (x) = 0.72156 0.56907
# Poissons Ratio (y) = 0.24468 0.11259
# Poissons Ratio (z) = 0.32131 0.18747
#
# Static dielectric constant tensor:
#      x y z
#    x 2.940660 0.000000 0.000000 
#    y 0.000000 3.411500 0.000000 
#    z 0.000000 0.000000 3.181170 
# 
# 
# High freq. dielectric constant tensor:
#      x y z
#    x 1.652880 0.000000 0.000000 
#    y 0.000000 1.712460 0.000000 
#    z 0.000000 0.000000 1.679950 
# 
# From -- ./inp_files/24527.got.cif
#   From: 2010.03.12/outbox.cif.g09.slc.cpg/sg67_13_cif.got.tgz:24527.got - 2010.04.10 22:41:39.
