data_PCOD8279105
_publ_section_title
;
Structure prediction by ZEFSAII (Michael W. Deem and Ramdas Pophale) SiO2 
 PCOD8279105
Probable space group: C M M A
;
_chemical_formula_sum "Si O2"
_cell_formula_units_Z 72
_cell_length_a 15.489756
_cell_length_b 8.631834
_cell_length_c 28.129758
_cell_angle_alpha 90.000000
_cell_angle_beta 90.000000
_cell_angle_gamma 90.000000
_cell_volume 3761.089364
_symmetry_space_group_name_H-M "C M M A"
_symmetry_group_IT_number 67
_symmetry_cell_setting 'orthorhombic'
loop_
_space_group_symop_operation_xyz
x,y,z
-x,1/2-y,z
x,-y,-z
-x,1/2+y,-z
-x,-y,-z
x,1/2+y,-z
-x,y,z
x,1/2-y,z
1/2+x,1/2+y,z
1/2-x,-y,z
1/2+x,1/2-y,-z
1/2-x,y,-z
1/2-x,1/2-y,-z
1/2+x,y,-z
1/2-x,1/2+y,z
1/2+x,-y,z
loop_
_atom_site_type_symbol
_atom_site_label
_atom_site_fract_x
_atom_site_fract_y
_atom_site_fract_z
Si Si1 0.500000 0.933845 0.114511
Si Si2 0.500000 0.066735 0.447661
Si Si3 0.839718 0.567459 0.718506
Si Si4 0.341237 0.933528 0.390258
Si Si5 0.000000 0.564932 0.778592
Si Si6 0.841009 0.065818 0.051605
O O1 0.500000 0.750000 0.115732
O O2 0.500000 0.001043 0.167880
O O3 0.585400 0.993050 0.087586
O O4 0.500000 0.250000 0.449613
O O5 0.500000 0.000000 0.500000
O O6 0.415291 0.008870 0.421217
O O7 0.834838 0.750000 0.722390
O O8 0.750000 0.500000 0.737735
O O9 0.856994 0.516416 0.664302
O O10 0.915920 0.500645 0.751373
O O11 0.342872 0.750000 0.396670
O O12 0.250000 0.000000 0.408275
O O13 0.000000 0.750000 0.778095
O O14 0.836135 0.250000 0.048606
O O15 0.750000 0.000000 0.070233
O O16 0.863789 0.000000 0.000000
#
# Coordination Sequence:
#
# PCOD8279105 Si02
#       6
#     8   8  16  16   8  16
#     4   9  19  32  49  73 103 136 171 207 253 309
#     4  12  25  40  58  83 113 148 183 223 272 324
#     4   9  18  33  56  80 105 137 175 215 258 305
#     4  10  20  37  59  85 112 143 183 226 268 317
#     4   9  17  32  51  74 105 142 173 204 253 313
#     4  10  19  33  52  74  97 128 168 213 258 306
#
# _framework density 19.143391000000001
#
# number of rings (size 3 to 8) (size 9 to 14) (size 15 to 20)
#    0.000    2.222    0.000    4.000    0.000    4.000 
#    0.000    4.444    0.000    4.000    0.000    0.000 
#    0.000    0.000    0.000    0.000    0.000    0.000 
#
# Total GULP energy -446464.496444 kJ/mol
# GULP energy per Si atom -12401.791568 kJ/mol
# Density = 1.909982 g / cm^3
# Si number density = 19.143391 Si / 1000 Ang^3
#
#
#
# Elastic Constant Matrix: (Units=GPa)
#
#
# Indices 1 2 3 4 5 6 
#
# 1 211.7566 47.9254 119.8054 0.0000 0.0000 0.0000
# 2 47.9254 68.2040 38.4945 0.0000 0.0000 0.0000
# 3 119.8054 38.4945 137.7788 0.0000 0.0000 0.0000
# 4 0.0000 0.0000 0.0000 19.4798 0.0000 0.0000
# 5 0.0000 0.0000 0.0000 0.0000 93.4200 0.0000
# 6 0.0000 0.0000 0.0000 0.0000 0.0000 31.6260
#
#
#
# Elastic Compliance Matrix: (Units=1/GPa)
#
#
# Indices 1 2 3 4 5 6 
#
# 1 0.009621 -0.002420 -0.007689 0.000000 0.000000 0.000000
# 2 -0.002420 0.018016 -0.002929 0.000000 0.000000 0.000000
# 3 -0.007689 -0.002929 0.014763 0.000000 0.000000 0.000000
# 4 0.000000 0.000000 0.000000 0.051335 0.000000 0.000000
# 5 0.000000 0.000000 0.000000 0.000000 0.010704 0.000000
# 6 0.000000 0.000000 0.000000 0.000000 0.000000 0.031620
#
#
# Mechanical properties :
#
#
# Convention : Reuss Voigt Hill
#
# Bulk Modulus (GPa) = 61.26793 92.24331 76.75562
# Shear Modulus (GPa) = 29.83730 43.00611 36.42170
#
# Velocity S-wave (km/s) = 3.95222 4.74489 4.36658
# Velocity P-wave (km/s) = 7.27330 8.84922 8.09968
#
# Compressibility (1/GPa) = 0.01632175
#
# Stress axis : x y z
#
# Youngs Moduli (GPa) = 103.94414 55.50733 67.73889
#
# Poissons Ratio (x) = 0.13434 0.52087
# Poissons Ratio (y) = 0.25157 0.19840
# Poissons Ratio (z) = 0.79926 0.16258
#
# Static dielectric constant tensor:
#      x y z
#    x 3.790340 0.000000 0.000000 
#    y 0.000000 3.342900 0.000000 
#    z 0.000000 0.000000 3.629140 
# 
# 
# High freq. dielectric constant tensor:
#      x y z
#    x 1.762910 0.000000 0.000000 
#    y 0.000000 1.729920 0.000000 
#    z 0.000000 0.000000 1.741340 
# 
# From -- ./inp_files/43141.got.cif
#   From: 2010.03.12/outbox.cif.g09.slc.cpg/sg67_22_cif.got.tgz:43141.got - 2010.04.10 22:41:39.
