data_PCOD8279914
_publ_section_title
;
Structure prediction by ZEFSAII (Michael W. Deem and Ramdas Pophale) SiO2 
 PCOD8279914
Probable space group: C M M A
;
_chemical_formula_sum "Si O2"
_cell_formula_units_Z 112
_cell_length_a 13.615934
_cell_length_b 18.516463
_cell_length_c 23.393841
_cell_angle_alpha 90.000000
_cell_angle_beta 90.000000
_cell_angle_gamma 90.000000
_cell_volume 5898.030352
_symmetry_space_group_name_H-M "C M M A"
_symmetry_group_IT_number 67
_symmetry_cell_setting 'orthorhombic'
loop_
_space_group_symop_operation_xyz
x,y,z
-x,1/2-y,z
x,-y,-z
-x,1/2+y,-z
-x,-y,-z
x,1/2+y,-z
-x,y,z
x,1/2-y,z
1/2+x,1/2+y,z
1/2-x,-y,z
1/2+x,1/2-y,-z
1/2-x,y,-z
1/2-x,1/2-y,-z
1/2+x,y,-z
1/2-x,1/2+y,z
1/2+x,-y,z
loop_
_atom_site_type_symbol
_atom_site_label
_atom_site_fract_x
_atom_site_fract_y
_atom_site_fract_z
Si Si1 0.193959 0.664279 0.415695
Si Si2 0.725693 0.081743 0.199115
Si Si3 0.614807 0.056624 0.089670
Si Si4 0.386334 0.601604 0.113975
Si Si5 0.107654 0.164049 0.466173
Si Si6 0.114396 0.328662 0.997852
Si Si7 0.612982 0.164303 0.295572
O O1 0.190581 0.750000 0.415059
O O2 0.132653 0.635405 0.470075
O O3 0.307928 0.637980 0.421845
O O4 0.144812 0.634949 0.357897
O O5 0.639108 0.085921 0.152452
O O6 0.823154 0.118066 0.170885
O O7 0.688753 0.127739 0.252246
O O8 0.750000 0.000000 0.218667
O O9 0.500000 0.055844 0.078958
O O10 0.652564 0.973969 0.086117
O O11 0.664333 0.109145 0.041681
O O12 0.500000 0.597230 0.132555
O O13 0.367807 0.660640 0.065300
O O14 0.106348 0.250000 0.467671
O O15 0.000000 0.134244 0.447761
O O16 0.158423 0.250000 0.981568
O O17 0.000000 0.329443 0.984462
O O18 0.500000 0.141508 0.284012
O O19 0.624966 0.250000 0.290535
#
# Coordination Sequence:
#
# PCOD8279914 Si02
#       7
#    16  16  16  16  16  16  16
#     4   8  14  24  40  67 102 137 171 206 252 308
#     4  10  21  35  51  71  95 128 173 214 248 294
#     4   9  17  31  50  69  90 118 155 201 248 294
#     4   9  18  33  50  66  89 124 162 199 241 294
#     4   8  12  20  38  65  99 137 172 207 248 298
#     4   9  17  29  47  71  96 120 148 189 247 310
#     4  10  20  34  53  77 105 134 166 211 264 309
#
# _framework density 18.98939
#
# number of rings (size 3 to 8) (size 9 to 14) (size 15 to 20)
#    0.000    3.000    0.000    2.143    0.000    5.714 
#    0.000    5.000    0.000    0.857    0.000    2.000 
#    0.000    5.714    0.000    0.000    0.000    0.000 
#
# Total GULP energy -693850.453986 kJ/mol
# GULP energy per Si atom -12390.186678 kJ/mol
# Density = 1.894617 g / cm^3
# Si number density = 18.989390 Si / 1000 Ang^3
#
#
#
# Elastic Constant Matrix: (Units=GPa)
#
#
# Indices 1 2 3 4 5 6 
#
# 1 90.5044 25.5726 33.0496 0.0000 0.0000 0.0000
# 2 25.5726 48.6207 38.6075 0.0000 0.0000 0.0000
# 3 33.0496 38.6075 101.0254 0.0000 0.0000 0.0000
# 4 0.0000 0.0000 0.0000 14.0509 0.0000 0.0000
# 5 0.0000 0.0000 0.0000 0.0000 -6.9296 0.0000
# 6 0.0000 0.0000 0.0000 0.0000 0.0000 12.0690
#
#
#
# Elastic Compliance Matrix: (Units=1/GPa)
#
#
# Indices 1 2 3 4 5 6 
#
# 1 0.013379 -0.005113 -0.002423 0.000000 0.000000 0.000000
# 2 -0.005113 0.031482 -0.010358 0.000000 0.000000 0.000000
# 3 -0.002423 -0.010358 0.014650 0.000000 0.000000 0.000000
# 4 0.000000 0.000000 0.000000 0.071170 0.000000 0.000000
# 5 0.000000 0.000000 0.000000 0.000000 -0.144308 0.000000
# 6 0.000000 0.000000 0.000000 0.000000 0.000000 0.082857
#
#
# Mechanical properties :
#
#
# Convention : Reuss Voigt Hill
#
# Bulk Modulus (GPa) = 42.15498 48.28998 45.22248
# Shear Modulus (GPa) = 44.27791 13.36611 28.82201
#
# Velocity S-wave (km/s) = 4.83403 2.65594 3.90012
# Velocity P-wave (km/s) = 7.30784 5.90682 6.64436
#
# Compressibility (1/GPa) = 0.02372199
#
# Stress axis : x y z
#
# Youngs Moduli (GPa) = 74.74634 31.76466 68.26137
#
# Poissons Ratio (x) = 0.16241 0.16538
# Poissons Ratio (y) = 0.38216 0.70707
# Poissons Ratio (z) = 0.18110 0.32903
#
# Static dielectric constant tensor:
#      x y z
#    x 3.815820 0.000000 0.000000 
#    y 0.000000 3.265390 0.000000 
#    z 0.000000 0.000000 3.409130 
# 
# 
# High freq. dielectric constant tensor:
#      x y z
#    x 1.755900 0.000000 0.000000 
#    y 0.000000 1.696730 0.000000 
#    z 0.000000 0.000000 1.716470 
# 
# From -- ./inp_files/41920.got.cif
#   From: 2010.03.12/outbox.cif.g09.slc.cpg/sg67_21_cif.got.tgz:41920.got - 2010.04.10 22:41:39.
