data_PCOD8279205
_publ_section_title
;
Structure prediction by ZEFSAII (Michael W. Deem and Ramdas Pophale) SiO2 
 PCOD8279205
Probable space group: C M M A
;
_chemical_formula_sum "Si O2"
_cell_formula_units_Z 112
_cell_length_a 29.991241
_cell_length_b 18.229953
_cell_length_c 11.918989
_cell_angle_alpha 90.000000
_cell_angle_beta 90.000000
_cell_angle_gamma 90.000000
_cell_volume 6516.575100
_symmetry_space_group_name_H-M "C M M A"
_symmetry_group_IT_number 67
_symmetry_cell_setting 'orthorhombic'
loop_
_space_group_symop_operation_xyz
x,y,z
-x,1/2-y,z
x,-y,-z
-x,1/2+y,-z
-x,-y,-z
x,1/2+y,-z
-x,y,z
x,1/2-y,z
1/2+x,1/2+y,z
1/2-x,-y,z
1/2+x,1/2-y,-z
1/2-x,y,-z
1/2-x,1/2-y,-z
1/2+x,y,-z
1/2-x,1/2+y,z
1/2+x,-y,z
loop_
_atom_site_type_symbol
_atom_site_label
_atom_site_fract_x
_atom_site_fract_y
_atom_site_fract_z
Si Si1 0.551297 0.041157 0.382872
Si Si2 0.668669 0.578156 0.034718
Si Si3 0.619299 0.036944 0.762307
Si Si4 0.618299 0.168900 0.397185
Si Si5 0.344218 0.332462 0.630409
Si Si6 0.731475 0.164876 0.796764
Si Si7 0.328116 0.604430 0.790530
O O1 0.500000 0.053680 0.353124
O O2 0.575073 0.118451 0.398626
O O3 0.557794 0.000000 0.500000
O O4 0.572543 0.998489 0.275810
O O5 0.623410 0.562145 0.107247
O O6 0.702544 0.629237 0.103411
O O7 0.691428 0.500000 0.000000
O O8 0.655362 0.617608 0.918607
O O9 0.623785 0.108843 0.687413
O O10 0.659265 0.977189 0.744325
O O11 0.598759 0.250000 0.408924
O O12 0.653389 0.151944 0.497623
O O13 0.646211 0.163829 0.283174
O O14 0.361433 0.250000 0.658437
O O15 0.294192 0.341318 0.678029
O O16 0.741534 0.250000 0.826898
O O17 0.775541 0.116994 0.782585
#
# Coordination Sequence:
#
# PCOD8279205 Si02
#       7
#    16  16  16  16  16  16  16
#     4  10  19  33  57  84 105 126 160 212 264 319
#     4   9  19  33  50  70  99 137 177 220 255 296
#     4   9  18  34  53  71 103 134 166 207 262 311
#     4  10  20  34  52  73 107 140 165 207 258 320
#     4   9  18  32  49  70  99 137 172 206 258 311
#     4  10  20  32  48  72 102 137 180 227 263 298
#     4  10  20  30  48  73 100 138 180 214 251 297
#
# _framework density 17.186942999999999
#
# number of rings (size 3 to 8) (size 9 to 14) (size 15 to 20)
#    0.000    2.429    1.429    0.857    0.000    9.429 
#    0.000    2.143    0.000   16.286    0.000    0.000 
#    0.000    0.000    0.000    0.000    0.000    0.000 
#
# Total GULP energy -693920.437416 kJ/mol
# GULP energy per Si atom -12391.436382 kJ/mol
# Density = 1.714782 g / cm^3
# Si number density = 17.186943 Si / 1000 Ang^3
#
#
#
# Elastic Constant Matrix: (Units=GPa)
#
#
# Indices 1 2 3 4 5 6 
#
# 1 93.6787 42.6189 77.0147 0.0000 0.0000 0.0000
# 2 42.6189 79.5113 61.9152 0.0000 0.0000 0.0000
# 3 77.0147 61.9152 117.0455 0.0000 0.0000 0.0000
# 4 0.0000 0.0000 0.0000 27.1842 0.0000 0.0000
# 5 0.0000 0.0000 0.0000 0.0000 20.6713 0.0000
# 6 0.0000 0.0000 0.0000 0.0000 0.0000 14.5889
#
#
#
# Elastic Compliance Matrix: (Units=1/GPa)
#
#
# Indices 1 2 3 4 5 6 
#
# 1 0.023295 -0.000936 -0.014832 0.000000 0.000000 0.000000
# 2 -0.000936 0.021424 -0.010717 0.000000 0.000000 0.000000
# 3 -0.014832 -0.010717 0.023972 0.000000 0.000000 0.000000
# 4 0.000000 0.000000 0.000000 0.036786 0.000000 0.000000
# 5 0.000000 0.000000 0.000000 0.000000 0.048376 0.000000
# 6 0.000000 0.000000 0.000000 0.000000 0.000000 0.068545
#
#
# Mechanical properties :
#
#
# Convention : Reuss Voigt Hill
#
# Bulk Modulus (GPa) = 63.61388 72.59259 68.10324
# Shear Modulus (GPa) = 17.81836 19.73464 18.77650
#
# Velocity S-wave (km/s) = 3.22334 3.39224 3.30886
# Velocity P-wave (km/s) = 7.13768 7.59419 7.36947
#
# Compressibility (1/GPa) = 0.01571984
#
# Stress axis : x y z
#
# Youngs Moduli (GPa) = 42.92829 46.67702 41.71491
#
# Poissons Ratio (x) = 0.04370 0.61873
# Poissons Ratio (y) = 0.04019 0.44705
# Poissons Ratio (z) = 0.63673 0.50023
#
# Static dielectric constant tensor:
#      x y z
#    x 2.904570 0.000000 0.000000 
#    y 0.000000 3.390760 0.000000 
#    z 0.000000 0.000000 3.510230 
# 
# 
# High freq. dielectric constant tensor:
#      x y z
#    x 1.621300 0.000000 0.000000 
#    y 0.000000 1.677690 0.000000 
#    z 0.000000 0.000000 1.672340 
# 
# From -- ./inp_files/23147.got.cif
#   From: 2010.03.12/outbox.cif.g09.slc.cpg/sg67_12_cif.got.tgz:23147.got - 2010.04.10 22:41:39.
