data_PCOD8279171
_publ_section_title
;
Structure prediction by ZEFSAII (Michael W. Deem and Ramdas Pophale) SiO2 
 PCOD8279171
Probable space group: C M M A
;
_chemical_formula_sum "Si O2"
_cell_formula_units_Z 88
_cell_length_a 26.575840
_cell_length_b 9.125641
_cell_length_c 18.865690
_cell_angle_alpha 90.000000
_cell_angle_beta 90.000000
_cell_angle_gamma 90.000000
_cell_volume 4575.336854
_symmetry_space_group_name_H-M "C M M A"
_symmetry_group_IT_number 67
_symmetry_cell_setting 'orthorhombic'
loop_
_space_group_symop_operation_xyz
x,y,z
-x,1/2-y,z
x,-y,-z
-x,1/2+y,-z
-x,-y,-z
x,1/2+y,-z
-x,y,z
x,1/2-y,z
1/2+x,1/2+y,z
1/2-x,-y,z
1/2+x,1/2-y,-z
1/2-x,y,-z
1/2-x,1/2-y,-z
1/2+x,y,-z
1/2-x,1/2+y,z
1/2+x,-y,z
loop_
_atom_site_type_symbol
_atom_site_label
_atom_site_fract_x
_atom_site_fract_y
_atom_site_fract_z
Si Si1 0.900262 0.922289 0.341102
Si Si2 0.943365 0.413527 0.806865
Si Si3 0.000000 0.923740 0.424917
Si Si4 0.604091 0.077695 0.925634
Si Si5 0.201254 0.420143 0.160096
Si Si6 0.698886 0.922993 0.324413
O O1 0.891008 0.750000 0.352051
O O2 0.908787 0.961460 0.258691
O O3 0.949189 0.975103 0.384756
O O4 0.849931 0.010178 0.364979
O O5 0.928600 0.250000 0.832641
O O6 0.939431 0.525023 0.872435
O O7 0.000000 0.415270 0.777977
O O8 0.000000 0.750000 0.433529
O O9 0.000000 0.000000 0.500000
O O10 0.600289 0.250000 0.936755
O O11 0.655582 0.026497 0.888613
O O12 0.597396 0.000000 0.000000
O O13 0.210536 0.250000 0.151447
O O14 0.250000 0.500000 0.129556
O O15 0.191992 0.461524 0.241707
O O16 0.702181 0.750000 0.338986
O O17 0.750000 0.000000 0.352825
#
# Coordination Sequence:
#
# PCOD8279171 Si02
#       6
#    16  16   8  16  16  16
#     4  10  19  35  60  88 119 155 192 235 283 338
#     4  10  20  36  58  81 104 138 184 231 283 339
#     4  10  22  40  62  94 131 162 193 228 277 338
#     4  11  23  38  52  73 103 140 185 235 287 343
#     4   9  19  33  50  73 103 136 177 228 280 334
#     4  10  19  33  54  85 118 151 193 241 290 342
#
# _framework density 19.233557000000001
#
# number of rings (size 3 to 8) (size 9 to 14) (size 15 to 20)
#    0.000    2.000    2.727    1.091    0.000    4.000 
#    0.000    1.818    0.000    0.545    0.000    3.818 
#    0.000    0.000    0.000    0.000    0.000    0.000 
#
# Total GULP energy -545572.832027 kJ/mol
# GULP energy per Si atom -12399.382546 kJ/mol
# Density = 1.918978 g / cm^3
# Si number density = 19.233557 Si / 1000 Ang^3
#
#
#
# Elastic Constant Matrix: (Units=GPa)
#
#
# Indices 1 2 3 4 5 6 
#
# 1 142.1338 56.4983 38.9873 0.0000 0.0000 0.0000
# 2 56.4983 68.9520 34.4245 0.0000 0.0000 0.0000
# 3 38.9873 34.4245 63.8748 0.0000 0.0000 0.0000
# 4 0.0000 0.0000 0.0000 25.8251 0.0000 0.0000
# 5 0.0000 0.0000 0.0000 0.0000 18.2940 0.0000
# 6 0.0000 0.0000 0.0000 0.0000 0.0000 36.0340
#
#
#
# Elastic Compliance Matrix: (Units=1/GPa)
#
#
# Indices 1 2 3 4 5 6 
#
# 1 0.010712 -0.007543 -0.002473 0.000000 0.000000 0.000000
# 2 -0.007543 0.025152 -0.008952 0.000000 0.000000 0.000000
# 3 -0.002473 -0.008952 0.021990 0.000000 0.000000 0.000000
# 4 0.000000 0.000000 0.000000 0.038722 0.000000 0.000000
# 5 0.000000 0.000000 0.000000 0.000000 0.054663 0.000000
# 6 0.000000 0.000000 0.000000 0.000000 0.000000 0.027752
#
#
# Mechanical properties :
#
#
# Convention : Reuss Voigt Hill
#
# Bulk Modulus (GPa) = 50.20394 59.42010 54.81202
# Shear Modulus (GPa) = 22.36476 25.70066 24.03271
#
# Velocity S-wave (km/s) = 3.41368 3.65943 3.53869
# Velocity P-wave (km/s) = 6.45729 6.98686 6.72729
#
# Compressibility (1/GPa) = 0.01991876
#
# Stress axis : x y z
#
# Youngs Moduli (GPa) = 93.35066 39.75770 45.47559
#
# Poissons Ratio (x) = 0.29988 0.11248
# Poissons Ratio (y) = 0.70411 0.40709
# Poissons Ratio (z) = 0.23090 0.35590
#
# Static dielectric constant tensor:
#      x y z
#    x 3.679980 0.000000 0.000000 
#    y 0.000000 3.470150 0.000000 
#    z 0.000000 0.000000 3.173360 
# 
# 
# High freq. dielectric constant tensor:
#      x y z
#    x 1.762430 0.000000 0.000000 
#    y 0.000000 1.745940 0.000000 
#    z 0.000000 0.000000 1.713820 
# 
# From -- ./inp_files/39596.got.cif
#   From: 2010.03.12/outbox.cif.g09.slc.cpg/sg67_20_cif.got.tgz:39596.got - 2010.04.10 22:41:39.
