data_PCOD8279186
_publ_section_title
;
Structure prediction by ZEFSAII (Michael W. Deem and Ramdas Pophale) SiO2 
 PCOD8279186
Probable space group: C M M A
;
_chemical_formula_sum "Si O2"
_cell_formula_units_Z 112
_cell_length_a 15.209647
_cell_length_b 27.693075
_cell_length_c 14.787118
_cell_angle_alpha 90.000000
_cell_angle_beta 90.000000
_cell_angle_gamma 90.000000
_cell_volume 6228.362125
_symmetry_space_group_name_H-M "C M M A"
_symmetry_group_IT_number 67
_symmetry_cell_setting 'orthorhombic'
loop_
_space_group_symop_operation_xyz
x,y,z
-x,1/2-y,z
x,-y,-z
-x,1/2+y,-z
-x,-y,-z
x,1/2+y,-z
-x,y,z
x,1/2-y,z
1/2+x,1/2+y,z
1/2-x,-y,z
1/2+x,1/2-y,-z
1/2-x,y,-z
1/2-x,1/2-y,-z
1/2+x,y,-z
1/2-x,1/2+y,z
1/2+x,-y,z
loop_
_atom_site_type_symbol
_atom_site_label
_atom_site_fract_x
_atom_site_fract_y
_atom_site_fract_z
Si Si1 0.236016 0.152508 0.719985
Si Si2 0.713361 0.194002 0.899343
Si Si3 0.402325 0.894295 0.108824
Si Si4 0.899154 0.806493 0.624099
Si Si5 0.253494 0.553807 0.793643
Si Si6 0.597775 0.693016 0.580646
Si Si7 0.098163 0.545456 0.059105
O O1 0.219234 0.175903 0.820142
O O2 0.335625 0.164555 0.690660
O O3 0.225322 0.094446 0.719193
O O4 0.166216 0.171697 0.649992
O O5 0.689249 0.250000 0.884736
O O6 0.627023 0.161429 0.885034
O O7 0.750000 0.185238 0.000000
O O8 0.500000 0.899343 0.150436
O O9 0.338810 0.931687 0.160498
O O10 0.402660 0.907271 0.003224
O O11 0.880113 0.750000 0.635809
O O12 0.878514 0.822677 0.521295
O O13 0.000000 0.818595 0.648847
O O14 0.250000 0.500000 0.750408
O O15 0.332503 0.554804 0.863799
O O16 0.500000 0.674638 0.605702
O O17 0.601595 0.750000 0.587477
O O18 0.000000 0.536025 0.099107
O O19 0.129198 0.500000 0.000000
#
# Coordination Sequence:
#
# PCOD8279186 Si02
#       7
#    16  16  16  16  16  16  16
#     4  11  21  33  54  81 108 145 183 223 274 327
#     4  10  21  36  51  72 110 157 194 220 257 320
#     4  10  20  33  51  75  97 131 183 232 282 323
#     4   9  18  34  59  89 114 136 172 225 279 331
#     4  11  22  34  50  73 106 139 174 228 282 320
#     4   9  18  34  58  87 113 137 172 223 280 333
#     4  10  19  33  56  76  91 126 182 242 293 324
#
# _framework density 17.982257000000001
#
# number of rings (size 3 to 8) (size 9 to 14) (size 15 to 20)
#    0.000    2.000    1.429    4.714    0.000    4.286 
#    0.000    0.714    0.000    2.571    0.000    2.000 
#    0.000    0.000    0.000    0.000    0.000    0.000 
#
# Total GULP energy -694115.188837 kJ/mol
# GULP energy per Si atom -12394.914086 kJ/mol
# Density = 1.794133 g / cm^3
# Si number density = 17.982257 Si / 1000 Ang^3
#
#
#
# Elastic Constant Matrix: (Units=GPa)
#
#
# Indices 1 2 3 4 5 6 
#
# 1 94.0799 29.2910 33.0404 0.0000 0.0000 0.0000
# 2 29.2910 103.8508 27.5238 0.0000 0.0000 0.0000
# 3 33.0404 27.5238 76.1908 0.0000 0.0000 0.0000
# 4 0.0000 0.0000 0.0000 21.9327 0.0000 0.0000
# 5 0.0000 0.0000 0.0000 0.0000 -7.8971 0.0000
# 6 0.0000 0.0000 0.0000 0.0000 0.0000 23.0085
#
#
#
# Elastic Compliance Matrix: (Units=1/GPa)
#
#
# Indices 1 2 3 4 5 6 
#
# 1 0.013064 -0.002414 -0.004793 0.000000 0.000000 0.000000
# 2 -0.002414 0.011095 -0.002961 0.000000 0.000000 0.000000
# 3 -0.004793 -0.002961 0.016273 0.000000 0.000000 0.000000
# 4 0.000000 0.000000 0.000000 0.045594 0.000000 0.000000
# 5 0.000000 0.000000 0.000000 0.000000 -0.126629 0.000000
# 6 0.000000 0.000000 0.000000 0.000000 0.000000 0.043462
#
#
# Mechanical properties :
#
#
# Convention : Reuss Voigt Hill
#
# Bulk Modulus (GPa) = 49.76306 50.42575 50.09441
# Shear Modulus (GPa) = 167.25186 19.69325 93.47255
#
# Velocity S-wave (km/s) = 9.65460 3.31289 7.21757
# Velocity P-wave (km/s) = 12.32945 6.53732 9.86792
#
# Compressibility (1/GPa) = 0.02009523
#
# Stress axis : x y z
#
# Youngs Moduli (GPa) = 76.54438 90.13117 61.45084
#
# Poissons Ratio (x) = 0.21762 0.29454
# Poissons Ratio (y) = 0.18481 0.18196
# Poissons Ratio (z) = 0.36689 0.26688
#
# Static dielectric constant tensor:
#      x y z
#    x 3.685410 0.000000 0.000000 
#    y 0.000000 3.547170 0.000000 
#    z 0.000000 0.000000 3.319150 
# 
# 
# High freq. dielectric constant tensor:
#      x y z
#    x 1.700420 0.000000 0.000000 
#    y 0.000000 1.691370 0.000000 
#    z 0.000000 0.000000 1.677270 
# 
# From -- ./inp_files/27682.got.cif
#   From: 2010.03.12/outbox.cif.g09.slc.cpg/sg67_14_cif.got.tgz:27682.got - 2010.04.10 22:41:39.
