data_PCOD8279947
_publ_section_title
;
Structure prediction by ZEFSAII (Michael W. Deem and Ramdas Pophale) SiO2 
 PCOD8279947
Probable space group: C M M A
;
_chemical_formula_sum "Si O2"
_cell_formula_units_Z 72
_cell_length_a 9.045157
_cell_length_b 15.465878
_cell_length_c 25.216751
_cell_angle_alpha 90.000000
_cell_angle_beta 90.000000
_cell_angle_gamma 90.000000
_cell_volume 3527.603944
_symmetry_space_group_name_H-M "C M M A"
_symmetry_group_IT_number 67
_symmetry_cell_setting 'orthorhombic'
loop_
_space_group_symop_operation_xyz
x,y,z
-x,1/2-y,z
x,-y,-z
-x,1/2+y,-z
-x,-y,-z
x,1/2+y,-z
-x,y,z
x,1/2-y,z
1/2+x,1/2+y,z
1/2-x,-y,z
1/2+x,1/2-y,-z
1/2-x,y,-z
1/2-x,1/2-y,-z
1/2+x,y,-z
1/2-x,1/2+y,z
1/2+x,-y,z
loop_
_atom_site_type_symbol
_atom_site_label
_atom_site_fract_x
_atom_site_fract_y
_atom_site_fract_z
Si Si1 0.161066 0.650874 0.850054
Si Si2 0.663867 0.146672 0.051214
Si Si3 0.823563 0.591440 0.737506
Si Si4 0.672540 0.750000 0.555955
Si Si5 0.176356 0.907105 0.368704
O O1 0.144712 0.750000 0.865510
O O2 0.266254 0.608334 0.894367
O O3 0.220813 0.645059 0.789877
O O4 0.000000 0.605444 0.853098
O O5 0.500000 0.109055 0.047774
O O6 0.662545 0.250000 0.051710
O O7 0.750000 0.111390 0.000000
O O8 0.750000 0.500000 0.746996
O O9 0.746026 0.631720 0.685524
O O10 0.000000 0.586488 0.728588
O O11 0.500000 0.750000 0.545878
O O12 0.750000 0.750000 0.500000
O O13 0.718438 0.662662 0.586710
O O14 0.000000 0.918630 0.362719
O O15 0.250000 0.000000 0.382602
#
# Coordination Sequence:
#
# PCOD8279947 Si02
#       5
#    16  16  16   8  16
#     4   9  18  31  47  71 100 130 170 216 262 317
#     4   9  16  26  42  65  94 129 167 210 263 318
#     4  10  20  34  54  78 106 142 179 219 270 325
#     4  10  24  42  62  90 122 156 195 238 285 334
#     4  10  21  39  60  86 118 154 194 237 285 338
#
# _framework density 20.410454000000001
#
# number of rings (size 3 to 8) (size 9 to 14) (size 15 to 20)
#    0.000    2.444    0.000    3.333    1.556    6.667 
#    0.000    2.222    0.000    0.667    0.000    4.667 
#    0.000    0.000    0.000    0.000    0.000    0.000 
#
# Total GULP energy -446136.219985 kJ/mol
# GULP energy per Si atom -12392.672777 kJ/mol
# Density = 2.036400 g / cm^3
# Si number density = 20.410454 Si / 1000 Ang^3
#
#
#
# Elastic Constant Matrix: (Units=GPa)
#
#
# Indices 1 2 3 4 5 6 
#
# 1 136.5391 37.9683 97.6756 0.0000 0.0000 0.0000
# 2 37.9683 49.4400 54.6830 0.0000 0.0000 0.0000
# 3 97.6756 54.6830 205.3986 0.0000 0.0000 0.0000
# 4 0.0000 0.0000 0.0000 -3.5555 0.0000 0.0000
# 5 0.0000 0.0000 0.0000 0.0000 43.1033 0.0000
# 6 0.0000 0.0000 0.0000 0.0000 0.0000 18.0765
#
#
#
# Elastic Compliance Matrix: (Units=1/GPa)
#
#
# Indices 1 2 3 4 5 6 
#
# 1 0.011630 -0.003989 -0.004468 0.000000 0.000000 0.000000
# 2 -0.003989 0.030036 -0.006100 0.000000 0.000000 0.000000
# 3 -0.004468 -0.006100 0.008617 0.000000 0.000000 0.000000
# 4 0.000000 0.000000 0.000000 -0.281258 0.000000 0.000000
# 5 0.000000 0.000000 0.000000 0.000000 0.023200 0.000000
# 6 0.000000 0.000000 0.000000 0.000000 0.000000 0.055321
#
#
# Mechanical properties :
#
#
# Convention : Reuss Voigt Hill
#
# Bulk Modulus (GPa) = 47.23784 85.78128 66.50956
# Shear Modulus (GPa) = -42.99835 24.92824 -9.03505
#
# Velocity S-wave (km/s) = -4.59484 3.49857 -2.10625
# Velocity P-wave (km/s) = 2.22618 7.64456 5.17124
#
# Compressibility (1/GPa) = 0.02116947
#
# Stress axis : x y z
#
# Youngs Moduli (GPa) = 85.98659 33.29296 116.04404
#
# Poissons Ratio (x) = 0.13280 0.51854
# Poissons Ratio (y) = 0.34299 0.70783
# Poissons Ratio (z) = 0.38423 0.20308
#
# Static dielectric constant tensor:
#      x y z
#    x 3.965770 0.000000 0.000000 
#    y 0.000000 3.335300 0.000000 
#    z 0.000000 0.000000 4.067680 
# 
# 
# High freq. dielectric constant tensor:
#      x y z
#    x 1.805290 0.000000 0.000000 
#    y 0.000000 1.767690 0.000000 
#    z 0.000000 0.000000 1.808300 
# 
# From -- ./inp_files/40511.got.cif
#   From: 2010.03.12/outbox.cif.g09.slc.cpg/sg67_21_cif.got.tgz:40511.got - 2010.04.10 22:41:39.
