data_PCOD8279042
_publ_section_title
;
Structure prediction by ZEFSAII (Michael W. Deem and Ramdas Pophale) SiO2 
 PCOD8279042
Probable space group: C M M A
;
_chemical_formula_sum "Si O2"
_cell_formula_units_Z 96
_cell_length_a 15.517005
_cell_length_b 24.533064
_cell_length_c 11.112972
_cell_angle_alpha 90.000000
_cell_angle_beta 90.000000
_cell_angle_gamma 90.000000
_cell_volume 4230.482589
_symmetry_space_group_name_H-M "C M M A"
_symmetry_group_IT_number 67
_symmetry_cell_setting 'orthorhombic'
loop_
_space_group_symop_operation_xyz
x,y,z
-x,1/2-y,z
x,-y,-z
-x,1/2+y,-z
-x,-y,-z
x,1/2+y,-z
-x,y,z
x,1/2-y,z
1/2+x,1/2+y,z
1/2-x,-y,z
1/2+x,1/2-y,-z
1/2-x,y,-z
1/2-x,1/2-y,-z
1/2+x,y,-z
1/2-x,1/2+y,z
1/2+x,-y,z
loop_
_atom_site_type_symbol
_atom_site_label
_atom_site_fract_x
_atom_site_fract_y
_atom_site_fract_z
Si Si1 0.398114 0.750000 0.042296
Si Si2 0.601002 0.354089 0.813608
Si Si3 0.405235 0.352696 0.358731
Si Si4 0.333793 0.687226 0.420794
Si Si5 0.899554 0.525842 0.876828
Si Si6 0.103158 0.026167 0.626876
Si Si7 0.104064 0.250000 0.777131
O O1 0.500000 0.750000 0.032817
O O2 0.365774 0.804541 0.105590
O O3 0.358611 0.750000 0.910075
O O4 0.500000 0.348070 0.780281
O O5 0.658722 0.352045 0.693727
O O6 0.618425 0.409807 0.884513
O O7 0.500000 0.360337 0.302773
O O8 0.413434 0.328860 0.493564
O O9 0.360267 0.412050 0.359901
O O10 0.356149 0.305132 0.282737
O O11 0.338895 0.750000 0.380114
O O12 0.250000 0.673040 0.500000
O O13 0.862271 0.504224 0.748172
O O14 0.000000 0.511686 0.876743
O O15 0.858440 0.500000 0.000000
O O16 0.000000 0.025248 0.621272
O O17 0.137814 0.000000 0.500000
O O18 0.000000 0.250000 0.764577
#
# Coordination Sequence:
#
# PCOD8279042 Si02
#       7
#     8  16  16  16  16  16   8
#     4   9  18  29  47  78 110 141 178 223 272 327
#     4  10  19  33  55  80 112 149 185 226 278 339
#     4  10  19  32  54  76 102 136 174 219 270 332
#     4  11  22  35  52  77 110 141 179 232 283 332
#     4   9  18  30  49  81 116 144 176 222 274 326
#     4   9  17  29  46  72 104 136 173 218 265 314
#     4   9  18  29  45  76 106 131 170 221 270 319
#
# _framework density 22.692446
#
# number of rings (size 3 to 8) (size 9 to 14) (size 15 to 20)
#    0.000    2.333    1.667    1.500    2.333    3.333 
#    0.000    0.000    0.000    6.500    0.000    1.167 
#    0.000    0.000    0.000    0.000    0.000    0.167 
#
# Total GULP energy -594723.869814 kJ/mol
# GULP energy per Si atom -12390.080621 kJ/mol
# Density = 2.264080 g / cm^3
# Si number density = 22.692446 Si / 1000 Ang^3
#
#
#
# Elastic Constant Matrix: (Units=GPa)
#
#
# Indices 1 2 3 4 5 6 
#
# 1 13.1120 19.4997 8.8845 0.0000 0.0000 0.0000
# 2 19.4997 196.6177 101.8707 0.0000 0.0000 0.0000
# 3 8.8845 101.8707 211.9572 0.0000 0.0000 0.0000
# 4 0.0000 0.0000 0.0000 38.6285 0.0000 0.0000
# 5 0.0000 0.0000 0.0000 0.0000 8.3660 0.0000
# 6 0.0000 0.0000 0.0000 0.0000 0.0000 11.0870
#
#
#
# Elastic Compliance Matrix: (Units=1/GPa)
#
#
# Indices 1 2 3 4 5 6 
#
# 1 0.089536 -0.009235 0.000685 0.000000 0.000000 0.000000
# 2 -0.009235 0.007725 -0.003326 0.000000 0.000000 0.000000
# 3 0.000685 -0.003326 0.006288 0.000000 0.000000 0.000000
# 4 0.000000 0.000000 0.000000 0.025888 0.000000 0.000000
# 5 0.000000 0.000000 0.000000 0.000000 0.119532 0.000000
# 6 0.000000 0.000000 0.000000 0.000000 0.000000 0.090196
#
#
# Mechanical properties :
#
#
# Convention : Reuss Voigt Hill
#
# Bulk Modulus (GPa) = 12.53165 75.79965 44.16565
# Shear Modulus (GPa) = 12.83653 31.04508 21.94080
#
# Velocity S-wave (km/s) = 2.38097 3.70277 3.11284
# Velocity P-wave (km/s) = 3.61843 7.19418 5.69426
#
# Compressibility (1/GPa) = 0.07979794
#
# Stress axis : x y z
#
# Youngs Moduli (GPa) = 11.16874 129.45019 159.04353
#
# Poissons Ratio (x) = 1.19546 -0.10902
# Poissons Ratio (y) = 0.10314 0.52893
# Poissons Ratio (z) = -0.00766 0.43051
#
# Static dielectric constant tensor:
#      x y z
#    x 3.423580 0.000000 0.000000 
#    y 0.000000 4.217680 0.000000 
#    z 0.000000 0.000000 4.328550 
# 
# 
# High freq. dielectric constant tensor:
#      x y z
#    x 1.837050 0.000000 0.000000 
#    y 0.000000 1.905940 0.000000 
#    z 0.000000 0.000000 1.900390 
# 
# From -- ./inp_files/21044.got.cif
#   From: 2010.03.12/outbox.cif.g09.slc.cpg/sg67_11_cif.got.tgz:21044.got - 2010.04.10 22:41:39.
