data_PCOD8279517
_publ_section_title
;
Structure prediction by ZEFSAII (Michael W. Deem and Ramdas Pophale) SiO2 
 PCOD8279517
Probable space group: C M M A
;
_chemical_formula_sum "Si O2"
_cell_formula_units_Z 120
_cell_length_a 9.231322
_cell_length_b 26.758440
_cell_length_c 28.449048
_cell_angle_alpha 90.000000
_cell_angle_beta 90.000000
_cell_angle_gamma 90.000000
_cell_volume 7027.363664
_symmetry_space_group_name_H-M "C M M A"
_symmetry_group_IT_number 67
_symmetry_cell_setting 'orthorhombic'
loop_
_space_group_symop_operation_xyz
x,y,z
-x,1/2-y,z
x,-y,-z
-x,1/2+y,-z
-x,-y,-z
x,1/2+y,-z
-x,y,z
x,1/2-y,z
1/2+x,1/2+y,z
1/2-x,-y,z
1/2+x,1/2-y,-z
1/2-x,y,-z
1/2-x,1/2-y,-z
1/2+x,y,-z
1/2-x,1/2+y,z
1/2+x,-y,z
loop_
_atom_site_type_symbol
_atom_site_label
_atom_site_fract_x
_atom_site_fract_y
_atom_site_fract_z
Si Si1 0.166988 0.900000 0.313561
Si Si2 0.829874 0.141172 0.950576
Si Si3 0.832673 0.548845 0.220917
Si Si4 0.171021 0.449031 0.884991
Si Si5 0.334745 0.805660 0.630055
Si Si6 0.831972 0.646752 0.548389
Si Si7 0.666567 0.250000 0.047768
Si Si8 0.831943 0.048387 0.394320
O O1 0.201369 0.907043 0.258195
O O2 0.202891 0.842800 0.327010
O O3 0.265798 0.936776 0.344071
O O4 0.000000 0.913192 0.324484
O O5 0.773914 0.097688 0.915946
O O6 0.797225 0.196530 0.926914
O O7 0.000000 0.134794 0.959679
O O8 0.750000 0.135063 0.000000
O O9 0.750000 0.500000 0.238329
O O10 0.784364 0.564777 0.168540
O O11 0.000000 0.534683 0.220717
O O12 0.250000 0.500000 0.901323
O O13 0.000000 0.457390 0.890404
O O14 0.500000 0.813714 0.613157
O O15 0.309355 0.750000 0.649444
O O16 0.231065 0.814315 0.585841
O O17 0.750000 0.654214 0.500000
O O18 0.806107 0.590958 0.567093
O O19 0.000000 0.658657 0.540900
O O20 0.500000 0.250000 0.034100
O O21 0.750000 0.250000 0.000000
O O22 0.000000 0.036595 0.386942
O O23 0.750000 0.000000 0.414157
#
# Coordination Sequence:
#
# PCOD8279517 Si02
#       8
#    16  16  16  16  16  16   8  16
#     4   9  17  30  49  70  92 118 149 188 226 266
#     4   9  17  29  46  66  90 120 156 197 237 279
#     4   9  17  29  46  67  92 121 152 185 223 267
#     4   9  18  31  45  64  93 126 157 191 232 280
#     4   9  18  33  52  71  92 119 150 185 227 271
#     4  10  21  35  50  69  93 121 154 188 223 266
#     4   8  14  26  44  64  84 110 148 190 232 272
#     4  10  20  32  47  69  95 121 150 184 223 269
#
# _framework density 17.076104999999998
#
# number of rings (size 3 to 8) (size 9 to 14) (size 15 to 20)
#    0.000    2.800    0.000    1.200    0.000    4.800 
#    0.000    2.667    1.467    0.000    0.000    0.000 
#    0.000    0.000    0.000    0.000    0.000    0.000 
#
# Total GULP energy -743673.532374 kJ/mol
# GULP energy per Si atom -12394.558873 kJ/mol
# Density = 1.703724 g / cm^3
# Si number density = 17.076105 Si / 1000 Ang^3
#
#
#
# Elastic Constant Matrix: (Units=GPa)
#
#
# Indices 1 2 3 4 5 6 
#
# 1 54.8146 41.3344 32.6572 0.0000 0.0000 0.0000
# 2 41.3344 134.8591 65.6512 0.0000 0.0000 0.0000
# 3 32.6572 65.6512 96.6332 0.0000 0.0000 0.0000
# 4 0.0000 0.0000 0.0000 16.8005 0.0000 0.0000
# 5 0.0000 0.0000 0.0000 0.0000 21.2690 0.0000
# 6 0.0000 0.0000 0.0000 0.0000 0.0000 23.1709
#
#
#
# Elastic Compliance Matrix: (Units=1/GPa)
#
#
# Indices 1 2 3 4 5 6 
#
# 1 0.025179 -0.005342 -0.004880 0.000000 0.000000 0.000000
# 2 -0.005342 0.012213 -0.006492 0.000000 0.000000 0.000000
# 3 -0.004880 -0.006492 0.016408 0.000000 0.000000 0.000000
# 4 0.000000 0.000000 0.000000 0.059522 0.000000 0.000000
# 5 0.000000 0.000000 0.000000 0.000000 0.047017 0.000000
# 6 0.000000 0.000000 0.000000 0.000000 0.000000 0.043158
#
#
# Mechanical properties :
#
#
# Convention : Reuss Voigt Hill
#
# Bulk Modulus (GPa) = 49.08636 62.84362 55.96499
# Shear Modulus (GPa) = 20.51583 22.02569 21.27076
#
# Velocity S-wave (km/s) = 3.46993 3.59535 3.53320
# Velocity P-wave (km/s) = 6.69791 7.35645 7.03489
#
# Compressibility (1/GPa) = 0.02037226
#
# Stress axis : x y z
#
# Youngs Moduli (GPa) = 39.71604 81.88197 60.94513
#
# Poissons Ratio (x) = 0.43738 0.29742
# Poissons Ratio (y) = 0.21215 0.39565
# Poissons Ratio (z) = 0.19382 0.53157
#
# Static dielectric constant tensor:
#      x y z
#    x 3.167940 0.000000 0.000000 
#    y 0.000000 3.467960 0.000000 
#    z 0.000000 0.000000 3.075030 
# 
# 
# High freq. dielectric constant tensor:
#      x y z
#    x 1.661260 0.000000 0.000000 
#    y 0.000000 1.661900 0.000000 
#    z 0.000000 0.000000 1.636920 
# 
# From -- ./inp_files/43937.got.cif
#   From: 2010.03.12/outbox.cif.g09.slc.cpg/sg67_22_cif.got.tgz:43937.got - 2010.04.10 22:41:39.
