data_PCOD8279303
_publ_section_title
;
Structure prediction by ZEFSAII (Michael W. Deem and Ramdas Pophale) SiO2 
 PCOD8279303
Probable space group: C M M A
;
_chemical_formula_sum "Si O2"
_cell_formula_units_Z 112
_cell_length_a 26.974583
_cell_length_b 14.653679
_cell_length_c 13.732389
_cell_angle_alpha 90.000000
_cell_angle_beta 90.000000
_cell_angle_gamma 90.000000
_cell_volume 5428.095885
_symmetry_space_group_name_H-M "C M M A"
_symmetry_group_IT_number 67
_symmetry_cell_setting 'orthorhombic'
loop_
_space_group_symop_operation_xyz
x,y,z
-x,1/2-y,z
x,-y,-z
-x,1/2+y,-z
-x,-y,-z
x,1/2+y,-z
-x,y,z
x,1/2-y,z
1/2+x,1/2+y,z
1/2-x,-y,z
1/2+x,1/2-y,-z
1/2-x,y,-z
1/2-x,1/2-y,-z
1/2+x,y,-z
1/2-x,1/2+y,z
1/2+x,-y,z
loop_
_atom_site_type_symbol
_atom_site_label
_atom_site_fract_x
_atom_site_fract_y
_atom_site_fract_z
Si Si1 0.286513 0.142502 0.715316
Si Si2 0.902869 0.146794 0.056908
Si Si3 0.444308 0.464591 0.763146
Si Si4 0.671859 0.351474 0.285086
Si Si5 0.864280 0.020435 0.388657
Si Si6 0.416109 0.648195 0.841999
Si Si7 0.207362 0.144878 0.068639
O O1 0.297691 0.250000 0.699521
O O2 0.228707 0.119082 0.714199
O O3 0.316849 0.085860 0.633284
O O4 0.300577 0.105087 0.822438
O O5 0.910023 0.250000 0.096132
O O6 0.921618 0.079224 0.139326
O O7 0.846234 0.130722 0.022196
O O8 0.930524 0.130536 0.954860
O O9 0.500000 0.428742 0.745572
O O10 0.411467 0.437053 0.669103
O O11 0.445247 0.573727 0.778346
O O12 0.667352 0.250000 0.328214
O O13 0.643475 0.417916 0.355601
O O14 0.643764 0.357930 0.179969
O O15 0.876110 0.000000 0.500000
O O16 0.434428 0.750000 0.812733
O O17 0.223477 0.250000 0.082816
O O18 0.250000 0.098266 0.000000
#
# Coordination Sequence:
#
# PCOD8279303 Si02
#       7
#    16  16  16  16  16  16  16
#     4  10  19  34  58  87 122 156 191 234 288 357
#     4  10  19  34  57  87 123 157 190 231 287 357
#     4  11  24  41  60  81 111 150 200 259 308 354
#     4   9  19  36  58  86 119 155 191 233 286 351
#     4  11  24  41  60  81 111 150 200 260 311 354
#     4   9  19  36  59  86 119 154 191 235 286 351
#     4   9  16  28  52  85 120 160 193 220 268 338
#
# _framework density 20.633386000000002
#
# number of rings (size 3 to 8) (size 9 to 14) (size 15 to 20)
#    0.000    2.143    1.429    1.714    0.000    7.143 
#    0.000    2.857    0.000    0.000    0.000    4.000 
#    0.000    0.000    0.000    0.000    0.000    0.000 
#
# Total GULP energy -693736.777267 kJ/mol
# GULP energy per Si atom -12388.156737 kJ/mol
# Density = 2.058642 g / cm^3
# Si number density = 20.633386 Si / 1000 Ang^3
#
#
#
# Elastic Constant Matrix: (Units=GPa)
#
#
# Indices 1 2 3 4 5 6 
#
# 1 98.8416 22.3076 28.8553 0.0000 0.0000 0.0000
# 2 22.3076 64.3031 28.3459 0.0000 0.0000 0.0000
# 3 28.8553 28.3459 103.8055 0.0000 0.0000 0.0000
# 4 0.0000 0.0000 0.0000 20.9634 0.0000 0.0000
# 5 0.0000 0.0000 0.0000 0.0000 14.3940 0.0000
# 6 0.0000 0.0000 0.0000 0.0000 0.0000 17.5723
#
#
#
# Elastic Compliance Matrix: (Units=1/GPa)
#
#
# Indices 1 2 3 4 5 6 
#
# 1 0.011476 -0.002927 -0.002391 0.000000 0.000000 0.000000
# 2 -0.002927 0.018426 -0.004218 0.000000 0.000000 0.000000
# 3 -0.002391 -0.004218 0.011450 0.000000 0.000000 0.000000
# 4 0.000000 0.000000 0.000000 0.047702 0.000000 0.000000
# 5 0.000000 0.000000 0.000000 0.000000 0.069474 0.000000
# 6 0.000000 0.000000 0.000000 0.000000 0.000000 0.056908
#
#
# Mechanical properties :
#
#
# Convention : Reuss Voigt Hill
#
# Bulk Modulus (GPa) = 44.88315 47.32977 46.10646
# Shear Modulus (GPa) = 20.66685 23.08203 21.87444
#
# Velocity S-wave (km/s) = 3.16827 3.34829 3.25952
# Velocity P-wave (km/s) = 5.93160 6.15924 6.04649
#
# Compressibility (1/GPa) = 0.02228008
#
# Stress axis : x y z
#
# Youngs Moduli (GPa) = 87.14020 54.27066 87.33852
#
# Poissons Ratio (x) = 0.15886 0.20879
# Poissons Ratio (y) = 0.25508 0.36838
# Poissons Ratio (z) = 0.20832 0.22891
#
# Static dielectric constant tensor:
#      x y z
#    x 3.675480 0.000000 0.000000 
#    y 0.000000 3.798320 0.000000 
#    z 0.000000 0.000000 3.569450 
# 
# 
# High freq. dielectric constant tensor:
#      x y z
#    x 1.795080 0.000000 0.000000 
#    y 0.000000 1.806730 0.000000 
#    z 0.000000 0.000000 1.780110 
# 
# From -- ./inp_files/23791.got.cif
#   From: 2010.03.12/outbox.cif.g09.slc.cpg/sg67_12_cif.got.tgz:23791.got - 2010.04.10 22:41:39.
