data_PCOD8279984
_publ_section_title
;
Structure prediction by ZEFSAII (Michael W. Deem and Ramdas Pophale) SiO2 
 PCOD8279984
Probable space group: C M M A
;
_chemical_formula_sum "Si O2"
_cell_formula_units_Z 112
_cell_length_a 17.100627
_cell_length_b 23.808322
_cell_length_c 15.074502
_cell_angle_alpha 90.000000
_cell_angle_beta 90.000000
_cell_angle_gamma 90.000000
_cell_volume 6137.391048
_symmetry_space_group_name_H-M "C M M A"
_symmetry_group_IT_number 67
_symmetry_cell_setting 'orthorhombic'
loop_
_space_group_symop_operation_xyz
x,y,z
-x,1/2-y,z
x,-y,-z
-x,1/2+y,-z
-x,-y,-z
x,1/2+y,-z
-x,y,z
x,1/2-y,z
1/2+x,1/2+y,z
1/2-x,-y,z
1/2+x,1/2-y,-z
1/2-x,y,-z
1/2-x,1/2-y,-z
1/2+x,y,-z
1/2-x,1/2+y,z
1/2+x,-y,z
loop_
_atom_site_type_symbol
_atom_site_label
_atom_site_fract_x
_atom_site_fract_y
_atom_site_fract_z
Si Si1 0.838559 0.090783 0.472165
Si Si2 0.337556 0.519402 0.296205
Si Si3 0.697245 0.312790 0.268552
Si Si4 0.713627 0.315450 0.906568
Si Si5 0.410535 0.090218 0.342737
Si Si6 0.364761 0.187197 0.647303
Si Si7 0.588614 0.619863 0.191531
O O1 0.750000 0.100536 0.500000
O O2 0.842854 0.043894 0.395785
O O3 0.888495 0.073266 0.557022
O O4 0.877336 0.148827 0.438662
O O5 0.250000 0.500000 0.274390
O O6 0.392806 0.465277 0.285495
O O7 0.365987 0.564424 0.224265
O O8 0.661311 0.250000 0.273045
O O9 0.721000 0.327875 0.167888
O O10 0.635768 0.356644 0.305688
O O11 0.773674 0.316429 0.328896
O O12 0.688972 0.250000 0.904128
O O13 0.636234 0.352973 0.890332
O O14 0.750000 0.333122 0.000000
O O15 0.500000 0.106630 0.334886
O O16 0.391681 0.250000 0.624153
O O17 0.415844 0.165062 0.729213
O O18 0.500000 0.605616 0.161449
#
# Coordination Sequence:
#
# PCOD8279984 Si02
#       7
#    16  16  16  16  16  16  16
#     4  11  20  33  51  76 103 140 188 234 271 317
#     4  11  21  36  58  76 102 144 191 230 274 333
#     4   9  18  36  57  77 103 139 179 219 267 331
#     4   9  18  35  61  89 113 142 181 216 258 329
#     4  12  24  35  51  77 107 142 183 232 279 320
#     4   9  18  32  53  74 101 145 187 219 264 327
#     4  10  20  34  54  84 117 142 175 229 285 327
#
# _framework density 18.248795999999999
#
# number of rings (size 3 to 8) (size 9 to 14) (size 15 to 20)
#    0.000    1.857    2.857    3.857    0.000    5.714 
#    0.000    0.714    0.000    6.429    0.000    5.000 
#    0.000    0.000    0.000    0.000    0.000    0.000 
#
# Total GULP energy -694374.710705 kJ/mol
# GULP energy per Si atom -12399.548405 kJ/mol
# Density = 1.820726 g / cm^3
# Si number density = 18.248796 Si / 1000 Ang^3
#
#
#
# Elastic Constant Matrix: (Units=GPa)
#
#
# Indices 1 2 3 4 5 6 
#
# 1 110.2233 46.2602 40.7783 0.0000 0.0000 0.0000
# 2 46.2602 113.9553 34.6409 0.0000 0.0000 0.0000
# 3 40.7783 34.6409 71.6288 0.0000 0.0000 0.0000
# 4 0.0000 0.0000 0.0000 21.1554 0.0000 0.0000
# 5 0.0000 0.0000 0.0000 0.0000 15.8820 0.0000
# 6 0.0000 0.0000 0.0000 0.0000 0.0000 13.9378
#
#
#
# Elastic Compliance Matrix: (Units=1/GPa)
#
#
# Indices 1 2 3 4 5 6 
#
# 1 0.012537 -0.003423 -0.005482 0.000000 0.000000 0.000000
# 2 -0.003423 0.011222 -0.003479 0.000000 0.000000 0.000000
# 3 -0.005482 -0.003479 0.018764 0.000000 0.000000 0.000000
# 4 0.000000 0.000000 0.000000 0.047269 0.000000 0.000000
# 5 0.000000 0.000000 0.000000 0.000000 0.062964 0.000000
# 6 0.000000 0.000000 0.000000 0.000000 0.000000 0.071747
#
#
# Mechanical properties :
#
#
# Convention : Reuss Voigt Hill
#
# Bulk Modulus (GPa) = 56.31765 59.90734 58.11249
# Shear Modulus (GPa) = 19.59317 21.80358 20.69837
#
# Velocity S-wave (km/s) = 3.28024 3.46033 3.37149
# Velocity P-wave (km/s) = 6.72865 6.99032 6.86073
#
# Compressibility (1/GPa) = 0.01775642
#
# Stress axis : x y z
#
# Youngs Moduli (GPa) = 79.76231 89.10754 53.29325
#
# Poissons Ratio (x) = 0.30502 0.29215
# Poissons Ratio (y) = 0.27303 0.18539
# Poissons Ratio (z) = 0.43726 0.30997
#
# Static dielectric constant tensor:
#      x y z
#    x 3.260180 0.000000 0.000000 
#    y 0.000000 3.557170 0.000000 
#    z 0.000000 0.000000 3.264420 
# 
# 
# High freq. dielectric constant tensor:
#      x y z
#    x 1.693370 0.000000 0.000000 
#    y 0.000000 1.721850 0.000000 
#    z 0.000000 0.000000 1.676640 
# 
# From -- ./inp_files/27699.got.cif
#   From: 2010.03.12/outbox.cif.g09.slc.cpg/sg67_14_cif.got.tgz:27699.got - 2010.04.10 22:41:39.
