data_PCOD8279654
_publ_section_title
;
Structure prediction by ZEFSAII (Michael W. Deem and Ramdas Pophale) SiO2 
 PCOD8279654
Probable space group: C M M A
;
_chemical_formula_sum "Si O2"
_cell_formula_units_Z 64
_cell_length_a 8.864497
_cell_length_b 18.946469
_cell_length_c 20.819323
_cell_angle_alpha 90.000000
_cell_angle_beta 90.000000
_cell_angle_gamma 90.000000
_cell_volume 3496.624402
_symmetry_space_group_name_H-M "C M M A"
_symmetry_group_IT_number 67
_symmetry_cell_setting 'orthorhombic'
loop_
_space_group_symop_operation_xyz
x,y,z
-x,1/2-y,z
x,-y,-z
-x,1/2+y,-z
-x,-y,-z
x,1/2+y,-z
-x,y,z
x,1/2-y,z
1/2+x,1/2+y,z
1/2-x,-y,z
1/2+x,1/2-y,-z
1/2-x,y,-z
1/2-x,1/2-y,-z
1/2+x,y,-z
1/2-x,1/2+y,z
1/2+x,-y,z
loop_
_atom_site_type_symbol
_atom_site_label
_atom_site_fract_x
_atom_site_fract_y
_atom_site_fract_z
Si Si1 0.678910 0.925831 0.067448
Si Si2 0.168781 0.834111 0.701291
Si Si3 0.322605 0.669943 0.437927
Si Si4 0.671696 0.333462 0.171855
O O1 0.500000 0.933249 0.060205
O O2 0.718213 0.867303 0.119805
O O3 0.750000 0.000000 0.089384
O O4 0.750000 0.901575 0.000000
O O5 0.166281 0.750000 0.696742
O O6 0.222785 0.864140 0.631416
O O7 0.280762 0.860095 0.757176
O O8 0.000000 0.861338 0.717197
O O9 0.500000 0.667014 0.445615
O O10 0.262024 0.750000 0.437862
O O11 0.250000 0.630165 0.500000
O O12 0.500000 0.356955 0.159397
O O13 0.691427 0.250000 0.166292
#
# Coordination Sequence:
#
# PCOD8279654 Si02
#       4
#    16  16  16  16
#     4  11  22  38  58  77 100 128 160 198 241 289
#     4   8  14  25  39  57  85 121 158 196 240 286
#     4   8  13  20  31  49  76 112 153 193 233 280
#     4  10  20  33  50  74 102 131 165 203 243 289
#
# _framework density 18.303366
#
# number of rings (size 3 to 8) (size 9 to 14) (size 15 to 20)
#    0.000    2.750    0.000    5.250    0.000    3.000 
#    0.000    5.000    0.000    0.000    0.000    0.000 
#    0.000    1.000    0.000   10.500    0.000   15.250 
#
# Total GULP energy -396555.012985 kJ/mol
# GULP energy per Si atom -12392.344156 kJ/mol
# Density = 1.826171 g / cm^3
# Si number density = 18.303366 Si / 1000 Ang^3
#
#
#
# Elastic Constant Matrix: (Units=GPa)
#
#
# Indices 1 2 3 4 5 6 
#
# 1 109.6781 23.9474 63.4720 0.0000 0.0000 0.0000
# 2 23.9474 21.0993 35.4968 0.0000 0.0000 0.0000
# 3 63.4720 35.4968 152.4293 0.0000 0.0000 0.0000
# 4 0.0000 0.0000 0.0000 -1.0480 0.0000 0.0000
# 5 0.0000 0.0000 0.0000 0.0000 38.7684 0.0000
# 6 0.0000 0.0000 0.0000 0.0000 0.0000 17.8453
#
#
#
# Elastic Compliance Matrix: (Units=1/GPa)
#
#
# Indices 1 2 3 4 5 6 
#
# 1 0.013038 -0.009313 -0.003260 0.000000 0.000000 0.000000
# 2 -0.009313 0.084576 -0.015818 0.000000 0.000000 0.000000
# 3 -0.003260 -0.015818 0.011602 0.000000 0.000000 0.000000
# 4 0.000000 0.000000 0.000000 -0.954202 0.000000 0.000000
# 5 0.000000 0.000000 0.000000 0.000000 0.025794 0.000000
# 6 0.000000 0.000000 0.000000 0.000000 0.000000 0.056037
#
#
# Mechanical properties :
#
#
# Convention : Reuss Voigt Hill
#
# Bulk Modulus (GPa) = 19.07159 58.78211 38.92685
# Shear Modulus (GPa) = -7.25799 21.79916 7.27059
#
# Velocity S-wave (km/s) = -1.99349 3.45482 1.99522
# Velocity P-wave (km/s) = 2.26797 6.93538 5.15961
#
# Compressibility (1/GPa) = 0.05243401
#
# Stress axis : x y z
#
# Youngs Moduli (GPa) = 76.70072 11.82368 86.19539
#
# Poissons Ratio (x) = 0.11011 0.28102
# Poissons Ratio (y) = 0.71428 1.36342
# Poissons Ratio (z) = 0.25007 0.18702
#
# Static dielectric constant tensor:
#      x y z
#    x 3.397050 0.000000 0.000000 
#    y 0.000000 2.751340 0.000000 
#    z 0.000000 0.000000 3.844820 
# 
# 
# High freq. dielectric constant tensor:
#      x y z
#    x 1.713050 0.000000 0.000000 
#    y 0.000000 1.634360 0.000000 
#    z 0.000000 0.000000 1.735410 
# 
# From -- ./inp_files/31745.got.cif
#   From: 2010.03.12/outbox.cif.g09.slc.cpg/sg67_16_cif.got.tgz:31745.got - 2010.04.10 22:41:39.
