data_PCOD8279331
_publ_section_title
;
Structure prediction by ZEFSAII (Michael W. Deem and Ramdas Pophale) SiO2 
 PCOD8279331
Probable space group: C M M A
;
_chemical_formula_sum "Si O2"
_cell_formula_units_Z 80
_cell_length_a 25.586164
_cell_length_b 17.416928
_cell_length_c 10.143839
_cell_angle_alpha 90.000000
_cell_angle_beta 90.000000
_cell_angle_gamma 90.000000
_cell_volume 4520.423077
_symmetry_space_group_name_H-M "C M M A"
_symmetry_group_IT_number 67
_symmetry_cell_setting 'orthorhombic'
loop_
_space_group_symop_operation_xyz
x,y,z
-x,1/2-y,z
x,-y,-z
-x,1/2+y,-z
-x,-y,-z
x,1/2+y,-z
-x,y,z
x,1/2-y,z
1/2+x,1/2+y,z
1/2-x,-y,z
1/2+x,1/2-y,-z
1/2-x,y,-z
1/2-x,1/2-y,-z
1/2+x,y,-z
1/2-x,1/2+y,z
1/2+x,-y,z
loop_
_atom_site_type_symbol
_atom_site_label
_atom_site_fract_x
_atom_site_fract_y
_atom_site_fract_z
Si Si1 0.408079 0.659727 0.455043
Si Si2 0.060289 0.337224 0.973384
Si Si3 0.307960 0.410161 0.473143
Si Si4 0.058641 0.562943 0.779356
Si Si5 0.390942 0.095983 0.277098
O O1 0.416770 0.750000 0.450847
O O2 0.347043 0.636565 0.429896
O O3 0.442917 0.621345 0.342763
O O4 0.425529 0.626187 0.598319
O O5 0.067949 0.250000 0.020578
O O6 0.097631 0.351772 0.848779
O O7 0.000000 0.352960 0.934508
O O8 0.078454 0.392588 0.091021
O O9 0.310820 0.500000 0.500000
O O10 0.250000 0.377811 0.500000
O O11 0.329513 0.397388 0.322208
O O12 0.096553 0.492152 0.753760
O O13 0.000000 0.532084 0.802193
#
# Coordination Sequence:
#
# PCOD8279331 Si02
#       5
#    16  16  16  16  16
#     4  10  20  34  52  81 109 140 180 226 276 318
#     4  10  21  35  52  77 112 150 183 220 269 322
#     4   9  18  36  58  81 106 132 174 226 279 325
#     4  11  21  35  52  76 111 152 186 216 263 323
#     4  10  19  35  54  81 102 139 184 230 264 318
#
# _framework density 17.697458999999998
#
# number of rings (size 3 to 8) (size 9 to 14) (size 15 to 20)
#    1.200    0.800    2.000    3.000    0.000    5.600 
#    0.000    0.000    0.000    1.200    0.000    2.800 
#    0.000    0.000    0.000    0.000    0.000    0.000 
#
# Total GULP energy -495641.327294 kJ/mol
# GULP energy per Si atom -12391.033182 kJ/mol
# Density = 1.765718 g / cm^3
# Si number density = 17.697459 Si / 1000 Ang^3
#
#
#
# Elastic Constant Matrix: (Units=GPa)
#
#
# Indices 1 2 3 4 5 6 
#
# 1 73.0377 16.6771 25.8602 0.0000 0.0000 0.0000
# 2 16.6771 89.6008 19.2935 0.0000 0.0000 0.0000
# 3 25.8602 19.2935 91.7854 0.0000 0.0000 0.0000
# 4 0.0000 0.0000 0.0000 33.9596 0.0000 0.0000
# 5 0.0000 0.0000 0.0000 0.0000 23.6979 0.0000
# 6 0.0000 0.0000 0.0000 0.0000 0.0000 20.3614
#
#
#
# Elastic Compliance Matrix: (Units=1/GPa)
#
#
# Indices 1 2 3 4 5 6 
#
# 1 0.015558 -0.002044 -0.003954 0.000000 0.000000 0.000000
# 2 -0.002044 0.011958 -0.001938 0.000000 0.000000 0.000000
# 3 -0.003954 -0.001938 0.012416 0.000000 0.000000 0.000000
# 4 0.000000 0.000000 0.000000 0.029447 0.000000 0.000000
# 5 0.000000 0.000000 0.000000 0.000000 0.042198 0.000000
# 6 0.000000 0.000000 0.000000 0.000000 0.000000 0.049113
#
#
# Mechanical properties :
#
#
# Convention : Reuss Voigt Hill
#
# Bulk Modulus (GPa) = 41.56075 42.00949 41.78512
# Shear Modulus (GPa) = 27.08820 28.44331 27.76575
#
# Velocity S-wave (km/s) = 3.91657 4.01334 3.96525
# Velocity P-wave (km/s) = 6.63232 6.72792 6.68029
#
# Compressibility (1/GPa) = 0.02406117
#
# Stress axis : x y z
#
# Youngs Moduli (GPa) = 64.27453 83.62341 80.53978
#
# Poissons Ratio (x) = 0.17096 0.31843
# Poissons Ratio (y) = 0.13141 0.15606
# Poissons Ratio (z) = 0.25412 0.16203
#
# Static dielectric constant tensor:
#      x y z
#    x 3.157790 0.000000 0.000000 
#    y 0.000000 3.243830 0.000000 
#    z 0.000000 0.000000 3.251470 
# 
# 
# High freq. dielectric constant tensor:
#      x y z
#    x 1.649000 0.000000 0.000000 
#    y 0.000000 1.696570 0.000000 
#    z 0.000000 0.000000 1.677920 
# 
# From -- ./inp_files/22769.got.cif
#   From: 2010.03.12/outbox.cif.g09.slc.cpg/sg67_12_cif.got.tgz:22769.got - 2010.04.10 22:41:39.
