data_PCOD8279379
_publ_section_title
;
Structure prediction by ZEFSAII (Michael W. Deem and Ramdas Pophale) SiO2 
 PCOD8279379
Probable space group: C M M A
;
_chemical_formula_sum "Si O2"
_cell_formula_units_Z 96
_cell_length_a 16.797579
_cell_length_b 23.919139
_cell_length_c 11.860323
_cell_angle_alpha 90.000000
_cell_angle_beta 90.000000
_cell_angle_gamma 90.000000
_cell_volume 4765.283592
_symmetry_space_group_name_H-M "C M M A"
_symmetry_group_IT_number 67
_symmetry_cell_setting 'orthorhombic'
loop_
_space_group_symop_operation_xyz
x,y,z
-x,1/2-y,z
x,-y,-z
-x,1/2+y,-z
-x,-y,-z
x,1/2+y,-z
-x,y,z
x,1/2-y,z
1/2+x,1/2+y,z
1/2-x,-y,z
1/2+x,1/2-y,-z
1/2-x,y,-z
1/2-x,1/2-y,-z
1/2+x,y,-z
1/2-x,1/2+y,z
1/2+x,-y,z
loop_
_atom_site_type_symbol
_atom_site_label
_atom_site_fract_x
_atom_site_fract_y
_atom_site_fract_z
Si Si1 0.670271 0.360424 0.576592
Si Si2 0.596107 0.750000 0.318704
Si Si3 0.155107 0.365105 0.995315
Si Si4 0.346509 0.446693 0.195733
Si Si5 0.668303 0.431332 0.798932
Si Si6 0.093179 0.250000 0.058403
Si Si7 0.590976 0.554872 0.566306
O O1 0.750000 0.353433 0.500000
O O2 0.636585 0.302150 0.619776
O O3 0.683076 0.402846 0.679349
O O4 0.599403 0.389730 0.508019
O O5 0.500000 0.750000 0.331738
O O6 0.623912 0.750000 0.188029
O O7 0.124192 0.390142 0.114258
O O8 0.122600 0.302648 0.986058
O O9 0.250000 0.361876 0.000000
O O10 0.116308 0.402774 0.894366
O O11 0.381544 0.510386 0.196856
O O12 0.255356 0.447382 0.157693
O O13 0.359087 0.427851 0.323688
O O14 0.000000 0.250000 0.062144
O O15 0.625054 0.500000 0.500000
O O16 0.500000 0.543805 0.599356
#
# Coordination Sequence:
#
# PCOD8279379 Si02
#       7
#    16   8  16  16  16   8  16
#     4  12  22  39  66  94 120 163 213 262 307 370
#     4  11  25  44  63  87 129 166 207 268 320 374
#     4  10  21  39  62  91 119 159 207 261 312 367
#     4  10  20  36  60  91 125 161 191 255 318 370
#     4  10  19  35  62  93 123 151 205 255 310 373
#     4  11  23  40  63  85 117 168 215 262 316 372
#     4  11  23  37  57  89 128 167 203 245 313 382
#
# _framework density 20.145706000000001
#
# number of rings (size 3 to 8) (size 9 to 14) (size 15 to 20)
#    0.000    1.333    5.000    1.500    0.000    3.000 
#    0.000    1.667    0.000    3.000    0.000    0.000 
#    0.000    0.000    0.000    0.000    0.000    0.000 
#
# Total GULP energy -594647.826253 kJ/mol
# GULP energy per Si atom -12388.496380 kJ/mol
# Density = 2.009985 g / cm^3
# Si number density = 20.145706 Si / 1000 Ang^3
#
#
#
# Elastic Constant Matrix: (Units=GPa)
#
#
# Indices 1 2 3 4 5 6 
#
# 1 44.0221 31.9718 26.4220 0.0000 0.0000 0.0000
# 2 31.9718 180.1631 74.6290 0.0000 0.0000 0.0000
# 3 26.4220 74.6290 135.9043 0.0000 0.0000 0.0000
# 4 0.0000 0.0000 0.0000 45.8062 0.0000 0.0000
# 5 0.0000 0.0000 0.0000 0.0000 13.7106 0.0000
# 6 0.0000 0.0000 0.0000 0.0000 0.0000 19.5426
#
#
#
# Elastic Compliance Matrix: (Units=1/GPa)
#
#
# Indices 1 2 3 4 5 6 
#
# 1 0.027252 -0.003419 -0.003421 0.000000 0.000000 0.000000
# 2 -0.003419 0.007614 -0.003516 0.000000 0.000000 0.000000
# 3 -0.003421 -0.003516 0.009954 0.000000 0.000000 0.000000
# 4 0.000000 0.000000 0.000000 0.021831 0.000000 0.000000
# 5 0.000000 0.000000 0.000000 0.000000 0.072936 0.000000
# 6 0.000000 0.000000 0.000000 0.000000 0.000000 0.051170
#
#
# Mechanical properties :
#
#
# Convention : Reuss Voigt Hill
#
# Bulk Modulus (GPa) = 41.48033 69.57056 55.52544
# Shear Modulus (GPa) = 22.77842 30.94964 26.86403
#
# Velocity S-wave (km/s) = 3.36621 3.92381 3.65566
# Velocity P-wave (km/s) = 5.97858 7.42543 6.74093
#
# Compressibility (1/GPa) = 0.02410781
#
# Stress axis : x y z
#
# Youngs Moduli (GPa) = 36.69423 131.33988 100.46194
#
# Poissons Ratio (x) = 0.44908 0.34365
# Poissons Ratio (y) = 0.12547 0.35325
# Poissons Ratio (z) = 0.12552 0.46182
#
# Static dielectric constant tensor:
#      x y z
#    x 3.257440 0.000000 0.000000 
#    y 0.000000 4.102780 0.000000 
#    z 0.000000 0.000000 3.812000 
# 
# 
# High freq. dielectric constant tensor:
#      x y z
#    x 1.754340 0.000000 0.000000 
#    y 0.000000 1.798890 0.000000 
#    z 0.000000 0.000000 1.795100 
# 
# From -- ./inp_files/19726.got.cif
#   From: 2010.03.12/outbox.cif.g09.slc.cpg/sg67_10_cif.got.tgz:19726.got - 2010.04.10 22:41:39.
