data_PCOD8279872
_publ_section_title
;
Structure prediction by ZEFSAII (Michael W. Deem and Ramdas Pophale) SiO2 
 PCOD8279872
Probable space group: C M M A
;
_chemical_formula_sum "Si O2"
_cell_formula_units_Z 96
_cell_length_a 8.939324
_cell_length_b 28.907619
_cell_length_c 20.633995
_cell_angle_alpha 90.000000
_cell_angle_beta 90.000000
_cell_angle_gamma 90.000000
_cell_volume 5332.124993
_symmetry_space_group_name_H-M "C M M A"
_symmetry_group_IT_number 67
_symmetry_cell_setting 'orthorhombic'
loop_
_space_group_symop_operation_xyz
x,y,z
-x,1/2-y,z
x,-y,-z
-x,1/2+y,-z
-x,-y,-z
x,1/2+y,-z
-x,y,z
x,1/2-y,z
1/2+x,1/2+y,z
1/2-x,-y,z
1/2+x,1/2-y,-z
1/2-x,y,-z
1/2-x,1/2-y,-z
1/2+x,y,-z
1/2-x,1/2+y,z
1/2+x,-y,z
loop_
_atom_site_type_symbol
_atom_site_label
_atom_site_fract_x
_atom_site_fract_y
_atom_site_fract_z
Si Si1 0.672400 0.896658 0.307271
Si Si2 0.176878 0.451278 0.433766
Si Si3 0.676826 0.950268 0.807845
Si Si4 0.676670 0.604969 0.934597
Si Si5 0.670919 0.699201 0.255950
Si Si6 0.323190 0.300657 0.121433
O O1 0.500000 0.908570 0.291694
O O2 0.717077 0.914831 0.377960
O O3 0.773953 0.919924 0.253021
O O4 0.701266 0.841233 0.308146
O O5 0.250000 0.500000 0.414233
O O6 0.250000 0.432472 0.500000
O O7 0.000000 0.457709 0.443072
O O8 0.500000 0.955643 0.805853
O O9 0.730357 0.925942 0.874217
O O10 0.750000 0.000000 0.803173
O O11 0.500000 0.602694 0.942125
O O12 0.734267 0.657937 0.924445
O O13 0.750000 0.585212 0.000000
O O14 0.500000 0.697602 0.232201
O O15 0.708018 0.750000 0.286163
O O16 0.771525 0.689299 0.193943
O O17 0.500000 0.301503 0.123133
O O18 0.264696 0.250000 0.097303
#
# Coordination Sequence:
#
# PCOD8279872 Si02
#       6
#    16  16  16  16  16  16
#     4  10  20  34  55  82 109 138 173 213 257 304
#     4  10  20  34  52  77 108 141 175 211 254 304
#     4  11  23  38  55  77 102 132 173 217 264 312
#     4  10  22  37  52  73 100 134 172 212 260 312
#     4   9  17  30  51  79 107 135 169 209 254 303
#     4   9  17  32  52  74 102 132 165 209 259 310
#
# _framework density 18.004079000000001
#
# number of rings (size 3 to 8) (size 9 to 14) (size 15 to 20)
#    0.000    2.167    1.667    2.000    0.000    5.333 
#    0.000    1.667    0.000    0.500    0.000    0.000 
#    0.000    0.000    0.000    0.000    0.000    0.667 
#
# Total GULP energy -595064.757741 kJ/mol
# GULP energy per Si atom -12397.182453 kJ/mol
# Density = 1.796310 g / cm^3
# Si number density = 18.004079 Si / 1000 Ang^3
#
#
#
# Elastic Constant Matrix: (Units=GPa)
#
#
# Indices 1 2 3 4 5 6 
#
# 1 35.8643 30.1152 30.3995 0.0000 0.0000 0.0000
# 2 30.1152 121.0715 64.4829 0.0000 0.0000 0.0000
# 3 30.3995 64.4829 115.6198 0.0000 0.0000 0.0000
# 4 0.0000 0.0000 0.0000 28.7487 0.0000 0.0000
# 5 0.0000 0.0000 0.0000 0.0000 27.6547 0.0000
# 6 0.0000 0.0000 0.0000 0.0000 0.0000 10.8243
#
#
#
# Elastic Compliance Matrix: (Units=1/GPa)
#
#
# Indices 1 2 3 4 5 6 
#
# 1 0.038705 -0.005985 -0.006839 0.000000 0.000000 0.000000
# 2 -0.005985 0.012675 -0.005496 0.000000 0.000000 0.000000
# 3 -0.006839 -0.005496 0.013512 0.000000 0.000000 0.000000
# 4 0.000000 0.000000 0.000000 0.034784 0.000000 0.000000
# 5 0.000000 0.000000 0.000000 0.000000 0.036160 0.000000
# 6 0.000000 0.000000 0.000000 0.000000 0.000000 0.092385
#
#
# Mechanical properties :
#
#
# Convention : Reuss Voigt Hill
#
# Bulk Modulus (GPa) = 35.39343 58.06121 46.72732
# Shear Modulus (GPa) = 18.22966 23.28275 20.75620
#
# Velocity S-wave (km/s) = 3.18548 3.60000 3.39906
# Velocity P-wave (km/s) = 5.76463 7.04265 6.43544
#
# Compressibility (1/GPa) = 0.02825383
#
# Stress axis : x y z
#
# Youngs Moduli (GPa) = 25.83635 78.89382 74.00832
#
# Poissons Ratio (x) = 0.47220 0.50611
# Poissons Ratio (y) = 0.15464 0.40671
# Poissons Ratio (z) = 0.17668 0.43356
#
# Static dielectric constant tensor:
#      x y z
#    x 3.312290 0.000000 0.000000 
#    y 0.000000 3.716590 0.000000 
#    z 0.000000 0.000000 3.237420 
# 
# 
# High freq. dielectric constant tensor:
#      x y z
#    x 1.697360 0.000000 0.000000 
#    y 0.000000 1.707210 0.000000 
#    z 0.000000 0.000000 1.677070 
# 
# From -- ./inp_files/37206.got.cif
#   From: 2010.03.12/outbox.cif.g09.slc.cpg/sg67_19_cif.got.tgz:37206.got - 2010.04.10 22:41:39.
