data_PCOD8279033
_publ_section_title
;
Structure prediction by ZEFSAII (Michael W. Deem and Ramdas Pophale) SiO2 
 PCOD8279033
Probable space group: C M M A
;
_chemical_formula_sum "Si O2"
_cell_formula_units_Z 72
_cell_length_a 15.404581
_cell_length_b 8.947991
_cell_length_c 24.915466
_cell_angle_alpha 90.000000
_cell_angle_beta 90.000000
_cell_angle_gamma 90.000000
_cell_volume 3434.349133
_symmetry_space_group_name_H-M "C M M A"
_symmetry_group_IT_number 67
_symmetry_cell_setting 'orthorhombic'
loop_
_space_group_symop_operation_xyz
x,y,z
-x,1/2-y,z
x,-y,-z
-x,1/2+y,-z
-x,-y,-z
x,1/2+y,-z
-x,y,z
x,1/2-y,z
1/2+x,1/2+y,z
1/2-x,-y,z
1/2+x,1/2-y,-z
1/2-x,y,-z
1/2-x,1/2-y,-z
1/2+x,y,-z
1/2-x,1/2+y,z
1/2+x,-y,z
loop_
_atom_site_type_symbol
_atom_site_label
_atom_site_fract_x
_atom_site_fract_y
_atom_site_fract_z
Si Si1 0.896639 0.581508 0.341140
Si Si2 0.500000 0.426215 0.057501
Si Si3 0.896395 0.081241 0.446901
Si Si4 0.837110 0.927082 0.127520
Si Si5 0.897612 0.922824 0.766344
O O1 0.860735 0.750000 0.337216
O O2 0.859640 0.504845 0.394901
O O3 0.863851 0.486859 0.290222
O O4 0.000000 0.581874 0.342868
O O5 0.500000 0.250000 0.050246
O O6 0.415793 0.480592 0.089995
O O7 0.500000 0.500000 0.000000
O O8 0.861246 0.250000 0.446040
O O9 0.000000 0.079550 0.446640
O O10 0.860473 0.000000 0.500000
O O11 0.828634 0.750000 0.128648
O O12 0.750000 0.000000 0.103314
O O13 0.850277 0.985066 0.187584
O O14 0.871423 0.750000 0.770539
O O15 0.000000 0.946233 0.772290
#
# Coordination Sequence:
#
# PCOD8279033 Si02
#       5
#    16   8  16  16  16
#     4   9  16  25  39  61  91 131 178 230 288 351
#     4  10  24  44  68  94 128 166 205 248 297 350
#     4   9  15  22  32  49  79 121 171 227 286 350
#     4  11  23  41  63  92 125 162 204 250 300 355
#     4  10  19  32  53  80 110 148 192 241 296 356
#
# _framework density 20.964672
#
# number of rings (size 3 to 8) (size 9 to 14) (size 15 to 20)
#    0.000    2.222    1.111    2.667    0.000    8.444 
#    0.000    2.222    0.000    0.000    0.000    0.000 
#    0.000    0.889    0.000    8.889    0.000   13.778 
#
# Total GULP energy -446512.333546 kJ/mol
# GULP energy per Si atom -12403.120376 kJ/mol
# Density = 2.091696 g / cm^3
# Si number density = 20.964672 Si / 1000 Ang^3
#
#
#
# Elastic Constant Matrix: (Units=GPa)
#
#
# Indices 1 2 3 4 5 6 
#
# 1 76.9520 42.7084 53.5127 0.0000 0.0000 0.0000
# 2 42.7084 135.0587 61.4822 0.0000 0.0000 0.0000
# 3 53.5127 61.4822 168.7953 0.0000 0.0000 0.0000
# 4 0.0000 0.0000 0.0000 46.5002 0.0000 0.0000
# 5 0.0000 0.0000 0.0000 0.0000 -0.5012 0.0000
# 6 0.0000 0.0000 0.0000 0.0000 0.0000 22.1853
#
#
#
# Elastic Compliance Matrix: (Units=1/GPa)
#
#
# Indices 1 2 3 4 5 6 
#
# 1 0.018115 -0.003733 -0.004383 0.000000 0.000000 0.000000
# 2 -0.003733 0.009645 -0.002330 0.000000 0.000000 0.000000
# 3 -0.004383 -0.002330 0.008163 0.000000 0.000000 0.000000
# 4 0.000000 0.000000 0.000000 0.021505 0.000000 0.000000
# 5 0.000000 0.000000 0.000000 0.000000 -1.995062 0.000000
# 6 0.000000 0.000000 0.000000 0.000000 0.000000 0.045075
#
#
# Mechanical properties :
#
#
# Convention : Reuss Voigt Hill
#
# Bulk Modulus (GPa) = 66.52985 77.35695 71.94340
# Shear Modulus (GPa) = -2.67859 28.51036 12.91589
#
# Velocity S-wave (km/s) = -1.13157 3.69172 2.48479
# Velocity P-wave (km/s) = 5.48597 7.42634 6.52864
#
# Compressibility (1/GPa) = 0.01503085
#
# Stress axis : x y z
#
# Youngs Moduli (GPa) = 55.20272 103.67875 122.51109
#
# Poissons Ratio (x) = 0.38703 0.53700
# Poissons Ratio (y) = 0.20607 0.28542
# Poissons Ratio (z) = 0.24197 0.24154
#
# Static dielectric constant tensor:
#      x y z
#    x 3.599800 0.000000 0.000000 
#    y 0.000000 3.894180 0.000000 
#    z 0.000000 0.000000 3.845130 
# 
# 
# High freq. dielectric constant tensor:
#      x y z
#    x 1.790070 0.000000 0.000000 
#    y 0.000000 1.832120 0.000000 
#    z 0.000000 0.000000 1.825520 
# 
# From -- ./inp_files/40519.got.cif
#   From: 2010.03.12/outbox.cif.g09.slc.cpg/sg67_21_cif.got.tgz:40519.got - 2010.04.10 22:41:39.
