data_PCOD8279724
_publ_section_title
;
Structure prediction by ZEFSAII (Michael W. Deem and Ramdas Pophale) SiO2 
 PCOD8279724
Probable space group: C M M A
;
_chemical_formula_sum "Si O2"
_cell_formula_units_Z 96
_cell_length_a 8.754875
_cell_length_b 23.588613
_cell_length_c 25.741578
_cell_angle_alpha 90.000000
_cell_angle_beta 90.000000
_cell_angle_gamma 90.000000
_cell_volume 5316.031202
_symmetry_space_group_name_H-M "C M M A"
_symmetry_group_IT_number 67
_symmetry_cell_setting 'orthorhombic'
loop_
_space_group_symop_operation_xyz
x,y,z
-x,1/2-y,z
x,-y,-z
-x,1/2+y,-z
-x,-y,-z
x,1/2+y,-z
-x,y,z
x,1/2-y,z
1/2+x,1/2+y,z
1/2-x,-y,z
1/2+x,1/2-y,-z
1/2-x,y,-z
1/2-x,1/2-y,-z
1/2+x,y,-z
1/2-x,1/2+y,z
1/2+x,-y,z
loop_
_atom_site_type_symbol
_atom_site_label
_atom_site_fract_x
_atom_site_fract_y
_atom_site_fract_z
Si Si1 0.180803 0.250000 0.716687
Si Si2 0.181797 0.131157 0.555278
Si Si3 0.819277 0.061012 0.352714
Si Si4 0.678590 0.061961 0.163999
Si Si5 0.320598 0.864995 0.253397
Si Si6 0.676024 0.061299 0.049229
Si Si7 0.181141 0.250000 0.599729
O O1 0.239289 0.195371 0.746912
O O2 0.247471 0.250000 0.658043
O O3 0.000000 0.250000 0.716130
O O4 0.250000 0.114396 0.500000
O O5 0.243598 0.085440 0.595605
O O6 0.241272 0.194069 0.570337
O O7 0.000000 0.128313 0.553873
O O8 0.773051 0.100852 0.304821
O O9 0.000000 0.056576 0.360132
O O10 0.750000 0.000000 0.340534
O O11 0.500000 0.057896 0.177955
O O12 0.764909 0.102856 0.202745
O O13 0.702916 0.088702 0.106115
O O14 0.750000 0.000000 0.168901
O O15 0.500000 0.856013 0.250535
O O16 0.500000 0.054870 0.036987
O O17 0.750000 0.000000 0.051331
O O18 0.750000 0.095621 0.000000
O O19 0.000000 0.250000 0.601562
#
# Coordination Sequence:
#
# PCOD8279724 Si02
#       7
#     8  16  16  16  16  16   8
#     4  11  21  38  62  84 108 141 178 219 271 324
#     4  11  22  39  60  85 112 140 176 216 264 319
#     4  11  24  40  58  81 108 142 179 219 265 318
#     4  10  20  33  51  78 112 150 188 227 272 324
#     4  11  23  38  57  83 111 141 181 226 273 323
#     4   9  16  26  43  69 103 143 185 225 268 316
#     4   9  19  36  60  86 109 138 172 212 263 316
#
# _framework density 18.058585000000001
#
# number of rings (size 3 to 8) (size 9 to 14) (size 15 to 20)
#    0.000    1.667    1.667    4.000    0.000    5.667 
#    0.000    2.917    0.000    0.000    0.000    0.583 
#    0.000    0.000    0.000    0.000    0.000    0.000 
#
# Total GULP energy -595188.707113 kJ/mol
# GULP energy per Si atom -12399.764732 kJ/mol
# Density = 1.801748 g / cm^3
# Si number density = 18.058585 Si / 1000 Ang^3
#
#
#
# Elastic Constant Matrix: (Units=GPa)
#
#
# Indices 1 2 3 4 5 6 
#
# 1 89.3979 40.1408 50.5230 0.0000 0.0000 0.0000
# 2 40.1408 102.8250 47.1478 0.0000 0.0000 0.0000
# 3 50.5230 47.1478 137.9349 0.0000 0.0000 0.0000
# 4 0.0000 0.0000 0.0000 9.4553 0.0000 0.0000
# 5 0.0000 0.0000 0.0000 0.0000 31.6965 0.0000
# 6 0.0000 0.0000 0.0000 0.0000 0.0000 27.6874
#
#
#
# Elastic Compliance Matrix: (Units=1/GPa)
#
#
# Indices 1 2 3 4 5 6 
#
# 1 0.015418 -0.004067 -0.004257 0.000000 0.000000 0.000000
# 2 -0.004067 0.012605 -0.002819 0.000000 0.000000 0.000000
# 3 -0.004257 -0.002819 0.009773 0.000000 0.000000 0.000000
# 4 0.000000 0.000000 0.000000 0.105761 0.000000 0.000000
# 5 0.000000 0.000000 0.000000 0.000000 0.031549 0.000000
# 6 0.000000 0.000000 0.000000 0.000000 0.000000 0.036118
#
#
# Mechanical properties :
#
#
# Convention : Reuss Voigt Hill
#
# Bulk Modulus (GPa) = 64.47496 67.30898 65.89197
# Shear Modulus (GPa) = 20.94850 26.59090 23.76970
#
# Velocity S-wave (km/s) = 3.40962 3.84145 3.63196
# Velocity P-wave (km/s) = 7.16110 7.55177 7.35903
#
# Compressibility (1/GPa) = 0.01550990
#
# Stress axis : x y z
#
# Youngs Moduli (GPa) = 64.85944 79.33048 102.32537
#
# Poissons Ratio (x) = 0.32262 0.43562
# Poissons Ratio (y) = 0.26377 0.28847
# Poissons Ratio (z) = 0.27612 0.22364
#
# Static dielectric constant tensor:
#      x y z
#    x 3.414910 0.000000 0.000000 
#    y 0.000000 3.153710 0.000000 
#    z 0.000000 0.000000 3.944050 
# 
# 
# High freq. dielectric constant tensor:
#      x y z
#    x 1.712260 0.000000 0.000000 
#    y 0.000000 1.671310 0.000000 
#    z 0.000000 0.000000 1.714080 
# 
# From -- ./inp_files/40833.got.cif
#   From: 2010.03.12/outbox.cif.g09.slc.cpg/sg67_21_cif.got.tgz:40833.got - 2010.04.10 22:41:39.
