data_PCOD8279873
_publ_section_title
;
Structure prediction by ZEFSAII (Michael W. Deem and Ramdas Pophale) SiO2 
 PCOD8279873
Probable space group: C M M A
;
_chemical_formula_sum "Si O2"
_cell_formula_units_Z 116
_cell_length_a 25.816946
_cell_length_b 9.134778
_cell_length_c 25.493947
_cell_angle_alpha 90.000000
_cell_angle_beta 90.000000
_cell_angle_gamma 90.000000
_cell_volume 6012.290302
_symmetry_space_group_name_H-M "C M M A"
_symmetry_group_IT_number 67
_symmetry_cell_setting 'orthorhombic'
loop_
_space_group_symop_operation_xyz
x,y,z
-x,1/2-y,z
x,-y,-z
-x,1/2+y,-z
-x,-y,-z
x,1/2+y,-z
-x,y,z
x,1/2-y,z
1/2+x,1/2+y,z
1/2-x,-y,z
1/2+x,1/2-y,-z
1/2-x,y,-z
1/2-x,1/2-y,-z
1/2+x,y,-z
1/2-x,1/2+y,z
1/2+x,-y,z
loop_
_atom_site_type_symbol
_atom_site_label
_atom_site_fract_x
_atom_site_fract_y
_atom_site_fract_z
Si Si1 0.941366 0.087824 0.340236
Si Si2 0.696957 0.578795 0.606363
Si Si3 0.443909 0.079125 0.946169
Si Si4 0.167501 0.415583 0.086265
Si Si5 0.856988 0.081919 0.714020
Si Si6 0.801302 0.576009 0.801588
Si Si7 0.104357 0.580043 0.551390
Si Si8 0.250000 0.000000 0.000000
O O1 0.918179 0.250000 0.327828
O O2 0.937581 0.060043 0.402533
O O3 0.000000 0.079436 0.322220
O O4 0.912936 0.962864 0.307515
O O5 0.699543 0.750000 0.592609
O O6 0.750000 0.500000 0.593839
O O7 0.684080 0.554817 0.667666
O O8 0.656528 0.500845 0.568511
O O9 0.500000 0.055306 0.915124
O O10 0.435168 0.250000 0.956324
O O11 0.389843 0.012793 0.922827
O O12 0.452040 0.000000 0.000000
O O13 0.156070 0.250000 0.100478
O O14 0.190115 0.486619 0.139256
O O15 0.209515 0.416733 0.038374
O O16 0.857905 0.250000 0.732186
O O17 0.846833 0.978480 0.763891
O O18 0.795712 0.750000 0.799007
O O19 0.750000 0.500000 0.779396
O O20 0.081883 0.500000 0.500000
O O21 0.115626 0.750000 0.539405
#
# Coordination Sequence:
#
# PCOD8279873 Si02
#       8
#    16  16  16  16  16  16  16   4
#     4   9  19  37  60  84 110 145 187 230 280 335
#     4  10  20  34  53  76 103 137 180 224 273 330
#     4   9  17  32  53  75 100 133 175 221 265 314
#     4  10  21  34  52  80 112 148 187 228 280 338
#     4  10  21  37  57  82 109 141 180 227 281 332
#     4  11  22  37  55  80 113 146 184 226 275 336
#     4  10  20  34  52  77 111 146 183 226 272 326
#     4  12  18  36  54  78 116 152 190 234 280 340
#
# _framework density 19.293811000000002
#
# number of rings (size 3 to 8) (size 9 to 14) (size 15 to 20)
#    0.000    2.069    1.379    2.276    0.000    4.138 
#    0.000    3.448    0.000    2.483    0.000    0.000 
#    0.000    0.000    0.000    0.000    0.000    0.000 
#
# Total GULP energy -718570.329250 kJ/mol
# GULP energy per Si atom -12389.143608 kJ/mol
# Density = 1.924990 g / cm^3
# Si number density = 19.293811 Si / 1000 Ang^3
#
#
#
# Elastic Constant Matrix: (Units=GPa)
#
#
# Indices 1 2 3 4 5 6 
#
# 1 104.5600 28.7082 21.5479 0.0000 0.0000 0.0000
# 2 28.7082 89.0499 35.7326 0.0000 0.0000 0.0000
# 3 21.5479 35.7326 90.3246 0.0000 0.0000 0.0000
# 4 0.0000 0.0000 0.0000 27.1846 0.0000 0.0000
# 5 0.0000 0.0000 0.0000 0.0000 12.6303 0.0000
# 6 0.0000 0.0000 0.0000 0.0000 0.0000 24.4473
#
#
#
# Elastic Compliance Matrix: (Units=1/GPa)
#
#
# Indices 1 2 3 4 5 6 
#
# 1 0.010640 -0.002867 -0.001404 0.000000 0.000000 0.000000
# 2 -0.002867 0.014121 -0.004902 0.000000 0.000000 0.000000
# 3 -0.001404 -0.004902 0.013346 0.000000 0.000000 0.000000
# 4 0.000000 0.000000 0.000000 0.036786 0.000000 0.000000
# 5 0.000000 0.000000 0.000000 0.000000 0.079175 0.000000
# 6 0.000000 0.000000 0.000000 0.000000 0.000000 0.040904
#
#
# Mechanical properties :
#
#
# Convention : Reuss Voigt Hill
#
# Bulk Modulus (GPa) = 50.60714 50.65690 50.63202
# Shear Modulus (GPa) = 22.73704 26.04880 24.39292
#
# Velocity S-wave (km/s) = 3.43660 3.67837 3.55954
# Velocity P-wave (km/s) = 6.48333 6.65981 6.57217
#
# Compressibility (1/GPa) = 0.01976006
#
# Stress axis : x y z
#
# Youngs Moduli (GPa) = 93.98147 70.81632 74.93107
#
# Poissons Ratio (x) = 0.20302 0.10522
# Poissons Ratio (y) = 0.26943 0.36734
# Poissons Ratio (z) = 0.13198 0.34717
#
# Static dielectric constant tensor:
#      x y z
#    x 3.818260 0.000000 0.000000 
#    y 0.000000 3.589540 0.000000 
#    z 0.000000 0.000000 3.513010 
# 
# 
# High freq. dielectric constant tensor:
#      x y z
#    x 1.755820 0.000000 0.000000 
#    y 0.000000 1.746470 0.000000 
#    z 0.000000 0.000000 1.736910 
# 
# From -- ./inp_files/42853.got.cif
#   From: 2010.03.12/outbox.cif.g09.slc.cpg/sg67_22_cif.got.tgz:42853.got - 2010.04.10 22:41:39.
