data_PCOD8279635
_publ_section_title
;
Structure prediction by ZEFSAII (Michael W. Deem and Ramdas Pophale) SiO2 
 PCOD8279635
Probable space group: C M M A
;
_chemical_formula_sum "Si O2"
_cell_formula_units_Z 112
_cell_length_a 22.389521
_cell_length_b 18.423654
_cell_length_c 13.284613
_cell_angle_alpha 90.000000
_cell_angle_beta 90.000000
_cell_angle_gamma 90.000000
_cell_volume 5479.860194
_symmetry_space_group_name_H-M "C M M A"
_symmetry_group_IT_number 67
_symmetry_cell_setting 'orthorhombic'
loop_
_space_group_symop_operation_xyz
x,y,z
-x,1/2-y,z
x,-y,-z
-x,1/2+y,-z
-x,-y,-z
x,1/2+y,-z
-x,y,z
x,1/2-y,z
1/2+x,1/2+y,z
1/2-x,-y,z
1/2+x,1/2-y,-z
1/2-x,y,-z
1/2-x,1/2-y,-z
1/2+x,y,-z
1/2-x,1/2+y,z
1/2+x,-y,z
loop_
_atom_site_type_symbol
_atom_site_label
_atom_site_fract_x
_atom_site_fract_y
_atom_site_fract_z
Si Si1 0.572542 0.578582 0.352829
Si Si2 0.068329 0.829367 0.459120
Si Si3 0.846179 0.165847 0.208245
Si Si4 0.160113 0.167077 0.986175
Si Si5 0.391410 0.429129 0.292064
Si Si6 0.432247 0.939770 0.924145
Si Si7 0.714353 0.166416 0.217822
O O1 0.500000 0.571690 0.344117
O O2 0.594705 0.620351 0.452755
O O3 0.599846 0.621827 0.258117
O O4 0.605873 0.500758 0.361815
O O5 0.100146 0.750000 0.459668
O O6 0.073962 0.865374 0.349536
O O7 0.000000 0.817603 0.484487
O O8 0.865116 0.250000 0.209056
O O9 0.781242 0.155999 0.261127
O O10 0.833582 0.132547 0.096867
O O11 0.148285 0.250000 0.006135
O O12 0.100881 0.136181 0.934821
O O13 0.213996 0.155479 0.905316
O O14 0.425529 0.459291 0.193227
O O15 0.325813 0.396114 0.269454
O O16 0.500000 0.927677 0.955290
O O17 0.404315 0.000000 0.000000
O O18 0.692584 0.250000 0.239738
#
# Coordination Sequence:
#
# PCOD8279635 Si02
#       7
#    16  16  16  16  16  16  16
#     4  11  23  38  57  84 116 148 187 235 286 345
#     4  10  21  38  60  85 112 145 190 241 288 337
#     4  10  20  36  58  81 111 153 193 235 290 341
#     4   9  18  32  52  78 108 145 189 236 283 335
#     4  11  21  36  59  83 112 150 188 229 285 343
#     4  10  20  33  49  76 115 153 187 226 275 333
#     4   9  19  36  57  83 113 146 191 241 284 336
#
# _framework density 20.438476999999999
#
# number of rings (size 3 to 8) (size 9 to 14) (size 15 to 20)
#    0.000    2.000    0.000    3.857    0.000    6.857 
#    0.000    2.143    0.000    6.857    0.000    0.000 
#    0.000    0.000    0.000    0.000    0.000    0.000 
#
# Total GULP energy -693770.777535 kJ/mol
# GULP energy per Si atom -12388.763885 kJ/mol
# Density = 2.039196 g / cm^3
# Si number density = 20.438477 Si / 1000 Ang^3
#
#
#
# Elastic Constant Matrix: (Units=GPa)
#
#
# Indices 1 2 3 4 5 6 
#
# 1 61.5111 27.4431 19.4606 0.0000 0.0000 0.0000
# 2 27.4431 92.7220 53.8036 0.0000 0.0000 0.0000
# 3 19.4606 53.8036 98.1819 0.0000 0.0000 0.0000
# 4 0.0000 0.0000 0.0000 35.0893 0.0000 0.0000
# 5 0.0000 0.0000 0.0000 0.0000 19.2003 0.0000
# 6 0.0000 0.0000 0.0000 0.0000 0.0000 23.7719
#
#
#
# Elastic Compliance Matrix: (Units=1/GPa)
#
#
# Indices 1 2 3 4 5 6 
#
# 1 0.018796 -0.004987 -0.000993 0.000000 0.000000 0.000000
# 2 -0.004987 0.017137 -0.008402 0.000000 0.000000 0.000000
# 3 -0.000993 -0.008402 0.014986 0.000000 0.000000 0.000000
# 4 0.000000 0.000000 0.000000 0.028499 0.000000 0.000000
# 5 0.000000 0.000000 0.000000 0.000000 0.052082 0.000000
# 6 0.000000 0.000000 0.000000 0.000000 0.000000 0.042066
#
#
# Mechanical properties :
#
#
# Convention : Reuss Voigt Hill
#
# Bulk Modulus (GPa) = 45.13655 50.42550 47.78103
# Shear Modulus (GPa) = 23.84174 25.72614 24.78394
#
# Velocity S-wave (km/s) = 3.41913 3.55168 3.48604
# Velocity P-wave (km/s) = 6.14160 6.44551 6.29539
#
# Compressibility (1/GPa) = 0.02215499
#
# Stress axis : x y z
#
# Youngs Moduli (GPa) = 53.20194 58.35463 66.72722
#
# Poissons Ratio (x) = 0.29103 0.06624
# Poissons Ratio (y) = 0.26533 0.56066
# Poissons Ratio (z) = 0.05281 0.49031
#
# Static dielectric constant tensor:
#      x y z
#    x 3.416450 0.000000 0.000000 
#    y 0.000000 3.862550 0.000000 
#    z 0.000000 0.000000 4.189520 
# 
# 
# High freq. dielectric constant tensor:
#      x y z
#    x 1.775870 0.000000 0.000000 
#    y 0.000000 1.803010 0.000000 
#    z 0.000000 0.000000 1.797470 
# 
# From -- ./inp_files/22143.got.cif
#   From: 2010.03.12/outbox.cif.g09.slc.cpg/sg67_12_cif.got.tgz:22143.got - 2010.04.10 22:41:39.
