data_PCOD8279590
_publ_section_title
;
Structure prediction by ZEFSAII (Michael W. Deem and Ramdas Pophale) SiO2 
 PCOD8279590
Probable space group: C M M A
;
_chemical_formula_sum "Si O2"
_cell_formula_units_Z 68
_cell_length_a 19.456920
_cell_length_b 20.965893
_cell_length_c 9.453733
_cell_angle_alpha 90.000000
_cell_angle_beta 90.000000
_cell_angle_gamma 90.000000
_cell_volume 3856.477401
_symmetry_space_group_name_H-M "C M M A"
_symmetry_group_IT_number 67
_symmetry_cell_setting 'orthorhombic'
loop_
_space_group_symop_operation_xyz
x,y,z
-x,1/2-y,z
x,-y,-z
-x,1/2+y,-z
-x,-y,-z
x,1/2+y,-z
-x,y,z
x,1/2-y,z
1/2+x,1/2+y,z
1/2-x,-y,z
1/2+x,1/2-y,-z
1/2-x,y,-z
1/2-x,1/2-y,-z
1/2+x,y,-z
1/2-x,1/2+y,z
1/2+x,-y,z
loop_
_atom_site_type_symbol
_atom_site_label
_atom_site_fract_x
_atom_site_fract_y
_atom_site_fract_z
Si Si1 0.500000 0.178995 0.115933
Si Si2 0.500000 0.063206 0.907449
Si Si3 0.351993 0.906070 0.143848
Si Si4 0.233354 0.325248 0.340725
Si Si5 0.750000 0.500000 0.000000
Si Si6 0.146981 0.822374 0.136244
O O1 0.500000 0.250000 0.046306
O O2 0.429654 0.171127 0.206290
O O3 0.500000 0.128016 0.993457
O O4 0.427944 0.064735 0.820833
O O5 0.500000 0.000000 0.000000
O O6 0.331085 0.865473 0.282374
O O7 0.298118 0.961452 0.108576
O O8 0.350308 0.860845 0.007886
O O9 0.217670 0.250000 0.329719
O O10 0.250000 0.345373 0.500000
O O11 0.298860 0.347643 0.249156
O O12 0.164827 0.750000 0.096659
#
# Coordination Sequence:
#
# PCOD8279590 Si02
#       6
#     8   8  16  16   4  16
#     4   8  16  28  47  74  99 128 170 219 274 328
#     4  10  20  32  51  80 112 142 176 233 286 337
#     4  11  20  34  53  79 107 139 183 225 276 333
#     4  10  20  34  53  78 107 139 179 227 277 330
#     4  12  20  30  56  80 104 138 186 222 268 322
#     4   9  16  30  52  75  98 129 171 223 273 322
#
# _framework density 17.632670999999998
#
# number of rings (size 3 to 8) (size 9 to 14) (size 15 to 20)
#    0.000    2.118    3.529    0.706    0.000    2.824 
#    0.000    1.765    0.000    2.824    0.000    4.941 
#    0.000    0.000    0.000    0.000    0.000    0.000 
#
# Total GULP energy -421223.691028 kJ/mol
# GULP energy per Si atom -12388.932089 kJ/mol
# Density = 1.759254 g / cm^3
# Si number density = 17.632671 Si / 1000 Ang^3
#
#
#
# Elastic Constant Matrix: (Units=GPa)
#
#
# Indices 1 2 3 4 5 6 
#
# 1 153.7667 48.6463 47.6504 0.0000 0.0000 0.0000
# 2 48.6463 70.1369 29.8507 0.0000 0.0000 0.0000
# 3 47.6504 29.8507 88.6469 0.0000 0.0000 0.0000
# 4 0.0000 0.0000 0.0000 16.2508 0.0000 0.0000
# 5 0.0000 0.0000 0.0000 0.0000 13.0733 0.0000
# 6 0.0000 0.0000 0.0000 0.0000 0.0000 30.5575
#
#
#
# Elastic Compliance Matrix: (Units=1/GPa)
#
#
# Indices 1 2 3 4 5 6 
#
# 1 0.009053 -0.004912 -0.003212 0.000000 0.000000 0.000000
# 2 -0.004912 0.019308 -0.003862 0.000000 0.000000 0.000000
# 3 -0.003212 -0.003862 0.014308 0.000000 0.000000 0.000000
# 4 0.000000 0.000000 0.000000 0.061535 0.000000 0.000000
# 5 0.000000 0.000000 0.000000 0.000000 0.076492 0.000000
# 6 0.000000 0.000000 0.000000 0.000000 0.000000 0.032725
#
#
# Mechanical properties :
#
#
# Convention : Reuss Voigt Hill
#
# Bulk Modulus (GPa) = 53.48285 62.76060 58.12173
# Shear Modulus (GPa) = 20.52340 24.40318 22.46329
#
# Velocity S-wave (km/s) = 3.41536 3.72422 3.57313
# Velocity P-wave (km/s) = 6.77868 7.35960 7.07510
#
# Compressibility (1/GPa) = 0.01869758
#
# Stress axis : x y z
#
# Youngs Moduli (GPa) = 110.46492 51.79184 69.89271
#
# Poissons Ratio (x) = 0.25439 0.22450
# Poissons Ratio (y) = 0.54257 0.26989
# Poissons Ratio (z) = 0.35483 0.20000
#
# Static dielectric constant tensor:
#      x y z
#    x 4.157720 0.000000 0.000000 
#    y 0.000000 3.381100 0.000000 
#    z 0.000000 0.000000 2.847040 
# 
# 
# High freq. dielectric constant tensor:
#      x y z
#    x 1.708850 0.000000 0.000000 
#    y 0.000000 1.690370 0.000000 
#    z 0.000000 0.000000 1.620690 
# 
# From -- ./inp_files/9542.got.cif
#   From: 2010.03.12/outbox.cif.g09.slc.cpg/sg67_5_cif.got.tgz:9542.got - 2010.04.10 22:41:39.
