data_PCOD8279606
_publ_section_title
;
Structure prediction by ZEFSAII (Michael W. Deem and Ramdas Pophale) SiO2 
 PCOD8279606
Probable space group: C M M A
;
_chemical_formula_sum "Si O2"
_cell_formula_units_Z 120
_cell_length_a 8.686686
_cell_length_b 26.493110
_cell_length_c 29.265470
_cell_angle_alpha 90.000000
_cell_angle_beta 90.000000
_cell_angle_gamma 90.000000
_cell_volume 6735.077061
_symmetry_space_group_name_H-M "C M M A"
_symmetry_group_IT_number 67
_symmetry_cell_setting 'orthorhombic'
loop_
_space_group_symop_operation_xyz
x,y,z
-x,1/2-y,z
x,-y,-z
-x,1/2+y,-z
-x,-y,-z
x,1/2+y,-z
-x,y,z
x,1/2-y,z
1/2+x,1/2+y,z
1/2-x,-y,z
1/2+x,1/2-y,-z
1/2-x,y,-z
1/2-x,1/2-y,-z
1/2+x,y,-z
1/2-x,1/2+y,z
1/2+x,-y,z
loop_
_atom_site_type_symbol
_atom_site_label
_atom_site_fract_x
_atom_site_fract_y
_atom_site_fract_z
Si Si1 0.179290 0.053271 0.380236
Si Si2 0.820260 0.191436 0.139522
Si Si3 0.179601 0.552552 0.726667
Si Si4 0.827977 0.692618 0.689160
Si Si5 0.172825 0.690021 0.045738
Si Si6 0.817624 0.750000 0.550133
Si Si7 0.679740 0.655038 0.602572
Si Si8 0.680600 0.851675 0.772356
O O1 0.212380 0.062067 0.326716
O O2 0.256880 0.098998 0.409160
O O3 0.000000 0.052425 0.391455
O O4 0.250000 0.000000 0.396427
O O5 0.776341 0.250000 0.146205
O O6 0.771214 0.172445 0.089396
O O7 0.727511 0.158068 0.175647
O O8 0.000000 0.182226 0.146184
O O9 0.250000 0.500000 0.742525
O O10 0.267024 0.593328 0.756889
O O11 0.000000 0.553844 0.737799
O O12 0.836545 0.750000 0.673252
O O13 0.712232 0.663174 0.656190
O O14 0.766054 0.689421 0.740604
O O15 0.000000 0.668389 0.686070
O O16 0.170907 0.750000 0.042618
O O17 0.000000 0.668766 0.050047
O O18 0.250000 0.667386 0.000000
O O19 0.750000 0.750000 0.500000
O O20 0.764405 0.698739 0.574582
O O21 0.000000 0.750000 0.548612
O O22 0.500000 0.657827 0.591925
O O23 0.500000 0.845401 0.766673
#
# Coordination Sequence:
#
# PCOD8279606 Si02
#       8
#    16  16  16  16  16   8  16  16
#     4  10  20  35  57  84 116 150 187 232 279 325
#     4  10  20  33  47  65  94 133 174 215 262 312
#     4  10  20  34  52  72 101 135 175 218 265 312
#     4  11  22  35  51  73 105 144 183 222 265 312
#     4   9  16  27  44  65  89 120 162 210 259 310
#     4  12  26  46  68  92 122 154 190 234 283 330
#     4  12  23  37  60  88 117 149 188 229 274 328
#     4  12  23  33  48  70 101 138 177 216 262 316
#
# _framework density 17.817169
#
# number of rings (size 3 to 8) (size 9 to 14) (size 15 to 20)
#    0.000    1.333    2.000    5.400    0.000    5.867 
#    0.000    0.000    0.000    0.400    0.000    2.800 
#    0.000    0.533    0.000    5.333    0.000    3.467 
#
# Total GULP energy -744116.827389 kJ/mol
# GULP energy per Si atom -12401.947123 kJ/mol
# Density = 1.777662 g / cm^3
# Si number density = 17.817169 Si / 1000 Ang^3
#
#
#
# Elastic Constant Matrix: (Units=GPa)
#
#
# Indices 1 2 3 4 5 6 
#
# 1 134.7026 52.2039 34.6022 0.0000 0.0000 0.0000
# 2 52.2039 110.6038 37.1202 0.0000 0.0000 0.0000
# 3 34.6022 37.1202 76.1806 0.0000 0.0000 0.0000
# 4 0.0000 0.0000 0.0000 10.4297 0.0000 0.0000
# 5 0.0000 0.0000 0.0000 0.0000 30.3602 0.0000
# 6 0.0000 0.0000 0.0000 0.0000 0.0000 29.1237
#
#
#
# Elastic Compliance Matrix: (Units=1/GPa)
#
#
# Indices 1 2 3 4 5 6 
#
# 1 0.009480 -0.003622 -0.002541 0.000000 0.000000 0.000000
# 2 -0.003622 0.012192 -0.004296 0.000000 0.000000 0.000000
# 3 -0.002541 -0.004296 0.016374 0.000000 0.000000 0.000000
# 4 0.000000 0.000000 0.000000 0.095880 0.000000 0.000000
# 5 0.000000 0.000000 0.000000 0.000000 0.032938 0.000000
# 6 0.000000 0.000000 0.000000 0.000000 0.000000 0.034336
#
#
# Mechanical properties :
#
#
# Convention : Reuss Voigt Hill
#
# Bulk Modulus (GPa) = 58.38037 63.25996 60.82016
# Shear Modulus (GPa) = 21.94631 27.15341 24.54986
#
# Velocity S-wave (km/s) = 3.51344 3.90808 3.71600
# Velocity P-wave (km/s) = 7.02115 7.47972 7.25406
#
# Compressibility (1/GPa) = 0.01712904
#
# Stress axis : x y z
#
# Youngs Moduli (GPa) = 105.48379 82.01792 61.07138
#
# Poissons Ratio (x) = 0.29704 0.15520
# Poissons Ratio (y) = 0.38202 0.26236
# Poissons Ratio (z) = 0.26807 0.35235
#
# Static dielectric constant tensor:
#      x y z
#    x 3.446660 0.000000 0.000000 
#    y 0.000000 3.255900 0.000000 
#    z 0.000000 0.000000 3.151470 
# 
# 
# High freq. dielectric constant tensor:
#      x y z
#    x 1.710020 0.000000 0.000000 
#    y 0.000000 1.671180 0.000000 
#    z 0.000000 0.000000 1.667530 
# 
# From -- ./inp_files/43941.got.cif
#   From: 2010.03.12/outbox.cif.g09.slc.cpg/sg67_22_cif.got.tgz:43941.got - 2010.04.10 22:41:39.
