data_PCOD8279917
_publ_section_title
;
Structure prediction by ZEFSAII (Michael W. Deem and Ramdas Pophale) SiO2 
 PCOD8279917
Probable space group: C M M A
;
_chemical_formula_sum "Si O2"
_cell_formula_units_Z 80
_cell_length_a 8.773038
_cell_length_b 18.315562
_cell_length_c 25.815059
_cell_angle_alpha 90.000000
_cell_angle_beta 90.000000
_cell_angle_gamma 90.000000
_cell_volume 4148.044260
_symmetry_space_group_name_H-M "C M M A"
_symmetry_group_IT_number 67
_symmetry_cell_setting 'orthorhombic'
loop_
_space_group_symop_operation_xyz
x,y,z
-x,1/2-y,z
x,-y,-z
-x,1/2+y,-z
-x,-y,-z
x,1/2+y,-z
-x,y,z
x,1/2-y,z
1/2+x,1/2+y,z
1/2-x,-y,z
1/2+x,1/2-y,-z
1/2-x,y,-z
1/2-x,1/2-y,-z
1/2+x,y,-z
1/2-x,1/2+y,z
1/2+x,-y,z
loop_
_atom_site_type_symbol
_atom_site_label
_atom_site_fract_x
_atom_site_fract_y
_atom_site_fract_z
Si Si1 0.680056 0.666948 0.553088
Si Si2 0.681128 0.920526 0.652676
Si Si3 0.321686 0.834231 0.054937
Si Si4 0.680965 0.579349 0.851386
Si Si5 0.181143 0.168108 0.751751
O O1 0.500000 0.662918 0.548927
O O2 0.735006 0.750000 0.562342
O O3 0.750000 0.635487 0.500000
O O4 0.740415 0.618302 0.600498
O O5 0.500000 0.925607 0.653412
O O6 0.742374 0.874128 0.701335
O O7 0.750000 0.000000 0.656212
O O8 0.500000 0.851712 0.053562
O O9 0.289553 0.750000 0.068802
O O10 0.240061 0.884518 0.096441
O O11 0.250000 0.854650 0.000000
O O12 0.500000 0.574104 0.853262
O O13 0.750000 0.500000 0.844558
O O14 0.739056 0.627385 0.803106
O O15 0.248565 0.250000 0.751592
O O16 0.000000 0.170947 0.750680
#
# Coordination Sequence:
#
# PCOD8279917 Si02
#       5
#    16  16  16  16  16
#     4   9  18  33  53  75 100 134 176 219 261 308
#     4  10  20  34  53  77 106 138 173 215 263 316
#     4  10  21  38  60  85 113 145 183 226 270 319
#     4  11  22  36  56  82 113 146 181 222 270 323
#     4   9  18  34  57  81 104 136 179 222 264 316
#
# _framework density 19.286197000000001
#
# number of rings (size 3 to 8) (size 9 to 14) (size 15 to 20)
#    0.000    2.200    0.000    3.000    0.000    6.000 
#    0.000    5.000    0.000    4.200    0.000    0.000 
#    0.000    0.000    0.000    0.000    0.000    0.000 
#
# Total GULP energy -496115.943813 kJ/mol
# GULP energy per Si atom -12402.898595 kJ/mol
# Density = 1.924230 g / cm^3
# Si number density = 19.286197 Si / 1000 Ang^3
#
#
#
# Elastic Constant Matrix: (Units=GPa)
#
#
# Indices 1 2 3 4 5 6 
#
# 1 48.3795 39.6545 41.4623 0.0000 0.0000 0.0000
# 2 39.6545 168.0314 109.4277 0.0000 0.0000 0.0000
# 3 41.4623 109.4277 176.9542 0.0000 0.0000 0.0000
# 4 0.0000 0.0000 0.0000 28.3606 0.0000 0.0000
# 5 0.0000 0.0000 0.0000 0.0000 23.1264 0.0000
# 6 0.0000 0.0000 0.0000 0.0000 0.0000 29.9139
#
#
#
# Elastic Compliance Matrix: (Units=1/GPa)
#
#
# Indices 1 2 3 4 5 6 
#
# 1 0.027242 -0.003804 -0.004031 0.000000 0.000000 0.000000
# 2 -0.003804 0.010495 -0.005599 0.000000 0.000000 0.000000
# 3 -0.004031 -0.005599 0.010058 0.000000 0.000000 0.000000
# 4 0.000000 0.000000 0.000000 0.035260 0.000000 0.000000
# 5 0.000000 0.000000 0.000000 0.000000 0.043241 0.000000
# 6 0.000000 0.000000 0.000000 0.000000 0.000000 0.033429
#
#
# Mechanical properties :
#
#
# Convention : Reuss Voigt Hill
#
# Bulk Modulus (GPa) = 47.78254 86.05046 66.91650
# Shear Modulus (GPa) = 25.83058 29.80154 27.81606
#
# Velocity S-wave (km/s) = 3.66366 3.93520 3.80185
# Velocity P-wave (km/s) = 6.53650 8.08469 7.35146
#
# Compressibility (1/GPa) = 0.02092815
#
# Stress axis : x y z
#
# Youngs Moduli (GPa) = 36.70746 95.28212 99.42415
#
# Poissons Ratio (x) = 0.36246 0.40076
# Poissons Ratio (y) = 0.13964 0.55666
# Poissons Ratio (z) = 0.14796 0.53347
#
# Static dielectric constant tensor:
#      x y z
#    x 3.305770 0.000000 0.000000 
#    y 0.000000 3.654950 0.000000 
#    z 0.000000 0.000000 3.780120 
# 
# 
# High freq. dielectric constant tensor:
#      x y z
#    x 1.729310 0.000000 0.000000 
#    y 0.000000 1.757540 0.000000 
#    z 0.000000 0.000000 1.769220 
# 
# From -- ./inp_files/43253.got.cif
#   From: 2010.03.12/outbox.cif.g09.slc.cpg/sg67_22_cif.got.tgz:43253.got - 2010.04.10 22:41:39.
