data_PCOD8279265
_publ_section_title
;
Structure prediction by ZEFSAII (Michael W. Deem and Ramdas Pophale) SiO2 
 PCOD8279265
Probable space group: C M M A
;
_chemical_formula_sum "Si O2"
_cell_formula_units_Z 96
_cell_length_a 17.011922
_cell_length_b 15.837355
_cell_length_c 16.837531
_cell_angle_alpha 90.000000
_cell_angle_beta 90.000000
_cell_angle_gamma 90.000000
_cell_volume 4536.432392
_symmetry_space_group_name_H-M "C M M A"
_symmetry_group_IT_number 67
_symmetry_cell_setting 'orthorhombic'
loop_
_space_group_symop_operation_xyz
x,y,z
-x,1/2-y,z
x,-y,-z
-x,1/2+y,-z
-x,-y,-z
x,1/2+y,-z
-x,y,z
x,1/2-y,z
1/2+x,1/2+y,z
1/2-x,-y,z
1/2+x,1/2-y,-z
1/2-x,y,-z
1/2-x,1/2-y,-z
1/2+x,y,-z
1/2-x,1/2+y,z
1/2+x,-y,z
loop_
_atom_site_type_symbol
_atom_site_label
_atom_site_fract_x
_atom_site_fract_y
_atom_site_fract_z
Si Si1 0.653581 0.839861 0.677209
Si Si2 0.667211 0.655942 0.307192
Si Si3 0.169430 0.053373 0.148389
Si Si4 0.590164 0.153787 0.985213
Si Si5 0.910679 0.388092 0.838494
Si Si6 0.343904 0.496662 0.590730
O O1 0.617025 0.750000 0.647047
O O2 0.745496 0.836363 0.659395
O O3 0.642306 0.844947 0.771741
O O4 0.617069 0.920981 0.632621
O O5 0.627463 0.750000 0.310114
O O6 0.669087 0.622697 0.217330
O O7 0.623810 0.588089 0.365371
O O8 0.151174 0.098700 0.065325
O O9 0.250000 0.000000 0.144429
O O10 0.098803 0.988880 0.165613
O O11 0.500000 0.121038 0.975784
O O12 0.596037 0.250000 0.956897
O O13 0.617443 0.146469 0.076374
O O14 0.000000 0.362748 0.821808
O O15 0.371528 0.500000 0.500000
O O16 0.250000 0.500000 0.599512
#
# Coordination Sequence:
#
# PCOD8279265 Si02
#       6
#    16  16  16  16  16  16
#     4  10  19  34  55  82 113 147 187 230 278 336
#     4  10  19  34  56  83 115 151 188 232 286 339
#     4  12  21  38  57  84 117 153 192 239 292 349
#     4  10  23  41  58  81 113 152 201 250 295 349
#     4  11  22  38  59  81 110 150 195 237 287 343
#     4   9  17  32  53  83 119 148 179 228 285 342
#
# _framework density 21.162002999999999
#
# number of rings (size 3 to 8) (size 9 to 14) (size 15 to 20)
#    0.000    1.667    3.333    2.500    0.000    4.333 
#    0.000    4.167    0.000    0.500    0.000    0.000 
#    0.000    0.000    0.000    0.000    0.000    0.000 
#
# Total GULP energy -594947.351769 kJ/mol
# GULP energy per Si atom -12394.736495 kJ/mol
# Density = 2.111384 g / cm^3
# Si number density = 21.162003 Si / 1000 Ang^3
#
#
#
# Elastic Constant Matrix: (Units=GPa)
#
#
# Indices 1 2 3 4 5 6 
#
# 1 20.7148 21.2778 25.0157 0.0000 0.0000 0.0000
# 2 21.2778 196.2489 81.6573 0.0000 0.0000 0.0000
# 3 25.0157 81.6573 144.3843 0.0000 0.0000 0.0000
# 4 0.0000 0.0000 0.0000 20.0297 0.0000 0.0000
# 5 0.0000 0.0000 0.0000 0.0000 4.7656 0.0000
# 6 0.0000 0.0000 0.0000 0.0000 0.0000 14.3014
#
#
#
# Elastic Compliance Matrix: (Units=1/GPa)
#
#
# Indices 1 2 3 4 5 6 
#
# 1 0.062337 -0.002962 -0.009125 0.000000 0.000000 0.000000
# 2 -0.002962 0.006804 -0.003335 0.000000 0.000000 0.000000
# 3 -0.009125 -0.003335 0.010393 0.000000 0.000000 0.000000
# 4 0.000000 0.000000 0.000000 0.049926 0.000000 0.000000
# 5 0.000000 0.000000 0.000000 0.000000 0.209835 0.000000
# 6 0.000000 0.000000 0.000000 0.000000 0.000000 0.069923
#
#
# Mechanical properties :
#
#
# Convention : Reuss Voigt Hill
#
# Bulk Modulus (GPa) = 20.53810 68.58326 44.56068
# Shear Modulus (GPa) = 10.95787 23.37916 17.16852
#
# Velocity S-wave (km/s) = 2.27801 3.32742 2.85140
# Velocity P-wave (km/s) = 4.07987 6.87323 5.65184
#
# Compressibility (1/GPa) = 0.04869001
#
# Stress axis : x y z
#
# Youngs Moduli (GPa) = 16.04191 146.96368 96.21701
#
# Poissons Ratio (x) = 0.43527 0.87801
# Poissons Ratio (y) = 0.04751 0.32089
# Poissons Ratio (z) = 0.14639 0.49014
#
# Static dielectric constant tensor:
#      x y z
#    x 3.387880 0.000000 0.000000 
#    y 0.000000 4.410680 0.000000 
#    z 0.000000 0.000000 3.713860 
# 
# 
# High freq. dielectric constant tensor:
#      x y z
#    x 1.775310 0.000000 0.000000 
#    y 0.000000 1.853480 0.000000 
#    z 0.000000 0.000000 1.822480 
# 
# From -- ./inp_files/29292.got.cif
#   From: 2010.03.12/outbox.cif.g09.slc.cpg/sg67_15_cif.got.tgz:29292.got - 2010.04.10 22:41:39.
