data_PCOD8279293
_publ_section_title
;
Structure prediction by ZEFSAII (Michael W. Deem and Ramdas Pophale) SiO2 
 PCOD8279293
Probable space group: C M M A
;
_chemical_formula_sum "Si O2"
_cell_formula_units_Z 96
_cell_length_a 16.977307
_cell_length_b 25.392911
_cell_length_c 12.094084
_cell_angle_alpha 90.000000
_cell_angle_beta 90.000000
_cell_angle_gamma 90.000000
_cell_volume 5213.798866
_symmetry_space_group_name_H-M "C M M A"
_symmetry_group_IT_number 67
_symmetry_cell_setting 'orthorhombic'
loop_
_space_group_symop_operation_xyz
x,y,z
-x,1/2-y,z
x,-y,-z
-x,1/2+y,-z
-x,-y,-z
x,1/2+y,-z
-x,y,z
x,1/2-y,z
1/2+x,1/2+y,z
1/2-x,-y,z
1/2+x,1/2-y,-z
1/2-x,y,-z
1/2-x,1/2-y,-z
1/2+x,y,-z
1/2-x,1/2+y,z
1/2+x,-y,z
loop_
_atom_site_type_symbol
_atom_site_label
_atom_site_fract_x
_atom_site_fract_y
_atom_site_fract_z
Si Si1 0.689392 0.595485 0.755320
Si Si2 0.088856 0.056370 0.947910
Si Si3 0.734090 0.189922 0.871088
Si Si4 0.593048 0.060795 0.419511
Si Si5 0.649905 0.553057 0.343668
Si Si6 0.087366 0.374466 0.158416
O O1 0.655041 0.560549 0.854636
O O2 0.709382 0.653108 0.799402
O O3 0.619862 0.605944 0.665738
O O4 0.760879 0.563338 0.697335
O O5 0.000000 0.063417 0.899892
O O6 0.106165 0.098757 0.041906
O O7 0.099366 0.000000 0.000000
O O8 0.750297 0.250000 0.837699
O O9 0.645663 0.174964 0.834119
O O10 0.750000 0.180707 0.000000
O O11 0.500000 0.056224 0.437426
O O12 0.635368 0.076128 0.533897
O O13 0.626537 0.008127 0.358534
O O14 0.594302 0.582451 0.255909
O O15 0.000000 0.351042 0.162106
#
# Coordination Sequence:
#
# PCOD8279293 Si02
#       6
#    16  16  16  16  16  16
#     4  11  21  35  56  82 109 145 188 230 274 330
#     4  10  20  33  51  81 119 151 178 216 272 334
#     4  10  21  39  57  78 108 141 183 236 286 326
#     4  11  21  36  56  80 116 152 186 222 266 321
#     4  10  21  35  54  83 115 149 187 223 265 319
#     4  10  19  34  57  82 110 144 185 226 271 330
#
# _framework density 18.412678
#
# number of rings (size 3 to 8) (size 9 to 14) (size 15 to 20)
#    0.000    1.667    1.667    4.500    0.000    4.333 
#    0.000    1.667    0.000   10.000    0.000    0.000 
#    0.000    0.000    0.000    0.000    0.000    0.000 
#
# Total GULP energy -594833.563293 kJ/mol
# GULP energy per Si atom -12392.365902 kJ/mol
# Density = 1.837077 g / cm^3
# Si number density = 18.412678 Si / 1000 Ang^3
#
#
#
# Elastic Constant Matrix: (Units=GPa)
#
#
# Indices 1 2 3 4 5 6 
#
# 1 53.3130 94.5088 79.9717 0.0000 0.0000 0.0000
# 2 94.5088 44.4102 40.5662 0.0000 0.0000 0.0000
# 3 79.9717 40.5662 130.8538 0.0000 0.0000 0.0000
# 4 0.0000 0.0000 0.0000 21.8330 0.0000 0.0000
# 5 0.0000 0.0000 0.0000 0.0000 73.9540 0.0000
# 6 0.0000 0.0000 0.0000 0.0000 0.0000 16.4596
#
#
#
# Elastic Compliance Matrix: (Units=1/GPa)
#
#
# Indices 1 2 3 4 5 6 
#
# 1 -0.006746 0.014773 -0.000457 0.000000 0.000000 0.000000
# 2 0.014773 -0.000940 -0.008737 0.000000 0.000000 0.000000
# 3 -0.000457 -0.008737 0.010630 0.000000 0.000000 0.000000
# 4 0.000000 0.000000 0.000000 0.045802 0.000000 0.000000
# 5 0.000000 0.000000 0.000000 0.000000 0.013522 0.000000
# 6 0.000000 0.000000 0.000000 0.000000 0.000000 0.060755
#
#
# Mechanical properties :
#
#
# Convention : Reuss Voigt Hill
#
# Bulk Modulus (GPa) = 70.91341 73.18562 72.04952
# Shear Modulus (GPa) = 42.89426 23.35134 33.12280
#
# Velocity S-wave (km/s) = 4.83183 3.56507 4.24596
# Velocity P-wave (km/s) = 8.35020 7.53525 7.95317
#
# Compressibility (1/GPa) = 0.01410170
#
# Stress axis : x y z
#
# Youngs Moduli (GPa) = -148.24106 -1063.33792 94.07230
#
# Poissons Ratio (x) = 15.70889 0.04301
# Poissons Ratio (y) = 2.18999 0.82192
# Poissons Ratio (z) = -0.06777 -9.29053
#
# Static dielectric constant tensor:
#      x y z
#    x 3.636010 0.000000 0.000000 
#    y 0.000000 3.159050 0.000000 
#    z 0.000000 0.000000 3.587460 
# 
# 
# High freq. dielectric constant tensor:
#      x y z
#    x 1.729790 0.000000 0.000000 
#    y 0.000000 1.671570 0.000000 
#    z 0.000000 0.000000 1.729530 
# 
# From -- ./inp_files/19833.got.cif
#   From: 2010.03.12/outbox.cif.g09.slc.cpg/sg67_10_cif.got.tgz:19833.got - 2010.04.10 22:41:39.
