data_PCOD8279490
_publ_section_title
;
Structure prediction by ZEFSAII (Michael W. Deem and Ramdas Pophale) SiO2 
 PCOD8279490
Probable space group: C M M A
;
_chemical_formula_sum "Si O2"
_cell_formula_units_Z 96
_cell_length_a 29.761620
_cell_length_b 8.899710
_cell_length_c 20.869673
_cell_angle_alpha 90.000000
_cell_angle_beta 90.000000
_cell_angle_gamma 90.000000
_cell_volume 5527.745845
_symmetry_space_group_name_H-M "C M M A"
_symmetry_group_IT_number 67
_symmetry_cell_setting 'orthorhombic'
loop_
_space_group_symop_operation_xyz
x,y,z
-x,1/2-y,z
x,-y,-z
-x,1/2+y,-z
-x,-y,-z
x,1/2+y,-z
-x,y,z
x,1/2-y,z
1/2+x,1/2+y,z
1/2-x,-y,z
1/2+x,1/2-y,-z
1/2-x,y,-z
1/2-x,1/2-y,-z
1/2+x,y,-z
1/2-x,1/2+y,z
1/2+x,-y,z
loop_
_atom_site_type_symbol
_atom_site_label
_atom_site_fract_x
_atom_site_fract_y
_atom_site_fract_z
Si Si1 0.946751 0.921815 0.692210
Si Si2 0.697727 0.583497 0.060743
Si Si3 0.105604 0.928044 0.194782
Si Si4 0.206481 0.574680 0.190782
Si Si5 0.053484 0.580424 0.436520
Si Si6 0.907066 0.416242 0.062483
O O1 0.930606 0.750000 0.697642
O O2 0.000000 0.934495 0.696923
O O3 0.926293 0.019765 0.748643
O O4 0.929331 0.988454 0.624961
O O5 0.718666 0.750000 0.071970
O O6 0.710292 0.469619 0.116924
O O7 0.645206 0.602868 0.050717
O O8 0.719016 0.500000 0.000000
O O9 0.104641 0.750000 0.187539
O O10 0.156706 0.982024 0.212372
O O11 0.085642 0.994317 0.128757
O O12 0.210916 0.750000 0.201527
O O13 0.250000 0.500000 0.227036
O O14 0.072698 0.500000 0.500000
O O15 0.072307 0.750000 0.433305
O O16 0.000000 0.582080 0.438674
O O17 0.929191 0.250000 0.068457
O O18 0.928308 0.500000 0.000000
#
# Coordination Sequence:
#
# PCOD8279490 Si02
#       6
#    16  16  16  16  16  16
#     4  10  20  33  50  73 100 130 163 196 231 274
#     4   9  16  26  40  58  81 108 139 177 223 277
#     4  10  20  33  49  69  93 122 157 197 240 286
#     4  10  20  32  45  62  85 114 149 188 231 279
#     4   9  16  27  45  70 101 134 163 190 223 267
#     4   9  16  27  44  64  86 114 149 191 239 288
#
# _framework density 17.366933
#
# number of rings (size 3 to 8) (size 9 to 14) (size 15 to 20)
#    0.000    2.500    0.000    3.000    0.000    9.333 
#    0.000    1.667    0.000    0.500    0.000    0.000 
#    0.000    0.667    0.000    7.000    0.000    4.167 
#
# Total GULP energy -594812.333739 kJ/mol
# GULP energy per Si atom -12391.923620 kJ/mol
# Density = 1.732741 g / cm^3
# Si number density = 17.366933 Si / 1000 Ang^3
#
#
#
# Elastic Constant Matrix: (Units=GPa)
#
#
# Indices 1 2 3 4 5 6 
#
# 1 20.1995 16.5492 21.9297 0.0000 0.0000 0.0000
# 2 16.5492 90.3125 40.7364 0.0000 0.0000 0.0000
# 3 21.9297 40.7364 109.4461 0.0000 0.0000 0.0000
# 4 0.0000 0.0000 0.0000 29.8204 0.0000 0.0000
# 5 0.0000 0.0000 0.0000 0.0000 -5.6821 0.0000
# 6 0.0000 0.0000 0.0000 0.0000 0.0000 20.2716
#
#
#
# Elastic Compliance Matrix: (Units=1/GPa)
#
#
# Indices 1 2 3 4 5 6 
#
# 1 0.067252 -0.007505 -0.010682 0.000000 0.000000 0.000000
# 2 -0.007505 0.014144 -0.003761 0.000000 0.000000 0.000000
# 3 -0.010682 -0.003761 0.012677 0.000000 0.000000 0.000000
# 4 0.000000 0.000000 0.000000 0.033534 0.000000 0.000000
# 5 0.000000 0.000000 0.000000 0.000000 -0.175990 0.000000
# 6 0.000000 0.000000 0.000000 0.000000 0.000000 0.049330
#
#
# Mechanical properties :
#
#
# Convention : Reuss Voigt Hill
#
# Bulk Modulus (GPa) = 19.92923 42.04321 30.98622
# Shear Modulus (GPa) = 81.20912 18.26481 49.73697
#
# Velocity S-wave (km/s) = 6.84560 3.24651 5.35734
# Velocity P-wave (km/s) = 8.60136 6.18987 7.49326
#
# Compressibility (1/GPa) = 0.05017754
#
# Stress axis : x y z
#
# Youngs Moduli (GPa) = 14.86944 70.69985 78.88312
#
# Poissons Ratio (x) = 0.53063 0.84261
# Poissons Ratio (y) = 0.11160 0.29666
# Poissons Ratio (z) = 0.15883 0.26588
#
# Static dielectric constant tensor:
#      x y z
#    x 3.193750 0.000000 0.000000 
#    y 0.000000 3.541320 0.000000 
#    z 0.000000 0.000000 3.085780 
# 
# 
# High freq. dielectric constant tensor:
#      x y z
#    x 1.635320 0.000000 0.000000 
#    y 0.000000 1.693080 0.000000 
#    z 0.000000 0.000000 1.642550 
# 
# From -- ./inp_files/39888.got.cif
#   From: 2010.03.12/outbox.cif.g09.slc.cpg/sg67_20_cif.got.tgz:39888.got - 2010.04.10 22:41:39.
