data_PCOD8279745
_publ_section_title
;
Structure prediction by ZEFSAII (Michael W. Deem and Ramdas Pophale) SiO2 
 PCOD8279745
Probable space group: C M M A
;
_chemical_formula_sum "Si O2"
_cell_formula_units_Z 104
_cell_length_a 20.421499
_cell_length_b 8.944845
_cell_length_c 29.857026
_cell_angle_alpha 90.000000
_cell_angle_beta 90.000000
_cell_angle_gamma 90.000000
_cell_volume 5453.897645
_symmetry_space_group_name_H-M "C M M A"
_symmetry_group_IT_number 67
_symmetry_cell_setting 'orthorhombic'
loop_
_space_group_symop_operation_xyz
x,y,z
-x,1/2-y,z
x,-y,-z
-x,1/2+y,-z
-x,-y,-z
x,1/2+y,-z
-x,y,z
x,1/2-y,z
1/2+x,1/2+y,z
1/2-x,-y,z
1/2+x,1/2-y,-z
1/2-x,y,-z
1/2-x,1/2-y,-z
1/2+x,y,-z
1/2-x,1/2+y,z
1/2+x,-y,z
loop_
_atom_site_type_symbol
_atom_site_label
_atom_site_fract_x
_atom_site_fract_y
_atom_site_fract_z
Si Si1 0.320778 0.424515 0.858842
Si Si2 0.925814 0.077557 0.298451
Si Si3 0.000000 0.580478 0.454131
Si Si4 0.925000 0.925346 0.205607
Si Si5 0.819982 0.423208 0.041629
Si Si6 0.858387 0.573998 0.451332
Si Si7 0.813030 0.426015 0.365674
O O1 0.311310 0.250000 0.848714
O O2 0.250000 0.500000 0.851595
O O3 0.375252 0.491129 0.826678
O O4 0.350115 0.449636 0.909062
O O5 0.914956 0.250000 0.284741
O O6 0.877595 0.029018 0.338161
O O7 0.000000 0.050567 0.315380
O O8 0.909814 0.975508 0.255986
O O9 0.000000 0.500000 0.500000
O O10 0.068605 0.542577 0.430106
O O11 0.000000 0.750000 0.468546
O O12 0.912796 0.750000 0.201598
O O13 0.000000 0.967167 0.192889
O O14 0.812929 0.250000 0.030706
O O15 0.750000 0.500000 0.042915
O O16 0.860255 0.500000 0.000000
O O17 0.848388 0.500000 0.500000
O O18 0.842842 0.750000 0.455011
O O19 0.812296 0.494890 0.415560
O O20 0.804405 0.250000 0.368911
O O21 0.750000 0.500000 0.341214
#
# Coordination Sequence:
#
# PCOD8279745 Si02
#       7
#    16  16   8  16  16  16  16
#     4  10  20  33  52  80 112 147 187 232 281 333
#     4   9  20  40  63  84 107 141 183 225 272 327
#     4   8  16  30  50  78 108 138 172 214 258 300
#     4  10  21  37  58  84 112 144 183 227 277 333
#     4   9  16  26  43  69 102 141 183 227 276 326
#     4  10  20  36  57  83 114 147 183 221 265 315
#     4  11  24  40  59  84 114 147 182 221 269 322
#
# _framework density 19.068930999999999
#
# number of rings (size 3 to 8) (size 9 to 14) (size 15 to 20)
#    0.000    2.308    0.000    2.769    1.077    5.538 
#    0.000    3.077    0.000    0.462    0.000    0.000 
#    0.000    0.000    0.000    0.000    0.000    0.000 
#
# Total GULP energy -644333.330749 kJ/mol
# GULP energy per Si atom -12391.025591 kJ/mol
# Density = 1.902553 g / cm^3
# Si number density = 19.068931 Si / 1000 Ang^3
#
#
#
# Elastic Constant Matrix: (Units=GPa)
#
#
# Indices 1 2 3 4 5 6 
#
# 1 104.7086 58.1605 68.6519 0.0000 0.0000 0.0000
# 2 58.1605 113.5686 65.2694 0.0000 0.0000 0.0000
# 3 68.6519 65.2694 118.6870 0.0000 0.0000 0.0000
# 4 0.0000 0.0000 0.0000 17.9944 0.0000 0.0000
# 5 0.0000 0.0000 0.0000 0.0000 20.6375 0.0000
# 6 0.0000 0.0000 0.0000 0.0000 0.0000 29.6271
#
#
#
# Elastic Compliance Matrix: (Units=1/GPa)
#
#
# Indices 1 2 3 4 5 6 
#
# 1 0.016768 -0.004405 -0.007277 0.000000 0.000000 0.000000
# 2 -0.004405 0.014031 -0.005168 0.000000 0.000000 0.000000
# 3 -0.007277 -0.005168 0.015477 0.000000 0.000000 0.000000
# 4 0.000000 0.000000 0.000000 0.055573 0.000000 0.000000
# 5 0.000000 0.000000 0.000000 0.000000 0.048455 0.000000
# 6 0.000000 0.000000 0.000000 0.000000 0.000000 0.033753
#
#
# Mechanical properties :
#
#
# Convention : Reuss Voigt Hill
#
# Bulk Modulus (GPa) = 79.51549 80.12531 79.82040
# Shear Modulus (GPa) = 22.52766 23.31064 22.91915
#
# Velocity S-wave (km/s) = 3.44085 3.50013 3.47062
# Velocity P-wave (km/s) = 7.58785 7.64491 7.61643
#
# Compressibility (1/GPa) = 0.01257617
#
# Stress axis : x y z
#
# Youngs Moduli (GPa) = 59.63711 71.26823 64.61370
#
# Poissons Ratio (x) = 0.31396 0.47016
# Poissons Ratio (y) = 0.26272 0.33393
# Poissons Ratio (z) = 0.43395 0.36833
#
# Static dielectric constant tensor:
#      x y z
#    x 3.635420 0.000000 0.000000 
#    y 0.000000 3.595580 0.000000 
#    z 0.000000 0.000000 3.847130 
# 
# 
# High freq. dielectric constant tensor:
#      x y z
#    x 1.728890 0.000000 0.000000 
#    y 0.000000 1.755370 0.000000 
#    z 0.000000 0.000000 1.737690 
# 
# From -- ./inp_files/45862.got.cif
#   From: 2010.03.12/outbox.cif.g09.slc.cpg/sg67_23_cif.got.tgz:45862.got - 2010.04.10 22:41:39.
