data_PCOD8279069
_publ_section_title
;
Structure prediction by ZEFSAII (Michael W. Deem and Ramdas Pophale) SiO2 
 PCOD8279069
Probable space group: C M M A
;
_chemical_formula_sum "Si O2"
_cell_formula_units_Z 96
_cell_length_a 16.073093
_cell_length_b 20.913950
_cell_length_c 13.887608
_cell_angle_alpha 90.000000
_cell_angle_beta 90.000000
_cell_angle_gamma 90.000000
_cell_volume 4668.345307
_symmetry_space_group_name_H-M "C M M A"
_symmetry_group_IT_number 67
_symmetry_cell_setting 'orthorhombic'
loop_
_space_group_symop_operation_xyz
x,y,z
-x,1/2-y,z
x,-y,-z
-x,1/2+y,-z
-x,-y,-z
x,1/2+y,-z
-x,y,z
x,1/2-y,z
1/2+x,1/2+y,z
1/2-x,-y,z
1/2+x,1/2-y,-z
1/2-x,y,-z
1/2-x,1/2-y,-z
1/2+x,y,-z
1/2-x,1/2+y,z
1/2+x,-y,z
loop_
_atom_site_type_symbol
_atom_site_label
_atom_site_fract_x
_atom_site_fract_y
_atom_site_fract_z
Si Si1 0.097058 0.362885 0.311960
Si Si2 0.166283 0.750000 0.566553
Si Si3 0.901160 0.497922 0.391563
Si Si4 0.649269 0.676367 0.899458
Si Si5 0.404457 0.377679 0.288131
Si Si6 0.093483 0.750000 0.373984
Si Si7 0.344783 0.322834 0.886149
O O1 0.156420 0.311731 0.365170
O O2 0.128661 0.432054 0.344842
O O3 0.109891 0.362706 0.196866
O O4 0.000000 0.350361 0.336698
O O5 0.250000 0.750000 0.500000
O O6 0.091766 0.750000 0.489521
O O7 0.866430 0.500000 0.500000
O O8 0.863175 0.557640 0.330559
O O9 0.000000 0.501106 0.390556
O O10 0.621378 0.750000 0.881699
O O11 0.603245 0.627680 0.827278
O O12 0.746470 0.669473 0.880161
O O13 0.625259 0.654819 0.007743
O O14 0.500000 0.378882 0.320203
O O15 0.360862 0.314226 0.334411
O O16 0.000000 0.750000 0.333732
O O17 0.371386 0.250000 0.870651
#
# Coordination Sequence:
#
# PCOD8279069 Si02
#       7
#    16   8  16  16  16   8  16
#     4  11  22  39  61  84 114 154 201 243 287 350
#     4  12  26  36  57  87 114 149 186 245 293 338
#     4   9  19  37  57  78 112 157 194 234 294 351
#     4   9  18  34  57  83 119 150 184 238 302 359
#     4  10  19  32  57  86 111 147 190 239 288 340
#     4  10  20  34  55  83 111 142 190 240 282 331
#     4   9  19  35  57  83 112 154 188 233 304 358
#
# _framework density 20.564031
#
# number of rings (size 3 to 8) (size 9 to 14) (size 15 to 20)
#    0.000    2.167    1.667    2.750    2.333    3.333 
#    0.000    3.333    0.000    5.000    0.000    0.000 
#    0.000    0.000    0.000    0.000    0.000    0.000 
#
# Total GULP energy -594976.197433 kJ/mol
# GULP energy per Si atom -12395.337447 kJ/mol
# Density = 2.051723 g / cm^3
# Si number density = 20.564031 Si / 1000 Ang^3
#
#
#
# Elastic Constant Matrix: (Units=GPa)
#
#
# Indices 1 2 3 4 5 6 
#
# 1 33.3349 23.6539 15.9119 0.0000 0.0000 0.0000
# 2 23.6539 174.3422 94.5259 0.0000 0.0000 0.0000
# 3 15.9119 94.5259 176.1752 0.0000 0.0000 0.0000
# 4 0.0000 0.0000 0.0000 40.5620 0.0000 0.0000
# 5 0.0000 0.0000 0.0000 0.0000 33.6332 0.0000
# 6 0.0000 0.0000 0.0000 0.0000 0.0000 10.1953
#
#
#
# Elastic Compliance Matrix: (Units=1/GPa)
#
#
# Indices 1 2 3 4 5 6 
#
# 1 0.033279 -0.004069 -0.000822 0.000000 0.000000 0.000000
# 2 -0.004069 0.008587 -0.004240 0.000000 0.000000 0.000000
# 3 -0.000822 -0.004240 0.008025 0.000000 0.000000 0.000000
# 4 0.000000 0.000000 0.000000 0.024654 0.000000 0.000000
# 5 0.000000 0.000000 0.000000 0.000000 0.029733 0.000000
# 6 0.000000 0.000000 0.000000 0.000000 0.000000 0.098084
#
#
# Mechanical properties :
#
#
# Convention : Reuss Voigt Hill
#
# Bulk Modulus (GPa) = 31.61747 72.44841 52.03294
# Shear Modulus (GPa) = 21.62953 33.52880 27.57917
#
# Velocity S-wave (km/s) = 3.24669 4.04227 3.66613
# Velocity P-wave (km/s) = 5.42800 7.55604 6.57864
#
# Compressibility (1/GPa) = 0.03162808
#
# Stress axis : x y z
#
# Youngs Moduli (GPa) = 30.04933 116.46093 124.60819
#
# Poissons Ratio (x) = 0.47391 0.10247
# Poissons Ratio (y) = 0.12228 0.52828
# Poissons Ratio (z) = 0.02471 0.49374
#
# Static dielectric constant tensor:
#      x y z
#    x 3.308970 0.000000 0.000000 
#    y 0.000000 3.810730 0.000000 
#    z 0.000000 0.000000 3.978070 
# 
# 
# High freq. dielectric constant tensor:
#      x y z
#    x 1.774740 0.000000 0.000000 
#    y 0.000000 1.785790 0.000000 
#    z 0.000000 0.000000 1.819490 
# 
# From -- ./inp_files/27292.got.cif
#   From: 2010.03.12/outbox.cif.g09.slc.cpg/sg67_14_cif.got.tgz:27292.got - 2010.04.10 22:41:39.
