data_PCOD8279120
_publ_section_title
;
Structure prediction by ZEFSAII (Michael W. Deem and Ramdas Pophale) SiO2 
 PCOD8279120
Probable space group: C M M A
;
_chemical_formula_sum "Si O2"
_cell_formula_units_Z 96
_cell_length_a 8.915048
_cell_length_b 28.401904
_cell_length_c 20.632208
_cell_angle_alpha 90.000000
_cell_angle_beta 90.000000
_cell_angle_gamma 90.000000
_cell_volume 5224.164557
_symmetry_space_group_name_H-M "C M M A"
_symmetry_group_IT_number 67
_symmetry_cell_setting 'orthorhombic'
loop_
_space_group_symop_operation_xyz
x,y,z
-x,1/2-y,z
x,-y,-z
-x,1/2+y,-z
-x,-y,-z
x,1/2+y,-z
-x,y,z
x,1/2-y,z
1/2+x,1/2+y,z
1/2-x,-y,z
1/2+x,1/2-y,-z
1/2-x,y,-z
1/2-x,1/2-y,-z
1/2+x,y,-z
1/2-x,1/2+y,z
1/2+x,-y,z
loop_
_atom_site_type_symbol
_atom_site_label
_atom_site_fract_x
_atom_site_fract_y
_atom_site_fract_z
Si Si1 0.825450 0.453349 0.239149
Si Si2 0.325492 0.145198 0.434427
Si Si3 0.676194 0.696166 0.933211
Si Si4 0.826722 0.353752 0.184761
Si Si5 0.823557 0.047158 0.623327
Si Si6 0.173173 0.694520 0.304764
O O1 0.750000 0.500000 0.207921
O O2 0.801956 0.409765 0.190824
O O3 0.745918 0.441526 0.306826
O O4 0.000000 0.462900 0.252436
O O5 0.500000 0.153676 0.442630
O O6 0.250000 0.163582 0.500000
O O7 0.286130 0.090323 0.423958
O O8 0.266562 0.175494 0.373585
O O9 0.500000 0.690580 0.940248
O O10 0.721555 0.750000 0.917345
O O11 0.732161 0.662941 0.876266
O O12 0.750000 0.679309 0.000000
O O13 0.773130 0.327784 0.249099
O O14 0.000000 0.341227 0.173706
O O15 0.000000 0.039871 0.631626
O O16 0.750000 0.000000 0.593387
O O17 0.192754 0.750000 0.302774
O O18 0.000000 0.679534 0.294118
#
# Coordination Sequence:
#
# PCOD8279120 Si02
#       6
#    16  16  16  16  16  16
#     4  10  20  33  53  81 110 142 178 221 270 321
#     4  10  22  37  53  74 102 138 178 224 276 329
#     4  10  21  37  58  85 118 155 190 225 268 318
#     4  11  22  35  56  86 116 145 181 225 272 321
#     4  10  19  33  53  76 103 135 172 219 273 328
#     4  10  21  38  57  77 104 140 183 227 273 326
#
# _framework density 18.376145000000001
#
# number of rings (size 3 to 8) (size 9 to 14) (size 15 to 20)
#    0.000    1.833    1.667    3.500    0.000    8.000 
#    0.000    1.667    0.000    0.500    0.000    3.500 
#    0.000    0.000    0.000    0.000    0.000    0.000 
#
# Total GULP energy -595315.459913 kJ/mol
# GULP energy per Si atom -12402.405415 kJ/mol
# Density = 1.833432 g / cm^3
# Si number density = 18.376145 Si / 1000 Ang^3
#
#
#
# Elastic Constant Matrix: (Units=GPa)
#
#
# Indices 1 2 3 4 5 6 
#
# 1 81.0153 37.4387 37.3747 0.0000 0.0000 0.0000
# 2 37.4387 74.2580 44.9393 0.0000 0.0000 0.0000
# 3 37.3747 44.9393 110.0602 0.0000 0.0000 0.0000
# 4 0.0000 0.0000 0.0000 -28.3059 0.0000 0.0000
# 5 0.0000 0.0000 0.0000 0.0000 30.5784 0.0000
# 6 0.0000 0.0000 0.0000 0.0000 0.0000 26.5477
#
#
#
# Elastic Compliance Matrix: (Units=1/GPa)
#
#
# Indices 1 2 3 4 5 6 
#
# 1 0.016799 -0.006664 -0.002984 0.000000 0.000000 0.000000
# 2 -0.006664 0.020530 -0.006120 0.000000 0.000000 0.000000
# 3 -0.002984 -0.006120 0.012598 0.000000 0.000000 0.000000
# 4 0.000000 0.000000 0.000000 -0.035328 0.000000 0.000000
# 5 0.000000 0.000000 0.000000 0.000000 0.032703 0.000000
# 6 0.000000 0.000000 0.000000 0.000000 0.000000 0.037668
#
#
# Mechanical properties :
#
#
# Convention : Reuss Voigt Hill
#
# Bulk Modulus (GPa) = 54.37076 56.09321 55.23199
# Shear Modulus (GPa) = 40.77124 15.46944 28.12034
#
# Velocity S-wave (km/s) = 4.71542 2.90456 3.91610
# Velocity P-wave (km/s) = 7.70058 6.46838 7.11122
#
# Compressibility (1/GPa) = 0.01839224
#
# Stress axis : x y z
#
# Youngs Moduli (GPa) = 59.52583 48.70954 79.37805
#
# Poissons Ratio (x) = 0.32460 0.23685
# Poissons Ratio (y) = 0.39668 0.48577
# Poissons Ratio (z) = 0.17761 0.29809
#
# Static dielectric constant tensor:
#      x y z
#    x 3.314300 0.000000 0.000000 
#    y 0.000000 3.577610 0.000000 
#    z 0.000000 0.000000 3.418160 
# 
# 
# High freq. dielectric constant tensor:
#      x y z
#    x 1.722340 0.000000 0.000000 
#    y 0.000000 1.717590 0.000000 
#    z 0.000000 0.000000 1.696860 
# 
# From -- ./inp_files/37127.got.cif
#   From: 2010.03.12/outbox.cif.g09.slc.cpg/sg67_19_cif.got.tgz:37127.got - 2010.04.10 22:41:39.
