data_PCOD8279658
_publ_section_title
;
Structure prediction by ZEFSAII (Michael W. Deem and Ramdas Pophale) SiO2 
 PCOD8279658
Probable space group: C M M A
;
_chemical_formula_sum "Si O2"
_cell_formula_units_Z 96
_cell_length_a 19.208619
_cell_length_b 8.946277
_cell_length_c 31.057837
_cell_angle_alpha 90.000000
_cell_angle_beta 90.000000
_cell_angle_gamma 90.000000
_cell_volume 5337.153453
_symmetry_space_group_name_H-M "C M M A"
_symmetry_group_IT_number 67
_symmetry_cell_setting 'orthorhombic'
loop_
_space_group_symop_operation_xyz
x,y,z
-x,1/2-y,z
x,-y,-z
-x,1/2+y,-z
-x,-y,-z
x,1/2+y,-z
-x,y,z
x,1/2-y,z
1/2+x,1/2+y,z
1/2-x,-y,z
1/2+x,1/2-y,-z
1/2-x,y,-z
1/2-x,1/2-y,-z
1/2+x,y,-z
1/2-x,1/2+y,z
1/2+x,-y,z
loop_
_atom_site_type_symbol
_atom_site_label
_atom_site_fract_x
_atom_site_fract_y
_atom_site_fract_z
Si Si1 0.676710 0.072570 0.955792
Si Si2 0.918214 0.076477 0.294198
Si Si3 0.917224 0.918470 0.208288
Si Si4 0.079733 0.575957 0.876996
Si Si5 0.675536 0.076870 0.459957
Si Si6 0.824809 0.924228 0.364555
O O1 0.684943 0.250000 0.961447
O O2 0.622207 0.029264 0.919041
O O3 0.750000 0.000000 0.942956
O O4 0.648921 0.000000 0.000000
O O5 0.899787 0.250000 0.295731
O O6 0.000000 0.046558 0.299124
O O7 0.889704 0.011787 0.249062
O O8 0.880692 0.993524 0.332848
O O9 0.889203 0.750000 0.212163
O O10 0.000000 0.924520 0.207358
O O11 0.888635 0.989692 0.164121
O O12 0.086740 0.750000 0.866734
O O13 0.000000 0.530434 0.885588
O O14 0.683382 0.250000 0.470535
O O15 0.642821 0.051446 0.412613
O O16 0.632912 0.000000 0.500000
O O17 0.750000 0.000000 0.458379
O O18 0.815085 0.750000 0.354594
O O19 0.750000 0.000000 0.358619
#
# Coordination Sequence:
#
# PCOD8279658 Si02
#       6
#    16  16  16  16  16  16
#     4  10  20  34  52  72  98 132 165 198 237 285
#     4  10  20  34  53  75 100 133 170 206 247 298
#     4   9  17  30  50  75 100 127 161 202 246 292
#     4   9  18  33  52  74  99 126 159 201 246 288
#     4   9  16  26  43  67  94 125 160 199 243 291
#     4  10  20  33  50  74 103 132 164 206 252 296
#
# _framework density 17.987117000000001
#
# number of rings (size 3 to 8) (size 9 to 14) (size 15 to 20)
#    0.000    2.500    0.000    3.500    0.000    6.667 
#    0.000    0.833    0.000    2.500    0.000    0.000 
#    0.000    0.000    0.000    0.000    0.000    0.000 
#
# Total GULP energy -595016.464905 kJ/mol
# GULP energy per Si atom -12396.176352 kJ/mol
# Density = 1.794618 g / cm^3
# Si number density = 17.987117 Si / 1000 Ang^3
#
#
#
# Elastic Constant Matrix: (Units=GPa)
#
#
# Indices 1 2 3 4 5 6 
#
# 1 41.9629 41.3849 57.8165 0.0000 0.0000 0.0000
# 2 41.3849 134.3402 93.3444 0.0000 0.0000 0.0000
# 3 57.8165 93.3444 182.7121 0.0000 0.0000 0.0000
# 4 0.0000 0.0000 0.0000 37.7568 0.0000 0.0000
# 5 0.0000 0.0000 0.0000 0.0000 35.0117 0.0000
# 6 0.0000 0.0000 0.0000 0.0000 0.0000 22.7693
#
#
#
# Elastic Compliance Matrix: (Units=1/GPa)
#
#
# Indices 1 2 3 4 5 6 
#
# 1 0.045356 -0.006201 -0.011184 0.000000 0.000000 0.000000
# 2 -0.006201 0.012388 -0.004367 0.000000 0.000000 0.000000
# 3 -0.011184 -0.004367 0.011243 0.000000 0.000000 0.000000
# 4 0.000000 0.000000 0.000000 0.026485 0.000000 0.000000
# 5 0.000000 0.000000 0.000000 0.000000 0.028562 0.000000
# 6 0.000000 0.000000 0.000000 0.000000 0.000000 0.043919
#
#
# Mechanical properties :
#
#
# Convention : Reuss Voigt Hill
#
# Bulk Modulus (GPa) = 39.24167 82.67856 60.96011
# Shear Modulus (GPa) = 22.73230 30.20552 26.46891
#
# Velocity S-wave (km/s) = 3.55887 4.10236 3.84024
# Velocity P-wave (km/s) = 6.22505 8.27673 7.32310
#
# Compressibility (1/GPa) = 0.02548312
#
# Stress axis : x y z
#
# Youngs Moduli (GPa) = 22.04788 80.72167 88.94449
#
# Poissons Ratio (x) = 0.50057 0.99476
# Poissons Ratio (y) = 0.13672 0.38839
# Poissons Ratio (z) = 0.24659 0.35248
#
# Static dielectric constant tensor:
#      x y z
#    x 2.917140 0.000000 0.000000 
#    y 0.000000 3.492520 0.000000 
#    z 0.000000 0.000000 3.940840 
# 
# 
# High freq. dielectric constant tensor:
#      x y z
#    x 1.645780 0.000000 0.000000 
#    y 0.000000 1.713750 0.000000 
#    z 0.000000 0.000000 1.718700 
# 
# From -- ./inp_files/44617.got.cif
#   From: 2010.03.12/outbox.cif.g09.slc.cpg/sg67_23_cif.got.tgz:44617.got - 2010.04.10 22:41:39.
