data_PCOD8279915
_publ_section_title
;
Structure prediction by ZEFSAII (Michael W. Deem and Ramdas Pophale) SiO2 
 PCOD8279915
Probable space group: C M M A
;
_chemical_formula_sum "Si O2"
_cell_formula_units_Z 96
_cell_length_a 8.832964
_cell_length_b 18.595934
_cell_length_c 30.798566
_cell_angle_alpha 90.000000
_cell_angle_beta 90.000000
_cell_angle_gamma 90.000000
_cell_volume 5058.886695
_symmetry_space_group_name_H-M "C M M A"
_symmetry_group_IT_number 67
_symmetry_cell_setting 'orthorhombic'
loop_
_space_group_symop_operation_xyz
x,y,z
-x,1/2-y,z
x,-y,-z
-x,1/2+y,-z
-x,-y,-z
x,1/2+y,-z
-x,y,z
x,1/2-y,z
1/2+x,1/2+y,z
1/2-x,-y,z
1/2+x,1/2-y,-z
1/2-x,y,-z
1/2-x,1/2-y,-z
1/2+x,y,-z
1/2-x,1/2+y,z
1/2+x,-y,z
loop_
_atom_site_type_symbol
_atom_site_label
_atom_site_fract_x
_atom_site_fract_y
_atom_site_fract_z
Si Si1 0.178837 0.668251 0.544660
Si Si2 0.678515 0.421995 0.626606
Si Si3 0.674972 0.166653 0.298106
Si Si4 0.819871 0.576975 0.874965
Si Si5 0.322756 0.576037 0.786006
Si Si6 0.678126 0.331739 0.956490
O O1 0.232570 0.750000 0.554068
O O2 0.250000 0.639409 0.500000
O O3 0.238358 0.617512 0.583243
O O4 0.000000 0.664533 0.540439
O O5 0.500000 0.430889 0.625550
O O6 0.750000 0.500000 0.630515
O O7 0.721873 0.373764 0.667427
O O8 0.500000 0.155807 0.310851
O O9 0.720634 0.250000 0.297365
O O10 0.708931 0.134296 0.250952
O O11 0.750000 0.500000 0.884766
O O12 0.753934 0.606903 0.829664
O O13 0.763972 0.627638 0.913822
O O14 0.000000 0.572618 0.871826
O O15 0.500000 0.563693 0.794085
O O16 0.250000 0.500000 0.772282
O O17 0.500000 0.338061 0.960997
O O18 0.733284 0.250000 0.951509
O O19 0.750000 0.366132 0.000000
#
# Coordination Sequence:
#
# PCOD8279915 Si02
#       6
#    16  16  16  16  16  16
#     4   9  19  36  57  81 109 142 181 224 270 321
#     4  11  23  38  57  82 112 146 185 227 271 321
#     4  10  22  39  58  82 111 142 179 223 270 322
#     4  10  20  34  53  77 105 136 172 214 259 310
#     4  10  20  35  55  78 106 139 175 215 261 314
#     4   9  19  35  53  74 101 134 172 213 257 306
#
# _framework density 18.976507000000002
#
# number of rings (size 3 to 8) (size 9 to 14) (size 15 to 20)
#    0.000    2.167    0.000    3.500    0.000    7.667 
#    0.000    5.000    0.000    0.000    0.000    0.000 
#    0.000    0.000    0.000    0.000    0.000    0.000 
#
# Total GULP energy -595311.893403 kJ/mol
# GULP energy per Si atom -12402.331113 kJ/mol
# Density = 1.893332 g / cm^3
# Si number density = 18.976507 Si / 1000 Ang^3
#
#
#
# Elastic Constant Matrix: (Units=GPa)
#
#
# Indices 1 2 3 4 5 6 
#
# 1 63.5979 38.2402 51.8815 0.0000 0.0000 0.0000
# 2 38.2402 112.8006 85.4609 0.0000 0.0000 0.0000
# 3 51.8815 85.4609 159.8746 0.0000 0.0000 0.0000
# 4 0.0000 0.0000 0.0000 41.8617 0.0000 0.0000
# 5 0.0000 0.0000 0.0000 0.0000 35.1654 0.0000
# 6 0.0000 0.0000 0.0000 0.0000 0.0000 17.5222
#
#
#
# Elastic Compliance Matrix: (Units=1/GPa)
#
#
# Indices 1 2 3 4 5 6 
#
# 1 0.022165 -0.003470 -0.005338 0.000000 0.000000 0.000000
# 2 -0.003470 0.015442 -0.007129 0.000000 0.000000 0.000000
# 3 -0.005338 -0.007129 0.011798 0.000000 0.000000 0.000000
# 4 0.000000 0.000000 0.000000 0.023888 0.000000 0.000000
# 5 0.000000 0.000000 0.000000 0.000000 0.028437 0.000000
# 6 0.000000 0.000000 0.000000 0.000000 0.000000 0.057070
#
#
# Mechanical properties :
#
#
# Convention : Reuss Voigt Hill
#
# Bulk Modulus (GPa) = 57.03886 76.38204 66.71045
# Shear Modulus (GPa) = 25.44301 29.62255 27.53278
#
# Velocity S-wave (km/s) = 3.66562 3.95525 3.81318
# Velocity P-wave (km/s) = 6.93098 7.82284 7.39038
#
# Compressibility (1/GPa) = 0.01753191
#
# Stress axis : x y z
#
# Youngs Moduli (GPa) = 45.11681 64.75661 84.76144
#
# Poissons Ratio (x) = 0.22469 0.45245
# Poissons Ratio (y) = 0.15655 0.60424
# Poissons Ratio (z) = 0.24083 0.46163
#
# Static dielectric constant tensor:
#      x y z
#    x 4.206610 0.000000 0.000000 
#    y 0.000000 3.516020 0.000000 
#    z 0.000000 0.000000 3.724910 
# 
# 
# High freq. dielectric constant tensor:
#      x y z
#    x 1.738880 0.000000 0.000000 
#    y 0.000000 1.734110 0.000000 
#    z 0.000000 0.000000 1.752860 
# 
# From -- ./inp_files/43473.got.cif
#   From: 2010.03.12/outbox.cif.g09.slc.cpg/sg67_22_cif.got.tgz:43473.got - 2010.04.10 22:41:39.
