data_PCOD8279806
_publ_section_title
;
Structure prediction by ZEFSAII (Michael W. Deem and Ramdas Pophale) SiO2 
 PCOD8279806
Probable space group: C M M A
;
_chemical_formula_sum "Si O2"
_cell_formula_units_Z 80
_cell_length_a 16.198404
_cell_length_b 17.960230
_cell_length_c 13.933881
_cell_angle_alpha 90.000000
_cell_angle_beta 90.000000
_cell_angle_gamma 90.000000
_cell_volume 4053.743054
_symmetry_space_group_name_H-M "C M M A"
_symmetry_group_IT_number 67
_symmetry_cell_setting 'orthorhombic'
loop_
_space_group_symop_operation_xyz
x,y,z
-x,1/2-y,z
x,-y,-z
-x,1/2+y,-z
-x,-y,-z
x,1/2+y,-z
-x,y,z
x,1/2-y,z
1/2+x,1/2+y,z
1/2-x,-y,z
1/2+x,1/2-y,-z
1/2-x,y,-z
1/2-x,1/2-y,-z
1/2+x,y,-z
1/2-x,1/2+y,z
1/2+x,-y,z
loop_
_atom_site_type_symbol
_atom_site_label
_atom_site_fract_x
_atom_site_fract_y
_atom_site_fract_z
Si Si1 0.097596 0.164466 0.408649
Si Si2 0.405280 0.112306 0.388374
Si Si3 0.344190 0.023385 0.100055
Si Si4 0.902795 0.333832 0.814107
Si Si5 0.343822 0.027780 0.698612
O O1 0.117679 0.250000 0.384798
O O2 0.134501 0.143913 0.513804
O O3 0.145934 0.113510 0.331629
O O4 0.000000 0.148339 0.401651
O O5 0.500000 0.133804 0.395076
O O6 0.368139 0.152668 0.293945
O O7 0.392674 0.023336 0.378252
O O8 0.354553 0.112291 0.112771
O O9 0.250000 0.000000 0.091992
O O10 0.382641 0.982915 0.194368
O O11 0.388980 0.000000 0.000000
O O12 0.883523 0.250000 0.846127
O O13 0.000000 0.351815 0.818138
O O14 0.250000 0.000000 0.698988
#
# Coordination Sequence:
#
# PCOD8279806 Si02
#       5
#    16  16  16  16  16
#     4  10  20  34  52  75 105 139 170 199 239 297
#     4   9  17  31  52  74  99 136 176 206 236 286
#     4   9  19  37  55  72  97 133 173 206 247 306
#     4   9  17  31  53  80 104 126 163 216 258 284
#     4  10  20  34  51  74 101 131 169 210 253 297
#
# _framework density 19.734848
#
# number of rings (size 3 to 8) (size 9 to 14) (size 15 to 20)
#    0.000    2.600    0.000    1.800    0.000    6.800 
#    0.000   14.000    0.000    2.400    0.000    0.000 
#    0.000    0.000    0.000    0.000    0.000    0.000 
#
# Total GULP energy -495776.538258 kJ/mol
# GULP energy per Si atom -12394.413456 kJ/mol
# Density = 1.968993 g / cm^3
# Si number density = 19.734848 Si / 1000 Ang^3
#
#
#
# Elastic Constant Matrix: (Units=GPa)
#
#
# Indices 1 2 3 4 5 6 
#
# 1 34.5717 35.1545 24.2847 0.0000 0.0000 0.0000
# 2 35.1545 176.2135 86.6441 0.0000 0.0000 0.0000
# 3 24.2847 86.6441 136.2994 0.0000 0.0000 0.0000
# 4 0.0000 0.0000 0.0000 22.7842 0.0000 0.0000
# 5 0.0000 0.0000 0.0000 0.0000 98.5238 0.0000
# 6 0.0000 0.0000 0.0000 0.0000 0.0000 30.6014
#
#
#
# Elastic Compliance Matrix: (Units=1/GPa)
#
#
# Indices 1 2 3 4 5 6 
#
# 1 0.036988 -0.006021 -0.002763 0.000000 0.000000 0.000000
# 2 -0.006021 0.009235 -0.004798 0.000000 0.000000 0.000000
# 3 -0.002763 -0.004798 0.010879 0.000000 0.000000 0.000000
# 4 0.000000 0.000000 0.000000 0.043890 0.000000 0.000000
# 5 0.000000 0.000000 0.000000 0.000000 0.010150 0.000000
# 6 0.000000 0.000000 0.000000 0.000000 0.000000 0.032678
#
#
# Mechanical properties :
#
#
# Convention : Reuss Voigt Hill
#
# Bulk Modulus (GPa) = 33.40084 71.02793 52.21439
# Shear Modulus (GPa) = 27.62981 43.78196 35.70589
#
# Velocity S-wave (km/s) = 3.74579 4.71522 4.25818
# Velocity P-wave (km/s) = 5.97239 8.10639 7.11980
#
# Compressibility (1/GPa) = 0.02993936
#
# Stress axis : x y z
#
# Youngs Moduli (GPa) = 27.03556 108.28101 91.91881
#
# Poissons Ratio (x) = 0.65191 0.25398
# Poissons Ratio (y) = 0.16277 0.44103
# Poissons Ratio (z) = 0.07470 0.51954
#
# Static dielectric constant tensor:
#      x y z
#    x 3.250740 0.000000 0.000000 
#    y 0.000000 3.563060 0.000000 
#    z 0.000000 0.000000 4.110410 
# 
# 
# High freq. dielectric constant tensor:
#      x y z
#    x 1.738820 0.000000 0.000000 
#    y 0.000000 1.766460 0.000000 
#    z 0.000000 0.000000 1.764860 
# 
# From -- ./inp_files/26984.got.cif
#   From: 2010.03.12/outbox.cif.g09.slc.cpg/sg67_14_cif.got.tgz:26984.got - 2010.04.10 22:41:39.
