data_PCOD8279234
_publ_section_title
;
Structure prediction by ZEFSAII (Michael W. Deem and Ramdas Pophale) SiO2 
 PCOD8279234
Probable space group: C M M A
;
_chemical_formula_sum "Si O2"
_cell_formula_units_Z 96
_cell_length_a 8.658197
_cell_length_b 28.796194
_cell_length_c 20.660815
_cell_angle_alpha 90.000000
_cell_angle_beta 90.000000
_cell_angle_gamma 90.000000
_cell_volume 5151.218868
_symmetry_space_group_name_H-M "C M M A"
_symmetry_group_IT_number 67
_symmetry_cell_setting 'orthorhombic'
loop_
_space_group_symop_operation_xyz
x,y,z
-x,1/2-y,z
x,-y,-z
-x,1/2+y,-z
-x,-y,-z
x,1/2+y,-z
-x,y,z
x,1/2-y,z
1/2+x,1/2+y,z
1/2-x,-y,z
1/2+x,1/2-y,-z
1/2-x,y,-z
1/2-x,1/2-y,-z
1/2+x,y,-z
1/2-x,1/2+y,z
1/2+x,-y,z
loop_
_atom_site_type_symbol
_atom_site_label
_atom_site_fract_x
_atom_site_fract_y
_atom_site_fract_z
Si Si1 0.679796 0.196017 0.068976
Si Si2 0.682597 0.951545 0.769102
Si Si3 0.817546 0.640058 0.814449
Si Si4 0.315930 0.197716 0.691300
Si Si5 0.681947 0.452445 0.628272
Si Si6 0.818947 0.642864 0.567626
O O1 0.500000 0.183021 0.070464
O O2 0.706932 0.250000 0.084276
O O3 0.772848 0.166734 0.121044
O O4 0.750000 0.182635 0.000000
O O5 0.500000 0.954704 0.768076
O O6 0.737822 0.910284 0.815755
O O7 0.743988 0.941436 0.697321
O O8 0.750000 0.000000 0.795913
O O9 0.754705 0.669108 0.752934
O O10 0.000000 0.633467 0.810696
O O11 0.500000 0.197472 0.691145
O O12 0.251131 0.250000 0.695513
O O13 0.251227 0.174196 0.625757
O O14 0.500000 0.457236 0.638538
O O15 0.750000 0.500000 0.598542
O O16 0.724709 0.410911 0.579748
O O17 0.750000 0.659948 0.500000
O O18 0.000000 0.649751 0.564267
#
# Coordination Sequence:
#
# PCOD8279234 Si02
#       6
#    16  16  16  16  16  16
#     4  10  21  37  57  86 123 159 196 235 278 329
#     4  11  21  34  55  83 113 145 182 227 279 333
#     4  11  20  35  59  86 115 148 189 232 280 333
#     4   9  18  34  55  77 104 140 182 226 274 330
#     4  10  19  34  53  76 104 136 175 224 278 338
#     4  10  21  36  52  73 103 138 181 227 278 335
#
# _framework density 18.636365000000001
#
# number of rings (size 3 to 8) (size 9 to 14) (size 15 to 20)
#    0.000    1.833    1.667    4.500    0.000    3.667 
#    0.000    1.667    0.000    2.500    0.000    3.500 
#    0.000    0.000    0.000    0.000    0.000    0.000 
#
# Total GULP energy -595320.741323 kJ/mol
# GULP energy per Si atom -12402.515444 kJ/mol
# Density = 1.859395 g / cm^3
# Si number density = 18.636365 Si / 1000 Ang^3
#
#
#
# Elastic Constant Matrix: (Units=GPa)
#
#
# Indices 1 2 3 4 5 6 
#
# 1 79.0060 41.5268 24.0746 0.0000 0.0000 0.0000
# 2 41.5268 124.2917 62.0175 0.0000 0.0000 0.0000
# 3 24.0746 62.0175 108.6647 0.0000 0.0000 0.0000
# 4 0.0000 0.0000 0.0000 -2.5766 0.0000 0.0000
# 5 0.0000 0.0000 0.0000 0.0000 30.7783 0.0000
# 6 0.0000 0.0000 0.0000 0.0000 0.0000 25.3843
#
#
#
# Elastic Compliance Matrix: (Units=1/GPa)
#
#
# Indices 1 2 3 4 5 6 
#
# 1 0.015388 -0.004810 -0.000664 0.000000 0.000000 0.000000
# 2 -0.004810 0.012752 -0.006212 0.000000 0.000000 0.000000
# 3 -0.000664 -0.006212 0.012895 0.000000 0.000000 0.000000
# 4 0.000000 0.000000 0.000000 -0.388103 0.000000 0.000000
# 5 0.000000 0.000000 0.000000 0.000000 0.032490 0.000000
# 6 0.000000 0.000000 0.000000 0.000000 0.000000 0.039394
#
#
# Mechanical properties :
#
#
# Convention : Reuss Voigt Hill
#
# Bulk Modulus (GPa) = 56.61626 63.02223 59.81925
# Shear Modulus (GPa) = -20.33160 23.00676 1.33758
#
# Velocity S-wave (km/s) = -3.30656 3.51737 0.84811
# Velocity P-wave (km/s) = 3.98342 7.09831 5.75559
#
# Compressibility (1/GPa) = 0.01766277
#
# Stress axis : x y z
#
# Youngs Moduli (GPa) = 64.98681 78.41654 77.54731
#
# Poissons Ratio (x) = 0.37717 0.05150
# Poissons Ratio (y) = 0.31257 0.48176
# Poissons Ratio (z) = 0.04316 0.48716
#
# Static dielectric constant tensor:
#      x y z
#    x 3.309690 0.000000 0.000000 
#    y 0.000000 3.649670 0.000000 
#    z 0.000000 0.000000 3.322900 
# 
# 
# High freq. dielectric constant tensor:
#      x y z
#    x 1.717850 0.000000 0.000000 
#    y 0.000000 1.731740 0.000000 
#    z 0.000000 0.000000 1.708040 
# 
# From -- ./inp_files/37164.got.cif
#   From: 2010.03.12/outbox.cif.g09.slc.cpg/sg67_19_cif.got.tgz:37164.got - 2010.04.10 22:41:39.
