data_PCOD8279693
_publ_section_title
;
Structure prediction by ZEFSAII (Michael W. Deem and Ramdas Pophale) SiO2 
 PCOD8279693
Probable space group: C M M A
;
_chemical_formula_sum "Si O2"
_cell_formula_units_Z 80
_cell_length_a 23.937618
_cell_length_b 9.445110
_cell_length_c 20.261512
_cell_angle_alpha 90.000000
_cell_angle_beta 90.000000
_cell_angle_gamma 90.000000
_cell_volume 4580.994849
_symmetry_space_group_name_H-M "C M M A"
_symmetry_group_IT_number 67
_symmetry_cell_setting 'orthorhombic'
loop_
_space_group_symop_operation_xyz
x,y,z
-x,1/2-y,z
x,-y,-z
-x,1/2+y,-z
-x,-y,-z
x,1/2+y,-z
-x,y,z
x,1/2-y,z
1/2+x,1/2+y,z
1/2-x,-y,z
1/2+x,1/2-y,-z
1/2-x,y,-z
1/2-x,1/2-y,-z
1/2+x,y,-z
1/2-x,1/2+y,z
1/2+x,-y,z
loop_
_atom_site_type_symbol
_atom_site_label
_atom_site_fract_x
_atom_site_fract_y
_atom_site_fract_z
Si Si1 0.500000 0.091878 0.256800
Si Si2 0.193397 0.416431 0.690486
Si Si3 0.378597 0.417775 0.438220
Si Si4 0.500000 0.406755 0.411369
Si Si5 0.935777 0.586016 0.063897
Si Si6 0.610907 0.082868 0.200258
O O1 0.500000 0.250000 0.224902
O O2 0.500000 0.102468 0.333836
O O3 0.555680 0.012151 0.232402
O O4 0.206458 0.250000 0.692765
O O5 0.250000 0.500000 0.680470
O O6 0.153231 0.454200 0.629316
O O7 0.165169 0.471132 0.759506
O O8 0.350137 0.500000 0.500000
O O9 0.377189 0.250000 0.450668
O O10 0.442205 0.480204 0.433738
O O11 0.500000 0.250000 0.441612
O O12 0.930794 0.750000 0.046005
O O13 0.891952 0.545685 0.122351
O O14 0.000000 0.549451 0.084389
O O15 0.916709 0.500000 0.000000
O O16 0.608819 0.250000 0.212266
#
# Coordination Sequence:
#
# PCOD8279693 Si02
#       6
#     8  16  16   8  16  16
#     4   9  12  21  46  75  95 116 155 202 238 276
#     4  10  21  36  53  72  93 123 166 209 243 278
#     4  10  20  33  51  74  99 126 156 195 243 292
#     4   9  15  27  48  75 101 122 151 194 241 290
#     4   9  16  26  44  73 105 131 154 185 230 285
#     4   9  15  27  49  74  97 124 161 200 236 280
#
# _framework density 17.463455
#
# number of rings (size 3 to 8) (size 9 to 14) (size 15 to 20)
#    0.000    2.600    3.000    0.300    0.000    1.200 
#    0.000    3.000    0.000    0.600    0.000    4.200 
#    0.000    0.000    0.000    0.000    0.000    0.000 
#
# Total GULP energy -495539.240723 kJ/mol
# GULP energy per Si atom -12388.481018 kJ/mol
# Density = 1.742371 g / cm^3
# Si number density = 17.463455 Si / 1000 Ang^3
#
#
#
# Elastic Constant Matrix: (Units=GPa)
#
#
# Indices 1 2 3 4 5 6 
#
# 1 101.2152 35.1035 57.7678 0.0000 0.0000 0.0000
# 2 35.1035 31.7479 44.2315 0.0000 0.0000 0.0000
# 3 57.7678 44.2315 130.3957 0.0000 0.0000 0.0000
# 4 0.0000 0.0000 0.0000 26.2411 0.0000 0.0000
# 5 0.0000 0.0000 0.0000 0.0000 62.2607 0.0000
# 6 0.0000 0.0000 0.0000 0.0000 0.0000 13.1069
#
#
#
# Elastic Compliance Matrix: (Units=1/GPa)
#
#
# Indices 1 2 3 4 5 6 
#
# 1 0.016324 -0.015119 -0.002103 0.000000 0.000000 0.000000
# 2 -0.015119 0.073726 -0.018310 0.000000 0.000000 0.000000
# 3 -0.002103 -0.018310 0.014812 0.000000 0.000000 0.000000
# 4 0.000000 0.000000 0.000000 0.038108 0.000000 0.000000
# 5 0.000000 0.000000 0.000000 0.000000 0.016061 0.000000
# 6 0.000000 0.000000 0.000000 0.000000 0.000000 0.076296
#
#
# Mechanical properties :
#
#
# Convention : Reuss Voigt Hill
#
# Bulk Modulus (GPa) = 29.58942 59.72940 44.65941
# Shear Modulus (GPa) = 15.74023 28.73881 22.23952
#
# Velocity S-wave (km/s) = 3.00546 4.06107 3.57247
# Velocity P-wave (km/s) = 5.38741 7.50110 6.53034
#
# Compressibility (1/GPa) = 0.03379587
#
# Stress axis : x y z
#
# Youngs Moduli (GPa) = 61.25958 13.56382 67.51354
#
# Poissons Ratio (x) = 0.20507 0.14200
# Poissons Ratio (y) = 0.92619 1.23620
# Poissons Ratio (z) = 0.12885 0.24836
#
# Static dielectric constant tensor:
#      x y z
#    x 3.231280 0.000000 0.000000 
#    y 0.000000 2.857050 0.000000 
#    z 0.000000 0.000000 3.346430 
# 
# 
# High freq. dielectric constant tensor:
#      x y z
#    x 1.657700 0.000000 0.000000 
#    y 0.000000 1.624310 0.000000 
#    z 0.000000 0.000000 1.687170 
# 
# From -- ./inp_files/32887.got.cif
#   From: 2010.03.12/outbox.cif.g09.slc.cpg/sg67_17_cif.got.tgz:32887.got - 2010.04.10 22:41:39.
