data_PCOD8279918
_publ_section_title
;
Structure prediction by ZEFSAII (Michael W. Deem and Ramdas Pophale) SiO2 
 PCOD8279918
Probable space group: C M M A
;
_chemical_formula_sum "Si O2"
_cell_formula_units_Z 96
_cell_length_a 20.026787
_cell_length_b 8.755765
_cell_length_c 29.866560
_cell_angle_alpha 90.000000
_cell_angle_beta 90.000000
_cell_angle_gamma 90.000000
_cell_volume 5237.096538
_symmetry_space_group_name_H-M "C M M A"
_symmetry_group_IT_number 67
_symmetry_cell_setting 'orthorhombic'
loop_
_space_group_symop_operation_xyz
x,y,z
-x,1/2-y,z
x,-y,-z
-x,1/2+y,-z
-x,-y,-z
x,1/2+y,-z
-x,y,z
x,1/2-y,z
1/2+x,1/2+y,z
1/2-x,-y,z
1/2+x,1/2-y,-z
1/2-x,y,-z
1/2-x,1/2-y,-z
1/2+x,y,-z
1/2-x,1/2+y,z
1/2+x,-y,z
loop_
_atom_site_type_symbol
_atom_site_label
_atom_site_fract_x
_atom_site_fract_y
_atom_site_fract_z
Si Si1 0.819591 0.069993 0.047860
Si Si2 0.818972 0.430208 0.716450
Si Si3 0.319967 0.430209 0.385777
Si Si4 0.422718 0.428860 0.546865
Si Si5 0.922014 0.073366 0.886255
Si Si6 0.426579 0.068870 0.214664
O O1 0.811309 0.250000 0.042985
O O2 0.750000 0.000000 0.065756
O O3 0.878975 0.033271 0.081772
O O4 0.838470 0.000000 0.000000
O O5 0.814375 0.250000 0.721044
O O6 0.750000 0.500000 0.733448
O O7 0.833765 0.478805 0.665452
O O8 0.876129 0.499273 0.748557
O O9 0.316545 0.250000 0.391908
O O10 0.250000 0.500000 0.402666
O O11 0.380873 0.496377 0.413689
O O12 0.399268 0.500000 0.500000
O O13 0.500000 0.466937 0.556122
O O14 0.408927 0.250000 0.545218
O O15 0.903865 0.250000 0.894793
O O16 0.904075 0.024908 0.835457
O O17 0.000000 0.044789 0.895848
O O18 0.500000 0.000691 0.224718
O O19 0.429800 0.250000 0.218584
#
# Coordination Sequence:
#
# PCOD8279918 Si02
#       6
#    16  16  16  16  16  16
#     4  11  22  37  56  77 104 135 171 214 259 309
#     4   9  18  32  51  75 103 135 171 211 253 299
#     4  10  20  34  53  77 106 139 175 215 257 304
#     4  10  21  37  56  78 105 135 169 211 258 309
#     4   9  18  34  55  78 106 139 174 212 255 304
#     4   8  15  30  52  76 102 134 172 211 250 296
#
# _framework density 18.330769
#
# number of rings (size 3 to 8) (size 9 to 14) (size 15 to 20)
#    0.000    2.500    0.000    4.000    0.000    4.000 
#    0.000    5.833    0.000    1.500    0.000    0.000 
#    0.000    0.000    0.000    0.000    0.000    0.000 
#
# Total GULP energy -595239.013175 kJ/mol
# GULP energy per Si atom -12400.812774 kJ/mol
# Density = 1.828905 g / cm^3
# Si number density = 18.330769 Si / 1000 Ang^3
#
#
#
# Elastic Constant Matrix: (Units=GPa)
#
#
# Indices 1 2 3 4 5 6 
#
# 1 116.7577 45.8967 85.6482 0.0000 0.0000 0.0000
# 2 45.8967 79.9265 43.1652 0.0000 0.0000 0.0000
# 3 85.6482 43.1652 112.6228 0.0000 0.0000 0.0000
# 4 0.0000 0.0000 0.0000 21.6412 0.0000 0.0000
# 5 0.0000 0.0000 0.0000 0.0000 37.7056 0.0000
# 6 0.0000 0.0000 0.0000 0.0000 0.0000 30.5874
#
#
#
# Elastic Compliance Matrix: (Units=1/GPa)
#
#
# Indices 1 2 3 4 5 6 
#
# 1 0.020438 -0.004215 -0.013928 0.000000 0.000000 0.000000
# 2 -0.004215 0.016646 -0.003175 0.000000 0.000000 0.000000
# 3 -0.013928 -0.003175 0.020688 0.000000 0.000000 0.000000
# 4 0.000000 0.000000 0.000000 0.046208 0.000000 0.000000
# 5 0.000000 0.000000 0.000000 0.000000 0.026521 0.000000
# 6 0.000000 0.000000 0.000000 0.000000 0.000000 0.032693
#
#
# Mechanical properties :
#
#
# Convention : Reuss Voigt Hill
#
# Bulk Modulus (GPa) = 66.05876 73.19191 69.62534
# Shear Modulus (GPa) = 23.71070 26.95995 25.33533
#
# Velocity S-wave (km/s) = 3.60042 3.83919 3.72172
# Velocity P-wave (km/s) = 7.30748 7.72449 7.51888
#
# Compressibility (1/GPa) = 0.01513804
#
# Stress axis : x y z
#
# Youngs Moduli (GPa) = 48.92816 60.07327 48.33760
#
# Poissons Ratio (x) = 0.25318 0.67323
# Poissons Ratio (y) = 0.20621 0.15347
# Poissons Ratio (z) = 0.68145 0.19073
#
# Static dielectric constant tensor:
#      x y z
#    x 3.561260 0.000000 0.000000 
#    y 0.000000 3.231050 0.000000 
#    z 0.000000 0.000000 3.473050 
# 
# 
# High freq. dielectric constant tensor:
#      x y z
#    x 1.715350 0.000000 0.000000 
#    y 0.000000 1.699850 0.000000 
#    z 0.000000 0.000000 1.713440 
# 
# From -- ./inp_files/43429.got.cif
#   From: 2010.03.12/outbox.cif.g09.slc.cpg/sg67_22_cif.got.tgz:43429.got - 2010.04.10 22:41:39.
