data_PCOD8279994
_publ_section_title
;
Structure prediction by ZEFSAII (Michael W. Deem and Ramdas Pophale) SiO2 
 PCOD8279994
Probable space group: C M M A
;
_chemical_formula_sum "Si O2"
_cell_formula_units_Z 80
_cell_length_a 9.504914
_cell_length_b 26.286445
_cell_length_c 16.408510
_cell_angle_alpha 90.000000
_cell_angle_beta 90.000000
_cell_angle_gamma 90.000000
_cell_volume 4099.672772
_symmetry_space_group_name_H-M "C M M A"
_symmetry_group_IT_number 67
_symmetry_cell_setting 'orthorhombic'
loop_
_space_group_symop_operation_xyz
x,y,z
-x,1/2-y,z
x,-y,-z
-x,1/2+y,-z
-x,-y,-z
x,1/2+y,-z
-x,y,z
x,1/2-y,z
1/2+x,1/2+y,z
1/2-x,-y,z
1/2+x,1/2-y,-z
1/2-x,y,-z
1/2-x,1/2-y,-z
1/2+x,y,-z
1/2-x,1/2+y,z
1/2+x,-y,z
loop_
_atom_site_type_symbol
_atom_site_label
_atom_site_fract_x
_atom_site_fract_y
_atom_site_fract_z
Si Si1 0.657440 0.808293 0.357293
Si Si2 0.000000 0.192320 0.883168
Si Si3 0.000000 0.311614 0.064721
Si Si4 0.164881 0.051101 0.746094
Si Si5 0.225887 0.848130 0.814571
Si Si6 0.662998 0.896476 0.575216
O O1 0.500000 0.816151 0.393171
O O2 0.705204 0.750000 0.364778
O O3 0.649262 0.824805 0.263334
O O4 0.770638 0.841247 0.406461
O O5 0.871891 0.179935 0.825188
O O6 0.000000 0.250000 0.908080
O O7 0.000000 0.166460 0.972458
O O8 0.135775 0.336853 0.105534
O O9 0.000000 0.250000 0.073743
O O10 0.241307 0.092167 0.803666
O O11 0.180314 0.066590 0.651845
O O12 0.000000 0.045143 0.769249
O O13 0.250000 0.000000 0.761700
O O14 0.500000 0.889596 0.551600
O O15 0.750000 0.920931 0.500000
#
# Coordination Sequence:
#
# PCOD8279994 Si02
#       6
#    16   8   8  16  16  16
#     4  10  20  34  55  82 115 160 204 239 284 344
#     4  11  22  36  59  89 128 163 193 241 293 353
#     4  11  22  36  59  93 124 163 201 233 293 355
#     4  10  23  41  64  89 112 152 202 247 302 350
#     4  11  21  38  58  88 123 157 202 249 292 351
#     4  10  22  39  58  86 119 150 191 240 295 352
#
# _framework density 19.513750999999999
#
# number of rings (size 3 to 8) (size 9 to 14) (size 15 to 20)
#    0.000    1.600    2.000    3.000    2.800    4.400 
#    0.000    2.000    0.000    3.600    0.000    0.000 
#    0.000    0.000    0.000    0.000    0.000    0.000 
#
# Total GULP energy -495972.253132 kJ/mol
# GULP energy per Si atom -12399.306328 kJ/mol
# Density = 1.946934 g / cm^3
# Si number density = 19.513751 Si / 1000 Ang^3
#
#
#
# Elastic Constant Matrix: (Units=GPa)
#
#
# Indices 1 2 3 4 5 6 
#
# 1 125.1709 48.8813 15.4535 0.0000 0.0000 0.0000
# 2 48.8813 107.1228 24.3049 0.0000 0.0000 0.0000
# 3 15.4535 24.3049 50.8036 0.0000 0.0000 0.0000
# 4 0.0000 0.0000 0.0000 16.7955 0.0000 0.0000
# 5 0.0000 0.0000 0.0000 0.0000 28.2490 0.0000
# 6 0.0000 0.0000 0.0000 0.0000 0.0000 34.2641
#
#
#
# Elastic Compliance Matrix: (Units=1/GPa)
#
#
# Indices 1 2 3 4 5 6 
#
# 1 0.009761 -0.004241 -0.000940 0.000000 0.000000 0.000000
# 2 -0.004241 0.012314 -0.004601 0.000000 0.000000 0.000000
# 3 -0.000940 -0.004601 0.022171 0.000000 0.000000 0.000000
# 4 0.000000 0.000000 0.000000 0.059540 0.000000 0.000000
# 5 0.000000 0.000000 0.000000 0.000000 0.035400 0.000000
# 6 0.000000 0.000000 0.000000 0.000000 0.000000 0.029185
#
#
# Mechanical properties :
#
#
# Convention : Reuss Voigt Hill
#
# Bulk Modulus (GPa) = 40.51603 51.15297 45.83450
# Shear Modulus (GPa) = 25.48905 28.82556 27.15730
#
# Velocity S-wave (km/s) = 3.61807 3.84760 3.73460
# Velocity P-wave (km/s) = 6.18561 6.78302 6.49119
#
# Compressibility (1/GPa) = 0.02468159
#
# Stress axis : x y z
#
# Youngs Moduli (GPa) = 102.44554 81.20717 45.10407
#
# Poissons Ratio (x) = 0.34439 0.04241
# Poissons Ratio (y) = 0.43445 0.20753
# Poissons Ratio (z) = 0.09633 0.37365
#
# Static dielectric constant tensor:
#      x y z
#    x 3.753970 0.000000 0.000000 
#    y 0.000000 3.415240 0.000000 
#    z 0.000000 0.000000 3.579380 
# 
# 
# High freq. dielectric constant tensor:
#      x y z
#    x 1.778730 0.000000 0.000000 
#    y 0.000000 1.744430 0.000000 
#    z 0.000000 0.000000 1.756060 
# 
# From -- ./inp_files/32187.got.cif
#   From: 2010.03.12/outbox.cif.g09.slc.cpg/sg67_17_cif.got.tgz:32187.got - 2010.04.10 22:41:39.
