data_PCOD8279262
_publ_section_title
;
Structure prediction by ZEFSAII (Michael W. Deem and Ramdas Pophale) SiO2 
 PCOD8279262
Probable space group: C M M A
;
_chemical_formula_sum "Si O2"
_cell_formula_units_Z 96
_cell_length_a 9.099255
_cell_length_b 28.573189
_cell_length_c 20.459946
_cell_angle_alpha 90.000000
_cell_angle_beta 90.000000
_cell_angle_gamma 90.000000
_cell_volume 5319.478195
_symmetry_space_group_name_H-M "C M M A"
_symmetry_group_IT_number 67
_symmetry_cell_setting 'orthorhombic'
loop_
_space_group_symop_operation_xyz
x,y,z
-x,1/2-y,z
x,-y,-z
-x,1/2+y,-z
-x,-y,-z
x,1/2+y,-z
-x,y,z
x,1/2-y,z
1/2+x,1/2+y,z
1/2-x,-y,z
1/2+x,1/2-y,-z
1/2-x,y,-z
1/2-x,1/2-y,-z
1/2+x,y,-z
1/2-x,1/2+y,z
1/2+x,-y,z
loop_
_atom_site_type_symbol
_atom_site_label
_atom_site_fract_x
_atom_site_fract_y
_atom_site_fract_z
Si Si1 0.326004 0.139395 0.308318
Si Si2 0.327472 0.547146 0.273364
Si Si3 0.830664 0.804916 0.803916
Si Si4 0.172021 0.696698 0.435322
Si Si5 0.672274 0.356169 0.934650
Si Si6 0.670554 0.453786 0.878836
O O1 0.500000 0.132044 0.303147
O O2 0.245124 0.089785 0.312141
O O3 0.273858 0.169298 0.246678
O O4 0.278662 0.166375 0.373594
O O5 0.500000 0.544613 0.288330
O O6 0.250000 0.500000 0.298509
O O7 0.294377 0.554742 0.197045
O O8 0.805243 0.750000 0.797616
O O9 0.786054 0.820794 0.876608
O O10 0.000000 0.819051 0.789738
O O11 0.222018 0.750000 0.421940
O O12 0.250000 0.676689 0.500000
O O13 0.000000 0.693384 0.447205
O O14 0.500000 0.356481 0.947089
O O15 0.728667 0.408429 0.917335
O O16 0.750000 0.338064 0.000000
O O17 0.500000 0.461755 0.890350
O O18 0.750000 0.500000 0.905962
#
# Coordination Sequence:
#
# PCOD8279262 Si02
#       6
#    16  16  16  16  16  16
#     4  11  21  34  56  85 115 144 178 224 272 318
#     4  10  19  34  55  81 111 143 180 221 269 323
#     4  10  21  38  57  76 103 140 182 227 274 326
#     4   9  19  35  54  80 115 150 184 222 264 315
#     4  10  21  37  52  73 102 136 176 223 272 326
#     4   9  18  33  52  73 102 132 168 215 264 319
#
# _framework density 18.046883000000001
#
# number of rings (size 3 to 8) (size 9 to 14) (size 15 to 20)
#    0.000    2.167    1.667    1.500    0.000    5.000 
#    0.000    3.333    0.000    0.500    0.000    3.500 
#    0.000    0.000    0.000    0.000    0.000    0.000 
#
# Total GULP energy -595353.632116 kJ/mol
# GULP energy per Si atom -12403.200669 kJ/mol
# Density = 1.800581 g / cm^3
# Si number density = 18.046883 Si / 1000 Ang^3
#
#
#
# Elastic Constant Matrix: (Units=GPa)
#
#
# Indices 1 2 3 4 5 6 
#
# 1 67.1788 48.3397 49.7751 0.0000 0.0000 0.0000
# 2 48.3397 105.8075 55.9272 0.0000 0.0000 0.0000
# 3 49.7751 55.9272 106.9354 0.0000 0.0000 0.0000
# 4 0.0000 0.0000 0.0000 27.9974 0.0000 0.0000
# 5 0.0000 0.0000 0.0000 0.0000 30.0607 0.0000
# 6 0.0000 0.0000 0.0000 0.0000 0.0000 29.7320
#
#
#
# Elastic Compliance Matrix: (Units=1/GPa)
#
#
# Indices 1 2 3 4 5 6 
#
# 1 0.026659 -0.007768 -0.008346 0.000000 0.000000 0.000000
# 2 -0.007768 0.015326 -0.004399 0.000000 0.000000 0.000000
# 3 -0.008346 -0.004399 0.015537 0.000000 0.000000 0.000000
# 4 0.000000 0.000000 0.000000 0.035718 0.000000 0.000000
# 5 0.000000 0.000000 0.000000 0.000000 0.033266 0.000000
# 6 0.000000 0.000000 0.000000 0.000000 0.000000 0.033634
#
#
# Mechanical properties :
#
#
# Convention : Reuss Voigt Hill
#
# Bulk Modulus (GPa) = 60.62652 65.33394 62.98023
# Shear Modulus (GPa) = 24.19365 25.95001 25.07183
#
# Velocity S-wave (km/s) = 3.66539 3.79611 3.73132
# Velocity P-wave (km/s) = 7.18194 7.44949 7.31694
#
# Compressibility (1/GPa) = 0.01649443
#
# Stress axis : x y z
#
# Youngs Moduli (GPa) = 37.51013 65.25068 64.36090
#
# Poissons Ratio (x) = 0.50687 0.53719
# Poissons Ratio (y) = 0.29138 0.28315
# Poissons Ratio (z) = 0.31308 0.28707
#
# Static dielectric constant tensor:
#      x y z
#    x 3.282700 0.000000 0.000000 
#    y 0.000000 3.490380 0.000000 
#    z 0.000000 0.000000 3.224450 
# 
# 
# High freq. dielectric constant tensor:
#      x y z
#    x 1.698490 0.000000 0.000000 
#    y 0.000000 1.705540 0.000000 
#    z 0.000000 0.000000 1.683240 
# 
# From -- ./inp_files/37140.got.cif
#   From: 2010.03.12/outbox.cif.g09.slc.cpg/sg67_19_cif.got.tgz:37140.got - 2010.04.10 22:41:39.
