data_PCOD8279888
_publ_section_title
;
Structure prediction by ZEFSAII (Michael W. Deem and Ramdas Pophale) SiO2 
 PCOD8279888
Probable space group: C M M A
;
_chemical_formula_sum "Si O2"
_cell_formula_units_Z 88
_cell_length_a 8.729909
_cell_length_b 30.384851
_cell_length_c 17.822715
_cell_angle_alpha 90.000000
_cell_angle_beta 90.000000
_cell_angle_gamma 90.000000
_cell_volume 4727.599631
_symmetry_space_group_name_H-M "C M M A"
_symmetry_group_IT_number 67
_symmetry_cell_setting 'orthorhombic'
loop_
_space_group_symop_operation_xyz
x,y,z
-x,1/2-y,z
x,-y,-z
-x,1/2+y,-z
-x,-y,-z
x,1/2+y,-z
-x,y,z
x,1/2-y,z
1/2+x,1/2+y,z
1/2-x,-y,z
1/2+x,1/2-y,-z
1/2-x,y,-z
1/2-x,1/2-y,-z
1/2+x,y,-z
1/2-x,1/2+y,z
1/2+x,-y,z
loop_
_atom_site_type_symbol
_atom_site_label
_atom_site_fract_x
_atom_site_fract_y
_atom_site_fract_z
Si Si1 0.819315 0.544925 0.233264
Si Si2 0.324913 0.574880 0.079166
Si Si3 0.176063 0.665456 0.847907
Si Si4 0.319794 0.799540 0.419550
Si Si5 0.178335 0.635323 0.301068
Si Si6 0.682407 0.750000 0.919218
O O1 0.750000 0.500000 0.266853
O O2 0.756010 0.551609 0.149269
O O3 0.773124 0.583802 0.291920
O O4 0.000000 0.541638 0.226664
O O5 0.500000 0.559091 0.077912
O O6 0.312550 0.627357 0.089816
O O7 0.250000 0.561248 0.000000
O O8 0.282899 0.656480 0.777756
O O9 0.249784 0.708318 0.879717
O O10 0.000000 0.672468 0.822697
O O11 0.500000 0.801629 0.426858
O O12 0.269585 0.750000 0.392434
O O13 0.250000 0.809944 0.500000
O O14 0.268495 0.838588 0.364874
O O15 0.000000 0.640112 0.318770
O O16 0.500000 0.750000 0.919226
O O17 0.750000 0.750000 0.000000
#
# Coordination Sequence:
#
# PCOD8279888 Si02
#       6
#    16  16  16  16  16   8
#     4  10  21  37  57  81 109 142 184 231 280 335
#     4  10  20  34  53  75 102 137 178 229 284 337
#     4  10  21  36  53  74 102 139 183 229 276 329
#     4  10  21  37  59  88 121 155 188 225 268 321
#     4  10  21  37  58  84 114 148 184 225 275 330
#     4  12  24  36  50  70  99 138 183 232 280 328
#
# _framework density 18.614097999999998
#
# number of rings (size 3 to 8) (size 9 to 14) (size 15 to 20)
#    0.000    1.818    0.000    4.091    1.273    7.273 
#    0.000    1.818    0.000    0.545    0.000    3.818 
#    0.000    0.000    0.000    0.000    0.000    0.000 
#
# Total GULP energy -545457.996154 kJ/mol
# GULP energy per Si atom -12396.772640 kJ/mol
# Density = 1.857173 g / cm^3
# Si number density = 18.614098 Si / 1000 Ang^3
#
#
#
# Elastic Constant Matrix: (Units=GPa)
#
#
# Indices 1 2 3 4 5 6 
#
# 1 53.3181 49.2742 27.8004 0.0000 0.0000 0.0000
# 2 49.2742 140.6825 52.3556 0.0000 0.0000 0.0000
# 3 27.8004 52.3556 81.3596 0.0000 0.0000 0.0000
# 4 0.0000 0.0000 0.0000 14.1189 0.0000 0.0000
# 5 0.0000 0.0000 0.0000 0.0000 35.0936 0.0000
# 6 0.0000 0.0000 0.0000 0.0000 0.0000 31.3024
#
#
#
# Elastic Compliance Matrix: (Units=1/GPa)
#
#
# Indices 1 2 3 4 5 6 
#
# 1 0.028891 -0.008475 -0.004418 0.000000 0.000000 0.000000
# 2 -0.008475 0.011833 -0.004719 0.000000 0.000000 0.000000
# 3 -0.004418 -0.004719 0.016837 0.000000 0.000000 0.000000
# 4 0.000000 0.000000 0.000000 0.070827 0.000000 0.000000
# 5 0.000000 0.000000 0.000000 0.000000 0.028495 0.000000
# 6 0.000000 0.000000 0.000000 0.000000 0.000000 0.031946
#
#
# Mechanical properties :
#
#
# Convention : Reuss Voigt Hill
#
# Bulk Modulus (GPa) = 44.76781 59.35785 52.06283
# Shear Modulus (GPa) = 21.59835 25.83165 23.71500
#
# Velocity S-wave (km/s) = 3.41005 3.72929 3.57323
# Velocity P-wave (km/s) = 6.29343 7.10643 6.71225
#
# Compressibility (1/GPa) = 0.02233748
#
# Stress axis : x y z
#
# Youngs Moduli (GPa) = 34.61259 84.51270 59.39200
#
# Poissons Ratio (x) = 0.71623 0.26242
# Poissons Ratio (y) = 0.29334 0.28024
# Poissons Ratio (z) = 0.15293 0.39877
#
# Static dielectric constant tensor:
#      x y z
#    x 3.613200 0.000000 0.000000 
#    y 0.000000 3.728510 0.000000 
#    z 0.000000 0.000000 3.185000 
# 
# 
# High freq. dielectric constant tensor:
#      x y z
#    x 1.741270 0.000000 0.000000 
#    y 0.000000 1.733120 0.000000 
#    z 0.000000 0.000000 1.700080 
# 
# From -- ./inp_files/32407.got.cif
#   From: 2010.03.12/outbox.cif.g09.slc.cpg/sg67_17_cif.got.tgz:32407.got - 2010.04.10 22:41:39.
