data_PCOD8279741
_publ_section_title
;
Structure prediction by ZEFSAII (Michael W. Deem and Ramdas Pophale) SiO2 
 PCOD8279741
Probable space group: C M M A
;
_chemical_formula_sum "Si O2"
_cell_formula_units_Z 80
_cell_length_a 18.353343
_cell_length_b 8.923611
_cell_length_c 25.778726
_cell_angle_alpha 90.000000
_cell_angle_beta 90.000000
_cell_angle_gamma 90.000000
_cell_volume 4221.990597
_symmetry_space_group_name_H-M "C M M A"
_symmetry_group_IT_number 67
_symmetry_cell_setting 'orthorhombic'
loop_
_space_group_symop_operation_xyz
x,y,z
-x,1/2-y,z
x,-y,-z
-x,1/2+y,-z
-x,-y,-z
x,1/2+y,-z
-x,y,z
x,1/2-y,z
1/2+x,1/2+y,z
1/2-x,-y,z
1/2+x,1/2-y,-z
1/2-x,y,-z
1/2-x,1/2-y,-z
1/2+x,y,-z
1/2-x,1/2+y,z
1/2+x,-y,z
loop_
_atom_site_type_symbol
_atom_site_label
_atom_site_fract_x
_atom_site_fract_y
_atom_site_fract_z
Si Si1 0.671755 0.575867 0.951482
Si Si2 0.672050 0.575896 0.836894
Si Si3 0.328109 0.572755 0.353510
Si Si4 0.083873 0.576273 0.748611
Si Si5 0.415745 0.574891 0.554361
O O1 0.679195 0.750000 0.963392
O O2 0.750000 0.500000 0.949902
O O3 0.637740 0.547103 0.894477
O O4 0.627344 0.500000 0.000000
O O5 0.685279 0.750000 0.827283
O O6 0.750000 0.500000 0.828414
O O7 0.613122 0.516414 0.796949
O O8 0.321104 0.750000 0.360758
O O9 0.250000 0.500000 0.346090
O O10 0.374448 0.528906 0.303222
O O11 0.366726 0.504103 0.403165
O O12 0.095292 0.750000 0.761125
O O13 0.000000 0.535240 0.740028
O O14 0.395526 0.500000 0.500000
O O15 0.500000 0.546927 0.568277
O O16 0.397152 0.750000 0.551598
#
# Coordination Sequence:
#
# PCOD8279741 Si02
#       5
#    16  16  16  16  16
#     4   9  16  26  43  70 102 135 172 214 262 314
#     4  10  20  33  52  79 109 141 178 222 269 319
#     4  11  23  39  59  84 114 145 182 227 273 322
#     4  10  22  39  58  80 107 141 180 223 273 327
#     4  10  21  38  61  88 117 150 187 225 268 319
#
# _framework density 18.948408000000001
#
# number of rings (size 3 to 8) (size 9 to 14) (size 15 to 20)
#    0.000    2.000    0.000    4.200    0.000    8.400 
#    0.000    2.000    0.000    0.600    0.000    0.000 
#    0.000    0.000    0.000    0.000    0.000    0.000 
#
# Total GULP energy -495932.480441 kJ/mol
# GULP energy per Si atom -12398.312011 kJ/mol
# Density = 1.890528 g / cm^3
# Si number density = 18.948408 Si / 1000 Ang^3
#
#
#
# Elastic Constant Matrix: (Units=GPa)
#
#
# Indices 1 2 3 4 5 6 
#
# 1 106.6808 63.4321 86.3744 0.0000 0.0000 0.0000
# 2 63.4321 122.7092 89.5567 0.0000 0.0000 0.0000
# 3 86.3744 89.5567 169.4663 0.0000 0.0000 0.0000
# 4 0.0000 0.0000 0.0000 43.5573 0.0000 0.0000
# 5 0.0000 0.0000 0.0000 0.0000 -44.9337 0.0000
# 6 0.0000 0.0000 0.0000 0.0000 0.0000 26.8019
#
#
#
# Elastic Compliance Matrix: (Units=1/GPa)
#
#
# Indices 1 2 3 4 5 6 
#
# 1 0.017106 -0.004036 -0.006586 0.000000 0.000000 0.000000
# 2 -0.004036 0.014218 -0.005457 0.000000 0.000000 0.000000
# 3 -0.006586 -0.005457 0.012141 0.000000 0.000000 0.000000
# 4 0.000000 0.000000 0.000000 0.022958 0.000000 0.000000
# 5 0.000000 0.000000 0.000000 0.000000 -0.022255 0.000000
# 6 0.000000 0.000000 0.000000 0.000000 0.000000 0.037311
#
#
# Mechanical properties :
#
#
# Convention : Reuss Voigt Hill
#
# Bulk Modulus (GPa) = 88.43080 97.50919 92.97000
# Shear Modulus (GPa) = 42.58771 15.71797 29.15284
#
# Velocity S-wave (km/s) = 4.74599 2.88325 3.92667
# Velocity P-wave (km/s) = 8.76374 7.91557 8.35043
#
# Compressibility (1/GPa) = 0.01130828
#
# Stress axis : x y z
#
# Youngs Moduli (GPa) = 58.46034 70.33280 82.36515
#
# Poissons Ratio (x) = 0.28387 0.54242
# Poissons Ratio (y) = 0.23595 0.44944
# Poissons Ratio (z) = 0.38499 0.38378
#
# Static dielectric constant tensor:
#      x y z
#    x 3.393170 0.000000 0.000000 
#    y 0.000000 4.822870 0.000000 
#    z 0.000000 0.000000 4.195950 
# 
# 
# High freq. dielectric constant tensor:
#      x y z
#    x 1.706780 0.000000 0.000000 
#    y 0.000000 1.751540 0.000000 
#    z 0.000000 0.000000 1.761310 
# 
# From -- ./inp_files/43283.got.cif
#   From: 2010.03.12/outbox.cif.g09.slc.cpg/sg67_22_cif.got.tgz:43283.got - 2010.04.10 22:41:39.
