data_PCOD8279598
_publ_section_title
;
Structure prediction by ZEFSAII (Michael W. Deem and Ramdas Pophale) SiO2 
 PCOD8279598
Probable space group: C M M A
;
_chemical_formula_sum "Si O2"
_cell_formula_units_Z 104
_cell_length_a 22.229115
_cell_length_b 9.702069
_cell_length_c 28.725255
_cell_angle_alpha 90.000000
_cell_angle_beta 90.000000
_cell_angle_gamma 90.000000
_cell_volume 6195.130002
_symmetry_space_group_name_H-M "C M M A"
_symmetry_group_IT_number 67
_symmetry_cell_setting 'orthorhombic'
loop_
_space_group_symop_operation_xyz
x,y,z
-x,1/2-y,z
x,-y,-z
-x,1/2+y,-z
-x,-y,-z
x,1/2+y,-z
-x,y,z
x,1/2-y,z
1/2+x,1/2+y,z
1/2-x,-y,z
1/2+x,1/2-y,-z
1/2-x,y,-z
1/2-x,1/2-y,-z
1/2+x,y,-z
1/2-x,1/2+y,z
1/2+x,-y,z
loop_
_atom_site_type_symbol
_atom_site_label
_atom_site_fract_x
_atom_site_fract_y
_atom_site_fract_z
Si Si1 0.928304 0.092763 0.542869
Si Si2 0.500000 0.597269 0.043799
Si Si3 0.382044 0.505748 0.092135
Si Si4 0.428644 0.595943 0.270855
Si Si5 0.928411 0.094927 0.374174
Si Si6 0.696040 0.750000 0.065889
Si Si7 0.668352 0.750000 0.957832
Si Si8 0.069656 0.909366 0.187652
O O1 0.903326 0.250000 0.539935
O O2 0.000000 0.097035 0.542729
O O3 0.904812 0.000000 0.500000
O O4 0.903485 0.018283 0.589560
O O5 0.500000 0.750000 0.022947
O O6 0.442662 0.579168 0.076455
O O7 0.500000 0.500000 0.000000
O O8 0.327478 0.614259 0.092039
O O9 0.368806 0.383975 0.056129
O O10 0.389408 0.446770 0.143743
O O11 0.500000 0.589170 0.271507
O O12 0.407002 0.750000 0.258011
O O13 0.404899 0.555272 0.322407
O O14 0.403986 0.491823 0.231925
O O15 0.906554 0.250000 0.387454
O O16 0.000000 0.093516 0.375196
O O17 0.767823 0.750000 0.068210
O O18 0.673560 0.750000 0.013011
O O19 0.076769 0.750000 0.199612
O O20 0.000000 0.946587 0.177275
#
# Coordination Sequence:
#
# PCOD8279598 Si02
#       8
#    16   8  16  16  16   8   8  16
#     4   9  15  20  27  40  60  88 124 170 222 270
#     4  12  26  38  56  82 108 134 158 190 239 292
#     4  12  23  38  57  80 106 130 161 197 241 290
#     4   8  15  26  42  58  78 108 143 180 220 276
#     4   8  13  22  33  47  65  91 128 171 219 268
#     4  11  24  41  61  81  97 132 169 201 234 281
#     4  11  24  43  61  77 103 130 165 203 238 279
#     4  10  20  33  46  68  98 127 150 183 235 287
#
# _framework density 16.787379000000001
#
# number of rings (size 3 to 8) (size 9 to 14) (size 15 to 20)
#    0.000    2.154    2.308    3.231    2.154    3.692 
#    0.000    3.077    0.000    0.000    0.000    0.000 
#    0.000    0.000    0.000    0.000    0.000    0.000 
#
# Total GULP energy -644708.781127 kJ/mol
# GULP energy per Si atom -12398.245791 kJ/mol
# Density = 1.674917 g / cm^3
# Si number density = 16.787379 Si / 1000 Ang^3
#
#
#
# Elastic Constant Matrix: (Units=GPa)
#
#
# Indices 1 2 3 4 5 6 
#
# 1 33.9136 15.8862 10.6857 0.0000 0.0000 0.0000
# 2 15.8862 127.7379 59.4008 0.0000 0.0000 0.0000
# 3 10.6857 59.4008 111.7903 0.0000 0.0000 0.0000
# 4 0.0000 0.0000 0.0000 36.8538 0.0000 0.0000
# 5 0.0000 0.0000 0.0000 0.0000 5.1567 0.0000
# 6 0.0000 0.0000 0.0000 0.0000 0.0000 12.9659
#
#
#
# Elastic Compliance Matrix: (Units=1/GPa)
#
#
# Indices 1 2 3 4 5 6 
#
# 1 0.031438 -0.003337 -0.001232 0.000000 0.000000 0.000000
# 2 -0.003337 0.010752 -0.005394 0.000000 0.000000 0.000000
# 3 -0.001232 -0.005394 0.011929 0.000000 0.000000 0.000000
# 4 0.000000 0.000000 0.000000 0.027134 0.000000 0.000000
# 5 0.000000 0.000000 0.000000 0.000000 0.193923 0.000000
# 6 0.000000 0.000000 0.000000 0.000000 0.000000 0.077125
#
#
# Mechanical properties :
#
#
# Convention : Reuss Voigt Hill
#
# Bulk Modulus (GPa) = 29.24566 49.48747 39.36656
# Shear Modulus (GPa) = 13.03353 23.49322 18.26337
#
# Velocity S-wave (km/s) = 2.78940 3.74499 3.30195
# Velocity P-wave (km/s) = 5.27573 6.94571 6.16751
#
# Compressibility (1/GPa) = 0.03419311
#
# Stress axis : x y z
#
# Youngs Moduli (GPa) = 31.80869 93.00654 83.82709
#
# Poissons Ratio (x) = 0.31035 0.10327
# Poissons Ratio (y) = 0.10614 0.45218
# Poissons Ratio (z) = 0.03919 0.50169
#
# Static dielectric constant tensor:
#      x y z
#    x 2.649110 0.000000 0.000000 
#    y 0.000000 3.387690 0.000000 
#    z 0.000000 0.000000 3.373300 
# 
# 
# High freq. dielectric constant tensor:
#      x y z
#    x 1.571660 0.000000 0.000000 
#    y 0.000000 1.665320 0.000000 
#    z 0.000000 0.000000 1.650510 
# 
# From -- ./inp_files/45998.got.cif
#   From: 2010.03.12/outbox.cif.g09.slc.cpg/sg67_23_cif.got.tgz:45998.got - 2010.04.10 22:41:39.
