data_PCOD8279720
_publ_section_title
;
Structure prediction by ZEFSAII (Michael W. Deem and Ramdas Pophale) SiO2 
 PCOD8279720
Probable space group: C M M A
;
_chemical_formula_sum "Si O2"
_cell_formula_units_Z 72
_cell_length_a 15.818875
_cell_length_b 8.886635
_cell_length_c 24.662792
_cell_angle_alpha 90.000000
_cell_angle_beta 90.000000
_cell_angle_gamma 90.000000
_cell_volume 3467.010662
_symmetry_space_group_name_H-M "C M M A"
_symmetry_group_IT_number 67
_symmetry_cell_setting 'orthorhombic'
loop_
_space_group_symop_operation_xyz
x,y,z
-x,1/2-y,z
x,-y,-z
-x,1/2+y,-z
-x,-y,-z
x,1/2+y,-z
-x,y,z
x,1/2-y,z
1/2+x,1/2+y,z
1/2-x,-y,z
1/2+x,1/2-y,-z
1/2-x,y,-z
1/2-x,1/2-y,-z
1/2+x,y,-z
1/2-x,1/2+y,z
1/2+x,-y,z
loop_
_atom_site_type_symbol
_atom_site_label
_atom_site_fract_x
_atom_site_fract_y
_atom_site_fract_z
Si Si1 0.500000 0.927950 0.058473
Si Si2 0.835662 0.571822 0.875179
Si Si3 0.841295 0.574052 0.670145
Si Si4 0.595797 0.078637 0.227273
Si Si5 0.841063 0.075410 0.449052
O O1 0.500000 0.750000 0.052888
O O2 0.415836 0.982651 0.089644
O O3 0.500000 0.000000 0.000000
O O4 0.827269 0.750000 0.874949
O O5 0.750000 0.500000 0.900036
O O6 0.845600 0.513534 0.813840
O O7 0.832758 0.750000 0.682905
O O8 0.750000 0.500000 0.674537
O O9 0.901823 0.496089 0.713547
O O10 0.882882 0.549003 0.610189
O O11 0.500000 0.071256 0.206282
O O12 0.628363 0.250000 0.230088
O O13 0.831664 0.250000 0.461586
O O14 0.892038 0.000000 0.500000
O O15 0.750000 0.000000 0.446582
#
# Coordination Sequence:
#
# PCOD8279720 Si02
#       5
#     8  16  16  16  16
#     4  10  24  44  68  96 132 172 211 254 303 354
#     4  11  23  42  66  95 128 167 210 254 306 362
#     4  10  20  33  51  77 109 144 185 235 292 356
#     4  11  23  38  58  84 114 152 196 246 303 360
#     4   9  16  26  43  68  98 135 177 226 285 346
#
# _framework density 20.76717
#
# number of rings (size 3 to 8) (size 9 to 14) (size 15 to 20)
#    0.000    1.778    1.111    4.000    0.000    6.222 
#    0.000    2.222    0.000    0.667    0.000    0.000 
#    0.000    0.000    0.000    0.000    0.000    0.000 
#
# Total GULP energy -446291.195034 kJ/mol
# GULP energy per Si atom -12396.977640 kJ/mol
# Density = 2.071990 g / cm^3
# Si number density = 20.767170 Si / 1000 Ang^3
#
#
#
# Elastic Constant Matrix: (Units=GPa)
#
#
# Indices 1 2 3 4 5 6 
#
# 1 101.1977 42.2320 48.6138 0.0000 0.0000 0.0000
# 2 42.2320 123.1988 59.4315 0.0000 0.0000 0.0000
# 3 48.6138 59.4315 143.6372 0.0000 0.0000 0.0000
# 4 0.0000 0.0000 0.0000 32.5788 0.0000 0.0000
# 5 0.0000 0.0000 0.0000 0.0000 24.8196 0.0000
# 6 0.0000 0.0000 0.0000 0.0000 0.0000 26.8637
#
#
#
# Elastic Compliance Matrix: (Units=1/GPa)
#
#
# Indices 1 2 3 4 5 6 
#
# 1 0.012534 -0.002811 -0.003079 0.000000 0.000000 0.000000
# 2 -0.002811 0.010772 -0.003505 0.000000 0.000000 0.000000
# 3 -0.003079 -0.003505 0.009454 0.000000 0.000000 0.000000
# 4 0.000000 0.000000 0.000000 0.030695 0.000000 0.000000
# 5 0.000000 0.000000 0.000000 0.000000 0.040291 0.000000
# 6 0.000000 0.000000 0.000000 0.000000 0.000000 0.037225
#
#
# Mechanical properties :
#
#
# Convention : Reuss Voigt Hill
#
# Bulk Modulus (GPa) = 71.58799 74.28759 72.93779
# Shear Modulus (GPa) = 30.41028 31.36951 30.88990
#
# Velocity S-wave (km/s) = 3.83083 3.89077 3.86092
# Velocity P-wave (km/s) = 7.35619 7.48555 7.42115
#
# Compressibility (1/GPa) = 0.01396882
#
# Stress axis : x y z
#
# Youngs Moduli (GPa) = 79.78357 92.83588 105.77047
#
# Poissons Ratio (x) = 0.26099 0.32565
# Poissons Ratio (y) = 0.22430 0.37077
# Poissons Ratio (z) = 0.24564 0.32543
#
# Static dielectric constant tensor:
#      x y z
#    x 3.509810 0.000000 0.000000 
#    y 0.000000 3.832610 0.000000 
#    z 0.000000 0.000000 4.243130 
# 
# 
# High freq. dielectric constant tensor:
#      x y z
#    x 1.785410 0.000000 0.000000 
#    y 0.000000 1.824080 0.000000 
#    z 0.000000 0.000000 1.823360 
# 
# From -- ./inp_files/42133.got.cif
#   From: 2010.03.12/outbox.cif.g09.slc.cpg/sg67_22_cif.got.tgz:42133.got - 2010.04.10 22:41:39.
