data_PCOD8279317
_publ_section_title
;
Structure prediction by ZEFSAII (Michael W. Deem and Ramdas Pophale) SiO2 
 PCOD8279317
Probable space group: C M M A
;
_chemical_formula_sum "Si O2"
_cell_formula_units_Z 96
_cell_length_a 28.798327
_cell_length_b 8.682362
_cell_length_c 20.540145
_cell_angle_alpha 90.000000
_cell_angle_beta 90.000000
_cell_angle_gamma 90.000000
_cell_volume 5135.806506
_symmetry_space_group_name_H-M "C M M A"
_symmetry_group_IT_number 67
_symmetry_cell_setting 'orthorhombic'
loop_
_space_group_symop_operation_xyz
x,y,z
-x,1/2-y,z
x,-y,-z
-x,1/2+y,-z
-x,-y,-z
x,1/2+y,-z
-x,y,z
x,1/2-y,z
1/2+x,1/2+y,z
1/2-x,-y,z
1/2+x,1/2-y,-z
1/2-x,y,-z
1/2-x,1/2-y,-z
1/2+x,y,-z
1/2-x,1/2+y,z
1/2+x,-y,z
loop_
_atom_site_type_symbol
_atom_site_label
_atom_site_fract_x
_atom_site_fract_y
_atom_site_fract_z
Si Si1 0.947502 0.570641 0.387604
Si Si2 0.449695 0.432647 0.240148
Si Si3 0.200755 0.068530 0.069023
Si Si4 0.300852 0.068766 0.314809
Si Si5 0.857624 0.569505 0.566580
Si Si6 0.145547 0.068436 0.816046
O O1 0.933648 0.750000 0.392559
O O2 0.942692 0.509436 0.313720
O O3 0.912346 0.471075 0.430815
O O4 0.000000 0.543953 0.412775
O O5 0.500000 0.491195 0.213221
O O6 0.449540 0.250000 0.242836
O O7 0.407412 0.489167 0.195174
O O8 0.205713 0.250000 0.062528
O O9 0.250000 0.000000 0.091450
O O10 0.162486 0.025486 0.121878
O O11 0.185022 0.000000 0.000000
O O12 0.298101 0.250000 0.323251
O O13 0.323827 0.023174 0.246274
O O14 0.250000 0.000000 0.317878
O O15 0.331779 0.002987 0.372359
O O16 0.836605 0.500000 0.500000
O O17 0.849671 0.750000 0.566479
O O18 0.148356 0.250000 0.830132
#
# Coordination Sequence:
#
# PCOD8279317 Si02
#       6
#    16  16  16  16  16  16
#     4   9  17  34  59  84 111 144 183 228 281 338
#     4   8  14  28  54  85 114 146 182 221 270 326
#     4  11  22  37  57  83 117 153 191 231 277 330
#     4  11  23  40  60  84 112 144 185 232 282 336
#     4  12  25  40  58  79 109 146 188 234 286 341
#     4  10  19  34  59  88 118 149 184 227 274 326
#
# _framework density 18.692291999999998
#
# number of rings (size 3 to 8) (size 9 to 14) (size 15 to 20)
#    0.000    1.833    1.667    5.500    0.000    3.667 
#    0.000    1.667    0.000    1.000    0.000    0.000 
#    0.000    0.000    0.000    0.000    0.000    0.000 
#
# Total GULP energy -595206.009658 kJ/mol
# GULP energy per Si atom -12400.125201 kJ/mol
# Density = 1.864975 g / cm^3
# Si number density = 18.692292 Si / 1000 Ang^3
#
#
#
# Elastic Constant Matrix: (Units=GPa)
#
#
# Indices 1 2 3 4 5 6 
#
# 1 107.0777 32.8618 46.6620 0.0000 0.0000 0.0000
# 2 32.8618 81.6318 42.3428 0.0000 0.0000 0.0000
# 3 46.6620 42.3428 100.8238 0.0000 0.0000 0.0000
# 4 0.0000 0.0000 0.0000 26.8731 0.0000 0.0000
# 5 0.0000 0.0000 0.0000 0.0000 23.7168 0.0000
# 6 0.0000 0.0000 0.0000 0.0000 0.0000 28.1342
#
#
#
# Elastic Compliance Matrix: (Units=1/GPa)
#
#
# Indices 1 2 3 4 5 6 
#
# 1 0.012088 -0.002511 -0.004540 0.000000 0.000000 0.000000
# 2 -0.002511 0.016184 -0.005634 0.000000 0.000000 0.000000
# 3 -0.004540 -0.005634 0.014386 0.000000 0.000000 0.000000
# 4 0.000000 0.000000 0.000000 0.037212 0.000000 0.000000
# 5 0.000000 0.000000 0.000000 0.000000 0.042164 0.000000
# 6 0.000000 0.000000 0.000000 0.000000 0.000000 0.035544
#
#
# Mechanical properties :
#
#
# Convention : Reuss Voigt Hill
#
# Bulk Modulus (GPa) = 57.84910 59.25183 58.55046
# Shear Modulus (GPa) = 26.49561 26.92258 26.70909
#
# Velocity S-wave (km/s) = 3.76900 3.79925 3.78416
# Velocity P-wave (km/s) = 7.06794 7.14235 7.10524
#
# Compressibility (1/GPa) = 0.01728635
#
# Stress axis : x y z
#
# Youngs Moduli (GPa) = 82.72614 61.79064 69.51418
#
# Poissons Ratio (x) = 0.15518 0.31558
# Poissons Ratio (y) = 0.20776 0.39167
# Poissons Ratio (z) = 0.37556 0.34815
#
# Static dielectric constant tensor:
#      x y z
#    x 3.847340 0.000000 0.000000 
#    y 0.000000 3.265270 0.000000 
#    z 0.000000 0.000000 3.365960 
# 
# 
# High freq. dielectric constant tensor:
#      x y z
#    x 1.733100 0.000000 0.000000 
#    y 0.000000 1.713340 0.000000 
#    z 0.000000 0.000000 1.715140 
# 
# From -- ./inp_files/37199.got.cif
#   From: 2010.03.12/outbox.cif.g09.slc.cpg/sg67_19_cif.got.tgz:37199.got - 2010.04.10 22:41:39.
