data_PCOD8279290
_publ_section_title
;
Structure prediction by ZEFSAII (Michael W. Deem and Ramdas Pophale) SiO2 
 PCOD8279290
Probable space group: C M M A
;
_chemical_formula_sum "Si O2"
_cell_formula_units_Z 72
_cell_length_a 14.385339
_cell_length_b 18.677512
_cell_length_c 15.096183
_cell_angle_alpha 90.000000
_cell_angle_beta 90.000000
_cell_angle_gamma 90.000000
_cell_volume 4056.077801
_symmetry_space_group_name_H-M "C M M A"
_symmetry_group_IT_number 67
_symmetry_cell_setting 'orthorhombic'
loop_
_space_group_symop_operation_xyz
x,y,z
-x,1/2-y,z
x,-y,-z
-x,1/2+y,-z
-x,-y,-z
x,1/2+y,-z
-x,y,z
x,1/2-y,z
1/2+x,1/2+y,z
1/2-x,-y,z
1/2+x,1/2-y,-z
1/2-x,y,-z
1/2-x,1/2-y,-z
1/2+x,y,-z
1/2-x,1/2+y,z
1/2+x,-y,z
loop_
_atom_site_type_symbol
_atom_site_label
_atom_site_fract_x
_atom_site_fract_y
_atom_site_fract_z
Si Si1 0.791531 0.920941 0.593500
Si Si2 0.000000 0.579308 0.266166
Si Si3 0.816742 0.833165 0.268961
Si Si4 0.669140 0.830793 0.931783
Si Si5 0.000000 0.568844 0.062071
Si Si6 0.500000 0.541049 0.409323
O O1 0.750000 0.893890 0.500000
O O2 0.763137 0.867682 0.671545
O O3 0.903783 0.914705 0.592293
O O4 0.750000 0.000000 0.613151
O O5 0.086779 0.628541 0.289822
O O6 0.000000 0.549764 0.165940
O O7 0.000000 0.509841 0.325404
O O8 0.826079 0.750000 0.292662
O O9 0.791006 0.845521 0.166234
O O10 0.629583 0.750000 0.936668
O O11 0.589446 0.884608 0.960691
O O12 0.750000 0.844321 0.000000
O O13 0.000000 0.500000 0.000000
O O14 0.500000 0.500000 0.500000
#
# Coordination Sequence:
#
# PCOD8279290 Si02
#       6
#    16   8  16  16   8   8
#     4  11  21  36  57  82 110 148 181 222 274 329
#     4  10  19  34  57  80 108 141 181 234 274 319
#     4  10  20  36  57  82 108 140 186 231 276 327
#     4   9  19  37  57  75 105 148 184 220 273 333
#     4  10  21  33  50  84 112 136 180 233 276 313
#     4  12  20  35  56  80 110 144 187 216 265 335
#
# _framework density 17.751138999999998
#
# number of rings (size 3 to 8) (size 9 to 14) (size 15 to 20)
#    0.000    1.778    4.444    0.667    0.000    5.333 
#    0.000    0.556    0.000    2.667    0.000    0.000 
#    0.000    0.000    0.000    0.000    0.000    0.000 
#
# Total GULP energy -446353.767509 kJ/mol
# GULP energy per Si atom -12398.715764 kJ/mol
# Density = 1.771074 g / cm^3
# Si number density = 17.751139 Si / 1000 Ang^3
#
#
#
# Elastic Constant Matrix: (Units=GPa)
#
#
# Indices 1 2 3 4 5 6 
#
# 1 147.5579 58.3389 69.2571 0.0000 0.0000 0.0000
# 2 58.3389 88.4059 67.0066 0.0000 0.0000 0.0000
# 3 69.2571 67.0066 105.7835 0.0000 0.0000 0.0000
# 4 0.0000 0.0000 0.0000 35.8156 0.0000 0.0000
# 5 0.0000 0.0000 0.0000 0.0000 21.2185 0.0000
# 6 0.0000 0.0000 0.0000 0.0000 0.0000 -3.1710
#
#
#
# Elastic Compliance Matrix: (Units=1/GPa)
#
#
# Indices 1 2 3 4 5 6 
#
# 1 0.010240 -0.003224 -0.004662 0.000000 0.000000 0.000000
# 2 -0.003224 0.022772 -0.012314 0.000000 0.000000 0.000000
# 3 -0.004662 -0.012314 0.020306 0.000000 0.000000 0.000000
# 4 0.000000 0.000000 0.000000 0.027921 0.000000 0.000000
# 5 0.000000 0.000000 0.000000 0.000000 0.047129 0.000000
# 6 0.000000 0.000000 0.000000 0.000000 0.000000 -0.315353
#
#
# Mechanical properties :
#
#
# Convention : Reuss Voigt Hill
#
# Bulk Modulus (GPa) = 77.41125 81.21694 79.31410
# Shear Modulus (GPa) = -35.14170 20.58225 -7.27972
#
# Velocity S-wave (km/s) = -4.45419 3.40882 -2.02729
# Velocity P-wave (km/s) = 4.15340 7.83236 6.26883
#
# Compressibility (1/GPa) = 0.01291802
#
# Stress axis : x y z
#
# Youngs Moduli (GPa) = 97.65972 43.91353 49.24736
#
# Poissons Ratio (x) = 0.14156 0.22959
# Poissons Ratio (y) = 0.31481 0.60643
# Poissons Ratio (z) = 0.45530 0.54075
#
# Static dielectric constant tensor:
#      x y z
#    x 4.090250 0.000000 0.000000 
#    y 0.000000 3.193900 0.000000 
#    z 0.000000 0.000000 3.425170 
# 
# 
# High freq. dielectric constant tensor:
#      x y z
#    x 1.692700 0.000000 0.000000 
#    y 0.000000 1.671440 0.000000 
#    z 0.000000 0.000000 1.698750 
# 
# From -- ./inp_files/26868.got.cif
#   From: 2010.03.12/outbox.cif.g09.slc.cpg/sg67_14_cif.got.tgz:26868.got - 2010.04.10 22:41:39.
