data_PCOD8279912
_publ_section_title
;
Structure prediction by ZEFSAII (Michael W. Deem and Ramdas Pophale) SiO2 
 PCOD8279912
Probable space group: C M M A
;
_chemical_formula_sum "Si O2"
_cell_formula_units_Z 104
_cell_length_a 26.058720
_cell_length_b 8.788138
_cell_length_c 22.880648
_cell_angle_alpha 90.000000
_cell_angle_beta 90.000000
_cell_angle_gamma 90.000000
_cell_volume 5239.842913
_symmetry_space_group_name_H-M "C M M A"
_symmetry_group_IT_number 67
_symmetry_cell_setting 'orthorhombic'
loop_
_space_group_symop_operation_xyz
x,y,z
-x,1/2-y,z
x,-y,-z
-x,1/2+y,-z
-x,-y,-z
x,1/2+y,-z
-x,y,z
x,1/2-y,z
1/2+x,1/2+y,z
1/2-x,-y,z
1/2+x,1/2-y,-z
1/2-x,y,-z
1/2-x,1/2-y,-z
1/2+x,y,-z
1/2-x,1/2+y,z
1/2+x,-y,z
loop_
_atom_site_type_symbol
_atom_site_label
_atom_site_fract_x
_atom_site_fract_y
_atom_site_fract_z
Si Si1 0.111523 0.930244 0.435632
Si Si2 0.340745 0.070921 0.231915
Si Si3 0.695299 0.430164 0.648873
Si Si4 0.800750 0.428461 0.116145
Si Si5 0.056549 0.575696 0.173796
Si Si6 0.000000 0.925493 0.438172
Si Si7 0.406778 0.925385 0.060128
O O1 0.121727 0.750000 0.438100
O O2 0.054558 0.966620 0.407212
O O3 0.115923 0.000000 0.500000
O O4 0.153204 0.008893 0.395535
O O5 0.333433 0.250000 0.243745
O O6 0.400604 0.026487 0.221029
O O7 0.320258 0.977077 0.286197
O O8 0.308341 0.020443 0.176068
O O9 0.698849 0.250000 0.644536
O O10 0.750000 0.500000 0.631534
O O11 0.795102 0.250000 0.129428
O O12 0.750000 0.500000 0.086515
O O13 0.847023 0.461139 0.071840
O O14 0.066229 0.750000 0.156647
O O15 0.059527 0.482933 0.113978
O O16 0.000000 0.550324 0.201562
O O17 0.000000 0.750000 0.451885
O O18 0.000000 0.000000 0.500000
O O19 0.417912 0.750000 0.053594
O O20 0.424734 0.000000 0.000000
#
# Coordination Sequence:
#
# PCOD8279912 Si02
#       7
#    16  16  16  16  16   8  16
#     4  10  20  38  62  91 123 159 199 241 290 343
#     4  10  20  37  59  82 110 143 183 230 282 339
#     4  12  25  41  60  85 118 156 198 244 291 345
#     4  10  20  34  53  77 104 138 180 224 276 331
#     4   9  19  37  60  83 108 141 181 226 277 334
#     4   8  16  32  58  86 116 152 190 232 277 330
#     4  10  21  35  52  76 107 142 180 224 272 329
#
# _framework density 19.847923999999999
#
# number of rings (size 3 to 8) (size 9 to 14) (size 15 to 20)
#    0.000    2.000    0.000    3.692    0.000    4.308 
#    1.385    3.077    0.000    0.000    0.000    0.000 
#    0.000    0.000    0.000    0.000    0.000    0.000 
#
# Total GULP energy -644633.213566 kJ/mol
# GULP energy per Si atom -12396.792569 kJ/mol
# Density = 1.980275 g / cm^3
# Si number density = 19.847924 Si / 1000 Ang^3
#
#
#
# Elastic Constant Matrix: (Units=GPa)
#
#
# Indices 1 2 3 4 5 6 
#
# 1 131.7040 47.9690 21.2001 0.0000 0.0000 0.0000
# 2 47.9690 103.7784 30.2413 0.0000 0.0000 0.0000
# 3 21.2001 30.2413 53.9333 0.0000 0.0000 0.0000
# 4 0.0000 0.0000 0.0000 32.2415 0.0000 0.0000
# 5 0.0000 0.0000 0.0000 0.0000 0.4197 0.0000
# 6 0.0000 0.0000 0.0000 0.0000 0.0000 28.4732
#
#
#
# Elastic Compliance Matrix: (Units=1/GPa)
#
#
# Indices 1 2 3 4 5 6 
#
# 1 0.009227 -0.003835 -0.001477 0.000000 0.000000 0.000000
# 2 -0.003835 0.013112 -0.005845 0.000000 0.000000 0.000000
# 3 -0.001477 -0.005845 0.022399 0.000000 0.000000 0.000000
# 4 0.000000 0.000000 0.000000 0.031016 0.000000 0.000000
# 5 0.000000 0.000000 0.000000 0.000000 2.382592 0.000000
# 6 0.000000 0.000000 0.000000 0.000000 0.000000 0.035121
#
#
# Mechanical properties :
#
#
# Convention : Reuss Voigt Hill
#
# Bulk Modulus (GPa) = 44.59177 54.24852 49.42015
# Shear Modulus (GPa) = 1.98157 24.89390 13.43773
#
# Velocity S-wave (km/s) = 1.00027 3.54536 2.60481
# Velocity P-wave (km/s) = 4.88360 6.64461 5.83097
#
# Compressibility (1/GPa) = 0.02242566
#
# Stress axis : x y z
#
# Youngs Moduli (GPa) = 108.37558 76.26886 44.64470
#
# Poissons Ratio (x) = 0.29247 0.06593
# Poissons Ratio (y) = 0.41559 0.26093
# Poissons Ratio (z) = 0.16006 0.44575
#
# Static dielectric constant tensor:
#      x y z
#    x 4.110460 0.000000 0.000000 
#    y 0.000000 3.717650 0.000000 
#    z 0.000000 0.000000 3.366610 
# 
# 
# High freq. dielectric constant tensor:
#      x y z
#    x 1.794850 0.000000 0.000000 
#    y 0.000000 1.785300 0.000000 
#    z 0.000000 0.000000 1.747940 
# 
# From -- ./inp_files/39963.got.cif
#   From: 2010.03.12/outbox.cif.g09.slc.cpg/sg67_20_cif.got.tgz:39963.got - 2010.04.10 22:41:39.
