data_PCOD8279690
_publ_section_title
;
Structure prediction by ZEFSAII (Michael W. Deem and Ramdas Pophale) SiO2 
 PCOD8279690
Probable space group: C M M A
;
_chemical_formula_sum "Si O2"
_cell_formula_units_Z 80
_cell_length_a 18.476860
_cell_length_b 9.093627
_cell_length_c 26.112429
_cell_angle_alpha 90.000000
_cell_angle_beta 90.000000
_cell_angle_gamma 90.000000
_cell_volume 4387.454006
_symmetry_space_group_name_H-M "C M M A"
_symmetry_group_IT_number 67
_symmetry_cell_setting 'orthorhombic'
loop_
_space_group_symop_operation_xyz
x,y,z
-x,1/2-y,z
x,-y,-z
-x,1/2+y,-z
-x,-y,-z
x,1/2+y,-z
-x,y,z
x,1/2-y,z
1/2+x,1/2+y,z
1/2-x,-y,z
1/2+x,1/2-y,-z
1/2-x,y,-z
1/2-x,1/2-y,-z
1/2+x,y,-z
1/2-x,1/2+y,z
1/2+x,-y,z
loop_
_atom_site_type_symbol
_atom_site_label
_atom_site_fract_x
_atom_site_fract_y
_atom_site_fract_z
Si Si1 0.172897 0.078417 0.952828
Si Si2 0.173001 0.575652 0.350728
Si Si3 0.917284 0.422506 0.551228
Si Si4 0.326119 0.578917 0.840133
Si Si5 0.419125 0.424832 0.254115
O O1 0.181089 0.250000 0.965180
O O2 0.137946 0.053438 0.896585
O O3 0.250000 0.000000 0.950537
O O4 0.128828 0.000000 0.000000
O O5 0.183082 0.750000 0.349240
O O6 0.250000 0.500000 0.348903
O O7 0.131536 0.524137 0.401702
O O8 0.126687 0.518953 0.302474
O O9 0.888271 0.500000 0.500000
O O10 0.910625 0.250000 0.542822
O O11 0.000000 0.468460 0.562802
O O12 0.310485 0.750000 0.831285
O O13 0.250000 0.500000 0.833356
O O14 0.382024 0.517719 0.798118
O O15 0.500000 0.491027 0.257194
O O16 0.423144 0.250000 0.254507
#
# Coordination Sequence:
#
# PCOD8279690 Si02
#       5
#    16  16  16  16  16
#     4   9  15  23  37  60  88 116 147 182 222 267
#     4  10  20  33  51  74  98 124 155 193 235 277
#     4   9  18  33  52  73  97 127 162 195 228 270
#     4   9  17  28  45  69  93 118 150 189 231 273
#     4   9  17  31  51  71  91 119 156 194 230 273
#
# _framework density 18.233809999999998
#
# number of rings (size 3 to 8) (size 9 to 14) (size 15 to 20)
#    0.000    2.800    0.000    2.400    0.000    4.400 
#    0.000    2.000    0.000    4.200    0.000    0.000 
#    0.000    0.000    0.000    0.000    0.000    5.400 
#
# Total GULP energy -495761.740062 kJ/mol
# GULP energy per Si atom -12394.043502 kJ/mol
# Density = 1.819231 g / cm^3
# Si number density = 18.233810 Si / 1000 Ang^3
#
#
#
# Elastic Constant Matrix: (Units=GPa)
#
#
# Indices 1 2 3 4 5 6 
#
# 1 116.4991 29.5033 91.0179 0.0000 0.0000 0.0000
# 2 29.5033 43.9042 46.5207 0.0000 0.0000 0.0000
# 3 91.0179 46.5207 206.3306 0.0000 0.0000 0.0000
# 4 0.0000 0.0000 0.0000 16.9365 0.0000 0.0000
# 5 0.0000 0.0000 0.0000 0.0000 18.7894 0.0000
# 6 0.0000 0.0000 0.0000 0.0000 0.0000 20.5567
#
#
#
# Elastic Compliance Matrix: (Units=1/GPa)
#
#
# Indices 1 2 3 4 5 6 
#
# 1 0.013525 -0.003636 -0.005147 0.000000 0.000000 0.000000
# 2 -0.003636 0.030904 -0.005364 0.000000 0.000000 0.000000
# 3 -0.005147 -0.005364 0.008326 0.000000 0.000000 0.000000
# 4 0.000000 0.000000 0.000000 0.059044 0.000000 0.000000
# 5 0.000000 0.000000 0.000000 0.000000 0.053222 0.000000
# 6 0.000000 0.000000 0.000000 0.000000 0.000000 0.048646
#
#
# Mechanical properties :
#
#
# Convention : Reuss Voigt Hill
#
# Bulk Modulus (GPa) = 40.87829 77.86862 59.37346
# Shear Modulus (GPa) = 19.99089 24.56932 22.28011
#
# Velocity S-wave (km/s) = 3.31473 3.67476 3.49938
# Velocity P-wave (km/s) = 6.09242 7.79766 6.99718
#
# Compressibility (1/GPa) = 0.02446286
#
# Stress axis : x y z
#
# Youngs Moduli (GPa) = 73.93443 32.35869 120.10033
#
# Poissons Ratio (x) = 0.11764 0.61813
# Poissons Ratio (y) = 0.26879 0.64422
# Poissons Ratio (z) = 0.38052 0.17357
#
# Static dielectric constant tensor:
#      x y z
#    x 3.174000 0.000000 0.000000 
#    y 0.000000 3.145240 0.000000 
#    z 0.000000 0.000000 4.182730 
# 
# 
# High freq. dielectric constant tensor:
#      x y z
#    x 1.675320 0.000000 0.000000 
#    y 0.000000 1.682150 0.000000 
#    z 0.000000 0.000000 1.735030 
# 
# From -- ./inp_files/43318.got.cif
#   From: 2010.03.12/outbox.cif.g09.slc.cpg/sg67_22_cif.got.tgz:43318.got - 2010.04.10 22:41:39.
