data_PCOD8279621
_publ_section_title
;
Structure prediction by ZEFSAII (Michael W. Deem and Ramdas Pophale) SiO2 
 PCOD8279621
Probable space group: C M M A
;
_chemical_formula_sum "Si O2"
_cell_formula_units_Z 80
_cell_length_a 18.614366
_cell_length_b 9.000350
_cell_length_c 26.093993
_cell_angle_alpha 90.000000
_cell_angle_beta 90.000000
_cell_angle_gamma 90.000000
_cell_volume 4371.678228
_symmetry_space_group_name_H-M "C M M A"
_symmetry_group_IT_number 67
_symmetry_cell_setting 'orthorhombic'
loop_
_space_group_symop_operation_xyz
x,y,z
-x,1/2-y,z
x,-y,-z
-x,1/2+y,-z
-x,-y,-z
x,1/2+y,-z
-x,y,z
x,1/2-y,z
1/2+x,1/2+y,z
1/2-x,-y,z
1/2+x,1/2-y,-z
1/2-x,y,-z
1/2-x,1/2-y,-z
1/2+x,y,-z
1/2-x,1/2+y,z
1/2+x,-y,z
loop_
_atom_site_type_symbol
_atom_site_label
_atom_site_fract_x
_atom_site_fract_y
_atom_site_fract_z
Si Si1 0.085682 0.582169 0.050487
Si Si2 0.826792 0.076866 0.339140
Si Si3 0.585579 0.582223 0.151246
Si Si4 0.826594 0.577873 0.547378
Si Si5 0.585116 0.919907 0.747074
O O1 0.115000 0.750000 0.050835
O O2 0.115690 0.497828 0.100466
O O3 0.000000 0.581245 0.050644
O O4 0.115245 0.500000 0.000000
O O5 0.816652 0.250000 0.326863
O O6 0.860737 0.054502 0.396271
O O7 0.750000 0.000000 0.332809
O O8 0.883606 0.006253 0.301044
O O9 0.500000 0.581600 0.150355
O O10 0.615221 0.750000 0.152896
O O11 0.614220 0.494283 0.200782
O O12 0.870598 0.500000 0.500000
O O13 0.818059 0.750000 0.534399
O O14 0.750000 0.500000 0.549595
O O15 0.500000 0.932260 0.743881
O O16 0.610991 0.750000 0.746322
#
# Coordination Sequence:
#
# PCOD8279621 Si02
#       5
#    16  16  16  16  16
#     4   9  15  22  33  51  77 109 145 185 229 276
#     4  10  20  33  50  73  99 126 157 195 237 280
#     4   9  16  26  40  58  82 114 151 189 230 278
#     4   9  16  26  43  67  93 120 150 186 229 276
#     4  10  20  33  49  69  94 126 162 198 237 283
#
# _framework density 18.299607000000002
#
# number of rings (size 3 to 8) (size 9 to 14) (size 15 to 20)
#    0.000    2.600    0.000    3.600    0.000    8.400 
#    0.000    0.000    0.000    0.600    0.000    0.000 
#    0.000    0.800    0.000    8.000    0.000   12.400 
#
# Total GULP energy -495787.140830 kJ/mol
# GULP energy per Si atom -12394.678521 kJ/mol
# Density = 1.825796 g / cm^3
# Si number density = 18.299607 Si / 1000 Ang^3
#
#
#
# Elastic Constant Matrix: (Units=GPa)
#
#
# Indices 1 2 3 4 5 6 
#
# 1 9.3636 18.0882 19.3552 0.0000 0.0000 0.0000
# 2 18.0882 185.0800 104.2342 0.0000 0.0000 0.0000
# 3 19.3552 104.2342 189.1378 0.0000 0.0000 0.0000
# 4 0.0000 0.0000 0.0000 42.2956 0.0000 0.0000
# 5 0.0000 0.0000 0.0000 0.0000 -4.8378 0.0000
# 6 0.0000 0.0000 0.0000 0.0000 0.0000 17.0578
#
#
#
# Elastic Compliance Matrix: (Units=1/GPa)
#
#
# Indices 1 2 3 4 5 6 
#
# 1 0.143857 -0.008365 -0.010112 0.000000 0.000000 0.000000
# 2 -0.008365 0.008321 -0.003730 0.000000 0.000000 0.000000
# 3 -0.010112 -0.003730 0.008377 0.000000 0.000000 0.000000
# 4 0.000000 0.000000 0.000000 0.023643 0.000000 0.000000
# 5 0.000000 0.000000 0.000000 0.000000 -0.206704 0.000000
# 6 0.000000 0.000000 0.000000 0.000000 0.000000 0.058624
#
#
# Mechanical properties :
#
#
# Convention : Reuss Voigt Hill
#
# Bulk Modulus (GPa) = 8.61005 74.10406 41.35706
# Shear Modulus (GPa) = 41.93035 27.03003 34.48019
#
# Velocity S-wave (km/s) = 4.79197 3.84745 4.34545
# Velocity P-wave (km/s) = 5.94412 7.76659 6.91566
#
# Compressibility (1/GPa) = 0.11614339
#
# Stress axis : x y z
#
# Youngs Moduli (GPa) = 6.95134 120.17603 119.36845
#
# Poissons Ratio (x) = 1.00523 1.20702
# Poissons Ratio (y) = 0.05815 0.44522
# Poissons Ratio (z) = 0.07029 0.44823
#
# Static dielectric constant tensor:
#      x y z
#    x 2.600650 0.000000 0.000000 
#    y 0.000000 3.653410 0.000000 
#    z 0.000000 0.000000 4.098760 
# 
# 
# High freq. dielectric constant tensor:
#      x y z
#    x 1.620460 0.000000 0.000000 
#    y 0.000000 1.733730 0.000000 
#    z 0.000000 0.000000 1.737100 
# 
# From -- ./inp_files/43216.got.cif
#   From: 2010.03.12/outbox.cif.g09.slc.cpg/sg67_22_cif.got.tgz:43216.got - 2010.04.10 22:41:39.
