data_PCOD8279029
_publ_section_title
;
Structure prediction by ZEFSAII (Michael W. Deem and Ramdas Pophale) SiO2 
 PCOD8279029
Probable space group: C M M A
;
_chemical_formula_sum "Si O2"
_cell_formula_units_Z 80
_cell_length_a 19.284851
_cell_length_b 10.026153
_cell_length_c 23.476204
_cell_angle_alpha 90.000000
_cell_angle_beta 90.000000
_cell_angle_gamma 90.000000
_cell_volume 4539.191343
_symmetry_space_group_name_H-M "C M M A"
_symmetry_group_IT_number 67
_symmetry_cell_setting 'orthorhombic'
loop_
_space_group_symop_operation_xyz
x,y,z
-x,1/2-y,z
x,-y,-z
-x,1/2+y,-z
-x,-y,-z
x,1/2+y,-z
-x,y,z
x,1/2-y,z
1/2+x,1/2+y,z
1/2-x,-y,z
1/2+x,1/2-y,-z
1/2-x,y,-z
1/2-x,1/2-y,-z
1/2+x,y,-z
1/2-x,1/2+y,z
1/2+x,-y,z
loop_
_atom_site_type_symbol
_atom_site_label
_atom_site_fract_x
_atom_site_fract_y
_atom_site_fract_z
Si Si1 0.418119 0.750000 0.453257
Si Si2 0.189575 0.402263 0.143934
Si Si3 0.581963 0.024828 0.632531
Si Si4 0.579707 0.902382 0.049509
Si Si5 0.811289 0.097122 0.274736
Si Si6 0.417892 0.250000 0.420076
O O1 0.500000 0.750000 0.459392
O O2 0.394000 0.619391 0.419183
O O3 0.384687 0.750000 0.516418
O O4 0.215086 0.250000 0.136210
O O5 0.250000 0.500000 0.122633
O O6 0.121714 0.431755 0.106887
O O7 0.170008 0.432407 0.209203
O O8 0.500000 0.035336 0.643668
O O9 0.619212 0.067958 0.690303
O O10 0.606705 0.877780 0.615247
O O11 0.500000 0.932986 0.064010
O O12 0.590019 0.750000 0.028926
O O13 0.606922 0.000000 0.000000
O O14 0.787388 0.250000 0.283369
O O15 0.750000 0.000000 0.295848
O O16 0.500000 0.250000 0.426597
#
# Coordination Sequence:
#
# PCOD8279029 Si02
#       6
#     8  16  16  16  16   8
#     4   9  16  30  51  77 103 129 166 209 252 301
#     4   9  19  35  53  75 100 133 174 211 250 296
#     4  10  19  32  53  79 102 129 169 212 254 302
#     4   9  18  33  53  77 106 137 168 205 251 298
#     4  10  21  36  54  74 101 137 172 210 258 306
#     4   9  18  30  49  77 107 133 160 205 260 305
#
# _framework density 17.624283999999999
#
# number of rings (size 3 to 8) (size 9 to 14) (size 15 to 20)
#    0.000    2.600    1.000    0.600    1.400    4.400 
#    0.000    4.000    0.000    3.600    0.000    0.000 
#    0.000    0.000    0.000    0.000    0.000    0.000 
#
# Total GULP energy -496019.727577 kJ/mol
# GULP energy per Si atom -12400.493189 kJ/mol
# Density = 1.758417 g / cm^3
# Si number density = 17.624284 Si / 1000 Ang^3
#
#
#
# Elastic Constant Matrix: (Units=GPa)
#
#
# Indices 1 2 3 4 5 6 
#
# 1 63.0803 41.5722 48.8570 0.0000 0.0000 0.0000
# 2 41.5722 121.9077 49.9977 0.0000 0.0000 0.0000
# 3 48.8570 49.9977 91.5820 0.0000 0.0000 0.0000
# 4 0.0000 0.0000 0.0000 -1.3822 0.0000 0.0000
# 5 0.0000 0.0000 0.0000 0.0000 19.6479 0.0000
# 6 0.0000 0.0000 0.0000 0.0000 0.0000 23.0119
#
#
#
# Elastic Compliance Matrix: (Units=1/GPa)
#
#
# Indices 1 2 3 4 5 6 
#
# 1 0.028844 -0.004542 -0.012908 0.000000 0.000000 0.000000
# 2 -0.004542 0.011285 -0.003738 0.000000 0.000000 0.000000
# 3 -0.012908 -0.003738 0.019846 0.000000 0.000000 0.000000
# 4 0.000000 0.000000 0.000000 -0.723465 0.000000 0.000000
# 5 0.000000 0.000000 0.000000 0.000000 0.050896 0.000000
# 6 0.000000 0.000000 0.000000 0.000000 0.000000 0.043456
#
#
# Mechanical properties :
#
#
# Convention : Reuss Voigt Hill
#
# Bulk Modulus (GPa) = 56.82136 61.93600 59.37868
# Shear Modulus (GPa) = -9.59881 17.33171 3.86645
#
# Velocity S-wave (km/s) = -2.33627 3.13932 1.48276
# Velocity P-wave (km/s) = 5.00328 6.95408 6.05772
#
# Compressibility (1/GPa) = 0.01759901
#
# Stress axis : x y z
#
# Youngs Moduli (GPa) = 34.66975 88.61501 50.38907
#
# Poissons Ratio (x) = 0.40251 0.65040
# Poissons Ratio (y) = 0.15748 0.18833
# Poissons Ratio (z) = 0.44751 0.33120
#
# Static dielectric constant tensor:
#      x y z
#    x 2.974680 0.000000 0.000000 
#    y 0.000000 3.548520 0.000000 
#    z 0.000000 0.000000 3.284850 
# 
# 
# High freq. dielectric constant tensor:
#      x y z
#    x 1.650800 0.000000 0.000000 
#    y 0.000000 1.697520 0.000000 
#    z 0.000000 0.000000 1.682310 
# 
# From -- ./inp_files/36879.got.cif
#   From: 2010.03.12/outbox.cif.g09.slc.cpg/sg67_19_cif.got.tgz:36879.got - 2010.04.10 22:41:39.
