data_PCOD8279486
_publ_section_title
;
Structure prediction by ZEFSAII (Michael W. Deem and Ramdas Pophale) SiO2 
 PCOD8279486
Probable space group: C M M A
;
_chemical_formula_sum "Si O2"
_cell_formula_units_Z 96
_cell_length_a 8.906974
_cell_length_b 30.004938
_cell_length_c 20.810842
_cell_angle_alpha 90.000000
_cell_angle_beta 90.000000
_cell_angle_gamma 90.000000
_cell_volume 5561.764174
_symmetry_space_group_name_H-M "C M M A"
_symmetry_group_IT_number 67
_symmetry_cell_setting 'orthorhombic'
loop_
_space_group_symop_operation_xyz
x,y,z
-x,1/2-y,z
x,-y,-z
-x,1/2+y,-z
-x,-y,-z
x,1/2+y,-z
-x,y,z
x,1/2-y,z
1/2+x,1/2+y,z
1/2-x,-y,z
1/2+x,1/2-y,-z
1/2-x,y,-z
1/2-x,1/2-y,-z
1/2+x,y,-z
1/2-x,1/2+y,z
1/2+x,-y,z
loop_
_atom_site_type_symbol
_atom_site_label
_atom_site_fract_x
_atom_site_fract_y
_atom_site_fract_z
Si Si1 0.833702 0.956488 0.724687
Si Si2 0.178139 0.135604 0.706634
Si Si3 0.333559 0.542249 0.425247
Si Si4 0.169394 0.696951 0.063543
Si Si5 0.672612 0.302673 0.807163
Si Si6 0.675143 0.867396 0.562137
O O1 0.743707 0.910457 0.735204
O O2 0.852639 0.964545 0.649900
O O3 0.000000 0.952395 0.756178
O O4 0.750000 0.000000 0.754921
O O5 0.234665 0.176311 0.749170
O O6 0.230914 0.147566 0.633381
O O7 0.000000 0.131359 0.709083
O O8 0.500000 0.549961 0.455157
O O9 0.250000 0.500000 0.455591
O O10 0.219845 0.581285 0.443426
O O11 0.168388 0.750000 0.061211
O O12 0.260192 0.680011 0.125524
O O13 0.000000 0.678338 0.066588
O O14 0.250000 0.677790 0.000000
O O15 0.500000 0.317557 0.803315
O O16 0.690530 0.250000 0.801067
O O17 0.500000 0.860015 0.555494
O O18 0.750000 0.842081 0.500000
#
# Coordination Sequence:
#
# PCOD8279486 Si02
#       6
#    16  16  16  16  16  16
#     4   9  16  27  44  65  90 120 153 191 235 283
#     4  10  20  33  49  69  93 122 157 198 243 290
#     4   9  16  26  40  58  81 108 139 177 223 278
#     4   9  16  27  45  70 101 134 163 190 223 268
#     4  10  20  33  50  73 100 130 163 197 234 278
#     4  10  20  32  45  61  81 108 145 189 238 289
#
# _framework density 17.260711000000001
#
# number of rings (size 3 to 8) (size 9 to 14) (size 15 to 20)
#    0.000    2.500    0.000    3.000    0.000    9.333 
#    0.000    1.667    0.000    0.500    0.000    0.000 
#    0.000    0.667    0.000    6.667    0.000    4.667 
#
# Total GULP energy -594815.461363 kJ/mol
# GULP energy per Si atom -12391.988778 kJ/mol
# Density = 1.722142 g / cm^3
# Si number density = 17.260711 Si / 1000 Ang^3
#
#
#
# Elastic Constant Matrix: (Units=GPa)
#
#
# Indices 1 2 3 4 5 6 
#
# 1 92.7181 22.8826 35.4912 0.0000 0.0000 0.0000
# 2 22.8826 30.3070 28.5593 0.0000 0.0000 0.0000
# 3 35.4912 28.5593 103.7559 0.0000 0.0000 0.0000
# 4 0.0000 0.0000 0.0000 2.0625 0.0000 0.0000
# 5 0.0000 0.0000 0.0000 0.0000 28.9805 0.0000
# 6 0.0000 0.0000 0.0000 0.0000 0.0000 19.9735
#
#
#
# Elastic Compliance Matrix: (Units=1/GPa)
#
#
# Indices 1 2 3 4 5 6 
#
# 1 0.013714 -0.008012 -0.002486 0.000000 0.000000 0.000000
# 2 -0.008012 0.049232 -0.010811 0.000000 0.000000 0.000000
# 3 -0.002486 -0.010811 0.013464 0.000000 0.000000 0.000000
# 4 0.000000 0.000000 0.000000 0.484840 0.000000 0.000000
# 5 0.000000 0.000000 0.000000 0.000000 0.034506 0.000000
# 6 0.000000 0.000000 0.000000 0.000000 0.000000 0.050066
#
#
# Mechanical properties :
#
#
# Convention : Reuss Voigt Hill
#
# Bulk Modulus (GPa) = 29.59174 44.51637 37.05406
# Shear Modulus (GPa) = 7.14587 19.52651 13.33619
#
# Velocity S-wave (km/s) = 2.03690 3.36708 2.78264
# Velocity P-wave (km/s) = 4.76583 6.40023 5.64252
#
# Compressibility (1/GPa) = 0.03379321
#
# Stress axis : x y z
#
# Youngs Moduli (GPa) = 72.91669 20.31181 74.27205
#
# Poissons Ratio (x) = 0.16274 0.18462
# Poissons Ratio (y) = 0.58422 0.80294
# Poissons Ratio (z) = 0.18125 0.21959
#
# Static dielectric constant tensor:
#      x y z
#    x 3.568310 0.000000 0.000000 
#    y 0.000000 2.811960 0.000000 
#    z 0.000000 0.000000 3.319790 
# 
# 
# High freq. dielectric constant tensor:
#      x y z
#    x 1.688800 0.000000 0.000000 
#    y 0.000000 1.613620 0.000000 
#    z 0.000000 0.000000 1.651350 
# 
# From -- ./inp_files/37122.got.cif
#   From: 2010.03.12/outbox.cif.g09.slc.cpg/sg67_19_cif.got.tgz:37122.got - 2010.04.10 22:41:39.
