data_PCOD8279615
_publ_section_title
;
Structure prediction by ZEFSAII (Michael W. Deem and Ramdas Pophale) SiO2 
 PCOD8279615
Probable space group: C M M A
;
_chemical_formula_sum "Si O2"
_cell_formula_units_Z 80
_cell_length_a 7.814318
_cell_length_b 19.670563
_cell_length_c 29.439244
_cell_angle_alpha 90.000000
_cell_angle_beta 90.000000
_cell_angle_gamma 90.000000
_cell_volume 4525.166090
_symmetry_space_group_name_H-M "C M M A"
_symmetry_group_IT_number 67
_symmetry_cell_setting 'orthorhombic'
loop_
_space_group_symop_operation_xyz
x,y,z
-x,1/2-y,z
x,-y,-z
-x,1/2+y,-z
-x,-y,-z
x,1/2+y,-z
-x,y,z
x,1/2-y,z
1/2+x,1/2+y,z
1/2-x,-y,z
1/2+x,1/2-y,-z
1/2-x,y,-z
1/2-x,1/2-y,-z
1/2+x,y,-z
1/2-x,1/2+y,z
1/2+x,-y,z
loop_
_atom_site_type_symbol
_atom_site_label
_atom_site_fract_x
_atom_site_fract_y
_atom_site_fract_z
Si Si1 0.692164 0.830926 0.950822
Si Si2 0.199009 0.076918 0.449763
Si Si3 0.189934 0.669329 0.273684
Si Si4 0.000000 0.668939 0.888931
Si Si5 0.500000 0.831249 0.213458
Si Si6 0.703574 0.173026 0.628224
O O1 0.500000 0.857328 0.939306
O O2 0.693080 0.750000 0.951311
O O3 0.828285 0.858250 0.913800
O O4 0.750000 0.858450 0.000000
O O5 0.250000 0.100656 0.500000
O O6 0.281581 0.126937 0.412349
O O7 0.000000 0.083681 0.445076
O O8 0.250000 0.000000 0.439738
O O9 0.206333 0.750000 0.274421
O O10 0.330777 0.640064 0.238761
O O11 0.224663 0.642794 0.324601
O O12 0.000000 0.646315 0.257941
O O13 0.000000 0.750000 0.889501
O O14 0.000000 0.640474 0.837756
O O15 0.500000 0.750000 0.213527
O O16 0.500000 0.170745 0.630483
O O17 0.767752 0.250000 0.620057
#
# Coordination Sequence:
#
# PCOD8279615 Si02
#       6
#    16  16  16   8   8  16
#     4   9  14  20  29  39  54  79 116 159 202 251
#     4  10  20  33  49  67  93 124 149 180 225 273
#     4   9  16  26  42  60  78 104 134 170 218 265
#     4   9  16  22  30  44  60  88 119 155 211 256
#     4   9  16  26  36  50  78  99 123 171 216 265
#     4   9  17  31  49  67  87 115 151 187 225 271
#
# _framework density 17.678909000000001
#
# number of rings (size 3 to 8) (size 9 to 14) (size 15 to 20)
#    0.000    2.800    2.000    1.200    0.000    2.800 
#    0.000    4.000    0.000    0.000    0.000    0.000 
#    0.000    0.000    0.000    0.000    0.000    0.000 
#
# Total GULP energy -495771.360585 kJ/mol
# GULP energy per Si atom -12394.284015 kJ/mol
# Density = 1.763867 g / cm^3
# Si number density = 17.678909 Si / 1000 Ang^3
#
#
#
# Elastic Constant Matrix: (Units=GPa)
#
#
# Indices 1 2 3 4 5 6 
#
# 1 130.0157 15.6571 79.3668 0.0000 0.0000 0.0000
# 2 15.6571 21.5181 34.5292 0.0000 0.0000 0.0000
# 3 79.3668 34.5292 174.3742 0.0000 0.0000 0.0000
# 4 0.0000 0.0000 0.0000 2.0817 0.0000 0.0000
# 5 0.0000 0.0000 0.0000 0.0000 21.6236 0.0000
# 6 0.0000 0.0000 0.0000 0.0000 0.0000 7.4080
#
#
#
# Elastic Compliance Matrix: (Units=1/GPa)
#
#
# Indices 1 2 3 4 5 6 
#
# 1 0.010651 0.000043 -0.004856 0.000000 0.000000 0.000000
# 2 0.000043 0.068117 -0.013508 0.000000 0.000000 0.000000
# 3 -0.004856 -0.013508 0.010620 0.000000 0.000000 0.000000
# 4 0.000000 0.000000 0.000000 0.480385 0.000000 0.000000
# 5 0.000000 0.000000 0.000000 0.000000 0.046246 0.000000
# 6 0.000000 0.000000 0.000000 0.000000 0.000000 0.134988
#
#
# Mechanical properties :
#
#
# Convention : Reuss Voigt Hill
#
# Bulk Modulus (GPa) = 18.95919 65.00159 41.98039
# Shear Modulus (GPa) = 6.20940 19.31298 12.76119
#
# Velocity S-wave (km/s) = 1.87615 3.30878 2.68961
# Velocity P-wave (km/s) = 3.92947 7.17252 5.78298
#
# Compressibility (1/GPa) = 0.05274486
#
# Stress axis : x y z
#
# Youngs Moduli (GPa) = 93.89145 14.68070 94.16321
#
# Poissons Ratio (x) = -0.00063 0.45727
# Poissons Ratio (y) = -0.00402 1.27194
# Poissons Ratio (z) = 0.45595 0.19830
#
# Static dielectric constant tensor:
#      x y z
#    x 3.505060 0.000000 0.000000 
#    y 0.000000 2.517390 0.000000 
#    z 0.000000 0.000000 2.988470 
# 
# 
# High freq. dielectric constant tensor:
#      x y z
#    x 1.699880 0.000000 0.000000 
#    y 0.000000 1.597140 0.000000 
#    z 0.000000 0.000000 1.689120 
# 
# From -- ./inp_files/43402.got.cif
#   From: 2010.03.12/outbox.cif.g09.slc.cpg/sg67_22_cif.got.tgz:43402.got - 2010.04.10 22:41:39.
