data_PCOD8279467
_publ_section_title
;
Structure prediction by ZEFSAII (Michael W. Deem and Ramdas Pophale) SiO2 
 PCOD8279467
Probable space group: C M M A
;
_chemical_formula_sum "Si O2"
_cell_formula_units_Z 104
_cell_length_a 30.622849
_cell_length_b 8.822104
_cell_length_c 22.702847
_cell_angle_alpha 90.000000
_cell_angle_beta 90.000000
_cell_angle_gamma 90.000000
_cell_volume 6133.354801
_symmetry_space_group_name_H-M "C M M A"
_symmetry_group_IT_number 67
_symmetry_cell_setting 'orthorhombic'
loop_
_space_group_symop_operation_xyz
x,y,z
-x,1/2-y,z
x,-y,-z
-x,1/2+y,-z
-x,-y,-z
x,1/2+y,-z
-x,y,z
x,1/2-y,z
1/2+x,1/2+y,z
1/2-x,-y,z
1/2+x,1/2-y,-z
1/2-x,y,-z
1/2-x,1/2-y,-z
1/2+x,y,-z
1/2-x,1/2+y,z
1/2+x,-y,z
loop_
_atom_site_type_symbol
_atom_site_label
_atom_site_fract_x
_atom_site_fract_y
_atom_site_fract_z
Si Si1 0.325165 0.929140 0.938742
Si Si2 0.591443 0.579459 0.102252
Si Si3 0.551776 0.419032 0.557745
Si Si4 0.383193 0.418955 0.764074
Si Si5 0.549560 0.428389 0.321553
Si Si6 0.705533 0.430713 0.817605
Si Si7 0.000000 0.071319 0.062472
O O1 0.317477 0.750000 0.939021
O O2 0.376393 0.967774 0.932575
O O3 0.300603 0.002191 0.883077
O O4 0.307138 0.000000 0.000000
O O5 0.597260 0.750000 0.076206
O O6 0.598565 0.583546 0.170935
O O7 0.542927 0.513776 0.095730
O O8 0.571744 0.500000 0.500000
O O9 0.500000 0.414959 0.552514
O O10 0.571097 0.250000 0.561057
O O11 0.565919 0.507635 0.616161
O O12 0.384459 0.250000 0.736448
O O13 0.414260 0.526557 0.726230
O O14 0.333000 0.477226 0.771448
O O15 0.500000 0.487558 0.306180
O O16 0.548487 0.250000 0.326455
O O17 0.707450 0.250000 0.823532
O O18 0.750000 0.500000 0.791052
O O19 0.000000 0.250000 0.058064
O O20 0.000000 0.000000 0.000000
#
# Coordination Sequence:
#
# PCOD8279467 Si02
#       7
#    16  16  16  16  16  16   8
#     4  11  21  34  52  72  95 121 150 189 238 294
#     4   9  19  34  49  66  89 120 158 199 244 291
#     4   9  16  27  44  66  95 133 173 210 248 287
#     4   9  19  34  52  71  95 126 161 200 242 291
#     4  10  20  31  45  70 103 137 174 212 243 280
#     4  10  21  38  57  77  98 122 155 195 245 301
#     4  10  20  32  46  64  86 116 155 198 241 288
#
# _framework density 16.956461999999998
#
# number of rings (size 3 to 8) (size 9 to 14) (size 15 to 20)
#    0.000    2.308    0.000    4.154    1.077    8.000 
#    0.000    1.538    0.000    0.000    0.000    0.000 
#    0.000    0.615    0.000    6.462    0.000    3.846 
#
# Total GULP energy -644537.996277 kJ/mol
# GULP energy per Si atom -12394.961467 kJ/mol
# Density = 1.691787 g / cm^3
# Si number density = 16.956462 Si / 1000 Ang^3
#
#
#
# Elastic Constant Matrix: (Units=GPa)
#
#
# Indices 1 2 3 4 5 6 
#
# 1 103.1124 32.2523 27.4953 0.0000 0.0000 0.0000
# 2 32.2523 88.7721 34.2760 0.0000 0.0000 0.0000
# 3 27.4953 34.2760 61.9889 0.0000 0.0000 0.0000
# 4 0.0000 0.0000 0.0000 31.2208 0.0000 0.0000
# 5 0.0000 0.0000 0.0000 0.0000 10.0299 0.0000
# 6 0.0000 0.0000 0.0000 0.0000 0.0000 24.7646
#
#
#
# Elastic Compliance Matrix: (Units=1/GPa)
#
#
# Indices 1 2 3 4 5 6 
#
# 1 0.011527 -0.002815 -0.003556 0.000000 0.000000 0.000000
# 2 -0.002815 0.015010 -0.007051 0.000000 0.000000 0.000000
# 3 -0.003556 -0.007051 0.021608 0.000000 0.000000 0.000000
# 4 0.000000 0.000000 0.000000 0.032030 0.000000 0.000000
# 5 0.000000 0.000000 0.000000 0.000000 0.099702 0.000000
# 6 0.000000 0.000000 0.000000 0.000000 0.000000 0.040380
#
#
# Mechanical properties :
#
#
# Convention : Reuss Voigt Hill
#
# Bulk Modulus (GPa) = 46.94710 49.10230 48.02470
# Shear Modulus (GPa) = 19.66941 23.85971 21.76456
#
# Velocity S-wave (km/s) = 3.40956 3.75522 3.58656
# Velocity P-wave (km/s) = 6.57626 6.91542 6.74797
#
# Compressibility (1/GPa) = 0.02130057
#
# Stress axis : x y z
#
# Youngs Moduli (GPa) = 86.75361 66.62244 46.27878
#
# Poissons Ratio (x) = 0.18752 0.16459
# Poissons Ratio (y) = 0.24419 0.32632
# Poissons Ratio (z) = 0.30853 0.46976
#
# Static dielectric constant tensor:
#      x y z
#    x 3.309240 0.000000 0.000000 
#    y 0.000000 3.295850 0.000000 
#    z 0.000000 0.000000 3.112040 
# 
# 
# High freq. dielectric constant tensor:
#      x y z
#    x 1.636700 0.000000 0.000000 
#    y 0.000000 1.661340 0.000000 
#    z 0.000000 0.000000 1.632550 
# 
# From -- ./inp_files/42936.got.cif
#   From: 2010.03.12/outbox.cif.g09.slc.cpg/sg67_22_cif.got.tgz:42936.got - 2010.04.10 22:41:39.
