data_PCOD8279829
_publ_section_title
;
Structure prediction by ZEFSAII (Michael W. Deem and Ramdas Pophale) SiO2 
 PCOD8279829
Probable space group: C M M A
;
_chemical_formula_sum "Si O2"
_cell_formula_units_Z 72
_cell_length_a 8.897935
_cell_length_b 15.794182
_cell_length_c 24.902369
_cell_angle_alpha 90.000000
_cell_angle_beta 90.000000
_cell_angle_gamma 90.000000
_cell_volume 3499.669489
_symmetry_space_group_name_H-M "C M M A"
_symmetry_group_IT_number 67
_symmetry_cell_setting 'orthorhombic'
loop_
_space_group_symop_operation_xyz
x,y,z
-x,1/2-y,z
x,-y,-z
-x,1/2+y,-z
-x,-y,-z
x,1/2+y,-z
-x,y,z
x,1/2-y,z
1/2+x,1/2+y,z
1/2-x,-y,z
1/2+x,1/2-y,-z
1/2-x,y,-z
1/2-x,1/2-y,-z
1/2+x,y,-z
1/2-x,1/2+y,z
1/2+x,-y,z
loop_
_atom_site_type_symbol
_atom_site_label
_atom_site_fract_x
_atom_site_fract_y
_atom_site_fract_z
Si Si1 0.822436 0.913119 0.124666
Si Si2 0.334835 0.151808 0.333374
Si Si3 0.827951 0.149757 0.229046
Si Si4 0.821171 0.908235 0.447645
Si Si5 0.321998 0.250000 0.057916
O O1 0.772690 0.898122 0.185682
O O2 0.766102 0.833990 0.088951
O O3 0.000000 0.922189 0.122380
O O4 0.750000 0.000000 0.102255
O O5 0.500000 0.108753 0.328112
O O6 0.352115 0.250000 0.322989
O O7 0.223613 0.115936 0.287725
O O8 0.269883 0.137929 0.393066
O O9 0.805033 0.250000 0.223056
O O10 0.000000 0.123687 0.220489
O O11 0.750000 0.861153 0.500000
O O12 0.000000 0.911106 0.453744
O O13 0.750000 0.000000 0.444846
O O14 0.500000 0.250000 0.052718
O O15 0.250000 0.250000 0.000000
#
# Coordination Sequence:
#
# PCOD8279829 Si02
#       5
#    16  16  16  16   8
#     4  11  23  41  64  94 127 166 210 254 305 363
#     4   9  19  35  54  77 107 145 186 231 286 348
#     4  10  20  35  58  87 118 155 196 243 299 357
#     4  10  20  34  52  72  98 136 179 227 284 344
#     4  10  24  44  68  94 128 170 209 252 307 356
#
# _framework density 20.573371000000002
#
# number of rings (size 3 to 8) (size 9 to 14) (size 15 to 20)
#    0.000    2.000    1.111    2.667    0.000    6.222 
#    0.000    4.444    0.000    0.000    0.000    0.000 
#    0.000    0.000    0.000    0.000    0.000    0.000 
#
# Total GULP energy -446320.826464 kJ/mol
# GULP energy per Si atom -12397.800735 kJ/mol
# Density = 2.052655 g / cm^3
# Si number density = 20.573371 Si / 1000 Ang^3
#
#
#
# Elastic Constant Matrix: (Units=GPa)
#
#
# Indices 1 2 3 4 5 6 
#
# 1 84.5478 42.3620 50.9817 0.0000 0.0000 0.0000
# 2 42.3620 85.9729 52.6976 0.0000 0.0000 0.0000
# 3 50.9817 52.6976 158.8048 0.0000 0.0000 0.0000
# 4 0.0000 0.0000 0.0000 16.9782 0.0000 0.0000
# 5 0.0000 0.0000 0.0000 0.0000 40.0806 0.0000
# 6 0.0000 0.0000 0.0000 0.0000 0.0000 28.0658
#
#
#
# Elastic Compliance Matrix: (Units=1/GPa)
#
#
# Indices 1 2 3 4 5 6 
#
# 1 0.017028 -0.006326 -0.003367 0.000000 0.000000 0.000000
# 2 -0.006326 0.016952 -0.003594 0.000000 0.000000 0.000000
# 3 -0.003367 -0.003594 0.008571 0.000000 0.000000 0.000000
# 4 0.000000 0.000000 0.000000 0.058899 0.000000 0.000000
# 5 0.000000 0.000000 0.000000 0.000000 0.024950 0.000000
# 6 0.000000 0.000000 0.000000 0.000000 0.000000 0.035631
#
#
# Mechanical properties :
#
#
# Convention : Reuss Voigt Hill
#
# Bulk Modulus (GPa) = 62.59846 69.04532 65.82189
# Shear Modulus (GPa) = 25.78245 29.24386 27.51316
#
# Velocity S-wave (km/s) = 3.54389 3.77429 3.66090
# Velocity P-wave (km/s) = 6.87303 7.25445 7.06632
#
# Compressibility (1/GPa) = 0.01597483
#
# Stress axis : x y z
#
# Youngs Moduli (GPa) = 58.72775 58.99030 116.67570
#
# Poissons Ratio (x) = 0.37319 0.39287
# Poissons Ratio (y) = 0.37153 0.41938
# Poissons Ratio (z) = 0.19775 0.21203
#
# Static dielectric constant tensor:
#      x y z
#    x 3.809090 0.000000 0.000000 
#    y 0.000000 3.708350 0.000000 
#    z 0.000000 0.000000 4.143260 
# 
# 
# High freq. dielectric constant tensor:
#      x y z
#    x 1.805440 0.000000 0.000000 
#    y 0.000000 1.790330 0.000000 
#    z 0.000000 0.000000 1.813700 
# 
# From -- ./inp_files/40483.got.cif
#   From: 2010.03.12/outbox.cif.g09.slc.cpg/sg67_21_cif.got.tgz:40483.got - 2010.04.10 22:41:39.
