data_PCOD8279181
_publ_section_title
;
Structure prediction by ZEFSAII (Michael W. Deem and Ramdas Pophale) SiO2 
 PCOD8279181
Probable space group: C M M A
;
_chemical_formula_sum "Si O2"
_cell_formula_units_Z 112
_cell_length_a 14.684120
_cell_length_b 27.264939
_cell_length_c 13.042224
_cell_angle_alpha 90.000000
_cell_angle_beta 90.000000
_cell_angle_gamma 90.000000
_cell_volume 5221.606139
_symmetry_space_group_name_H-M "C M M A"
_symmetry_group_IT_number 67
_symmetry_cell_setting 'orthorhombic'
loop_
_space_group_symop_operation_xyz
x,y,z
-x,1/2-y,z
x,-y,-z
-x,1/2+y,-z
-x,-y,-z
x,1/2+y,-z
-x,y,z
x,1/2-y,z
1/2+x,1/2+y,z
1/2-x,-y,z
1/2+x,1/2-y,-z
1/2-x,y,-z
1/2-x,1/2-y,-z
1/2+x,y,-z
1/2-x,1/2+y,z
1/2+x,-y,z
loop_
_atom_site_type_symbol
_atom_site_label
_atom_site_fract_x
_atom_site_fract_y
_atom_site_fract_z
Si Si1 0.395380 0.349203 0.342481
Si Si2 0.397165 0.056367 0.678143
Si Si3 0.899962 0.877589 0.869999
Si Si4 0.105220 0.546106 0.265097
Si Si5 0.220986 0.693936 0.752596
Si Si6 0.107259 0.651569 0.575733
Si Si7 0.148207 0.550995 0.035235
O O1 0.500000 0.335894 0.312150
O O2 0.380238 0.407681 0.338786
O O3 0.325772 0.321872 0.267211
O O4 0.374463 0.333156 0.459046
O O5 0.500000 0.048854 0.641663
O O6 0.387813 0.077185 0.792582
O O7 0.354196 0.096339 0.599618
O O8 0.350353 0.002297 0.680551
O O9 0.822632 0.837075 0.846308
O O10 0.000000 0.853274 0.855937
O O11 0.895711 0.900604 0.983797
O O12 0.150269 0.558239 0.156718
O O13 0.000000 0.535058 0.242758
O O14 0.221160 0.750000 0.787545
O O15 0.161235 0.688530 0.649293
O O16 0.000000 0.654200 0.603037
O O17 0.098821 0.500000 0.000000
O O18 0.250000 0.548319 0.000000
#
# Coordination Sequence:
#
# PCOD8279181 Si02
#       7
#    16  16  16  16  16  16  16
#     4  10  22  38  56  82 117 155 197 245 299 363
#     4   8  15  29  51  80 114 153 190 229 278 341
#     4  10  20  36  58  87 123 155 192 245 299 347
#     4  10  19  33  55  81 114 155 197 233 280 352
#     4  11  23  40  62  85 111 147 199 258 310 354
#     4   9  19  36  57  85 119 152 190 240 298 356
#     4  11  21  32  53  87 125 161 195 234 279 344
#
# _framework density 21.449339999999999
#
# number of rings (size 3 to 8) (size 9 to 14) (size 15 to 20)
#    0.000    2.143    1.429    3.000    0.000    3.714 
#    0.000    4.286    0.000    7.286    0.000    4.000 
#    0.000    0.000    0.000    0.000    0.000    0.000 
#
# Total GULP energy -694054.251179 kJ/mol
# GULP energy per Si atom -12393.825914 kJ/mol
# Density = 2.140052 g / cm^3
# Si number density = 21.449340 Si / 1000 Ang^3
#
#
#
# Elastic Constant Matrix: (Units=GPa)
#
#
# Indices 1 2 3 4 5 6 
#
# 1 89.4014 36.4666 16.6706 0.0000 0.0000 0.0000
# 2 36.4666 120.9515 15.3081 0.0000 0.0000 0.0000
# 3 16.6706 15.3081 43.4187 0.0000 0.0000 0.0000
# 4 0.0000 0.0000 0.0000 14.6835 0.0000 0.0000
# 5 0.0000 0.0000 0.0000 0.0000 22.5104 0.0000
# 6 0.0000 0.0000 0.0000 0.0000 0.0000 20.2619
#
#
#
# Elastic Compliance Matrix: (Units=1/GPa)
#
#
# Indices 1 2 3 4 5 6 
#
# 1 0.013351 -0.003534 -0.003880 0.000000 0.000000 0.000000
# 2 -0.003534 0.009589 -0.002024 0.000000 0.000000 0.000000
# 3 -0.003880 -0.002024 0.025235 0.000000 0.000000 0.000000
# 4 0.000000 0.000000 0.000000 0.068104 0.000000 0.000000
# 5 0.000000 0.000000 0.000000 0.000000 0.044424 0.000000
# 6 0.000000 0.000000 0.000000 0.000000 0.000000 0.049354
#
#
# Mechanical properties :
#
#
# Convention : Reuss Voigt Hill
#
# Bulk Modulus (GPa) = 34.13114 43.40691 38.76903
# Shear Modulus (GPa) = 20.94690 23.84623 22.39656
#
# Velocity S-wave (km/s) = 3.12841 3.33790 3.23485
# Velocity P-wave (km/s) = 5.38482 5.92759 5.66271
#
# Compressibility (1/GPa) = 0.02929875
#
# Stress axis : x y z
#
# Youngs Moduli (GPa) = 74.90338 104.28104 39.62770
#
# Poissons Ratio (x) = 0.36854 0.15375
# Poissons Ratio (y) = 0.26472 0.08021
# Poissons Ratio (z) = 0.29062 0.21107
#
# Static dielectric constant tensor:
#      x y z
#    x 3.975540 0.000000 0.000000 
#    y 0.000000 3.788110 0.000000 
#    z 0.000000 0.000000 3.684650 
# 
# 
# High freq. dielectric constant tensor:
#      x y z
#    x 1.841540 0.000000 0.000000 
#    y 0.000000 1.819990 0.000000 
#    z 0.000000 0.000000 1.817510 
# 
# From -- ./inp_files/27741.got.cif
#   From: 2010.03.12/outbox.cif.g09.slc.cpg/sg67_14_cif.got.tgz:27741.got - 2010.04.10 22:41:39.
