data_PCOD8279299
_publ_section_title
;
Structure prediction by ZEFSAII (Michael W. Deem and Ramdas Pophale) SiO2 
 PCOD8279299
Probable space group: C M M A
;
_chemical_formula_sum "Si O2"
_cell_formula_units_Z 112
_cell_length_a 23.106936
_cell_length_b 14.694721
_cell_length_c 14.954592
_cell_angle_alpha 90.000000
_cell_angle_beta 90.000000
_cell_angle_gamma 90.000000
_cell_volume 5077.831380
_symmetry_space_group_name_H-M "C M M A"
_symmetry_group_IT_number 67
_symmetry_cell_setting 'orthorhombic'
loop_
_space_group_symop_operation_xyz
x,y,z
-x,1/2-y,z
x,-y,-z
-x,1/2+y,-z
-x,-y,-z
x,1/2+y,-z
-x,y,z
x,1/2-y,z
1/2+x,1/2+y,z
1/2-x,-y,z
1/2+x,1/2-y,-z
1/2-x,y,-z
1/2-x,1/2-y,-z
1/2+x,y,-z
1/2-x,1/2+y,z
1/2+x,-y,z
loop_
_atom_site_type_symbol
_atom_site_label
_atom_site_fract_x
_atom_site_fract_y
_atom_site_fract_z
Si Si1 0.634938 0.355144 0.623042
Si Si2 0.065742 0.150185 0.862727
Si Si3 0.256052 0.144995 0.868185
Si Si4 0.260885 0.856126 0.669273
Si Si5 0.843585 0.599082 0.005960
Si Si6 0.933458 0.013993 0.709083
Si Si7 0.878725 0.355843 0.581289
O O1 0.626191 0.250000 0.654928
O O2 0.702940 0.378605 0.614671
O O3 0.603039 0.421572 0.693387
O O4 0.611531 0.370611 0.523742
O O5 0.069469 0.250000 0.815381
O O6 0.105276 0.158669 0.951353
O O7 0.088518 0.070721 0.796170
O O8 0.000000 0.129551 0.891704
O O9 0.237733 0.250000 0.870673
O O10 0.250203 0.104204 0.768667
O O11 0.211088 0.090300 0.928062
O O12 0.321149 0.135797 0.909492
O O13 0.271074 0.750000 0.676403
O O14 0.317011 0.895934 0.618110
O O15 0.871426 0.500000 0.000000
O O16 0.928224 0.083643 0.626381
O O17 0.000000 0.985491 0.719949
O O18 0.885920 0.250000 0.605671
#
# Coordination Sequence:
#
# PCOD8279299 Si02
#       7
#    16  16  16  16  16  16  16
#     4  10  22  39  60  87 124 166 204 251 312 375
#     4  10  22  42  66  89 116 157 208 263 317 365
#     4  10  19  34  57  85 120 160 197 240 295 355
#     4   9  19  36  60  88 122 161 205 250 301 367
#     4  11  22  35  56  87 124 153 191 243 301 368
#     4  11  24  40  61  89 121 157 211 266 305 363
#     4  10  20  37  61  90 124 162 203 254 314 366
#
# _framework density 22.056660000000001
#
# number of rings (size 3 to 8) (size 9 to 14) (size 15 to 20)
#    0.000    1.857    0.000    4.714    2.000    6.000 
#    2.571    2.857    0.000    0.000    0.000    0.000 
#    0.000    0.000    0.000    0.000    0.000    0.000 
#
# Total GULP energy -694074.271337 kJ/mol
# GULP energy per Si atom -12394.183417 kJ/mol
# Density = 2.200646 g / cm^3
# Si number density = 22.056660 Si / 1000 Ang^3
#
#
#
# Elastic Constant Matrix: (Units=GPa)
#
#
# Indices 1 2 3 4 5 6 
#
# 1 76.1346 28.4662 23.3080 0.0000 0.0000 0.0000
# 2 28.4662 97.0974 23.0512 0.0000 0.0000 0.0000
# 3 23.3080 23.0512 68.6338 0.0000 0.0000 0.0000
# 4 0.0000 0.0000 0.0000 24.8933 0.0000 0.0000
# 5 0.0000 0.0000 0.0000 0.0000 34.7660 0.0000
# 6 0.0000 0.0000 0.0000 0.0000 0.0000 29.6479
#
#
#
# Elastic Compliance Matrix: (Units=1/GPa)
#
#
# Indices 1 2 3 4 5 6 
#
# 1 0.015760 -0.003640 -0.004130 0.000000 0.000000 0.000000
# 2 -0.003640 0.012032 -0.002805 0.000000 0.000000 0.000000
# 3 -0.004130 -0.002805 0.016915 0.000000 0.000000 0.000000
# 4 0.000000 0.000000 0.000000 0.040171 0.000000 0.000000
# 5 0.000000 0.000000 0.000000 0.000000 0.028764 0.000000
# 6 0.000000 0.000000 0.000000 0.000000 0.000000 0.033729
#
#
# Mechanical properties :
#
#
# Convention : Reuss Voigt Hill
#
# Bulk Modulus (GPa) = 42.44928 43.50184 42.97556
# Shear Modulus (GPa) = 28.34919 28.99747 28.67333
#
# Velocity S-wave (km/s) = 3.58898 3.62979 3.60944
# Velocity P-wave (km/s) = 6.03836 6.11005 6.07431
#
# Compressibility (1/GPa) = 0.02355752
#
# Stress axis : x y z
#
# Youngs Moduli (GPa) = 63.45257 83.11195 59.12085
#
# Poissons Ratio (x) = 0.30252 0.24414
# Poissons Ratio (y) = 0.23097 0.16583
# Poissons Ratio (z) = 0.26203 0.23312
#
# Static dielectric constant tensor:
#      x y z
#    x 3.827760 0.000000 0.000000 
#    y 0.000000 3.893480 0.000000 
#    z 0.000000 0.000000 4.019520 
# 
# 
# High freq. dielectric constant tensor:
#      x y z
#    x 1.851760 0.000000 0.000000 
#    y 0.000000 1.868870 0.000000 
#    z 0.000000 0.000000 1.857730 
# 
# From -- ./inp_files/27564.got.cif
#   From: 2010.03.12/outbox.cif.g09.slc.cpg/sg67_14_cif.got.tgz:27564.got - 2010.04.10 22:41:39.
