data_PCOD8279791
_publ_section_title
;
Structure prediction by ZEFSAII (Michael W. Deem and Ramdas Pophale) SiO2 
 PCOD8279791
Probable space group: C M M A
;
_chemical_formula_sum "Si O2"
_cell_formula_units_Z 64
_cell_length_a 19.317373
_cell_length_b 9.305060
_cell_length_c 20.837243
_cell_angle_alpha 90.000000
_cell_angle_beta 90.000000
_cell_angle_gamma 90.000000
_cell_volume 3745.480152
_symmetry_space_group_name_H-M "C M M A"
_symmetry_group_IT_number 67
_symmetry_cell_setting 'orthorhombic'
loop_
_space_group_symop_operation_xyz
x,y,z
-x,1/2-y,z
x,-y,-z
-x,1/2+y,-z
-x,-y,-z
x,1/2+y,-z
-x,y,z
x,1/2-y,z
1/2+x,1/2+y,z
1/2-x,-y,z
1/2+x,1/2-y,-z
1/2-x,y,-z
1/2-x,1/2-y,-z
1/2+x,y,-z
1/2-x,1/2+y,z
1/2+x,-y,z
loop_
_atom_site_type_symbol
_atom_site_label
_atom_site_fract_x
_atom_site_fract_y
_atom_site_fract_z
Si Si1 0.917718 0.911838 0.199146
Si Si2 0.820649 0.922198 0.564812
Si Si3 0.421168 0.083293 0.680300
Si Si4 0.082378 0.911646 0.058914
O O1 0.890571 0.750000 0.208378
O O2 0.893587 0.971197 0.129015
O O3 0.000000 0.915823 0.201484
O O4 0.887937 0.006545 0.257337
O O5 0.810250 0.750000 0.554988
O O6 0.877688 0.957104 0.617872
O O7 0.846628 0.000000 0.500000
O O8 0.750000 0.000000 0.586541
O O9 0.500000 0.033372 0.667487
O O10 0.417526 0.250000 0.695689
O O11 0.109007 0.750000 0.051275
O O12 0.000000 0.917348 0.055015
O O13 0.115699 0.000000 0.000000
#
# Coordination Sequence:
#
# PCOD8279791 Si02
#       4
#    16  16  16  16
#     4   8  14  24  37  55  81 112 145 180 217 257
#     4  10  20  34  51  69  90 116 146 180 218 261
#     4   9  18  31  46  66  91 117 146 181 220 261
#     4   8  13  20  30  47  73 106 143 178 211 250
#
# _framework density 17.087261999999999
#
# number of rings (size 3 to 8) (size 9 to 14) (size 15 to 20)
#    0.000    3.250    0.000    3.000    0.000    3.500 
#    0.000    5.000    0.000    0.000    0.000    0.000 
#    0.000    1.000    0.000   11.000    0.000   18.000 
#
# Total GULP energy -396470.850164 kJ/mol
# GULP energy per Si atom -12389.714068 kJ/mol
# Density = 1.704837 g / cm^3
# Si number density = 17.087262 Si / 1000 Ang^3
#
#
#
# Elastic Constant Matrix: (Units=GPa)
#
#
# Indices 1 2 3 4 5 6 
#
# 1 33.7921 29.5631 56.7313 0.0000 0.0000 0.0000
# 2 29.5631 81.8598 82.1052 0.0000 0.0000 0.0000
# 3 56.7313 82.1052 183.4765 0.0000 0.0000 0.0000
# 4 0.0000 0.0000 0.0000 38.6814 0.0000 0.0000
# 5 0.0000 0.0000 0.0000 0.0000 0.5544 0.0000
# 6 0.0000 0.0000 0.0000 0.0000 0.0000 13.8938
#
#
#
# Elastic Compliance Matrix: (Units=1/GPa)
#
#
# Indices 1 2 3 4 5 6 
#
# 1 0.063035 -0.005834 -0.016880 0.000000 0.000000 0.000000
# 2 -0.005834 0.022704 -0.008356 0.000000 0.000000 0.000000
# 3 -0.016880 -0.008356 0.014409 0.000000 0.000000 0.000000
# 4 0.000000 0.000000 0.000000 0.025852 0.000000 0.000000
# 5 0.000000 0.000000 0.000000 0.000000 1.803691 0.000000
# 6 0.000000 0.000000 0.000000 0.000000 0.000000 0.071974
#
#
# Mechanical properties :
#
#
# Convention : Reuss Voigt Hill
#
# Bulk Modulus (GPa) = 26.31031 70.65861 48.48446
# Shear Modulus (GPa) = 2.40793 19.34119 10.87456
#
# Velocity S-wave (km/s) = 1.18838 3.36803 2.52546
# Velocity P-wave (km/s) = 4.16102 7.52105 6.07784
#
# Compressibility (1/GPa) = 0.03800791
#
# Stress axis : x y z
#
# Youngs Moduli (GPa) = 15.86413 44.04489 69.40188
#
# Poissons Ratio (x) = 0.25697 1.17149
# Poissons Ratio (y) = 0.09256 0.57992
# Poissons Ratio (z) = 0.26778 0.36804
#
# Static dielectric constant tensor:
#      x y z
#    x 2.691900 0.000000 0.000000 
#    y 0.000000 3.322310 0.000000 
#    z 0.000000 0.000000 3.656810 
# 
# 
# High freq. dielectric constant tensor:
#      x y z
#    x 1.593230 0.000000 0.000000 
#    y 0.000000 1.659660 0.000000 
#    z 0.000000 0.000000 1.680000 
# 
# From -- ./inp_files/31899.got.cif
#   From: 2010.03.12/outbox.cif.g09.slc.cpg/sg67_16_cif.got.tgz:31899.got - 2010.04.10 22:41:39.
