data_PCOD8279551
_publ_section_title
;
Structure prediction by ZEFSAII (Michael W. Deem and Ramdas Pophale) SiO2 
 PCOD8279551
Probable space group: C M M A
;
_chemical_formula_sum "Si O2"
_cell_formula_units_Z 104
_cell_length_a 8.850183
_cell_length_b 29.868806
_cell_length_c 22.873545
_cell_angle_alpha 90.000000
_cell_angle_beta 90.000000
_cell_angle_gamma 90.000000
_cell_volume 6046.493508
_symmetry_space_group_name_H-M "C M M A"
_symmetry_group_IT_number 67
_symmetry_cell_setting 'orthorhombic'
loop_
_space_group_symop_operation_xyz
x,y,z
-x,1/2-y,z
x,-y,-z
-x,1/2+y,-z
-x,-y,-z
x,1/2+y,-z
-x,y,z
x,1/2-y,z
1/2+x,1/2+y,z
1/2-x,-y,z
1/2+x,1/2-y,-z
1/2-x,y,-z
1/2-x,1/2-y,-z
1/2+x,y,-z
1/2-x,1/2+y,z
1/2+x,-y,z
loop_
_atom_site_type_symbol
_atom_site_label
_atom_site_fract_x
_atom_site_fract_y
_atom_site_fract_z
Si Si1 0.329178 0.130420 0.267075
Si Si2 0.180164 0.454178 0.318434
Si Si3 0.822857 0.926927 0.439594
Si Si4 0.328175 0.750000 0.438783
Si Si5 0.669127 0.302963 0.057328
Si Si6 0.678603 0.198496 0.822393
Si Si7 0.665310 0.168246 0.395197
O O1 0.500000 0.119411 0.246317
O O2 0.234930 0.084701 0.274308
O O3 0.251760 0.164582 0.222977
O O4 0.332909 0.154281 0.328713
O O5 0.250000 0.500000 0.293216
O O6 0.239473 0.449003 0.384698
O O7 0.000000 0.455553 0.318919
O O8 0.750000 0.944842 0.500000
O O9 0.797500 0.873608 0.436805
O O10 0.000000 0.939343 0.436784
O O11 0.500000 0.750000 0.452951
O O12 0.250000 0.750000 0.500000
O O13 0.289674 0.706070 0.402229
O O14 0.500000 0.322895 0.062615
O O15 0.660487 0.250000 0.051072
O O16 0.765831 0.316454 0.113778
O O17 0.750000 0.323497 0.000000
O O18 0.500000 0.193782 0.819592
O O19 0.727779 0.250000 0.808793
O O20 0.500000 0.187429 0.411822
#
# Coordination Sequence:
#
# PCOD8279551 Si02
#       7
#    16  16  16   8  16  16  16
#     4  10  21  37  55  75 100 132 168 208 253 302
#     4  11  22  38  58  78 101 128 160 202 252 308
#     4  10  20  35  54  76  98 123 154 194 245 304
#     4  12  24  34  48  66  88 118 159 202 243 292
#     4   9  16  27  44  67  98 138 180 219 258 297
#     4  10  20  32  48  74 107 142 180 218 254 298
#     4   9  20  36  51  67  91 122 157 199 246 294
#
# _framework density 17.200050999999998
#
# number of rings (size 3 to 8) (size 9 to 14) (size 15 to 20)
#    0.000    2.000    0.000    5.308    1.077    8.000 
#    0.000    1.538    0.000    0.000    0.000    0.000 
#    0.000    0.615    0.000    6.154    0.000    4.000 
#
# Total GULP energy -644747.632953 kJ/mol
# GULP energy per Si atom -12398.992941 kJ/mol
# Density = 1.716090 g / cm^3
# Si number density = 17.200051 Si / 1000 Ang^3
#
#
#
# Elastic Constant Matrix: (Units=GPa)
#
#
# Indices 1 2 3 4 5 6 
#
# 1 145.2979 56.2943 40.7799 0.0000 0.0000 0.0000
# 2 56.2943 88.7861 36.7325 0.0000 0.0000 0.0000
# 3 40.7799 36.7325 79.7811 0.0000 0.0000 0.0000
# 4 0.0000 0.0000 0.0000 9.8913 0.0000 0.0000
# 5 0.0000 0.0000 0.0000 0.0000 30.4636 0.0000
# 6 0.0000 0.0000 0.0000 0.0000 0.0000 25.3396
#
#
#
# Elastic Compliance Matrix: (Units=1/GPa)
#
#
# Indices 1 2 3 4 5 6 
#
# 1 0.009536 -0.004978 -0.002582 0.000000 0.000000 0.000000
# 2 -0.004978 0.016512 -0.005058 0.000000 0.000000 0.000000
# 3 -0.002582 -0.005058 0.016183 0.000000 0.000000 0.000000
# 4 0.000000 0.000000 0.000000 0.101099 0.000000 0.000000
# 5 0.000000 0.000000 0.000000 0.000000 0.032826 0.000000
# 6 0.000000 0.000000 0.000000 0.000000 0.000000 0.039464
#
#
# Mechanical properties :
#
#
# Convention : Reuss Voigt Hill
#
# Bulk Modulus (GPa) = 58.84261 64.60873 61.72567
# Shear Modulus (GPa) = 20.28234 25.14281 22.71257
#
# Velocity S-wave (km/s) = 3.43768 3.82748 3.63780
# Velocity P-wave (km/s) = 7.07402 7.56158 7.32186
#
# Compressibility (1/GPa) = 0.01699449
#
# Stress axis : x y z
#
# Youngs Moduli (GPa) = 104.86843 60.56330 61.79324
#
# Poissons Ratio (x) = 0.30147 0.15957
# Poissons Ratio (y) = 0.52201 0.31254
# Poissons Ratio (z) = 0.27081 0.30632
#
# Static dielectric constant tensor:
#      x y z
#    x 1.083110 0.000000 0.000000 
#    y 0.000000 3.092640 0.000000 
#    z 0.000000 0.000000 3.180990 
# 
# 
# High freq. dielectric constant tensor:
#      x y z
#    x 1.684750 0.000000 0.000000 
#    y 0.000000 1.640760 0.000000 
#    z 0.000000 0.000000 1.646700 
# 
# From -- ./inp_files/37495.got.cif
#   From: 2010.03.12/outbox.cif.g09.slc.cpg/sg67_19_cif.got.tgz:37495.got - 2010.04.10 22:41:39.
