data_PCOD8279931
_publ_section_title
;
Structure prediction by ZEFSAII (Michael W. Deem and Ramdas Pophale) SiO2 
 PCOD8279931
Probable space group: C M M A
;
_chemical_formula_sum "Si O2"
_cell_formula_units_Z 96
_cell_length_a 8.845281
_cell_length_b 25.738900
_cell_length_c 23.101564
_cell_angle_alpha 90.000000
_cell_angle_beta 90.000000
_cell_angle_gamma 90.000000
_cell_volume 5259.482325
_symmetry_space_group_name_H-M "C M M A"
_symmetry_group_IT_number 67
_symmetry_cell_setting 'orthorhombic'
loop_
_space_group_symop_operation_xyz
x,y,z
-x,1/2-y,z
x,-y,-z
-x,1/2+y,-z
-x,-y,-z
x,1/2+y,-z
-x,y,z
x,1/2-y,z
1/2+x,1/2+y,z
1/2-x,-y,z
1/2+x,1/2-y,-z
1/2-x,y,-z
1/2-x,1/2-y,-z
1/2+x,y,-z
1/2-x,1/2+y,z
1/2+x,-y,z
loop_
_atom_site_type_symbol
_atom_site_label
_atom_site_fract_x
_atom_site_fract_y
_atom_site_fract_z
Si Si1 0.172599 0.750000 0.372870
Si Si2 0.679288 0.846032 0.174158
Si Si3 0.676362 0.810343 0.939580
Si Si4 0.672246 0.250000 0.235927
Si Si5 0.678020 0.552843 0.242710
Si Si6 0.179602 0.343709 0.437714
Si Si7 0.678098 0.447095 0.625928
O O1 0.178510 0.750000 0.304347
O O2 0.258700 0.699247 0.394321
O O3 0.000000 0.750000 0.395509
O O4 0.500000 0.840582 0.171548
O O5 0.746245 0.844619 0.109815
O O6 0.744106 0.800568 0.213353
O O7 0.732087 0.899998 0.202576
O O8 0.500000 0.822636 0.942352
O O9 0.708024 0.750000 0.925720
O O10 0.750000 0.826758 0.000000
O O11 0.500000 0.250000 0.212637
O O12 0.500000 0.546691 0.240903
O O13 0.750000 0.500000 0.218138
O O14 0.733914 0.563183 0.308415
O O15 0.250000 0.333878 0.500000
O O16 0.232523 0.399663 0.414026
O O17 0.000000 0.339184 0.441077
O O18 0.500000 0.453189 0.623661
O O19 0.750000 0.500000 0.601140
#
# Coordination Sequence:
#
# PCOD8279931 Si02
#       7
#     8  16  16   8  16  16  16
#     4  11  24  40  57  78 107 142 181 222 267 321
#     4  11  21  34  55  82 114 147 183 224 269 321
#     4  10  20  34  53  78 112 149 187 226 270 321
#     4  11  23  36  53  82 113 142 177 220 272 323
#     4   9  19  35  55  80 107 141 181 220 267 321
#     4  11  23  39  58  79 106 140 179 221 268 324
#     4   9  19  36  57  80 107 138 175 220 270 322
#
# _framework density 18.252746999999999
#
# number of rings (size 3 to 8) (size 9 to 14) (size 15 to 20)
#    0.000    1.833    0.833    3.250    0.000    6.333 
#    0.000    5.000    0.000    0.500    0.000    3.500 
#    0.000    0.000    0.000    0.000    0.000    0.000 
#
# Total GULP energy -595409.046219 kJ/mol
# GULP energy per Si atom -12404.355130 kJ/mol
# Density = 1.821120 g / cm^3
# Si number density = 18.252747 Si / 1000 Ang^3
#
#
#
# Elastic Constant Matrix: (Units=GPa)
#
#
# Indices 1 2 3 4 5 6 
#
# 1 75.5762 43.8293 35.0436 0.0000 0.0000 0.0000
# 2 43.8293 118.4285 40.3489 0.0000 0.0000 0.0000
# 3 35.0436 40.3489 82.7510 0.0000 0.0000 0.0000
# 4 0.0000 0.0000 0.0000 35.5643 0.0000 0.0000
# 5 0.0000 0.0000 0.0000 0.0000 30.3556 0.0000
# 6 0.0000 0.0000 0.0000 0.0000 0.0000 32.2634
#
#
#
# Elastic Compliance Matrix: (Units=1/GPa)
#
#
# Indices 1 2 3 4 5 6 
#
# 1 0.018694 -0.005062 -0.005448 0.000000 0.000000 0.000000
# 2 -0.005062 0.011497 -0.003462 0.000000 0.000000 0.000000
# 3 -0.005448 -0.003462 0.016080 0.000000 0.000000 0.000000
# 4 0.000000 0.000000 0.000000 0.028118 0.000000 0.000000
# 5 0.000000 0.000000 0.000000 0.000000 0.032943 0.000000
# 6 0.000000 0.000000 0.000000 0.000000 0.000000 0.030995
#
#
# Mechanical properties :
#
#
# Convention : Reuss Voigt Hill
#
# Bulk Modulus (GPa) = 54.56878 57.24436 55.90657
# Shear Modulus (GPa) = 29.00578 30.13890 29.57234
#
# Velocity S-wave (km/s) = 3.99070 4.06790 4.02949
# Velocity P-wave (km/s) = 7.15509 7.31395 7.23496
#
# Compressibility (1/GPa) = 0.01832550
#
# Stress axis : x y z
#
# Youngs Moduli (GPa) = 53.49414 86.97983 62.19005
#
# Poissons Ratio (x) = 0.44030 0.33882
# Poissons Ratio (y) = 0.27080 0.21531
# Poissons Ratio (z) = 0.29144 0.30113
#
# Static dielectric constant tensor:
#      x y z
#    x 3.460690 0.000000 0.000000 
#    y 0.000000 3.392910 0.000000 
#    z 0.000000 0.000000 3.423440 
# 
# 
# High freq. dielectric constant tensor:
#      x y z
#    x 1.717080 0.000000 0.000000 
#    y 0.000000 1.704150 0.000000 
#    z 0.000000 0.000000 1.709900 
# 
# From -- ./inp_files/40859.got.cif
#   From: 2010.03.12/outbox.cif.g09.slc.cpg/sg67_21_cif.got.tgz:40859.got - 2010.04.10 22:41:39.
