data_PCOD8279011
_publ_section_title
;
Structure prediction by ZEFSAII (Michael W. Deem and Ramdas Pophale) SiO2 
 PCOD8279011
Probable space group: C M M A
;
_chemical_formula_sum "Si O2"
_cell_formula_units_Z 96
_cell_length_a 26.880811
_cell_length_b 15.348315
_cell_length_c 10.398170
_cell_angle_alpha 90.000000
_cell_angle_beta 90.000000
_cell_angle_gamma 90.000000
_cell_volume 4290.026596
_symmetry_space_group_name_H-M "C M M A"
_symmetry_group_IT_number 67
_symmetry_cell_setting 'orthorhombic'
loop_
_space_group_symop_operation_xyz
x,y,z
-x,1/2-y,z
x,-y,-z
-x,1/2+y,-z
-x,-y,-z
x,1/2+y,-z
-x,y,z
x,1/2-y,z
1/2+x,1/2+y,z
1/2-x,-y,z
1/2+x,1/2-y,-z
1/2-x,y,-z
1/2-x,1/2-y,-z
1/2+x,y,-z
1/2-x,1/2+y,z
1/2+x,-y,z
loop_
_atom_site_type_symbol
_atom_site_label
_atom_site_fract_x
_atom_site_fract_y
_atom_site_fract_z
Si Si1 0.281120 0.151369 0.615492
Si Si2 0.269894 0.903043 0.865968
Si Si3 0.108953 0.354179 0.360984
Si Si4 0.381458 0.646401 0.860962
Si Si5 0.444070 0.146316 0.893930
Si Si6 0.055737 0.646379 0.383028
O O1 0.291145 0.250000 0.571662
O O2 0.250000 0.104789 0.500000
O O3 0.250411 0.152733 0.747460
O O4 0.335050 0.106789 0.633462
O O5 0.329235 0.902804 0.865554
O O6 0.250000 0.000000 0.849029
O O7 0.250000 0.862316 0.000000
O O8 0.109645 0.250000 0.355754
O O9 0.082239 0.391224 0.233784
O O10 0.078944 0.388862 0.484358
O O11 0.372601 0.750000 0.861426
O O12 0.410456 0.614250 0.734628
O O13 0.413315 0.614773 0.982726
O O14 0.500000 0.109031 0.902490
O O15 0.445640 0.250000 0.889820
O O16 0.054065 0.750000 0.384151
O O17 0.000000 0.609001 0.367649
#
# Coordination Sequence:
#
# PCOD8279011 Si02
#       6
#    16  16  16  16  16  16
#     4  10  20  35  56  82 110 141 183 232 277 325
#     4  11  24  39  54  76 106 145 189 231 276 327
#     4   9  16  26  43  70 104 139 169 205 259 316
#     4  10  19  32  52  77 105 138 177 222 271 320
#     4   9  16  26  43  72 107 138 171 213 263 320
#     4   9  16  27  46  76 111 139 165 205 260 320
#
# _framework density 22.377483000000002
#
# number of rings (size 3 to 8) (size 9 to 14) (size 15 to 20)
#    0.000    2.333    0.000    3.500    0.000    9.667 
#    0.000    0.000    0.000    0.000    0.000   25.667 
#    0.000    0.000    0.000    0.000    0.000    0.667 
#
# Total GULP energy -595249.465754 kJ/mol
# GULP energy per Si atom -12401.030537 kJ/mol
# Density = 2.232655 g / cm^3
# Si number density = 22.377483 Si / 1000 Ang^3
#
#
#
# Elastic Constant Matrix: (Units=GPa)
#
#
# Indices 1 2 3 4 5 6 
#
# 1 242.8702 12.6317 108.2714 0.0000 0.0000 0.0000
# 2 12.6317 15.4408 2.7765 0.0000 0.0000 0.0000
# 3 108.2714 2.7765 213.5651 0.0000 0.0000 0.0000
# 4 0.0000 0.0000 0.0000 5.2407 0.0000 0.0000
# 5 0.0000 0.0000 0.0000 0.0000 50.9768 0.0000
# 6 0.0000 0.0000 0.0000 0.0000 0.0000 15.2007
#
#
#
# Elastic Compliance Matrix: (Units=1/GPa)
#
#
# Indices 1 2 3 4 5 6 
#
# 1 0.005562 -0.004052 -0.002767 0.000000 0.000000 0.000000
# 2 -0.004052 0.067868 0.001172 0.000000 0.000000 0.000000
# 3 -0.002767 0.001172 0.006070 0.000000 0.000000 0.000000
# 4 0.000000 0.000000 0.000000 0.190813 0.000000 0.000000
# 5 0.000000 0.000000 0.000000 0.000000 0.019617 0.000000
# 6 0.000000 0.000000 0.000000 0.000000 0.000000 0.065786
#
#
# Mechanical properties :
#
#
# Convention : Reuss Voigt Hill
#
# Bulk Modulus (GPa) = 14.66167 79.91504 47.28835
# Shear Modulus (GPa) = 12.82890 37.49676 25.16283
#
# Velocity S-wave (km/s) = 2.39696 4.09791 3.35695
# Velocity P-wave (km/s) = 3.77183 7.62760 6.01693
#
# Compressibility (1/GPa) = 0.06820505
#
# Stress axis : x y z
#
# Youngs Moduli (GPa) = 179.80177 14.73453 164.74661
#
# Poissons Ratio (x) = 0.05971 0.45584
# Poissons Ratio (y) = 0.72861 -0.19310
# Poissons Ratio (z) = 0.49750 -0.01727
#
# Static dielectric constant tensor:
#      x y z
#    x 4.278340 0.000000 0.000000 
#    y 0.000000 3.222100 0.000000 
#    z 0.000000 0.000000 4.291410 
# 
# 
# High freq. dielectric constant tensor:
#      x y z
#    x 1.900100 0.000000 0.000000 
#    y 0.000000 1.822290 0.000000 
#    z 0.000000 0.000000 1.898310 
# 
# From -- ./inp_files/11508.got.cif
#   From: 2010.03.12/outbox.cif.g09.slc.cpg/sg67_6_cif.got.tgz:11508.got - 2010.04.10 22:41:39.
