data_PCOD8279176
_publ_section_title
;
Structure prediction by ZEFSAII (Michael W. Deem and Ramdas Pophale) SiO2 
 PCOD8279176
Probable space group: C M M A
;
_chemical_formula_sum "Si O2"
_cell_formula_units_Z 48
_cell_length_a 15.885850
_cell_length_b 18.716980
_cell_length_c 8.893629
_cell_angle_alpha 90.000000
_cell_angle_beta 90.000000
_cell_angle_gamma 90.000000
_cell_volume 2644.388395
_symmetry_space_group_name_H-M "C M M A"
_symmetry_group_IT_number 67
_symmetry_cell_setting 'orthorhombic'
loop_
_space_group_symop_operation_xyz
x,y,z
-x,1/2-y,z
x,-y,-z
-x,1/2+y,-z
-x,-y,-z
x,1/2+y,-z
-x,y,z
x,1/2-y,z
1/2+x,1/2+y,z
1/2-x,-y,z
1/2+x,1/2-y,-z
1/2-x,y,-z
1/2-x,1/2-y,-z
1/2+x,y,-z
1/2-x,1/2+y,z
1/2+x,-y,z
loop_
_atom_site_type_symbol
_atom_site_label
_atom_site_fract_x
_atom_site_fract_y
_atom_site_fract_z
Si Si1 0.828986 0.075947 0.109467
Si Si2 0.404300 0.928979 0.815207
Si Si3 0.229836 0.332561 0.672763
O O1 0.807800 0.137799 0.228080
O O2 0.856855 0.005287 0.200869
O O3 0.750000 0.061213 0.000000
O O4 0.902961 0.096788 0.991106
O O5 0.500000 0.934812 0.759358
O O6 0.356950 0.872691 0.709210
O O7 0.218227 0.250000 0.712650
O O8 0.250000 0.345142 0.500000
#
# Coordination Sequence:
#
# PCOD8279176 Si02
#       3
#    16  16  16
#     4   9  17  32  55  79 102 133 169 204 247 303
#     4  10  19  33  55  80 104 127 162 216 263 298
#     4  10  21  36  52  72 103 141 175 205 243 299
#
# _framework density 18.151644000000001
#
# number of rings (size 3 to 8) (size 9 to 14) (size 15 to 20)
#    0.000    2.333    0.000    9.000    0.000    9.333 
#    0.000    5.000    0.000    7.000    0.000    0.000 
#    0.000    0.000    0.000    0.000    0.000    0.000 
#
# Total GULP energy -297357.154983 kJ/mol
# GULP energy per Si atom -12389.881458 kJ/mol
# Density = 1.811033 g / cm^3
# Si number density = 18.151644 Si / 1000 Ang^3
#
#
#
# Elastic Constant Matrix: (Units=GPa)
#
#
# Indices 1 2 3 4 5 6 
#
# 1 101.4277 65.1331 32.4763 0.0000 0.0000 0.0000
# 2 65.1331 140.1118 74.7054 0.0000 0.0000 0.0000
# 3 32.4763 74.7054 80.3045 0.0000 0.0000 0.0000
# 4 0.0000 0.0000 0.0000 33.0508 0.0000 0.0000
# 5 0.0000 0.0000 0.0000 0.0000 14.4797 0.0000
# 6 0.0000 0.0000 0.0000 0.0000 0.0000 7.2395
#
#
#
# Elastic Compliance Matrix: (Units=1/GPa)
#
#
# Indices 1 2 3 4 5 6 
#
# 1 0.014080 -0.006963 0.000783 0.000000 0.000000 0.000000
# 2 -0.006963 0.017605 -0.013561 0.000000 0.000000 0.000000
# 3 0.000783 -0.013561 0.024752 0.000000 0.000000 0.000000
# 4 0.000000 0.000000 0.000000 0.030256 0.000000 0.000000
# 5 0.000000 0.000000 0.000000 0.000000 0.069062 0.000000
# 6 0.000000 0.000000 0.000000 0.000000 0.000000 0.138131
#
#
# Mechanical properties :
#
#
# Convention : Reuss Voigt Hill
#
# Bulk Modulus (GPa) = 58.98215 74.05264 66.51740
# Shear Modulus (GPa) = 14.74848 20.92263 17.83555
#
# Velocity S-wave (km/s) = 2.85356 3.39876 3.13802
# Velocity P-wave (km/s) = 6.58951 7.50249 7.06077
#
# Compressibility (1/GPa) = 0.01695428
#
# Stress axis : x y z
#
# Youngs Moduli (GPa) = 71.02432 56.80342 40.40151
#
# Poissons Ratio (x) = 0.39551 -0.03165
# Poissons Ratio (y) = 0.49453 0.54790
# Poissons Ratio (z) = -0.05563 0.77033
#
# Static dielectric constant tensor:
#      x y z
#    x 3.675250 0.000000 0.000000 
#    y 0.000000 3.287960 0.000000 
#    z 0.000000 0.000000 3.525250 
# 
# 
# High freq. dielectric constant tensor:
#      x y z
#    x 1.692540 0.000000 0.000000 
#    y 0.000000 1.697370 0.000000 
#    z 0.000000 0.000000 1.692530 
# 
# From -- ./inp_files/7253.got.cif
#   From: 2010.03.12/outbox.cif.g09.slc.cpg/sg67_4_cif.got.tgz:7253.got - 2010.04.10 22:41:39.
