data_PCOD8279863
_publ_section_title
;
Structure prediction by ZEFSAII (Michael W. Deem and Ramdas Pophale) SiO2 
 PCOD8279863
Probable space group: C M M A
;
_chemical_formula_sum "Si O2"
_cell_formula_units_Z 80
_cell_length_a 8.438027
_cell_length_b 27.239921
_cell_length_c 18.642730
_cell_angle_alpha 90.000000
_cell_angle_beta 90.000000
_cell_angle_gamma 90.000000
_cell_volume 4285.053654
_symmetry_space_group_name_H-M "C M M A"
_symmetry_group_IT_number 67
_symmetry_cell_setting 'orthorhombic'
loop_
_space_group_symop_operation_xyz
x,y,z
-x,1/2-y,z
x,-y,-z
-x,1/2+y,-z
-x,-y,-z
x,1/2+y,-z
-x,y,z
x,1/2-y,z
1/2+x,1/2+y,z
1/2-x,-y,z
1/2+x,1/2-y,-z
1/2-x,y,-z
1/2-x,1/2-y,-z
1/2+x,y,-z
1/2-x,1/2+y,z
1/2+x,-y,z
loop_
_atom_site_type_symbol
_atom_site_label
_atom_site_fract_x
_atom_site_fract_y
_atom_site_fract_z
Si Si1 0.684254 0.647197 0.783867
Si Si2 0.184997 0.398214 0.577560
Si Si3 0.185695 0.193211 0.076813
Si Si4 0.815448 0.805692 0.647371
Si Si5 0.186144 0.446641 0.284194
O O1 0.500000 0.654885 0.768269
O O2 0.724737 0.660605 0.864969
O O3 0.781280 0.682534 0.730473
O O4 0.729795 0.590787 0.770272
O O5 0.250000 0.412063 0.500000
O O6 0.216284 0.341004 0.595118
O O7 0.274347 0.432752 0.633977
O O8 0.000000 0.409346 0.581806
O O9 0.227491 0.250000 0.090384
O O10 0.000000 0.183337 0.081403
O O11 0.250000 0.176117 0.000000
O O12 0.765470 0.750000 0.630480
O O13 0.000000 0.814480 0.632408
O O14 0.250000 0.500000 0.265195
O O15 0.000000 0.444156 0.272104
#
# Coordination Sequence:
#
# PCOD8279863 Si02
#       5
#    16  16  16  16  16
#     4  11  21  34  54  80 109 142 179 219 264 313
#     4  11  22  37  55  77 105 137 174 217 267 319
#     4  10  20  34  53  80 114 150 185 221 262 308
#     4  10  20  34  52  75 104 140 180 220 263 312
#     4  11  22  39  60  82 106 134 173 219 268 318
#
# _framework density 18.669543999999998
#
# number of rings (size 3 to 8) (size 9 to 14) (size 15 to 20)
#    0.000    1.400    0.000    9.600    0.000    6.000 
#    0.000    2.000    0.000    0.600    0.000    4.200 
#    0.000    0.000    0.000    0.000    0.000    0.000 
#
# Total GULP energy -496230.821103 kJ/mol
# GULP energy per Si atom -12405.770528 kJ/mol
# Density = 1.862705 g / cm^3
# Si number density = 18.669544 Si / 1000 Ang^3
#
#
#
# Elastic Constant Matrix: (Units=GPa)
#
#
# Indices 1 2 3 4 5 6 
#
# 1 69.3998 16.3931 10.3971 0.0000 0.0000 0.0000
# 2 16.3931 81.7557 24.5271 0.0000 0.0000 0.0000
# 3 10.3971 24.5271 96.7005 0.0000 0.0000 0.0000
# 4 0.0000 0.0000 0.0000 50.6888 0.0000 0.0000
# 5 0.0000 0.0000 0.0000 0.0000 33.9824 0.0000
# 6 0.0000 0.0000 0.0000 0.0000 0.0000 30.3787
#
#
#
# Elastic Compliance Matrix: (Units=1/GPa)
#
#
# Indices 1 2 3 4 5 6 
#
# 1 0.015203 -0.002769 -0.000932 0.000000 0.000000 0.000000
# 2 -0.002769 0.013743 -0.003188 0.000000 0.000000 0.000000
# 3 -0.000932 -0.003188 0.011250 0.000000 0.000000 0.000000
# 4 0.000000 0.000000 0.000000 0.019728 0.000000 0.000000
# 5 0.000000 0.000000 0.000000 0.000000 0.029427 0.000000
# 6 0.000000 0.000000 0.000000 0.000000 0.000000 0.032918
#
#
# Mechanical properties :
#
#
# Convention : Reuss Voigt Hill
#
# Bulk Modulus (GPa) = 37.85313 38.94338 38.39825
# Shear Modulus (GPa) = 34.51762 36.11255 35.31508
#
# Velocity S-wave (km/s) = 4.30452 4.40284 4.35396
# Velocity P-wave (km/s) = 6.71003 6.83749 6.77406
#
# Compressibility (1/GPa) = 0.02641789
#
# Stress axis : x y z
#
# Youngs Moduli (GPa) = 65.77672 72.76336 88.88817
#
# Poissons Ratio (x) = 0.20146 0.08287
# Poissons Ratio (y) = 0.18212 0.28339
# Poissons Ratio (z) = 0.06133 0.23198
#
# Static dielectric constant tensor:
#      x y z
#    x 3.566070 0.000000 0.000000 
#    y 0.000000 3.365570 0.000000 
#    z 0.000000 0.000000 3.575230 
# 
# 
# High freq. dielectric constant tensor:
#      x y z
#    x 1.745940 0.000000 0.000000 
#    y 0.000000 1.716180 0.000000 
#    z 0.000000 0.000000 1.715680 
# 
# From -- ./inp_files/32107.got.cif
#   From: 2010.03.12/outbox.cif.g09.slc.cpg/sg67_17_cif.got.tgz:32107.got - 2010.04.10 22:41:39.
