data_PCOD8279922
_publ_section_title
;
Structure prediction by ZEFSAII (Michael W. Deem and Ramdas Pophale) SiO2 
 PCOD8279922
Probable space group: C M M A
;
_chemical_formula_sum "Si O2"
_cell_formula_units_Z 96
_cell_length_a 8.966568
_cell_length_b 19.164434
_cell_length_c 30.709542
_cell_angle_alpha 90.000000
_cell_angle_beta 90.000000
_cell_angle_gamma 90.000000
_cell_volume 5277.103149
_symmetry_space_group_name_H-M "C M M A"
_symmetry_group_IT_number 67
_symmetry_cell_setting 'orthorhombic'
loop_
_space_group_symop_operation_xyz
x,y,z
-x,1/2-y,z
x,-y,-z
-x,1/2+y,-z
-x,-y,-z
x,1/2+y,-z
-x,y,z
x,1/2-y,z
1/2+x,1/2+y,z
1/2-x,-y,z
1/2+x,1/2-y,-z
1/2-x,y,-z
1/2-x,1/2-y,-z
1/2+x,y,-z
1/2-x,1/2+y,z
1/2+x,-y,z
loop_
_atom_site_type_symbol
_atom_site_label
_atom_site_fract_x
_atom_site_fract_y
_atom_site_fract_z
Si Si1 0.822670 0.827927 0.713175
Si Si2 0.826295 0.425132 0.459350
Si Si3 0.174044 0.074467 0.363414
Si Si4 0.674485 0.928933 0.212030
Si Si5 0.171659 0.332315 0.955885
Si Si6 0.176061 0.072256 0.112482
O O1 0.754329 0.750000 0.712558
O O2 0.761679 0.870655 0.671527
O O3 0.769577 0.865878 0.757463
O O4 0.000000 0.823823 0.711381
O O5 0.750000 0.500000 0.457829
O O6 0.750000 0.382763 0.500000
O O7 0.797762 0.391921 0.411579
O O8 0.000000 0.432352 0.469244
O O9 0.000000 0.061465 0.355806
O O10 0.250000 0.000000 0.356976
O O11 0.500000 0.940655 0.217065
O O12 0.718039 0.911277 0.162454
O O13 0.750000 0.000000 0.228069
O O14 0.187349 0.250000 0.950770
O O15 0.256015 0.365279 0.915185
O O16 0.000000 0.356124 0.956836
O O17 0.250000 0.358536 0.000000
O O18 0.000000 0.067612 0.105117
O O19 0.250000 0.000000 0.097280
#
# Coordination Sequence:
#
# PCOD8279922 Si02
#       6
#    16  16  16  16  16  16
#     4   9  17  30  48  70  95 123 158 197 234 277
#     4   9  15  23  37  60  87 113 145 185 230 275
#     4   9  17  28  45  68  91 119 154 192 234 279
#     4   9  18  32  52  75  98 127 160 197 240 285
#     4  10  21  37  56  78 105 137 172 209 249 293
#     4  10  20  34  53  78 106 134 167 206 248 295
#
# _framework density 18.191800000000001
#
# number of rings (size 3 to 8) (size 9 to 14) (size 15 to 20)
#    0.000    2.667    0.000    2.500    0.000    3.333 
#    0.000    3.333    0.000    2.500    0.000    0.000 
#    0.000    0.000    0.000    0.000    0.000    4.500 
#
# Total GULP energy -594997.779204 kJ/mol
# GULP energy per Si atom -12395.787067 kJ/mol
# Density = 1.815039 g / cm^3
# Si number density = 18.191800 Si / 1000 Ang^3
#
#
#
# Elastic Constant Matrix: (Units=GPa)
#
#
# Indices 1 2 3 4 5 6 
#
# 1 71.2166 32.1548 44.8724 0.0000 0.0000 0.0000
# 2 32.1548 93.4282 68.9281 0.0000 0.0000 0.0000
# 3 44.8724 68.9281 137.7533 0.0000 0.0000 0.0000
# 4 0.0000 0.0000 0.0000 13.9946 0.0000 0.0000
# 5 0.0000 0.0000 0.0000 0.0000 12.4258 0.0000
# 6 0.0000 0.0000 0.0000 0.0000 0.0000 22.5820
#
#
#
# Elastic Compliance Matrix: (Units=1/GPa)
#
#
# Indices 1 2 3 4 5 6 
#
# 1 0.018181 -0.002993 -0.004425 0.000000 0.000000 0.000000
# 2 -0.002993 0.017460 -0.007761 0.000000 0.000000 0.000000
# 3 -0.004425 -0.007761 0.012584 0.000000 0.000000 0.000000
# 4 0.000000 0.000000 0.000000 0.071456 0.000000 0.000000
# 5 0.000000 0.000000 0.000000 0.000000 0.080478 0.000000
# 6 0.000000 0.000000 0.000000 0.000000 0.000000 0.044283
#
#
# Mechanical properties :
#
#
# Convention : Reuss Voigt Hill
#
# Bulk Modulus (GPa) = 55.96987 66.03432 61.00210
# Shear Modulus (GPa) = 17.80908 20.22999 19.01954
#
# Velocity S-wave (km/s) = 3.13223 3.33834 3.23693
# Velocity P-wave (km/s) = 6.62680 7.15801 6.89752
#
# Compressibility (1/GPa) = 0.01786675
#
# Stress axis : x y z
#
# Youngs Moduli (GPa) = 55.00266 57.27539 79.46396
#
# Poissons Ratio (x) = 0.17141 0.35162
# Poissons Ratio (y) = 0.16461 0.61675
# Poissons Ratio (z) = 0.24338 0.44454
#
# Static dielectric constant tensor:
#      x y z
#    x 3.313570 0.000000 0.000000 
#    y 0.000000 3.210530 0.000000 
#    z 0.000000 0.000000 4.030570 
# 
# 
# High freq. dielectric constant tensor:
#      x y z
#    x 1.694940 0.000000 0.000000 
#    y 0.000000 1.673440 0.000000 
#    z 0.000000 0.000000 1.726290 
# 
# From -- ./inp_files/43438.got.cif
#   From: 2010.03.12/outbox.cif.g09.slc.cpg/sg67_22_cif.got.tgz:43438.got - 2010.04.10 22:41:39.
