data_PCOD8279009
_publ_section_title
;
Structure prediction by ZEFSAII (Michael W. Deem and Ramdas Pophale) SiO2 
 PCOD8279009
Probable space group: C M M A
;
_chemical_formula_sum "Si O2"
_cell_formula_units_Z 80
_cell_length_a 8.994591
_cell_length_b 19.299419
_cell_length_c 26.147691
_cell_angle_alpha 90.000000
_cell_angle_beta 90.000000
_cell_angle_gamma 90.000000
_cell_volume 4538.987628
_symmetry_space_group_name_H-M "C M M A"
_symmetry_group_IT_number 67
_symmetry_cell_setting 'orthorhombic'
loop_
_space_group_symop_operation_xyz
x,y,z
-x,1/2-y,z
x,-y,-z
-x,1/2+y,-z
-x,-y,-z
x,1/2+y,-z
-x,y,z
x,1/2-y,z
1/2+x,1/2+y,z
1/2-x,-y,z
1/2+x,1/2-y,-z
1/2-x,y,-z
1/2-x,1/2-y,-z
1/2+x,y,-z
1/2-x,1/2+y,z
1/2+x,-y,z
loop_
_atom_site_type_symbol
_atom_site_label
_atom_site_fract_x
_atom_site_fract_y
_atom_site_fract_z
Si Si1 0.825051 0.425682 0.857934
Si Si2 0.827000 0.830929 0.552530
Si Si3 0.675775 0.424699 0.363583
Si Si4 0.675456 0.829023 0.948356
Si Si5 0.170763 0.071724 0.747555
O O1 0.750000 0.500000 0.864738
O O2 0.763344 0.373637 0.900811
O O3 0.788334 0.390982 0.801651
O O4 0.000000 0.436205 0.864773
O O5 0.802180 0.750000 0.562847
O O6 0.750000 0.854030 0.500000
O O7 0.749245 0.871744 0.597808
O O8 0.000000 0.850243 0.549621
O O9 0.500000 0.431262 0.374350
O O10 0.750000 0.500000 0.369574
O O11 0.707872 0.391313 0.306689
O O12 0.500000 0.835749 0.954310
O O13 0.724242 0.750000 0.938442
O O14 0.750000 0.857793 0.000000
O O15 0.000000 0.052791 0.748100
O O16 0.250000 0.000000 0.747477
#
# Coordination Sequence:
#
# PCOD8279009 Si02
#       5
#    16  16  16  16  16
#     4   9  17  30  48  70  94 121 155 193 234 278
#     4  10  21  37  55  74  99 131 165 202 245 291
#     4  10  19  32  52  77 103 130 163 201 241 287
#     4   9  18  32  48  65  89 122 157 193 234 280
#     4   8  15  28  46  69  96 125 155 189 232 280
#
# _framework density 17.625076
#
# number of rings (size 3 to 8) (size 9 to 14) (size 15 to 20)
#    0.000    2.800    0.000    1.200    0.000    3.600 
#    0.000    5.000    0.000    3.600    0.000    2.800 
#    0.000    0.000    0.000    0.000    0.000    0.000 
#
# Total GULP energy -495525.141321 kJ/mol
# GULP energy per Si atom -12388.128533 kJ/mol
# Density = 1.758496 g / cm^3
# Si number density = 17.625076 Si / 1000 Ang^3
#
#
#
# Elastic Constant Matrix: (Units=GPa)
#
#
# Indices 1 2 3 4 5 6 
#
# 1 65.2061 34.1251 66.3178 0.0000 0.0000 0.0000
# 2 34.1251 59.5277 76.9767 0.0000 0.0000 0.0000
# 3 66.3178 76.9767 209.2229 0.0000 0.0000 0.0000
# 4 0.0000 0.0000 0.0000 3.5397 0.0000 0.0000
# 5 0.0000 0.0000 0.0000 0.0000 16.9795 0.0000
# 6 0.0000 0.0000 0.0000 0.0000 0.0000 24.4417
#
#
#
# Elastic Compliance Matrix: (Units=1/GPa)
#
#
# Indices 1 2 3 4 5 6 
#
# 1 0.024299 -0.007573 -0.004916 0.000000 0.000000 0.000000
# 2 -0.007573 0.034405 -0.010258 0.000000 0.000000 0.000000
# 3 -0.004916 -0.010258 0.010112 0.000000 0.000000 0.000000
# 4 0.000000 0.000000 0.000000 0.282512 0.000000 0.000000
# 5 0.000000 0.000000 0.000000 0.000000 0.058895 0.000000
# 6 0.000000 0.000000 0.000000 0.000000 0.000000 0.040914
#
#
# Mechanical properties :
#
#
# Convention : Reuss Voigt Hill
#
# Bulk Modulus (GPa) = 42.87716 76.53288 59.70502
# Shear Modulus (GPa) = 9.91271 19.42798 14.67035
#
# Velocity S-wave (km/s) = 2.37411 3.32368 2.88819
# Velocity P-wave (km/s) = 5.64760 7.63191 6.71348
#
# Compressibility (1/GPa) = 0.02332244
#
# Stress axis : x y z
#
# Youngs Moduli (GPa) = 41.15414 29.06592 98.89479
#
# Poissons Ratio (x) = 0.22011 0.48616
# Poissons Ratio (y) = 0.31165 1.01443
# Poissons Ratio (z) = 0.20231 0.29815
#
# Static dielectric constant tensor:
#      x y z
#    x 3.320320 0.000000 0.000000 
#    y 0.000000 2.982980 0.000000 
#    z 0.000000 0.000000 4.143030 
# 
# 
# High freq. dielectric constant tensor:
#      x y z
#    x 1.686290 0.000000 0.000000 
#    y 0.000000 1.644370 0.000000 
#    z 0.000000 0.000000 1.708540 
# 
# From -- ./inp_files/43200.got.cif
#   From: 2010.03.12/outbox.cif.g09.slc.cpg/sg67_22_cif.got.tgz:43200.got - 2010.04.10 22:41:39.
