data_PCOD8279934
_publ_section_title
;
Structure prediction by ZEFSAII (Michael W. Deem and Ramdas Pophale) SiO2 
 PCOD8279934
Probable space group: C M M A
;
_chemical_formula_sum "Si O2"
_cell_formula_units_Z 80
_cell_length_a 19.216117
_cell_length_b 8.674071
_cell_length_c 25.458722
_cell_angle_alpha 90.000000
_cell_angle_beta 90.000000
_cell_angle_gamma 90.000000
_cell_volume 4243.509764
_symmetry_space_group_name_H-M "C M M A"
_symmetry_group_IT_number 67
_symmetry_cell_setting 'orthorhombic'
loop_
_space_group_symop_operation_xyz
x,y,z
-x,1/2-y,z
x,-y,-z
-x,1/2+y,-z
-x,-y,-z
x,1/2+y,-z
-x,y,z
x,1/2-y,z
1/2+x,1/2+y,z
1/2-x,-y,z
1/2+x,1/2-y,-z
1/2-x,y,-z
1/2-x,1/2-y,-z
1/2+x,y,-z
1/2-x,1/2+y,z
1/2+x,-y,z
loop_
_atom_site_type_symbol
_atom_site_label
_atom_site_fract_x
_atom_site_fract_y
_atom_site_fract_z
Si Si1 0.917233 0.576796 0.447236
Si Si2 0.176736 0.931188 0.254124
Si Si3 0.176142 0.932057 0.857780
Si Si4 0.581935 0.427037 0.660233
Si Si5 0.081917 0.427689 0.945162
O O1 0.886469 0.500000 0.500000
O O2 0.888071 0.750000 0.442401
O O3 0.891980 0.478823 0.397228
O O4 0.000000 0.578172 0.450128
O O5 0.184615 0.750000 0.246792
O O6 0.250000 0.000000 0.273501
O O7 0.153994 0.003891 0.198864
O O8 0.117961 0.967608 0.296435
O O9 0.182248 0.750000 0.854496
O O10 0.250000 0.000000 0.876024
O O11 0.117385 0.979064 0.898641
O O12 0.500000 0.452956 0.665895
O O13 0.602900 0.250000 0.668732
O O14 0.104766 0.250000 0.943487
O O15 0.000000 0.447423 0.937848
O O16 0.106846 0.500000 0.000000
#
# Coordination Sequence:
#
# PCOD8279934 Si02
#       5
#    16  16  16  16  16
#     4   9  16  27  45  71 103 138 175 217 266 316
#     4  11  22  38  58  79 107 142 180 221 269 322
#     4  11  22  38  59  82 109 141 181 224 267 316
#     4  10  20  34  53  79 109 140 178 223 268 316
#     4  10  21  38  59  84 114 146 180 219 266 318
#
# _framework density 18.852319000000001
#
# number of rings (size 3 to 8) (size 9 to 14) (size 15 to 20)
#    0.000    1.800    0.000    6.600    0.000    6.000 
#    0.000    2.000    0.000    0.600    0.000    4.200 
#    0.000    0.000    0.000    0.000    0.000    0.000 
#
# Total GULP energy -496164.126408 kJ/mol
# GULP energy per Si atom -12404.103160 kJ/mol
# Density = 1.880941 g / cm^3
# Si number density = 18.852319 Si / 1000 Ang^3
#
#
#
# Elastic Constant Matrix: (Units=GPa)
#
#
# Indices 1 2 3 4 5 6 
#
# 1 40.0493 37.9344 48.7543 0.0000 0.0000 0.0000
# 2 37.9344 165.5468 59.6509 0.0000 0.0000 0.0000
# 3 48.7543 59.6509 129.3802 0.0000 0.0000 0.0000
# 4 0.0000 0.0000 0.0000 40.1230 0.0000 0.0000
# 5 0.0000 0.0000 0.0000 0.0000 26.1729 0.0000
# 6 0.0000 0.0000 0.0000 0.0000 0.0000 27.4895
#
#
#
# Elastic Compliance Matrix: (Units=1/GPa)
#
#
# Indices 1 2 3 4 5 6 
#
# 1 0.050134 -0.005613 -0.016304 0.000000 0.000000 0.000000
# 2 -0.005613 0.007873 -0.001514 0.000000 0.000000 0.000000
# 3 -0.016304 -0.001514 0.014571 0.000000 0.000000 0.000000
# 4 0.000000 0.000000 0.000000 0.024923 0.000000 0.000000
# 5 0.000000 0.000000 0.000000 0.000000 0.038207 0.000000
# 6 0.000000 0.000000 0.000000 0.000000 0.000000 0.036378
#
#
# Mechanical properties :
#
#
# Convention : Reuss Voigt Hill
#
# Bulk Modulus (GPa) = 38.88877 69.73950 54.31413
# Shear Modulus (GPa) = 21.97607 31.33285 26.65446
#
# Velocity S-wave (km/s) = 3.41793 4.08121 3.76421
# Velocity P-wave (km/s) = 6.02073 7.69943 6.91124
#
# Compressibility (1/GPa) = 0.02571436
#
# Stress axis : x y z
#
# Youngs Moduli (GPa) = 19.94667 127.02414 68.62878
#
# Poissons Ratio (x) = 0.71302 1.11891
# Poissons Ratio (y) = 0.11197 0.10393
# Poissons Ratio (z) = 0.32521 0.19237
#
# Static dielectric constant tensor:
#      x y z
#    x 3.147710 0.000000 0.000000 
#    y 0.000000 3.671860 0.000000 
#    z 0.000000 0.000000 3.560940 
# 
# 
# High freq. dielectric constant tensor:
#      x y z
#    x 1.701150 0.000000 0.000000 
#    y 0.000000 1.755690 0.000000 
#    z 0.000000 0.000000 1.744720 
# 
# From -- ./inp_files/44419.got.cif
#   From: 2010.03.12/outbox.cif.g09.slc.cpg/sg67_23_cif.got.tgz:44419.got - 2010.04.10 22:41:39.
