data_PCOD8279625
_publ_section_title
;
Structure prediction by ZEFSAII (Michael W. Deem and Ramdas Pophale) SiO2 
 PCOD8279625
Probable space group: C M M A
;
_chemical_formula_sum "Si O2"
_cell_formula_units_Z 112
_cell_length_a 9.672509
_cell_length_b 18.339824
_cell_length_c 35.983984
_cell_angle_alpha 90.000000
_cell_angle_beta 90.000000
_cell_angle_gamma 90.000000
_cell_volume 6383.274945
_symmetry_space_group_name_H-M "C M M A"
_symmetry_group_IT_number 67
_symmetry_cell_setting 'orthorhombic'
loop_
_space_group_symop_operation_xyz
x,y,z
-x,1/2-y,z
x,-y,-z
-x,1/2+y,-z
-x,-y,-z
x,1/2+y,-z
-x,y,z
x,1/2-y,z
1/2+x,1/2+y,z
1/2-x,-y,z
1/2+x,1/2-y,-z
1/2-x,y,-z
1/2-x,1/2-y,-z
1/2+x,y,-z
1/2-x,1/2+y,z
1/2+x,-y,z
loop_
_atom_site_type_symbol
_atom_site_label
_atom_site_fract_x
_atom_site_fract_y
_atom_site_fract_z
Si Si1 0.341425 0.165962 0.033961
Si Si2 0.346162 0.163213 0.255486
Si Si3 0.335833 0.331055 0.173854
Si Si4 0.659925 0.334325 0.677711
Si Si5 0.840433 0.833997 0.534658
Si Si6 0.162406 0.427809 0.894038
Si Si7 0.161596 0.927435 0.606191
O O1 0.500000 0.155279 0.022420
O O2 0.306927 0.250000 0.042334
O O3 0.304602 0.122095 0.070762
O O4 0.250000 0.135838 0.000000
O O5 0.500000 0.132339 0.263320
O O6 0.349694 0.250000 0.255692
O O7 0.292486 0.138466 0.214651
O O8 0.244545 0.133584 0.287339
O O9 0.500000 0.325120 0.171914
O O10 0.273379 0.250000 0.167030
O O11 0.281833 0.385941 0.142451
O O12 0.500000 0.344164 0.687428
O O13 0.696058 0.250000 0.670003
O O14 0.702944 0.379138 0.641530
O O15 0.808673 0.750000 0.544374
O O16 0.750000 0.861127 0.500000
O O17 0.798092 0.881664 0.569924
O O18 0.000000 0.844972 0.524029
O O19 0.250000 0.500000 0.898532
O O20 0.000000 0.446203 0.891062
O O21 0.000000 0.947299 0.606529
O O22 0.250000 0.000000 0.606754
#
# Coordination Sequence:
#
# PCOD8279625 Si02
#       7
#    16  16  16  16  16  16  16
#     4   9  18  33  53  74  94 120 157 198 237 278
#     4   8  14  26  47  74  97 118 152 199 243 279
#     4   8  14  28  51  73  92 120 160 200 235 276
#     4   9  17  31  51  72  95 125 160 197 238 283
#     4   9  18  34  55  76  97 123 158 198 238 281
#     4  10  20  33  49  70  97 128 160 193 232 281
#     4  10  21  35  50  70  98 131 163 195 234 281
#
# _framework density 17.545853000000001
#
# number of rings (size 3 to 8) (size 9 to 14) (size 15 to 20)
#    0.000    3.000    0.000    1.714    0.000    5.714 
#    0.000    4.286    0.000    9.857    0.000    0.000 
#    0.000    0.000    0.000    0.000    0.000    0.000 
#
# Total GULP energy -694316.962572 kJ/mol
# GULP energy per Si atom -12398.517189 kJ/mol
# Density = 1.750592 g / cm^3
# Si number density = 17.545853 Si / 1000 Ang^3
#
#
#
# Elastic Constant Matrix: (Units=GPa)
#
#
# Indices 1 2 3 4 5 6 
#
# 1 62.4390 48.6838 76.2336 0.0000 0.0000 0.0000
# 2 48.6838 81.1362 72.8981 0.0000 0.0000 0.0000
# 3 76.2336 72.8981 181.0110 0.0000 0.0000 0.0000
# 4 0.0000 0.0000 0.0000 1.8639 0.0000 0.0000
# 5 0.0000 0.0000 0.0000 0.0000 30.4775 0.0000
# 6 0.0000 0.0000 0.0000 0.0000 0.0000 25.4540
#
#
#
# Elastic Compliance Matrix: (Units=1/GPa)
#
#
# Indices 1 2 3 4 5 6 
#
# 1 0.041515 -0.014418 -0.011678 0.000000 0.000000 0.000000
# 2 -0.014418 0.024321 -0.003722 0.000000 0.000000 0.000000
# 3 -0.011678 -0.003722 0.011942 0.000000 0.000000 0.000000
# 4 0.000000 0.000000 0.000000 0.536501 0.000000 0.000000
# 5 0.000000 0.000000 0.000000 0.000000 0.032811 0.000000
# 6 0.000000 0.000000 0.000000 0.000000 0.000000 0.039287
#
#
# Mechanical properties :
#
#
# Convention : Reuss Voigt Hill
#
# Bulk Modulus (GPa) = 55.12330 80.02414 67.57372
# Shear Modulus (GPa) = 6.64841 20.01046 13.32944
#
# Velocity S-wave (km/s) = 1.94869 3.38074 2.75924
# Velocity P-wave (km/s) = 6.04550 7.80684 6.98194
#
# Compressibility (1/GPa) = 0.01814115
#
# Stress axis : x y z
#
# Youngs Moduli (GPa) = 24.08757 41.11753 83.73997
#
# Poissons Ratio (x) = 0.59284 0.97789
# Poissons Ratio (y) = 0.34730 0.31170
# Poissons Ratio (z) = 0.28129 0.15305
#
# Static dielectric constant tensor:
#      x y z
#    x 3.155770 0.000000 0.000000 
#    y 0.000000 3.110170 0.000000 
#    z 0.000000 0.000000 3.577790 
# 
# 
# High freq. dielectric constant tensor:
#      x y z
#    x 1.659330 0.000000 0.000000 
#    y 0.000000 1.658680 0.000000 
#    z 0.000000 0.000000 1.693820 
# 
# From -- ./inp_files/45588.got.cif
#   From: 2010.03.12/outbox.cif.g09.slc.cpg/sg67_23_cif.got.tgz:45588.got - 2010.04.10 22:41:39.
