data_PCOD8279708
_publ_section_title
;
Structure prediction by ZEFSAII (Michael W. Deem and Ramdas Pophale) SiO2 
 PCOD8279708
Probable space group: C M M A
;
_chemical_formula_sum "Si O2"
_cell_formula_units_Z 80
_cell_length_a 10.126637
_cell_length_b 24.590041
_cell_length_c 17.597924
_cell_angle_alpha 90.000000
_cell_angle_beta 90.000000
_cell_angle_gamma 90.000000
_cell_volume 4382.136821
_symmetry_space_group_name_H-M "C M M A"
_symmetry_group_IT_number 67
_symmetry_cell_setting 'orthorhombic'
loop_
_space_group_symop_operation_xyz
x,y,z
-x,1/2-y,z
x,-y,-z
-x,1/2+y,-z
-x,-y,-z
x,1/2+y,-z
-x,y,z
x,1/2-y,z
1/2+x,1/2+y,z
1/2-x,-y,z
1/2+x,1/2-y,-z
1/2-x,y,-z
1/2-x,1/2-y,-z
1/2+x,y,-z
1/2-x,1/2+y,z
1/2+x,-y,z
loop_
_atom_site_type_symbol
_atom_site_label
_atom_site_fract_x
_atom_site_fract_y
_atom_site_fract_z
Si Si1 0.000000 0.553179 0.721690
Si Si2 0.764175 0.687362 0.633786
Si Si3 0.500000 0.616408 0.423942
Si Si4 0.500000 0.864582 0.590982
Si Si5 0.000000 0.573618 0.254246
Si Si6 0.232264 0.375376 0.216558
Si Si7 0.847980 0.312543 0.067698
O O1 0.000000 0.562998 0.630074
O O2 0.870305 0.579328 0.757254
O O3 0.000000 0.490844 0.743668
O O4 0.800319 0.750000 0.623986
O O5 0.872116 0.652086 0.591474
O O6 0.624970 0.674988 0.594810
O O7 0.760722 0.673577 0.723153
O O8 0.500000 0.600482 0.512811
O O9 0.500000 0.907881 0.658463
O O10 0.126148 0.595834 0.208798
O O11 0.187366 0.351104 0.137168
O O12 0.825561 0.250000 0.091609
O O13 0.000000 0.322070 0.042593
O O14 0.750000 0.328841 0.000000
#
# Coordination Sequence:
#
# PCOD8279708 Si02
#       7
#     8  16   8   8   8  16  16
#     4  10  20  38  58  79 101 142 193 237 281 324
#     4  10  20  33  51  76 107 145 182 218 270 333
#     4  10  21  33  52  76 105 138 186 232 277 332
#     4  10  21  35  48  76 109 140 180 232 281 328
#     4  10  22  36  58  79 105 144 189 235 285 324
#     4  10  20  37  57  82 110 143 185 230 270 323
#     4  10  21  37  60  90 121 150 177 211 262 322
#
# _framework density 18.255932999999999
#
# number of rings (size 3 to 8) (size 9 to 14) (size 15 to 20)
#    0.000    2.000    1.000    2.400    1.400    2.800 
#    0.000    1.000    0.000   10.800    0.000    0.000 
#    0.000    0.000    0.000    0.000    0.000    0.000 
#
# Total GULP energy -496062.832803 kJ/mol
# GULP energy per Si atom -12401.570820 kJ/mol
# Density = 1.821438 g / cm^3
# Si number density = 18.255933 Si / 1000 Ang^3
#
#
#
# Elastic Constant Matrix: (Units=GPa)
#
#
# Indices 1 2 3 4 5 6 
#
# 1 134.1175 18.8854 29.8379 0.0000 0.0000 0.0000
# 2 18.8854 64.5926 23.9822 0.0000 0.0000 0.0000
# 3 29.8379 23.9822 99.0445 0.0000 0.0000 0.0000
# 4 0.0000 0.0000 0.0000 13.9685 0.0000 0.0000
# 5 0.0000 0.0000 0.0000 0.0000 36.7270 0.0000
# 6 0.0000 0.0000 0.0000 0.0000 0.0000 8.4690
#
#
#
# Elastic Compliance Matrix: (Units=1/GPa)
#
#
# Indices 1 2 3 4 5 6 
#
# 1 0.008142 -0.001615 -0.002062 0.000000 0.000000 0.000000
# 2 -0.001615 0.017331 -0.003710 0.000000 0.000000 0.000000
# 3 -0.002062 -0.003710 0.011616 0.000000 0.000000 0.000000
# 4 0.000000 0.000000 0.000000 0.071590 0.000000 0.000000
# 5 0.000000 0.000000 0.000000 0.000000 0.027228 0.000000
# 6 0.000000 0.000000 0.000000 0.000000 0.000000 0.118078
#
#
# Mechanical properties :
#
#
# Convention : Reuss Voigt Hill
#
# Bulk Modulus (GPa) = 44.81147 49.24063 47.02605
# Shear Modulus (GPa) = 18.10298 26.83617 22.46958
#
# Velocity S-wave (km/s) = 3.15242 3.83821 3.51210
# Velocity P-wave (km/s) = 6.15222 6.83180 6.50090
#
# Compressibility (1/GPa) = 0.02231571
#
# Stress axis : x y z
#
# Youngs Moduli (GPa) = 122.81564 57.69909 86.08865
#
# Poissons Ratio (x) = 0.09319 0.17750
# Poissons Ratio (y) = 0.19836 0.31939
# Poissons Ratio (z) = 0.25323 0.21406
#
# Static dielectric constant tensor:
#      x y z
#    x 3.484730 0.000000 0.000000 
#    y 0.000000 3.113090 0.000000 
#    z 0.000000 0.000000 3.328280 
# 
# 
# High freq. dielectric constant tensor:
#      x y z
#    x 1.732950 0.000000 0.000000 
#    y 0.000000 1.690960 0.000000 
#    z 0.000000 0.000000 1.699770 
# 
# From -- ./inp_files/29916.got.cif
#   From: 2010.03.12/outbox.cif.g09.slc.cpg/sg67_15_cif.got.tgz:29916.got - 2010.04.10 22:41:39.
