data_PCOD8279513
_publ_section_title
;
Structure prediction by ZEFSAII (Michael W. Deem and Ramdas Pophale) SiO2 
 PCOD8279513
Probable space group: C M M A
;
_chemical_formula_sum "Si O2"
_cell_formula_units_Z 96
_cell_length_a 26.974833
_cell_length_b 9.146279
_cell_length_c 24.036740
_cell_angle_alpha 90.000000
_cell_angle_beta 90.000000
_cell_angle_gamma 90.000000
_cell_volume 5930.328835
_symmetry_space_group_name_H-M "C M M A"
_symmetry_group_IT_number 67
_symmetry_cell_setting 'orthorhombic'
loop_
_space_group_symop_operation_xyz
x,y,z
-x,1/2-y,z
x,-y,-z
-x,1/2+y,-z
-x,-y,-z
x,1/2+y,-z
-x,y,z
x,1/2-y,z
1/2+x,1/2+y,z
1/2-x,-y,z
1/2+x,1/2-y,-z
1/2-x,y,-z
1/2-x,1/2-y,-z
1/2+x,y,-z
1/2-x,1/2+y,z
1/2+x,-y,z
loop_
_atom_site_type_symbol
_atom_site_label
_atom_site_fract_x
_atom_site_fract_y
_atom_site_fract_z
Si Si1 0.440931 0.914875 0.553438
Si Si2 0.899575 0.079297 0.221061
Si Si3 0.200312 0.582168 0.835945
Si Si4 0.442811 0.918626 0.879877
Si Si5 0.359798 0.077048 0.943849
Si Si6 0.557078 0.419371 0.661860
O O1 0.500000 0.919973 0.552292
O O2 0.420907 0.750000 0.551513
O O3 0.419397 0.000000 0.500000
O O4 0.421650 0.990024 0.609879
O O5 0.910781 0.250000 0.209087
O O6 0.842192 0.042719 0.208770
O O7 0.910785 0.037245 0.284502
O O8 0.934753 0.984428 0.181481
O O9 0.214125 0.750000 0.833348
O O10 0.250000 0.500000 0.819710
O O11 0.181238 0.540080 0.897415
O O12 0.500000 0.932911 0.896252
O O13 0.425527 0.750000 0.880286
O O14 0.412319 0.009681 0.925502
O O15 0.366315 0.250000 0.952380
O O16 0.341372 0.000000 0.000000
O O17 0.500000 0.458525 0.674403
O O18 0.562756 0.250000 0.646676
#
# Coordination Sequence:
#
# PCOD8279513 Si02
#       6
#    16  16  16  16  16  16
#     4   9  16  25  37  55  83 119 157 192 222 254
#     4   9  18  32  48  67  91 119 152 186 222 267
#     4   9  19  34  51  70  90 114 143 178 223 271
#     4  10  20  32  47  68  93 121 151 182 218 259
#     4  10  21  36  52  70  91 115 146 181 218 264
#     4   9  16  26  42  63  88 120 154 186 220 256
#
# _framework density 16.187973
#
# number of rings (size 3 to 8) (size 9 to 14) (size 15 to 20)
#    0.000    2.667    0.000    3.000    0.000    8.667 
#    0.000    3.333    0.000    0.000    0.000    0.000 
#    0.000    0.667    0.000    7.667    0.000    2.667 
#
# Total GULP energy -595229.065996 kJ/mol
# GULP energy per Si atom -12400.605542 kJ/mol
# Density = 1.615113 g / cm^3
# Si number density = 16.187973 Si / 1000 Ang^3
#
#
#
# Elastic Constant Matrix: (Units=GPa)
#
#
# Indices 1 2 3 4 5 6 
#
# 1 65.4041 31.7336 35.6983 0.0000 0.0000 0.0000
# 2 31.7336 82.1941 52.3843 0.0000 0.0000 0.0000
# 3 35.6983 52.3843 126.3340 0.0000 0.0000 0.0000
# 4 0.0000 0.0000 0.0000 31.2807 0.0000 0.0000
# 5 0.0000 0.0000 0.0000 0.0000 11.3903 0.0000
# 6 0.0000 0.0000 0.0000 0.0000 0.0000 23.8582
#
#
#
# Elastic Compliance Matrix: (Units=1/GPa)
#
#
# Indices 1 2 3 4 5 6 
#
# 1 0.019772 -0.005536 -0.003292 0.000000 0.000000 0.000000
# 2 -0.005536 0.018086 -0.005935 0.000000 0.000000 0.000000
# 3 -0.003292 -0.005935 0.011307 0.000000 0.000000 0.000000
# 4 0.000000 0.000000 0.000000 0.031969 0.000000 0.000000
# 5 0.000000 0.000000 0.000000 0.000000 0.087794 0.000000
# 6 0.000000 0.000000 0.000000 0.000000 0.000000 0.041914
#
#
# Mechanical properties :
#
#
# Convention : Reuss Voigt Hill
#
# Bulk Modulus (GPa) = 50.91704 57.06272 53.98988
# Shear Modulus (GPa) = 20.25004 23.58027 21.91515
#
# Velocity S-wave (km/s) = 3.54069 3.82075 3.68338
# Velocity P-wave (km/s) = 6.94530 7.40208 7.17733
#
# Compressibility (1/GPa) = 0.01963979
#
# Stress axis : x y z
#
# Youngs Moduli (GPa) = 50.57642 55.29071 88.44356
#
# Poissons Ratio (x) = 0.30608 0.29112
# Poissons Ratio (y) = 0.27998 0.52493
# Poissons Ratio (z) = 0.16648 0.32816
#
# Static dielectric constant tensor:
#      x y z
#    x 2.743320 0.000000 0.000000 
#    y 0.000000 3.172330 0.000000 
#    z 0.000000 0.000000 3.123230 
# 
# 
# High freq. dielectric constant tensor:
#      x y z
#    x 1.582960 0.000000 0.000000 
#    y 0.000000 1.633250 0.000000 
#    z 0.000000 0.000000 1.621300 
# 
# From -- ./inp_files/40775.got.cif
#   From: 2010.03.12/outbox.cif.g09.slc.cpg/sg67_21_cif.got.tgz:40775.got - 2010.04.10 22:41:39.
