data_PCOD8279284
_publ_section_title
;
Structure prediction by ZEFSAII (Michael W. Deem and Ramdas Pophale) SiO2 
 PCOD8279284
Probable space group: C M M A
;
_chemical_formula_sum "Si O2"
_cell_formula_units_Z 80
_cell_length_a 17.648332
_cell_length_b 26.124102
_cell_length_c 9.251920
_cell_angle_alpha 90.000000
_cell_angle_beta 90.000000
_cell_angle_gamma 90.000000
_cell_volume 4265.568344
_symmetry_space_group_name_H-M "C M M A"
_symmetry_group_IT_number 67
_symmetry_cell_setting 'orthorhombic'
loop_
_space_group_symop_operation_xyz
x,y,z
-x,1/2-y,z
x,-y,-z
-x,1/2+y,-z
-x,-y,-z
x,1/2+y,-z
-x,y,z
x,1/2-y,z
1/2+x,1/2+y,z
1/2-x,-y,z
1/2+x,1/2-y,-z
1/2-x,y,-z
1/2-x,1/2-y,-z
1/2+x,y,-z
1/2-x,1/2+y,z
1/2+x,-y,z
loop_
_atom_site_type_symbol
_atom_site_label
_atom_site_fract_x
_atom_site_fract_y
_atom_site_fract_z
Si Si1 0.733095 0.943219 0.169621
Si Si2 0.915151 0.808213 0.503806
Si Si3 0.312016 0.192681 0.888337
Si Si4 0.216699 0.352877 0.653596
Si Si5 0.085920 0.382375 0.222946
O O1 0.790116 0.904166 0.250019
O O2 0.645604 0.929421 0.213637
O O3 0.750000 0.000000 0.227253
O O4 0.750000 0.939802 0.000000
O O5 0.894786 0.750000 0.558214
O O6 0.863449 0.824680 0.367797
O O7 0.907755 0.850854 0.628377
O O8 0.000000 0.808365 0.443245
O O9 0.335806 0.250000 0.924047
O O10 0.275009 0.186835 0.729026
O O11 0.387374 0.157876 0.901207
O O12 0.250000 0.171557 0.000000
O O13 0.250000 0.368699 0.500000
O O14 0.000000 0.401708 0.194879
#
# Coordination Sequence:
#
# PCOD8279284 Si02
#       5
#    16  16  16  16  16
#     4  10  22  42  61  80 108 142 183 231 285 341
#     4  10  20  33  51  82 121 153 180 219 272 323
#     4  10  20  33  51  80 116 152 190 224 263 323
#     4  11  19  33  56  82 106 141 189 229 268 322
#     4  10  19  34  56  83 110 142 185 227 274 331
#
# _framework density 18.754828
#
# number of rings (size 3 to 8) (size 9 to 14) (size 15 to 20)
#    0.000    1.800    4.000    3.600    0.000    2.400 
#    0.000    7.000    0.000    3.600    0.000    0.000 
#    0.000    0.000    0.000    0.000    0.000    0.000 
#
# Total GULP energy -495524.227797 kJ/mol
# GULP energy per Si atom -12388.105695 kJ/mol
# Density = 1.871214 g / cm^3
# Si number density = 18.754828 Si / 1000 Ang^3
#
#
#
# Elastic Constant Matrix: (Units=GPa)
#
#
# Indices 1 2 3 4 5 6 
#
# 1 144.6891 58.1004 28.1344 0.0000 0.0000 0.0000
# 2 58.1004 122.8609 19.0557 0.0000 0.0000 0.0000
# 3 28.1344 19.0557 63.9469 0.0000 0.0000 0.0000
# 4 0.0000 0.0000 0.0000 24.4923 0.0000 0.0000
# 5 0.0000 0.0000 0.0000 0.0000 27.9481 0.0000
# 6 0.0000 0.0000 0.0000 0.0000 0.0000 24.2060
#
#
#
# Elastic Compliance Matrix: (Units=1/GPa)
#
#
# Indices 1 2 3 4 5 6 
#
# 1 0.008991 -0.003815 -0.002819 0.000000 0.000000 0.000000
# 2 -0.003815 0.010152 -0.001347 0.000000 0.000000 0.000000
# 3 -0.002819 -0.001347 0.017280 0.000000 0.000000 0.000000
# 4 0.000000 0.000000 0.000000 0.040829 0.000000 0.000000
# 5 0.000000 0.000000 0.000000 0.000000 0.035781 0.000000
# 6 0.000000 0.000000 0.000000 0.000000 0.000000 0.041312
#
#
# Mechanical properties :
#
#
# Convention : Reuss Voigt Hill
#
# Bulk Modulus (GPa) = 48.87196 60.23090 54.55143
# Shear Modulus (GPa) = 28.22830 30.40969 29.31900
#
# Velocity S-wave (km/s) = 3.88380 4.03107 3.95812
# Velocity P-wave (km/s) = 6.79903 7.33830 7.07380
#
# Compressibility (1/GPa) = 0.02046163
#
# Stress axis : x y z
#
# Youngs Moduli (GPa) = 111.21785 98.50110 57.87149
#
# Poissons Ratio (x) = 0.37576 0.16315
# Poissons Ratio (y) = 0.42427 0.07795
# Poissons Ratio (z) = 0.31354 0.13267
#
# Static dielectric constant tensor:
#      x y z
#    x 3.714790 0.000000 0.000000 
#    y 0.000000 3.473260 0.000000 
#    z 0.000000 0.000000 3.429000 
# 
# 
# High freq. dielectric constant tensor:
#      x y z
#    x 1.724260 0.000000 0.000000 
#    y 0.000000 1.721710 0.000000 
#    z 0.000000 0.000000 1.714850 
# 
# From -- ./inp_files/10143.got.cif
#   From: 2010.03.12/outbox.cif.g09.slc.cpg/sg67_6_cif.got.tgz:10143.got - 2010.04.10 22:41:39.
