data_PCOD8279995
_publ_section_title
;
Structure prediction by ZEFSAII (Michael W. Deem and Ramdas Pophale) SiO2 
 PCOD8279995
Probable space group: C M M A
;
_chemical_formula_sum "Si O2"
_cell_formula_units_Z 96
_cell_length_a 27.445668
_cell_length_b 20.258548
_cell_length_c 8.712496
_cell_angle_alpha 90.000000
_cell_angle_beta 90.000000
_cell_angle_gamma 90.000000
_cell_volume 4844.229522
_symmetry_space_group_name_H-M "C M M A"
_symmetry_group_IT_number 67
_symmetry_cell_setting 'orthorhombic'
loop_
_space_group_symop_operation_xyz
x,y,z
-x,1/2-y,z
x,-y,-z
-x,1/2+y,-z
-x,-y,-z
x,1/2+y,-z
-x,y,z
x,1/2-y,z
1/2+x,1/2+y,z
1/2-x,-y,z
1/2+x,1/2-y,-z
1/2-x,y,-z
1/2-x,1/2-y,-z
1/2+x,y,-z
1/2-x,1/2+y,z
1/2+x,-y,z
loop_
_atom_site_type_symbol
_atom_site_label
_atom_site_fract_x
_atom_site_fract_y
_atom_site_fract_z
Si Si1 0.147433 0.324644 0.632124
Si Si2 0.695842 0.568784 0.438383
Si Si3 0.948367 0.432185 0.087484
Si Si4 0.843790 0.060378 0.116716
Si Si5 0.445530 0.674450 0.824938
Si Si6 0.197067 0.675357 0.056254
O O1 0.145618 0.250000 0.568489
O O2 0.160867 0.372053 0.491425
O O3 0.094704 0.345785 0.698381
O O4 0.189957 0.330845 0.760659
O O5 0.674707 0.500000 0.500000
O O6 0.750000 0.581382 0.500000
O O7 0.695310 0.562143 0.253780
O O8 0.898991 0.440224 0.187961
O O9 0.000000 0.420573 0.179580
O O10 0.954542 0.500000 0.000000
O O11 0.940628 0.372025 0.971079
O O12 0.841734 0.127950 0.022127
O O13 0.833239 0.000000 0.000000
O O14 0.500000 0.667972 0.753284
O O15 0.435156 0.750000 0.877266
O O16 0.186825 0.750000 0.001816
O O17 0.250000 0.652143 0.000000
#
# Coordination Sequence:
#
# PCOD8279995 Si02
#       6
#    16  16  16  16  16  16
#     4  10  20  37  59  84 117 153 192 237 294 355
#     4  11  25  41  56  81 119 157 197 244 297 358
#     4   9  18  32  54  86 117 145 188 245 292 339
#     4  11  22  37  61  84 110 155 197 245 288 347
#     4   9  17  32  58  88 118 154 195 241 293 350
#     4  10  20  34  55  83 111 142 192 246 288 340
#
# _framework density 19.817392999999999
#
# number of rings (size 3 to 8) (size 9 to 14) (size 15 to 20)
#    0.000    2.000    1.667    2.000    2.333    2.667 
#    0.000    0.833    0.000    1.000    0.000    0.000 
#    0.000    0.000    0.000    0.000    0.000    0.000 
#
# Total GULP energy -594738.598131 kJ/mol
# GULP energy per Si atom -12390.387461 kJ/mol
# Density = 1.977229 g / cm^3
# Si number density = 19.817393 Si / 1000 Ang^3
#
#
#
# Elastic Constant Matrix: (Units=GPa)
#
#
# Indices 1 2 3 4 5 6 
#
# 1 125.2039 22.0783 30.2662 0.0000 0.0000 0.0000
# 2 22.0783 99.0605 31.1252 0.0000 0.0000 0.0000
# 3 30.2662 31.1252 74.8367 0.0000 0.0000 0.0000
# 4 0.0000 0.0000 0.0000 27.0752 0.0000 0.0000
# 5 0.0000 0.0000 0.0000 0.0000 -0.2107 0.0000
# 6 0.0000 0.0000 0.0000 0.0000 0.0000 24.6715
#
#
#
# Elastic Compliance Matrix: (Units=1/GPa)
#
#
# Indices 1 2 3 4 5 6 
#
# 1 0.008935 -0.000985 -0.003204 0.000000 0.000000 0.000000
# 2 -0.000985 0.011721 -0.004477 0.000000 0.000000 0.000000
# 3 -0.003204 -0.004477 0.016520 0.000000 0.000000 0.000000
# 4 0.000000 0.000000 0.000000 0.036934 0.000000 0.000000
# 5 0.000000 0.000000 0.000000 0.000000 -4.745889 0.000000
# 6 0.000000 0.000000 0.000000 0.000000 0.000000 0.040533
#
#
# Mechanical properties :
#
#
# Convention : Reuss Voigt Hill
#
# Bulk Modulus (GPa) = 50.38950 51.78226 51.08588
# Shear Modulus (GPa) = -1.08523 24.68265 11.79871
#
# Velocity S-wave (km/s) = -0.74081 3.53300 2.44267
# Velocity P-wave (km/s) = 4.97497 6.54440 5.81290
#
# Compressibility (1/GPa) = 0.01984540
#
# Stress axis : x y z
#
# Youngs Moduli (GPa) = 111.91745 85.31803 60.53234
#
# Poissons Ratio (x) = 0.08401 0.19395
# Poissons Ratio (y) = 0.11020 0.27098
# Poissons Ratio (z) = 0.35859 0.38193
#
# Static dielectric constant tensor:
#      x y z
#    x 4.135950 0.000000 0.000000 
#    y 0.000000 3.795680 0.000000 
#    z 0.000000 0.000000 3.100150 
# 
# 
# High freq. dielectric constant tensor:
#      x y z
#    x 1.793260 0.000000 0.000000 
#    y 0.000000 1.793120 0.000000 
#    z 0.000000 0.000000 1.714660 
# 
# From -- ./inp_files/13690.got.cif
#   From: 2010.03.12/outbox.cif.g09.slc.cpg/sg67_7_cif.got.tgz:13690.got - 2010.04.10 22:41:39.
