data_PCOD8279805
_publ_section_title
;
Structure prediction by ZEFSAII (Michael W. Deem and Ramdas Pophale) SiO2 
 PCOD8279805
Probable space group: C M M A
;
_chemical_formula_sum "Si O2"
_cell_formula_units_Z 80
_cell_length_a 27.413917
_cell_length_b 8.662935
_cell_length_c 18.836465
_cell_angle_alpha 90.000000
_cell_angle_beta 90.000000
_cell_angle_gamma 90.000000
_cell_volume 4473.377534
_symmetry_space_group_name_H-M "C M M A"
_symmetry_group_IT_number 67
_symmetry_cell_setting 'orthorhombic'
loop_
_space_group_symop_operation_xyz
x,y,z
-x,1/2-y,z
x,-y,-z
-x,1/2+y,-z
-x,-y,-z
x,1/2+y,-z
-x,y,z
x,1/2-y,z
1/2+x,1/2+y,z
1/2-x,-y,z
1/2+x,1/2-y,-z
1/2-x,y,-z
1/2-x,1/2-y,-z
1/2+x,y,-z
1/2-x,1/2+y,z
1/2+x,-y,z
loop_
_atom_site_type_symbol
_atom_site_label
_atom_site_fract_x
_atom_site_fract_y
_atom_site_fract_z
Si Si1 0.149061 0.933405 0.075325
Si Si2 0.109876 0.067813 0.712679
Si Si3 0.944809 0.067359 0.573312
Si Si4 0.946673 0.431900 0.850981
Si Si5 0.198618 0.567717 0.789217
O O1 0.152303 0.750000 0.074923
O O2 0.093947 0.991664 0.093280
O O3 0.185671 0.995674 0.134537
O O4 0.165347 0.000000 0.000000
O O5 0.120532 0.250000 0.713931
O O6 0.089450 0.009814 0.637270
O O7 0.069589 0.023734 0.771543
O O8 0.159753 0.978781 0.729036
O O9 0.944359 0.250000 0.569610
O O10 0.000000 0.006787 0.585720
O O11 0.923564 0.000000 0.500000
O O12 0.950871 0.250000 0.857668
O O13 0.000000 0.506864 0.866677
O O14 0.201325 0.750000 0.796619
O O15 0.250000 0.500000 0.763900
#
# Coordination Sequence:
#
# PCOD8279805 Si02
#       5
#    16  16  16  16  16
#     4  10  20  34  51  73 101 131 165 204 247 295
#     4   9  17  31  51  74 101 133 169 207 247 291
#     4   9  17  29  48  76 110 145 176 205 240 285
#     4   8  14  26  46  70  96 129 167 203 239 283
#     4  11  22  37  56  76  97 123 160 205 255 305
#
# _framework density 17.883579000000001
#
# number of rings (size 3 to 8) (size 9 to 14) (size 15 to 20)
#    0.000    2.600    0.000    4.200    0.000    4.000 
#    0.000    2.000    0.000   19.800    0.000    4.200 
#    0.000    0.000    0.000    0.000    0.000    0.000 
#
# Total GULP energy -495926.842371 kJ/mol
# GULP energy per Si atom -12398.171059 kJ/mol
# Density = 1.784288 g / cm^3
# Si number density = 17.883579 Si / 1000 Ang^3
#
#
#
# Elastic Constant Matrix: (Units=GPa)
#
#
# Indices 1 2 3 4 5 6 
#
# 1 99.7057 27.8809 36.8058 0.0000 0.0000 0.0000
# 2 27.8809 66.7390 30.0452 0.0000 0.0000 0.0000
# 3 36.8058 30.0452 122.8153 0.0000 0.0000 0.0000
# 4 0.0000 0.0000 0.0000 27.8656 0.0000 0.0000
# 5 0.0000 0.0000 0.0000 0.0000 131.3573 0.0000
# 6 0.0000 0.0000 0.0000 0.0000 0.0000 22.4696
#
#
#
# Elastic Compliance Matrix: (Units=1/GPa)
#
#
# Indices 1 2 3 4 5 6 
#
# 1 0.012095 -0.003845 -0.002684 0.000000 0.000000 0.000000
# 2 -0.003845 0.018060 -0.003266 0.000000 0.000000 0.000000
# 3 -0.002684 -0.003266 0.009746 0.000000 0.000000 0.000000
# 4 0.000000 0.000000 0.000000 0.035887 0.000000 0.000000
# 5 0.000000 0.000000 0.000000 0.000000 0.007613 0.000000
# 6 0.000000 0.000000 0.000000 0.000000 0.000000 0.044505
#
#
# Mechanical properties :
#
#
# Convention : Reuss Voigt Hill
#
# Bulk Modulus (GPa) = 49.23295 53.19153 51.21224
# Shear Modulus (GPa) = 32.41161 49.30703 40.85932
#
# Velocity S-wave (km/s) = 4.26181 5.25652 4.78508
# Velocity P-wave (km/s) = 7.19770 8.16389 7.69597
#
# Compressibility (1/GPa) = 0.02031160
#
# Stress axis : x y z
#
# Youngs Moduli (GPa) = 82.67553 55.37049 102.60895
#
# Poissons Ratio (x) = 0.21288 0.27543
# Poissons Ratio (y) = 0.31785 0.33512
# Poissons Ratio (z) = 0.22193 0.18084
#
# Static dielectric constant tensor:
#      x y z
#    x 3.506300 0.000000 0.000000 
#    y 0.000000 3.094180 0.000000 
#    z 0.000000 0.000000 3.353980 
# 
# 
# High freq. dielectric constant tensor:
#      x y z
#    x 1.688700 0.000000 0.000000 
#    y 0.000000 1.675690 0.000000 
#    z 0.000000 0.000000 1.683580 
# 
# From -- ./inp_files/32112.got.cif
#   From: 2010.03.12/outbox.cif.g09.slc.cpg/sg67_17_cif.got.tgz:32112.got - 2010.04.10 22:41:39.
