data_PCOD8279780
_publ_section_title
;
Structure prediction by ZEFSAII (Michael W. Deem and Ramdas Pophale) SiO2 
 PCOD8279780
Probable space group: C M M A
;
_chemical_formula_sum "Si O2"
_cell_formula_units_Z 120
_cell_length_a 20.181491
_cell_length_b 25.555532
_cell_length_c 11.911845
_cell_angle_alpha 90.000000
_cell_angle_beta 90.000000
_cell_angle_gamma 90.000000
_cell_volume 6143.519039
_symmetry_space_group_name_H-M "C M M A"
_symmetry_group_IT_number 67
_symmetry_cell_setting 'orthorhombic'
loop_
_space_group_symop_operation_xyz
x,y,z
-x,1/2-y,z
x,-y,-z
-x,1/2+y,-z
-x,-y,-z
x,1/2+y,-z
-x,y,z
x,1/2-y,z
1/2+x,1/2+y,z
1/2-x,-y,z
1/2+x,1/2-y,-z
1/2-x,y,-z
1/2-x,1/2-y,-z
1/2+x,y,-z
1/2-x,1/2+y,z
1/2+x,-y,z
loop_
_atom_site_type_symbol
_atom_site_label
_atom_site_fract_x
_atom_site_fract_y
_atom_site_fract_z
Si Si1 0.428895 0.051406 0.175197
Si Si2 0.427877 0.346333 0.317529
Si Si3 0.794558 0.809257 0.597893
Si Si4 0.196150 0.191977 0.794658
Si Si5 0.425335 0.867390 0.429386
Si Si6 0.750000 0.500000 0.287333
Si Si7 0.389523 0.980622 0.378159
Si Si8 0.204890 0.419866 0.894181
O O1 0.500000 0.042052 0.113625
O O2 0.427423 0.108664 0.226505
O O3 0.367121 0.051725 0.088092
O O4 0.423729 0.010250 0.275672
O O5 0.500000 0.317694 0.317233
O O6 0.369480 0.306736 0.284007
O O7 0.414459 0.373001 0.437336
O O8 0.802684 0.750000 0.559459
O O9 0.750000 0.837653 0.500000
O O10 0.759844 0.815700 0.717218
O O11 0.869079 0.829058 0.615683
O O12 0.199120 0.250000 0.853562
O O13 0.197516 0.143267 0.881257
O O14 0.500000 0.846853 0.402258
O O15 0.413648 0.921596 0.366478
O O16 0.689427 0.513594 0.368500
O O17 0.763112 0.552453 0.214430
O O18 0.413586 0.000000 0.500000
O O19 0.250000 0.433006 0.000000
#
# Coordination Sequence:
#
# PCOD8279780 Si02
#       8
#    16  16  16  16  16   8  16  16
#     4   9  18  33  52  78 110 144 178 215 275 336
#     4   9  17  29  46  74 111 148 178 211 259 319
#     4  10  20  34  50  69 102 144 184 224 266 325
#     4  10  20  35  54  79 107 143 184 232 285 335
#     4  11  21  30  48  75 109 152 188 220 258 313
#     4  10  22  36  56  82 110 152 188 230 276 330
#     4  11  20  31  50  82 119 152 183 215 261 325
#     4  10  21  38  59  80 104 138 183 243 295 340
#
# _framework density 19.532779999999999
#
# number of rings (size 3 to 8) (size 9 to 14) (size 15 to 20)
#    0.000    2.000    2.667    1.600    0.000    2.400 
#    0.000    1.333    0.000    9.600    0.000    0.000 
#    0.000    0.000    0.000    0.000    0.000    0.000 
#
# Total GULP energy -743479.112060 kJ/mol
# GULP energy per Si atom -12391.318534 kJ/mol
# Density = 1.948832 g / cm^3
# Si number density = 19.532780 Si / 1000 Ang^3
#
#
#
# Elastic Constant Matrix: (Units=GPa)
#
#
# Indices 1 2 3 4 5 6 
#
# 1 166.0582 32.7835 35.5783 0.0000 0.0000 0.0000
# 2 32.7835 73.2490 14.4910 0.0000 0.0000 0.0000
# 3 35.5783 14.4910 48.4635 0.0000 0.0000 0.0000
# 4 0.0000 0.0000 0.0000 15.7271 0.0000 0.0000
# 5 0.0000 0.0000 0.0000 0.0000 23.1848 0.0000
# 6 0.0000 0.0000 0.0000 0.0000 0.0000 8.5420
#
#
#
# Elastic Compliance Matrix: (Units=1/GPa)
#
#
# Indices 1 2 3 4 5 6 
#
# 1 0.007529 -0.002419 -0.004804 0.000000 0.000000 0.000000
# 2 -0.002419 0.015288 -0.002795 0.000000 0.000000 0.000000
# 3 -0.004804 -0.002795 0.024996 0.000000 0.000000 0.000000
# 4 0.000000 0.000000 0.000000 0.063585 0.000000 0.000000
# 5 0.000000 0.000000 0.000000 0.000000 0.043132 0.000000
# 6 0.000000 0.000000 0.000000 0.000000 0.000000 0.117069
#
#
# Mechanical properties :
#
#
# Convention : Reuss Voigt Hill
#
# Bulk Modulus (GPa) = 36.00132 50.38625 43.19379
# Shear Modulus (GPa) = 16.61719 23.15196 19.88457
#
# Velocity S-wave (km/s) = 2.91990 3.44654 3.19409
# Velocity P-wave (km/s) = 5.46251 6.45677 5.98034
#
# Compressibility (1/GPa) = 0.02777676
#
# Stress axis : x y z
#
# Youngs Moduli (GPa) = 132.82315 65.41156 40.00584
#
# Poissons Ratio (x) = 0.15825 0.19218
# Poissons Ratio (y) = 0.32134 0.11182
# Poissons Ratio (z) = 0.63804 0.18283
#
# Static dielectric constant tensor:
#      x y z
#    x 4.174140 0.000000 0.000000 
#    y 0.000000 3.534600 0.000000 
#    z 0.000000 0.000000 3.052260 
# 
# 
# High freq. dielectric constant tensor:
#      x y z
#    x 1.783610 0.000000 0.000000 
#    y 0.000000 1.754930 0.000000 
#    z 0.000000 0.000000 1.710550 
# 
# From -- ./inp_files/21301.got.cif
#   From: 2010.03.12/outbox.cif.g09.slc.cpg/sg67_11_cif.got.tgz:21301.got - 2010.04.10 22:41:39.
