data_PCOD8279836
_publ_section_title
;
Structure prediction by ZEFSAII (Michael W. Deem and Ramdas Pophale) SiO2 
 PCOD8279836
Probable space group: C M M A
;
_chemical_formula_sum "Si O2"
_cell_formula_units_Z 104
_cell_length_a 30.193630
_cell_length_b 8.949620
_cell_length_c 22.776907
_cell_angle_alpha 90.000000
_cell_angle_beta 90.000000
_cell_angle_gamma 90.000000
_cell_volume 6154.810315
_symmetry_space_group_name_H-M "C M M A"
_symmetry_group_IT_number 67
_symmetry_cell_setting 'orthorhombic'
loop_
_space_group_symop_operation_xyz
x,y,z
-x,1/2-y,z
x,-y,-z
-x,1/2+y,-z
-x,-y,-z
x,1/2+y,-z
-x,y,z
x,1/2-y,z
1/2+x,1/2+y,z
1/2-x,-y,z
1/2+x,1/2-y,-z
1/2-x,y,-z
1/2-x,1/2-y,-z
1/2+x,y,-z
1/2-x,1/2+y,z
1/2+x,-y,z
loop_
_atom_site_type_symbol
_atom_site_label
_atom_site_fract_x
_atom_site_fract_y
_atom_site_fract_z
Si Si1 0.295631 0.073991 0.314870
Si Si2 0.914324 0.081621 0.399690
Si Si3 0.170244 0.426333 0.557404
Si Si4 0.550434 0.571884 0.815233
Si Si5 0.947759 0.413280 0.945018
Si Si6 0.500000 0.426855 0.436860
Si Si7 0.379580 0.082006 0.730678
O O1 0.293599 0.250000 0.305416
O O2 0.303131 0.033554 0.383463
O O3 0.250000 0.000000 0.294530
O O4 0.333831 0.009579 0.272678
O O5 0.922289 0.250000 0.423820
O O6 0.900349 0.087247 0.332957
O O7 0.877969 0.001063 0.439647
O O8 0.957855 0.981948 0.401063
O O9 0.194033 0.500000 0.500000
O O10 0.165870 0.250000 0.548896
O O11 0.500000 0.524992 0.798240
O O12 0.554698 0.750000 0.812134
O O13 0.561658 0.513673 0.881249
O O14 0.585570 0.497382 0.772699
O O15 0.926032 0.250000 0.946402
O O16 0.000000 0.400789 0.954021
O O17 0.926111 0.500000 0.000000
O O18 0.500000 0.250000 0.441754
O O19 0.500000 0.500000 0.500000
O O20 0.370005 0.250000 0.753249
#
# Coordination Sequence:
#
# PCOD8279836 Si02
#       7
#    16  16  16  16  16   8  16
#     4  10  21  37  56  75  97 124 156 194 243 298
#     4  10  21  36  50  66  91 120 153 197 241 284
#     4  10  20  34  52  73  95 120 149 185 234 292
#     4   9  18  31  47  70 102 139 174 208 246 288
#     4   8  14  25  41  63  94 132 172 209 244 281
#     4  12  24  36  50  66  86 116 155 196 239 288
#     4  10  21  35  52  73  98 127 162 203 244 288
#
# _framework density 16.897352000000001
#
# number of rings (size 3 to 8) (size 9 to 14) (size 15 to 20)
#    0.000    2.308    0.000    3.923    1.077    4.923 
#    0.000    3.077    0.000    0.000    0.000    0.000 
#    0.000    0.615    0.000    6.462    0.000    3.846 
#
# Total GULP energy -644620.121370 kJ/mol
# GULP energy per Si atom -12396.540796 kJ/mol
# Density = 1.685889 g / cm^3
# Si number density = 16.897352 Si / 1000 Ang^3
#
#
#
# Elastic Constant Matrix: (Units=GPa)
#
#
# Indices 1 2 3 4 5 6 
#
# 1 100.6251 50.4781 35.0685 0.0000 0.0000 0.0000
# 2 50.4781 103.0884 36.4189 0.0000 0.0000 0.0000
# 3 35.0685 36.4189 77.3535 0.0000 0.0000 0.0000
# 4 0.0000 0.0000 0.0000 27.5528 0.0000 0.0000
# 5 0.0000 0.0000 0.0000 0.0000 6.4051 0.0000
# 6 0.0000 0.0000 0.0000 0.0000 0.0000 27.1484
#
#
#
# Elastic Compliance Matrix: (Units=1/GPa)
#
#
# Indices 1 2 3 4 5 6 
#
# 1 0.014025 -0.005543 -0.003748 0.000000 0.000000 0.000000
# 2 -0.005543 0.013827 -0.003997 0.000000 0.000000 0.000000
# 3 -0.003748 -0.003997 0.016509 0.000000 0.000000 0.000000
# 4 0.000000 0.000000 0.000000 0.036294 0.000000 0.000000
# 5 0.000000 0.000000 0.000000 0.000000 0.156125 0.000000
# 6 0.000000 0.000000 0.000000 0.000000 0.000000 0.036835
#
#
# Mechanical properties :
#
#
# Convention : Reuss Voigt Hill
#
# Bulk Modulus (GPa) = 56.23161 58.33312 57.28236
# Shear Modulus (GPa) = 16.33353 22.82802 19.58078
#
# Velocity S-wave (km/s) = 3.11244 3.67956 3.40782
# Velocity P-wave (km/s) = 6.80199 7.25598 7.03265
#
# Compressibility (1/GPa) = 0.01778359
#
# Stress axis : x y z
#
# Youngs Moduli (GPa) = 71.30148 72.32411 60.57400
#
# Poissons Ratio (x) = 0.40091 0.22706
# Poissons Ratio (y) = 0.39524 0.24210
# Poissons Ratio (z) = 0.26727 0.28906
#
# Static dielectric constant tensor:
#      x y z
#    x 2.959460 0.000000 0.000000 
#    y 0.000000 3.454440 0.000000 
#    z 0.000000 0.000000 3.156980 
# 
# 
# High freq. dielectric constant tensor:
#      x y z
#    x 1.625320 0.000000 0.000000 
#    y 0.000000 1.664850 0.000000 
#    z 0.000000 0.000000 1.635580 
# 
# From -- ./inp_files/42742.got.cif
#   From: 2010.03.12/outbox.cif.g09.slc.cpg/sg67_22_cif.got.tgz:42742.got - 2010.04.10 22:41:39.
