data_PCOD8279166
_publ_section_title
;
Structure prediction by ZEFSAII (Michael W. Deem and Ramdas Pophale) SiO2 
 PCOD8279166
Probable space group: C M M A
;
_chemical_formula_sum "Si O2"
_cell_formula_units_Z 88
_cell_length_a 24.819685
_cell_length_b 8.663938
_cell_length_c 21.885180
_cell_angle_alpha 90.000000
_cell_angle_beta 90.000000
_cell_angle_gamma 90.000000
_cell_volume 4706.106207
_symmetry_space_group_name_H-M "C M M A"
_symmetry_group_IT_number 67
_symmetry_cell_setting 'orthorhombic'
loop_
_space_group_symop_operation_xyz
x,y,z
-x,1/2-y,z
x,-y,-z
-x,1/2+y,-z
-x,-y,-z
x,1/2+y,-z
-x,y,z
x,1/2-y,z
1/2+x,1/2+y,z
1/2-x,-y,z
1/2+x,1/2-y,-z
1/2-x,y,-z
1/2-x,1/2-y,-z
1/2+x,y,-z
1/2-x,1/2+y,z
1/2+x,-y,z
loop_
_atom_site_type_symbol
_atom_site_label
_atom_site_fract_x
_atom_site_fract_y
_atom_site_fract_z
Si Si1 0.805301 0.068872 0.160207
Si Si2 0.000000 0.430651 0.566499
Si Si3 0.914945 0.932659 0.335243
Si Si4 0.193563 0.067365 0.298988
Si Si5 0.000000 0.068174 0.885790
Si Si6 0.500000 0.067883 0.752883
Si Si7 0.106548 0.433938 0.063197
O O1 0.799143 0.250000 0.159416
O O2 0.815960 0.011055 0.229312
O O3 0.853753 0.014273 0.117439
O O4 0.750000 0.000000 0.134212
O O5 0.000000 0.500000 0.500000
O O6 0.053170 0.483642 0.603609
O O7 0.000000 0.250000 0.559083
O O8 0.913200 0.750000 0.328313
O O9 0.854879 0.000098 0.339721
O O10 0.945853 0.000035 0.276646
O O11 0.194530 0.250000 0.305148
O O12 0.250000 0.000000 0.323840
O O13 0.000000 0.250000 0.872348
O O14 0.949216 0.020284 0.925934
O O15 0.000000 0.972194 0.823649
O O16 0.500000 0.250000 0.744425
O O17 0.099020 0.250000 0.060786
O O18 0.130650 0.500000 0.000000
#
# Coordination Sequence:
#
# PCOD8279166 Si02
#       7
#    16   8  16  16   8   8  16
#     4   9  20  36  55  77 103 133 170 214 263 315
#     4   9  20  36  56  82 114 149 187 226 267 310
#     4  10  20  35  54  82 115 146 182 225 266 314
#     4  10  19  33  54  81 110 144 180 221 272 325
#     4  12  24  38  56  77 101 134 171 216 272 325
#     4  11  21  34  54  81 109 139 173 216 269 327
#     4  11  23  39  55  74 100 133 173 218 265 323
#
# _framework density 18.699112
#
# number of rings (size 3 to 8) (size 9 to 14) (size 15 to 20)
#    0.000    1.818    0.000    5.182    0.000    6.182 
#    0.000    1.818    0.000    0.545    0.000    3.818 
#    0.000    0.000    0.000    0.000    0.000    0.000 
#
# Total GULP energy -545750.429155 kJ/mol
# GULP energy per Si atom -12403.418844 kJ/mol
# Density = 1.865655 g / cm^3
# Si number density = 18.699112 Si / 1000 Ang^3
#
#
#
# Elastic Constant Matrix: (Units=GPa)
#
#
# Indices 1 2 3 4 5 6 
#
# 1 156.4329 49.6866 49.9241 0.0000 0.0000 0.0000
# 2 49.6866 77.0878 27.8392 0.0000 0.0000 0.0000
# 3 49.9241 27.8392 89.7690 0.0000 0.0000 0.0000
# 4 0.0000 0.0000 0.0000 29.6017 0.0000 0.0000
# 5 0.0000 0.0000 0.0000 0.0000 6.8487 0.0000
# 6 0.0000 0.0000 0.0000 0.0000 0.0000 35.0601
#
#
#
# Elastic Compliance Matrix: (Units=1/GPa)
#
#
# Indices 1 2 3 4 5 6 
#
# 1 0.008962 -0.004478 -0.003596 0.000000 0.000000 0.000000
# 2 -0.004478 0.016846 -0.002734 0.000000 0.000000 0.000000
# 3 -0.003596 -0.002734 0.013987 0.000000 0.000000 0.000000
# 4 0.000000 0.000000 0.000000 0.033782 0.000000 0.000000
# 5 0.000000 0.000000 0.000000 0.000000 0.146013 0.000000
# 6 0.000000 0.000000 0.000000 0.000000 0.000000 0.028522
#
#
# Mechanical properties :
#
#
# Convention : Reuss Voigt Hill
#
# Bulk Modulus (GPa) = 55.00431 64.24329 59.62380
# Shear Modulus (GPa) = 18.12988 27.35808 22.74398
#
# Velocity S-wave (km/s) = 3.11715 3.82916 3.49135
# Velocity P-wave (km/s) = 6.51420 7.34717 6.94319
#
# Compressibility (1/GPa) = 0.01818039
#
# Stress axis : x y z
#
# Youngs Moduli (GPa) = 111.57752 59.36175 71.49435
#
# Poissons Ratio (x) = 0.26583 0.25706
# Poissons Ratio (y) = 0.49966 0.19545
# Poissons Ratio (z) = 0.40118 0.16228
#
# Static dielectric constant tensor:
#      x y z
#    x 3.571220 0.000000 0.000000 
#    y 0.000000 3.430160 0.000000 
#    z 0.000000 0.000000 2.865550 
# 
# 
# High freq. dielectric constant tensor:
#      x y z
#    x 1.734450 0.000000 0.000000 
#    y 0.000000 1.736020 0.000000 
#    z 0.000000 0.000000 1.704040 
# 
# From -- ./inp_files/39623.got.cif
#   From: 2010.03.12/outbox.cif.g09.slc.cpg/sg67_20_cif.got.tgz:39623.got - 2010.04.10 22:41:39.
