data_PCOD8279109
_publ_section_title
;
Structure prediction by ZEFSAII (Michael W. Deem and Ramdas Pophale) SiO2 
 PCOD8279109
Probable space group: C M M A
;
_chemical_formula_sum "Si O2"
_cell_formula_units_Z 104
_cell_length_a 8.941551
_cell_length_b 26.520197
_cell_length_c 22.969659
_cell_angle_alpha 90.000000
_cell_angle_beta 90.000000
_cell_angle_gamma 90.000000
_cell_volume 5446.834149
_symmetry_space_group_name_H-M "C M M A"
_symmetry_group_IT_number 67
_symmetry_cell_setting 'orthorhombic'
loop_
_space_group_symop_operation_xyz
x,y,z
-x,1/2-y,z
x,-y,-z
-x,1/2+y,-z
-x,-y,-z
x,1/2+y,-z
-x,y,z
x,1/2-y,z
1/2+x,1/2+y,z
1/2-x,-y,z
1/2+x,1/2-y,-z
1/2-x,y,-z
1/2-x,1/2-y,-z
1/2+x,y,-z
1/2-x,1/2+y,z
1/2+x,-y,z
loop_
_atom_site_type_symbol
_atom_site_label
_atom_site_fract_x
_atom_site_fract_y
_atom_site_fract_z
Si Si1 0.177369 0.890886 0.560514
Si Si2 0.178001 0.750000 0.937331
Si Si3 0.669565 0.692126 0.630171
Si Si4 0.820457 0.948232 0.937035
Si Si5 0.326118 0.850194 0.261769
Si Si6 0.677190 0.151408 0.868985
Si Si7 0.170675 0.049993 0.328273
O O1 0.250000 0.907412 0.500000
O O2 0.234663 0.836417 0.581225
O O3 0.230308 0.931092 0.609025
O O4 0.000000 0.888327 0.554339
O O5 0.236072 0.699892 0.904386
O O6 0.000000 0.750000 0.942799
O O7 0.250000 0.750000 0.000000
O O8 0.500000 0.671691 0.629723
O O9 0.675927 0.750000 0.612428
O O10 0.735904 0.685751 0.694878
O O11 0.768691 0.901105 0.897423
O O12 0.000000 0.952941 0.941207
O O13 0.750000 0.000000 0.910938
O O14 0.750000 0.938452 0.000000
O O15 0.500000 0.835040 0.266036
O O16 0.261641 0.843843 0.196779
O O17 0.302122 0.908154 0.279389
O O18 0.500000 0.151516 0.867462
O O19 0.000000 0.036064 0.335091
O O20 0.250000 0.000000 0.306697
#
# Coordination Sequence:
#
# PCOD8279109 Si02
#       7
#    16   8  16  16  16  16  16
#     4  10  21  37  56  80 108 140 181 224 265 317
#     4  10  20  36  56  80 108 144 181 222 275 326
#     4  10  21  36  54  78 108 140 174 217 268 320
#     4  10  19  33  52  76 105 138 177 222 268 323
#     4   9  19  36  55  78 104 136 179 222 261 316
#     4   9  19  34  55  80 106 138 182 225 267 325
#     4   9  19  34  53  77 106 139 176 215 263 316
#
# _framework density 19.09366
#
# number of rings (size 3 to 8) (size 9 to 14) (size 15 to 20)
#    0.000    2.462    0.000    3.231    1.077    5.538 
#    0.000    4.615    0.000    0.000    0.000    0.000 
#    0.000    0.000    0.000    0.000    0.000    0.000 
#
# Total GULP energy -644771.741349 kJ/mol
# GULP energy per Si atom -12399.456564 kJ/mol
# Density = 1.905020 g / cm^3
# Si number density = 19.093660 Si / 1000 Ang^3
#
#
#
# Elastic Constant Matrix: (Units=GPa)
#
#
# Indices 1 2 3 4 5 6 
#
# 1 59.2149 22.7663 18.2987 0.0000 0.0000 0.0000
# 2 22.7663 92.1337 23.8529 0.0000 0.0000 0.0000
# 3 18.2987 23.8529 103.5104 0.0000 0.0000 0.0000
# 4 0.0000 0.0000 0.0000 14.6440 0.0000 0.0000
# 5 0.0000 0.0000 0.0000 0.0000 26.7004 0.0000
# 6 0.0000 0.0000 0.0000 0.0000 0.0000 30.3579
#
#
#
# Elastic Compliance Matrix: (Units=1/GPa)
#
#
# Indices 1 2 3 4 5 6 
#
# 1 0.019228 -0.004117 -0.002450 0.000000 0.000000 0.000000
# 2 -0.004117 0.012424 -0.002135 0.000000 0.000000 0.000000
# 3 -0.002450 -0.002135 0.010586 0.000000 0.000000 0.000000
# 4 0.000000 0.000000 0.000000 0.068287 0.000000 0.000000
# 5 0.000000 0.000000 0.000000 0.000000 0.037453 0.000000
# 6 0.000000 0.000000 0.000000 0.000000 0.000000 0.032940
#
#
# Mechanical properties :
#
#
# Convention : Reuss Voigt Hill
#
# Bulk Modulus (GPa) = 40.26928 42.74388 41.50658
# Shear Modulus (GPa) = 24.20133 27.00320 25.60227
#
# Velocity S-wave (km/s) = 3.56407 3.76473 3.66577
# Velocity P-wave (km/s) = 6.17033 6.42905 6.30101
#
# Compressibility (1/GPa) = 0.02483282
#
# Stress axis : x y z
#
# Youngs Moduli (GPa) = 52.00846 80.49050 94.46369
#
# Poissons Ratio (x) = 0.33136 0.23148
# Poissons Ratio (y) = 0.21411 0.20170
# Poissons Ratio (z) = 0.12744 0.17186
#
# Static dielectric constant tensor:
#      x y z
#    x 3.390900 0.000000 0.000000 
#    y 0.000000 3.618410 0.000000 
#    z 0.000000 0.000000 3.581370 
# 
# 
# High freq. dielectric constant tensor:
#      x y z
#    x 1.729770 0.000000 0.000000 
#    y 0.000000 1.747160 0.000000 
#    z 0.000000 0.000000 1.743110 
# 
# From -- ./inp_files/40983.got.cif
#   From: 2010.03.12/outbox.cif.g09.slc.cpg/sg67_21_cif.got.tgz:40983.got - 2010.04.10 22:41:39.
