data_PCOD8279570
_publ_section_title
;
Structure prediction by ZEFSAII (Michael W. Deem and Ramdas Pophale) SiO2 
 PCOD8279570
Probable space group: C M M A
;
_chemical_formula_sum "Si O2"
_cell_formula_units_Z 80
_cell_length_a 8.983362
_cell_length_b 27.369640
_cell_length_c 18.580115
_cell_angle_alpha 90.000000
_cell_angle_beta 90.000000
_cell_angle_gamma 90.000000
_cell_volume 4568.318589
_symmetry_space_group_name_H-M "C M M A"
_symmetry_group_IT_number 67
_symmetry_cell_setting 'orthorhombic'
loop_
_space_group_symop_operation_xyz
x,y,z
-x,1/2-y,z
x,-y,-z
-x,1/2+y,-z
-x,-y,-z
x,1/2+y,-z
-x,y,z
x,1/2-y,z
1/2+x,1/2+y,z
1/2-x,-y,z
1/2+x,1/2-y,-z
1/2-x,y,-z
1/2-x,1/2-y,-z
1/2+x,y,-z
1/2-x,1/2+y,z
1/2+x,-y,z
loop_
_atom_site_type_symbol
_atom_site_label
_atom_site_fract_x
_atom_site_fract_y
_atom_site_fract_z
Si Si1 0.825119 0.194128 0.281661
Si Si2 0.673980 0.550731 0.927333
Si Si3 0.173000 0.105964 0.783699
Si Si4 0.674169 0.049885 0.657904
Si Si5 0.171491 0.354807 0.426539
O O1 0.785549 0.250000 0.264905
O O2 0.737482 0.160539 0.225071
O O3 0.773022 0.180694 0.362558
O O4 0.000000 0.183125 0.273734
O O5 0.500000 0.541343 0.940785
O O6 0.750000 0.500000 0.904017
O O7 0.700274 0.590735 0.865826
O O8 0.750000 0.570998 0.000000
O O9 0.257369 0.067710 0.732939
O O10 0.000000 0.105259 0.763023
O O11 0.500000 0.041544 0.670228
O O12 0.705365 0.089325 0.595504
O O13 0.750000 0.000000 0.632306
O O14 0.250000 0.340284 0.500000
O O15 0.000000 0.346149 0.440816
#
# Coordination Sequence:
#
# PCOD8279570 Si02
#       5
#    16  16  16  16  16
#     4   9  19  36  55  74  97 127 163 203 250 300
#     4  10  20  32  49  75 106 137 167 198 234 281
#     4  10  20  33  51  76 102 129 164 205 246 289
#     4  10  20  33  49  70  97 131 168 204 243 291
#     4   9  19  33  48  69  97 127 161 201 245 295
#
# _framework density 17.511911999999999
#
# number of rings (size 3 to 8) (size 9 to 14) (size 15 to 20)
#    0.000    2.400    0.000    4.200    0.000   10.000 
#    0.000    2.000    0.000    0.600    0.000    0.000 
#    0.000    0.000    0.000    0.000    0.000    0.000 
#
# Total GULP energy -496046.722629 kJ/mol
# GULP energy per Si atom -12401.168066 kJ/mol
# Density = 1.747205 g / cm^3
# Si number density = 17.511912 Si / 1000 Ang^3
#
#
#
# Elastic Constant Matrix: (Units=GPa)
#
#
# Indices 1 2 3 4 5 6 
#
# 1 94.6632 45.7078 51.8740 0.0000 0.0000 0.0000
# 2 45.7078 94.5053 44.0345 0.0000 0.0000 0.0000
# 3 51.8740 44.0345 104.1424 0.0000 0.0000 0.0000
# 4 0.0000 0.0000 0.0000 18.2780 0.0000 0.0000
# 5 0.0000 0.0000 0.0000 0.0000 30.8265 0.0000
# 6 0.0000 0.0000 0.0000 0.0000 0.0000 24.8362
#
#
#
# Elastic Compliance Matrix: (Units=1/GPa)
#
#
# Indices 1 2 3 4 5 6 
#
# 1 0.016293 -0.005104 -0.005957 0.000000 0.000000 0.000000
# 2 -0.005104 0.014777 -0.003706 0.000000 0.000000 0.000000
# 3 -0.005957 -0.003706 0.014136 0.000000 0.000000 0.000000
# 4 0.000000 0.000000 0.000000 0.054711 0.000000 0.000000
# 5 0.000000 0.000000 0.000000 0.000000 0.032440 0.000000
# 6 0.000000 0.000000 0.000000 0.000000 0.000000 0.040264
#
#
# Mechanical properties :
#
#
# Convention : Reuss Voigt Hill
#
# Bulk Modulus (GPa) = 63.80942 64.06038 63.93490
# Shear Modulus (GPa) = 24.11051 24.90110 24.50581
#
# Velocity S-wave (km/s) = 3.71456 3.77497 3.74489
# Velocity P-wave (km/s) = 7.41040 7.46063 7.43556
#
# Compressibility (1/GPa) = 0.01567167
#
# Stress axis : x y z
#
# Youngs Moduli (GPa) = 61.37640 67.67400 70.73911
#
# Poissons Ratio (x) = 0.34543 0.42142
# Poissons Ratio (y) = 0.31328 0.26213
# Poissons Ratio (z) = 0.36564 0.25077
#
# Static dielectric constant tensor:
#      x y z
#    x 3.341730 0.000000 0.000000 
#    y 0.000000 3.236190 0.000000 
#    z 0.000000 0.000000 3.149350 
# 
# 
# High freq. dielectric constant tensor:
#      x y z
#    x 1.687190 0.000000 0.000000 
#    y 0.000000 1.667680 0.000000 
#    z 0.000000 0.000000 1.666310 
# 
# From -- ./inp_files/32119.got.cif
#   From: 2010.03.12/outbox.cif.g09.slc.cpg/sg67_17_cif.got.tgz:32119.got - 2010.04.10 22:41:39.
