data_PCOD8279991
_publ_section_title
;
Structure prediction by ZEFSAII (Michael W. Deem and Ramdas Pophale) SiO2 
 PCOD8279991
Probable space group: C M M A
;
_chemical_formula_sum "Si O2"
_cell_formula_units_Z 80
_cell_length_a 19.116429
_cell_length_b 8.761311
_cell_length_c 25.859476
_cell_angle_alpha 90.000000
_cell_angle_beta 90.000000
_cell_angle_gamma 90.000000
_cell_volume 4331.073812
_symmetry_space_group_name_H-M "C M M A"
_symmetry_group_IT_number 67
_symmetry_cell_setting 'orthorhombic'
loop_
_space_group_symop_operation_xyz
x,y,z
-x,1/2-y,z
x,-y,-z
-x,1/2+y,-z
-x,-y,-z
x,1/2+y,-z
-x,y,z
x,1/2-y,z
1/2+x,1/2+y,z
1/2-x,-y,z
1/2+x,1/2-y,-z
1/2-x,y,-z
1/2-x,1/2-y,-z
1/2+x,y,-z
1/2-x,1/2+y,z
1/2+x,-y,z
loop_
_atom_site_type_symbol
_atom_site_label
_atom_site_fract_x
_atom_site_fract_y
_atom_site_fract_z
Si Si1 0.581579 0.072744 0.554432
Si Si2 0.174806 0.573050 0.745577
Si Si3 0.172737 0.069515 0.643733
Si Si4 0.326125 0.072661 0.859707
Si Si5 0.080516 0.429072 0.946998
O O1 0.500000 0.048180 0.565774
O O2 0.601979 0.250000 0.554093
O O3 0.603021 0.000000 0.500000
O O4 0.624246 0.985196 0.597720
O O5 0.180828 0.750000 0.730905
O O6 0.250000 0.500000 0.750726
O O7 0.136730 0.487111 0.697847
O O8 0.140094 0.550290 0.802124
O O9 0.177945 0.250000 0.643154
O O10 0.250000 0.000000 0.637738
O O11 0.318886 0.250000 0.873122
O O12 0.250000 0.000000 0.864847
O O13 0.378485 0.993668 0.898593
O O14 0.091191 0.250000 0.949807
O O15 0.000000 0.476200 0.939844
O O16 0.110444 0.500000 0.000000
#
# Coordination Sequence:
#
# PCOD8279991 Si02
#       5
#    16  16  16  16  16
#     4  10  21  38  58  79 106 139 175 216 264 316
#     4   9  17  31  51  76 106 139 173 212 261 310
#     4  11  21  34  55  81 109 140 177 218 260 309
#     4  10  20  34  55  81 108 138 174 216 260 310
#     4  10  21  37  56  77 104 138 175 216 263 314
#
# _framework density 18.471170999999998
#
# number of rings (size 3 to 8) (size 9 to 14) (size 15 to 20)
#    0.000    2.000    0.000    5.400    0.000    5.600 
#    0.000    5.000    0.000    1.200    0.000    0.000 
#    0.000    0.000    0.000    0.000    0.000    0.000 
#
# Total GULP energy -495877.802022 kJ/mol
# GULP energy per Si atom -12396.945051 kJ/mol
# Density = 1.842913 g / cm^3
# Si number density = 18.471171 Si / 1000 Ang^3
#
#
#
# Elastic Constant Matrix: (Units=GPa)
#
#
# Indices 1 2 3 4 5 6 
#
# 1 52.0094 47.6550 63.6042 0.0000 0.0000 0.0000
# 2 47.6550 143.4152 80.9238 0.0000 0.0000 0.0000
# 3 63.6042 80.9238 174.0698 0.0000 0.0000 0.0000
# 4 0.0000 0.0000 0.0000 38.7500 0.0000 0.0000
# 5 0.0000 0.0000 0.0000 0.0000 189.0313 0.0000
# 6 0.0000 0.0000 0.0000 0.0000 0.0000 28.2279
#
#
#
# Elastic Compliance Matrix: (Units=1/GPa)
#
#
# Indices 1 2 3 4 5 6 
#
# 1 0.038945 -0.006658 -0.011135 0.000000 0.000000 0.000000
# 2 -0.006658 0.010590 -0.002491 0.000000 0.000000 0.000000
# 3 -0.011135 -0.002491 0.010971 0.000000 0.000000 0.000000
# 4 0.000000 0.000000 0.000000 0.025806 0.000000 0.000000
# 5 0.000000 0.000000 0.000000 0.000000 0.005290 0.000000
# 6 0.000000 0.000000 0.000000 0.000000 0.000000 0.035426
#
#
# Mechanical properties :
#
#
# Convention : Reuss Voigt Hill
#
# Bulk Modulus (GPa) = 50.15098 83.76224 66.95661
# Shear Modulus (GPa) = 28.69536 63.02260 45.85898
#
# Velocity S-wave (km/s) = 3.94575 5.84752 4.98811
# Velocity P-wave (km/s) = 6.92593 9.54135 8.33684
#
# Compressibility (1/GPa) = 0.01993979
#
# Stress axis : x y z
#
# Youngs Moduli (GPa) = 25.67696 94.42439 91.14528
#
# Poissons Ratio (x) = 0.62866 1.01493
# Poissons Ratio (y) = 0.17095 0.22702
# Poissons Ratio (z) = 0.28592 0.23518
#
# Static dielectric constant tensor:
#      x y z
#    x 3.106060 0.000000 0.000000 
#    y 0.000000 3.637120 0.000000 
#    z 0.000000 0.000000 4.219380 
# 
# 
# High freq. dielectric constant tensor:
#      x y z
#    x 1.680290 0.000000 0.000000 
#    y 0.000000 1.739920 0.000000 
#    z 0.000000 0.000000 1.740350 
# 
# From -- ./inp_files/43256.got.cif
#   From: 2010.03.12/outbox.cif.g09.slc.cpg/sg67_22_cif.got.tgz:43256.got - 2010.04.10 22:41:39.
