data_PCOD8279194
_publ_section_title
;
Structure prediction by ZEFSAII (Michael W. Deem and Ramdas Pophale) SiO2 
 PCOD8279194
Probable space group: C M M A
;
_chemical_formula_sum "Si O2"
_cell_formula_units_Z 60
_cell_length_a 25.200693
_cell_length_b 5.254865
_cell_length_c 20.992251
_cell_angle_alpha 90.000000
_cell_angle_beta 90.000000
_cell_angle_gamma 90.000000
_cell_volume 2779.924861
_symmetry_space_group_name_H-M "C M M A"
_symmetry_group_IT_number 67
_symmetry_cell_setting 'orthorhombic'
loop_
_space_group_symop_operation_xyz
x,y,z
-x,1/2-y,z
x,-y,-z
-x,1/2+y,-z
-x,-y,-z
x,1/2+y,-z
-x,y,z
x,1/2-y,z
1/2+x,1/2+y,z
1/2-x,-y,z
1/2+x,1/2-y,-z
1/2-x,y,-z
1/2-x,1/2-y,-z
1/2+x,y,-z
1/2-x,1/2+y,z
1/2+x,-y,z
loop_
_atom_site_type_symbol
_atom_site_label
_atom_site_fract_x
_atom_site_fract_y
_atom_site_fract_z
Si Si1 0.442241 0.250000 0.616831
Si Si2 0.000000 0.750000 0.041840
Si Si3 0.286498 0.250000 0.141568
Si Si4 0.729029 0.750000 0.571550
Si Si5 0.559951 0.750000 0.232186
Si Si6 0.883366 0.750000 0.042816
Si Si7 0.123357 0.750000 0.235350
Si Si8 0.383927 0.750000 0.613814
O O1 0.500000 0.250000 0.586613
O O2 0.444952 0.250000 0.692573
O O3 0.414600 0.501577 0.591728
O O4 0.057762 0.750000 0.078255
O O5 0.000000 0.500000 0.000000
O O6 0.250000 0.500000 0.133402
O O7 0.335191 0.250000 0.092234
O O8 0.316051 0.250000 0.209950
O O9 0.750000 0.500000 0.608536
O O10 0.750000 0.750000 0.500000
O O11 0.666743 0.750000 0.569687
O O12 0.500000 0.750000 0.202626
O O13 0.591762 0.498753 0.210027
O O14 0.877541 0.500000 0.000000
O O15 0.128830 0.750000 0.311319
#
# Coordination Sequence:
#
# PCOD8279194 Si02
#       8
#     8   4   8   8   8   8   8   8
#     4   9  17  30  52  83 114 145 184 227 276 343
#     4   8  16  34  60  86 110 136 172 238 294 338
#     4  12  26  41  58  82 121 160 197 243 286 339
#     4  10  21  36  54  80 107 139 187 241 285 327
#     4   9  17  33  55  80 114 149 186 238 283 338
#     4  10  21  40  65  87 112 145 194 243 296 350
#     4  10  21  36  54  81 119 152 194 230 285 353
#     4  10  19  33  56  82 111 152 189 232 285 340
#
# _framework density 21.583318999999999
#
# number of rings (size 3 to 8) (size 9 to 14) (size 15 to 20)
#    0.000    2.133    0.000    3.200    0.000    5.867 
#    2.400    0.000    2.933    0.000    0.000   37.333 
#    0.000    0.000    0.000    0.000    0.000    0.000 
#
# Total GULP energy -371736.294051 kJ/mol
# GULP energy per Si atom -12391.209802 kJ/mol
# Density = 2.153419 g / cm^3
# Si number density = 21.583319 Si / 1000 Ang^3
#
#
#
# Elastic Constant Matrix: (Units=GPa)
#
#
# Indices 1 2 3 4 5 6 
#
# 1 229.9401 103.3316 43.1061 0.0000 0.0000 0.0000
# 2 103.3316 236.9287 21.7194 0.0000 0.0000 0.0000
# 3 43.1061 21.7194 32.0881 0.0000 0.0000 0.0000
# 4 0.0000 0.0000 0.0000 -50.7942 0.0000 0.0000
# 5 0.0000 0.0000 0.0000 0.0000 32.3008 0.0000
# 6 0.0000 0.0000 0.0000 0.0000 0.0000 45.3273
#
#
#
# Elastic Compliance Matrix: (Units=1/GPa)
#
#
# Indices 1 2 3 4 5 6 
#
# 1 0.006789 -0.002266 -0.007587 0.000000 0.000000 0.000000
# 2 -0.002266 0.005256 -0.000514 0.000000 0.000000 0.000000
# 3 -0.007587 -0.000514 0.041705 0.000000 0.000000 0.000000
# 4 0.000000 0.000000 0.000000 -0.019687 0.000000 0.000000
# 5 0.000000 0.000000 0.000000 0.000000 0.030959 0.000000
# 6 0.000000 0.000000 0.000000 0.000000 0.000000 0.022062
#
#
# Mechanical properties :
#
#
# Convention : Reuss Voigt Hill
#
# Bulk Modulus (GPa) = 30.28818 92.80791 61.54804
# Shear Modulus (GPa) = 42.07967 27.42012 34.74990
#
# Velocity S-wave (km/s) = 4.42026 3.56818 4.01688
# Velocity P-wave (km/s) = 6.33366 7.75042 7.07758
#
# Compressibility (1/GPa) = 0.03301618
#
# Stress axis : x y z
#
# Youngs Moduli (GPa) = 147.28841 190.26339 23.97821
#
# Poissons Ratio (x) = 0.43105 0.18193
# Poissons Ratio (y) = 0.33369 0.01233
# Poissons Ratio (z) = 1.11751 0.09781
#
# Static dielectric constant tensor:
#      x y z
#    x 4.289890 0.000000 0.000000 
#    y 0.000000 4.677020 0.000000 
#    z 0.000000 0.000000 3.322590 
# 
# 
# High freq. dielectric constant tensor:
#      x y z
#    x 1.866170 0.000000 0.000000 
#    y 0.000000 1.878840 0.000000 
#    z 0.000000 0.000000 1.801080 
# 
# From -- ./inp_files/42289.got.cif
#   From: 2010.03.12/outbox.cif.g09.slc.cpg/sg67_22_cif.got.tgz:42289.got - 2010.04.10 22:41:39.
