data_PCOD8279288
_publ_section_title
;
Structure prediction by ZEFSAII (Michael W. Deem and Ramdas Pophale) SiO2 
 PCOD8279288
Probable space group: C M M A
;
_chemical_formula_sum "Si O2"
_cell_formula_units_Z 88
_cell_length_a 8.788280
_cell_length_b 26.715794
_cell_length_c 18.885724
_cell_angle_alpha 90.000000
_cell_angle_beta 90.000000
_cell_angle_gamma 90.000000
_cell_volume 4434.101293
_symmetry_space_group_name_H-M "C M M A"
_symmetry_group_IT_number 67
_symmetry_cell_setting 'orthorhombic'
loop_
_space_group_symop_operation_xyz
x,y,z
-x,1/2-y,z
x,-y,-z
-x,1/2+y,-z
-x,-y,-z
x,1/2+y,-z
-x,y,z
x,1/2-y,z
1/2+x,1/2+y,z
1/2-x,-y,z
1/2+x,1/2-y,-z
1/2-x,y,-z
1/2-x,1/2-y,-z
1/2+x,y,-z
1/2-x,1/2+y,z
1/2+x,-y,z
loop_
_atom_site_type_symbol
_atom_site_label
_atom_site_fract_x
_atom_site_fract_y
_atom_site_fract_z
Si Si1 0.177387 0.856059 0.424600
Si Si2 0.320066 0.154168 0.845013
Si Si3 0.181835 0.250000 0.922488
Si Si4 0.679196 0.050281 0.337284
Si Si5 0.670232 0.306174 0.695929
Si Si6 0.319422 0.552157 0.825696
O O1 0.250000 0.846231 0.500000
O O2 0.243825 0.905675 0.386822
O O3 0.217424 0.811420 0.370750
O O4 0.000000 0.859325 0.436200
O O5 0.500000 0.156475 0.860540
O O6 0.238279 0.199237 0.885432
O O7 0.282784 0.159098 0.761593
O O8 0.252115 0.099860 0.867575
O O9 0.000000 0.250000 0.923911
O O10 0.250000 0.250000 0.000000
O O11 0.500000 0.047424 0.342696
O O12 0.730009 0.057629 0.256221
O O13 0.750000 0.000000 0.368991
O O14 0.500000 0.319051 0.670019
O O15 0.680625 0.250000 0.724837
O O16 0.500000 0.551751 0.836380
O O17 0.250000 0.500000 0.855798
#
# Coordination Sequence:
#
# PCOD8279288 Si02
#       6
#    16  16   8  16  16  16
#     4  11  23  38  53  75 105 145 193 246 302 364
#     4  11  21  38  64  95 128 164 204 251 304 362
#     4  12  26  44  68 100 137 172 205 246 294 354
#     4   9  19  33  51  75 106 142 188 241 297 356
#     4  10  21  38  59  83 110 145 191 242 298 360
#     4  10  19  34  56  89 124 161 207 256 309 362
#
# _framework density 19.846185999999999
#
# number of rings (size 3 to 8) (size 9 to 14) (size 15 to 20)
#    0.000    1.636    2.727    2.455    0.000    4.000 
#    0.000    1.818    0.000    0.545    0.000    3.818 
#    0.000    0.000    0.000    0.000    0.000    0.000 
#
# Total GULP energy -545554.199013 kJ/mol
# GULP energy per Si atom -12398.959068 kJ/mol
# Density = 1.980102 g / cm^3
# Si number density = 19.846186 Si / 1000 Ang^3
#
#
#
# Elastic Constant Matrix: (Units=GPa)
#
#
# Indices 1 2 3 4 5 6 
#
# 1 95.4452 57.7006 38.6170 0.0000 0.0000 0.0000
# 2 57.7006 146.6951 41.3834 0.0000 0.0000 0.0000
# 3 38.6170 41.3834 63.4838 0.0000 0.0000 0.0000
# 4 0.0000 0.0000 0.0000 12.2565 0.0000 0.0000
# 5 0.0000 0.0000 0.0000 0.0000 25.6107 0.0000
# 6 0.0000 0.0000 0.0000 0.0000 0.0000 38.8728
#
#
#
# Elastic Compliance Matrix: (Units=1/GPa)
#
#
# Indices 1 2 3 4 5 6 
#
# 1 0.015844 -0.004305 -0.006831 0.000000 0.000000 0.000000
# 2 -0.004305 0.009523 -0.003589 0.000000 0.000000 0.000000
# 3 -0.006831 -0.003589 0.022247 0.000000 0.000000 0.000000
# 4 0.000000 0.000000 0.000000 0.081590 0.000000 0.000000
# 5 0.000000 0.000000 0.000000 0.000000 0.039046 0.000000
# 6 0.000000 0.000000 0.000000 0.000000 0.000000 0.025725
#
#
# Mechanical properties :
#
#
# Convention : Reuss Voigt Hill
#
# Bulk Modulus (GPa) = 55.05694 64.55844 59.80769
# Shear Modulus (GPa) = 21.78854 26.54288 24.16571
#
# Velocity S-wave (km/s) = 3.31701 3.66106 3.49327
# Velocity P-wave (km/s) = 6.51706 7.10430 6.81701
#
# Compressibility (1/GPa) = 0.01816301
#
# Stress axis : x y z
#
# Youngs Moduli (GPa) = 63.11709 105.01435 44.94959
#
# Poissons Ratio (x) = 0.45205 0.30707
# Poissons Ratio (y) = 0.27170 0.16132
# Poissons Ratio (z) = 0.43118 0.37689
#
# Static dielectric constant tensor:
#      x y z
#    x 3.624790 0.000000 0.000000 
#    y 0.000000 3.872470 0.000000 
#    z 0.000000 0.000000 3.593560 
# 
# 
# High freq. dielectric constant tensor:
#      x y z
#    x 1.778220 0.000000 0.000000 
#    y 0.000000 1.790730 0.000000 
#    z 0.000000 0.000000 1.739210 
# 
# From -- ./inp_files/36951.got.cif
#   From: 2010.03.12/outbox.cif.g09.slc.cpg/sg67_19_cif.got.tgz:36951.got - 2010.04.10 22:41:39.
