data_PCOD8279389
_publ_section_title
;
Structure prediction by ZEFSAII (Michael W. Deem and Ramdas Pophale) SiO2 
 PCOD8279389
Probable space group: C M M A
;
_chemical_formula_sum "Si O2"
_cell_formula_units_Z 88
_cell_length_a 13.027277
_cell_length_b 14.243009
_cell_length_c 23.212280
_cell_angle_alpha 90.000000
_cell_angle_beta 90.000000
_cell_angle_gamma 90.000000
_cell_volume 4306.983391
_symmetry_space_group_name_H-M "C M M A"
_symmetry_group_IT_number 67
_symmetry_cell_setting 'orthorhombic'
loop_
_space_group_symop_operation_xyz
x,y,z
-x,1/2-y,z
x,-y,-z
-x,1/2+y,-z
-x,-y,-z
x,1/2+y,-z
-x,y,z
x,1/2-y,z
1/2+x,1/2+y,z
1/2-x,-y,z
1/2+x,1/2-y,-z
1/2-x,y,-z
1/2-x,1/2-y,-z
1/2+x,y,-z
1/2-x,1/2+y,z
1/2+x,-y,z
loop_
_atom_site_type_symbol
_atom_site_label
_atom_site_fract_x
_atom_site_fract_y
_atom_site_fract_z
Si Si1 0.250000 0.000000 0.180411
Si Si2 0.707007 0.857051 0.619240
Si Si3 0.702864 0.650434 0.095448
Si Si4 0.614470 0.397617 0.017643
Si Si5 0.114690 0.021881 0.435836
Si Si6 0.620696 0.856217 0.744183
O O1 0.179568 0.067298 0.140404
O O2 0.330007 0.064532 0.215105
O O3 0.702364 0.750000 0.596068
O O4 0.813961 0.904578 0.598589
O O5 0.691693 0.859155 0.687560
O O6 0.614786 0.919544 0.594058
O O7 0.696615 0.750000 0.128818
O O8 0.623181 0.657887 0.042528
O O9 0.816912 0.641239 0.068984
O O10 0.500000 0.394031 0.041798
O O11 0.652995 0.500000 0.000000
O O12 0.000000 0.063499 0.435514
O O13 0.154687 0.000000 0.500000
O O14 0.500000 0.879740 0.732443
O O15 0.628587 0.750000 0.770054
#
# Coordination Sequence:
#
# PCOD8279389 Si02
#       6
#     8  16  16  16  16  16
#     4  12  22  39  60  84 115 148 186 244 302 350
#     4  10  20  37  60  83 112 154 201 245 287 336
#     4  11  22  36  56  84 115 146 182 229 283 341
#     4  10  19  36  58  80 111 152 189 221 271 338
#     4  10  21  35  54  88 128 160 192 232 284 345
#     4  10  23  42  63  86 111 148 200 249 296 351
#
# _framework density 20.431933999999998
#
# number of rings (size 3 to 8) (size 9 to 14) (size 15 to 20)
#    0.000    1.636    1.818    4.909    0.000    5.818 
#    0.000    1.818    0.000    2.727    0.000    0.000 
#    0.000    0.000    0.000    0.000    0.000    0.000 
#
# Total GULP energy -545096.936189 kJ/mol
# GULP energy per Si atom -12388.566732 kJ/mol
# Density = 2.038543 g / cm^3
# Si number density = 20.431934 Si / 1000 Ang^3
#
#
#
# Elastic Constant Matrix: (Units=GPa)
#
#
# Indices 1 2 3 4 5 6 
#
# 1 101.7259 19.9650 22.1089 0.0000 0.0000 0.0000
# 2 19.9650 163.1080 49.2326 0.0000 0.0000 0.0000
# 3 22.1089 49.2326 88.6122 0.0000 0.0000 0.0000
# 4 0.0000 0.0000 0.0000 -21.5563 0.0000 0.0000
# 5 0.0000 0.0000 0.0000 0.0000 7.7378 0.0000
# 6 0.0000 0.0000 0.0000 0.0000 0.0000 14.5207
#
#
#
# Elastic Compliance Matrix: (Units=1/GPa)
#
#
# Indices 1 2 3 4 5 6 
#
# 1 0.010441 -0.000591 -0.002277 0.000000 0.000000 0.000000
# 2 -0.000591 0.007400 -0.003964 0.000000 0.000000 0.000000
# 3 -0.002277 -0.003964 0.014055 0.000000 0.000000 0.000000
# 4 0.000000 0.000000 0.000000 -0.046390 0.000000 0.000000
# 5 0.000000 0.000000 0.000000 0.000000 0.129235 0.000000
# 6 0.000000 0.000000 0.000000 0.000000 0.000000 0.068867
#
#
# Mechanical properties :
#
#
# Convention : Reuss Voigt Hill
#
# Bulk Modulus (GPa) = 54.84445 59.56210 57.20327
# Shear Modulus (GPa) = 24.58826 17.61642 21.10234
#
# Velocity S-wave (km/s) = 3.47280 2.93951 3.21723
# Velocity P-wave (km/s) = 6.55601 6.38245 6.46981
#
# Compressibility (1/GPa) = 0.01823339
#
# Stress axis : x y z
#
# Youngs Moduli (GPa) = 95.77507 135.14127 71.14657
#
# Poissons Ratio (x) = 0.07984 0.16199
# Poissons Ratio (y) = 0.05658 0.28201
# Poissons Ratio (z) = 0.21806 0.53568
#
# Static dielectric constant tensor:
#      x y z
#    x 3.477690 0.000000 0.000000 
#    y 0.000000 3.890890 0.000000 
#    z 0.000000 0.000000 3.623280 
# 
# 
# High freq. dielectric constant tensor:
#      x y z
#    x 1.789100 0.000000 0.000000 
#    y 0.000000 1.815010 0.000000 
#    z 0.000000 0.000000 1.786910 
# 
# From -- ./inp_files/38313.got.cif
#   From: 2010.03.12/outbox.cif.g09.slc.cpg/sg67_20_cif.got.tgz:38313.got - 2010.04.10 22:41:39.
