data_PCOD8279861
_publ_section_title
;
Structure prediction by ZEFSAII (Michael W. Deem and Ramdas Pophale) SiO2 
 PCOD8279861
Probable space group: C M M A
;
_chemical_formula_sum "Si O2"
_cell_formula_units_Z 80
_cell_length_a 27.451708
_cell_length_b 8.760193
_cell_length_c 18.479461
_cell_angle_alpha 90.000000
_cell_angle_beta 90.000000
_cell_angle_gamma 90.000000
_cell_volume 4443.982550
_symmetry_space_group_name_H-M "C M M A"
_symmetry_group_IT_number 67
_symmetry_cell_setting 'orthorhombic'
loop_
_space_group_symop_operation_xyz
x,y,z
-x,1/2-y,z
x,-y,-z
-x,1/2+y,-z
-x,-y,-z
x,1/2+y,-z
-x,y,z
x,1/2-y,z
1/2+x,1/2+y,z
1/2-x,-y,z
1/2+x,1/2-y,-z
1/2-x,y,-z
1/2-x,1/2-y,-z
1/2+x,y,-z
1/2-x,1/2+y,z
1/2+x,-y,z
loop_
_atom_site_type_symbol
_atom_site_label
_atom_site_fract_x
_atom_site_fract_y
_atom_site_fract_z
Si Si1 0.697975 0.571753 0.851176
Si Si2 0.107204 0.929635 0.924833
Si Si3 0.645529 0.425390 0.296622
Si Si4 0.555196 0.573991 0.795094
Si Si5 0.698406 0.570431 0.424203
O O1 0.699510 0.750000 0.867809
O O2 0.750000 0.500000 0.866397
O O3 0.660003 0.496071 0.905727
O O4 0.682393 0.539126 0.768783
O O5 0.111047 0.750000 0.931971
O O6 0.067469 0.971586 0.864249
O O7 0.088843 0.000000 0.000000
O O8 0.649836 0.250000 0.321207
O O9 0.590570 0.466337 0.271910
O O10 0.658335 0.533043 0.363772
O O11 0.500000 0.542951 0.770111
O O12 0.563948 0.750000 0.817486
O O13 0.680816 0.500000 0.500000
O O14 0.704376 0.750000 0.432941
O O15 0.750000 0.500000 0.400206
#
# Coordination Sequence:
#
# PCOD8279861 Si02
#       5
#    16  16  16  16  16
#     4  10  20  34  52  75 103 136 173 211 253 304
#     4  11  22  36  53  74 102 134 170 213 259 308
#     4   9  18  33  53  77 105 134 167 208 252 300
#     4   9  19  37  59  80 102 131 168 211 260 310
#     4  11  21  33  51  76 108 142 175 209 247 294
#
# _framework density 18.001871000000001
#
# number of rings (size 3 to 8) (size 9 to 14) (size 15 to 20)
#    0.000    2.000    0.000    6.600    0.000    6.800 
#    0.000    2.000    0.000    0.600    0.000    0.000 
#    0.000    0.000    0.000    0.000    0.000    0.000 
#
# Total GULP energy -496150.824972 kJ/mol
# GULP energy per Si atom -12403.770624 kJ/mol
# Density = 1.796090 g / cm^3
# Si number density = 18.001871 Si / 1000 Ang^3
#
#
#
# Elastic Constant Matrix: (Units=GPa)
#
#
# Indices 1 2 3 4 5 6 
#
# 1 107.4344 39.4868 41.4853 0.0000 0.0000 0.0000
# 2 39.4868 129.4254 53.1060 0.0000 0.0000 0.0000
# 3 41.4853 53.1060 100.8188 0.0000 0.0000 0.0000
# 4 0.0000 0.0000 0.0000 30.6989 0.0000 0.0000
# 5 0.0000 0.0000 0.0000 0.0000 15.7216 0.0000
# 6 0.0000 0.0000 0.0000 0.0000 0.0000 25.6051
#
#
#
# Elastic Compliance Matrix: (Units=1/GPa)
#
#
# Indices 1 2 3 4 5 6 
#
# 1 0.011455 -0.001991 -0.003665 0.000000 0.000000 0.000000
# 2 -0.001991 0.010203 -0.004555 0.000000 0.000000 0.000000
# 3 -0.003665 -0.004555 0.013826 0.000000 0.000000 0.000000
# 4 0.000000 0.000000 0.000000 0.032574 0.000000 0.000000
# 5 0.000000 0.000000 0.000000 0.000000 0.063607 0.000000
# 6 0.000000 0.000000 0.000000 0.000000 0.000000 0.039055
#
#
# Mechanical properties :
#
#
# Convention : Reuss Voigt Hill
#
# Bulk Modulus (GPa) = 66.39118 67.31498 66.85308
# Shear Modulus (GPa) = 25.48909 27.97849 26.73379
#
# Velocity S-wave (km/s) = 3.76694 3.94661 3.85782
# Velocity P-wave (km/s) = 7.47530 7.63165 7.55388
#
# Compressibility (1/GPa) = 0.01506224
#
# Stress axis : x y z
#
# Youngs Moduli (GPa) = 87.29866 98.01059 72.32688
#
# Poissons Ratio (x) = 0.19515 0.26506
# Poissons Ratio (y) = 0.17382 0.32945
# Poissons Ratio (z) = 0.31992 0.44645
#
# Static dielectric constant tensor:
#      x y z
#    x 3.455660 0.000000 0.000000 
#    y 0.000000 3.360340 0.000000 
#    z 0.000000 0.000000 3.237910 
# 
# 
# High freq. dielectric constant tensor:
#      x y z
#    x 1.688170 0.000000 0.000000 
#    y 0.000000 1.706160 0.000000 
#    z 0.000000 0.000000 1.687500 
# 
# From -- ./inp_files/32104.got.cif
#   From: 2010.03.12/outbox.cif.g09.slc.cpg/sg67_17_cif.got.tgz:32104.got - 2010.04.10 22:41:39.
