data_PCOD8279297
_publ_section_title
;
Structure prediction by ZEFSAII (Michael W. Deem and Ramdas Pophale) SiO2 
 PCOD8279297
Probable space group: C M M A
;
_chemical_formula_sum "Si O2"
_cell_formula_units_Z 96
_cell_length_a 30.351815
_cell_length_b 14.215352
_cell_length_c 11.283744
_cell_angle_alpha 90.000000
_cell_angle_beta 90.000000
_cell_angle_gamma 90.000000
_cell_volume 4868.503753
_symmetry_space_group_name_H-M "C M M A"
_symmetry_group_IT_number 67
_symmetry_cell_setting 'orthorhombic'
loop_
_space_group_symop_operation_xyz
x,y,z
-x,1/2-y,z
x,-y,-z
-x,1/2+y,-z
-x,-y,-z
x,1/2+y,-z
-x,y,z
x,1/2-y,z
1/2+x,1/2+y,z
1/2-x,-y,z
1/2+x,1/2-y,-z
1/2-x,y,-z
1/2-x,1/2-y,-z
1/2+x,y,-z
1/2-x,1/2+y,z
1/2+x,-y,z
loop_
_atom_site_type_symbol
_atom_site_label
_atom_site_fract_x
_atom_site_fract_y
_atom_site_fract_z
Si Si1 0.335264 0.146150 0.494039
Si Si2 0.547937 0.960587 0.687176
Si Si3 0.141398 0.585529 0.230950
Si Si4 0.280593 0.250000 0.836179
Si Si5 0.065721 0.356431 0.446501
Si Si6 0.206025 0.559152 0.704960
Si Si7 0.819643 0.250000 0.915998
O O1 0.314200 0.250000 0.500808
O O2 0.340327 0.120922 0.357152
O O3 0.381951 0.144241 0.558832
O O4 0.305800 0.070947 0.565453
O O5 0.500000 0.943678 0.749134
O O6 0.588589 0.931270 0.772038
O O7 0.549244 0.894242 0.572400
O O8 0.549846 0.071363 0.654331
O O9 0.167663 0.488272 0.214629
O O10 0.153693 0.658592 0.128284
O O11 0.288320 0.338681 0.755748
O O12 0.230170 0.250000 0.873558
O O13 0.316393 0.250000 0.942126
O O14 0.047491 0.250000 0.425324
O O15 0.250000 0.500000 0.717245
#
# Coordination Sequence:
#
# PCOD8279297 Si02
#       7
#    16  16  16   8  16  16   8
#     4  10  19  34  57  84 128 165 193 240 293 370
#     4  10  20  32  50  83 122 159 207 244 286 364
#     4  11  22  40  60  90 125 163 197 245 309 358
#     4  11  26  45  65  89 110 154 209 255 308 349
#     4   9  17  30  49  76 120 169 200 239 289 347
#     4  12  23  39  62  89 122 159 202 246 302 369
#     4  11  24  47  64  85 118 146 206 263 300 359
#
# _framework density 19.718584
#
# number of rings (size 3 to 8) (size 9 to 14) (size 15 to 20)
#    0.000    1.500    5.000    1.500    1.167    3.333 
#    0.000    1.667    0.000    0.000    0.000    3.500 
#    0.000    0.000    0.000    0.000    0.000    0.000 
#
# Total GULP energy -594912.844166 kJ/mol
# GULP energy per Si atom -12394.017587 kJ/mol
# Density = 1.967370 g / cm^3
# Si number density = 19.718584 Si / 1000 Ang^3
#
#
#
# Elastic Constant Matrix: (Units=GPa)
#
#
# Indices 1 2 3 4 5 6 
#
# 1 129.5068 47.5424 35.3000 0.0000 0.0000 0.0000
# 2 47.5424 144.1798 29.7962 0.0000 0.0000 0.0000
# 3 35.3000 29.7962 52.1111 0.0000 0.0000 0.0000
# 4 0.0000 0.0000 0.0000 7.8130 0.0000 0.0000
# 5 0.0000 0.0000 0.0000 0.0000 14.8569 0.0000
# 6 0.0000 0.0000 0.0000 0.0000 0.0000 18.8823
#
#
#
# Elastic Compliance Matrix: (Units=1/GPa)
#
#
# Indices 1 2 3 4 5 6 
#
# 1 0.010029 -0.002158 -0.005560 0.000000 0.000000 0.000000
# 2 -0.002158 0.008330 -0.003301 0.000000 0.000000 0.000000
# 3 -0.005560 -0.003301 0.024843 0.000000 0.000000 0.000000
# 4 0.000000 0.000000 0.000000 0.127991 0.000000 0.000000
# 5 0.000000 0.000000 0.000000 0.000000 0.067309 0.000000
# 6 0.000000 0.000000 0.000000 0.000000 0.000000 0.052960
#
#
# Mechanical properties :
#
#
# Convention : Reuss Voigt Hill
#
# Bulk Modulus (GPa) = 47.24855 61.23054 54.23954
# Shear Modulus (GPa) = 15.59798 22.52106 19.05952
#
# Velocity S-wave (km/s) = 2.81558 3.38320 3.11235
# Velocity P-wave (km/s) = 5.88077 6.81036 6.36256
#
# Compressibility (1/GPa) = 0.02116467
#
# Stress axis : x y z
#
# Youngs Moduli (GPa) = 99.70765 120.05463 40.25223
#
# Poissons Ratio (x) = 0.25909 0.22380
# Poissons Ratio (y) = 0.21518 0.13286
# Poissons Ratio (z) = 0.55436 0.39627
#
# Static dielectric constant tensor:
#      x y z
#    x 3.863180 0.000000 0.000000 
#    y 0.000000 3.988520 0.000000 
#    z 0.000000 0.000000 3.162500 
# 
# 
# High freq. dielectric constant tensor:
#      x y z
#    x 1.774870 0.000000 0.000000 
#    y 0.000000 1.792670 0.000000 
#    z 0.000000 0.000000 1.705620 
# 
# From -- ./inp_files/23747.got.cif
#   From: 2010.03.12/outbox.cif.g09.slc.cpg/sg67_12_cif.got.tgz:23747.got - 2010.04.10 22:41:39.
