data_PCOD8279164
_publ_section_title
;
Structure prediction by ZEFSAII (Michael W. Deem and Ramdas Pophale) SiO2 
 PCOD8279164
Probable space group: C M M A
;
_chemical_formula_sum "Si O2"
_cell_formula_units_Z 88
_cell_length_a 16.383468
_cell_length_b 23.027476
_cell_length_c 12.003761
_cell_angle_alpha 90.000000
_cell_angle_beta 90.000000
_cell_angle_gamma 90.000000
_cell_volume 4528.657906
_symmetry_space_group_name_H-M "C M M A"
_symmetry_group_IT_number 67
_symmetry_cell_setting 'orthorhombic'
loop_
_space_group_symop_operation_xyz
x,y,z
-x,1/2-y,z
x,-y,-z
-x,1/2+y,-z
-x,-y,-z
x,1/2+y,-z
-x,y,z
x,1/2-y,z
1/2+x,1/2+y,z
1/2-x,-y,z
1/2+x,1/2-y,-z
1/2-x,y,-z
1/2-x,1/2-y,-z
1/2+x,y,-z
1/2-x,1/2+y,z
1/2+x,-y,z
loop_
_atom_site_type_symbol
_atom_site_label
_atom_site_fract_x
_atom_site_fract_y
_atom_site_fract_z
Si Si1 0.410443 0.464415 0.886892
Si Si2 0.656899 0.362000 0.006363
Si Si3 0.306810 0.152072 0.396027
Si Si4 0.594257 0.250000 0.502453
Si Si5 0.090671 0.750000 0.913759
Si Si6 0.402178 0.577144 0.770472
Si Si7 0.795438 0.250000 0.291286
O O1 0.500000 0.440132 0.856252
O O2 0.380912 0.508711 0.789888
O O3 0.415930 0.500000 0.000000
O O4 0.352016 0.409291 0.905633
O O5 0.628663 0.386947 0.123891
O O6 0.750000 0.341946 0.000000
O O7 0.598958 0.306948 0.989263
O O8 0.250000 0.131507 0.500000
O O9 0.379501 0.192264 0.438800
O O10 0.349844 0.097227 0.336764
O O11 0.256322 0.191049 0.307907
O O12 0.500000 0.250000 0.516574
O O13 0.631026 0.250000 0.623828
O O14 0.165700 0.750000 0.829119
O O15 0.000000 0.750000 0.859630
O O16 0.500000 0.585483 0.754363
#
# Coordination Sequence:
#
# PCOD8279164 Si02
#       7
#    16  16  16   8   8  16   8
#     4   8  16  32  51  73 105 142 178 215 258 318
#     4  11  22  35  52  79 115 147 180 221 268 323
#     4   9  18  32  51  77 109 142 184 240 288 323
#     4   9  16  29  50  74 102 143 195 238 280 339
#     4  12  23  35  52  76 110 148 182 218 269 331
#     4  10  19  33  54  80 112 149 188 228 272 324
#     4   9  19  34  47  70 108 149 184 226 281 336
#
# _framework density 19.431806000000002
#
# number of rings (size 3 to 8) (size 9 to 14) (size 15 to 20)
#    0.000    2.364    0.000    6.000    0.000    4.727 
#    0.000    2.727    0.000    0.000    0.000   25.455 
#    0.000   49.455    0.000    0.000    0.000    0.000 
#
# Total GULP energy -545293.604645 kJ/mol
# GULP energy per Si atom -12393.036469 kJ/mol
# Density = 1.938758 g / cm^3
# Si number density = 19.431806 Si / 1000 Ang^3
#
#
#
# Elastic Constant Matrix: (Units=GPa)
#
#
# Indices 1 2 3 4 5 6 
#
# 1 98.2658 34.0739 12.1618 0.0000 0.0000 0.0000
# 2 34.0739 100.2812 36.4633 0.0000 0.0000 0.0000
# 3 12.1618 36.4633 46.7289 0.0000 0.0000 0.0000
# 4 0.0000 0.0000 0.0000 -1.5895 0.0000 0.0000
# 5 0.0000 0.0000 0.0000 0.0000 25.9647 0.0000
# 6 0.0000 0.0000 0.0000 0.0000 0.0000 23.2783
#
#
#
# Elastic Compliance Matrix: (Units=1/GPa)
#
#
# Indices 1 2 3 4 5 6 
#
# 1 0.011536 -0.003948 0.000079 0.000000 0.000000 0.000000
# 2 -0.003948 0.015273 -0.010890 0.000000 0.000000 0.000000
# 3 0.000079 -0.010890 0.029878 0.000000 0.000000 0.000000
# 4 0.000000 0.000000 0.000000 -0.629140 0.000000 0.000000
# 5 0.000000 0.000000 0.000000 0.000000 0.038514 0.000000
# 6 0.000000 0.000000 0.000000 0.000000 0.000000 0.042958
#
#
# Mechanical properties :
#
#
# Convention : Reuss Voigt Hill
#
# Bulk Modulus (GPa) = 36.81015 45.63043 41.22029
# Shear Modulus (GPa) = -11.05204 20.36917 4.65856
#
# Velocity S-wave (km/s) = -2.38746 3.24116 1.55003
# Velocity P-wave (km/s) = 3.37408 6.12700 4.94594
#
# Compressibility (1/GPa) = 0.02716642
#
# Stress axis : x y z
#
# Youngs Moduli (GPa) = 86.68650 65.47338 33.46992
#
# Poissons Ratio (x) = 0.25850 -0.00263
# Poissons Ratio (y) = 0.34226 0.36450
# Poissons Ratio (z) = -0.00681 0.71304
#
# Static dielectric constant tensor:
#      x y z
#    x 3.582630 0.000000 0.000000 
#    y 0.000000 3.643430 0.000000 
#    z 0.000000 0.000000 3.339340 
# 
# 
# High freq. dielectric constant tensor:
#      x y z
#    x 1.766290 0.000000 0.000000 
#    y 0.000000 1.749180 0.000000 
#    z 0.000000 0.000000 1.729380 
# 
# From -- ./inp_files/18173.got.cif
#   From: 2010.03.12/outbox.cif.g09.slc.cpg/sg67_10_cif.got.tgz:18173.got - 2010.04.10 22:41:39.
