data_PCOD8279496
_publ_section_title
;
Structure prediction by ZEFSAII (Michael W. Deem and Ramdas Pophale) SiO2 
 PCOD8279496
Probable space group: C M M A
;
_chemical_formula_sum "Si O2"
_cell_formula_units_Z 72
_cell_length_a 8.818930
_cell_length_b 36.266919
_cell_length_c 14.358882
_cell_angle_alpha 90.000000
_cell_angle_beta 90.000000
_cell_angle_gamma 90.000000
_cell_volume 4592.479055
_symmetry_space_group_name_H-M "C M M A"
_symmetry_group_IT_number 67
_symmetry_cell_setting 'orthorhombic'
loop_
_space_group_symop_operation_xyz
x,y,z
-x,1/2-y,z
x,-y,-z
-x,1/2+y,-z
-x,-y,-z
x,1/2+y,-z
-x,y,z
x,1/2-y,z
1/2+x,1/2+y,z
1/2-x,-y,z
1/2+x,1/2-y,-z
1/2-x,y,-z
1/2-x,1/2-y,-z
1/2+x,y,-z
1/2-x,1/2+y,z
1/2+x,-y,z
loop_
_atom_site_type_symbol
_atom_site_label
_atom_site_fract_x
_atom_site_fract_y
_atom_site_fract_z
Si Si1 0.322408 0.383618 0.898310
Si Si2 0.677242 0.208324 0.407193
Si Si3 0.319971 0.250000 0.898609
Si Si4 0.325171 0.534686 0.100232
Si Si5 0.179079 0.181927 0.791953
O O1 0.500000 0.373657 0.905699
O O2 0.299359 0.424837 0.855497
O O3 0.236560 0.357365 0.826827
O O4 0.250000 0.379148 0.000000
O O5 0.500000 0.208803 0.422645
O O6 0.738515 0.250000 0.392005
O O7 0.750000 0.190589 0.500000
O O8 0.721105 0.184296 0.317183
O O9 0.500000 0.250000 0.905524
O O10 0.265298 0.213760 0.846265
O O11 0.250000 0.250000 0.000000
O O12 0.500000 0.525730 0.089476
O O13 0.250000 0.500000 0.156885
O O14 0.250000 0.536184 0.000000
O O15 0.000000 0.186564 0.808458
#
# Coordination Sequence:
#
# PCOD8279496 Si02
#       5
#    16  16   8  16  16
#     4  10  20  32  45  66  93 125 159 192 228 269
#     4   9  18  33  51  70  90 112 144 187 233 277
#     4  12  24  36  49  64  87 122 159 194 228 266
#     4   9  16  26  42  62  87 116 152 189 224 266
#     4  11  21  35  50  67  92 120 153 192 229 271
#
# _framework density 15.677807
#
# number of rings (size 3 to 8) (size 9 to 14) (size 15 to 20)
#    0.000    2.000    1.111    4.333    0.000    4.444 
#    0.000    0.000    0.000    0.000    0.000    0.000 
#    0.000    0.889    0.000    9.778    0.000    7.111 
#
# Total GULP energy -446206.069714 kJ/mol
# GULP energy per Si atom -12394.613048 kJ/mol
# Density = 1.564212 g / cm^3
# Si number density = 15.677807 Si / 1000 Ang^3
#
#
#
# Elastic Constant Matrix: (Units=GPa)
#
#
# Indices 1 2 3 4 5 6 
#
# 1 104.3792 52.8882 49.9140 0.0000 0.0000 0.0000
# 2 52.8882 113.6838 52.4472 0.0000 0.0000 0.0000
# 3 49.9140 52.4472 102.6587 0.0000 0.0000 0.0000
# 4 0.0000 0.0000 0.0000 -6.6504 0.0000 0.0000
# 5 0.0000 0.0000 0.0000 0.0000 23.7406 0.0000
# 6 0.0000 0.0000 0.0000 0.0000 0.0000 0.7816
#
#
#
# Elastic Compliance Matrix: (Units=1/GPa)
#
#
# Indices 1 2 3 4 5 6 
#
# 1 0.013990 -0.004410 -0.004549 0.000000 0.000000 0.000000
# 2 -0.004410 0.012899 -0.004446 0.000000 0.000000 0.000000
# 3 -0.004549 -0.004446 0.014224 0.000000 0.000000 0.000000
# 4 0.000000 0.000000 0.000000 -0.150367 0.000000 0.000000
# 5 0.000000 0.000000 0.000000 0.000000 0.042122 0.000000
# 6 0.000000 0.000000 0.000000 0.000000 0.000000 1.279462
#
#
# Mechanical properties :
#
#
# Convention : Reuss Voigt Hill
#
# Bulk Modulus (GPa) = 69.91248 70.13560 70.02404
# Shear Modulus (GPa) = 4.01959 14.60585 9.31272
#
# Velocity S-wave (km/s) = 1.60295 3.05557 2.43987
# Velocity P-wave (km/s) = 6.93657 7.56844 7.25939
#
# Compressibility (1/GPa) = 0.01430360
#
# Stress axis : x y z
#
# Youngs Moduli (GPa) = 71.47767 77.52599 70.30230
#
# Poissons Ratio (x) = 0.34187 0.31983
# Poissons Ratio (y) = 0.31520 0.31255
# Poissons Ratio (z) = 0.32518 0.34466
#
# Static dielectric constant tensor:
#      x y z
#    x 3.186050 0.000000 0.000000 
#    y 0.000000 3.614600 0.000000 
#    z 0.000000 0.000000 2.808090 
# 
# 
# High freq. dielectric constant tensor:
#      x y z
#    x 1.621030 0.000000 0.000000 
#    y 0.000000 1.601230 0.000000 
#    z 0.000000 0.000000 1.562950 
# 
# From -- ./inp_files/25328.got.cif
#   From: 2010.03.12/outbox.cif.g09.slc.cpg/sg67_13_cif.got.tgz:25328.got - 2010.04.10 22:41:39.
