data_PCOD8279370
_publ_section_title
;
Structure prediction by ZEFSAII (Michael W. Deem and Ramdas Pophale) SiO2 
 PCOD8279370
Probable space group: C M M A
;
_chemical_formula_sum "Si O2"
_cell_formula_units_Z 112
_cell_length_a 15.022121
_cell_length_b 24.024620
_cell_length_c 14.076626
_cell_angle_alpha 90.000000
_cell_angle_beta 90.000000
_cell_angle_gamma 90.000000
_cell_volume 5080.264861
_symmetry_space_group_name_H-M "C M M A"
_symmetry_group_IT_number 67
_symmetry_cell_setting 'orthorhombic'
loop_
_space_group_symop_operation_xyz
x,y,z
-x,1/2-y,z
x,-y,-z
-x,1/2+y,-z
-x,-y,-z
x,1/2+y,-z
-x,y,z
x,1/2-y,z
1/2+x,1/2+y,z
1/2-x,-y,z
1/2+x,1/2-y,-z
1/2-x,y,-z
1/2-x,1/2-y,-z
1/2+x,y,-z
1/2-x,1/2+y,z
1/2+x,-y,z
loop_
_atom_site_type_symbol
_atom_site_label
_atom_site_fract_x
_atom_site_fract_y
_atom_site_fract_z
Si Si1 0.602203 0.895959 0.091490
Si Si2 0.600833 0.885438 0.885730
Si Si3 0.603590 0.815035 0.714169
Si Si4 0.354769 0.500659 0.793659
Si Si5 0.342736 0.970783 0.408139
Si Si6 0.730967 0.848179 0.398772
Si Si7 0.898505 0.688178 0.754895
O O1 0.500000 0.877946 0.087442
O O2 0.611280 0.959580 0.124217
O O3 0.646098 0.854517 0.169298
O O4 0.650857 0.888284 0.988279
O O5 0.500000 0.886002 0.917858
O O6 0.622531 0.830312 0.824743
O O7 0.616244 0.937548 0.817509
O O8 0.500000 0.828969 0.687997
O O9 0.623877 0.750000 0.699559
O O10 0.672161 0.852130 0.652229
O O11 0.250000 0.500000 0.790813
O O12 0.395776 0.481733 0.690933
O O13 0.320402 0.905950 0.420155
O O14 0.391622 0.000000 0.500000
O O15 0.250000 0.000000 0.396075
O O16 0.750000 0.819162 0.500000
O O17 0.662635 0.811356 0.338521
O O18 0.896605 0.750000 0.798991
O O19 0.000000 0.671418 0.727310
#
# Coordination Sequence:
#
# PCOD8279370 Si02
#       7
#    16  16  16  16  16  16  16
#     4  10  21  39  61  88 122 165 209 255 312 371
#     4  10  22  38  60  88 123 166 208 255 312 372
#     4  10  23  43  64  92 128 165 211 260 309 370
#     4  11  21  35  59  87 124 162 199 258 314 375
#     4  10  19  35  59  91 120 162 206 249 308 374
#     4  12  23  41  70  92 123 164 207 257 317 374
#     4  10  23  43  65  93 127 164 211 260 308 368
#
# _framework density 22.046095999999999
#
# number of rings (size 3 to 8) (size 9 to 14) (size 15 to 20)
#    0.000    1.571    2.857    3.000    0.000    4.571 
#    0.000    4.286    0.000    4.286    0.000    0.000 
#    0.000    0.000    0.000    0.000    0.000    0.000 
#
# Total GULP energy -693868.077624 kJ/mol
# GULP energy per Si atom -12390.501386 kJ/mol
# Density = 2.199592 g / cm^3
# Si number density = 22.046096 Si / 1000 Ang^3
#
#
#
# Elastic Constant Matrix: (Units=GPa)
#
#
# Indices 1 2 3 4 5 6 
#
# 1 60.4626 12.6361 41.8425 0.0000 0.0000 0.0000
# 2 12.6361 90.4662 29.7763 0.0000 0.0000 0.0000
# 3 41.8425 29.7763 169.9639 0.0000 0.0000 0.0000
# 4 0.0000 0.0000 0.0000 29.0551 0.0000 0.0000
# 5 0.0000 0.0000 0.0000 0.0000 21.7626 0.0000
# 6 0.0000 0.0000 0.0000 0.0000 0.0000 22.7163
#
#
#
# Elastic Compliance Matrix: (Units=1/GPa)
#
#
# Indices 1 2 3 4 5 6 
#
# 1 0.020068 -0.001249 -0.004722 0.000000 0.000000 0.000000
# 2 -0.001249 0.011808 -0.001761 0.000000 0.000000 0.000000
# 3 -0.004722 -0.001761 0.007355 0.000000 0.000000 0.000000
# 4 0.000000 0.000000 0.000000 0.034417 0.000000 0.000000
# 5 0.000000 0.000000 0.000000 0.000000 0.045950 0.000000
# 6 0.000000 0.000000 0.000000 0.000000 0.000000 0.044021
#
#
# Mechanical properties :
#
#
# Convention : Reuss Voigt Hill
#
# Bulk Modulus (GPa) = 42.07545 54.37802 48.22673
# Shear Modulus (GPa) = 26.73730 30.48267 28.60998
#
# Velocity S-wave (km/s) = 3.48629 3.72247 3.60632
# Velocity P-wave (km/s) = 5.94410 6.57228 6.26607
#
# Compressibility (1/GPa) = 0.02376683
#
# Stress axis : x y z
#
# Youngs Moduli (GPa) = 49.83140 84.68845 135.97079
#
# Poissons Ratio (x) = 0.10577 0.64199
# Poissons Ratio (y) = 0.06224 0.23947
# Poissons Ratio (z) = 0.23528 0.14915
#
# Static dielectric constant tensor:
#      x y z
#    x 3.740580 0.000000 0.000000 
#    y 0.000000 4.714880 0.000000 
#    z 0.000000 0.000000 13.157320 
# 
# 
# High freq. dielectric constant tensor:
#      x y z
#    x 1.847330 0.000000 0.000000 
#    y 0.000000 1.862610 0.000000 
#    z 0.000000 0.000000 1.879500 
# 
# From -- ./inp_files/27510.got.cif
#   From: 2010.03.12/outbox.cif.g09.slc.cpg/sg67_14_cif.got.tgz:27510.got - 2010.04.10 22:41:39.
