data_PCOD8279764
_publ_section_title
;
Structure prediction by ZEFSAII (Michael W. Deem and Ramdas Pophale) SiO2 
 PCOD8279764
Probable space group: C M M A
;
_chemical_formula_sum "Si O2"
_cell_formula_units_Z 96
_cell_length_a 8.691206
_cell_length_b 28.435403
_cell_length_c 20.701694
_cell_angle_alpha 90.000000
_cell_angle_beta 90.000000
_cell_angle_gamma 90.000000
_cell_volume 5116.174117
_symmetry_space_group_name_H-M "C M M A"
_symmetry_group_IT_number 67
_symmetry_cell_setting 'orthorhombic'
loop_
_space_group_symop_operation_xyz
x,y,z
-x,1/2-y,z
x,-y,-z
-x,1/2+y,-z
-x,-y,-z
x,1/2+y,-z
-x,y,z
x,1/2-y,z
1/2+x,1/2+y,z
1/2-x,-y,z
1/2+x,1/2-y,-z
1/2-x,y,-z
1/2-x,1/2-y,-z
1/2+x,y,-z
1/2-x,1/2+y,z
1/2+x,-y,z
loop_
_atom_site_type_symbol
_atom_site_label
_atom_site_fract_x
_atom_site_fract_y
_atom_site_fract_z
Si Si1 0.819563 0.888606 0.311081
Si Si2 0.318056 0.449400 0.432697
Si Si3 0.681571 0.948558 0.813186
Si Si4 0.680814 0.606542 0.066733
Si Si5 0.676653 0.697108 0.253779
Si Si6 0.320943 0.303361 0.116948
O O1 0.767963 0.913656 0.376858
O O2 0.768525 0.920497 0.250717
O O3 0.730105 0.839010 0.308920
O O4 0.000000 0.878701 0.310118
O O5 0.500000 0.454181 0.438343
O O6 0.250000 0.500000 0.415166
O O7 0.250000 0.430303 0.500000
O O8 0.500000 0.952014 0.819759
O O9 0.746796 0.922374 0.875176
O O10 0.750000 0.000000 0.807881
O O11 0.500000 0.599314 0.066555
O O12 0.722090 0.661766 0.072764
O O13 0.750000 0.586840 0.000000
O O14 0.500000 0.688289 0.234191
O O15 0.699989 0.750000 0.280270
O O16 0.781944 0.687925 0.191607
O O17 0.500000 0.314524 0.106874
O O18 0.279615 0.250000 0.096829
#
# Coordination Sequence:
#
# PCOD8279764 Si02
#       6
#    16  16  16  16  16  16
#     4  10  21  36  58  85 116 151 189 230 280 334
#     4  10  20  35  55  84 118 156 193 231 278 331
#     4  11  23  40  60  84 112 144 186 234 283 336
#     4  12  25  41  60  82 110 147 188 234 286 341
#     4  10  20  33  54  85 116 147 186 230 278 333
#     4  10  20  36  58  83 113 147 183 228 282 338
#
# _framework density 18.764021
#
# number of rings (size 3 to 8) (size 9 to 14) (size 15 to 20)
#    0.000    1.500    1.667    4.500    0.000    4.667 
#    0.000    1.667    0.000    0.500    0.000    0.000 
#    0.000    0.000    0.000    0.000    0.000    0.000 
#
# Total GULP energy -595409.635476 kJ/mol
# GULP energy per Si atom -12404.367406 kJ/mol
# Density = 1.872131 g / cm^3
# Si number density = 18.764021 Si / 1000 Ang^3
#
#
#
# Elastic Constant Matrix: (Units=GPa)
#
#
# Indices 1 2 3 4 5 6 
#
# 1 81.2357 44.9074 47.1840 0.0000 0.0000 0.0000
# 2 44.9074 112.5134 62.1182 0.0000 0.0000 0.0000
# 3 47.1840 62.1182 127.3345 0.0000 0.0000 0.0000
# 4 0.0000 0.0000 0.0000 25.8924 0.0000 0.0000
# 5 0.0000 0.0000 0.0000 0.0000 27.3920 0.0000
# 6 0.0000 0.0000 0.0000 0.0000 0.0000 35.1416
#
#
#
# Elastic Compliance Matrix: (Units=1/GPa)
#
#
# Indices 1 2 3 4 5 6 
#
# 1 0.017264 -0.004597 -0.004155 0.000000 0.000000 0.000000
# 2 -0.004597 0.013388 -0.004828 0.000000 0.000000 0.000000
# 3 -0.004155 -0.004828 0.011748 0.000000 0.000000 0.000000
# 4 0.000000 0.000000 0.000000 0.038621 0.000000 0.000000
# 5 0.000000 0.000000 0.000000 0.000000 0.036507 0.000000
# 6 0.000000 0.000000 0.000000 0.000000 0.000000 0.028456
#
#
# Mechanical properties :
#
#
# Convention : Reuss Voigt Hill
#
# Bulk Modulus (GPa) = 65.61041 69.94475 67.77758
# Shear Modulus (GPa) = 28.05457 28.81013 28.43235
#
# Velocity S-wave (km/s) = 3.87088 3.92266 3.89686
# Velocity P-wave (km/s) = 7.41756 7.60745 7.51311
#
# Compressibility (1/GPa) = 0.01524148
#
# Stress axis : x y z
#
# Youngs Moduli (GPa) = 57.92324 74.69409 85.12055
#
# Poissons Ratio (x) = 0.34336 0.35366
# Poissons Ratio (y) = 0.26626 0.41094
# Poissons Ratio (z) = 0.24066 0.36060
#
# Static dielectric constant tensor:
#      x y z
#    x 3.503770 0.000000 0.000000 
#    y 0.000000 3.556270 0.000000 
#    z 0.000000 0.000000 3.462400 
# 
# 
# High freq. dielectric constant tensor:
#      x y z
#    x 1.742200 0.000000 0.000000 
#    y 0.000000 1.732650 0.000000 
#    z 0.000000 0.000000 1.715020 
# 
# From -- ./inp_files/37152.got.cif
#   From: 2010.03.12/outbox.cif.g09.slc.cpg/sg67_19_cif.got.tgz:37152.got - 2010.04.10 22:41:39.
