data_PCOD8279096
_publ_section_title
;
Structure prediction by ZEFSAII (Michael W. Deem and Ramdas Pophale) SiO2 
 PCOD8279096
Probable space group: C M M A
;
_chemical_formula_sum "Si O2"
_cell_formula_units_Z 88
_cell_length_a 14.164158
_cell_length_b 14.074190
_cell_length_c 22.240221
_cell_angle_alpha 90.000000
_cell_angle_beta 90.000000
_cell_angle_gamma 90.000000
_cell_volume 4433.566948
_symmetry_space_group_name_H-M "C M M A"
_symmetry_group_IT_number 67
_symmetry_cell_setting 'orthorhombic'
loop_
_space_group_symop_operation_xyz
x,y,z
-x,1/2-y,z
x,-y,-z
-x,1/2+y,-z
-x,-y,-z
x,1/2+y,-z
-x,y,z
x,1/2-y,z
1/2+x,1/2+y,z
1/2-x,-y,z
1/2+x,1/2-y,-z
1/2-x,y,-z
1/2-x,1/2-y,-z
1/2+x,y,-z
1/2-x,1/2+y,z
1/2+x,-y,z
loop_
_atom_site_type_symbol
_atom_site_label
_atom_site_fract_x
_atom_site_fract_y
_atom_site_fract_z
Si Si1 0.750000 0.500000 0.236722
Si Si2 0.389371 0.852678 0.579196
Si Si3 0.891600 0.499419 0.928946
Si Si4 0.893535 0.861850 0.550273
Si Si5 0.255966 0.364222 0.129932
Si Si6 0.390300 0.976699 0.340030
O O1 0.729629 0.406547 0.196787
O O2 0.661088 0.531189 0.276710
O O3 0.500000 0.840690 0.567208
O O4 0.343804 0.750000 0.593853
O O5 0.348168 0.890662 0.514741
O O6 0.370108 0.917881 0.635945
O O7 0.837857 0.589760 0.899822
O O8 0.846973 0.399225 0.907636
O O9 0.000000 0.504814 0.908239
O O10 0.881264 0.500000 0.000000
O O11 0.890465 0.750000 0.557725
O O12 0.843300 0.908158 0.608744
O O13 0.000000 0.902617 0.553494
O O14 0.249163 0.250000 0.130609
O O15 0.500000 0.954601 0.328110
#
# Coordination Sequence:
#
# PCOD8279096 Si02
#       6
#     8  16  16  16  16  16
#     4  10  24  38  50  74 104 140 194 242 266 308
#     4   8  14  26  46  71  95 120 155 205 273 348
#     4   9  19  37  63  97 129 151 182 231 279 327
#     4   8  14  26  46  71  95 120 155 205 273 348
#     4  10  22  40  59  81 118 165 200 230 275 327
#     4  10  19  33  52  69  92 130 172 220 278 330
#
# _framework density 19.848578
#
# number of rings (size 3 to 8) (size 9 to 14) (size 15 to 20)
#    0.000    3.091    0.000    2.727    0.000    8.727 
#    0.000    3.636    0.000    2.182    0.000    0.000 
#    0.000    0.000    0.000    0.000    0.000    0.000 
#
# Total GULP energy -545140.079989 kJ/mol
# GULP energy per Si atom -12389.547272 kJ/mol
# Density = 1.980340 g / cm^3
# Si number density = 19.848578 Si / 1000 Ang^3
#
#
#
# Elastic Constant Matrix: (Units=GPa)
#
#
# Indices 1 2 3 4 5 6 
#
# 1 68.3299 5.7318 25.3662 0.0000 0.0000 0.0000
# 2 5.7318 101.1371 27.7091 0.0000 0.0000 0.0000
# 3 25.3662 27.7091 111.2969 0.0000 0.0000 0.0000
# 4 0.0000 0.0000 0.0000 19.6459 0.0000 0.0000
# 5 0.0000 0.0000 0.0000 0.0000 25.7909 0.0000
# 6 0.0000 0.0000 0.0000 0.0000 0.0000 7.9481
#
#
#
# Elastic Compliance Matrix: (Units=1/GPa)
#
#
# Indices 1 2 3 4 5 6 
#
# 1 0.015989 0.000099 -0.003669 0.000000 0.000000 0.000000
# 2 0.000099 0.010612 -0.002665 0.000000 0.000000 0.000000
# 3 -0.003669 -0.002665 0.010485 0.000000 0.000000 0.000000
# 4 0.000000 0.000000 0.000000 0.050901 0.000000 0.000000
# 5 0.000000 0.000000 0.000000 0.000000 0.038773 0.000000
# 6 0.000000 0.000000 0.000000 0.000000 0.000000 0.125816
#
#
# Mechanical properties :
#
#
# Convention : Reuss Voigt Hill
#
# Bulk Modulus (GPa) = 40.62314 44.26422 42.44368
# Shear Modulus (GPa) = 18.29831 25.47411 21.88621
#
# Velocity S-wave (km/s) = 3.03957 3.58637 3.32423
# Velocity P-wave (km/s) = 5.72971 6.28481 6.01367
#
# Compressibility (1/GPa) = 0.02461651
#
# Stress axis : x y z
#
# Youngs Moduli (GPa) = 62.54493 94.23303 95.37886
#
# Poissons Ratio (x) = -0.00933 0.34991
# Poissons Ratio (y) = -0.00619 0.25414
# Poissons Ratio (z) = 0.22946 0.25109
#
# Static dielectric constant tensor:
#      x y z
#    x 3.543490 0.000000 0.000000 
#    y 0.000000 3.604160 0.000000 
#    z 0.000000 0.000000 3.617150 
# 
# 
# High freq. dielectric constant tensor:
#      x y z
#    x 1.765530 0.000000 0.000000 
#    y 0.000000 1.766780 0.000000 
#    z 0.000000 0.000000 1.771630 
# 
# From -- ./inp_files/38318.got.cif
#   From: 2010.03.12/outbox.cif.g09.slc.cpg/sg67_20_cif.got.tgz:38318.got - 2010.04.10 22:41:39.
