data_PCOD8279159
_publ_section_title
;
Structure prediction by ZEFSAII (Michael W. Deem and Ramdas Pophale) SiO2 
 PCOD8279159
Probable space group: C M M A
;
_chemical_formula_sum "Si O2"
_cell_formula_units_Z 88
_cell_length_a 8.846090
_cell_length_b 21.903951
_cell_length_c 24.121763
_cell_angle_alpha 90.000000
_cell_angle_beta 90.000000
_cell_angle_gamma 90.000000
_cell_volume 4673.937051
_symmetry_space_group_name_H-M "C M M A"
_symmetry_group_IT_number 67
_symmetry_cell_setting 'orthorhombic'
loop_
_space_group_symop_operation_xyz
x,y,z
-x,1/2-y,z
x,-y,-z
-x,1/2+y,-z
-x,-y,-z
x,1/2+y,-z
-x,y,z
x,1/2-y,z
1/2+x,1/2+y,z
1/2-x,-y,z
1/2+x,1/2-y,-z
1/2-x,y,-z
1/2-x,1/2-y,-z
1/2+x,y,-z
1/2-x,1/2+y,z
1/2+x,-y,z
loop_
_atom_site_type_symbol
_atom_site_label
_atom_site_fract_x
_atom_site_fract_y
_atom_site_fract_z
Si Si1 0.176626 0.639720 0.861829
Si Si2 0.820544 0.181594 0.630142
Si Si3 0.330888 0.320934 0.245539
Si Si4 0.676357 0.250000 0.939958
Si Si5 0.322132 0.564906 0.947585
Si Si6 0.681525 0.063288 0.439392
O O1 0.219226 0.647605 0.797752
O O2 0.228121 0.694052 0.901990
O O3 0.272393 0.584526 0.886333
O O4 0.000000 0.626581 0.865136
O O5 0.761944 0.250000 0.610818
O O6 0.765144 0.168347 0.692744
O O7 0.763657 0.124546 0.593039
O O8 0.000000 0.184031 0.629597
O O9 0.500000 0.348472 0.240216
O O10 0.335718 0.250000 0.231790
O O11 0.500000 0.250000 0.950269
O O12 0.750000 0.250000 0.000000
O O13 0.500000 0.565052 0.953466
O O14 0.250000 0.500000 0.954431
O O15 0.250000 0.603722 0.000000
O O16 0.500000 0.058311 0.440961
O O17 0.750000 0.070978 0.500000
O O18 0.750000 0.000000 0.413267
#
# Coordination Sequence:
#
# PCOD8279159 Si02
#       6
#    16  16  16   8  16  16
#     4  11  21  35  52  76 106 138 171 213 261 314
#     4   8  16  32  54  79 106 140 185 232 275 321
#     4   9  17  32  54  77 101 136 179 219 263 316
#     4  10  22  34  48  72 104 134 165 206 257 308
#     4  11  22  38  57  77  99 131 170 214 264 319
#     4  10  19  33  54  79 111 147 182 223 271 328
#
# _framework density 18.827809999999999
#
# number of rings (size 3 to 8) (size 9 to 14) (size 15 to 20)
#    0.000    2.182    0.909    5.455    0.000    3.273 
#    0.000    2.727    0.000    6.000    0.000    0.000 
#    0.000    0.000    0.000    0.000    0.000    0.000 
#
# Total GULP energy -545103.392601 kJ/mol
# GULP energy per Si atom -12388.713468 kJ/mol
# Density = 1.878496 g / cm^3
# Si number density = 18.827810 Si / 1000 Ang^3
#
#
#
# Elastic Constant Matrix: (Units=GPa)
#
#
# Indices 1 2 3 4 5 6 
#
# 1 96.2398 38.2575 38.8664 0.0000 0.0000 0.0000
# 2 38.2575 109.0105 66.5090 0.0000 0.0000 0.0000
# 3 38.8664 66.5090 110.2787 0.0000 0.0000 0.0000
# 4 0.0000 0.0000 0.0000 40.7017 0.0000 0.0000
# 5 0.0000 0.0000 0.0000 0.0000 31.4587 0.0000
# 6 0.0000 0.0000 0.0000 0.0000 0.0000 43.4588
#
#
#
# Elastic Compliance Matrix: (Units=1/GPa)
#
#
# Indices 1 2 3 4 5 6 
#
# 1 0.012602 -0.002710 -0.002807 0.000000 0.000000 0.000000
# 2 -0.002710 0.015097 -0.008150 0.000000 0.000000 0.000000
# 3 -0.002807 -0.008150 0.014972 0.000000 0.000000 0.000000
# 4 0.000000 0.000000 0.000000 0.024569 0.000000 0.000000
# 5 0.000000 0.000000 0.000000 0.000000 0.031788 0.000000
# 6 0.000000 0.000000 0.000000 0.000000 0.000000 0.023010
#
#
# Mechanical properties :
#
#
# Convention : Reuss Voigt Hill
#
# Bulk Modulus (GPa) = 65.20022 66.97719 66.08871
# Shear Modulus (GPa) = 32.36592 34.58357 33.47475
#
# Velocity S-wave (km/s) = 4.15064 4.29048 4.22114
# Velocity P-wave (km/s) = 7.59443 7.75855 7.67693
#
# Compressibility (1/GPa) = 0.01533737
#
# Stress axis : x y z
#
# Youngs Moduli (GPa) = 79.35530 66.23908 66.79010
#
# Poissons Ratio (x) = 0.17951 0.18747
# Poissons Ratio (y) = 0.21506 0.54432
# Poissons Ratio (z) = 0.22274 0.53983
#
# Static dielectric constant tensor:
#      x y z
#    x 3.285970 0.000000 0.000000 
#    y 0.000000 3.743880 0.000000 
#    z 0.000000 0.000000 3.504000 
# 
# 
# High freq. dielectric constant tensor:
#      x y z
#    x 1.718460 0.000000 0.000000 
#    y 0.000000 1.724950 0.000000 
#    z 0.000000 0.000000 1.731390 
# 
# From -- ./inp_files/36960.got.cif
#   From: 2010.03.12/outbox.cif.g09.slc.cpg/sg67_19_cif.got.tgz:36960.got - 2010.04.10 22:41:39.
