data_PCOD8279951
_publ_section_title
;
Structure prediction by ZEFSAII (Michael W. Deem and Ramdas Pophale) SiO2 
 PCOD8279951
Probable space group: C M M A
;
_chemical_formula_sum "Si O2"
_cell_formula_units_Z 64
_cell_length_a 19.155401
_cell_length_b 15.546733
_cell_length_c 10.459182
_cell_angle_alpha 90.000000
_cell_angle_beta 90.000000
_cell_angle_gamma 90.000000
_cell_volume 3114.785241
_symmetry_space_group_name_H-M "C M M A"
_symmetry_group_IT_number 67
_symmetry_cell_setting 'orthorhombic'
loop_
_space_group_symop_operation_xyz
x,y,z
-x,1/2-y,z
x,-y,-z
-x,1/2+y,-z
-x,-y,-z
x,1/2+y,-z
-x,y,z
x,1/2-y,z
1/2+x,1/2+y,z
1/2-x,-y,z
1/2+x,1/2-y,-z
1/2-x,y,-z
1/2-x,1/2-y,-z
1/2+x,y,-z
1/2-x,1/2+y,z
1/2+x,-y,z
loop_
_atom_site_type_symbol
_atom_site_label
_atom_site_fract_x
_atom_site_fract_y
_atom_site_fract_z
Si Si1 0.281731 0.905782 0.870084
Si Si2 0.924010 0.647479 0.742589
Si Si3 0.713160 0.348099 0.622162
Si Si4 0.578665 0.351138 0.034091
O O1 0.262174 0.850565 0.746440
O O2 0.250000 0.000000 0.851672
O O3 0.250000 0.863682 0.000000
O O4 0.366068 0.904958 0.881112
O O5 0.921245 0.750000 0.740724
O O6 0.862158 0.608312 0.654257
O O7 0.912269 0.617703 0.888147
O O8 0.000000 0.615578 0.693010
O O9 0.699188 0.250000 0.584112
O O10 0.750000 0.394458 0.500000
O O11 0.500000 0.372159 0.081522
O O12 0.594047 0.250000 0.048100
#
# Coordination Sequence:
#
# PCOD8279951 Si02
#       4
#    16  16  16  16
#     4  11  22  35  52  80 115 147 187 226 280 340
#     4   8  14  27  49  77 106 136 173 220 279 339
#     4  10  20  34  54  79 105 141 189 238 286 331
#     4   9  17  32  57  85 111 144 187 237 287 329
#
# _framework density 20.547162
#
# number of rings (size 3 to 8) (size 9 to 14) (size 15 to 20)
#    0.000    2.500    2.500    2.250    0.000    1.500 
#    0.000    5.000    0.000    4.500    0.000    3.500 
#    0.000    0.000    0.000    0.000    0.000    0.000 
#
# Total GULP energy -396550.971913 kJ/mol
# GULP energy per Si atom -12392.217872 kJ/mol
# Density = 2.050040 g / cm^3
# Si number density = 20.547162 Si / 1000 Ang^3
#
#
#
# Elastic Constant Matrix: (Units=GPa)
#
#
# Indices 1 2 3 4 5 6 
#
# 1 222.1673 24.8506 73.2080 0.0000 0.0000 0.0000
# 2 24.8506 31.1330 0.4047 0.0000 0.0000 0.0000
# 3 73.2080 0.4047 107.8695 0.0000 0.0000 0.0000
# 4 0.0000 0.0000 0.0000 10.4016 0.0000 0.0000
# 5 0.0000 0.0000 0.0000 0.0000 31.3664 0.0000
# 6 0.0000 0.0000 0.0000 0.0000 0.0000 20.7826
#
#
#
# Elastic Compliance Matrix: (Units=1/GPa)
#
#
# Indices 1 2 3 4 5 6 
#
# 1 0.006532 -0.005157 -0.004414 0.000000 0.000000 0.000000
# 2 -0.005157 0.036193 0.003364 0.000000 0.000000 0.000000
# 3 -0.004414 0.003364 0.012254 0.000000 0.000000 0.000000
# 4 0.000000 0.000000 0.000000 0.096139 0.000000 0.000000
# 5 0.000000 0.000000 0.000000 0.000000 0.031881 0.000000
# 6 0.000000 0.000000 0.000000 0.000000 0.000000 0.048117
#
#
# Mechanical properties :
#
#
# Convention : Reuss Voigt Hill
#
# Bulk Modulus (GPa) = 23.49347 62.01072 42.75210
# Shear Modulus (GPa) = 19.40100 30.02389 24.71244
#
# Velocity S-wave (km/s) = 3.07615 3.82674 3.47179
# Velocity P-wave (km/s) = 4.90669 7.05482 6.07643
#
# Compressibility (1/GPa) = 0.04256501
#
# Stress axis : x y z
#
# Youngs Moduli (GPa) = 153.08219 27.62983 81.60917
#
# Poissons Ratio (x) = 0.14248 0.36023
# Poissons Ratio (y) = 0.78942 -0.27454
# Poissons Ratio (z) = 0.67571 -0.09295
#
# Static dielectric constant tensor:
#      x y z
#    x 4.319420 0.000000 0.000000 
#    y 0.000000 3.158130 0.000000 
#    z 0.000000 0.000000 3.653610 
# 
# 
# High freq. dielectric constant tensor:
#      x y z
#    x 1.824820 0.000000 0.000000 
#    y 0.000000 1.759120 0.000000 
#    z 0.000000 0.000000 1.768990 
# 
# From -- ./inp_files/9328.got.cif
#   From: 2010.03.12/outbox.cif.g09.slc.cpg/sg67_5_cif.got.tgz:9328.got - 2010.04.10 22:41:39.
