data_PCOD8279477
_publ_section_title
;
Structure prediction by ZEFSAII (Michael W. Deem and Ramdas Pophale) SiO2 
 PCOD8279477
Probable space group: C M M A
;
_chemical_formula_sum "Si O2"
_cell_formula_units_Z 96
_cell_length_a 29.796087
_cell_length_b 9.009545
_cell_length_c 25.779927
_cell_angle_alpha 90.000000
_cell_angle_beta 90.000000
_cell_angle_gamma 90.000000
_cell_volume 6920.600435
_symmetry_space_group_name_H-M "C M M A"
_symmetry_group_IT_number 67
_symmetry_cell_setting 'orthorhombic'
loop_
_space_group_symop_operation_xyz
x,y,z
-x,1/2-y,z
x,-y,-z
-x,1/2+y,-z
-x,-y,-z
x,1/2+y,-z
-x,y,z
x,1/2-y,z
1/2+x,1/2+y,z
1/2-x,-y,z
1/2+x,1/2-y,-z
1/2-x,y,-z
1/2-x,1/2-y,-z
1/2+x,y,-z
1/2-x,1/2+y,z
1/2+x,-y,z
loop_
_atom_site_type_symbol
_atom_site_label
_atom_site_fract_x
_atom_site_fract_y
_atom_site_fract_z
Si Si1 0.446495 0.917556 0.949000
Si Si2 0.446824 0.079986 0.641953
Si Si3 0.446476 0.582364 0.153078
Si Si4 0.291500 0.422055 0.444689
Si Si5 0.109253 0.576894 0.444547
Si Si6 0.446577 0.417456 0.254898
O O1 0.500000 0.918401 0.949057
O O2 0.428112 0.750000 0.948786
O O3 0.428017 0.001062 0.898193
O O4 0.427938 0.000000 0.000000
O O5 0.500000 0.066954 0.637650
O O6 0.430924 0.250000 0.641535
O O7 0.426544 0.994376 0.593509
O O8 0.429165 0.005665 0.694914
O O9 0.500000 0.581616 0.153242
O O10 0.428132 0.750000 0.153672
O O11 0.427695 0.497440 0.203517
O O12 0.293570 0.500000 0.500000
O O13 0.280236 0.250000 0.451027
O O14 0.250000 0.500000 0.413009
O O15 0.340786 0.445266 0.419681
O O16 0.104614 0.500000 0.500000
O O17 0.098432 0.750000 0.451724
O O18 0.500000 0.417012 0.253491
O O19 0.427842 0.250000 0.256842
#
# Coordination Sequence:
#
# PCOD8279477 Si02
#       6
#    16  16  16  16  16  16
#     4   9  15  21  28  39  56  77 100 127 163 207
#     4  10  20  32  44  57  73  95 123 154 187 221
#     4   9  15  22  32  45  60  78 102 133 168 207
#     4   9  16  26  42  62  81  99 118 140 169 207
#     4  10  20  32  45  61  79  99 122 147 178 218
#     4   9  16  26  39  52  65  83 109 142 178 213
#
# _framework density 13.871627999999999
#
# number of rings (size 3 to 8) (size 9 to 14) (size 15 to 20)
#    0.000    2.667    0.000    3.500    0.000    9.333 
#    0.000    0.000    0.000    0.000    0.000    0.000 
#    0.000    0.000    0.000    0.000    0.000    0.000 
#
# Total GULP energy -594944.539481 kJ/mol
# GULP energy per Si atom -12394.677906 kJ/mol
# Density = 1.384006 g / cm^3
# Si number density = 13.871628 Si / 1000 Ang^3
#
#
#
# Elastic Constant Matrix: (Units=GPa)
#
#
# Indices 1 2 3 4 5 6 
#
# 1 17.1609 21.9151 19.4840 0.0000 0.0000 0.0000
# 2 21.9151 140.8393 63.0854 0.0000 0.0000 0.0000
# 3 19.4840 63.0854 108.5445 0.0000 0.0000 0.0000
# 4 0.0000 0.0000 0.0000 28.5664 0.0000 0.0000
# 5 0.0000 0.0000 0.0000 0.0000 0.0381 0.0000
# 6 0.0000 0.0000 0.0000 0.0000 0.0000 13.6381
#
#
#
# Elastic Compliance Matrix: (Units=1/GPa)
#
#
# Indices 1 2 3 4 5 6 
#
# 1 0.079449 -0.008077 -0.009567 0.000000 0.000000 0.000000
# 2 -0.008077 0.010420 -0.004606 0.000000 0.000000 0.000000
# 3 -0.009567 -0.004606 0.013607 0.000000 0.000000 0.000000
# 4 0.000000 0.000000 0.000000 0.035006 0.000000 0.000000
# 5 0.000000 0.000000 0.000000 0.000000 26.273531 0.000000
# 6 0.000000 0.000000 0.000000 0.000000 0.000000 0.073324
#
#
# Mechanical properties :
#
#
# Convention : Reuss Voigt Hill
#
# Bulk Modulus (GPa) = 16.95618 52.83486 34.89552
# Shear Modulus (GPa) = 0.18833 19.25254 9.72043
#
# Velocity S-wave (km/s) = 0.36886 3.72950 2.65003
# Velocity P-wave (km/s) = 3.52585 7.53105 5.87998
#
# Compressibility (1/GPa) = 0.05897554
#
# Stress axis : x y z
#
# Youngs Moduli (GPa) = 12.58672 95.96493 73.49004
#
# Poissons Ratio (x) = 0.77514 0.70306
# Poissons Ratio (y) = 0.10167 0.33852
# Poissons Ratio (z) = 0.12041 0.44205
#
# Static dielectric constant tensor:
#      x y z
#    x 2.592990 0.000000 0.000000 
#    y 0.000000 3.012580 0.000000 
#    z 0.000000 0.000000 2.738610 
# 
# 
# High freq. dielectric constant tensor:
#      x y z
#    x 1.458440 0.000000 0.000000 
#    y 0.000000 1.556310 0.000000 
#    z 0.000000 0.000000 1.519260 
# 
# From -- ./inp_files/44923.got.cif
#   From: 2010.03.12/outbox.cif.g09.slc.cpg/sg67_23_cif.got.tgz:44923.got - 2010.04.10 22:41:39.
