data_PCOD8279419
_publ_section_title
;
Structure prediction by ZEFSAII (Michael W. Deem and Ramdas Pophale) SiO2 
 PCOD8279419
Probable space group: C M M A
;
_chemical_formula_sum "Si O2"
_cell_formula_units_Z 80
_cell_length_a 23.704225
_cell_length_b 8.933738
_cell_length_c 20.319542
_cell_angle_alpha 90.000000
_cell_angle_beta 90.000000
_cell_angle_gamma 90.000000
_cell_volume 4303.015271
_symmetry_space_group_name_H-M "C M M A"
_symmetry_group_IT_number 67
_symmetry_cell_setting 'orthorhombic'
loop_
_space_group_symop_operation_xyz
x,y,z
-x,1/2-y,z
x,-y,-z
-x,1/2+y,-z
-x,-y,-z
x,1/2+y,-z
-x,y,z
x,1/2-y,z
1/2+x,1/2+y,z
1/2-x,-y,z
1/2+x,1/2-y,-z
1/2-x,y,-z
1/2-x,1/2-y,-z
1/2+x,y,-z
1/2-x,1/2+y,z
1/2+x,-y,z
loop_
_atom_site_type_symbol
_atom_site_label
_atom_site_fract_x
_atom_site_fract_y
_atom_site_fract_z
Si Si1 0.382337 0.427026 0.932277
Si Si2 0.878273 0.078082 0.694527
Si Si3 0.808920 0.073598 0.567690
Si Si4 0.189729 0.073870 0.191970
Si Si5 0.500000 0.579809 0.738485
Si Si6 0.000000 0.572939 0.876672
O O1 0.383058 0.250000 0.940309
O O2 0.338635 0.478034 0.876243
O O3 0.444525 0.488740 0.913582
O O4 0.361930 0.500000 0.000000
O O5 0.864108 0.250000 0.712082
O O6 0.855359 0.036826 0.622591
O O7 0.945246 0.047643 0.693842
O O8 0.849993 0.973220 0.748396
O O9 0.800030 0.250000 0.557712
O O10 0.830393 0.000000 0.500000
O O11 0.750000 0.000000 0.589907
O O12 0.197404 0.250000 0.194330
O O13 0.250000 0.000000 0.199603
O O14 0.500000 0.750000 0.764268
O O15 0.500000 0.474768 0.801395
O O16 0.000000 0.750000 0.876784
#
# Coordination Sequence:
#
# PCOD8279419 Si02
#       6
#    16  16  16  16   8   8
#     4  10  22  37  56  80 109 143 181 228 278 332
#     4  10  21  37  58  85 114 146 185 228 274 327
#     4  10  20  35  56  83 114 147 185 226 270 321
#     4  11  23  38  57  81 110 145 185 231 279 332
#     4  10  20  35  58  85 112 145 182 225 276 326
#     4  10  19  37  57  81 111 139 181 231 277 328
#
# _framework density 18.591614
#
# number of rings (size 3 to 8) (size 9 to 14) (size 15 to 20)
#    0.000    1.800    2.000    2.700    0.000    6.000 
#    0.000    2.500    0.000    0.000    0.000    0.000 
#    0.000    0.000    0.000    0.000    0.000    0.000 
#
# Total GULP energy -496128.900227 kJ/mol
# GULP energy per Si atom -12403.222506 kJ/mol
# Density = 1.854930 g / cm^3
# Si number density = 18.591614 Si / 1000 Ang^3
#
#
#
# Elastic Constant Matrix: (Units=GPa)
#
#
# Indices 1 2 3 4 5 6 
#
# 1 132.0574 36.3163 66.7382 0.0000 0.0000 0.0000
# 2 36.3163 54.7298 42.4948 0.0000 0.0000 0.0000
# 3 66.7382 42.4948 135.6470 0.0000 0.0000 0.0000
# 4 0.0000 0.0000 0.0000 33.2921 0.0000 0.0000
# 5 0.0000 0.0000 0.0000 0.0000 36.0718 0.0000
# 6 0.0000 0.0000 0.0000 0.0000 0.0000 9.3793
#
#
#
# Elastic Compliance Matrix: (Units=1/GPa)
#
#
# Indices 1 2 3 4 5 6 
#
# 1 0.010696 -0.003980 -0.004016 0.000000 0.000000 0.000000
# 2 -0.003980 0.025625 -0.006070 0.000000 0.000000 0.000000
# 3 -0.004016 -0.006070 0.011249 0.000000 0.000000 0.000000
# 4 0.000000 0.000000 0.000000 0.030037 0.000000 0.000000
# 5 0.000000 0.000000 0.000000 0.000000 0.027722 0.000000
# 6 0.000000 0.000000 0.000000 0.000000 0.000000 0.106618
#
#
# Mechanical properties :
#
#
# Convention : Reuss Voigt Hill
#
# Bulk Modulus (GPa) = 51.43912 68.17032 59.80472
# Shear Modulus (GPa) = 20.27909 27.54096 23.91003
#
# Velocity S-wave (km/s) = 3.30626 3.85303 3.59007
# Velocity P-wave (km/s) = 6.50408 7.51939 7.03009
#
# Compressibility (1/GPa) = 0.01944046
#
# Stress axis : x y z
#
# Youngs Moduli (GPa) = 93.48944 39.02423 88.89339
#
# Poissons Ratio (x) = 0.15530 0.35699
# Poissons Ratio (y) = 0.37204 0.53956
# Poissons Ratio (z) = 0.37545 0.23687
#
# Static dielectric constant tensor:
#      x y z
#    x 3.621380 0.000000 0.000000 
#    y 0.000000 3.405790 0.000000 
#    z 0.000000 0.000000 3.442630 
# 
# 
# High freq. dielectric constant tensor:
#      x y z
#    x 1.726620 0.000000 0.000000 
#    y 0.000000 1.722310 0.000000 
#    z 0.000000 0.000000 1.722380 
# 
# From -- ./inp_files/39532.got.cif
#   From: 2010.03.12/outbox.cif.g09.slc.cpg/sg67_20_cif.got.tgz:39532.got - 2010.04.10 22:41:39.
