data_PCOD8279818
_publ_section_title
;
Structure prediction by ZEFSAII (Michael W. Deem and Ramdas Pophale) SiO2 
 PCOD8279818
Probable space group: C M M A
;
_chemical_formula_sum "Si O2"
_cell_formula_units_Z 88
_cell_length_a 15.701925
_cell_length_b 9.265412
_cell_length_c 30.063712
_cell_angle_alpha 90.000000
_cell_angle_beta 90.000000
_cell_angle_gamma 90.000000
_cell_volume 4373.813257
_symmetry_space_group_name_H-M "C M M A"
_symmetry_group_IT_number 67
_symmetry_cell_setting 'orthorhombic'
loop_
_space_group_symop_operation_xyz
x,y,z
-x,1/2-y,z
x,-y,-z
-x,1/2+y,-z
-x,-y,-z
x,1/2+y,-z
-x,y,z
x,1/2-y,z
1/2+x,1/2+y,z
1/2-x,-y,z
1/2+x,1/2-y,-z
1/2-x,y,-z
1/2-x,1/2-y,-z
1/2+x,y,-z
1/2-x,1/2+y,z
1/2+x,-y,z
loop_
_atom_site_type_symbol
_atom_site_label
_atom_site_fract_x
_atom_site_fract_y
_atom_site_fract_z
Si Si1 0.401244 0.591895 0.362749
Si Si2 0.500000 0.079280 0.953513
Si Si3 0.101738 0.411119 0.718457
Si Si4 0.840273 0.577073 0.542074
Si Si5 0.665732 0.080660 0.898655
Si Si6 0.598533 0.916932 0.196408
O O1 0.500000 0.604390 0.352203
O O2 0.358393 0.750000 0.357779
O O3 0.360419 0.485320 0.326185
O O4 0.389912 0.536040 0.413010
O O5 0.500000 0.250000 0.960788
O O6 0.584040 0.030106 0.926840
O O7 0.500000 0.000000 0.000000
O O8 0.138191 0.250000 0.719941
O O9 0.135216 0.493413 0.762112
O O10 0.000000 0.411942 0.717623
O O11 0.887551 0.500000 0.500000
O O12 0.833398 0.750000 0.534877
O O13 0.750000 0.500000 0.546230
O O14 0.680247 0.250000 0.904264
O O15 0.650615 0.038807 0.847304
O O16 0.750000 0.000000 0.916249
O O17 0.500000 0.952678 0.187194
O O18 0.610082 0.750000 0.208224
#
# Coordination Sequence:
#
# PCOD8279818 Si02
#       6
#    16   8  16  16  16  16
#     4   9  18  33  51  72  99 132 170 209 254 313
#     4  10  22  42  64  88 120 158 200 242 291 350
#     4   9  17  28  46  76 108 136 170 216 265 313
#     4  10  20  34  52  71  93 124 163 206 255 312
#     4  10  21  38  60  87 119 154 196 243 290 343
#     4   9  16  31  55  77 103 145 187 222 267 327
#
# _framework density 20.119744000000001
#
# number of rings (size 3 to 8) (size 9 to 14) (size 15 to 20)
#    0.000    2.545    0.909    1.636    0.000    5.818 
#    0.000    2.727    0.000    0.000    0.000    0.000 
#    0.000    0.000    0.000    0.000    0.000    0.000 
#
# Total GULP energy -545442.212243 kJ/mol
# GULP energy per Si atom -12396.413915 kJ/mol
# Density = 2.007395 g / cm^3
# Si number density = 20.119744 Si / 1000 Ang^3
#
#
#
# Elastic Constant Matrix: (Units=GPa)
#
#
# Indices 1 2 3 4 5 6 
#
# 1 69.2771 39.0754 46.5315 0.0000 0.0000 0.0000
# 2 39.0754 104.5182 80.5333 0.0000 0.0000 0.0000
# 3 46.5315 80.5333 165.2854 0.0000 0.0000 0.0000
# 4 0.0000 0.0000 0.0000 39.3167 0.0000 0.0000
# 5 0.0000 0.0000 0.0000 0.0000 8.9407 0.0000
# 6 0.0000 0.0000 0.0000 0.0000 0.0000 23.1323
#
#
#
# Elastic Compliance Matrix: (Units=1/GPa)
#
#
# Indices 1 2 3 4 5 6 
#
# 1 0.019210 -0.004827 -0.003056 0.000000 0.000000 0.000000
# 2 -0.004827 0.016532 -0.006696 0.000000 0.000000 0.000000
# 3 -0.003056 -0.006696 0.010173 0.000000 0.000000 0.000000
# 4 0.000000 0.000000 0.000000 0.025434 0.000000 0.000000
# 5 0.000000 0.000000 0.000000 0.000000 0.111848 0.000000
# 6 0.000000 0.000000 0.000000 0.000000 0.000000 0.043230
#
#
# Mechanical properties :
#
#
# Convention : Reuss Voigt Hill
#
# Bulk Modulus (GPa) = 59.67819 74.59567 67.13693
# Shear Modulus (GPa) = 19.14454 25.80731 22.47592
#
# Velocity S-wave (km/s) = 3.08803 3.58535 3.34594
# Velocity P-wave (km/s) = 6.51464 7.36858 6.95473
#
# Compressibility (1/GPa) = 0.01675654
#
# Stress axis : x y z
#
# Youngs Moduli (GPa) = 52.05549 60.48959 98.29921
#
# Poissons Ratio (x) = 0.29200 0.30041
# Poissons Ratio (y) = 0.25128 0.65821
# Poissons Ratio (z) = 0.15909 0.40503
#
# Static dielectric constant tensor:
#      x y z
#    x 3.320440 0.000000 0.000000 
#    y 0.000000 3.729530 0.000000 
#    z 0.000000 0.000000 3.942450 
# 
# 
# High freq. dielectric constant tensor:
#      x y z
#    x 1.756230 0.000000 0.000000 
#    y 0.000000 1.781790 0.000000 
#    z 0.000000 0.000000 1.796750 
# 
# From -- ./inp_files/45765.got.cif
#   From: 2010.03.12/outbox.cif.g09.slc.cpg/sg67_23_cif.got.tgz:45765.got - 2010.04.10 22:41:39.
