data_PCOD8279811
_publ_section_title
;
Structure prediction by ZEFSAII (Michael W. Deem and Ramdas Pophale) SiO2 
 PCOD8279811
Probable space group: C M M A
;
_chemical_formula_sum "Si O2"
_cell_formula_units_Z 112
_cell_length_a 19.885793
_cell_length_b 28.026120
_cell_length_c 11.040979
_cell_angle_alpha 90.000000
_cell_angle_beta 90.000000
_cell_angle_gamma 90.000000
_cell_volume 6153.376313
_symmetry_space_group_name_H-M "C M M A"
_symmetry_group_IT_number 67
_symmetry_cell_setting 'orthorhombic'
loop_
_space_group_symop_operation_xyz
x,y,z
-x,1/2-y,z
x,-y,-z
-x,1/2+y,-z
-x,-y,-z
x,1/2+y,-z
-x,y,z
x,1/2-y,z
1/2+x,1/2+y,z
1/2-x,-y,z
1/2+x,1/2-y,-z
1/2-x,y,-z
1/2-x,1/2-y,-z
1/2+x,y,-z
1/2-x,1/2+y,z
1/2+x,-y,z
loop_
_atom_site_type_symbol
_atom_site_label
_atom_site_fract_x
_atom_site_fract_y
_atom_site_fract_z
Si Si1 0.676775 0.430773 0.040610
Si Si2 0.216874 0.109504 0.714727
Si Si3 0.076382 0.009107 0.810165
Si Si4 0.319337 0.197162 0.431210
Si Si5 0.379067 0.549038 0.569978
Si Si6 0.864897 0.406622 0.212548
Si Si7 0.424966 0.138370 0.576832
O O1 0.686544 0.395588 0.151967
O O2 0.624970 0.472103 0.081809
O O3 0.750000 0.452274 0.000000
O O4 0.644718 0.399256 0.931611
O O5 0.192458 0.162543 0.682057
O O6 0.191160 0.071132 0.616536
O O7 0.296010 0.100476 0.713365
O O8 0.075741 0.041939 0.690531
O O9 0.000000 0.005162 0.859720
O O10 0.106226 0.959116 0.766935
O O11 0.340373 0.250000 0.385507
O O12 0.250000 0.200001 0.500000
O O13 0.376368 0.177850 0.521090
O O14 0.365340 0.500000 0.500000
O O15 0.416350 0.586315 0.483385
O O16 0.913659 0.368259 0.277453
O O17 0.500000 0.157070 0.555498
#
# Coordination Sequence:
#
# PCOD8279811 Si02
#       7
#    16  16  16  16  16  16  16
#     4   9  21  37  54  72 107 153 198 242 270 312
#     4   9  20  37  54  79 105 144 187 231 279 327
#     4  11  22  34  49  74 109 157 201 231 269 322
#     4  10  20  38  63  86 109 134 174 230 282 345
#     4  10  20  34  51  75 112 148 186 230 273 326
#     4  11  20  33  50  75 111 146 190 232 273 319
#     4  11  22  35  53  82 115 146 179 225 285 342
#
# _framework density 18.20139
#
# number of rings (size 3 to 8) (size 9 to 14) (size 15 to 20)
#    0.000    1.857    2.857    1.286    0.000    9.429 
#    2.571    0.000    0.000    4.714    0.000    0.000 
#    0.000    0.000    0.000    0.000    0.000    0.000 
#
# Total GULP energy -694069.379099 kJ/mol
# GULP energy per Si atom -12394.096055 kJ/mol
# Density = 1.815996 g / cm^3
# Si number density = 18.201390 Si / 1000 Ang^3
#
#
#
# Elastic Constant Matrix: (Units=GPa)
#
#
# Indices 1 2 3 4 5 6 
#
# 1 124.6453 55.8496 47.8604 0.0000 0.0000 0.0000
# 2 55.8496 110.0202 36.0602 0.0000 0.0000 0.0000
# 3 47.8604 36.0602 93.6658 0.0000 0.0000 0.0000
# 4 0.0000 0.0000 0.0000 17.9449 0.0000 0.0000
# 5 0.0000 0.0000 0.0000 0.0000 20.1300 0.0000
# 6 0.0000 0.0000 0.0000 0.0000 0.0000 15.5566
#
#
#
# Elastic Compliance Matrix: (Units=1/GPa)
#
#
# Indices 1 2 3 4 5 6 
#
# 1 0.011679 -0.004546 -0.004217 0.000000 0.000000 0.000000
# 2 -0.004546 0.012172 -0.002363 0.000000 0.000000 0.000000
# 3 -0.004217 -0.002363 0.013741 0.000000 0.000000 0.000000
# 4 0.000000 0.000000 0.000000 0.055726 0.000000 0.000000
# 5 0.000000 0.000000 0.000000 0.000000 0.049677 0.000000
# 6 0.000000 0.000000 0.000000 0.000000 0.000000 0.064282
#
#
# Mechanical properties :
#
#
# Convention : Reuss Voigt Hill
#
# Bulk Modulus (GPa) = 65.19600 67.54130 66.36865
# Shear Modulus (GPa) = 21.30899 23.29702 22.30300
#
# Velocity S-wave (km/s) = 3.42531 3.58153 3.50429
# Velocity P-wave (km/s) = 7.17918 7.36828 7.27434
#
# Compressibility (1/GPa) = 0.01533836
#
# Stress axis : x y z
#
# Youngs Moduli (GPa) = 85.62182 82.15848 72.77547
#
# Poissons Ratio (x) = 0.37353 0.30692
# Poissons Ratio (y) = 0.38928 0.17196
# Poissons Ratio (z) = 0.36110 0.19413
#
# Static dielectric constant tensor:
#      x y z
#    x 3.436070 0.000000 0.000000 
#    y 0.000000 3.272100 0.000000 
#    z 0.000000 0.000000 2.919680 
# 
# 
# High freq. dielectric constant tensor:
#      x y z
#    x 1.710750 0.000000 0.000000 
#    y 0.000000 1.664870 0.000000 
#    z 0.000000 0.000000 1.716460 
# 
# From -- ./inp_files/21263.got.cif
#   From: 2010.03.12/outbox.cif.g09.slc.cpg/sg67_11_cif.got.tgz:21263.got - 2010.04.10 22:41:39.
