data_PCOD8279189
_publ_section_title
;
Structure prediction by ZEFSAII (Michael W. Deem and Ramdas Pophale) SiO2 
 PCOD8279189
Probable space group: C M M A
;
_chemical_formula_sum "Si O2"
_cell_formula_units_Z 96
_cell_length_a 22.294365
_cell_length_b 22.604235
_cell_length_c 9.847664
_cell_angle_alpha 90.000000
_cell_angle_beta 90.000000
_cell_angle_gamma 90.000000
_cell_volume 4962.701376
_symmetry_space_group_name_H-M "C M M A"
_symmetry_group_IT_number 67
_symmetry_cell_setting 'orthorhombic'
loop_
_space_group_symop_operation_xyz
x,y,z
-x,1/2-y,z
x,-y,-z
-x,1/2+y,-z
-x,-y,-z
x,1/2+y,-z
-x,y,z
x,1/2-y,z
1/2+x,1/2+y,z
1/2-x,-y,z
1/2+x,1/2-y,-z
1/2-x,y,-z
1/2-x,1/2-y,-z
1/2+x,y,-z
1/2-x,1/2+y,z
1/2+x,-y,z
loop_
_atom_site_type_symbol
_atom_site_label
_atom_site_fract_x
_atom_site_fract_y
_atom_site_fract_z
Si Si1 0.566943 0.601447 0.303737
Si Si2 0.255231 0.184760 0.840277
Si Si3 0.929272 0.183073 0.540033
Si Si4 0.571137 0.513839 0.843439
Si Si5 0.115625 0.318792 0.097950
Si Si6 0.632930 0.864361 0.799662
O O1 0.500000 0.586844 0.348796
O O2 0.597679 0.635441 0.431204
O O3 0.595206 0.539237 0.253898
O O4 0.563972 0.644937 0.173502
O O5 0.245388 0.250000 0.773925
O O6 0.323327 0.162002 0.820417
O O7 0.205579 0.139170 0.781897
O O8 0.250000 0.192474 0.000000
O O9 0.915638 0.250000 0.489501
O O10 0.897620 0.173596 0.682917
O O11 0.000000 0.174001 0.558550
O O12 0.500000 0.525802 0.825858
O O13 0.610203 0.568818 0.793577
O O14 0.586060 0.500000 0.000000
O O15 0.103185 0.250000 0.113783
O O16 0.114766 0.334426 0.940427
#
# Coordination Sequence:
#
# PCOD8279189 Si02
#       6
#    16  16  16  16  16  16
#     4  10  21  37  54  74 111 150 179 224 278 328
#     4   8  16  31  51  78 109 137 173 227 278 321
#     4  10  21  35  52  81 115 143 180 230 283 340
#     4  10  20  35  54  79 109 141 186 232 266 317
#     4  10  19  33  56  81 106 141 186 229 274 330
#     4  11  19  33  56  78 107 143 180 228 277 323
#
# _framework density 19.344303
#
# number of rings (size 3 to 8) (size 9 to 14) (size 15 to 20)
#    0.000    2.167    1.667    3.500    0.000    2.333 
#    0.000    4.167    0.000    3.000    0.000    2.333 
#    0.000    0.000    0.000    0.000    0.000    0.000 
#
# Total GULP energy -594766.988354 kJ/mol
# GULP energy per Si atom -12390.978924 kJ/mol
# Density = 1.930027 g / cm^3
# Si number density = 19.344303 Si / 1000 Ang^3
#
#
#
# Elastic Constant Matrix: (Units=GPa)
#
#
# Indices 1 2 3 4 5 6 
#
# 1 40.3799 45.6544 28.8453 0.0000 0.0000 0.0000
# 2 45.6544 137.9705 40.5987 0.0000 0.0000 0.0000
# 3 28.8453 40.5987 80.9270 0.0000 0.0000 0.0000
# 4 0.0000 0.0000 0.0000 33.6580 0.0000 0.0000
# 5 0.0000 0.0000 0.0000 0.0000 17.9607 0.0000
# 6 0.0000 0.0000 0.0000 0.0000 0.0000 0.3495
#
#
#
# Elastic Compliance Matrix: (Units=1/GPa)
#
#
# Indices 1 2 3 4 5 6 
#
# 1 0.045809 -0.012147 -0.010234 0.000000 0.000000 0.000000
# 2 -0.012147 0.011724 -0.001552 0.000000 0.000000 0.000000
# 3 -0.010234 -0.001552 0.016783 0.000000 0.000000 0.000000
# 4 0.000000 0.000000 0.000000 0.029711 0.000000 0.000000
# 5 0.000000 0.000000 0.000000 0.000000 0.055677 0.000000
# 6 0.000000 0.000000 0.000000 0.000000 0.000000 2.861266
#
#
# Mechanical properties :
#
#
# Convention : Reuss Voigt Hill
#
# Bulk Modulus (GPa) = 37.80706 54.38604 46.09655
# Shear Modulus (GPa) = 1.62461 20.00557 10.81509
#
# Velocity S-wave (km/s) = 0.91742 3.21936 2.36706
# Velocity P-wave (km/s) = 4.55071 6.48034 5.59928
#
# Compressibility (1/GPa) = 0.02645008
#
# Stress axis : x y z
#
# Youngs Moduli (GPa) = 21.82985 85.29562 59.58288
#
# Poissons Ratio (x) = 1.03605 0.60979
# Poissons Ratio (y) = 0.26516 0.09248
# Poissons Ratio (z) = 0.22341 0.13238
#
# Static dielectric constant tensor:
#      x y z
#    x 4.244340 0.000000 0.000000 
#    y 0.000000 3.621840 0.000000 
#    z 0.000000 0.000000 3.422590 
# 
# 
# High freq. dielectric constant tensor:
#      x y z
#    x 1.731610 0.000000 0.000000 
#    y 0.000000 1.754460 0.000000 
#    z 0.000000 0.000000 1.739340 
# 
# From -- ./inp_files/13900.got.cif
#   From: 2010.03.12/outbox.cif.g09.slc.cpg/sg67_7_cif.got.tgz:13900.got - 2010.04.10 22:41:39.
