data_PCOD8279876
_publ_section_title
;
Structure prediction by ZEFSAII (Michael W. Deem and Ramdas Pophale) SiO2 
 PCOD8279876
Probable space group: C M M A
;
_chemical_formula_sum "Si O2"
_cell_formula_units_Z 120
_cell_length_a 8.674470
_cell_length_b 27.189872
_cell_length_c 25.612856
_cell_angle_alpha 90.000000
_cell_angle_beta 90.000000
_cell_angle_gamma 90.000000
_cell_volume 6040.990049
_symmetry_space_group_name_H-M "C M M A"
_symmetry_group_IT_number 67
_symmetry_cell_setting 'orthorhombic'
loop_
_space_group_symop_operation_xyz
x,y,z
-x,1/2-y,z
x,-y,-z
-x,1/2+y,-z
-x,-y,-z
x,1/2+y,-z
-x,y,z
x,1/2-y,z
1/2+x,1/2+y,z
1/2-x,-y,z
1/2+x,1/2-y,-z
1/2-x,y,-z
1/2-x,1/2-y,-z
1/2+x,y,-z
1/2-x,1/2+y,z
1/2+x,-y,z
loop_
_atom_site_type_symbol
_atom_site_label
_atom_site_fract_x
_atom_site_fract_y
_atom_site_fract_z
Si Si1 0.174639 0.805155 0.825805
Si Si2 0.679435 0.653027 0.611597
Si Si3 0.318312 0.948434 0.245136
Si Si4 0.319322 0.553556 0.051380
Si Si5 0.816586 0.750000 0.557442
Si Si6 0.329562 0.695091 0.720249
Si Si7 0.318205 0.447274 0.633958
Si Si8 0.323110 0.896970 0.850373
O O1 0.207224 0.750000 0.844439
O O2 0.199651 0.810693 0.763778
O O3 0.294469 0.838784 0.857517
O O4 0.000000 0.821162 0.837789
O O5 0.500000 0.653716 0.595619
O O6 0.762149 0.698845 0.583683
O O7 0.704842 0.658198 0.673422
O O8 0.750349 0.598570 0.599718
O O9 0.500000 0.947722 0.236010
O O10 0.274236 0.938950 0.305297
O O11 0.237714 0.908422 0.208036
O O12 0.250000 0.000000 0.226044
O O13 0.500000 0.551408 0.045129
O O14 0.250000 0.500000 0.052927
O O15 0.277781 0.577863 0.105766
O O16 0.250000 0.581341 0.000000
O O17 0.750000 0.750000 0.500000
O O18 0.000000 0.750000 0.557255
O O19 0.500000 0.684584 0.744445
O O20 0.325543 0.750000 0.696429
O O21 0.500000 0.448984 0.625452
O O22 0.250000 0.500000 0.614966
O O23 0.500000 0.911613 0.857229
#
# Coordination Sequence:
#
# PCOD8279876 Si02
#       8
#    16  16  16  16   8  16  16  16
#     4  10  21  35  51  75 108 145 185 230 275 324
#     4  11  21  37  60  87 119 155 195 242 293 348
#     4  10  20  34  52  78 114 152 192 234 278 329
#     4  11  22  39  60  83 109 135 170 217 271 329
#     4  12  26  44  66  92 122 154 194 244 299 352
#     4   9  17  31  51  78 112 150 189 228 276 336
#     4  10  21  36  55  83 118 160 203 243 287 341
#     4  12  23  35  53  77 106 144 186 226 276 332
#
# _framework density 19.864293
#
# number of rings (size 3 to 8) (size 9 to 14) (size 15 to 20)
#    0.000    1.467    0.667    6.200    0.000    5.600 
#    0.000    0.000    0.000    0.800    0.000    2.800 
#    0.000    0.000    0.000    0.000    0.000    0.000 
#
# Total GULP energy -743784.432466 kJ/mol
# GULP energy per Si atom -12396.407208 kJ/mol
# Density = 1.981908 g / cm^3
# Si number density = 19.864293 Si / 1000 Ang^3
#
#
#
# Elastic Constant Matrix: (Units=GPa)
#
#
# Indices 1 2 3 4 5 6 
#
# 1 133.2490 58.5554 29.7874 0.0000 0.0000 0.0000
# 2 58.5554 133.2341 32.9515 0.0000 0.0000 0.0000
# 3 29.7874 32.9515 47.4021 0.0000 0.0000 0.0000
# 4 0.0000 0.0000 0.0000 23.0864 0.0000 0.0000
# 5 0.0000 0.0000 0.0000 0.0000 32.9083 0.0000
# 6 0.0000 0.0000 0.0000 0.0000 0.0000 34.4251
#
#
#
# Elastic Compliance Matrix: (Units=1/GPa)
#
#
# Indices 1 2 3 4 5 6 
#
# 1 0.009848 -0.003378 -0.003840 0.000000 0.000000 0.000000
# 2 -0.003378 0.010223 -0.004983 0.000000 0.000000 0.000000
# 3 -0.003840 -0.004983 0.026973 0.000000 0.000000 0.000000
# 4 0.000000 0.000000 0.000000 0.043316 0.000000 0.000000
# 5 0.000000 0.000000 0.000000 0.000000 0.030388 0.000000
# 6 0.000000 0.000000 0.000000 0.000000 0.000000 0.029049
#
#
# Mechanical properties :
#
#
# Convention : Reuss Voigt Hill
#
# Bulk Modulus (GPa) = 44.16843 61.83043 52.99943
# Shear Modulus (GPa) = 27.51095 30.92333 29.21714
#
# Velocity S-wave (km/s) = 3.72552 3.94982 3.83931
# Velocity P-wave (km/s) = 6.38666 7.21079 6.81120
#
# Compressibility (1/GPa) = 0.02264061
#
# Stress axis : x y z
#
# Youngs Moduli (GPa) = 101.54635 97.82012 37.07362
#
# Poissons Ratio (x) = 0.33047 0.14236
# Poissons Ratio (y) = 0.34306 0.18476
# Poissons Ratio (z) = 0.38992 0.48748
#
# Static dielectric constant tensor:
#      x y z
#    x 3.676800 0.000000 0.000000 
#    y 0.000000 3.905950 0.000000 
#    z 0.000000 0.000000 3.669710 
# 
# 
# High freq. dielectric constant tensor:
#      x y z
#    x 1.787990 0.000000 0.000000 
#    y 0.000000 1.786780 0.000000 
#    z 0.000000 0.000000 1.734910 
# 
# From -- ./inp_files/43901.got.cif
#   From: 2010.03.12/outbox.cif.g09.slc.cpg/sg67_22_cif.got.tgz:43901.got - 2010.04.10 22:41:39.
