data_PCOD8279930
_publ_section_title
;
Structure prediction by ZEFSAII (Michael W. Deem and Ramdas Pophale) SiO2 
 PCOD8279930
Probable space group: C M M A
;
_chemical_formula_sum "Si O2"
_cell_formula_units_Z 56
_cell_length_a 15.793050
_cell_length_b 8.656092
_cell_length_c 19.368825
_cell_angle_alpha 90.000000
_cell_angle_beta 90.000000
_cell_angle_gamma 90.000000
_cell_volume 2647.836406
_symmetry_space_group_name_H-M "C M M A"
_symmetry_group_IT_number 67
_symmetry_cell_setting 'orthorhombic'
loop_
_space_group_symop_operation_xyz
x,y,z
-x,1/2-y,z
x,-y,-z
-x,1/2+y,-z
-x,-y,-z
x,1/2+y,-z
-x,y,z
x,1/2-y,z
1/2+x,1/2+y,z
1/2-x,-y,z
1/2+x,1/2-y,-z
1/2-x,y,-z
1/2-x,1/2-y,-z
1/2+x,y,-z
1/2-x,1/2+y,z
1/2+x,-y,z
loop_
_atom_site_type_symbol
_atom_site_label
_atom_site_fract_x
_atom_site_fract_y
_atom_site_fract_z
Si Si1 0.661416 0.568948 0.652895
Si Si2 0.500000 0.066814 0.575993
Si Si3 0.903312 0.926478 0.783715
Si Si4 0.842557 0.568387 0.930818
O O1 0.659276 0.750000 0.638562
O O2 0.750000 0.500000 0.625243
O O3 0.584413 0.488473 0.613921
O O4 0.653213 0.534675 0.734766
O O5 0.500000 0.250000 0.574058
O O6 0.500000 0.000000 0.500000
O O7 0.871880 0.750000 0.775022
O O8 0.895598 0.979335 0.863241
O O9 0.000000 0.942794 0.760294
O O10 0.837114 0.750000 0.939557
O O11 0.750000 0.500000 0.921991
O O12 0.886457 0.500000 0.000000
#
# Coordination Sequence:
#
# PCOD8279930 Si02
#       4
#    16   8  16  16
#     4  12  25  43  69 102 135 177 224 269 325 388
#     4  12  26  48  74 104 141 176 215 268 320 384
#     4  10  21  38  60  87 123 165 211 268 329 386
#     4  10  20  34  53  78 111 156 207 264 325 387
#
# _framework density 21.149343999999999
#
# number of rings (size 3 to 8) (size 9 to 14) (size 15 to 20)
#    0.000    1.143    1.429    6.429    0.000    5.714 
#    0.000    2.857    0.000    0.000    0.000    0.000 
#    0.000    0.000    0.000    0.000    0.000    0.000 
#
# Total GULP energy -347267.019754 kJ/mol
# GULP energy per Si atom -12402.393563 kJ/mol
# Density = 2.110121 g / cm^3
# Si number density = 21.149344 Si / 1000 Ang^3
#
#
#
# Elastic Constant Matrix: (Units=GPa)
#
#
# Indices 1 2 3 4 5 6 
#
# 1 126.6968 59.4087 52.7230 0.0000 0.0000 0.0000
# 2 59.4087 157.1425 61.7786 0.0000 0.0000 0.0000
# 3 52.7230 61.7786 126.4651 0.0000 0.0000 0.0000
# 4 0.0000 0.0000 0.0000 38.8417 0.0000 0.0000
# 5 0.0000 0.0000 0.0000 0.0000 21.5085 0.0000
# 6 0.0000 0.0000 0.0000 0.0000 0.0000 29.9633
#
#
#
# Elastic Compliance Matrix: (Units=1/GPa)
#
#
# Indices 1 2 3 4 5 6 
#
# 1 0.010439 -0.002767 -0.003000 0.000000 0.000000 0.000000
# 2 -0.002767 0.008610 -0.003052 0.000000 0.000000 0.000000
# 3 -0.003000 -0.003052 0.010649 0.000000 0.000000 0.000000
# 4 0.000000 0.000000 0.000000 0.025746 0.000000 0.000000
# 5 0.000000 0.000000 0.000000 0.000000 0.046493 0.000000
# 6 0.000000 0.000000 0.000000 0.000000 0.000000 0.033374
#
#
# Mechanical properties :
#
#
# Convention : Reuss Voigt Hill
#
# Bulk Modulus (GPa) = 82.92813 84.23613 83.58213
# Shear Modulus (GPa) = 31.85337 33.82231 32.83784
#
# Velocity S-wave (km/s) = 3.88508 4.00335 3.94466
# Velocity P-wave (km/s) = 7.70850 7.82846 7.76871
#
# Compressibility (1/GPa) = 0.01205863
#
# Stress axis : x y z
#
# Youngs Moduli (GPa) = 95.79647 116.14805 93.90383
#
# Poissons Ratio (x) = 0.32137 0.28173
# Poissons Ratio (y) = 0.26506 0.28663
# Poissons Ratio (z) = 0.28741 0.35452
#
# Static dielectric constant tensor:
#      x y z
#    x 3.774820 0.000000 0.000000 
#    y 0.000000 3.867680 0.000000 
#    z 0.000000 0.000000 4.110950 
# 
# 
# High freq. dielectric constant tensor:
#      x y z
#    x 1.828860 0.000000 0.000000 
#    y 0.000000 1.832740 0.000000 
#    z 0.000000 0.000000 1.839400 
# 
# From -- ./inp_files/31631.got.cif
#   From: 2010.03.12/outbox.cif.g09.slc.cpg/sg67_16_cif.got.tgz:31631.got - 2010.04.10 22:41:39.
