data_PCOD8279768
_publ_section_title
;
Structure prediction by ZEFSAII (Michael W. Deem and Ramdas Pophale) SiO2 
 PCOD8279768
Probable space group: C M M A
;
_chemical_formula_sum "Si O2"
_cell_formula_units_Z 104
_cell_length_a 21.412582
_cell_length_b 14.070188
_cell_length_c 17.060484
_cell_angle_alpha 90.000000
_cell_angle_beta 90.000000
_cell_angle_gamma 90.000000
_cell_volume 5139.966486
_symmetry_space_group_name_H-M "C M M A"
_symmetry_group_IT_number 67
_symmetry_cell_setting 'orthorhombic'
loop_
_space_group_symop_operation_xyz
x,y,z
-x,1/2-y,z
x,-y,-z
-x,1/2+y,-z
-x,-y,-z
x,1/2+y,-z
-x,y,z
x,1/2-y,z
1/2+x,1/2+y,z
1/2-x,-y,z
1/2+x,1/2-y,-z
1/2-x,y,-z
1/2-x,1/2-y,-z
1/2+x,y,-z
1/2-x,1/2+y,z
1/2+x,-y,z
loop_
_atom_site_type_symbol
_atom_site_label
_atom_site_fract_x
_atom_site_fract_y
_atom_site_fract_z
Si Si1 0.154200 0.136329 0.702071
Si Si2 0.657605 0.356442 0.844961
Si Si3 0.932283 0.644289 0.161842
Si Si4 0.069742 0.389829 0.009947
Si Si5 0.428698 0.144536 0.700097
Si Si6 0.750000 0.500000 0.226566
Si Si7 0.573200 0.475675 0.411540
O O1 0.168563 0.250000 0.702116
O O2 0.114588 0.096902 0.776772
O O3 0.216626 0.073893 0.713221
O O4 0.116016 0.109735 0.622850
O O5 0.686514 0.250000 0.837866
O O6 0.621363 0.362034 0.927053
O O7 0.607886 0.377211 0.778348
O O8 0.710059 0.436548 0.834442
O O9 0.941554 0.750000 0.193926
O O10 0.000000 0.591151 0.163019
O O11 0.905636 0.648669 0.073732
O O12 0.000000 0.348152 0.029468
O O13 0.064072 0.500000 0.000000
O O14 0.500000 0.132304 0.723662
O O15 0.414663 0.250000 0.667107
O O16 0.408882 0.071299 0.633731
O O17 0.591488 0.500000 0.500000
O O18 0.500000 0.447544 0.403775
#
# Coordination Sequence:
#
# PCOD8279768 Si02
#       7
#    16  16  16  16  16   8  16
#     4  11  23  41  64  88 120 165 209 251 303 362
#     4  11  22  38  61  85 116 161 207 254 305 357
#     4   9  18  34  57  85 116 149 189 242 302 363
#     4  10  20  33  55  89 123 154 194 249 308 364
#     4   9  18  34  59  89 119 152 190 238 303 371
#     4  12  24  42  60  84 118 164 218 268 293 343
#     4  10  21  38  64  97 128 154 186 240 307 375
#
# _framework density 20.233595999999999
#
# number of rings (size 3 to 8) (size 9 to 14) (size 15 to 20)
#    0.000    1.846    1.538    2.769    0.000    3.077 
#    0.000    5.385    0.000    6.462    0.000    0.000 
#    0.000    0.000    0.000    0.000    0.000    0.000 
#
# Total GULP energy -644422.554749 kJ/mol
# GULP energy per Si atom -12392.741437 kJ/mol
# Density = 2.018754 g / cm^3
# Si number density = 20.233596 Si / 1000 Ang^3
#
#
#
# Elastic Constant Matrix: (Units=GPa)
#
#
# Indices 1 2 3 4 5 6 
#
# 1 70.1674 51.3506 45.0994 0.0000 0.0000 0.0000
# 2 51.3506 119.5437 40.2632 0.0000 0.0000 0.0000
# 3 45.0994 40.2632 125.2893 0.0000 0.0000 0.0000
# 4 0.0000 0.0000 0.0000 24.8392 0.0000 0.0000
# 5 0.0000 0.0000 0.0000 0.0000 -1.7822 0.0000
# 6 0.0000 0.0000 0.0000 0.0000 0.0000 40.7067
#
#
#
# Elastic Compliance Matrix: (Units=1/GPa)
#
#
# Indices 1 2 3 4 5 6 
#
# 1 0.024278 -0.008394 -0.006042 0.000000 0.000000 0.000000
# 2 -0.008394 0.012282 -0.000926 0.000000 0.000000 0.000000
# 3 -0.006042 -0.000926 0.010454 0.000000 0.000000 0.000000
# 4 0.000000 0.000000 0.000000 0.040259 0.000000 0.000000
# 5 0.000000 0.000000 0.000000 0.000000 -0.561092 0.000000
# 6 0.000000 0.000000 0.000000 0.000000 0.000000 0.024566
#
#
# Mechanical properties :
#
#
# Convention : Reuss Voigt Hill
#
# Bulk Modulus (GPa) = 61.38052 65.38075 63.38064
# Shear Modulus (GPa) = -12.10358 24.63857 6.26750
#
# Velocity S-wave (km/s) = -2.44845 3.49335 1.76190
# Velocity P-wave (km/s) = 4.73377 6.97527 5.96083
#
# Compressibility (1/GPa) = 0.01629181
#
# Stress axis : x y z
#
# Youngs Moduli (GPa) = 41.19038 81.41684 95.65941
#
# Poissons Ratio (x) = 0.68339 0.57793
# Poissons Ratio (y) = 0.34574 0.08855
# Poissons Ratio (z) = 0.24885 0.07537
#
# Static dielectric constant tensor:
#      x y z
#    x 3.694770 0.000000 0.000000 
#    y 0.000000 3.868910 0.000000 
#    z 0.000000 0.000000 2.519080 
# 
# 
# High freq. dielectric constant tensor:
#      x y z
#    x 1.771110 0.000000 0.000000 
#    y 0.000000 1.807640 0.000000 
#    z 0.000000 0.000000 1.775430 
# 
# From -- ./inp_files/34977.got.cif
#   From: 2010.03.12/outbox.cif.g09.slc.cpg/sg67_18_cif.got.tgz:34977.got - 2010.04.10 22:41:39.
