data_PCOD8279409
_publ_section_title
;
Structure prediction by ZEFSAII (Michael W. Deem and Ramdas Pophale) SiO2 
 PCOD8279409
Probable space group: C M M A
;
_chemical_formula_sum "Si O2"
_cell_formula_units_Z 80
_cell_length_a 14.271865
_cell_length_b 24.168859
_cell_length_c 11.275943
_cell_angle_alpha 90.000000
_cell_angle_beta 90.000000
_cell_angle_gamma 90.000000
_cell_volume 3889.463935
_symmetry_space_group_name_H-M "C M M A"
_symmetry_group_IT_number 67
_symmetry_cell_setting 'orthorhombic'
loop_
_space_group_symop_operation_xyz
x,y,z
-x,1/2-y,z
x,-y,-z
-x,1/2+y,-z
-x,-y,-z
x,1/2+y,-z
-x,y,z
x,1/2-y,z
1/2+x,1/2+y,z
1/2-x,-y,z
1/2+x,1/2-y,-z
1/2-x,y,-z
1/2-x,1/2-y,-z
1/2+x,y,-z
1/2-x,1/2+y,z
1/2+x,-y,z
loop_
_atom_site_type_symbol
_atom_site_label
_atom_site_fract_x
_atom_site_fract_y
_atom_site_fract_z
Si Si1 0.101647 0.250000 0.489149
Si Si2 0.500000 0.580769 0.924969
Si Si3 0.891380 0.630321 0.499507
Si Si4 0.157859 0.631232 0.229075
Si Si5 0.104840 0.250000 0.766295
Si Si6 0.310114 0.444458 0.690001
Si Si7 0.500000 0.540135 0.171342
O O1 0.151154 0.191042 0.458392
O O2 0.085578 0.250000 0.628259
O O3 0.000000 0.250000 0.426742
O O4 0.407222 0.607907 0.873433
O O5 0.500000 0.517404 0.893166
O O6 0.500000 0.587085 0.068536
O O7 0.886596 0.620995 0.358921
O O8 0.828886 0.583777 0.562337
O O9 0.000000 0.626275 0.537939
O O10 0.166674 0.696428 0.199471
O O11 0.256656 0.599244 0.224680
O O12 0.000000 0.250000 0.826380
O O13 0.250000 0.500000 0.671694
O O14 0.409000 0.456989 0.747601
#
# Coordination Sequence:
#
# PCOD8279409 Si02
#       7
#     8   8  16  16   8  16   8
#     4   7  14  29  55  89 117 169 206 227 292 377
#     4  11  22  44  71  88 113 161 215 267 311 354
#     4  10  19  36  62  90 134 166 198 250 312 380
#     4  11  21  38  66 100 123 163 210 255 311 375
#     4   9  16  33  63  93 130 161 202 253 306 370
#     4  12  25  41  61  92 129 167 209 253 317 377
#     4  11  26  47  63  84 119 166 211 263 312 364
#
# _framework density 20.568387999999999
#
# number of rings (size 3 to 8) (size 9 to 14) (size 15 to 20)
#    0.000    1.600    5.000    1.800    0.000    3.200 
#    0.000    5.000    0.000    6.000    0.000    0.000 
#    0.000    0.000    0.000    0.000    0.000    0.000 
#
# Total GULP energy -495630.373899 kJ/mol
# GULP energy per Si atom -12390.759347 kJ/mol
# Density = 2.052157 g / cm^3
# Si number density = 20.568388 Si / 1000 Ang^3
#
#
#
# Elastic Constant Matrix: (Units=GPa)
#
#
# Indices 1 2 3 4 5 6 
#
# 1 109.5189 57.7583 19.7009 0.0000 0.0000 0.0000
# 2 57.7583 157.7650 43.8405 0.0000 0.0000 0.0000
# 3 19.7009 43.8405 74.3848 0.0000 0.0000 0.0000
# 4 0.0000 0.0000 0.0000 -7.4229 0.0000 0.0000
# 5 0.0000 0.0000 0.0000 0.0000 9.0820 0.0000
# 6 0.0000 0.0000 0.0000 0.0000 0.0000 14.8339
#
#
#
# Elastic Compliance Matrix: (Units=1/GPa)
#
#
# Indices 1 2 3 4 5 6 
#
# 1 0.011343 -0.003968 -0.000666 0.000000 0.000000 0.000000
# 2 -0.003968 0.008968 -0.004235 0.000000 0.000000 0.000000
# 3 -0.000666 -0.004235 0.016116 0.000000 0.000000 0.000000
# 4 0.000000 0.000000 0.000000 -0.134719 0.000000 0.000000
# 5 0.000000 0.000000 0.000000 0.000000 0.110107 0.000000
# 6 0.000000 0.000000 0.000000 0.000000 0.000000 0.067413
#
#
# Mechanical properties :
#
#
# Convention : Reuss Voigt Hill
#
# Bulk Modulus (GPa) = 53.50305 64.91870 59.21088
# Shear Modulus (GPa) = 48.45207 17.98987 33.22097
#
# Velocity S-wave (km/s) = 4.85878 2.96063 4.02325
# Velocity P-wave (km/s) = 7.58589 6.58164 7.10154
#
# Compressibility (1/GPa) = 0.01869052
#
# Stress axis : x y z
#
# Youngs Moduli (GPa) = 88.15914 111.50910 62.05140
#
# Poissons Ratio (x) = 0.44244 0.04131
# Poissons Ratio (y) = 0.34979 0.26276
# Poissons Ratio (z) = 0.05869 0.47219
#
# Static dielectric constant tensor:
#      x y z
#    x 3.745900 0.000000 0.000000 
#    y 0.000000 4.469210 0.000000 
#    z 0.000000 0.000000 3.460580 
# 
# 
# High freq. dielectric constant tensor:
#      x y z
#    x 1.805510 0.000000 0.000000 
#    y 0.000000 1.821980 0.000000 
#    z 0.000000 0.000000 1.758410 
# 
# From -- ./inp_files/18061.got.cif
#   From: 2010.03.12/outbox.cif.g09.slc.cpg/sg67_10_cif.got.tgz:18061.got - 2010.04.10 22:41:39.
