data_PCOD8279244
_publ_section_title
;
Structure prediction by ZEFSAII (Michael W. Deem and Ramdas Pophale) SiO2 
 PCOD8279244
Probable space group: C M M A
;
_chemical_formula_sum "Si O2"
_cell_formula_units_Z 100
_cell_length_a 13.713307
_cell_length_b 23.759153
_cell_length_c 15.940514
_cell_angle_alpha 90.000000
_cell_angle_beta 90.000000
_cell_angle_gamma 90.000000
_cell_volume 5193.683423
_symmetry_space_group_name_H-M "C M M A"
_symmetry_group_IT_number 67
_symmetry_cell_setting 'orthorhombic'
loop_
_space_group_symop_operation_xyz
x,y,z
-x,1/2-y,z
x,-y,-z
-x,1/2+y,-z
-x,-y,-z
x,1/2+y,-z
-x,y,z
x,1/2-y,z
1/2+x,1/2+y,z
1/2-x,-y,z
1/2+x,1/2-y,-z
1/2-x,y,-z
1/2-x,1/2-y,-z
1/2+x,y,-z
1/2-x,1/2+y,z
1/2+x,-y,z
loop_
_atom_site_type_symbol
_atom_site_label
_atom_site_fract_x
_atom_site_fract_y
_atom_site_fract_z
Si Si1 0.750000 0.000000 0.500000
Si Si2 0.239204 0.186648 0.847424
Si Si3 0.112823 0.610341 0.056877
Si Si4 0.613338 0.406900 0.865764
Si Si5 0.111564 0.188005 0.682621
Si Si6 0.614817 0.524694 0.803812
Si Si7 0.113332 0.569891 0.379062
O O1 0.818857 0.959884 0.446173
O O2 0.274051 0.250000 0.864000
O O3 0.175553 0.166828 0.927902
O O4 0.334767 0.149010 0.832511
O O5 0.174529 0.181526 0.765034
O O6 0.155963 0.566718 0.125395
O O7 0.000000 0.624559 0.071266
O O8 0.131267 0.585392 0.965038
O O9 0.500000 0.399371 0.844750
O O10 0.657610 0.461902 0.818491
O O11 0.128903 0.250000 0.640739
O O12 0.135148 0.137257 0.618003
O O13 0.000000 0.181272 0.712167
O O14 0.500000 0.521348 0.818270
O O15 0.642184 0.546225 0.712010
O O16 0.000000 0.557343 0.399664
#
# Coordination Sequence:
#
# PCOD8279244 Si02
#       7
#     4  16  16  16  16  16  16
#     4  12  26  36  58  94 126 152 166 214 280 338
#     4  11  22  34  51  76 106 143 193 236 272 322
#     4  10  19  34  54  79 109 139 182 241 289 321
#     4  10  22  35  50  75 110 150 190 232 278 324
#     4   9  18  36  63  88 108 138 184 235 277 318
#     4   9  18  35  58  80 105 143 186 227 273 326
#     4  10  21  39  61  88 118 146 182 223 271 334
#
# _framework density 19.254158
#
# number of rings (size 3 to 8) (size 9 to 14) (size 15 to 20)
#    0.000    2.080    1.600    1.680    2.240    5.120 
#    0.000    3.600    0.000    0.000    0.000    0.000 
#    0.000    0.000    0.000    0.000    0.000    0.000 
#
# Total GULP energy -619961.814259 kJ/mol
# GULP energy per Si atom -12399.236285 kJ/mol
# Density = 1.921034 g / cm^3
# Si number density = 19.254158 Si / 1000 Ang^3
#
#
#
# Elastic Constant Matrix: (Units=GPa)
#
#
# Indices 1 2 3 4 5 6 
#
# 1 56.0444 63.3551 40.9898 0.0000 0.0000 0.0000
# 2 63.3551 185.3660 65.9577 0.0000 0.0000 0.0000
# 3 40.9898 65.9577 82.3331 0.0000 0.0000 0.0000
# 4 0.0000 0.0000 0.0000 23.1674 0.0000 0.0000
# 5 0.0000 0.0000 0.0000 0.0000 16.3267 0.0000
# 6 0.0000 0.0000 0.0000 0.0000 0.0000 29.1788
#
#
#
# Elastic Compliance Matrix: (Units=1/GPa)
#
#
# Indices 1 2 3 4 5 6 
#
# 1 0.034953 -0.008049 -0.010953 0.000000 0.000000 0.000000
# 2 -0.008049 0.009399 -0.003523 0.000000 0.000000 0.000000
# 3 -0.010953 -0.003523 0.020421 0.000000 0.000000 0.000000
# 4 0.000000 0.000000 0.000000 0.043164 0.000000 0.000000
# 5 0.000000 0.000000 0.000000 0.000000 0.061249 0.000000
# 6 0.000000 0.000000 0.000000 0.000000 0.000000 0.034271
#
#
# Mechanical properties :
#
#
# Convention : Reuss Voigt Hill
#
# Bulk Modulus (GPa) = 50.70144 73.81652 62.25898
# Shear Modulus (GPa) = 19.60154 23.96397 21.78276
#
# Velocity S-wave (km/s) = 3.19414 3.53173 3.36717
# Velocity P-wave (km/s) = 6.32402 7.41971 6.89367
#
# Compressibility (1/GPa) = 0.01972331
#
# Stress axis : x y z
#
# Youngs Moduli (GPa) = 28.60992 106.39302 48.96940
#
# Poissons Ratio (x) = 0.85634 0.53638
# Poissons Ratio (y) = 0.23028 0.17250
# Poissons Ratio (z) = 0.31338 0.37478
#
# Static dielectric constant tensor:
#      x y z
#    x 3.559090 0.000000 0.000000 
#    y 0.000000 3.929570 0.000000 
#    z 0.000000 0.000000 3.168190 
# 
# 
# High freq. dielectric constant tensor:
#      x y z
#    x 1.757510 0.000000 0.000000 
#    y 0.000000 1.760590 0.000000 
#    z 0.000000 0.000000 1.710800 
# 
# From -- ./inp_files/33711.got.cif
#   From: 2010.03.12/outbox.cif.g09.slc.cpg/sg67_17_cif.got.tgz:33711.got - 2010.04.10 22:41:39.
