data_PCOD8279339
_publ_section_title
;
Structure prediction by ZEFSAII (Michael W. Deem and Ramdas Pophale) SiO2 
 PCOD8279339
Probable space group: C M M A
;
_chemical_formula_sum "Si O2"
_cell_formula_units_Z 72
_cell_length_a 8.672828
_cell_length_b 15.420472
_cell_length_c 27.992949
_cell_angle_alpha 90.000000
_cell_angle_beta 90.000000
_cell_angle_gamma 90.000000
_cell_volume 3743.751843
_symmetry_space_group_name_H-M "C M M A"
_symmetry_group_IT_number 67
_symmetry_cell_setting 'orthorhombic'
loop_
_space_group_symop_operation_xyz
x,y,z
-x,1/2-y,z
x,-y,-z
-x,1/2+y,-z
-x,-y,-z
x,1/2+y,-z
-x,y,z
x,1/2-y,z
1/2+x,1/2+y,z
1/2-x,-y,z
1/2+x,1/2-y,-z
1/2-x,y,-z
1/2-x,1/2-y,-z
1/2+x,y,-z
1/2-x,1/2+y,z
1/2+x,-y,z
loop_
_atom_site_type_symbol
_atom_site_label
_atom_site_fract_x
_atom_site_fract_y
_atom_site_fract_z
Si Si1 0.682014 0.750000 0.947607
Si Si2 0.316486 0.908717 0.551658
Si Si3 0.819885 0.408756 0.220353
Si Si4 0.180628 0.591624 0.890441
Si Si5 0.317479 0.250000 0.276974
Si Si6 0.182743 0.250000 0.615417
O O1 0.500000 0.750000 0.950589
O O2 0.736918 0.834883 0.920354
O O3 0.750000 0.750000 0.000000
O O4 0.500000 0.913929 0.548374
O O5 0.250000 0.884959 0.500000
O O6 0.257991 0.835691 0.588344
O O7 0.250000 0.000000 0.570120
O O8 0.750000 0.500000 0.236788
O O9 0.783996 0.390828 0.164986
O O10 0.741074 0.334961 0.250881
O O11 0.000000 0.409262 0.230765
O O12 0.250000 0.500000 0.906737
O O13 0.000000 0.592674 0.901319
O O14 0.500000 0.250000 0.276339
O O15 0.251888 0.250000 0.330874
O O16 0.000000 0.250000 0.615963
#
# Coordination Sequence:
#
# PCOD8279339 Si02
#       6
#     8  16  16  16   8   8
#     4  12  25  40  59  85 118 154 191 230 280 335
#     4  10  19  35  56  79 105 136 177 223 271 322
#     4  10  21  38  60  86 114 147 188 234 280 330
#     4  10  21  39  62  87 115 147 188 235 282 331
#     4  11  22  37  56  81 115 152 187 228 279 333
#     4   9  21  37  53  76 110 146 179 220 270 324
#
# _framework density 19.232043999999998
#
# number of rings (size 3 to 8) (size 9 to 14) (size 15 to 20)
#    0.000    1.778    0.000    5.000    0.000    6.667 
#    0.000   10.556    0.000    0.000    0.000    0.000 
#    0.000    0.000    0.000    0.000    0.000    0.000 
#
# Total GULP energy -446542.719237 kJ/mol
# GULP energy per Si atom -12403.964423 kJ/mol
# Density = 1.918827 g / cm^3
# Si number density = 19.232044 Si / 1000 Ang^3
#
#
#
# Elastic Constant Matrix: (Units=GPa)
#
#
# Indices 1 2 3 4 5 6 
#
# 1 111.5106 79.2568 66.7173 0.0000 0.0000 0.0000
# 2 79.2568 201.1906 112.6746 0.0000 0.0000 0.0000
# 3 66.7173 112.6746 121.1588 0.0000 0.0000 0.0000
# 4 0.0000 0.0000 0.0000 136.5762 0.0000 0.0000
# 5 0.0000 0.0000 0.0000 0.0000 27.6640 0.0000
# 6 0.0000 0.0000 0.0000 0.0000 0.0000 39.6282
#
#
#
# Elastic Compliance Matrix: (Units=1/GPa)
#
#
# Indices 1 2 3 4 5 6 
#
# 1 0.013947 -0.002490 -0.005364 0.000000 0.000000 0.000000
# 2 -0.002490 0.010817 -0.008689 0.000000 0.000000 0.000000
# 3 -0.005364 -0.008689 0.019288 0.000000 0.000000 0.000000
# 4 0.000000 0.000000 0.000000 0.007322 0.000000 0.000000
# 5 0.000000 0.000000 0.000000 0.000000 0.036148 0.000000
# 6 0.000000 0.000000 0.000000 0.000000 0.000000 0.025235
#
#
# Mechanical properties :
#
#
# Convention : Reuss Voigt Hill
#
# Bulk Modulus (GPa) = 91.19097 105.68415 98.43756
# Shear Modulus (GPa) = 33.44513 52.45442 42.94977
#
# Velocity S-wave (km/s) = 4.17469 5.22816 4.73084
# Velocity P-wave (km/s) = 8.41169 9.56642 9.00758
#
# Compressibility (1/GPa) = 0.01096600
#
# Stress axis : x y z
#
# Youngs Moduli (GPa) = 71.69930 92.44427 51.84600
#
# Poissons Ratio (x) = 0.23019 0.27813
# Poissons Ratio (y) = 0.17853 0.45047
# Poissons Ratio (z) = 0.38463 0.80322
#
# Static dielectric constant tensor:
#      x y z
#    x 3.588710 0.000000 0.000000 
#    y 0.000000 4.041070 0.000000 
#    z 0.000000 0.000000 3.605160 
# 
# 
# High freq. dielectric constant tensor:
#      x y z
#    x 1.756490 0.000000 0.000000 
#    y 0.000000 1.767400 0.000000 
#    z 0.000000 0.000000 1.746120 
# 
# From -- ./inp_files/43140.got.cif
#   From: 2010.03.12/outbox.cif.g09.slc.cpg/sg67_22_cif.got.tgz:43140.got - 2010.04.10 22:41:39.
