data_PCOD8279432
_publ_section_title
;
Structure prediction by ZEFSAII (Michael W. Deem and Ramdas Pophale) SiO2 
 PCOD8279432
Probable space group: C M M A
;
_chemical_formula_sum "Si O2"
_cell_formula_units_Z 96
_cell_length_a 23.559658
_cell_length_b 9.059511
_cell_length_c 25.874520
_cell_angle_alpha 90.000000
_cell_angle_beta 90.000000
_cell_angle_gamma 90.000000
_cell_volume 5522.631178
_symmetry_space_group_name_H-M "C M M A"
_symmetry_group_IT_number 67
_symmetry_cell_setting 'orthorhombic'
loop_
_space_group_symop_operation_xyz
x,y,z
-x,1/2-y,z
x,-y,-z
-x,1/2+y,-z
-x,-y,-z
x,1/2+y,-z
-x,y,z
x,1/2-y,z
1/2+x,1/2+y,z
1/2-x,-y,z
1/2+x,1/2-y,-z
1/2-x,y,-z
1/2-x,1/2-y,-z
1/2+x,y,-z
1/2-x,1/2+y,z
1/2+x,-y,z
loop_
_atom_site_type_symbol
_atom_site_label
_atom_site_fract_x
_atom_site_fract_y
_atom_site_fract_z
Si Si1 0.309442 0.077089 0.850342
Si Si2 0.809678 0.421020 0.338351
Si Si3 0.111783 0.076205 0.245425
Si Si4 0.500000 0.925501 0.786519
Si Si5 0.117855 0.576757 0.946951
Si Si6 0.000000 0.923472 0.896879
Si Si7 0.189448 0.922138 0.547747
O O1 0.298520 0.250000 0.851092
O O2 0.351286 0.033054 0.804277
O O3 0.337771 0.023005 0.903670
O O4 0.250000 0.000000 0.841420
O O5 0.796366 0.250000 0.329925
O O6 0.750000 0.500000 0.330054
O O7 0.854967 0.476175 0.296537
O O8 0.837363 0.448638 0.395386
O O9 0.097722 0.250000 0.246046
O O10 0.054324 0.983713 0.244439
O O11 0.500000 0.750000 0.787978
O O12 0.500000 0.986887 0.844292
O O13 0.121729 0.750000 0.955257
O O14 0.054583 0.530965 0.930150
O O15 0.134987 0.500000 0.000000
O O16 0.000000 0.750000 0.882731
O O17 0.195616 0.750000 0.535490
O O18 0.154810 0.000000 0.500000
O O19 0.250000 0.000000 0.549708
#
# Coordination Sequence:
#
# PCOD8279432 Si02
#       7
#    16  16  16   8  16   8  16
#     4  10  21  36  55  76 101 135 170 202 247 300
#     4   9  18  30  49  75 104 139 176 211 250 300
#     4  10  20  38  57  73 101 138 169 204 255 310
#     4  12  24  35  55  84 104 125 164 213 255 297
#     4  10  21  36  56  79 102 133 167 205 250 301
#     4  10  19  39  61  76 102 133 165 203 254 313
#     4   9  15  24  39  65  98 135 175 209 247 292
#
# _framework density 17.383019000000001
#
# number of rings (size 3 to 8) (size 9 to 14) (size 15 to 20)
#    0.000    2.167    1.667    2.500    0.000    3.667 
#    0.000    1.667    0.000    0.000    0.000    0.583 
#    0.000    0.000    0.000    0.000    0.000    0.000 
#
# Total GULP energy -595084.586386 kJ/mol
# GULP energy per Si atom -12397.595550 kJ/mol
# Density = 1.734345 g / cm^3
# Si number density = 17.383019 Si / 1000 Ang^3
#
#
#
# Elastic Constant Matrix: (Units=GPa)
#
#
# Indices 1 2 3 4 5 6 
#
# 1 100.8674 42.6693 55.4364 0.0000 0.0000 0.0000
# 2 42.6693 65.6464 53.2084 0.0000 0.0000 0.0000
# 3 55.4364 53.2084 160.6333 0.0000 0.0000 0.0000
# 4 0.0000 0.0000 0.0000 21.9491 0.0000 0.0000
# 5 0.0000 0.0000 0.0000 0.0000 -91.5299 0.0000
# 6 0.0000 0.0000 0.0000 0.0000 0.0000 25.8116
#
#
#
# Elastic Compliance Matrix: (Units=1/GPa)
#
#
# Indices 1 2 3 4 5 6 
#
# 1 0.014402 -0.007290 -0.002556 0.000000 0.000000 0.000000
# 2 -0.007290 0.024514 -0.005604 0.000000 0.000000 0.000000
# 3 -0.002556 -0.005604 0.008964 0.000000 0.000000 0.000000
# 4 0.000000 0.000000 0.000000 0.045560 0.000000 0.000000
# 5 0.000000 0.000000 0.000000 0.000000 -0.010925 0.000000
# 6 0.000000 0.000000 0.000000 0.000000 0.000000 0.038742
#
#
# Mechanical properties :
#
#
# Convention : Reuss Voigt Hill
#
# Bulk Modulus (GPa) = 58.89157 69.97504 64.43330
# Shear Modulus (GPa) = 31.68236 2.96836 17.32536
#
# Velocity S-wave (km/s) = 4.27383 1.30818 3.16045
# Velocity P-wave (km/s) = 7.63587 6.52870 7.10389
#
# Compressibility (1/GPa) = 0.01698036
#
# Stress axis : x y z
#
# Youngs Moduli (GPa) = 69.43276 40.79336 111.56111
#
# Poissons Ratio (x) = 0.29738 0.28512
# Poissons Ratio (y) = 0.50616 0.62521
# Poissons Ratio (z) = 0.17745 0.22861
#
# Static dielectric constant tensor:
#      x y z
#    x 3.107850 0.000000 0.000000 
#    y 0.000000 3.190060 0.000000 
#    z 0.000000 0.000000 3.977800 
# 
# 
# High freq. dielectric constant tensor:
#      x y z
#    x 1.643320 0.000000 0.000000 
#    y 0.000000 1.668380 0.000000 
#    z 0.000000 0.000000 1.688340 
# 
# From -- ./inp_files/44817.got.cif
#   From: 2010.03.12/outbox.cif.g09.slc.cpg/sg67_23_cif.got.tgz:44817.got - 2010.04.10 22:41:39.
