data_PCOD8279979
_publ_section_title
;
Structure prediction by ZEFSAII (Michael W. Deem and Ramdas Pophale) SiO2 
 PCOD8279979
Probable space group: C M M A
;
_chemical_formula_sum "Si O2"
_cell_formula_units_Z 112
_cell_length_a 23.542958
_cell_length_b 17.082879
_cell_length_c 13.374441
_cell_angle_alpha 90.000000
_cell_angle_beta 90.000000
_cell_angle_gamma 90.000000
_cell_volume 5378.952781
_symmetry_space_group_name_H-M "C M M A"
_symmetry_group_IT_number 67
_symmetry_cell_setting 'orthorhombic'
loop_
_space_group_symop_operation_xyz
x,y,z
-x,1/2-y,z
x,-y,-z
-x,1/2+y,-z
-x,-y,-z
x,1/2+y,-z
-x,y,z
x,1/2-y,z
1/2+x,1/2+y,z
1/2-x,-y,z
1/2+x,1/2-y,-z
1/2-x,y,-z
1/2-x,1/2-y,-z
1/2+x,y,-z
1/2-x,1/2+y,z
1/2+x,-y,z
loop_
_atom_site_type_symbol
_atom_site_label
_atom_site_fract_x
_atom_site_fract_y
_atom_site_fract_z
Si Si1 0.659645 0.338978 0.153391
Si Si2 0.338536 0.159185 0.926085
Si Si3 0.565144 0.158442 0.446384
Si Si4 0.935739 0.931020 0.244694
Si Si5 0.265354 0.410328 0.756066
Si Si6 0.140652 0.837551 0.629946
Si Si7 0.565524 0.389201 0.801034
O O1 0.641963 0.250000 0.171677
O O2 0.603911 0.391211 0.163165
O O3 0.707166 0.361399 0.235128
O O4 0.680963 0.352217 0.040140
O O5 0.331317 0.250000 0.894453
O O6 0.299540 0.104639 0.857658
O O7 0.403250 0.128956 0.906805
O O8 0.500000 0.144889 0.481750
O O9 0.574262 0.250000 0.419212
O O10 0.579705 0.103295 0.353110
O O11 0.608391 0.129480 0.532273
O O12 0.000000 0.909918 0.215996
O O13 0.925257 0.023293 0.240084
O O14 0.250000 0.500000 0.745094
O O15 0.303102 0.386736 0.659533
O O16 0.161693 0.750000 0.608775
O O17 0.094912 0.834103 0.719213
O O18 0.500000 0.367585 0.814782
#
# Coordination Sequence:
#
# PCOD8279979 Si02
#       7
#    16  16  16  16  16  16  16
#     4  11  22  37  59  82 108 150 195 234 282 334
#     4  10  22  38  57  83 113 146 190 238 279 332
#     4   9  18  35  60  87 115 150 188 226 274 332
#     4  10  22  38  56  83 118 152 190 235 279 331
#     4  11  22  37  58  84 114 146 183 233 287 339
#     4  10  20  36  59  85 113 145 186 234 280 333
#     4  10  20  34  54  82 116 150 184 230 287 337
#
# _framework density 20.821895999999999
#
# number of rings (size 3 to 8) (size 9 to 14) (size 15 to 20)
#    0.000    1.857    0.000    5.571    0.000    7.714 
#    0.000    5.714    0.000    5.143    0.000    0.000 
#    0.000    0.000    0.000    0.000    0.000    0.000 
#
# Total GULP energy -694340.172436 kJ/mol
# GULP energy per Si atom -12398.931651 kJ/mol
# Density = 2.077450 g / cm^3
# Si number density = 20.821896 Si / 1000 Ang^3
#
#
#
# Elastic Constant Matrix: (Units=GPa)
#
#
# Indices 1 2 3 4 5 6 
#
# 1 90.0841 36.1521 22.0251 0.0000 0.0000 0.0000
# 2 36.1521 83.3894 31.3441 0.0000 0.0000 0.0000
# 3 22.0251 31.3441 57.6725 0.0000 0.0000 0.0000
# 4 0.0000 0.0000 0.0000 14.7639 0.0000 0.0000
# 5 0.0000 0.0000 0.0000 0.0000 30.6261 0.0000
# 6 0.0000 0.0000 0.0000 0.0000 0.0000 37.0211
#
#
#
# Elastic Compliance Matrix: (Units=1/GPa)
#
#
# Indices 1 2 3 4 5 6 
#
# 1 0.013725 -0.005002 -0.002523 0.000000 0.000000 0.000000
# 2 -0.005002 0.016893 -0.007271 0.000000 0.000000 0.000000
# 3 -0.002523 -0.007271 0.022255 0.000000 0.000000 0.000000
# 4 0.000000 0.000000 0.000000 0.067733 0.000000 0.000000
# 5 0.000000 0.000000 0.000000 0.000000 0.032652 0.000000
# 6 0.000000 0.000000 0.000000 0.000000 0.000000 0.027012
#
#
# Mechanical properties :
#
#
# Convention : Reuss Voigt Hill
#
# Bulk Modulus (GPa) = 42.95382 45.57651 44.26517
# Shear Modulus (GPa) = 22.97565 25.92387 24.44976
#
# Velocity S-wave (km/s) = 3.32541 3.53233 3.43043
# Velocity P-wave (km/s) = 5.95133 6.21069 6.08240
#
# Compressibility (1/GPa) = 0.02328082
#
# Stress axis : x y z
#
# Youngs Moduli (GPa) = 72.86003 59.19463 44.93455
#
# Poissons Ratio (x) = 0.29608 0.11338
# Poissons Ratio (y) = 0.36443 0.32672
# Poissons Ratio (z) = 0.18384 0.43041
#
# Static dielectric constant tensor:
#      x y z
#    x 4.018760 0.000000 0.000000 
#    y 0.000000 3.746460 0.000000 
#    z 0.000000 0.000000 3.618840 
# 
# 
# High freq. dielectric constant tensor:
#      x y z
#    x 1.822370 0.000000 0.000000 
#    y 0.000000 1.819860 0.000000 
#    z 0.000000 0.000000 1.796670 
# 
# From -- ./inp_files/30134.got.cif
#   From: 2010.03.12/outbox.cif.g09.slc.cpg/sg67_16_cif.got.tgz:30134.got - 2010.04.10 22:41:39.
