data_PCOD8279401
_publ_section_title
;
Structure prediction by ZEFSAII (Michael W. Deem and Ramdas Pophale) SiO2 
 PCOD8279401
Probable space group: C M M A
;
_chemical_formula_sum "Si O2"
_cell_formula_units_Z 104
_cell_length_a 29.434588
_cell_length_b 9.002966
_cell_length_c 19.914423
_cell_angle_alpha 90.000000
_cell_angle_beta 90.000000
_cell_angle_gamma 90.000000
_cell_volume 5277.294115
_symmetry_space_group_name_H-M "C M M A"
_symmetry_group_IT_number 67
_symmetry_cell_setting 'orthorhombic'
loop_
_space_group_symop_operation_xyz
x,y,z
-x,1/2-y,z
x,-y,-z
-x,1/2+y,-z
-x,-y,-z
x,1/2+y,-z
-x,y,z
x,1/2-y,z
1/2+x,1/2+y,z
1/2-x,-y,z
1/2+x,1/2-y,-z
1/2-x,y,-z
1/2-x,1/2-y,-z
1/2+x,y,-z
1/2-x,1/2+y,z
1/2+x,-y,z
loop_
_atom_site_type_symbol
_atom_site_label
_atom_site_fract_x
_atom_site_fract_y
_atom_site_fract_z
Si Si1 0.207678 0.087960 0.091448
Si Si2 0.598486 0.924381 0.427308
Si Si3 0.000000 0.583315 0.567663
Si Si4 0.892821 0.073485 0.067288
Si Si5 0.120391 0.926545 0.297139
Si Si6 0.946690 0.923976 0.800358
Si Si7 0.292954 0.415403 0.751901
O O1 0.207608 0.250000 0.057881
O O2 0.158744 0.012112 0.077038
O O3 0.215965 0.103998 0.170049
O O4 0.250000 0.000000 0.058932
O O5 0.610679 0.750000 0.433044
O O6 0.547528 0.950162 0.395418
O O7 0.604867 0.000000 0.500000
O O8 0.628682 0.007056 0.372013
O O9 0.000000 0.500000 0.500000
O O10 0.000000 0.750000 0.543215
O O11 0.893770 0.250000 0.060909
O O12 0.923786 0.023553 0.129977
O O13 0.913380 0.000000 0.000000
O O14 0.119097 0.750000 0.300891
O O15 0.074850 0.985616 0.261358
O O16 0.162908 0.983191 0.254893
O O17 0.937509 0.750000 0.787531
O O18 0.000000 0.959680 0.803378
O O19 0.298998 0.250000 0.719739
O O20 0.250000 0.500000 0.718220
#
# Coordination Sequence:
#
# PCOD8279401 Si02
#       7
#    16  16   8  16  16  16  16
#     4   9  18  33  54  79 112 145 182 228 284 346
#     4  10  20  36  56  82 116 157 198 241 291 348
#     4   8  16  30  50  74 104 144 187 226 275 334
#     4  10  21  38  57  82 112 149 191 239 292 351
#     4  12  24  37  58  89 121 155 195 242 292 346
#     4  10  22  42  63  81 110 153 199 246 298 351
#     4  10  19  36  60  87 117 151 191 238 291 349
#
# _framework density 19.707069000000001
#
# number of rings (size 3 to 8) (size 9 to 14) (size 15 to 20)
#    0.000    2.000    1.538    2.308    1.077    3.385 
#    0.000    1.538    0.000    0.462    0.000    3.231 
#    0.000    0.000    0.000    0.000    0.000    0.000 
#
# Total GULP energy -644435.308313 kJ/mol
# GULP energy per Si atom -12392.986698 kJ/mol
# Density = 1.966222 g / cm^3
# Si number density = 19.707069 Si / 1000 Ang^3
#
#
#
# Elastic Constant Matrix: (Units=GPa)
#
#
# Indices 1 2 3 4 5 6 
#
# 1 100.7053 43.7910 28.3049 0.0000 0.0000 0.0000
# 2 43.7910 110.5074 49.7014 0.0000 0.0000 0.0000
# 3 28.3049 49.7014 92.1915 0.0000 0.0000 0.0000
# 4 0.0000 0.0000 0.0000 30.8105 0.0000 0.0000
# 5 0.0000 0.0000 0.0000 0.0000 5.7988 0.0000
# 6 0.0000 0.0000 0.0000 0.0000 0.0000 26.5856
#
#
#
# Elastic Compliance Matrix: (Units=1/GPa)
#
#
# Indices 1 2 3 4 5 6 
#
# 1 0.012152 -0.004142 -0.001498 0.000000 0.000000 0.000000
# 2 -0.004142 0.013357 -0.005929 0.000000 0.000000 0.000000
# 3 -0.001498 -0.005929 0.014504 0.000000 0.000000 0.000000
# 4 0.000000 0.000000 0.000000 0.032456 0.000000 0.000000
# 5 0.000000 0.000000 0.000000 0.000000 0.172451 0.000000
# 6 0.000000 0.000000 0.000000 0.000000 0.000000 0.037614
#
#
# Mechanical properties :
#
#
# Convention : Reuss Voigt Hill
#
# Bulk Modulus (GPa) = 59.26168 60.77764 60.01966
# Shear Modulus (GPa) = 16.06179 24.74609 20.40394
#
# Velocity S-wave (km/s) = 2.85796 3.54742 3.22119
# Velocity P-wave (km/s) = 6.40525 6.90554 6.66009
#
# Compressibility (1/GPa) = 0.01687431
#
# Stress axis : x y z
#
# Youngs Moduli (GPa) = 82.29070 74.86596 68.94873
#
# Poissons Ratio (x) = 0.31008 0.10329
# Poissons Ratio (y) = 0.34083 0.40882
# Poissons Ratio (z) = 0.12328 0.44391
#
# Static dielectric constant tensor:
#      x y z
#    x 3.684680 0.000000 0.000000 
#    y 0.000000 3.716500 0.000000 
#    z 0.000000 0.000000 3.381470 
# 
# 
# High freq. dielectric constant tensor:
#      x y z
#    x 1.761950 0.000000 0.000000 
#    y 0.000000 1.767790 0.000000 
#    z 0.000000 0.000000 1.755930 
# 
# From -- ./inp_files/37489.got.cif
#   From: 2010.03.12/outbox.cif.g09.slc.cpg/sg67_19_cif.got.tgz:37489.got - 2010.04.10 22:41:39.
