data_PCOD8279470
_publ_section_title
;
Structure prediction by ZEFSAII (Michael W. Deem and Ramdas Pophale) SiO2 
 PCOD8279470
Probable space group: C M M A
;
_chemical_formula_sum "Si O2"
_cell_formula_units_Z 112
_cell_length_a 22.510427
_cell_length_b 23.664158
_cell_length_c 12.274753
_cell_angle_alpha 90.000000
_cell_angle_beta 90.000000
_cell_angle_gamma 90.000000
_cell_volume 6538.641872
_symmetry_space_group_name_H-M "C M M A"
_symmetry_group_IT_number 67
_symmetry_cell_setting 'orthorhombic'
loop_
_space_group_symop_operation_xyz
x,y,z
-x,1/2-y,z
x,-y,-z
-x,1/2+y,-z
-x,-y,-z
x,1/2+y,-z
-x,y,z
x,1/2-y,z
1/2+x,1/2+y,z
1/2-x,-y,z
1/2+x,1/2-y,-z
1/2-x,y,-z
1/2-x,1/2-y,-z
1/2+x,y,-z
1/2-x,1/2+y,z
1/2+x,-y,z
loop_
_atom_site_type_symbol
_atom_site_label
_atom_site_fract_x
_atom_site_fract_y
_atom_site_fract_z
Si Si1 0.368600 0.399146 0.182654
Si Si2 0.431463 0.879540 0.040623
Si Si3 0.363143 0.315217 0.795585
Si Si4 0.736727 0.605497 0.128070
Si Si5 0.361545 0.979787 0.119513
Si Si6 0.070193 0.814470 0.347110
Si Si7 0.565730 0.683522 0.406728
O O1 0.297987 0.392761 0.193085
O O2 0.382116 0.466735 0.193231
O O3 0.398026 0.362053 0.276114
O O4 0.392393 0.376486 0.067846
O O5 0.500000 0.878825 0.008489
O O6 0.414026 0.825651 0.113336
O O7 0.415979 0.935614 0.111100
O O8 0.350740 0.250000 0.782518
O O9 0.300980 0.341006 0.833061
O O10 0.387234 0.341200 0.680738
O O11 0.698354 0.550314 0.162828
O O12 0.750000 0.607975 0.000000
O O13 0.343449 0.000000 0.000000
O O14 0.090190 0.750000 0.317088
O O15 0.088015 0.828973 0.471117
O O16 0.000000 0.819464 0.330156
O O17 0.500000 0.656709 0.388004
O O18 0.560055 0.750000 0.388759
#
# Coordination Sequence:
#
# PCOD8279470 Si02
#       7
#    16  16  16  16  16  16  16
#     4  11  20  31  52  75 101 136 173 207 255 313
#     4  10  20  31  46  75 106 130 162 212 263 306
#     4  10  20  33  51  75 102 133 172 212 253 304
#     4  11  19  34  50  74 102 136 173 209 255 303
#     4   9  18  31  52  71  97 131 174 212 247 298
#     4   9  19  35  53  76 106 137 171 210 257 313
#     4   8  15  32  56  74  94 134 181 217 250 298
#
# _framework density 17.12894
#
# number of rings (size 3 to 8) (size 9 to 14) (size 15 to 20)
#    0.000    2.286    4.286    2.143    0.000    5.429 
#    0.000    0.714    0.000    6.000    0.000   13.000 
#    0.000    0.000    0.000    0.000    0.000    0.000 
#
# Total GULP energy -693971.649972 kJ/mol
# GULP energy per Si atom -12392.350892 kJ/mol
# Density = 1.708995 g / cm^3
# Si number density = 17.128940 Si / 1000 Ang^3
#
#
#
# Elastic Constant Matrix: (Units=GPa)
#
#
# Indices 1 2 3 4 5 6 
#
# 1 59.3205 9.5408 12.3205 0.0000 0.0000 0.0000
# 2 9.5408 59.8333 29.3027 0.0000 0.0000 0.0000
# 3 12.3205 29.3027 70.8301 0.0000 0.0000 0.0000
# 4 0.0000 0.0000 0.0000 10.7907 0.0000 0.0000
# 5 0.0000 0.0000 0.0000 0.0000 23.5888 0.0000
# 6 0.0000 0.0000 0.0000 0.0000 0.0000 23.0579
#
#
#
# Elastic Compliance Matrix: (Units=1/GPa)
#
#
# Indices 1 2 3 4 5 6 
#
# 1 0.017617 -0.001641 -0.002386 0.000000 0.000000 0.000000
# 2 -0.001641 0.021113 -0.008449 0.000000 0.000000 0.000000
# 3 -0.002386 -0.008449 0.018029 0.000000 0.000000 0.000000
# 4 0.000000 0.000000 0.000000 0.092673 0.000000 0.000000
# 5 0.000000 0.000000 0.000000 0.000000 0.042393 0.000000
# 6 0.000000 0.000000 0.000000 0.000000 0.000000 0.043369
#
#
# Mechanical properties :
#
#
# Convention : Reuss Voigt Hill
#
# Bulk Modulus (GPa) = 31.43918 32.47910 31.95914
# Shear Modulus (GPa) = 18.46751 20.74213 19.60482
#
# Velocity S-wave (km/s) = 3.28708 3.48363 3.38678
# Velocity P-wave (km/s) = 5.72719 5.93158 5.83028
#
# Compressibility (1/GPa) = 0.03180745
#
# Stress axis : x y z
#
# Youngs Moduli (GPa) = 56.76355 47.36525 55.46744
#
# Poissons Ratio (x) = 0.07772 0.13232
# Poissons Ratio (y) = 0.09314 0.46864
# Poissons Ratio (z) = 0.13541 0.40019
#
# Static dielectric constant tensor:
#      x y z
#    x 3.335730 0.000000 0.000000 
#    y 0.000000 3.331580 0.000000 
#    z 0.000000 0.000000 3.156730 
# 
# 
# High freq. dielectric constant tensor:
#      x y z
#    x 1.662900 0.000000 0.000000 
#    y 0.000000 1.653310 0.000000 
#    z 0.000000 0.000000 1.635860 
# 
# From -- ./inp_files/22280.got.cif
#   From: 2010.03.12/outbox.cif.g09.slc.cpg/sg67_12_cif.got.tgz:22280.got - 2010.04.10 22:41:39.
