data_PCOD8279523
_publ_section_title
;
Structure prediction by ZEFSAII (Michael W. Deem and Ramdas Pophale) SiO2 
 PCOD8279523
Probable space group: C M M A
;
_chemical_formula_sum "Si O2"
_cell_formula_units_Z 52
_cell_length_a 9.065211
_cell_length_b 20.692871
_cell_length_c 15.510420
_cell_angle_alpha 90.000000
_cell_angle_beta 90.000000
_cell_angle_gamma 90.000000
_cell_volume 2909.525886
_symmetry_space_group_name_H-M "C M M A"
_symmetry_group_IT_number 67
_symmetry_cell_setting 'orthorhombic'
loop_
_space_group_symop_operation_xyz
x,y,z
-x,1/2-y,z
x,-y,-z
-x,1/2+y,-z
-x,-y,-z
x,1/2+y,-z
-x,y,z
x,1/2-y,z
1/2+x,1/2+y,z
1/2-x,-y,z
1/2+x,1/2-y,-z
1/2-x,y,-z
1/2-x,1/2-y,-z
1/2+x,y,-z
1/2-x,1/2+y,z
1/2+x,-y,z
loop_
_atom_site_type_symbol
_atom_site_label
_atom_site_fract_x
_atom_site_fract_y
_atom_site_fract_z
Si Si1 0.250000 0.500000 0.500000
Si Si2 0.666527 0.173135 0.083782
Si Si3 0.327738 0.174454 0.743757
Si Si4 0.835613 0.376149 0.580444
O O1 0.152115 0.546696 0.438521
O O2 0.500000 0.145856 0.086109
O O3 0.664441 0.250000 0.079536
O O4 0.753495 0.149785 0.168235
O O5 0.750000 0.145091 0.000000
O O6 0.500000 0.158771 0.748363
O O7 0.297841 0.250000 0.728854
O O8 0.255801 0.134830 0.666654
O O9 0.750000 0.342023 0.500000
O O10 0.000000 0.346973 0.589392
#
# Coordination Sequence:
#
# PCOD8279523 Si02
#       4
#     4  16  16  16
#     4   8  22  36  56  72  92 120 162 206 246 292
#     4   9  16  27  44  66  95 130 165 199 236 281
#     4  10  20  32  47  71 102 133 165 199 240 289
#     4  10  20  34  53  72  95 125 161 203 245 289
#
# _framework density 17.872326999999999
#
# number of rings (size 3 to 8) (size 9 to 14) (size 15 to 20)
#    0.923    1.538    0.000    3.231    0.000    6.154 
#    0.000    0.000    0.000    0.000    0.000    1.077 
#    0.000    7.385    0.000    0.000    0.000    0.000 
#
# Total GULP energy -322238.128329 kJ/mol
# GULP energy per Si atom -12393.774167 kJ/mol
# Density = 1.783165 g / cm^3
# Si number density = 17.872327 Si / 1000 Ang^3
#
#
#
# Elastic Constant Matrix: (Units=GPa)
#
#
# Indices 1 2 3 4 5 6 
#
# 1 169.1701 24.1393 90.8949 0.0000 0.0000 0.0000
# 2 24.1393 29.7808 33.1169 0.0000 0.0000 0.0000
# 3 90.8949 33.1169 186.3135 0.0000 0.0000 0.0000
# 4 0.0000 0.0000 0.0000 -1.7426 0.0000 0.0000
# 5 0.0000 0.0000 0.0000 0.0000 40.2166 0.0000
# 6 0.0000 0.0000 0.0000 0.0000 0.0000 12.6786
#
#
#
# Elastic Compliance Matrix: (Units=1/GPa)
#
#
# Indices 1 2 3 4 5 6 
#
# 1 0.008186 -0.002735 -0.003508 0.000000 0.000000 0.000000
# 2 -0.002735 0.042765 -0.006267 0.000000 0.000000 0.000000
# 3 -0.003508 -0.006267 0.008192 0.000000 0.000000 0.000000
# 4 0.000000 0.000000 0.000000 -0.573844 0.000000 0.000000
# 5 0.000000 0.000000 0.000000 0.000000 0.024865 0.000000
# 6 0.000000 0.000000 0.000000 0.000000 0.000000 0.078873
#
#
# Mechanical properties :
#
#
# Convention : Reuss Voigt Hill
#
# Bulk Modulus (GPa) = 29.30476 75.72963 52.51719
# Shear Modulus (GPa) = -13.34869 26.03807 6.34469
#
# Velocity S-wave (km/s) = -2.73590 3.82107 1.88619
# Velocity P-wave (km/s) = 2.54011 7.86969 5.84740
#
# Compressibility (1/GPa) = 0.03412415
#
# Stress axis : x y z
#
# Youngs Moduli (GPa) = 122.15911 23.38376 122.06368
#
# Poissons Ratio (x) = 0.06395 0.42814
# Poissons Ratio (y) = 0.33409 0.76499
# Poissons Ratio (z) = 0.42848 0.14655
#
# Static dielectric constant tensor:
#      x y z
#    x 3.452020 0.000000 0.000000 
#    y 0.000000 2.704850 0.000000 
#    z 0.000000 0.000000 3.391080 
# 
# 
# High freq. dielectric constant tensor:
#      x y z
#    x 1.710510 0.000000 0.000000 
#    y 0.000000 1.623090 0.000000 
#    z 0.000000 0.000000 1.703000 
# 
# From -- ./inp_files/22517.got.cif
#   From: 2010.03.12/outbox.cif.g09.slc.cpg/sg67_12_cif.got.tgz:22517.got - 2010.04.10 22:41:39.
