data_PCOD8279425
_publ_section_title
;
Structure prediction by ZEFSAII (Michael W. Deem and Ramdas Pophale) SiO2 
 PCOD8279425
Probable space group: C M M A
;
_chemical_formula_sum "Si O2"
_cell_formula_units_Z 116
_cell_length_a 17.841658
_cell_length_b 24.496217
_cell_length_c 13.007161
_cell_angle_alpha 90.000000
_cell_angle_beta 90.000000
_cell_angle_gamma 90.000000
_cell_volume 5684.820376
_symmetry_space_group_name_H-M "C M M A"
_symmetry_group_IT_number 67
_symmetry_cell_setting 'orthorhombic'
loop_
_space_group_symop_operation_xyz
x,y,z
-x,1/2-y,z
x,-y,-z
-x,1/2+y,-z
-x,-y,-z
x,1/2+y,-z
-x,y,z
x,1/2-y,z
1/2+x,1/2+y,z
1/2-x,-y,z
1/2+x,1/2-y,-z
1/2-x,y,-z
1/2-x,1/2-y,-z
1/2+x,y,-z
1/2-x,1/2+y,z
1/2+x,-y,z
loop_
_atom_site_type_symbol
_atom_site_label
_atom_site_fract_x
_atom_site_fract_y
_atom_site_fract_z
Si Si1 0.913023 0.809788 0.866230
Si Si2 0.328180 0.113791 0.722322
Si Si3 0.719658 0.313990 0.390867
Si Si4 0.415437 0.614241 0.668250
Si Si5 0.250000 0.500000 0.000000
Si Si6 0.190131 0.422195 0.830250
Si Si7 0.174118 0.189767 0.937316
Si Si8 0.916585 0.444936 0.457111
O O1 0.878958 0.750000 0.833419
O O2 0.887048 0.861919 0.801792
O O3 0.000000 0.807118 0.850564
O O4 0.894644 0.820087 0.985422
O O5 0.282775 0.166929 0.687797
O O6 0.271686 0.071318 0.777572
O O7 0.367054 0.081394 0.631203
O O8 0.714105 0.250000 0.396001
O O9 0.750000 0.337588 0.500000
O O10 0.639269 0.334409 0.349242
O O11 0.500000 0.629458 0.708393
O O12 0.376958 0.568787 0.746243
O O13 0.423770 0.593668 0.553570
O O14 0.193931 0.462617 0.929272
O O15 0.174203 0.358743 0.856328
O O16 0.167273 0.250000 0.884016
O O17 0.250000 0.186218 0.000000
O O18 0.878066 0.500000 0.500000
O O19 0.000000 0.457366 0.412336
#
# Coordination Sequence:
#
# PCOD8279425 Si02
#       8
#    16  16  16  16   4  16  16  16
#     4  10  20  33  56  91 123 153 198 252 305 366
#     4  11  20  37  61  89 118 162 201 250 301 364
#     4  10  20  36  58  88 124 164 202 239 294 363
#     4  10  23  43  62  89 125 163 208 255 302 360
#     4  12  24  44  56  94 132 148 200 264 320 378
#     4  11  24  38  64  91 120 161 202 258 309 374
#     4  10  19  38  60  82 115 158 203 249 304 359
#     4  10  22  40  61  85 122 162 205 255 305 360
#
# _framework density 20.405217
#
# number of rings (size 3 to 8) (size 9 to 14) (size 15 to 20)
#    0.000    1.655    3.448    0.828    1.931    3.034 
#    0.000    3.103    0.000    0.000    0.000    0.000 
#    0.000    0.000    0.000    0.000    0.000    0.000 
#
# Total GULP energy -718517.344309 kJ/mol
# GULP energy per Si atom -12388.230074 kJ/mol
# Density = 2.035877 g / cm^3
# Si number density = 20.405217 Si / 1000 Ang^3
#
#
#
# Elastic Constant Matrix: (Units=GPa)
#
#
# Indices 1 2 3 4 5 6 
#
# 1 112.5317 33.6537 44.8768 0.0000 0.0000 0.0000
# 2 33.6537 73.1196 31.8065 0.0000 0.0000 0.0000
# 3 44.8768 31.8065 89.9907 0.0000 0.0000 0.0000
# 4 0.0000 0.0000 0.0000 32.8814 0.0000 0.0000
# 5 0.0000 0.0000 0.0000 0.0000 -2.2505 0.0000
# 6 0.0000 0.0000 0.0000 0.0000 0.0000 17.4628
#
#
#
# Elastic Compliance Matrix: (Units=1/GPa)
#
#
# Indices 1 2 3 4 5 6 
#
# 1 0.011760 -0.003381 -0.004669 0.000000 0.000000 0.000000
# 2 -0.003381 0.017133 -0.004369 0.000000 0.000000 0.000000
# 3 -0.004669 -0.004369 0.014985 0.000000 0.000000 0.000000
# 4 0.000000 0.000000 0.000000 0.030412 0.000000 0.000000
# 5 0.000000 0.000000 0.000000 0.000000 -0.444336 0.000000
# 6 0.000000 0.000000 0.000000 0.000000 0.000000 0.057265
#
#
# Mechanical properties :
#
#
# Convention : Reuss Voigt Hill
#
# Bulk Modulus (GPa) = 52.52659 55.14621 53.83640
# Shear Modulus (GPa) = -17.75596 20.63907 1.44156
#
# Velocity S-wave (km/s) = -2.95306 3.18380 0.84143
# Velocity P-wave (km/s) = 3.76433 6.37178 5.23306
#
# Compressibility (1/GPa) = 0.01903798
#
# Stress axis : x y z
#
# Youngs Moduli (GPa) = 85.03647 58.36634 66.73334
#
# Poissons Ratio (x) = 0.19736 0.31159
# Poissons Ratio (y) = 0.28754 0.29158
# Poissons Ratio (z) = 0.39705 0.25502
#
# Static dielectric constant tensor:
#      x y z
#    x 3.500720 0.000000 0.000000 
#    y 0.000000 3.672280 0.000000 
#    z 0.000000 0.000000 3.434610 
# 
# 
# High freq. dielectric constant tensor:
#      x y z
#    x 1.791640 0.000000 0.000000 
#    y 0.000000 1.788130 0.000000 
#    z 0.000000 0.000000 1.805770 
# 
# From -- ./inp_files/28832.got.cif
#   From: 2010.03.12/outbox.cif.g09.slc.cpg/sg67_15_cif.got.tgz:28832.got - 2010.04.10 22:41:39.
