data_PCOD8279743
_publ_section_title
;
Structure prediction by ZEFSAII (Michael W. Deem and Ramdas Pophale) SiO2 
 PCOD8279743
Probable space group: C M M A
;
_chemical_formula_sum "Si O2"
_cell_formula_units_Z 88
_cell_length_a 26.760310
_cell_length_b 8.857476
_cell_length_c 19.376374
_cell_angle_alpha 90.000000
_cell_angle_beta 90.000000
_cell_angle_gamma 90.000000
_cell_volume 4592.758747
_symmetry_space_group_name_H-M "C M M A"
_symmetry_group_IT_number 67
_symmetry_cell_setting 'orthorhombic'
loop_
_space_group_symop_operation_xyz
x,y,z
-x,1/2-y,z
x,-y,-z
-x,1/2+y,-z
-x,-y,-z
x,1/2+y,-z
-x,y,z
x,1/2-y,z
1/2+x,1/2+y,z
1/2-x,-y,z
1/2+x,1/2-y,-z
1/2-x,y,-z
1/2-x,1/2-y,-z
1/2+x,y,-z
1/2-x,1/2+y,z
1/2+x,-y,z
loop_
_atom_site_type_symbol
_atom_site_label
_atom_site_fract_x
_atom_site_fract_y
_atom_site_fract_z
Si Si1 0.204659 0.577699 0.701634
Si Si2 0.094379 0.076545 0.304802
Si Si3 0.701720 0.574029 0.849063
Si Si4 0.000000 0.570460 0.925032
Si Si5 0.557500 0.584576 0.565276
Si Si6 0.909273 0.571643 0.156513
O O1 0.218009 0.750000 0.718275
O O2 0.250000 0.500000 0.657410
O O3 0.151013 0.564490 0.665330
O O4 0.201801 0.482969 0.771400
O O5 0.080032 0.250000 0.289220
O O6 0.060167 0.011393 0.364791
O O7 0.086786 0.981606 0.235487
O O8 0.710745 0.750000 0.852178
O O9 0.750000 0.500000 0.888935
O O10 0.645724 0.534536 0.876853
O O11 0.950226 0.516786 0.886771
O O12 0.000000 0.750000 0.929672
O O13 0.000000 0.500000 0.000000
O O14 0.583216 0.500000 0.500000
O O15 0.500000 0.608011 0.547455
O O16 0.582792 0.750000 0.574640
O O17 0.919960 0.750000 0.154284
#
# Coordination Sequence:
#
# PCOD8279743 Si02
#       6
#    16  16  16   8  16  16
#     4   9  16  26  43  69 102 137 173 214 262 315
#     4  10  20  33  52  80 110 141 179 223 269 317
#     4   9  16  27  48  77 110 144 177 221 272 320
#     4  12  26  44  64  84 111 150 187 226 274 328
#     4  10  21  36  53  73 100 137 177 220 272 327
#     4  10  21  37  57  84 115 148 188 230 274 325
#
# _framework density 19.160596999999999
#
# number of rings (size 3 to 8) (size 9 to 14) (size 15 to 20)
#    0.000    2.182    0.000    4.636    1.273    5.455 
#    0.000    0.000    0.000    1.091    0.000    7.636 
#    0.000    0.000    0.000    0.000    0.000    0.000 
#
# Total GULP energy -545109.851938 kJ/mol
# GULP energy per Si atom -12388.860271 kJ/mol
# Density = 1.911699 g / cm^3
# Si number density = 19.160597 Si / 1000 Ang^3
#
#
#
# Elastic Constant Matrix: (Units=GPa)
#
#
# Indices 1 2 3 4 5 6 
#
# 1 109.0483 66.8281 37.4278 0.0000 0.0000 0.0000
# 2 66.8281 135.4252 41.1517 0.0000 0.0000 0.0000
# 3 37.4278 41.1517 73.7137 0.0000 0.0000 0.0000
# 4 0.0000 0.0000 0.0000 24.7131 0.0000 0.0000
# 5 0.0000 0.0000 0.0000 0.0000 -1.9161 0.0000
# 6 0.0000 0.0000 0.0000 0.0000 0.0000 33.2284
#
#
#
# Elastic Compliance Matrix: (Units=1/GPa)
#
#
# Indices 1 2 3 4 5 6 
#
# 1 0.014029 -0.005730 -0.003924 0.000000 0.000000 0.000000
# 2 -0.005730 0.011233 -0.003362 0.000000 0.000000 0.000000
# 3 -0.003924 -0.003362 0.017435 0.000000 0.000000 0.000000
# 4 0.000000 0.000000 0.000000 0.040464 0.000000 0.000000
# 5 0.000000 0.000000 0.000000 0.000000 -0.521883 0.000000
# 6 0.000000 0.000000 0.000000 0.000000 0.000000 0.030095
#
#
# Mechanical properties :
#
#
# Convention : Reuss Voigt Hill
#
# Bulk Modulus (GPa) = 60.00509 67.66696 63.83603
# Shear Modulus (GPa) = -13.26122 22.72371 4.73124
#
# Velocity S-wave (km/s) = -2.63365 3.44751 1.57309
# Velocity P-wave (km/s) = 4.70497 7.15818 6.05707
#
# Compressibility (1/GPa) = 0.01666525
#
# Stress axis : x y z
#
# Youngs Moduli (GPa) = 71.28190 89.02010 57.35565
#
# Poissons Ratio (x) = 0.51012 0.22506
# Poissons Ratio (y) = 0.40847 0.19281
# Poissons Ratio (z) = 0.27971 0.29925
#
# Static dielectric constant tensor:
#      x y z
#    x 4.572900 0.000000 0.000000 
#    y 0.000000 3.811520 0.000000 
#    z 0.000000 0.000000 3.103780 
# 
# 
# High freq. dielectric constant tensor:
#      x y z
#    x 1.759070 0.000000 0.000000 
#    y 0.000000 1.769070 0.000000 
#    z 0.000000 0.000000 1.687410 
# 
# From -- ./inp_files/36133.got.cif
#   From: 2010.03.12/outbox.cif.g09.slc.cpg/sg67_19_cif.got.tgz:36133.got - 2010.04.10 22:41:39.
