data_PCOD8279962
_publ_section_title
;
Structure prediction by ZEFSAII (Michael W. Deem and Ramdas Pophale) SiO2 
 PCOD8279962
Probable space group: C M M A
;
_chemical_formula_sum "Si O2"
_cell_formula_units_Z 72
_cell_length_a 8.933315
_cell_length_b 15.474751
_cell_length_c 25.243889
_cell_angle_alpha 90.000000
_cell_angle_beta 90.000000
_cell_angle_gamma 90.000000
_cell_volume 3489.736047
_symmetry_space_group_name_H-M "C M M A"
_symmetry_group_IT_number 67
_symmetry_cell_setting 'orthorhombic'
loop_
_space_group_symop_operation_xyz
x,y,z
-x,1/2-y,z
x,-y,-z
-x,1/2+y,-z
-x,-y,-z
x,1/2+y,-z
-x,y,z
x,1/2-y,z
1/2+x,1/2+y,z
1/2-x,-y,z
1/2+x,1/2-y,-z
1/2-x,y,-z
1/2-x,1/2-y,-z
1/2+x,y,-z
1/2-x,1/2+y,z
1/2+x,-y,z
loop_
_atom_site_type_symbol
_atom_site_label
_atom_site_fract_x
_atom_site_fract_y
_atom_site_fract_z
Si Si1 0.177766 0.094448 0.368145
Si Si2 0.162883 0.348427 0.048892
Si Si3 0.175808 0.250000 0.443356
Si Si4 0.674860 0.092168 0.264156
Si Si5 0.325949 0.592348 0.851610
O O1 0.225414 0.162386 0.413282
O O2 0.240694 0.137308 0.313381
O O3 0.000000 0.083938 0.364326
O O4 0.250000 0.000000 0.379486
O O5 0.137297 0.250000 0.032832
O O6 0.254831 0.348734 0.103377
O O7 0.000000 0.393395 0.056033
O O8 0.250000 0.394790 0.000000
O O9 0.250000 0.250000 0.500000
O O10 0.000000 0.250000 0.450766
O O11 0.500000 0.083851 0.278036
O O12 0.697878 0.137206 0.206578
O O13 0.750000 0.000000 0.258798
O O14 0.500000 0.580679 0.863148
O O15 0.250000 0.500000 0.854626
#
# Coordination Sequence:
#
# PCOD8279962 Si02
#       5
#    16  16   8  16  16
#     4  10  20  37  60  86 117 154 195 237 288 343
#     4  10  21  37  55  74 100 137 179 223 275 331
#     4  10  24  42  60  86 120 156 195 242 287 336
#     4   9  17  31  53  81 110 144 180 221 273 328
#     4  10  20  34  54  80 110 139 176 224 273 328
#
# _framework density 20.631933
#
# number of rings (size 3 to 8) (size 9 to 14) (size 15 to 20)
#    0.000    2.222    0.000    4.000    0.000    6.667 
#    2.000    4.444    0.000    0.000    0.000    0.000 
#    0.000    0.000    0.000    0.000    0.000    0.000 
#
# Total GULP energy -446032.350434 kJ/mol
# GULP energy per Si atom -12389.787512 kJ/mol
# Density = 2.058497 g / cm^3
# Si number density = 20.631933 Si / 1000 Ang^3
#
#
#
# Elastic Constant Matrix: (Units=GPa)
#
#
# Indices 1 2 3 4 5 6 
#
# 1 147.7821 34.4767 85.7708 0.0000 0.0000 0.0000
# 2 34.4767 59.7579 47.8761 0.0000 0.0000 0.0000
# 3 85.7708 47.8761 198.9914 0.0000 0.0000 0.0000
# 4 0.0000 0.0000 0.0000 96.9654 0.0000 0.0000
# 5 0.0000 0.0000 0.0000 0.0000 39.8423 0.0000
# 6 0.0000 0.0000 0.0000 0.0000 0.0000 22.9185
#
#
#
# Elastic Compliance Matrix: (Units=1/GPa)
#
#
# Indices 1 2 3 4 5 6 
#
# 1 0.009360 -0.002685 -0.003388 0.000000 0.000000 0.000000
# 2 -0.002685 0.021501 -0.004015 0.000000 0.000000 0.000000
# 3 -0.003388 -0.004015 0.007452 0.000000 0.000000 0.000000
# 4 0.000000 0.000000 0.000000 0.010313 0.000000 0.000000
# 5 0.000000 0.000000 0.000000 0.000000 0.025099 0.000000
# 6 0.000000 0.000000 0.000000 0.000000 0.000000 0.043633
#
#
# Mechanical properties :
#
#
# Convention : Reuss Voigt Hill
#
# Bulk Modulus (GPa) = 55.14508 82.53095 68.83801
# Shear Modulus (GPa) = 34.82388 47.83909 41.33149
#
# Velocity S-wave (km/s) = 4.11282 4.82050 4.48065
# Velocity P-wave (km/s) = 7.02423 8.43039 7.75923
#
# Compressibility (1/GPa) = 0.01813398
#
# Stress axis : x y z
#
# Youngs Moduli (GPa) = 106.84136 46.51041 134.19546
#
# Poissons Ratio (x) = 0.12490 0.45468
# Poissons Ratio (y) = 0.28692 0.53885
# Poissons Ratio (z) = 0.36200 0.18676
#
# Static dielectric constant tensor:
#      x y z
#    x 4.077810 0.000000 0.000000 
#    y 0.000000 3.335440 0.000000 
#    z 0.000000 0.000000 4.669080 
# 
# 
# High freq. dielectric constant tensor:
#      x y z
#    x 1.823830 0.000000 0.000000 
#    y 0.000000 1.770030 0.000000 
#    z 0.000000 0.000000 1.821370 
# 
# From -- ./inp_files/40525.got.cif
#   From: 2010.03.12/outbox.cif.g09.slc.cpg/sg67_21_cif.got.tgz:40525.got - 2010.04.10 22:41:39.
