data_PCOD8279793
_publ_section_title
;
Structure prediction by ZEFSAII (Michael W. Deem and Ramdas Pophale) SiO2 
 PCOD8279793
Probable space group: C M M A
;
_chemical_formula_sum "Si O2"
_cell_formula_units_Z 88
_cell_length_a 15.751545
_cell_length_b 9.175386
_cell_length_c 30.137047
_cell_angle_alpha 90.000000
_cell_angle_beta 90.000000
_cell_angle_gamma 90.000000
_cell_volume 4355.602088
_symmetry_space_group_name_H-M "C M M A"
_symmetry_group_IT_number 67
_symmetry_cell_setting 'orthorhombic'
loop_
_space_group_symop_operation_xyz
x,y,z
-x,1/2-y,z
x,-y,-z
-x,1/2+y,-z
-x,-y,-z
x,1/2+y,-z
-x,y,z
x,1/2-y,z
1/2+x,1/2+y,z
1/2-x,-y,z
1/2+x,1/2-y,-z
1/2-x,y,-z
1/2-x,1/2-y,-z
1/2+x,y,-z
1/2-x,1/2+y,z
1/2+x,-y,z
loop_
_atom_site_type_symbol
_atom_site_label
_atom_site_fract_x
_atom_site_fract_y
_atom_site_fract_z
Si Si1 0.401170 0.590966 0.363553
Si Si2 0.500000 0.079011 0.953513
Si Si3 0.100922 0.410327 0.717182
Si Si4 0.840828 0.574689 0.542377
Si Si5 0.666038 0.077160 0.898351
Si Si6 0.598653 0.078777 0.184474
O O1 0.500000 0.601290 0.353964
O O2 0.358540 0.750000 0.362292
O O3 0.358411 0.501109 0.323420
O O4 0.387656 0.525078 0.412543
O O5 0.500000 0.250000 0.961969
O O6 0.584257 0.031135 0.927076
O O7 0.500000 0.000000 0.000000
O O8 0.139808 0.250000 0.712615
O O9 0.124316 0.473206 0.765799
O O10 0.000000 0.402747 0.713121
O O11 0.888403 0.500000 0.500000
O O12 0.836915 0.750000 0.536679
O O13 0.750000 0.500000 0.544912
O O14 0.679033 0.250000 0.897488
O O15 0.750000 0.000000 0.918836
O O16 0.654208 0.017792 0.848613
O O17 0.500000 0.046675 0.175577
O O18 0.617843 0.250000 0.177831
#
# Coordination Sequence:
#
# PCOD8279793 Si02
#       6
#    16   8  16  16  16  16
#     4   9  18  32  49  72 101 131 167 211 260 313
#     4  10  24  44  66  92 124 160 204 250 299 358
#     4   8  15  28  48  76 107 139 177 217 262 320
#     4  10  20  34  51  69  91 122 162 206 256 316
#     4  11  23  40  61  91 125 159 203 251 298 352
#     4   9  17  32  56  84 114 152 194 235 284 340
#
# _framework density 20.203865
#
# number of rings (size 3 to 8) (size 9 to 14) (size 15 to 20)
#    0.000    2.545    0.909    2.727    0.000    4.364 
#    0.000    4.545    0.000    2.182    0.000    0.000 
#    0.000    0.000    0.000    0.000    0.000    0.000 
#
# Total GULP energy -545285.347162 kJ/mol
# GULP energy per Si atom -12392.848799 kJ/mol
# Density = 2.015788 g / cm^3
# Si number density = 20.203865 Si / 1000 Ang^3
#
#
#
# Elastic Constant Matrix: (Units=GPa)
#
#
# Indices 1 2 3 4 5 6 
#
# 1 72.6583 38.2998 45.3539 0.0000 0.0000 0.0000
# 2 38.2998 85.9267 66.7779 0.0000 0.0000 0.0000
# 3 45.3539 66.7779 168.7514 0.0000 0.0000 0.0000
# 4 0.0000 0.0000 0.0000 41.8728 0.0000 0.0000
# 5 0.0000 0.0000 0.0000 0.0000 9.4886 0.0000
# 6 0.0000 0.0000 0.0000 0.0000 0.0000 23.6567
#
#
#
# Elastic Compliance Matrix: (Units=1/GPa)
#
#
# Indices 1 2 3 4 5 6 
#
# 1 0.018689 -0.006393 -0.002493 0.000000 0.000000 0.000000
# 2 -0.006393 0.018993 -0.005798 0.000000 0.000000 0.000000
# 3 -0.002493 -0.005798 0.008890 0.000000 0.000000 0.000000
# 4 0.000000 0.000000 0.000000 0.023882 0.000000 0.000000
# 5 0.000000 0.000000 0.000000 0.000000 0.105390 0.000000
# 6 0.000000 0.000000 0.000000 0.000000 0.000000 0.042271
#
#
# Mechanical properties :
#
#
# Convention : Reuss Voigt Hill
#
# Bulk Modulus (GPa) = 58.12253 69.79995 63.96124
# Shear Modulus (GPa) = 19.74592 26.79730 23.27161
#
# Velocity S-wave (km/s) = 3.12963 3.64585 3.39756
# Velocity P-wave (km/s) = 6.47224 7.23504 6.86424
#
# Compressibility (1/GPa) = 0.01720503
#
# Stress axis : x y z
#
# Youngs Moduli (GPa) = 53.50737 52.65138 112.48312
#
# Poissons Ratio (x) = 0.33658 0.28045
# Poissons Ratio (y) = 0.34205 0.65215
# Poissons Ratio (z) = 0.13341 0.30526
#
# Static dielectric constant tensor:
#      x y z
#    x 3.412600 0.000000 0.000000 
#    y 0.000000 3.832620 0.000000 
#    z 0.000000 0.000000 4.055240 
# 
# 
# High freq. dielectric constant tensor:
#      x y z
#    x 1.762300 0.000000 0.000000 
#    y 0.000000 1.783280 0.000000 
#    z 0.000000 0.000000 1.801450 
# 
# From -- ./inp_files/45766.got.cif
#   From: 2010.03.12/outbox.cif.g09.slc.cpg/sg67_23_cif.got.tgz:45766.got - 2010.04.10 22:41:39.
