data_PCOD8279505
_publ_section_title
;
Structure prediction by ZEFSAII (Michael W. Deem and Ramdas Pophale) SiO2 
 PCOD8279505
Probable space group: C M M A
;
_chemical_formula_sum "Si O2"
_cell_formula_units_Z 64
_cell_length_a 8.528442
_cell_length_b 27.716495
_cell_length_c 14.365545
_cell_angle_alpha 90.000000
_cell_angle_beta 90.000000
_cell_angle_gamma 90.000000
_cell_volume 3395.706267
_symmetry_space_group_name_H-M "C M M A"
_symmetry_group_IT_number 67
_symmetry_cell_setting 'orthorhombic'
loop_
_space_group_symop_operation_xyz
x,y,z
-x,1/2-y,z
x,-y,-z
-x,1/2+y,-z
-x,-y,-z
x,1/2+y,-z
-x,y,z
x,1/2-y,z
1/2+x,1/2+y,z
1/2-x,-y,z
1/2+x,1/2-y,-z
1/2-x,y,-z
1/2-x,1/2-y,-z
1/2+x,y,-z
1/2-x,1/2+y,z
1/2+x,-y,z
loop_
_atom_site_type_symbol
_atom_site_label
_atom_site_fract_x
_atom_site_fract_y
_atom_site_fract_z
Si Si1 0.183766 0.552767 0.901313
Si Si2 0.813702 0.195384 0.600675
Si Si3 0.673750 0.195462 0.901427
Si Si4 0.320382 0.628965 0.765066
O O1 0.250000 0.500000 0.882737
O O2 0.225007 0.584456 0.809913
O O3 0.000000 0.549279 0.912383
O O4 0.250000 0.574028 0.000000
O O5 0.755187 0.250000 0.628145
O O6 0.750000 0.181310 0.500000
O O7 0.753149 0.152053 0.668648
O O8 0.000000 0.195080 0.600880
O O9 0.500000 0.170257 0.897530
O O10 0.651839 0.250000 0.871441
O O11 0.802944 0.173193 0.834755
O O12 0.750000 0.189607 0.000000
O O13 0.500000 0.612881 0.754350
#
# Coordination Sequence:
#
# PCOD8279505 Si02
#       4
#    16  16  16  16
#     4  11  22  38  58  81 109 141 178 220 267 317
#     4   9  19  35  55  79 108 142 179 220 265 314
#     4  10  20  32  46  68 100 137 174 212 255 306
#     4  11  21  34  53  77 105 138 176 217 264 316
#
# _framework density 18.847332000000002
#
# number of rings (size 3 to 8) (size 9 to 14) (size 15 to 20)
#    0.000    1.750    0.000    6.000    0.000    4.500 
#    0.000    2.500    0.000    0.750    0.000    5.250 
#    0.000    0.000    0.000    0.000    0.000    0.000 
#
# Total GULP energy -396427.413278 kJ/mol
# GULP energy per Si atom -12388.356665 kJ/mol
# Density = 1.880443 g / cm^3
# Si number density = 18.847332 Si / 1000 Ang^3
#
#
#
# Elastic Constant Matrix: (Units=GPa)
#
#
# Indices 1 2 3 4 5 6 
#
# 1 86.1614 29.0997 40.0618 0.0000 0.0000 0.0000
# 2 29.0997 103.7829 52.7576 0.0000 0.0000 0.0000
# 3 40.0618 52.7576 161.7311 0.0000 0.0000 0.0000
# 4 0.0000 0.0000 0.0000 34.6733 0.0000 0.0000
# 5 0.0000 0.0000 0.0000 0.0000 31.1481 0.0000
# 6 0.0000 0.0000 0.0000 0.0000 0.0000 30.5093
#
#
#
# Elastic Compliance Matrix: (Units=1/GPa)
#
#
# Indices 1 2 3 4 5 6 
#
# 1 0.013648 -0.002527 -0.002556 0.000000 0.000000 0.000000
# 2 -0.002527 0.012019 -0.003295 0.000000 0.000000 0.000000
# 3 -0.002556 -0.003295 0.007891 0.000000 0.000000 0.000000
# 4 0.000000 0.000000 0.000000 0.028841 0.000000 0.000000
# 5 0.000000 0.000000 0.000000 0.000000 0.032105 0.000000
# 6 0.000000 0.000000 0.000000 0.000000 0.000000 0.032777
#
#
# Mechanical properties :
#
#
# Convention : Reuss Voigt Hill
#
# Bulk Modulus (GPa) = 59.51779 66.16820 62.84299
# Shear Modulus (GPa) = 33.41405 34.58322 33.99864
#
# Velocity S-wave (km/s) = 4.21513 4.28824 4.25184
# Velocity P-wave (km/s) = 7.43890 7.72673 7.58418
#
# Compressibility (1/GPa) = 0.01680170
#
# Stress axis : x y z
#
# Youngs Moduli (GPa) = 73.26921 83.20199 126.72589
#
# Poissons Ratio (x) = 0.21028 0.32395
# Poissons Ratio (y) = 0.18518 0.41751
# Poissons Ratio (z) = 0.18730 0.27412
#
# Static dielectric constant tensor:
#      x y z
#    x 3.591700 0.000000 0.000000 
#    y 0.000000 3.570670 0.000000 
#    z 0.000000 0.000000 2.267410 
# 
# 
# High freq. dielectric constant tensor:
#      x y z
#    x 1.739980 0.000000 0.000000 
#    y 0.000000 1.723350 0.000000 
#    z 0.000000 0.000000 1.719410 
# 
# From -- ./inp_files/15802.got.cif
#   From: 2010.03.12/outbox.cif.g09.slc.cpg/sg67_8_cif.got.tgz:15802.got - 2010.04.10 22:41:39.
