data_PCOD8279897
_publ_section_title
;
Structure prediction by ZEFSAII (Michael W. Deem and Ramdas Pophale) SiO2 
 PCOD8279897
Probable space group: C M M A
;
_chemical_formula_sum "Si O2"
_cell_formula_units_Z 64
_cell_length_a 8.670032
_cell_length_b 39.773037
_cell_length_c 10.125878
_cell_angle_alpha 90.000000
_cell_angle_beta 90.000000
_cell_angle_gamma 90.000000
_cell_volume 3491.741987
_symmetry_space_group_name_H-M "C M M A"
_symmetry_group_IT_number 67
_symmetry_cell_setting 'orthorhombic'
loop_
_space_group_symop_operation_xyz
x,y,z
-x,1/2-y,z
x,-y,-z
-x,1/2+y,-z
-x,-y,-z
x,1/2+y,-z
-x,y,z
x,1/2-y,z
1/2+x,1/2+y,z
1/2-x,-y,z
1/2+x,1/2-y,-z
1/2-x,y,-z
1/2-x,1/2-y,-z
1/2+x,y,-z
1/2-x,1/2+y,z
1/2+x,-y,z
loop_
_atom_site_type_symbol
_atom_site_label
_atom_site_fract_x
_atom_site_fract_y
_atom_site_fract_z
Si Si1 0.317819 0.464078 0.360524
Si Si2 0.182174 0.212049 0.362583
Si Si3 0.317563 0.089204 0.139981
Si Si4 0.683207 0.339036 0.859565
O O1 0.500000 0.467179 0.373698
O O2 0.250000 0.500000 0.319240
O O3 0.250000 0.451740 0.500000
O O4 0.267870 0.437688 0.249349
O O5 0.240290 0.250000 0.334080
O O6 0.250000 0.198557 0.500000
O O7 0.242347 0.188138 0.246138
O O8 0.000000 0.210729 0.372522
O O9 0.500000 0.092809 0.127271
O O10 0.247102 0.124772 0.183136
O O11 0.250000 0.077184 0.000000
O O12 0.500000 0.340709 0.868000
O O13 0.750000 0.327734 0.000000
#
# Coordination Sequence:
#
# PCOD8279897 Si02
#       4
#    16  16  16  16
#     4  10  21  36  55  78 104 135 170 209 253 301
#     4   9  19  35  53  75 103 134 170 211 254 301
#     4  10  21  36  54  77 104 135 171 210 253 301
#     4  10  20  34  53  76 103 135 170 210 254 301
#
# _framework density 18.328959999999999
#
# number of rings (size 3 to 8) (size 9 to 14) (size 15 to 20)
#    0.000    2.250    0.000    4.500    0.000    8.000 
#    0.000    7.500    0.000    0.000    0.000    0.000 
#    0.000    0.000    0.000    0.000    0.000    0.000 
#
# Total GULP energy -396872.107500 kJ/mol
# GULP energy per Si atom -12402.253359 kJ/mol
# Density = 1.828724 g / cm^3
# Si number density = 18.328960 Si / 1000 Ang^3
#
#
#
# Elastic Constant Matrix: (Units=GPa)
#
#
# Indices 1 2 3 4 5 6 
#
# 1 71.6434 46.3705 54.1247 0.0000 0.0000 0.0000
# 2 46.3705 130.9739 124.4459 0.0000 0.0000 0.0000
# 3 54.1247 124.4459 173.2371 0.0000 0.0000 0.0000
# 4 0.0000 0.0000 0.0000 45.6077 0.0000 0.0000
# 5 0.0000 0.0000 0.0000 0.0000 29.4747 0.0000
# 6 0.0000 0.0000 0.0000 0.0000 0.0000 21.8910
#
#
#
# Elastic Compliance Matrix: (Units=1/GPa)
#
#
# Indices 1 2 3 4 5 6 
#
# 1 0.018732 -0.003374 -0.003429 0.000000 0.000000 0.000000
# 2 -0.003374 0.024659 -0.016660 0.000000 0.000000 0.000000
# 3 -0.003429 -0.016660 0.018811 0.000000 0.000000 0.000000
# 4 0.000000 0.000000 0.000000 0.021926 0.000000 0.000000
# 5 0.000000 0.000000 0.000000 0.000000 0.033927 0.000000
# 6 0.000000 0.000000 0.000000 0.000000 0.000000 0.045681
#
#
# Mechanical properties :
#
#
# Convention : Reuss Voigt Hill
#
# Bulk Modulus (GPa) = 65.45672 91.74851 78.60262
# Shear Modulus (GPa) = 23.17437 29.45555 26.31496
#
# Velocity S-wave (km/s) = 3.55964 4.01315 3.79318
# Velocity P-wave (km/s) = 7.25840 8.46399 7.88427
#
# Compressibility (1/GPa) = 0.01527727
#
# Stress axis : x y z
#
# Youngs Moduli (GPa) = 53.38393 40.55251 53.15926
#
# Poissons Ratio (x) = 0.13684 0.18226
# Poissons Ratio (y) = 0.18014 0.88563
# Poissons Ratio (z) = 0.18303 0.67560
#
# Static dielectric constant tensor:
#      x y z
#    x 3.404940 0.000000 0.000000 
#    y 0.000000 3.518920 0.000000 
#    z 0.000000 0.000000 3.521350 
# 
# 
# High freq. dielectric constant tensor:
#      x y z
#    x 1.720920 0.000000 0.000000 
#    y 0.000000 1.711700 0.000000 
#    z 0.000000 0.000000 1.716980 
# 
# From -- ./inp_files/15800.got.cif
#   From: 2010.03.12/outbox.cif.g09.slc.cpg/sg67_8_cif.got.tgz:15800.got - 2010.04.10 22:41:39.
