data_PCOD8279443
_publ_section_title
;
Structure prediction by ZEFSAII (Michael W. Deem and Ramdas Pophale) SiO2 
 PCOD8279443
Probable space group: C M M A
;
_chemical_formula_sum "Si O2"
_cell_formula_units_Z 128
_cell_length_a 17.368306
_cell_length_b 24.678300
_cell_length_c 18.260163
_cell_angle_alpha 90.000000
_cell_angle_beta 90.000000
_cell_angle_gamma 90.000000
_cell_volume 7826.675922
_symmetry_space_group_name_H-M "C M M A"
_symmetry_group_IT_number 67
_symmetry_cell_setting 'orthorhombic'
loop_
_space_group_symop_operation_xyz
x,y,z
-x,1/2-y,z
x,-y,-z
-x,1/2+y,-z
-x,-y,-z
x,1/2+y,-z
-x,y,z
x,1/2-y,z
1/2+x,1/2+y,z
1/2-x,-y,z
1/2+x,1/2-y,-z
1/2-x,y,-z
1/2-x,1/2-y,-z
1/2+x,y,-z
1/2-x,1/2+y,z
1/2+x,-y,z
loop_
_atom_site_type_symbol
_atom_site_label
_atom_site_fract_x
_atom_site_fract_y
_atom_site_fract_z
Si Si1 0.908794 0.810565 0.921878
Si Si2 0.839857 0.494769 0.884005
Si Si3 0.911168 0.498786 0.730514
Si Si4 0.145536 0.898269 0.656136
Si Si5 0.086880 0.686768 0.758827
Si Si6 0.585782 0.935155 0.498804
Si Si7 0.798254 0.053349 0.618242
Si Si8 0.339021 0.588987 0.005950
O O1 0.879321 0.750000 0.943432
O O2 0.878413 0.825983 0.839965
O O3 0.881823 0.853935 0.982427
O O4 0.000000 0.809840 0.919009
O O5 0.750000 0.500000 0.862232
O O6 0.894219 0.488223 0.814817
O O7 0.861161 0.549047 0.927847
O O8 0.860670 0.441315 0.930828
O O9 0.890001 0.560572 0.714775
O O10 0.858742 0.460076 0.681383
O O11 0.000000 0.486544 0.712585
O O12 0.133699 0.839712 0.691808
O O13 0.102578 0.908519 0.579483
O O14 0.237328 0.903559 0.648052
O O15 0.090182 0.750000 0.743923
O O16 0.000000 0.664839 0.754821
O O17 0.500000 0.916020 0.523147
O O18 0.654001 0.917486 0.553419
O O19 0.587880 0.000000 0.500000
O O20 0.750000 0.000000 0.591968
O O21 0.250000 0.602528 0.000000
#
# Coordination Sequence:
#
# PCOD8279443 Si02
#       8
#    16  16  16  16  16  16  16  16
#     4   9  18  32  50  70  93 120 151 195 244 284
#     4   9  18  32  45  64  93 127 154 188 232 281
#     4  11  20  29  43  67  96 126 161 190 225 281
#     4  11  20  29  48  71  94 129 159 189 237 287
#     4   9  18  33  51  73  98 121 153 198 244 286
#     4  11  19  29  45  67  96 127 162 197 229 273
#     4  10  20  30  44  63  95 128 156 190 232 273
#     4   9  18  31  48  66  92 122 155 189 231 285
#
# _framework density 16.354324999999999
#
# number of rings (size 3 to 8) (size 9 to 14) (size 15 to 20)
#    0.000    2.125    2.500    5.250    0.000    3.250 
#    0.000    1.250    0.000    1.500    0.000    0.000 
#    0.000    1.500    0.000    0.250    0.000    0.000 
#
# Total GULP energy -793263.718724 kJ/mol
# GULP energy per Si atom -12394.745605 kJ/mol
# Density = 1.631710 g / cm^3
# Si number density = 16.354325 Si / 1000 Ang^3
#
#
#
# Elastic Constant Matrix: (Units=GPa)
#
#
# Indices 1 2 3 4 5 6 
#
# 1 96.9382 30.4696 40.2432 0.0000 0.0000 0.0000
# 2 30.4696 70.6063 39.4557 0.0000 0.0000 0.0000
# 3 40.2432 39.4557 92.1761 0.0000 0.0000 0.0000
# 4 0.0000 0.0000 0.0000 24.4422 0.0000 0.0000
# 5 0.0000 0.0000 0.0000 0.0000 27.2884 0.0000
# 6 0.0000 0.0000 0.0000 0.0000 0.0000 31.9274
#
#
#
# Elastic Compliance Matrix: (Units=1/GPa)
#
#
# Indices 1 2 3 4 5 6 
#
# 1 0.013140 -0.003240 -0.004350 0.000000 0.000000 0.000000
# 2 -0.003240 0.019415 -0.006896 0.000000 0.000000 0.000000
# 3 -0.004350 -0.006896 0.015700 0.000000 0.000000 0.000000
# 4 0.000000 0.000000 0.000000 0.040913 0.000000 0.000000
# 5 0.000000 0.000000 0.000000 0.000000 0.036646 0.000000
# 6 0.000000 0.000000 0.000000 0.000000 0.000000 0.031321
#
#
# Mechanical properties :
#
#
# Convention : Reuss Voigt Hill
#
# Bulk Modulus (GPa) = 51.85891 53.33975 52.59933
# Shear Modulus (GPa) = 25.96953 26.70171 26.33562
#
# Velocity S-wave (km/s) = 3.98921 4.04505 4.01723
# Velocity P-wave (km/s) = 7.27989 7.38258 7.33141
#
# Compressibility (1/GPa) = 0.01928309
#
# Stress axis : x y z
#
# Youngs Moduli (GPa) = 76.10329 51.50751 63.69493
#
# Poissons Ratio (x) = 0.16686 0.27708
# Poissons Ratio (y) = 0.24654 0.43924
# Poissons Ratio (z) = 0.33106 0.35520
#
# Static dielectric constant tensor:
#      x y z
#    x 3.184370 0.000000 0.000000 
#    y 0.000000 2.874550 0.000000 
#    z 0.000000 0.000000 3.151040 
# 
# 
# High freq. dielectric constant tensor:
#      x y z
#    x 1.630370 0.000000 0.000000 
#    y 0.000000 1.590480 0.000000 
#    z 0.000000 0.000000 1.632030 
# 
# From -- ./inp_files/34552.got.cif
#   From: 2010.03.12/outbox.cif.g09.slc.cpg/sg67_18_cif.got.tgz:34552.got - 2010.04.10 22:41:39.
