data_PCOD8279614
_publ_section_title
;
Structure prediction by ZEFSAII (Michael W. Deem and Ramdas Pophale) SiO2 
 PCOD8279614
Probable space group: C M M A
;
_chemical_formula_sum "Si O2"
_cell_formula_units_Z 96
_cell_length_a 18.323620
_cell_length_b 17.706641
_cell_length_c 16.676999
_cell_angle_alpha 90.000000
_cell_angle_beta 90.000000
_cell_angle_gamma 90.000000
_cell_volume 5410.848342
_symmetry_space_group_name_H-M "C M M A"
_symmetry_group_IT_number 67
_symmetry_cell_setting 'orthorhombic'
loop_
_space_group_symop_operation_xyz
x,y,z
-x,1/2-y,z
x,-y,-z
-x,1/2+y,-z
-x,-y,-z
x,1/2+y,-z
-x,y,z
x,1/2-y,z
1/2+x,1/2+y,z
1/2-x,-y,z
1/2+x,1/2-y,-z
1/2-x,y,-z
1/2-x,1/2-y,-z
1/2+x,y,-z
1/2-x,1/2+y,z
1/2+x,-y,z
loop_
_atom_site_type_symbol
_atom_site_label
_atom_site_fract_x
_atom_site_fract_y
_atom_site_fract_z
Si Si1 0.203478 0.839135 0.757003
Si Si2 0.152734 0.838776 0.330633
Si Si3 0.833515 0.410911 0.505919
Si Si4 0.724506 0.159690 0.085161
Si Si5 0.082559 0.839585 0.640830
Si Si6 0.580092 0.839504 0.832146
O O1 0.206985 0.750000 0.763838
O O2 0.266456 0.865048 0.695830
O O3 0.219012 0.870661 0.846643
O O4 0.126164 0.866384 0.720940
O O5 0.149183 0.750000 0.349322
O O6 0.131545 0.884451 0.410095
O O7 0.097373 0.861913 0.259694
O O8 0.838206 0.500000 0.500000
O O9 0.750000 0.382124 0.500000
O O10 0.881916 0.375024 0.437025
O O11 0.724739 0.250000 0.082139
O O12 0.642859 0.130157 0.107372
O O13 0.750000 0.125599 0.000000
O O14 0.086693 0.750000 0.631705
O O15 0.000000 0.868227 0.650527
O O16 0.500000 0.872111 0.855624
O O17 0.579789 0.750000 0.838219
#
# Coordination Sequence:
#
# PCOD8279614 Si02
#       6
#    16  16  16  16  16  16
#     4   8  14  26  43  62  85 116 154 191 224 267
#     4   9  16  28  48  66  85 121 160 192 230 273
#     4  11  22  33  47  69  96 124 155 194 240 286
#     4   8  13  22  38  61  90 123 151 177 224 282
#     4  10  20  33  49  67  89 123 165 200 230 271
#     4   8  14  24  39  62  89 115 151 195 228 263
#
# _framework density 17.742135000000001
#
# number of rings (size 3 to 8) (size 9 to 14) (size 15 to 20)
#    0.000    3.000    1.667    2.500    0.000    1.667 
#    0.000    2.500    0.000    5.000    0.000    0.000 
#    0.000   10.667    0.000    7.500    0.000    8.333 
#
# Total GULP energy -594823.182645 kJ/mol
# GULP energy per Si atom -12392.149638 kJ/mol
# Density = 1.770175 g / cm^3
# Si number density = 17.742135 Si / 1000 Ang^3
#
#
#
# Elastic Constant Matrix: (Units=GPa)
#
#
# Indices 1 2 3 4 5 6 
#
# 1 158.7345 17.5746 86.2472 0.0000 0.0000 0.0000
# 2 17.5746 18.4257 22.7604 0.0000 0.0000 0.0000
# 3 86.2472 22.7604 163.4646 0.0000 0.0000 0.0000
# 4 0.0000 0.0000 0.0000 -1.3661 0.0000 0.0000
# 5 0.0000 0.0000 0.0000 0.0000 23.8839 0.0000
# 6 0.0000 0.0000 0.0000 0.0000 0.0000 9.9712
#
#
#
# Elastic Compliance Matrix: (Units=1/GPa)
#
#
# Indices 1 2 3 4 5 6 
#
# 1 0.008993 -0.003281 -0.004288 0.000000 0.000000 0.000000
# 2 -0.003281 0.066742 -0.007562 0.000000 0.000000 0.000000
# 3 -0.004288 -0.007562 0.009433 0.000000 0.000000 0.000000
# 4 0.000000 0.000000 0.000000 -0.731987 0.000000 0.000000
# 5 0.000000 0.000000 0.000000 0.000000 0.041869 0.000000
# 6 0.000000 0.000000 0.000000 0.000000 0.000000 0.100289
#
#
# Mechanical properties :
#
#
# Convention : Reuss Voigt Hill
#
# Bulk Modulus (GPa) = 18.21283 65.97658 42.09471
# Shear Modulus (GPa) = -10.96259 20.76730 4.90235
#
# Velocity S-wave (km/s) = -2.48842 3.42498 1.66407
# Velocity P-wave (km/s) = 1.42522 7.27377 5.24114
#
# Compressibility (1/GPa) = 0.05490634
#
# Stress axis : x y z
#
# Youngs Moduli (GPa) = 111.19825 14.98306 106.01180
#
# Poissons Ratio (x) = 0.04916 0.45459
# Poissons Ratio (y) = 0.36481 0.80166
# Poissons Ratio (z) = 0.47683 0.11330
#
# Static dielectric constant tensor:
#      x y z
#    x 3.758100 0.000000 0.000000 
#    y 0.000000 2.562850 0.000000 
#    z 0.000000 0.000000 3.603810 
# 
# 
# High freq. dielectric constant tensor:
#      x y z
#    x 1.685040 0.000000 0.000000 
#    y 0.000000 1.626070 0.000000 
#    z 0.000000 0.000000 1.687720 
# 
# From -- ./inp_files/34197.got.cif
#   From: 2010.03.12/outbox.cif.g09.slc.cpg/sg67_18_cif.got.tgz:34197.got - 2010.04.10 22:41:39.
