data_PCOD8279264
_publ_section_title
;
Structure prediction by ZEFSAII (Michael W. Deem and Ramdas Pophale) SiO2 
 PCOD8279264
Probable space group: C M M A
;
_chemical_formula_sum "Si O2"
_cell_formula_units_Z 80
_cell_length_a 7.654275
_cell_length_b 18.982415
_cell_length_c 29.097036
_cell_angle_alpha 90.000000
_cell_angle_beta 90.000000
_cell_angle_gamma 90.000000
_cell_volume 4227.701116
_symmetry_space_group_name_H-M "C M M A"
_symmetry_group_IT_number 67
_symmetry_cell_setting 'orthorhombic'
loop_
_space_group_symop_operation_xyz
x,y,z
-x,1/2-y,z
x,-y,-z
-x,1/2+y,-z
-x,-y,-z
x,1/2+y,-z
-x,y,z
x,1/2-y,z
1/2+x,1/2+y,z
1/2-x,-y,z
1/2+x,1/2-y,-z
1/2-x,y,-z
1/2-x,1/2-y,-z
1/2+x,y,-z
1/2-x,1/2+y,z
1/2+x,-y,z
loop_
_atom_site_type_symbol
_atom_site_label
_atom_site_fract_x
_atom_site_fract_y
_atom_site_fract_z
Si Si1 0.000000 0.834287 0.719029
Si Si2 0.794563 0.577997 0.868464
Si Si3 0.197138 0.919478 0.233469
Si Si4 0.500000 0.833605 0.386048
Si Si5 0.295067 0.171716 0.950628
Si Si6 0.805504 0.666094 0.450086
O O1 0.825586 0.865374 0.741560
O O2 0.000000 0.858948 0.666240
O O3 0.000000 0.750000 0.724830
O O4 0.750000 0.500000 0.884856
O O5 0.700203 0.596037 0.820825
O O6 0.716133 0.627409 0.908501
O O7 0.000000 0.587869 0.860722
O O8 0.000000 0.906492 0.251341
O O9 0.250000 0.000000 0.243575
O O10 0.500000 0.750000 0.388677
O O11 0.327602 0.863303 0.411668
O O12 0.500000 0.174641 0.943993
O O13 0.212398 0.250000 0.948855
O O14 0.250000 0.136734 0.000000
O O15 0.800418 0.750000 0.451035
O O16 0.750000 0.636970 0.500000
O O17 0.000000 0.639046 0.437937
#
# Coordination Sequence:
#
# PCOD8279264 Si02
#       6
#     8  16  16   8  16  16
#     4  11  24  40  58  90 130 155 191 257 308 351
#     4  10  19  34  55  82 106 137 182 238 286 334
#     4  11  21  40  66  87 112 158 204 245 300 362
#     4   9  18  30  44  70 113 152 181 235 301 338
#     4   9  19  34  51  72 104 144 178 217 275 338
#     4   9  14  22  40  65  97 146 197 229 272 346
#
# _framework density 18.922813999999999
#
# number of rings (size 3 to 8) (size 9 to 14) (size 15 to 20)
#    0.000    2.200    3.000    1.800    0.000    4.000 
#    0.000    4.000    0.000    0.000    0.000    0.000 
#    0.000    2.400    0.000    0.000    0.000    0.000 
#
# Total GULP energy -495904.396098 kJ/mol
# GULP energy per Si atom -12397.609902 kJ/mol
# Density = 1.887974 g / cm^3
# Si number density = 18.922814 Si / 1000 Ang^3
#
#
#
# Elastic Constant Matrix: (Units=GPa)
#
#
# Indices 1 2 3 4 5 6 
#
# 1 139.0433 35.4824 53.4525 0.0000 0.0000 0.0000
# 2 35.4824 65.2048 61.4263 0.0000 0.0000 0.0000
# 3 53.4525 61.4263 136.7961 0.0000 0.0000 0.0000
# 4 0.0000 0.0000 0.0000 5.3428 0.0000 0.0000
# 5 0.0000 0.0000 0.0000 0.0000 24.5223 0.0000
# 6 0.0000 0.0000 0.0000 0.0000 0.0000 20.5169
#
#
#
# Elastic Compliance Matrix: (Units=1/GPa)
#
#
# Indices 1 2 3 4 5 6 
#
# 1 0.008722 -0.002661 -0.002213 0.000000 0.000000 0.000000
# 2 -0.002661 0.027392 -0.011260 0.000000 0.000000 0.000000
# 3 -0.002213 -0.011260 0.013231 0.000000 0.000000 0.000000
# 4 0.000000 0.000000 0.000000 0.187166 0.000000 0.000000
# 5 0.000000 0.000000 0.000000 0.000000 0.040779 0.000000
# 6 0.000000 0.000000 0.000000 0.000000 0.000000 0.048740
#
#
# Mechanical properties :
#
#
# Convention : Reuss Voigt Hill
#
# Bulk Modulus (GPa) = 58.56145 71.30738 64.93441
# Shear Modulus (GPa) = 13.73656 22.78861 18.26258
#
# Velocity S-wave (km/s) = 2.69722 3.47406 3.10999
# Velocity P-wave (km/s) = 6.38081 7.33875 6.87648
#
# Compressibility (1/GPa) = 0.01707608
#
# Stress axis : x y z
#
# Youngs Moduli (GPa) = 114.65374 36.50676 75.57983
#
# Poissons Ratio (x) = 0.09716 0.16726
# Poissons Ratio (y) = 0.30515 0.85104
# Poissons Ratio (z) = 0.25372 0.41107
#
# Static dielectric constant tensor:
#      x y z
#    x 3.599180 0.000000 0.000000 
#    y 0.000000 8.161260 0.000000 
#    z 0.000000 0.000000 3.601520 
# 
# 
# High freq. dielectric constant tensor:
#      x y z
#    x 1.747940 0.000000 0.000000 
#    y 0.000000 1.690290 0.000000 
#    z 0.000000 0.000000 1.736360 
# 
# From -- ./inp_files/40595.got.cif
#   From: 2010.03.12/outbox.cif.g09.slc.cpg/sg67_21_cif.got.tgz:40595.got - 2010.04.10 22:41:39.
