data_PCOD8279061
_publ_section_title
;
Structure prediction by ZEFSAII (Michael W. Deem and Ramdas Pophale) SiO2 
 PCOD8279061
Probable space group: C M M A
;
_chemical_formula_sum "Si O2"
_cell_formula_units_Z 52
_cell_length_a 10.195206
_cell_length_b 19.544655
_cell_length_c 14.974572
_cell_angle_alpha 90.000000
_cell_angle_beta 90.000000
_cell_angle_gamma 90.000000
_cell_volume 2983.859930
_symmetry_space_group_name_H-M "C M M A"
_symmetry_group_IT_number 67
_symmetry_cell_setting 'orthorhombic'
loop_
_space_group_symop_operation_xyz
x,y,z
-x,1/2-y,z
x,-y,-z
-x,1/2+y,-z
-x,-y,-z
x,1/2+y,-z
-x,y,z
x,1/2-y,z
1/2+x,1/2+y,z
1/2-x,-y,z
1/2+x,1/2-y,-z
1/2-x,y,-z
1/2-x,1/2-y,-z
1/2+x,y,-z
1/2-x,1/2+y,z
1/2+x,-y,z
loop_
_atom_site_type_symbol
_atom_site_label
_atom_site_fract_x
_atom_site_fract_y
_atom_site_fract_z
Si Si1 0.000000 0.669267 0.924369
Si Si2 0.750000 0.000000 0.500000
Si Si3 0.000000 0.830853 0.122778
Si Si4 0.851289 0.554391 0.671289
Si Si5 0.271827 0.830555 0.206611
O O1 0.130001 0.646077 0.871965
O O2 0.000000 0.750000 0.933570
O O3 0.000000 0.636177 0.023360
O O4 0.838685 0.950866 0.563246
O O5 0.127421 0.854154 0.177304
O O6 0.000000 0.750000 0.111810
O O7 0.750000 0.500000 0.716405
O O8 0.811398 0.630349 0.702838
O O9 0.000000 0.537279 0.699988
O O10 0.281690 0.750000 0.226695
#
# Coordination Sequence:
#
# PCOD8279061 Si02
#       5
#     8   4   8  16  16
#     4   9  16  30  51  77 110 144 180 213 255 313
#     4   8  22  36  60  80  96 140 184 204 262 332
#     4   9  18  30  49  81 114 144 176 213 257 311
#     4  10  21  37  58  79 105 136 180 214 263 324
#     4  10  19  32  55  83 109 139 177 222 266 301
#
# _framework density 17.427091999999998
#
# number of rings (size 3 to 8) (size 9 to 14) (size 15 to 20)
#    0.923    1.538    1.538    1.385    2.154    3.692 
#    0.000    0.769    0.000    5.538    0.000    0.000 
#    0.000    0.000    0.000    0.000    0.000    0.000 
#
# Total GULP energy -322193.901634 kJ/mol
# GULP energy per Si atom -12392.073140 kJ/mol
# Density = 1.738743 g / cm^3
# Si number density = 17.427092 Si / 1000 Ang^3
#
#
#
# Elastic Constant Matrix: (Units=GPa)
#
#
# Indices 1 2 3 4 5 6 
#
# 1 171.8874 44.0388 50.5225 0.0000 0.0000 0.0000
# 2 44.0388 63.6790 48.0273 0.0000 0.0000 0.0000
# 3 50.5225 48.0273 106.2401 0.0000 0.0000 0.0000
# 4 0.0000 0.0000 0.0000 26.1142 0.0000 0.0000
# 5 0.0000 0.0000 0.0000 0.0000 -17.5224 0.0000
# 6 0.0000 0.0000 0.0000 0.0000 0.0000 19.5091
#
#
#
# Elastic Compliance Matrix: (Units=1/GPa)
#
#
# Indices 1 2 3 4 5 6 
#
# 1 0.007291 -0.003683 -0.001802 0.000000 0.000000 0.000000
# 2 -0.003683 0.025688 -0.009861 0.000000 0.000000 0.000000
# 3 -0.001802 -0.009861 0.014728 0.000000 0.000000 0.000000
# 4 0.000000 0.000000 0.000000 0.038293 0.000000 0.000000
# 5 0.000000 0.000000 0.000000 0.000000 -0.057070 0.000000
# 6 0.000000 0.000000 0.000000 0.000000 0.000000 0.051258
#
#
# Mechanical properties :
#
#
# Convention : Reuss Voigt Hill
#
# Bulk Modulus (GPa) = 58.77576 69.66486 64.22031
# Shear Modulus (GPa) = 42.89880 18.90138 30.90009
#
# Velocity S-wave (km/s) = 4.96685 3.29690 4.21540
# Velocity P-wave (km/s) = 8.16656 7.38610 7.78612
#
# Compressibility (1/GPa) = 0.01701382
#
# Stress axis : x y z
#
# Youngs Moduli (GPa) = 137.15284 38.92815 67.89928
#
# Poissons Ratio (x) = 0.14337 0.12238
# Poissons Ratio (y) = 0.50514 0.66958
# Poissons Ratio (z) = 0.24720 0.38388
#
# Static dielectric constant tensor:
#      x y z
#    x 3.459060 0.000000 0.000000 
#    y 0.000000 2.844970 0.000000 
#    z 0.000000 0.000000 3.141760 
# 
# 
# High freq. dielectric constant tensor:
#      x y z
#    x 1.694150 0.000000 0.000000 
#    y 0.000000 1.631770 0.000000 
#    z 0.000000 0.000000 1.658490 
# 
# From -- ./inp_files/24730.got.cif
#   From: 2010.03.12/outbox.cif.g09.slc.cpg/sg67_13_cif.got.tgz:24730.got - 2010.04.10 22:41:39.
