data_PCOD8279904
_publ_section_title
;
Structure prediction by ZEFSAII (Michael W. Deem and Ramdas Pophale) SiO2 
 PCOD8279904
Probable space group: C M M A
;
_chemical_formula_sum "Si O2"
_cell_formula_units_Z 96
_cell_length_a 19.687124
_cell_length_b 8.662611
_cell_length_c 30.317419
_cell_angle_alpha 90.000000
_cell_angle_beta 90.000000
_cell_angle_gamma 90.000000
_cell_volume 5170.390146
_symmetry_space_group_name_H-M "C M M A"
_symmetry_group_IT_number 67
_symmetry_cell_setting 'orthorhombic'
loop_
_space_group_symop_operation_xyz
x,y,z
-x,1/2-y,z
x,-y,-z
-x,1/2+y,-z
-x,-y,-z
x,1/2+y,-z
-x,y,z
x,1/2-y,z
1/2+x,1/2+y,z
1/2-x,-y,z
1/2+x,1/2-y,-z
1/2-x,y,-z
1/2-x,1/2-y,-z
1/2+x,y,-z
1/2-x,1/2+y,z
1/2+x,-y,z
loop_
_atom_site_type_symbol
_atom_site_label
_atom_site_fract_x
_atom_site_fract_y
_atom_site_fract_z
Si Si1 0.421066 0.571662 0.284096
Si Si2 0.576792 0.432403 0.954234
Si Si3 0.322049 0.068707 0.214986
Si Si4 0.922167 0.928694 0.376113
Si Si5 0.322552 0.067500 0.453401
Si Si6 0.822695 0.933311 0.878582
O O1 0.500000 0.535196 0.275800
O O2 0.403933 0.750000 0.275675
O O3 0.378513 0.466507 0.251174
O O4 0.400876 0.528942 0.333914
O O5 0.500000 0.490919 0.945790
O O6 0.579718 0.250000 0.957339
O O7 0.623000 0.493013 0.914260
O O8 0.605260 0.500000 0.000000
O O9 0.313664 0.250000 0.208706
O O10 0.250000 0.000000 0.230423
O O11 0.345862 0.995030 0.168931
O O12 0.909457 0.750000 0.364650
O O13 0.876793 0.984047 0.416924
O O14 0.000000 0.959033 0.389325
O O15 0.316789 0.250000 0.457576
O O16 0.347144 0.000000 0.500000
O O17 0.250000 0.000000 0.439418
O O18 0.818810 0.750000 0.876797
O O19 0.750000 0.000000 0.892347
#
# Coordination Sequence:
#
# PCOD8279904 Si02
#       6
#    16  16  16  16  16  16
#     4  10  21  37  57  81 109 141 177 218 264 315
#     4   9  19  35  54  76 103 136 173 214 259 307
#     4  11  22  37  57  80 108 141 178 220 266 316
#     4   9  19  36  55  76 104 138 176 217 261 309
#     4  10  20  34  53  76 104 137 172 214 260 309
#     4  10  20  35  54  77 106 138 174 216 262 312
#
# _framework density 18.567263000000001
#
# number of rings (size 3 to 8) (size 9 to 14) (size 15 to 20)
#    0.000    2.167    0.000    4.500    0.000    5.667 
#    0.000    5.000    0.000    0.000    0.000    0.000 
#    0.000    0.000    0.000    0.000    0.000    0.000 
#
# Total GULP energy -595366.256839 kJ/mol
# GULP energy per Si atom -12403.463684 kJ/mol
# Density = 1.852500 g / cm^3
# Si number density = 18.567263 Si / 1000 Ang^3
#
#
#
# Elastic Constant Matrix: (Units=GPa)
#
#
# Indices 1 2 3 4 5 6 
#
# 1 97.9160 35.8398 89.9721 0.0000 0.0000 0.0000
# 2 35.8398 76.0720 41.8954 0.0000 0.0000 0.0000
# 3 89.9721 41.8954 136.9335 0.0000 0.0000 0.0000
# 4 0.0000 0.0000 0.0000 34.6834 0.0000 0.0000
# 5 0.0000 0.0000 0.0000 0.0000 43.2931 0.0000
# 6 0.0000 0.0000 0.0000 0.0000 0.0000 28.6929
#
#
#
# Elastic Compliance Matrix: (Units=1/GPa)
#
#
# Indices 1 2 3 4 5 6 
#
# 1 0.026520 -0.003485 -0.016359 0.000000 0.000000 0.000000
# 2 -0.003485 0.016267 -0.002687 0.000000 0.000000 0.000000
# 3 -0.016359 -0.002687 0.018873 0.000000 0.000000 0.000000
# 4 0.000000 0.000000 0.000000 0.028832 0.000000 0.000000
# 5 0.000000 0.000000 0.000000 0.000000 0.023098 0.000000
# 6 0.000000 0.000000 0.000000 0.000000 0.000000 0.034852
#
#
# Mechanical properties :
#
#
# Convention : Reuss Voigt Hill
#
# Bulk Modulus (GPa) = 60.24520 71.81513 66.03017
# Shear Modulus (GPa) = 25.12087 30.88149 28.00118
#
# Velocity S-wave (km/s) = 3.68226 4.08269 3.88763
# Velocity P-wave (km/s) = 7.11310 7.80940 7.46937
#
# Compressibility (1/GPa) = 0.01659883
#
# Stress axis : x y z
#
# Youngs Moduli (GPa) = 37.70755 61.47300 52.98469
#
# Poissons Ratio (x) = 0.21424 0.86676
# Poissons Ratio (y) = 0.13141 0.14238
# Poissons Ratio (z) = 0.61684 0.16519
#
# Static dielectric constant tensor:
#      x y z
#    x 3.481960 0.000000 0.000000 
#    y 0.000000 3.437960 0.000000 
#    z 0.000000 0.000000 3.498400 
# 
# 
# High freq. dielectric constant tensor:
#      x y z
#    x 1.719320 0.000000 0.000000 
#    y 0.000000 1.728450 0.000000 
#    z 0.000000 0.000000 1.726040 
# 
# From -- ./inp_files/44602.got.cif
#   From: 2010.03.12/outbox.cif.g09.slc.cpg/sg67_23_cif.got.tgz:44602.got - 2010.04.10 22:41:39.
