data_PCOD8279256
_publ_section_title
;
Structure prediction by ZEFSAII (Michael W. Deem and Ramdas Pophale) SiO2 
 PCOD8279256
Probable space group: C M M A
;
_chemical_formula_sum "Si O2"
_cell_formula_units_Z 96
_cell_length_a 9.016741
_cell_length_b 28.763572
_cell_length_c 20.631430
_cell_angle_alpha 90.000000
_cell_angle_beta 90.000000
_cell_angle_gamma 90.000000
_cell_volume 5350.837273
_symmetry_space_group_name_H-M "C M M A"
_symmetry_group_IT_number 67
_symmetry_cell_setting 'orthorhombic'
loop_
_space_group_symop_operation_xyz
x,y,z
-x,1/2-y,z
x,-y,-z
-x,1/2+y,-z
-x,-y,-z
x,1/2+y,-z
-x,y,z
x,1/2-y,z
1/2+x,1/2+y,z
1/2-x,-y,z
1/2+x,1/2-y,-z
1/2-x,y,-z
1/2-x,1/2-y,-z
1/2+x,y,-z
1/2-x,1/2+y,z
1/2+x,-y,z
loop_
_atom_site_type_symbol
_atom_site_label
_atom_site_fract_x
_atom_site_fract_y
_atom_site_fract_z
Si Si1 0.175069 0.452681 0.887622
Si Si2 0.824244 0.854886 0.307102
Si Si3 0.325619 0.803230 0.565337
Si Si4 0.172334 0.803697 0.810101
Si Si5 0.172181 0.453798 0.737070
Si Si6 0.175969 0.361443 0.064258
O O1 0.250000 0.500000 0.912466
O O2 0.211159 0.445490 0.811992
O O3 0.252687 0.411914 0.926876
O O4 0.000000 0.453450 0.901404
O O5 0.767367 0.834494 0.375281
O O6 0.761464 0.824171 0.249547
O O7 0.770785 0.908420 0.301718
O O8 0.000000 0.851823 0.301436
O O9 0.500000 0.808008 0.556503
O O10 0.279001 0.750000 0.579086
O O11 0.250000 0.821919 0.500000
O O12 0.213198 0.750000 0.817871
O O13 0.220931 0.828802 0.876049
O O14 0.000000 0.811548 0.796025
O O15 0.250000 0.500000 0.709530
O O16 0.000000 0.461751 0.726452
O O17 0.000000 0.365569 0.056120
O O18 0.250000 0.339298 0.000000
#
# Coordination Sequence:
#
# PCOD8279256 Si02
#       6
#    16  16  16  16  16  16
#     4  10  19  34  55  79 106 135 170 213 265 318
#     4  10  19  34  56  82 108 139 177 217 260 310
#     4   9  18  32  51  77 110 144 177 214 257 306
#     4  10  22  38  55  78 106 135 172 219 266 313
#     4   9  18  31  51  78 107 135 169 212 258 310
#     4  11  23  38  55  75 103 138 176 218 265 317
#
# _framework density 17.941117999999999
#
# number of rings (size 3 to 8) (size 9 to 14) (size 15 to 20)
#    0.000    2.167    1.667    1.500    0.000    4.333 
#    0.000    3.333    0.000    0.500    0.000    3.500 
#    0.000    0.000    0.000    0.000    0.000    0.000 
#
# Total GULP energy -595309.356555 kJ/mol
# GULP energy per Si atom -12402.278262 kJ/mol
# Density = 1.790028 g / cm^3
# Si number density = 17.941118 Si / 1000 Ang^3
#
#
#
# Elastic Constant Matrix: (Units=GPa)
#
#
# Indices 1 2 3 4 5 6 
#
# 1 50.1207 33.3799 43.5950 0.0000 0.0000 0.0000
# 2 33.3799 107.5012 65.0141 0.0000 0.0000 0.0000
# 3 43.5950 65.0141 130.9817 0.0000 0.0000 0.0000
# 4 0.0000 0.0000 0.0000 25.1260 0.0000 0.0000
# 5 0.0000 0.0000 0.0000 0.0000 28.7282 0.0000
# 6 0.0000 0.0000 0.0000 0.0000 0.0000 26.2524
#
#
#
# Elastic Compliance Matrix: (Units=1/GPa)
#
#
# Indices 1 2 3 4 5 6 
#
# 1 0.029605 -0.004620 -0.007560 0.000000 0.000000 0.000000
# 2 -0.004620 0.014014 -0.005418 0.000000 0.000000 0.000000
# 3 -0.007560 -0.005418 0.012840 0.000000 0.000000 0.000000
# 4 0.000000 0.000000 0.000000 0.039799 0.000000 0.000000
# 5 0.000000 0.000000 0.000000 0.000000 0.034809 0.000000
# 6 0.000000 0.000000 0.000000 0.000000 0.000000 0.038092
#
#
# Mechanical properties :
#
#
# Convention : Reuss Voigt Hill
#
# Bulk Modulus (GPa) = 47.03306 63.62018 55.32662
# Shear Modulus (GPa) = 23.64710 25.79561 24.72135
#
# Velocity S-wave (km/s) = 3.63442 3.79594 3.71606
# Velocity P-wave (km/s) = 6.62451 7.39931 7.02260
#
# Compressibility (1/GPa) = 0.02126164
#
# Stress axis : x y z
#
# Youngs Moduli (GPa) = 33.77848 71.35968 77.88069
#
# Poissons Ratio (x) = 0.32970 0.58878
# Poissons Ratio (y) = 0.15607 0.42195
# Poissons Ratio (z) = 0.25537 0.38662
#
# Static dielectric constant tensor:
#      x y z
#    x 3.286020 0.000000 0.000000 
#    y 0.000000 3.496660 0.000000 
#    z 0.000000 0.000000 3.337500 
# 
# 
# High freq. dielectric constant tensor:
#      x y z
#    x 1.693630 0.000000 0.000000 
#    y 0.000000 1.698230 0.000000 
#    z 0.000000 0.000000 1.684510 
# 
# From -- ./inp_files/37120.got.cif
#   From: 2010.03.12/outbox.cif.g09.slc.cpg/sg67_19_cif.got.tgz:37120.got - 2010.04.10 22:41:39.
