data_PCOD8279080
_publ_section_title
;
Structure prediction by ZEFSAII (Michael W. Deem and Ramdas Pophale) SiO2 
 PCOD8279080
Probable space group: C M M A
;
_chemical_formula_sum "Si O2"
_cell_formula_units_Z 104
_cell_length_a 27.210944
_cell_length_b 8.803156
_cell_length_c 23.862340
_cell_angle_alpha 90.000000
_cell_angle_beta 90.000000
_cell_angle_gamma 90.000000
_cell_volume 5716.037061
_symmetry_space_group_name_H-M "C M M A"
_symmetry_group_IT_number 67
_symmetry_cell_setting 'orthorhombic'
loop_
_space_group_symop_operation_xyz
x,y,z
-x,1/2-y,z
x,-y,-z
-x,1/2+y,-z
-x,-y,-z
x,1/2+y,-z
-x,y,z
x,1/2-y,z
1/2+x,1/2+y,z
1/2-x,-y,z
1/2+x,1/2-y,-z
1/2-x,y,-z
1/2-x,1/2-y,-z
1/2+x,y,-z
1/2-x,1/2+y,z
1/2+x,-y,z
loop_
_atom_site_type_symbol
_atom_site_label
_atom_site_fract_x
_atom_site_fract_y
_atom_site_fract_z
Si Si1 0.354771 0.427477 0.665494
Si Si2 0.944136 0.923680 0.279491
Si Si3 0.606086 0.924172 0.832663
Si Si4 0.500000 0.076303 0.441211
Si Si5 0.556204 0.930546 0.942677
Si Si6 0.392813 0.071587 0.438688
Si Si7 0.801277 0.431082 0.765188
O O1 0.343468 0.250000 0.664405
O O2 0.408756 0.458630 0.690088
O O3 0.353166 0.493973 0.602354
O O4 0.313500 0.510316 0.702708
O O5 0.930403 0.750000 0.297099
O O6 0.937530 0.941955 0.212651
O O7 0.000000 0.960399 0.296301
O O8 0.616752 0.750000 0.845395
O O9 0.588295 0.999136 0.891048
O O10 0.656907 0.993473 0.808083
O O11 0.500000 0.250000 0.456544
O O12 0.447752 0.037924 0.411343
O O13 0.500000 0.000000 0.500000
O O14 0.500000 0.983517 0.934222
O O15 0.559572 0.750000 0.945159
O O16 0.577751 0.000000 0.000000
O O17 0.382272 0.250000 0.442803
O O18 0.387730 0.000000 0.500000
O O19 0.799274 0.250000 0.763886
O O20 0.750000 0.500000 0.785838
#
# Coordination Sequence:
#
# PCOD8279080 Si02
#       7
#    16  16  16   8  16  16  16
#     4  11  22  34  49  74 103 133 167 205 250 304
#     4   9  17  30  48  69  96 132 171 211 255 301
#     4   8  15  29  50  73  97 130 171 209 250 304
#     4   8  16  28  44  64  90 126 168 204 237 278
#     4   9  16  27  45  71 104 141 178 211 244 287
#     4  10  19  33  50  71  98 134 173 211 251 297
#     4  10  20  37  59  80  99 124 161 210 264 315
#
# _framework density 18.194423
#
# number of rings (size 3 to 8) (size 9 to 14) (size 15 to 20)
#    0.000    2.615    0.000    3.692    1.077    2.769 
#    0.000    3.846    0.000    4.615    0.000    6.462 
#    0.000    0.000    0.000    0.000    0.000    0.000 
#
# Total GULP energy -644414.438808 kJ/mol
# GULP energy per Si atom -12392.585362 kJ/mol
# Density = 1.815301 g / cm^3
# Si number density = 18.194423 Si / 1000 Ang^3
#
#
#
# Elastic Constant Matrix: (Units=GPa)
#
#
# Indices 1 2 3 4 5 6 
#
# 1 70.4841 21.8686 26.7305 0.0000 0.0000 0.0000
# 2 21.8686 66.3902 29.4379 0.0000 0.0000 0.0000
# 3 26.7305 29.4379 93.7340 0.0000 0.0000 0.0000
# 4 0.0000 0.0000 0.0000 26.6192 0.0000 0.0000
# 5 0.0000 0.0000 0.0000 0.0000 21.0524 0.0000
# 6 0.0000 0.0000 0.0000 0.0000 0.0000 23.8744
#
#
#
# Elastic Compliance Matrix: (Units=1/GPa)
#
#
# Indices 1 2 3 4 5 6 
#
# 1 0.016755 -0.003950 -0.003537 0.000000 0.000000 0.000000
# 2 -0.003950 0.018431 -0.004662 0.000000 0.000000 0.000000
# 3 -0.003537 -0.004662 0.013141 0.000000 0.000000 0.000000
# 4 0.000000 0.000000 0.000000 0.037567 0.000000 0.000000
# 5 0.000000 0.000000 0.000000 0.000000 0.047501 0.000000
# 6 0.000000 0.000000 0.000000 0.000000 0.000000 0.041886
#
#
# Mechanical properties :
#
#
# Convention : Reuss Voigt Hill
#
# Bulk Modulus (GPa) = 41.61857 42.96469 42.29163
# Shear Modulus (GPa) = 24.08610 24.48062 24.28336
#
# Velocity S-wave (km/s) = 3.64238 3.67209 3.65726
# Velocity P-wave (km/s) = 6.37285 6.45325 6.41318
#
# Compressibility (1/GPa) = 0.02402773
#
# Stress axis : x y z
#
# Youngs Moduli (GPa) = 59.68440 54.25706 76.09590
#
# Poissons Ratio (x) = 0.21434 0.26918
# Poissons Ratio (y) = 0.23578 0.35474
# Poissons Ratio (z) = 0.21112 0.25293
#
# Static dielectric constant tensor:
#      x y z
#    x 3.285860 0.000000 0.000000 
#    y 0.000000 3.127690 0.000000 
#    z 0.000000 0.000000 3.490480 
# 
# 
# High freq. dielectric constant tensor:
#      x y z
#    x 1.678950 0.000000 0.000000 
#    y 0.000000 1.688490 0.000000 
#    z 0.000000 0.000000 1.705250 
# 
# From -- ./inp_files/42760.got.cif
#   From: 2010.03.12/outbox.cif.g09.slc.cpg/sg67_22_cif.got.tgz:42760.got - 2010.04.10 22:41:39.
