data_PCOD8279938
_publ_section_title
;
Structure prediction by ZEFSAII (Michael W. Deem and Ramdas Pophale) SiO2 
 PCOD8279938
Probable space group: C M M A
;
_chemical_formula_sum "Si O2"
_cell_formula_units_Z 80
_cell_length_a 27.364102
_cell_length_b 8.803307
_cell_length_c 18.646272
_cell_angle_alpha 90.000000
_cell_angle_beta 90.000000
_cell_angle_gamma 90.000000
_cell_volume 4491.786061
_symmetry_space_group_name_H-M "C M M A"
_symmetry_group_IT_number 67
_symmetry_cell_setting 'orthorhombic'
loop_
_space_group_symop_operation_xyz
x,y,z
-x,1/2-y,z
x,-y,-z
-x,1/2+y,-z
-x,-y,-z
x,1/2+y,-z
-x,y,z
x,1/2-y,z
1/2+x,1/2+y,z
1/2-x,-y,z
1/2+x,1/2-y,-z
1/2-x,y,-z
1/2-x,1/2-y,-z
1/2+x,y,-z
1/2-x,1/2+y,z
1/2+x,-y,z
loop_
_atom_site_type_symbol
_atom_site_label
_atom_site_fract_x
_atom_site_fract_y
_atom_site_fract_z
Si Si1 0.443467 0.072718 0.076072
Si Si2 0.353136 0.926591 0.574357
Si Si3 0.944898 0.426593 0.660853
Si Si4 0.393242 0.429551 0.790075
Si Si5 0.198168 0.430039 0.718076
O O1 0.500000 0.046289 0.095952
O O2 0.430472 0.250000 0.074800
O O3 0.410098 0.987063 0.132972
O O4 0.430824 0.000000 0.000000
O O5 0.349205 0.750000 0.561981
O O6 0.408449 0.973691 0.596537
O O7 0.316530 0.979540 0.637245
O O8 0.337271 0.000000 0.500000
O O9 0.936824 0.250000 0.680946
O O10 0.933602 0.522947 0.731531
O O11 0.000000 0.459508 0.635188
O O12 0.387530 0.250000 0.790580
O O13 0.341166 0.504850 0.773392
O O14 0.199614 0.250000 0.725761
O O15 0.250000 0.500000 0.738027
#
# Coordination Sequence:
#
# PCOD8279938 Si02
#       5
#    16  16  16  16  16
#     4  10  20  34  53  79 112 147 179 212 251 295
#     4   9  19  33  49  71 100 132 167 209 257 310
#     4   9  18  33  50  69  98 137 176 213 256 304
#     4  11  21  33  52  78 106 136 172 213 256 304
#     4  10  21  38  57  77 100 129 168 213 262 311
#
# _framework density 17.810286999999999
#
# number of rings (size 3 to 8) (size 9 to 14) (size 15 to 20)
#    0.000    2.200    0.000    4.800    0.000    8.800 
#    0.000    2.000    0.000    0.600    0.000    4.200 
#    0.000    0.000    0.000    0.000    0.000    0.000 
#
# Total GULP energy -496067.772301 kJ/mol
# GULP energy per Si atom -12401.694308 kJ/mol
# Density = 1.776975 g / cm^3
# Si number density = 17.810287 Si / 1000 Ang^3
#
#
#
# Elastic Constant Matrix: (Units=GPa)
#
#
# Indices 1 2 3 4 5 6 
#
# 1 99.0626 41.4075 39.4674 0.0000 0.0000 0.0000
# 2 41.4075 91.4371 44.0644 0.0000 0.0000 0.0000
# 3 39.4674 44.0644 101.7625 0.0000 0.0000 0.0000
# 4 0.0000 0.0000 0.0000 33.9496 0.0000 0.0000
# 5 0.0000 0.0000 0.0000 0.0000 19.8604 0.0000
# 6 0.0000 0.0000 0.0000 0.0000 0.0000 25.5518
#
#
#
# Elastic Compliance Matrix: (Units=1/GPa)
#
#
# Indices 1 2 3 4 5 6 
#
# 1 0.013231 -0.004447 -0.003206 0.000000 0.000000 0.000000
# 2 -0.004447 0.015315 -0.004907 0.000000 0.000000 0.000000
# 3 -0.003206 -0.004907 0.013195 0.000000 0.000000 0.000000
# 4 0.000000 0.000000 0.000000 0.029455 0.000000 0.000000
# 5 0.000000 0.000000 0.000000 0.000000 0.050352 0.000000
# 6 0.000000 0.000000 0.000000 0.000000 0.000000 0.039136
#
#
# Mechanical properties :
#
#
# Convention : Reuss Voigt Hill
#
# Bulk Modulus (GPa) = 60.16307 60.23788 60.20048
# Shear Modulus (GPa) = 26.13112 27.02720 26.57916
#
# Velocity S-wave (km/s) = 3.83455 3.89974 3.86728
# Velocity P-wave (km/s) = 7.31152 7.36021 7.33591
#
# Compressibility (1/GPa) = 0.01662149
#
# Stress axis : x y z
#
# Youngs Moduli (GPa) = 75.58291 65.29625 75.78652
#
# Poissons Ratio (x) = 0.29034 0.24296
# Poissons Ratio (y) = 0.33608 0.37188
# Poissons Ratio (z) = 0.24231 0.32041
#
# Static dielectric constant tensor:
#      x y z
#    x 3.324590 0.000000 0.000000 
#    y 0.000000 3.334960 0.000000 
#    z 0.000000 0.000000 3.120790 
# 
# 
# High freq. dielectric constant tensor:
#      x y z
#    x 1.684160 0.000000 0.000000 
#    y 0.000000 1.697100 0.000000 
#    z 0.000000 0.000000 1.679650 
# 
# From -- ./inp_files/32105.got.cif
#   From: 2010.03.12/outbox.cif.g09.slc.cpg/sg67_17_cif.got.tgz:32105.got - 2010.04.10 22:41:39.
