data_PCOD8279016
_publ_section_title
;
Structure prediction by ZEFSAII (Michael W. Deem and Ramdas Pophale) SiO2 
 PCOD8279016
Probable space group: C M M A
;
_chemical_formula_sum "Si O2"
_cell_formula_units_Z 72
_cell_length_a 9.472607
_cell_length_b 26.007753
_cell_length_c 16.114584
_cell_angle_alpha 90.000000
_cell_angle_beta 90.000000
_cell_angle_gamma 90.000000
_cell_volume 3970.008624
_symmetry_space_group_name_H-M "C M M A"
_symmetry_group_IT_number 67
_symmetry_cell_setting 'orthorhombic'
loop_
_space_group_symop_operation_xyz
x,y,z
-x,1/2-y,z
x,-y,-z
-x,1/2+y,-z
-x,-y,-z
x,1/2+y,-z
-x,y,z
x,1/2-y,z
1/2+x,1/2+y,z
1/2-x,-y,z
1/2+x,1/2-y,-z
1/2-x,y,-z
1/2-x,1/2-y,-z
1/2+x,y,-z
1/2-x,1/2+y,z
1/2+x,-y,z
loop_
_atom_site_type_symbol
_atom_site_label
_atom_site_fract_x
_atom_site_fract_y
_atom_site_fract_z
Si Si1 0.663881 0.112669 0.244578
Si Si2 0.338572 0.191669 0.659368
Si Si3 0.846514 0.045466 0.607599
Si Si4 0.250000 0.632009 0.500000
Si Si5 0.330727 0.447971 0.082125
O O1 0.500000 0.124984 0.260088
O O2 0.750491 0.163354 0.268746
O O3 0.711711 0.065619 0.303946
O O4 0.693280 0.096119 0.150369
O O5 0.500000 0.189235 0.687347
O O6 0.283364 0.250000 0.654400
O O7 0.325864 0.167147 0.568043
O O8 0.859602 0.093927 0.545443
O O9 0.000000 0.020730 0.618099
O O10 0.750000 0.000000 0.572762
O O11 0.500000 0.457649 0.068278
O O12 0.250000 0.500000 0.110030
O O13 0.250000 0.427883 0.000000
#
# Coordination Sequence:
#
# PCOD8279016 Si02
#       5
#    16  16  16   8  16
#     4   9  20  36  52  73 102 136 170 205 252 305
#     4  10  21  36  55  77  98 126 169 218 263 305
#     4  10  20  32  47  68  97 133 169 203 241 290
#     4  10  20  34  50  70 100 132 166 206 254 304
#     4  10  19  32  52  80 111 141 172 204 244 296
#
# _framework density 18.135981000000001
#
# number of rings (size 3 to 8) (size 9 to 14) (size 15 to 20)
#    0.000    2.222    0.000    3.333    0.000    8.444 
#    0.000    0.000    0.000    0.667    0.000    0.000 
#    0.000    0.000    0.000    0.000    0.000    0.000 
#
# Total GULP energy -446186.778103 kJ/mol
# GULP energy per Si atom -12394.077170 kJ/mol
# Density = 1.809470 g / cm^3
# Si number density = 18.135981 Si / 1000 Ang^3
#
#
#
# Elastic Constant Matrix: (Units=GPa)
#
#
# Indices 1 2 3 4 5 6 
#
# 1 94.0278 59.9111 43.2139 0.0000 0.0000 0.0000
# 2 59.9111 131.1883 62.9412 0.0000 0.0000 0.0000
# 3 43.2139 62.9412 113.4471 0.0000 0.0000 0.0000
# 4 0.0000 0.0000 0.0000 21.6989 0.0000 0.0000
# 5 0.0000 0.0000 0.0000 0.0000 21.5603 0.0000
# 6 0.0000 0.0000 0.0000 0.0000 0.0000 29.2599
#
#
#
# Elastic Compliance Matrix: (Units=1/GPa)
#
#
# Indices 1 2 3 4 5 6 
#
# 1 0.015588 -0.005819 -0.002709 0.000000 0.000000 0.000000
# 2 -0.005819 0.012560 -0.004752 0.000000 0.000000 0.000000
# 3 -0.002709 -0.004752 0.012483 0.000000 0.000000 0.000000
# 4 0.000000 0.000000 0.000000 0.046085 0.000000 0.000000
# 5 0.000000 0.000000 0.000000 0.000000 0.046382 0.000000
# 6 0.000000 0.000000 0.000000 0.000000 0.000000 0.034176
#
#
# Mechanical properties :
#
#
# Convention : Reuss Voigt Hill
#
# Bulk Modulus (GPa) = 71.06910 74.53284 72.80097
# Shear Modulus (GPa) = 25.18587 26.01029 25.59808
#
# Velocity S-wave (km/s) = 3.73060 3.79117 3.76101
# Velocity P-wave (km/s) = 7.60450 7.76851 7.68694
#
# Compressibility (1/GPa) = 0.01407081
#
# Stress axis : x y z
#
# Youngs Moduli (GPa) = 64.15251 79.61951 80.10864
#
# Poissons Ratio (x) = 0.46329 0.21705
# Poissons Ratio (y) = 0.37329 0.38066
# Poissons Ratio (z) = 0.17381 0.37833
#
# Static dielectric constant tensor:
#      x y z
#    x 3.361680 0.000000 0.000000 
#    y 0.000000 3.210210 0.000000 
#    z 0.000000 0.000000 3.382410 
# 
# 
# High freq. dielectric constant tensor:
#      x y z
#    x 1.707010 0.000000 0.000000 
#    y 0.000000 1.686700 0.000000 
#    z 0.000000 0.000000 1.698700 
# 
# From -- ./inp_files/32044.got.cif
#   From: 2010.03.12/outbox.cif.g09.slc.cpg/sg67_17_cif.got.tgz:32044.got - 2010.04.10 22:41:39.
