data_PCOD8279838
_publ_section_title
;
Structure prediction by ZEFSAII (Michael W. Deem and Ramdas Pophale) SiO2 
 PCOD8279838
Probable space group: C M M A
;
_chemical_formula_sum "Si O2"
_cell_formula_units_Z 80
_cell_length_a 19.667216
_cell_length_b 8.934751
_cell_length_c 25.820969
_cell_angle_alpha 90.000000
_cell_angle_beta 90.000000
_cell_angle_gamma 90.000000
_cell_volume 4537.303996
_symmetry_space_group_name_H-M "C M M A"
_symmetry_group_IT_number 67
_symmetry_cell_setting 'orthorhombic'
loop_
_space_group_symop_operation_xyz
x,y,z
-x,1/2-y,z
x,-y,-z
-x,1/2+y,-z
-x,-y,-z
x,1/2+y,-z
-x,y,z
x,1/2-y,z
1/2+x,1/2+y,z
1/2-x,-y,z
1/2+x,1/2-y,-z
1/2-x,y,-z
1/2-x,1/2-y,-z
1/2+x,y,-z
1/2-x,1/2+y,z
1/2+x,-y,z
loop_
_atom_site_type_symbol
_atom_site_label
_atom_site_fract_x
_atom_site_fract_y
_atom_site_fract_z
Si Si1 0.076795 0.427325 0.250339
Si Si2 0.178851 0.928055 0.446033
Si Si3 0.323145 0.424466 0.951443
Si Si4 0.422409 0.075601 0.355491
Si Si5 0.322654 0.075076 0.837403
O O1 0.079230 0.250000 0.252390
O O2 0.104199 0.489780 0.304764
O O3 0.124280 0.489719 0.204343
O O4 0.000000 0.484615 0.240248
O O5 0.186698 0.750000 0.452125
O O6 0.122939 0.973554 0.403919
O O7 0.154814 0.000000 0.500000
O O8 0.250000 0.000000 0.428428
O O9 0.316521 0.250000 0.962771
O O10 0.250000 0.500000 0.949908
O O11 0.355266 0.454973 0.894655
O O12 0.364376 0.500000 0.000000
O O13 0.500000 0.031129 0.368344
O O14 0.415026 0.250000 0.344044
O O15 0.310831 0.250000 0.829223
O O16 0.250000 0.000000 0.829363
#
# Coordination Sequence:
#
# PCOD8279838 Si02
#       5
#    16  16  16  16  16
#     4   9  18  33  51  69  91 122 158 192 228 273
#     4  10  20  34  52  73  99 128 156 189 229 274
#     4   9  15  24  39  60  87 116 146 183 226 270
#     4   9  19  35  52  71  95 123 156 193 232 272
#     4   9  18  30  45  68  94 119 151 191 232 273
#
# _framework density 17.631615
#
# number of rings (size 3 to 8) (size 9 to 14) (size 15 to 20)
#    0.000    2.800    0.000    2.400    0.000    4.400 
#    0.000    4.000    0.000    0.600    0.000    0.000 
#    0.000    0.000    0.000    0.000    0.000    5.400 
#
# Total GULP energy -495766.672471 kJ/mol
# GULP energy per Si atom -12394.166812 kJ/mol
# Density = 1.759148 g / cm^3
# Si number density = 17.631615 Si / 1000 Ang^3
#
#
#
# Elastic Constant Matrix: (Units=GPa)
#
#
# Indices 1 2 3 4 5 6 
#
# 1 76.8018 30.9245 86.1672 0.0000 0.0000 0.0000
# 2 30.9245 58.6203 52.9353 0.0000 0.0000 0.0000
# 3 86.1672 52.9353 177.2235 0.0000 0.0000 0.0000
# 4 0.0000 0.0000 0.0000 29.8578 0.0000 0.0000
# 5 0.0000 0.0000 0.0000 0.0000 16.8937 0.0000
# 6 0.0000 0.0000 0.0000 0.0000 0.0000 18.8608
#
#
#
# Elastic Compliance Matrix: (Units=1/GPa)
#
#
# Indices 1 2 3 4 5 6 
#
# 1 0.029173 -0.003535 -0.013128 0.000000 0.000000 0.000000
# 2 -0.003535 0.023788 -0.005387 0.000000 0.000000 0.000000
# 3 -0.013128 -0.005387 0.013635 0.000000 0.000000 0.000000
# 4 0.000000 0.000000 0.000000 0.033492 0.000000 0.000000
# 5 0.000000 0.000000 0.000000 0.000000 0.059194 0.000000
# 6 0.000000 0.000000 0.000000 0.000000 0.000000 0.053020
#
#
# Mechanical properties :
#
#
# Convention : Reuss Voigt Hill
#
# Bulk Modulus (GPa) = 44.45212 72.52217 58.48714
# Shear Modulus (GPa) = 18.94660 22.63036 20.78848
#
# Velocity S-wave (km/s) = 3.28164 3.58650 3.43745
# Velocity P-wave (km/s) = 6.29485 7.64014 6.99989
#
# Compressibility (1/GPa) = 0.02249612
#
# Stress axis : x y z
#
# Youngs Moduli (GPa) = 34.27824 42.03817 73.34280
#
# Poissons Ratio (x) = 0.14860 0.96287
# Poissons Ratio (y) = 0.12117 0.39507
# Poissons Ratio (z) = 0.45002 0.22644
#
# Static dielectric constant tensor:
#      x y z
#    x 3.126880 0.000000 0.000000 
#    y 0.000000 3.272250 0.000000 
#    z 0.000000 0.000000 3.992120 
# 
# 
# High freq. dielectric constant tensor:
#      x y z
#    x 1.647780 0.000000 0.000000 
#    y 0.000000 1.683580 0.000000 
#    z 0.000000 0.000000 1.700820 
# 
# From -- ./inp_files/43308.got.cif
#   From: 2010.03.12/outbox.cif.g09.slc.cpg/sg67_22_cif.got.tgz:43308.got - 2010.04.10 22:41:39.
