data_PCOD8279436
_publ_section_title
;
Structure prediction by ZEFSAII (Michael W. Deem and Ramdas Pophale) SiO2 
 PCOD8279436
Probable space group: C M M A
;
_chemical_formula_sum "Si O2"
_cell_formula_units_Z 104
_cell_length_a 24.558840
_cell_length_b 16.168184
_cell_length_c 12.468879
_cell_angle_alpha 90.000000
_cell_angle_beta 90.000000
_cell_angle_gamma 90.000000
_cell_volume 4951.040776
_symmetry_space_group_name_H-M "C M M A"
_symmetry_group_IT_number 67
_symmetry_cell_setting 'orthorhombic'
loop_
_space_group_symop_operation_xyz
x,y,z
-x,1/2-y,z
x,-y,-z
-x,1/2+y,-z
-x,-y,-z
x,1/2+y,-z
-x,y,z
x,1/2-y,z
1/2+x,1/2+y,z
1/2-x,-y,z
1/2+x,1/2-y,-z
1/2-x,y,-z
1/2-x,1/2-y,-z
1/2+x,y,-z
1/2-x,1/2+y,z
1/2+x,-y,z
loop_
_atom_site_type_symbol
_atom_site_label
_atom_site_fract_x
_atom_site_fract_y
_atom_site_fract_z
Si Si1 0.331414 0.431241 0.312992
Si Si2 0.866787 0.659196 0.888258
Si Si3 0.560529 0.618816 0.309375
Si Si4 0.849493 0.659718 0.525505
Si Si5 0.941528 0.943898 0.221456
Si Si6 0.787594 0.886915 0.719686
Si Si7 0.904589 0.000000 0.000000
O O1 0.337960 0.410700 0.437981
O O2 0.384977 0.396033 0.249039
O O3 0.276929 0.391153 0.264904
O O4 0.323019 0.528882 0.296089
O O5 0.871184 0.750000 0.945678
O O6 0.914092 0.655247 0.799424
O O7 0.808910 0.656134 0.827230
O O8 0.868969 0.582014 0.971154
O O9 0.500000 0.655541 0.320902
O O10 0.593589 0.644103 0.414775
O O11 0.558680 0.519759 0.304017
O O12 0.851953 0.750000 0.469545
O O13 0.800271 0.663247 0.611560
O O14 0.000000 0.895444 0.237202
O O15 0.942195 0.975805 0.099548
#
# Coordination Sequence:
#
# PCOD8279436 Si02
#       7
#    16  16  16  16  16  16   8
#     4  11  21  36  57  86 113 157 191 241 302 348
#     4  10  20  37  64  93 119 153 198 248 305 361
#     4   9  18  34  56  84 118 156 201 251 293 340
#     4  11  22  34  52  83 121 157 198 241 288 350
#     4  10  20  37  61  85 113 151 197 245 299 362
#     4  10  20  37  59  83 116 151 201 247 287 348
#     4  10  19  40  63  92 122 147 193 252 306 358
#
# _framework density 21.005683000000001
#
# number of rings (size 3 to 8) (size 9 to 14) (size 15 to 20)
#    0.000    1.846    4.615    3.000    0.000    5.538 
#    0.000    3.846    0.000    1.846    0.000    0.000 
#    0.000    0.000    0.000    0.000    0.000    0.000 
#
# Total GULP energy -644232.261815 kJ/mol
# GULP energy per Si atom -12389.081958 kJ/mol
# Density = 2.095787 g / cm^3
# Si number density = 21.005683 Si / 1000 Ang^3
#
#
#
# Elastic Constant Matrix: (Units=GPa)
#
#
# Indices 1 2 3 4 5 6 
#
# 1 183.0771 22.6621 31.3848 0.0000 0.0000 0.0000
# 2 22.6621 89.2369 23.1096 0.0000 0.0000 0.0000
# 3 31.3848 23.1096 45.9678 0.0000 0.0000 0.0000
# 4 0.0000 0.0000 0.0000 20.8183 0.0000 0.0000
# 5 0.0000 0.0000 0.0000 0.0000 9.6058 0.0000
# 6 0.0000 0.0000 0.0000 0.0000 0.0000 14.8269
#
#
#
# Elastic Compliance Matrix: (Units=1/GPa)
#
#
# Indices 1 2 3 4 5 6 
#
# 1 0.006210 -0.000551 -0.003963 0.000000 0.000000 0.000000
# 2 -0.000551 0.012932 -0.006126 0.000000 0.000000 0.000000
# 3 -0.003963 -0.006126 0.027540 0.000000 0.000000 0.000000
# 4 0.000000 0.000000 0.000000 0.048035 0.000000 0.000000
# 5 0.000000 0.000000 0.000000 0.000000 0.104104 0.000000
# 6 0.000000 0.000000 0.000000 0.000000 0.000000 0.067445
#
#
# Mechanical properties :
#
#
# Convention : Reuss Voigt Hill
#
# Bulk Modulus (GPa) = 39.36484 52.51054 45.93769
# Shear Modulus (GPa) = 16.89127 25.12523 21.00825
#
# Velocity S-wave (km/s) = 2.83879 3.46224 3.16590
# Velocity P-wave (km/s) = 5.43376 6.40588 5.93974
#
# Compressibility (1/GPa) = 0.02540338
#
# Stress axis : x y z
#
# Youngs Moduli (GPa) = 161.03839 77.32577 36.31143
#
# Poissons Ratio (x) = 0.04259 0.14390
# Poissons Ratio (y) = 0.08869 0.22243
# Poissons Ratio (z) = 0.63817 0.47366
#
# Static dielectric constant tensor:
#      x y z
#    x 4.041090 0.000000 0.000000 
#    y 0.000000 3.698470 0.000000 
#    z 0.000000 0.000000 3.514890 
# 
# 
# High freq. dielectric constant tensor:
#      x y z
#    x 1.832090 0.000000 0.000000 
#    y 0.000000 1.798940 0.000000 
#    z 0.000000 0.000000 1.794270 
# 
# From -- ./inp_files/23004.got.cif
#   From: 2010.03.12/outbox.cif.g09.slc.cpg/sg67_12_cif.got.tgz:23004.got - 2010.04.10 22:41:39.
