data_PCOD8279802
_publ_section_title
;
Structure prediction by ZEFSAII (Michael W. Deem and Ramdas Pophale) SiO2 
 PCOD8279802
Probable space group: C M M A
;
_chemical_formula_sum "Si O2"
_cell_formula_units_Z 96
_cell_length_a 27.460980
_cell_length_b 8.775914
_cell_length_c 24.334526
_cell_angle_alpha 90.000000
_cell_angle_beta 90.000000
_cell_angle_gamma 90.000000
_cell_volume 5864.503932
_symmetry_space_group_name_H-M "C M M A"
_symmetry_group_IT_number 67
_symmetry_cell_setting 'orthorhombic'
loop_
_space_group_symop_operation_xyz
x,y,z
-x,1/2-y,z
x,-y,-z
-x,1/2+y,-z
-x,-y,-z
x,1/2+y,-z
-x,y,z
x,1/2-y,z
1/2+x,1/2+y,z
1/2-x,-y,z
1/2+x,1/2-y,-z
1/2-x,y,-z
1/2-x,1/2-y,-z
1/2+x,y,-z
1/2-x,1/2+y,z
1/2+x,-y,z
loop_
_atom_site_type_symbol
_atom_site_label
_atom_site_fract_x
_atom_site_fract_y
_atom_site_fract_z
Si Si1 0.553247 0.429075 0.116588
Si Si2 0.445657 0.932004 0.672325
Si Si3 0.388168 0.929841 0.777526
Si Si4 0.198819 0.430838 0.161919
Si Si5 0.148436 0.568336 0.058181
Si Si6 0.442051 0.082291 0.446927
O O1 0.500000 0.504659 0.105558
O O2 0.548289 0.250000 0.110867
O O3 0.570574 0.470853 0.177833
O O4 0.593356 0.486806 0.072722
O O5 0.500000 0.992930 0.686161
O O6 0.447526 0.750000 0.670222
O O7 0.407874 0.986872 0.718635
O O8 0.428557 0.994331 0.612157
O O9 0.376580 0.750000 0.778616
O O10 0.339440 0.022266 0.791015
O O11 0.201574 0.250000 0.156554
O O12 0.250000 0.500000 0.180694
O O13 0.185041 0.503045 0.103315
O O14 0.152837 0.750000 0.057859
O O15 0.163784 0.500000 0.000000
O O16 0.500000 0.087614 0.451673
O O17 0.419570 0.250000 0.448525
O O18 0.419087 0.000000 0.500000
#
# Coordination Sequence:
#
# PCOD8279802 Si02
#       6
#    16  16  16  16  16  16
#     4   8  14  25  43  66  91 119 148 177 210 249
#     4   8  13  22  40  65  91 122 159 192 220 256
#     4   9  16  28  47  69  91 115 147 185 223 263
#     4  11  22  37  54  70  89 112 140 176 222 271
#     4  10  20  34  51  72  95 118 147 180 215 256
#     4   8  13  21  33  52  81 119 160 195 223 251
#
# _framework density 16.369671
#
# number of rings (size 3 to 8) (size 9 to 14) (size 15 to 20)
#    0.000    3.000    0.000    4.500    0.000    2.667 
#    0.000    2.500    0.000   17.500    0.000    0.000 
#    0.000    0.667    0.000    7.667    0.000    2.667 
#
# Total GULP energy -594821.489641 kJ/mol
# GULP energy per Si atom -12392.114368 kJ/mol
# Density = 1.633241 g / cm^3
# Si number density = 16.369671 Si / 1000 Ang^3
#
#
#
# Elastic Constant Matrix: (Units=GPa)
#
#
# Indices 1 2 3 4 5 6 
#
# 1 80.7388 25.6094 37.5726 0.0000 0.0000 0.0000
# 2 25.6094 62.8166 33.0110 0.0000 0.0000 0.0000
# 3 37.5726 33.0110 133.5208 0.0000 0.0000 0.0000
# 4 0.0000 0.0000 0.0000 22.0650 0.0000 0.0000
# 5 0.0000 0.0000 0.0000 0.0000 34.8421 0.0000
# 6 0.0000 0.0000 0.0000 0.0000 0.0000 16.6005
#
#
#
# Elastic Compliance Matrix: (Units=1/GPa)
#
#
# Indices 1 2 3 4 5 6 
#
# 1 0.015316 -0.004573 -0.003179 0.000000 0.000000 0.000000
# 2 -0.004573 0.019662 -0.003574 0.000000 0.000000 0.000000
# 3 -0.003179 -0.003574 0.009268 0.000000 0.000000 0.000000
# 4 0.000000 0.000000 0.000000 0.045321 0.000000 0.000000
# 5 0.000000 0.000000 0.000000 0.000000 0.028701 0.000000
# 6 0.000000 0.000000 0.000000 0.000000 0.000000 0.060239
#
#
# Mechanical properties :
#
#
# Convention : Reuss Voigt Hill
#
# Bulk Modulus (GPa) = 46.31304 52.16250 49.23777
# Shear Modulus (GPa) = 23.99726 26.76038 25.37882
#
# Velocity S-wave (km/s) = 3.83294 4.04760 3.94173
# Velocity P-wave (km/s) = 6.92401 7.33339 7.13164
#
# Compressibility (1/GPa) = 0.02159219
#
# Stress axis : x y z
#
# Youngs Moduli (GPa) = 65.29269 50.85918 107.90100
#
# Poissons Ratio (x) = 0.23259 0.34303
# Poissons Ratio (y) = 0.29860 0.38566
# Poissons Ratio (z) = 0.20757 0.18178
#
# Static dielectric constant tensor:
#      x y z
#    x 3.139860 0.000000 0.000000 
#    y 0.000000 2.878650 0.000000 
#    z 0.000000 0.000000 3.314660 
# 
# 
# High freq. dielectric constant tensor:
#      x y z
#    x 1.599720 0.000000 0.000000 
#    y 0.000000 1.604150 0.000000 
#    z 0.000000 0.000000 1.630830 
# 
# From -- ./inp_files/42703.got.cif
#   From: 2010.03.12/outbox.cif.g09.slc.cpg/sg67_22_cif.got.tgz:42703.got - 2010.04.10 22:41:39.
