data_PCOD8279146
_publ_section_title
;
Structure prediction by ZEFSAII (Michael W. Deem and Ramdas Pophale) SiO2 
 PCOD8279146
Probable space group: C M M A
;
_chemical_formula_sum "Si O2"
_cell_formula_units_Z 80
_cell_length_a 18.392842
_cell_length_b 8.734239
_cell_length_c 25.624150
_cell_angle_alpha 90.000000
_cell_angle_beta 90.000000
_cell_angle_gamma 90.000000
_cell_volume 4116.455071
_symmetry_space_group_name_H-M "C M M A"
_symmetry_group_IT_number 67
_symmetry_cell_setting 'orthorhombic'
loop_
_space_group_symop_operation_xyz
x,y,z
-x,1/2-y,z
x,-y,-z
-x,1/2+y,-z
-x,-y,-z
x,1/2+y,-z
-x,y,z
x,1/2-y,z
1/2+x,1/2+y,z
1/2-x,-y,z
1/2+x,1/2-y,-z
1/2-x,y,-z
1/2-x,1/2-y,-z
1/2+x,y,-z
1/2-x,1/2+y,z
1/2+x,-y,z
loop_
_atom_site_type_symbol
_atom_site_label
_atom_site_fract_x
_atom_site_fract_y
_atom_site_fract_z
Si Si1 0.328376 0.931860 0.445738
Si Si2 0.826777 0.429139 0.945762
Si Si3 0.584212 0.927489 0.844817
Si Si4 0.581404 0.068165 0.653631
Si Si5 0.170767 0.430066 0.247885
O O1 0.322176 0.750000 0.450091
O O2 0.383201 0.985181 0.400649
O O3 0.358226 0.000000 0.500000
O O4 0.250000 0.000000 0.432177
O O5 0.815608 0.250000 0.953536
O O6 0.750000 0.500000 0.928405
O O7 0.886342 0.467185 0.902164
O O8 0.854773 0.500000 0.000000
O O9 0.500000 0.971473 0.843261
O O10 0.597419 0.750000 0.831311
O O11 0.625893 0.030522 0.803470
O O12 0.500000 0.000052 0.657065
O O13 0.578779 0.250000 0.656596
O O14 0.628542 0.002995 0.701719
O O15 0.179257 0.250000 0.252327
O O16 0.250000 0.500000 0.244791
#
# Coordination Sequence:
#
# PCOD8279146 Si02
#       5
#    16  16  16  16  16
#     4  10  19  33  54  77 105 139 176 219 263 312
#     4  10  20  35  56  80 108 143 182 224 268 316
#     4  10  22  39  57  81 114 146 178 223 276 324
#     4   9  19  35  54  78 108 140 175 219 270 320
#     4  11  22  37  59  83 108 142 184 225 268 323
#
# _framework density 19.434197000000001
#
# number of rings (size 3 to 8) (size 9 to 14) (size 15 to 20)
#    0.000    2.000    0.000    4.800    0.000    5.200 
#    0.000    3.000    0.000    6.600    0.000    0.000 
#    0.000    0.000    0.000    0.000    0.000    0.000 
#
# Total GULP energy -496119.195964 kJ/mol
# GULP energy per Si atom -12402.979899 kJ/mol
# Density = 1.938996 g / cm^3
# Si number density = 19.434197 Si / 1000 Ang^3
#
#
#
# Elastic Constant Matrix: (Units=GPa)
#
#
# Indices 1 2 3 4 5 6 
#
# 1 153.7064 40.9912 91.5539 0.0000 0.0000 0.0000
# 2 40.9912 72.5244 47.4229 0.0000 0.0000 0.0000
# 3 91.5539 47.4229 148.3076 0.0000 0.0000 0.0000
# 4 0.0000 0.0000 0.0000 8.4349 0.0000 0.0000
# 5 0.0000 0.0000 0.0000 0.0000 33.4430 0.0000
# 6 0.0000 0.0000 0.0000 0.0000 0.0000 -0.3301
#
#
#
# Elastic Compliance Matrix: (Units=1/GPa)
#
#
# Indices 1 2 3 4 5 6 
#
# 1 0.010549 -0.002155 -0.005823 0.000000 0.000000 0.000000
# 2 -0.002155 0.017874 -0.004385 0.000000 0.000000 0.000000
# 3 -0.005823 -0.004385 0.011740 0.000000 0.000000 0.000000
# 4 0.000000 0.000000 0.000000 0.118556 0.000000 0.000000
# 5 0.000000 0.000000 0.000000 0.000000 0.029902 0.000000
# 6 0.000000 0.000000 0.000000 0.000000 0.000000 -3.029725
#
#
# Mechanical properties :
#
#
# Convention : Reuss Voigt Hill
#
# Bulk Modulus (GPa) = 64.78183 81.60827 73.19505
# Shear Modulus (GPa) = -1.77858 21.28092 9.75117
#
# Velocity S-wave (km/s) = -0.95769 3.31271 2.24241
# Velocity P-wave (km/s) = 5.67304 7.53095 6.66703
#
# Compressibility (1/GPa) = 0.01543643
#
# Stress axis : x y z
#
# Youngs Moduli (GPa) = 94.79496 55.94809 85.18044
#
# Poissons Ratio (x) = 0.12055 0.49603
# Poissons Ratio (y) = 0.20425 0.37353
# Poissons Ratio (z) = 0.55201 0.24534
#
# Static dielectric constant tensor:
#      x y z
#    x 3.645710 0.000000 0.000000 
#    y 0.000000 3.453590 0.000000 
#    z 0.000000 0.000000 3.766230 
# 
# 
# High freq. dielectric constant tensor:
#      x y z
#    x 1.761560 0.000000 0.000000 
#    y 0.000000 1.745380 0.000000 
#    z 0.000000 0.000000 1.772940 
# 
# From -- ./inp_files/43306.got.cif
#   From: 2010.03.12/outbox.cif.g09.slc.cpg/sg67_22_cif.got.tgz:43306.got - 2010.04.10 22:41:39.
