data_PCOD8279025
_publ_section_title
;
Structure prediction by ZEFSAII (Michael W. Deem and Ramdas Pophale) SiO2 
 PCOD8279025
Probable space group: C M M A
;
_chemical_formula_sum "Si O2"
_cell_formula_units_Z 96
_cell_length_a 16.596134
_cell_length_b 17.938098
_cell_length_c 16.595414
_cell_angle_alpha 90.000000
_cell_angle_beta 90.000000
_cell_angle_gamma 90.000000
_cell_volume 4940.505830
_symmetry_space_group_name_H-M "C M M A"
_symmetry_group_IT_number 67
_symmetry_cell_setting 'orthorhombic'
loop_
_space_group_symop_operation_xyz
x,y,z
-x,1/2-y,z
x,-y,-z
-x,1/2+y,-z
-x,-y,-z
x,1/2+y,-z
-x,y,z
x,1/2-y,z
1/2+x,1/2+y,z
1/2-x,-y,z
1/2+x,1/2-y,-z
1/2-x,y,-z
1/2-x,1/2-y,-z
1/2+x,y,-z
1/2-x,1/2+y,z
1/2+x,-y,z
loop_
_atom_site_type_symbol
_atom_site_label
_atom_site_fract_x
_atom_site_fract_y
_atom_site_fract_z
Si Si1 0.593504 0.163553 0.156369
Si Si2 0.343890 0.332744 0.986352
Si Si3 0.657741 0.521951 0.415465
Si Si4 0.840608 0.532850 0.248279
Si Si5 0.591334 0.101840 0.829802
Si Si6 0.405241 0.665059 0.339364
O O1 0.500000 0.151234 0.177475
O O2 0.618595 0.250000 0.165299
O O3 0.650445 0.117872 0.218575
O O4 0.610737 0.135843 0.065302
O O5 0.377047 0.250000 0.967920
O O6 0.357314 0.383327 0.908939
O O7 0.250000 0.331726 0.000000
O O8 0.613913 0.500000 0.500000
O O9 0.750000 0.500000 0.424754
O O10 0.624390 0.474561 0.339399
O O11 0.644582 0.610124 0.398179
O O12 0.750000 0.500000 0.243823
O O13 0.898099 0.485072 0.190165
O O14 0.500000 0.121195 0.850483
O O15 0.621117 0.150595 0.753211
O O16 0.500000 0.648211 0.349309
O O17 0.384248 0.750000 0.362840
#
# Coordination Sequence:
#
# PCOD8279025 Si02
#       6
#    16  16  16  16  16  16
#     4  10  21  37  55  76 108 147 182 217 260 315
#     4  10  20  33  50  75 107 142 180 220 263 311
#     4   9  19  37  57  80 109 141 176 214 264 322
#     4  10  20  36  56  79 105 136 176 219 266 316
#     4  10  19  32  53  78 104 137 178 223 266 309
#     4   9  18  33  55  83 111 138 173 221 271 314
#
# _framework density 19.431208999999999
#
# number of rings (size 3 to 8) (size 9 to 14) (size 15 to 20)
#    0.000    2.333    0.000    2.500    0.000    3.333 
#    0.000   15.000    0.000    2.000    0.000    0.000 
#    0.000    0.000    0.000    0.000    0.000    0.000 
#
# Total GULP energy -595025.063580 kJ/mol
# GULP energy per Si atom -12396.355491 kJ/mol
# Density = 1.938698 g / cm^3
# Si number density = 19.431209 Si / 1000 Ang^3
#
#
#
# Elastic Constant Matrix: (Units=GPa)
#
#
# Indices 1 2 3 4 5 6 
#
# 1 57.1438 34.4072 30.4487 0.0000 0.0000 0.0000
# 2 34.4072 119.3825 78.8674 0.0000 0.0000 0.0000
# 3 30.4487 78.8674 158.5483 0.0000 0.0000 0.0000
# 4 0.0000 0.0000 0.0000 21.0543 0.0000 0.0000
# 5 0.0000 0.0000 0.0000 0.0000 13.1806 0.0000
# 6 0.0000 0.0000 0.0000 0.0000 0.0000 31.5732
#
#
#
# Elastic Compliance Matrix: (Units=1/GPa)
#
#
# Indices 1 2 3 4 5 6 
#
# 1 0.021428 -0.005149 -0.001554 0.000000 0.000000 0.000000
# 2 -0.005149 0.013714 -0.005833 0.000000 0.000000 0.000000
# 3 -0.001554 -0.005833 0.009507 0.000000 0.000000 0.000000
# 4 0.000000 0.000000 0.000000 0.047496 0.000000 0.000000
# 5 0.000000 0.000000 0.000000 0.000000 0.075869 0.000000
# 6 0.000000 0.000000 0.000000 0.000000 0.000000 0.031672
#
#
# Mechanical properties :
#
#
# Convention : Reuss Voigt Hill
#
# Bulk Modulus (GPa) = 51.07982 69.16904 60.12443
# Shear Modulus (GPa) = 21.61841 25.91837 23.76839
#
# Velocity S-wave (km/s) = 3.33913 3.65616 3.50123
# Velocity P-wave (km/s) = 6.41957 7.31420 6.88144
#
# Compressibility (1/GPa) = 0.01957720
#
# Stress axis : x y z
#
# Youngs Moduli (GPa) = 46.66764 72.91884 105.18480
#
# Poissons Ratio (x) = 0.37549 0.16343
# Poissons Ratio (y) = 0.24031 0.61353
# Poissons Ratio (z) = 0.07251 0.42532
#
# Static dielectric constant tensor:
#      x y z
#    x 3.447520 0.000000 0.000000 
#    y 0.000000 3.545380 0.000000 
#    z 0.000000 0.000000 3.853020 
# 
# 
# High freq. dielectric constant tensor:
#      x y z
#    x 1.747640 0.000000 0.000000 
#    y 0.000000 1.747090 0.000000 
#    z 0.000000 0.000000 1.754170 
# 
# From -- ./inp_files/34228.got.cif
#   From: 2010.03.12/outbox.cif.g09.slc.cpg/sg67_18_cif.got.tgz:34228.got - 2010.04.10 22:41:39.
