data_PCOD8279099
_publ_section_title
;
Structure prediction by ZEFSAII (Michael W. Deem and Ramdas Pophale) SiO2 
 PCOD8279099
Probable space group: C M M A
;
_chemical_formula_sum "Si O2"
_cell_formula_units_Z 72
_cell_length_a 15.530145
_cell_length_b 8.776150
_cell_length_c 28.147493
_cell_angle_alpha 90.000000
_cell_angle_beta 90.000000
_cell_angle_gamma 90.000000
_cell_volume 3836.359238
_symmetry_space_group_name_H-M "C M M A"
_symmetry_group_IT_number 67
_symmetry_cell_setting 'orthorhombic'
loop_
_space_group_symop_operation_xyz
x,y,z
-x,1/2-y,z
x,-y,-z
-x,1/2+y,-z
-x,-y,-z
x,1/2+y,-z
-x,y,z
x,1/2-y,z
1/2+x,1/2+y,z
1/2-x,-y,z
1/2+x,1/2-y,-z
1/2-x,y,-z
1/2-x,1/2-y,-z
1/2+x,y,-z
1/2-x,1/2+y,z
1/2+x,-y,z
loop_
_atom_site_type_symbol
_atom_site_label
_atom_site_fract_x
_atom_site_fract_y
_atom_site_fract_z
Si Si1 0.838624 0.930213 0.779793
Si Si2 0.160234 0.931811 0.551273
Si Si3 0.000000 0.068178 0.279710
Si Si4 0.000000 0.568989 0.948224
Si Si5 0.000000 0.569482 0.613571
Si Si6 0.661451 0.929928 0.112092
O O1 0.832355 0.750000 0.776498
O O2 0.915762 0.993739 0.747363
O O3 0.855589 0.983493 0.833872
O O4 0.750000 0.000000 0.760210
O O5 0.166653 0.750000 0.547694
O O6 0.085443 0.987327 0.586690
O O7 0.138326 0.000000 0.500000
O O8 0.250000 0.000000 0.570565
O O9 0.000000 0.250000 0.279347
O O10 0.000000 0.002629 0.333162
O O11 0.083812 0.509084 0.920284
O O12 0.000000 0.750000 0.951207
O O13 0.000000 0.500000 0.000000
O O14 0.000000 0.750000 0.615252
O O15 0.668589 0.750000 0.109279
O O16 0.750000 0.000000 0.092357
#
# Coordination Sequence:
#
# PCOD8279099 Si02
#       6
#    16  16   8   8   8  16
#     4   9  17  31  53  75  96 125 162 199 237 281
#     4  10  19  33  52  73  96 125 162 202 241 283
#     4   9  17  31  50  72  99 132 162 190 234 293
#     4  10  21  35  50  70  99 130 162 197 239 288
#     4   9  19  32  48  72 101 130 160 195 238 287
#     4   9  18  33  52  74  97 125 161 201 239 281
#
# _framework density 18.767795
#
# number of rings (size 3 to 8) (size 9 to 14) (size 15 to 20)
#    0.000    2.667    0.000    2.333    0.000    4.889 
#    0.000    4.444    0.000    9.333    0.000    0.000 
#    0.000    0.000    0.000    0.000    0.000    0.000 
#
# Total GULP energy -446410.726048 kJ/mol
# GULP energy per Si atom -12400.297946 kJ/mol
# Density = 1.872508 g / cm^3
# Si number density = 18.767795 Si / 1000 Ang^3
#
#
#
# Elastic Constant Matrix: (Units=GPa)
#
#
# Indices 1 2 3 4 5 6 
#
# 1 211.5470 32.0156 115.9145 0.0000 0.0000 0.0000
# 2 32.0156 30.0061 23.8999 0.0000 0.0000 0.0000
# 3 115.9145 23.8999 134.3497 0.0000 0.0000 0.0000
# 4 0.0000 0.0000 0.0000 19.3502 0.0000 0.0000
# 5 0.0000 0.0000 0.0000 0.0000 19.2576 0.0000
# 6 0.0000 0.0000 0.0000 0.0000 0.0000 29.1040
#
#
#
# Elastic Compliance Matrix: (Units=1/GPa)
#
#
# Indices 1 2 3 4 5 6 
#
# 1 0.009390 -0.004155 -0.007362 0.000000 0.000000 0.000000
# 2 -0.004155 0.040667 -0.003650 0.000000 0.000000 0.000000
# 3 -0.007362 -0.003650 0.014445 0.000000 0.000000 0.000000
# 4 0.000000 0.000000 0.000000 0.051679 0.000000 0.000000
# 5 0.000000 0.000000 0.000000 0.000000 0.051928 0.000000
# 6 0.000000 0.000000 0.000000 0.000000 0.000000 0.034360
#
#
# Mechanical properties :
#
#
# Convention : Reuss Voigt Hill
#
# Bulk Modulus (GPa) = 29.26752 79.95143 54.60947
# Shear Modulus (GPa) = 20.47583 27.14720 23.81152
#
# Velocity S-wave (km/s) = 3.30663 3.80738 3.56581
# Velocity P-wave (km/s) = 5.49607 7.87534 6.79072
#
# Compressibility (1/GPa) = 0.03416757
#
# Stress axis : x y z
#
# Youngs Moduli (GPa) = 106.49617 24.59024 69.22952
#
# Poissons Ratio (x) = 0.10216 0.50970
# Poissons Ratio (y) = 0.44246 0.25267
# Poissons Ratio (z) = 0.78407 0.08975
#
# Static dielectric constant tensor:
#      x y z
#    x 3.747230 0.000000 0.000000 
#    y 0.000000 3.133700 0.000000 
#    z 0.000000 0.000000 3.551640 
# 
# 
# High freq. dielectric constant tensor:
#      x y z
#    x 1.746120 0.000000 0.000000 
#    y 0.000000 1.700260 0.000000 
#    z 0.000000 0.000000 1.724300 
# 
# From -- ./inp_files/40546.got.cif
#   From: 2010.03.12/outbox.cif.g09.slc.cpg/sg67_21_cif.got.tgz:40546.got - 2010.04.10 22:41:39.
