data_PCOD8279843
_publ_section_title
;
Structure prediction by ZEFSAII (Michael W. Deem and Ramdas Pophale) SiO2 
 PCOD8279843
Probable space group: C M M A
;
_chemical_formula_sum "Si O2"
_cell_formula_units_Z 96
_cell_length_a 19.408910
_cell_length_b 8.772178
_cell_length_c 30.831926
_cell_angle_alpha 90.000000
_cell_angle_beta 90.000000
_cell_angle_gamma 90.000000
_cell_volume 5249.394800
_symmetry_space_group_name_H-M "C M M A"
_symmetry_group_IT_number 67
_symmetry_cell_setting 'orthorhombic'
loop_
_space_group_symop_operation_xyz
x,y,z
-x,1/2-y,z
x,-y,-z
-x,1/2+y,-z
-x,-y,-z
x,1/2+y,-z
-x,y,z
x,1/2-y,z
1/2+x,1/2+y,z
1/2-x,-y,z
1/2+x,1/2-y,-z
1/2-x,y,-z
1/2-x,1/2-y,-z
1/2+x,y,-z
1/2-x,1/2+y,z
1/2+x,-y,z
loop_
_atom_site_type_symbol
_atom_site_label
_atom_site_fract_x
_atom_site_fract_y
_atom_site_fract_z
Si Si1 0.578016 0.929615 0.455705
Si Si2 0.676824 0.430306 0.287786
Si Si3 0.081812 0.420694 0.870084
Si Si4 0.582201 0.921680 0.043524
Si Si5 0.918975 0.074114 0.218022
Si Si6 0.323118 0.068536 0.620836
O O1 0.500000 0.986564 0.448015
O O2 0.581721 0.750000 0.460228
O O3 0.622654 0.986134 0.415145
O O4 0.608157 0.000000 0.500000
O O5 0.684490 0.250000 0.292442
O O6 0.750000 0.500000 0.273436
O O7 0.619401 0.469979 0.252681
O O8 0.652423 0.501083 0.333341
O O9 0.110995 0.250000 0.864263
O O10 0.111836 0.490822 0.914494
O O11 0.105668 0.523867 0.829765
O O12 0.000000 0.417867 0.872787
O O13 0.500000 0.925127 0.043728
O O14 0.609934 0.750000 0.044933
O O15 0.610911 0.000000 0.000000
O O16 0.899304 0.250000 0.224853
O O17 0.000000 0.046248 0.223976
O O18 0.318198 0.250000 0.624486
O O19 0.250000 0.000000 0.607150
#
# Coordination Sequence:
#
# PCOD8279843 Si02
#       6
#    16  16  16  16  16  16
#     4   9  19  35  54  76 103 135 169 205 246 292
#     4  11  22  37  56  77 103 134 170 211 256 304
#     4   9  16  26  40  60  88 121 158 201 247 296
#     4   9  15  22  33  51  78 115 157 198 243 296
#     4  10  20  34  52  74 101 133 168 207 253 304
#     4  10  20  35  54  76 102 132 167 206 250 298
#
# _framework density 18.287822999999999
#
# number of rings (size 3 to 8) (size 9 to 14) (size 15 to 20)
#    0.000    2.333    0.000    4.500    0.000    7.333 
#    0.000    3.333    0.000    0.000    0.000    0.000 
#    0.000    0.667    0.000    6.667    0.000   10.333 
#
# Total GULP energy -595245.117389 kJ/mol
# GULP energy per Si atom -12400.939946 kJ/mol
# Density = 1.824620 g / cm^3
# Si number density = 18.287823 Si / 1000 Ang^3
#
#
#
# Elastic Constant Matrix: (Units=GPa)
#
#
# Indices 1 2 3 4 5 6 
#
# 1 44.1618 27.3330 56.8318 0.0000 0.0000 0.0000
# 2 27.3330 107.6602 51.5204 0.0000 0.0000 0.0000
# 3 56.8318 51.5204 152.9938 0.0000 0.0000 0.0000
# 4 0.0000 0.0000 0.0000 38.4280 0.0000 0.0000
# 5 0.0000 0.0000 0.0000 0.0000 2.0249 0.0000
# 6 0.0000 0.0000 0.0000 0.0000 0.0000 21.6607
#
#
#
# Elastic Compliance Matrix: (Units=1/GPa)
#
#
# Indices 1 2 3 4 5 6 
#
# 1 0.044829 -0.004068 -0.015282 0.000000 0.000000 0.000000
# 2 -0.004068 0.011442 -0.002342 0.000000 0.000000 0.000000
# 3 -0.015282 -0.002342 0.013002 0.000000 0.000000 0.000000
# 4 0.000000 0.000000 0.000000 0.026023 0.000000 0.000000
# 5 0.000000 0.000000 0.000000 0.000000 0.493860 0.000000
# 6 0.000000 0.000000 0.000000 0.000000 0.000000 0.046167
#
#
# Mechanical properties :
#
#
# Convention : Reuss Voigt Hill
#
# Bulk Modulus (GPa) = 38.62817 64.02067 51.32442
# Shear Modulus (GPa) = 7.27447 23.69809 15.48628
#
# Velocity S-wave (km/s) = 1.99660 3.60368 2.91315
# Velocity P-wave (km/s) = 5.14620 7.23869 6.28021
#
# Compressibility (1/GPa) = 0.02588784
#
# Stress axis : x y z
#
# Youngs Moduli (GPa) = 22.30720 87.39734 76.91269
#
# Poissons Ratio (x) = 0.35552 1.17541
# Poissons Ratio (y) = 0.09074 0.18013
# Poissons Ratio (z) = 0.34091 0.20469
#
# Static dielectric constant tensor:
#      x y z
#    x 2.976780 0.000000 0.000000 
#    y 0.000000 3.499000 0.000000 
#    z 0.000000 0.000000 3.566700 
# 
# 
# High freq. dielectric constant tensor:
#      x y z
#    x 1.659270 0.000000 0.000000 
#    y 0.000000 1.724320 0.000000 
#    z 0.000000 0.000000 1.724050 
# 
# From -- ./inp_files/42552.got.cif
#   From: 2010.03.12/outbox.cif.g09.slc.cpg/sg67_22_cif.got.tgz:42552.got - 2010.04.10 22:41:39.
