data_PCOD8279223
_publ_section_title
;
Structure prediction by ZEFSAII (Michael W. Deem and Ramdas Pophale) SiO2 
 PCOD8279223
Probable space group: C M M A
;
_chemical_formula_sum "Si O2"
_cell_formula_units_Z 104
_cell_length_a 9.563873
_cell_length_b 24.329714
_cell_length_c 28.666509
_cell_angle_alpha 90.000000
_cell_angle_beta 90.000000
_cell_angle_gamma 90.000000
_cell_volume 6670.303765
_symmetry_space_group_name_H-M "C M M A"
_symmetry_group_IT_number 67
_symmetry_cell_setting 'orthorhombic'
loop_
_space_group_symop_operation_xyz
x,y,z
-x,1/2-y,z
x,-y,-z
-x,1/2+y,-z
-x,-y,-z
x,1/2+y,-z
-x,y,z
x,1/2-y,z
1/2+x,1/2+y,z
1/2-x,-y,z
1/2+x,1/2-y,-z
1/2-x,y,-z
1/2-x,1/2-y,-z
1/2+x,y,-z
1/2-x,1/2+y,z
1/2+x,-y,z
loop_
_atom_site_type_symbol
_atom_site_label
_atom_site_fract_x
_atom_site_fract_y
_atom_site_fract_z
Si Si1 0.659442 0.750000 0.454095
Si Si2 0.774446 0.684635 0.111229
Si Si3 0.160680 0.187327 0.296533
Si Si4 0.000000 0.315349 0.064185
Si Si5 0.326595 0.942166 0.546355
Si Si6 0.842491 0.314583 0.787372
Si Si7 0.000000 0.815433 0.039938
Si Si8 0.161552 0.358713 0.396410
O O1 0.500000 0.750000 0.470544
O O2 0.750000 0.750000 0.500000
O O3 0.693765 0.802761 0.423281
O O4 0.789425 0.750000 0.114366
O O5 0.625143 0.663416 0.095699
O O6 0.810249 0.659076 0.161861
O O7 0.869814 0.662597 0.069386
O O8 0.208453 0.250000 0.306961
O O9 0.245145 0.160784 0.253306
O O10 0.187809 0.150469 0.341805
O O11 0.000000 0.186287 0.281909
O O12 0.000000 0.250000 0.059263
O O13 0.000000 0.341014 0.012107
O O14 0.500000 0.945912 0.542533
O O15 0.250000 0.917806 0.500000
O O16 0.278134 0.902980 0.588273
O O17 0.250000 0.000000 0.555577
O O18 0.814081 0.250000 0.790615
O O19 0.000000 0.328312 0.773210
O O20 0.000000 0.750000 0.035605
O O21 0.000000 0.377702 0.405348
#
# Coordination Sequence:
#
# PCOD8279223 Si02
#       8
#     8  16  16   8  16  16   8  16
#     4  10  20  32  48  68  96 126 152 178 217 266
#     4   9  15  22  30  41  59  81 113 154 204 256
#     4   9  17  29  45  62  82 112 144 178 219 262
#     4   9  16  20  28  42  56  76 112 154 199 254
#     4  11  22  37  56  77  98 124 154 186 223 265
#     4   9  16  25  35  48  68  95 127 167 212 258
#     4   9  14  22  30  38  56  82 108 148 205 258
#     4  10  19  34  51  70  98 124 152 187 226 269
#
# _framework density 15.591493
#
# number of rings (size 3 to 8) (size 9 to 14) (size 15 to 20)
#    0.000    2.462    1.538    2.769    1.077    4.308 
#    0.000    0.000    0.000    0.000    0.000    0.000 
#    0.000    0.000    0.000    0.000    0.000    0.000 
#
# Total GULP energy -644251.461367 kJ/mol
# GULP energy per Si atom -12389.451180 kJ/mol
# Density = 1.555601 g / cm^3
# Si number density = 15.591493 Si / 1000 Ang^3
#
#
#
# Elastic Constant Matrix: (Units=GPa)
#
#
# Indices 1 2 3 4 5 6 
#
# 1 104.6316 19.4249 50.3599 0.0000 0.0000 0.0000
# 2 19.4249 23.8733 18.5862 0.0000 0.0000 0.0000
# 3 50.3599 18.5862 112.0348 0.0000 0.0000 0.0000
# 4 0.0000 0.0000 0.0000 4.9477 0.0000 0.0000
# 5 0.0000 0.0000 0.0000 0.0000 29.8486 0.0000
# 6 0.0000 0.0000 0.0000 0.0000 0.0000 13.8956
#
#
#
# Elastic Compliance Matrix: (Units=1/GPa)
#
#
# Indices 1 2 3 4 5 6 
#
# 1 0.013141 -0.006997 -0.004746 0.000000 0.000000 0.000000
# 2 -0.006997 0.051826 -0.005453 0.000000 0.000000 0.000000
# 3 -0.004746 -0.005453 0.011964 0.000000 0.000000 0.000000
# 4 0.000000 0.000000 0.000000 0.202114 0.000000 0.000000
# 5 0.000000 0.000000 0.000000 0.000000 0.033502 0.000000
# 6 0.000000 0.000000 0.000000 0.000000 0.000000 0.071965
#
#
# Mechanical properties :
#
#
# Convention : Reuss Voigt Hill
#
# Bulk Modulus (GPa) = 23.50774 46.36461 34.93617
# Shear Modulus (GPa) = 11.54513 19.88298 15.71406
#
# Velocity S-wave (km/s) = 2.72412 3.57493 3.17813
# Velocity P-wave (km/s) = 5.00045 6.84411 5.99359
#
# Compressibility (1/GPa) = 0.04253918
#
# Stress axis : x y z
#
# Youngs Moduli (GPa) = 76.09994 19.29526 83.58654
#
# Poissons Ratio (x) = 0.13501 0.39670
# Poissons Ratio (y) = 0.53249 0.45576
# Poissons Ratio (z) = 0.36116 0.10521
#
# Static dielectric constant tensor:
#      x y z
#    x 2.804860 0.000000 0.000000 
#    y 0.000000 2.384350 0.000000 
#    z 0.000000 0.000000 3.248380 
# 
# 
# High freq. dielectric constant tensor:
#      x y z
#    x 1.612130 0.000000 0.000000 
#    y 0.000000 1.513410 0.000000 
#    z 0.000000 0.000000 1.613450 
# 
# From -- ./inp_files/43862.got.cif
#   From: 2010.03.12/outbox.cif.g09.slc.cpg/sg67_22_cif.got.tgz:43862.got - 2010.04.10 22:41:39.
