data_PCOD8279497
_publ_section_title
;
Structure prediction by ZEFSAII (Michael W. Deem and Ramdas Pophale) SiO2 
 PCOD8279497
Probable space group: C M M A
;
_chemical_formula_sum "Si O2"
_cell_formula_units_Z 96
_cell_length_a 27.222924
_cell_length_b 9.072251
_cell_length_c 24.299304
_cell_angle_alpha 90.000000
_cell_angle_beta 90.000000
_cell_angle_gamma 90.000000
_cell_volume 6001.276854
_symmetry_space_group_name_H-M "C M M A"
_symmetry_group_IT_number 67
_symmetry_cell_setting 'orthorhombic'
loop_
_space_group_symop_operation_xyz
x,y,z
-x,1/2-y,z
x,-y,-z
-x,1/2+y,-z
-x,-y,-z
x,1/2+y,-z
-x,y,z
x,1/2-y,z
1/2+x,1/2+y,z
1/2-x,-y,z
1/2+x,1/2-y,-z
1/2-x,y,-z
1/2-x,1/2-y,-z
1/2+x,y,-z
1/2-x,1/2+y,z
1/2+x,-y,z
loop_
_atom_site_type_symbol
_atom_site_label
_atom_site_fract_x
_atom_site_fract_y
_atom_site_fract_z
Si Si1 0.200885 0.577649 0.878874
Si Si2 0.698619 0.420793 0.328475
Si Si3 0.850341 0.578383 0.218372
Si Si4 0.697373 0.922971 0.551108
Si Si5 0.103451 0.922050 0.942765
Si Si6 0.554992 0.080199 0.155018
O O1 0.210311 0.750000 0.872247
O O2 0.250000 0.500000 0.900960
O O3 0.186534 0.513578 0.819553
O O4 0.158656 0.542660 0.923082
O O5 0.711536 0.250000 0.324466
O O6 0.750000 0.500000 0.318632
O O7 0.659464 0.467119 0.281682
O O8 0.674013 0.454332 0.388493
O O9 0.839288 0.750000 0.208140
O O10 0.906914 0.539786 0.203844
O O11 0.702037 0.750000 0.539233
O O12 0.667634 0.000000 0.500000
O O13 0.750000 0.000000 0.552877
O O14 0.094383 0.750000 0.949970
O O15 0.064893 0.981958 0.898401
O O16 0.093134 0.000000 0.000000
O O17 0.500000 0.047967 0.176747
O O18 0.561316 0.250000 0.137492
#
# Coordination Sequence:
#
# PCOD8279497 Si02
#       6
#    16  16  16  16  16  16
#     4  10  20  32  46  65  88 115 144 173 207 245
#     4   9  17  26  38  58  84 114 144 174 206 241
#     4   9  17  30  46  64  87 112 140 175 212 252
#     4   9  15  23  34  50  75 108 144 176 205 236
#     4  10  21  35  50  68  89 112 140 173 207 248
#     4   9  18  33  52  70  87 109 136 169 213 260
#
# _framework density 15.996596
#
# number of rings (size 3 to 8) (size 9 to 14) (size 15 to 20)
#    0.000    2.667    0.000    2.500    0.000    5.667 
#    0.000    1.667    0.000    0.000    0.000    0.000 
#    0.000    0.667    0.000    0.500    0.000    1.333 
#
# Total GULP energy -594943.256780 kJ/mol
# GULP energy per Si atom -12394.651183 kJ/mol
# Density = 1.596019 g / cm^3
# Si number density = 15.996596 Si / 1000 Ang^3
#
#
#
# Elastic Constant Matrix: (Units=GPa)
#
#
# Indices 1 2 3 4 5 6 
#
# 1 76.3557 26.5522 38.8931 0.0000 0.0000 0.0000
# 2 26.5522 63.0998 41.8134 0.0000 0.0000 0.0000
# 3 38.8931 41.8134 135.1179 0.0000 0.0000 0.0000
# 4 0.0000 0.0000 0.0000 20.3246 0.0000 0.0000
# 5 0.0000 0.0000 0.0000 0.0000 10.6360 0.0000
# 6 0.0000 0.0000 0.0000 0.0000 0.0000 17.2417
#
#
#
# Elastic Compliance Matrix: (Units=1/GPa)
#
#
# Indices 1 2 3 4 5 6 
#
# 1 0.016404 -0.004747 -0.003253 0.000000 0.000000 0.000000
# 2 -0.004747 0.021310 -0.005228 0.000000 0.000000 0.000000
# 3 -0.003253 -0.005228 0.009955 0.000000 0.000000 0.000000
# 4 0.000000 0.000000 0.000000 0.049202 0.000000 0.000000
# 5 0.000000 0.000000 0.000000 0.000000 0.094021 0.000000
# 6 0.000000 0.000000 0.000000 0.000000 0.000000 0.057999
#
#
# Mechanical properties :
#
#
# Convention : Reuss Voigt Hill
#
# Bulk Modulus (GPa) = 47.14100 54.34342 50.74221
# Shear Modulus (GPa) = 17.70424 20.79475 19.24950
#
# Velocity S-wave (km/s) = 3.33040 3.60939 3.47270
# Velocity P-wave (km/s) = 6.65748 7.17049 6.91874
#
# Compressibility (1/GPa) = 0.02121296
#
# Stress axis : x y z
#
# Youngs Moduli (GPa) = 60.95941 46.92631 100.45097
#
# Poissons Ratio (x) = 0.22278 0.32675
# Poissons Ratio (y) = 0.28940 0.52516
# Poissons Ratio (z) = 0.19829 0.24533
#
# Static dielectric constant tensor:
#      x y z
#    x 2.855480 0.000000 0.000000 
#    y 0.000000 3.149600 0.000000 
#    z 0.000000 0.000000 3.644730 
# 
# 
# High freq. dielectric constant tensor:
#      x y z
#    x 1.575530 0.000000 0.000000 
#    y 0.000000 1.625320 0.000000 
#    z 0.000000 0.000000 1.617190 
# 
# From -- ./inp_files/40909.got.cif
#   From: 2010.03.12/outbox.cif.g09.slc.cpg/sg67_21_cif.got.tgz:40909.got - 2010.04.10 22:41:39.
