data_PCOD8279777
_publ_section_title
;
Structure prediction by ZEFSAII (Michael W. Deem and Ramdas Pophale) SiO2 
 PCOD8279777
Probable space group: C M M A
;
_chemical_formula_sum "Si O2"
_cell_formula_units_Z 120
_cell_length_a 26.079021
_cell_length_b 22.818263
_cell_length_c 10.975183
_cell_angle_alpha 90.000000
_cell_angle_beta 90.000000
_cell_angle_gamma 90.000000
_cell_volume 6531.089510
_symmetry_space_group_name_H-M "C M M A"
_symmetry_group_IT_number 67
_symmetry_cell_setting 'orthorhombic'
loop_
_space_group_symop_operation_xyz
x,y,z
-x,1/2-y,z
x,-y,-z
-x,1/2+y,-z
-x,-y,-z
x,1/2+y,-z
-x,y,z
x,1/2-y,z
1/2+x,1/2+y,z
1/2-x,-y,z
1/2+x,1/2-y,-z
1/2-x,y,-z
1/2-x,1/2-y,-z
1/2+x,y,-z
1/2-x,1/2+y,z
1/2+x,-y,z
loop_
_atom_site_type_symbol
_atom_site_label
_atom_site_fract_x
_atom_site_fract_y
_atom_site_fract_z
Si Si1 0.057231 0.979447 0.193111
Si Si2 0.775467 0.089027 0.738452
Si Si3 0.332015 0.622745 0.340386
Si Si4 0.195324 0.815505 0.433161
Si Si5 0.851782 0.317275 0.096676
Si Si6 0.250000 0.629223 0.000000
Si Si7 0.558270 0.594187 0.039863
Si Si8 0.644286 0.999263 0.643652
O O1 0.000000 0.983286 0.245389
O O2 0.062432 0.925921 0.099682
O O3 0.094389 0.965348 0.306766
O O4 0.072310 0.039706 0.125844
O O5 0.723738 0.091712 0.660242
O O6 0.805978 0.147376 0.692625
O O7 0.805861 0.029573 0.707443
O O8 0.762862 0.089221 0.882601
O O9 0.342905 0.652917 0.470858
O O10 0.339377 0.671863 0.238326
O O11 0.367616 0.566506 0.317287
O O12 0.176174 0.750000 0.401389
O O13 0.250000 0.812000 0.500000
O O14 0.865956 0.250000 0.076842
O O15 0.800334 0.331642 0.021658
O O16 0.901068 0.354127 0.056621
O O17 0.500000 0.616078 0.066946
O O18 0.650814 0.000000 0.500000
#
# Coordination Sequence:
#
# PCOD8279777 Si02
#       8
#    16  16  16  16  16   8  16  16
#     4   9  19  36  57  79 106 140 179 225 282 343
#     4  10  21  34  51  76 106 147 184 226 273 319
#     4  10  20  34  48  76 107 143 182 223 274 331
#     4   9  17  31  50  69  96 137 186 225 265 323
#     4  11  21  35  55  80 114 148 184 230 279 338
#     4  10  23  38  51  78 120 155 187 220 280 342
#     4   9  18  36  60  81 106 142 185 235 281 332
#     4  12  21  33  56  80 110 140 180 235 285 332
#
# _framework density 18.373657999999999
#
# number of rings (size 3 to 8) (size 9 to 14) (size 15 to 20)
#    0.000    2.000    2.667    2.600    0.000    4.800 
#    0.000    2.667    0.000    0.000    0.000    0.000 
#    0.000    1.067    0.000    0.000    0.000    0.000 
#
# Total GULP energy -743596.202465 kJ/mol
# GULP energy per Si atom -12393.270041 kJ/mol
# Density = 1.833184 g / cm^3
# Si number density = 18.373658 Si / 1000 Ang^3
#
#
#
# Elastic Constant Matrix: (Units=GPa)
#
#
# Indices 1 2 3 4 5 6 
#
# 1 87.1607 25.6400 25.1321 0.0000 0.0000 0.0000
# 2 25.6400 92.1678 19.2695 0.0000 0.0000 0.0000
# 3 25.1321 19.2695 94.1313 0.0000 0.0000 0.0000
# 4 0.0000 0.0000 0.0000 19.0262 0.0000 0.0000
# 5 0.0000 0.0000 0.0000 0.0000 21.7288 0.0000
# 6 0.0000 0.0000 0.0000 0.0000 0.0000 17.9637
#
#
#
# Elastic Compliance Matrix: (Units=1/GPa)
#
#
# Indices 1 2 3 4 5 6 
#
# 1 0.013212 -0.003069 -0.002899 0.000000 0.000000 0.000000
# 2 -0.003069 0.012048 -0.001647 0.000000 0.000000 0.000000
# 3 -0.002899 -0.001647 0.011735 0.000000 0.000000 0.000000
# 4 0.000000 0.000000 0.000000 0.052559 0.000000 0.000000
# 5 0.000000 0.000000 0.000000 0.000000 0.046022 0.000000
# 6 0.000000 0.000000 0.000000 0.000000 0.000000 0.055668
#
#
# Mechanical properties :
#
#
# Convention : Reuss Voigt Hill
#
# Bulk Modulus (GPa) = 45.94760 45.94922 45.94841
# Shear Modulus (GPa) = 23.39420 25.30496 24.34958
#
# Velocity S-wave (km/s) = 3.57213 3.71515 3.64434
# Velocity P-wave (km/s) = 6.48653 6.59284 6.53990
#
# Compressibility (1/GPa) = 0.02176392
#
# Stress axis : x y z
#
# Youngs Moduli (GPa) = 75.68944 83.00193 85.21789
#
# Poissons Ratio (x) = 0.25475 0.24706
# Poissons Ratio (y) = 0.23231 0.14034
# Poissons Ratio (z) = 0.21943 0.13669
#
# Static dielectric constant tensor:
#      x y z
#    x 3.205420 0.000000 0.000000 
#    y 0.000000 3.417760 0.000000 
#    z 0.000000 0.000000 3.326120 
# 
# 
# High freq. dielectric constant tensor:
#      x y z
#    x 1.686700 0.000000 0.000000 
#    y 0.000000 1.705820 0.000000 
#    z 0.000000 0.000000 1.711230 
# 
# From -- ./inp_files/23183.got.cif
#   From: 2010.03.12/outbox.cif.g09.slc.cpg/sg67_12_cif.got.tgz:23183.got - 2010.04.10 22:41:39.
