data_PCOD8279509
_publ_section_title
;
Structure prediction by ZEFSAII (Michael W. Deem and Ramdas Pophale) SiO2 
 PCOD8279509
Probable space group: C M M A
;
_chemical_formula_sum "Si O2"
_cell_formula_units_Z 80
_cell_length_a 25.986728
_cell_length_b 36.156571
_cell_length_c 5.138621
_cell_angle_alpha 90.000000
_cell_angle_beta 90.000000
_cell_angle_gamma 90.000000
_cell_volume 4828.201921
_symmetry_space_group_name_H-M "C M M A"
_symmetry_group_IT_number 67
_symmetry_cell_setting 'orthorhombic'
loop_
_space_group_symop_operation_xyz
x,y,z
-x,1/2-y,z
x,-y,-z
-x,1/2+y,-z
-x,-y,-z
x,1/2+y,-z
-x,y,z
x,1/2-y,z
1/2+x,1/2+y,z
1/2-x,-y,z
1/2+x,1/2-y,-z
1/2-x,y,-z
1/2-x,1/2-y,-z
1/2+x,y,-z
1/2-x,1/2+y,z
1/2+x,-y,z
loop_
_atom_site_type_symbol
_atom_site_label
_atom_site_fract_x
_atom_site_fract_y
_atom_site_fract_z
Si Si1 0.691749 0.080841 0.976862
Si Si2 0.217611 0.340730 0.236744
Si Si3 0.688531 0.042164 0.486550
Si Si4 0.442393 0.206090 0.189572
Si Si5 0.880463 0.293863 0.309741
O O1 0.691154 0.124357 0.908785
O O2 0.663372 0.060296 0.741677
O O3 0.750000 0.066651 0.000000
O O4 0.665915 0.066703 0.246049
O O5 0.250000 0.351926 0.500000
O O6 0.175537 0.311682 0.330607
O O7 0.250000 0.321932 0.000000
O O8 0.750000 0.044872 0.500000
O O9 0.669647 0.000000 0.500000
O O10 0.500000 0.189405 0.180544
O O11 0.445754 0.250000 0.184165
O O12 0.414126 0.192286 0.448073
O O13 0.409947 0.191744 0.944822
O O14 0.873007 0.250000 0.310690
#
# Coordination Sequence:
#
# PCOD8279509 Si02
#       5
#    16  16  16  16  16
#     4   9  16  26  37  52  75 106 142 175 211 250
#     4  11  21  32  44  59  87 126 162 192 219 253
#     4   9  15  23  37  55  73  95 132 181 220 247
#     4   9  17  31  50  69  87 105 133 184 245 296
#     4  10  20  32  47  67  87 113 154 194 230 273
#
# _framework density 16.569316000000001
#
# number of rings (size 3 to 8) (size 9 to 14) (size 15 to 20)
#    0.000    2.400    0.000    5.400    0.000    5.600 
#    0.000    0.000    0.000    0.000    0.000    0.000 
#    0.000    0.000    0.000    0.000    0.000   70.000 
#
# Total GULP energy -495562.273016 kJ/mol
# GULP energy per Si atom -12389.056825 kJ/mol
# Density = 1.653160 g / cm^3
# Si number density = 16.569316 Si / 1000 Ang^3
#
#
#
# Elastic Constant Matrix: (Units=GPa)
#
#
# Indices 1 2 3 4 5 6 
#
# 1 55.6497 30.1480 31.3046 0.0000 0.0000 0.0000
# 2 30.1480 53.0498 39.3624 0.0000 0.0000 0.0000
# 3 31.3046 39.3624 146.3651 0.0000 0.0000 0.0000
# 4 0.0000 0.0000 0.0000 17.3336 0.0000 0.0000
# 5 0.0000 0.0000 0.0000 0.0000 18.0777 0.0000
# 6 0.0000 0.0000 0.0000 0.0000 0.0000 0.4354
#
#
#
# Elastic Compliance Matrix: (Units=1/GPa)
#
#
# Indices 1 2 3 4 5 6 
#
# 1 0.026430 -0.013525 -0.002016 0.000000 0.000000 0.000000
# 2 -0.013525 0.030470 -0.005302 0.000000 0.000000 0.000000
# 3 -0.002016 -0.005302 0.008689 0.000000 0.000000 0.000000
# 4 0.000000 0.000000 0.000000 0.057691 0.000000 0.000000
# 5 0.000000 0.000000 0.000000 0.000000 0.055317 0.000000
# 6 0.000000 0.000000 0.000000 0.000000 0.000000 2.296774
#
#
# Mechanical properties :
#
#
# Convention : Reuss Voigt Hill
#
# Bulk Modulus (GPa) = 41.83155 50.74382 46.28769
# Shear Modulus (GPa) = 1.98018 17.45264 9.71641
#
# Velocity S-wave (km/s) = 1.09439 3.24900 2.42422
# Velocity P-wave (km/s) = 5.18634 6.69076 5.98600
#
# Compressibility (1/GPa) = 0.02390540
#
# Stress axis : x y z
#
# Youngs Moduli (GPa) = 37.83526 32.81910 115.08582
#
# Poissons Ratio (x) = 0.44387 0.23198
# Poissons Ratio (y) = 0.51171 0.61016
# Poissons Ratio (z) = 0.07626 0.17400
#
# Static dielectric constant tensor:
#      x y z
#    x 2.685810 0.000000 0.000000 
#    y 0.000000 2.847730 0.000000 
#    z 0.000000 0.000000 3.660400 
# 
# 
# High freq. dielectric constant tensor:
#      x y z
#    x 1.568950 0.000000 0.000000 
#    y 0.000000 1.612350 0.000000 
#    z 0.000000 0.000000 1.672410 
# 
# From -- ./inp_files/3561.got.cif
#   From: 2010.03.12/outbox.cif.g09.slc.cpg/sg67_2_cif.got.tgz:3561.got - 2010.04.10 22:41:39.
