data_PCOD8279518
_publ_section_title
;
Structure prediction by ZEFSAII (Michael W. Deem and Ramdas Pophale) SiO2 
 PCOD8279518
Probable space group: C M M A
;
_chemical_formula_sum "Si O2"
_cell_formula_units_Z 96
_cell_length_a 27.619294
_cell_length_b 8.824701
_cell_length_c 23.696376
_cell_angle_alpha 90.000000
_cell_angle_beta 90.000000
_cell_angle_gamma 90.000000
_cell_volume 5775.565385
_symmetry_space_group_name_H-M "C M M A"
_symmetry_group_IT_number 67
_symmetry_cell_setting 'orthorhombic'
loop_
_space_group_symop_operation_xyz
x,y,z
-x,1/2-y,z
x,-y,-z
-x,1/2+y,-z
-x,-y,-z
x,1/2+y,-z
-x,y,z
x,1/2-y,z
1/2+x,1/2+y,z
1/2-x,-y,z
1/2+x,1/2-y,-z
1/2-x,y,-z
1/2-x,1/2-y,-z
1/2+x,y,-z
1/2-x,1/2+y,z
1/2+x,-y,z
loop_
_atom_site_type_symbol
_atom_site_label
_atom_site_fract_x
_atom_site_fract_y
_atom_site_fract_z
Si Si1 0.555037 0.071770 0.558598
Si Si2 0.446658 0.070326 0.225045
Si Si3 0.198731 0.930011 0.940603
Si Si4 0.800508 0.926770 0.273206
Si Si5 0.353756 0.929260 0.839417
Si Si6 0.104537 0.928351 0.336880
O O1 0.500000 0.020606 0.572560
O O2 0.559004 0.250000 0.552925
O O3 0.572445 0.000000 0.500000
O O4 0.591130 0.015776 0.606712
O O5 0.500000 0.004544 0.210816
O O6 0.447355 0.250000 0.228040
O O7 0.408586 0.022308 0.176812
O O8 0.429901 0.011836 0.286409
O O9 0.203344 0.750000 0.945821
O O10 0.250000 0.000000 0.921929
O O11 0.159041 0.975327 0.894600
O O12 0.182048 0.000000 0.000000
O O13 0.792465 0.750000 0.271110
O O14 0.818490 0.979921 0.211489
O O15 0.840177 0.968574 0.320571
O O16 0.750000 0.000000 0.290229
O O17 0.349633 0.750000 0.851260
O O18 0.097825 0.750000 0.346529
#
# Coordination Sequence:
#
# PCOD8279518 Si02
#       6
#    16  16  16  16  16  16
#     4  10  20  32  47  69  95 123 154 188 229 275
#     4   8  14  26  47  72  96 125 157 187 224 271
#     4  11  21  33  49  69  93 121 153 189 232 277
#     4   9  18  30  46  69  96 126 156 188 227 272
#     4   9  17  30  47  70  98 124 154 190 227 270
#     4   9  17  30  48  70  95 123 156 191 228 271
#
# _framework density 16.621749000000001
#
# number of rings (size 3 to 8) (size 9 to 14) (size 15 to 20)
#    0.000    2.667    0.000    5.500    0.000    4.333 
#    0.000    2.500    0.000    2.500    0.000    3.500 
#    0.000    0.000    0.000    0.000    0.000    0.000 
#
# Total GULP energy -595103.572157 kJ/mol
# GULP energy per Si atom -12397.991087 kJ/mol
# Density = 1.658392 g / cm^3
# Si number density = 16.621749 Si / 1000 Ang^3
#
#
#
# Elastic Constant Matrix: (Units=GPa)
#
#
# Indices 1 2 3 4 5 6 
#
# 1 128.5221 38.6209 68.8366 0.0000 0.0000 0.0000
# 2 38.6209 65.0842 46.0819 0.0000 0.0000 0.0000
# 3 68.8366 46.0819 122.7630 0.0000 0.0000 0.0000
# 4 0.0000 0.0000 0.0000 27.2006 0.0000 0.0000
# 5 0.0000 0.0000 0.0000 0.0000 35.7616 0.0000
# 6 0.0000 0.0000 0.0000 0.0000 0.0000 22.3296
#
#
#
# Elastic Compliance Matrix: (Units=1/GPa)
#
#
# Indices 1 2 3 4 5 6 
#
# 1 0.011560 -0.003092 -0.005321 0.000000 0.000000 0.000000
# 2 -0.003092 0.021754 -0.006432 0.000000 0.000000 0.000000
# 3 -0.005321 -0.006432 0.013544 0.000000 0.000000 0.000000
# 4 0.000000 0.000000 0.000000 0.036764 0.000000 0.000000
# 5 0.000000 0.000000 0.000000 0.000000 0.027963 0.000000
# 6 0.000000 0.000000 0.000000 0.000000 0.000000 0.044784
#
#
# Mechanical properties :
#
#
# Convention : Reuss Voigt Hill
#
# Bulk Modulus (GPa) = 58.25139 69.27202 63.76170
# Shear Modulus (GPa) = 26.07141 27.91368 26.99254
#
# Velocity S-wave (km/s) = 3.96474 4.10243 4.03417
# Velocity P-wave (km/s) = 7.48868 8.01286 7.75520
#
# Compressibility (1/GPa) = 0.01716697
#
# Stress axis : x y z
#
# Youngs Moduli (GPa) = 86.50482 45.96951 73.83344
#
# Poissons Ratio (x) = 0.14214 0.39290
# Poissons Ratio (y) = 0.26747 0.47489
# Poissons Ratio (z) = 0.46033 0.29567
#
# Static dielectric constant tensor:
#      x y z
#    x -7.290670 0.000000 0.000000 
#    y 0.000000 2.914110 0.000000 
#    z 0.000000 0.000000 3.042110 
# 
# 
# High freq. dielectric constant tensor:
#      x y z
#    x 1.633560 0.000000 0.000000 
#    y 0.000000 1.627390 0.000000 
#    z 0.000000 0.000000 1.632390 
# 
# From -- ./inp_files/40938.got.cif
#   From: 2010.03.12/outbox.cif.g09.slc.cpg/sg67_21_cif.got.tgz:40938.got - 2010.04.10 22:41:39.
