data_PCOD8279100
_publ_section_title
;
Structure prediction by ZEFSAII (Michael W. Deem and Ramdas Pophale) SiO2 
 PCOD8279100
Probable space group: C M M A
;
_chemical_formula_sum "Si O2"
_cell_formula_units_Z 96
_cell_length_a 8.811213
_cell_length_b 19.679387
_cell_length_c 30.971014
_cell_angle_alpha 90.000000
_cell_angle_beta 90.000000
_cell_angle_gamma 90.000000
_cell_volume 5370.351236
_symmetry_space_group_name_H-M "C M M A"
_symmetry_group_IT_number 67
_symmetry_cell_setting 'orthorhombic'
loop_
_space_group_symop_operation_xyz
x,y,z
-x,1/2-y,z
x,-y,-z
-x,1/2+y,-z
-x,-y,-z
x,1/2+y,-z
-x,y,z
x,1/2-y,z
1/2+x,1/2+y,z
1/2-x,-y,z
1/2+x,1/2-y,-z
1/2-x,y,-z
1/2-x,1/2-y,-z
1/2+x,y,-z
1/2-x,1/2+y,z
1/2+x,-y,z
loop_
_atom_site_type_symbol
_atom_site_label
_atom_site_fract_x
_atom_site_fract_y
_atom_site_fract_z
Si Si1 0.818482 0.571695 0.205909
Si Si2 0.668214 0.669080 0.626964
Si Si3 0.330622 0.668994 0.457384
Si Si4 0.180848 0.325571 0.720960
Si Si5 0.323755 0.670782 0.954306
Si Si6 0.818835 0.572420 0.885626
O O1 0.750000 0.500000 0.220198
O O2 0.761648 0.624932 0.241620
O O3 0.748478 0.594628 0.160444
O O4 0.000000 0.567703 0.202074
O O5 0.500000 0.638658 0.622479
O O6 0.662470 0.750000 0.624550
O O7 0.762400 0.638820 0.586956
O O8 0.739605 0.648917 0.673751
O O9 0.500000 0.642412 0.459898
O O10 0.319451 0.750000 0.456806
O O11 0.250000 0.639726 0.500000
O O12 0.243304 0.250000 0.731110
O O13 0.000000 0.323740 0.719095
O O14 0.500000 0.649184 0.954534
O O15 0.305367 0.750000 0.943413
O O16 0.230575 0.629541 0.919045
O O17 0.250000 0.652906 0.000000
O O18 0.750000 0.500000 0.899926
O O19 0.000000 0.566899 0.883248
#
# Coordination Sequence:
#
# PCOD8279100 Si02
#       6
#    16  16  16  16  16  16
#     4  10  19  33  52  73  99 130 164 203 248 295
#     4   8  13  23  38  55  77 106 142 185 229 272
#     4   9  15  21  30  47  73 107 144 179 219 269
#     4   8  15  28  47  69  91 120 159 198 237 285
#     4  10  21  38  59  83 111 141 172 207 249 296
#     4  11  22  37  56  78 105 136 173 213 254 298
#
# _framework density 17.875926
#
# number of rings (size 3 to 8) (size 9 to 14) (size 15 to 20)
#    0.000    2.667    0.000    5.000    0.000    4.000 
#    0.000    5.000    0.000    3.500    0.000    0.000 
#    0.000    0.667    0.000    7.667    0.000    9.333 
#
# Total GULP energy -594978.024376 kJ/mol
# GULP energy per Si atom -12395.375508 kJ/mol
# Density = 1.783524 g / cm^3
# Si number density = 17.875926 Si / 1000 Ang^3
#
#
#
# Elastic Constant Matrix: (Units=GPa)
#
#
# Indices 1 2 3 4 5 6 
#
# 1 116.3458 34.4255 65.3760 0.0000 0.0000 0.0000
# 2 34.4255 58.2392 74.6033 0.0000 0.0000 0.0000
# 3 65.3760 74.6033 167.7508 0.0000 0.0000 0.0000
# 4 0.0000 0.0000 0.0000 -2.5644 0.0000 0.0000
# 5 0.0000 0.0000 0.0000 0.0000 29.9785 0.0000
# 6 0.0000 0.0000 0.0000 0.0000 0.0000 19.0341
#
#
#
# Elastic Compliance Matrix: (Units=1/GPa)
#
#
# Indices 1 2 3 4 5 6 
#
# 1 0.011145 -0.002380 -0.003285 0.000000 0.000000 0.000000
# 2 -0.002380 0.040411 -0.017044 0.000000 0.000000 0.000000
# 3 -0.003285 -0.017044 0.014822 0.000000 0.000000 0.000000
# 4 0.000000 0.000000 0.000000 -0.389960 0.000000 0.000000
# 5 0.000000 0.000000 0.000000 0.000000 0.033357 0.000000
# 6 0.000000 0.000000 0.000000 0.000000 0.000000 0.052537
#
#
# Mechanical properties :
#
#
# Convention : Reuss Voigt Hill
#
# Bulk Modulus (GPa) = 47.71213 76.79394 62.25304
# Shear Modulus (GPa) = -26.98568 20.48504 -3.25032
#
# Velocity S-wave (km/s) = -3.88959 3.38887 -1.34989
# Velocity P-wave (km/s) = 2.56453 7.63972 5.69834
#
# Compressibility (1/GPa) = 0.02095903
#
# Stress axis : x y z
#
# Youngs Moduli (GPa) = 89.72485 24.74598 67.46925
#
# Poissons Ratio (x) = 0.05889 0.22165
# Poissons Ratio (y) = 0.21352 1.14996
# Poissons Ratio (z) = 0.29476 0.42178
#
# Static dielectric constant tensor:
#      x y z
#    x 3.321830 0.000000 0.000000 
#    y 0.000000 2.988520 0.000000 
#    z 0.000000 0.000000 3.629220 
# 
# 
# High freq. dielectric constant tensor:
#      x y z
#    x 1.688850 0.000000 0.000000 
#    y 0.000000 1.645010 0.000000 
#    z 0.000000 0.000000 1.710680 
# 
# From -- ./inp_files/43650.got.cif
#   From: 2010.03.12/outbox.cif.g09.slc.cpg/sg67_22_cif.got.tgz:43650.got - 2010.04.10 22:41:39.
