data_PCOD8279681
_publ_section_title
;
Structure prediction by ZEFSAII (Michael W. Deem and Ramdas Pophale) SiO2 
 PCOD8279681
Probable space group: C M M A
;
_chemical_formula_sum "Si O2"
_cell_formula_units_Z 128
_cell_length_a 22.824371
_cell_length_b 26.192772
_cell_length_c 11.348239
_cell_angle_alpha 90.000000
_cell_angle_beta 90.000000
_cell_angle_gamma 90.000000
_cell_volume 6784.357958
_symmetry_space_group_name_H-M "C M M A"
_symmetry_group_IT_number 67
_symmetry_cell_setting 'orthorhombic'
loop_
_space_group_symop_operation_xyz
x,y,z
-x,1/2-y,z
x,-y,-z
-x,1/2+y,-z
-x,-y,-z
x,1/2+y,-z
-x,y,z
x,1/2-y,z
1/2+x,1/2+y,z
1/2-x,-y,z
1/2+x,1/2-y,-z
1/2-x,y,-z
1/2-x,1/2-y,-z
1/2+x,y,-z
1/2-x,1/2+y,z
1/2+x,-y,z
loop_
_atom_site_type_symbol
_atom_site_label
_atom_site_fract_x
_atom_site_fract_y
_atom_site_fract_z
Si Si1 0.747905 0.694858 0.220794
Si Si2 0.753840 0.899414 0.638836
Si Si3 0.433485 0.500318 0.138798
Si Si4 0.628329 0.408973 0.270067
Si Si5 0.623984 0.807839 0.131862
Si Si6 0.067165 0.442218 0.505152
Si Si7 0.872550 0.807653 0.134714
Si Si8 0.383046 0.407248 0.729403
O O1 0.745341 0.750000 0.279355
O O2 0.748700 0.660975 0.338901
O O3 0.693661 0.684915 0.134730
O O4 0.802493 0.688615 0.133660
O O5 0.750000 0.912831 0.500000
O O6 0.698182 0.920458 0.714346
O O7 0.815407 0.918453 0.693213
O O8 0.500000 0.499591 0.189658
O O9 0.398452 0.451859 0.186608
O O10 0.399671 0.551380 0.173561
O O11 0.434621 0.500000 0.000000
O O12 0.602347 0.409885 0.400081
O O13 0.607559 0.353596 0.220159
O O14 0.605502 0.750000 0.171666
O O15 0.599738 0.851265 0.219789
O O16 0.603349 0.817245 0.997432
O O17 0.092050 0.500000 0.500000
O O18 0.075183 0.413986 0.382034
O O19 0.000000 0.443351 0.542924
O O20 0.892215 0.750000 0.176676
#
# Coordination Sequence:
#
# PCOD8279681 Si02
#       8
#    16  16  16  16  16  16  16  16
#     4   8  15  27  47  75 109 152 197 228 258 321
#     4  10  20  33  50  81 121 157 178 222 284 344
#     4  11  24  42  63  84 108 144 194 249 290 327
#     4  11  21  37  58  87 117 148 191 231 286 344
#     4   9  17  31  53  81 115 152 186 226 278 337
#     4  11  22  39  62  82 105 145 198 247 284 329
#     4   9  17  31  53  81 115 152 186 226 278 337
#     4  11  21  37  58  87 117 148 191 231 286 344
#
# _framework density 18.86693
#
# number of rings (size 3 to 8) (size 9 to 14) (size 15 to 20)
#    0.000    2.000    2.500    1.875    0.000    2.250 
#    0.000    4.375    0.000    3.750    0.000    8.750 
#    0.000    0.000    0.000    0.000    0.000    0.000 
#
# Total GULP energy -792993.199218 kJ/mol
# GULP energy per Si atom -12390.518738 kJ/mol
# Density = 1.882399 g / cm^3
# Si number density = 18.866930 Si / 1000 Ang^3
#
#
#
# Elastic Constant Matrix: (Units=GPa)
#
#
# Indices 1 2 3 4 5 6 
#
# 1 69.5680 35.6159 25.3028 0.0000 0.0000 0.0000
# 2 35.6159 141.1373 58.3166 0.0000 0.0000 0.0000
# 3 25.3028 58.3166 93.0580 0.0000 0.0000 0.0000
# 4 0.0000 0.0000 0.0000 34.4972 0.0000 0.0000
# 5 0.0000 0.0000 0.0000 0.0000 21.1273 0.0000
# 6 0.0000 0.0000 0.0000 0.0000 0.0000 4.3692
#
#
#
# Elastic Compliance Matrix: (Units=1/GPa)
#
#
# Indices 1 2 3 4 5 6 
#
# 1 0.016962 -0.003204 -0.002604 0.000000 0.000000 0.000000
# 2 -0.003204 0.010166 -0.005500 0.000000 0.000000 0.000000
# 3 -0.002604 -0.005500 0.014900 0.000000 0.000000 0.000000
# 4 0.000000 0.000000 0.000000 0.028988 0.000000 0.000000
# 5 0.000000 0.000000 0.000000 0.000000 0.047332 0.000000
# 6 0.000000 0.000000 0.000000 0.000000 0.000000 0.228874
#
#
# Mechanical properties :
#
#
# Convention : Reuss Voigt Hill
#
# Bulk Modulus (GPa) = 51.51225 60.24819 55.88022
# Shear Modulus (GPa) = 13.28693 24.30061 18.79377
#
# Velocity S-wave (km/s) = 2.65664 3.59277 3.15956
# Velocity P-wave (km/s) = 6.06403 7.01521 6.55689
#
# Compressibility (1/GPa) = 0.01941286
#
# Stress axis : x y z
#
# Youngs Moduli (GPa) = 58.95518 98.36384 67.11208
#
# Poissons Ratio (x) = 0.31520 0.17475
# Poissons Ratio (y) = 0.18892 0.36909
# Poissons Ratio (z) = 0.15351 0.54097
#
# Static dielectric constant tensor:
#      x y z
#    x 3.435600 0.000000 0.000000 
#    y 0.000000 3.679240 0.000000 
#    z 0.000000 0.000000 3.349470 
# 
# 
# High freq. dielectric constant tensor:
#      x y z
#    x 1.719260 0.000000 0.000000 
#    y 0.000000 1.737090 0.000000 
#    z 0.000000 0.000000 1.729800 
# 
# From -- ./inp_files/22429.got.cif
#   From: 2010.03.12/outbox.cif.g09.slc.cpg/sg67_12_cif.got.tgz:22429.got - 2010.04.10 22:41:39.
