data_PCOD8279948
_publ_section_title
;
Structure prediction by ZEFSAII (Michael W. Deem and Ramdas Pophale) SiO2 
 PCOD8279948
Probable space group: C M M A
;
_chemical_formula_sum "Si O2"
_cell_formula_units_Z 72
_cell_length_a 31.763980
_cell_length_b 8.762252
_cell_length_c 13.513859
_cell_angle_alpha 90.000000
_cell_angle_beta 90.000000
_cell_angle_gamma 90.000000
_cell_volume 3761.231256
_symmetry_space_group_name_H-M "C M M A"
_symmetry_group_IT_number 67
_symmetry_cell_setting 'orthorhombic'
loop_
_space_group_symop_operation_xyz
x,y,z
-x,1/2-y,z
x,-y,-z
-x,1/2+y,-z
-x,-y,-z
x,1/2+y,-z
-x,y,z
x,1/2-y,z
1/2+x,1/2+y,z
1/2-x,-y,z
1/2+x,1/2-y,-z
1/2-x,y,-z
1/2-x,1/2-y,-z
1/2+x,y,-z
1/2-x,1/2+y,z
1/2+x,-y,z
loop_
_atom_site_type_symbol
_atom_site_label
_atom_site_fract_x
_atom_site_fract_y
_atom_site_fract_z
Si Si1 0.919874 0.571442 0.709342
Si Si2 0.292737 0.071199 0.209429
Si Si3 0.000000 0.069934 0.608141
Si Si4 0.333114 0.571980 0.394456
Si Si5 0.121640 0.069894 0.894166
O O1 0.930058 0.750000 0.715831
O O2 0.959268 0.481784 0.667421
O O3 0.880935 0.537253 0.636943
O O4 0.910416 0.508046 0.818189
O O5 0.287351 0.250000 0.220526
O O6 0.330492 0.028498 0.135174
O O7 0.250000 0.000000 0.165079
O O8 0.301047 0.002120 0.317298
O O9 0.000000 0.250000 0.597272
O O10 0.000000 0.000000 0.500000
O O11 0.324071 0.500000 0.500000
O O12 0.323816 0.750000 0.398455
O O13 0.113984 0.250000 0.894269
O O14 0.111520 0.000000 0.000000
#
# Coordination Sequence:
#
# PCOD8279948 Si02
#       5
#    16  16   8  16  16
#     4  10  21  38  59  84 114 147 185 230 277 328
#     4  10  21  36  54  78 109 142 182 230 277 327
#     4  12  24  38  59  88 121 154 188 226 270 322
#     4  10  20  34  54  78 107 144 184 225 273 329
#     4  10  21  38  60  84 111 146 185 228 278 332
#
# _framework density 19.142666999999999
#
# number of rings (size 3 to 8) (size 9 to 14) (size 15 to 20)
#    0.000    1.778    0.000    4.333    0.000    8.000 
#    0.000    5.000    0.000    0.000    0.000    0.000 
#    0.000    0.000    0.000    0.000    0.000    0.000 
#
# Total GULP energy -446597.263285 kJ/mol
# GULP energy per Si atom -12405.479536 kJ/mol
# Density = 1.909910 g / cm^3
# Si number density = 19.142667 Si / 1000 Ang^3
#
#
#
# Elastic Constant Matrix: (Units=GPa)
#
#
# Indices 1 2 3 4 5 6 
#
# 1 101.5385 51.9410 36.3225 0.0000 0.0000 0.0000
# 2 51.9410 112.6474 47.6649 0.0000 0.0000 0.0000
# 3 36.3225 47.6649 122.8127 0.0000 0.0000 0.0000
# 4 0.0000 0.0000 0.0000 35.0925 0.0000 0.0000
# 5 0.0000 0.0000 0.0000 0.0000 18.1974 0.0000
# 6 0.0000 0.0000 0.0000 0.0000 0.0000 34.9547
#
#
#
# Elastic Compliance Matrix: (Units=1/GPa)
#
#
# Indices 1 2 3 4 5 6 
#
# 1 0.013230 -0.005318 -0.001849 0.000000 0.000000 0.000000
# 2 -0.005318 0.012759 -0.003379 0.000000 0.000000 0.000000
# 3 -0.001849 -0.003379 0.010001 0.000000 0.000000 0.000000
# 4 0.000000 0.000000 0.000000 0.028496 0.000000 0.000000
# 5 0.000000 0.000000 0.000000 0.000000 0.054953 0.000000
# 6 0.000000 0.000000 0.000000 0.000000 0.000000 0.028608
#
#
# Mechanical properties :
#
#
# Convention : Reuss Voigt Hill
#
# Bulk Modulus (GPa) = 67.12297 67.65059 67.38678
# Shear Modulus (GPa) = 28.71810 31.05358 29.88584
#
# Velocity S-wave (km/s) = 3.87746 4.03205 3.95551
# Velocity P-wave (km/s) = 7.42879 7.55602 7.49268
#
# Compressibility (1/GPa) = 0.01489803
#
# Stress axis : x y z
#
# Youngs Moduli (GPa) = 75.58412 78.37473 99.99212
#
# Poissons Ratio (x) = 0.41680 0.18488
# Poissons Ratio (y) = 0.40196 0.33789
# Poissons Ratio (z) = 0.13975 0.26484
#
# Static dielectric constant tensor:
#      x y z
#    x 3.211550 0.000000 0.000000 
#    y 0.000000 3.640450 0.000000 
#    z 0.000000 0.000000 3.466220 
# 
# 
# High freq. dielectric constant tensor:
#      x y z
#    x 1.741660 0.000000 0.000000 
#    y 0.000000 1.764210 0.000000 
#    z 0.000000 0.000000 1.745650 
# 
# From -- ./inp_files/25305.got.cif
#   From: 2010.03.12/outbox.cif.g09.slc.cpg/sg67_13_cif.got.tgz:25305.got - 2010.04.10 22:41:39.
