data_PCOD8279759
_publ_section_title
;
Structure prediction by ZEFSAII (Michael W. Deem and Ramdas Pophale) SiO2 
 PCOD8279759
Probable space group: C M M A
;
_chemical_formula_sum "Si O2"
_cell_formula_units_Z 68
_cell_length_a 17.849489
_cell_length_b 14.922402
_cell_length_c 12.780834
_cell_angle_alpha 90.000000
_cell_angle_beta 90.000000
_cell_angle_gamma 90.000000
_cell_volume 3404.267801
_symmetry_space_group_name_H-M "C M M A"
_symmetry_group_IT_number 67
_symmetry_cell_setting 'orthorhombic'
loop_
_space_group_symop_operation_xyz
x,y,z
-x,1/2-y,z
x,-y,-z
-x,1/2+y,-z
-x,-y,-z
x,1/2+y,-z
-x,y,z
x,1/2-y,z
1/2+x,1/2+y,z
1/2-x,-y,z
1/2+x,1/2-y,-z
1/2-x,y,-z
1/2-x,1/2-y,-z
1/2+x,y,-z
1/2-x,1/2+y,z
1/2+x,-y,z
loop_
_atom_site_type_symbol
_atom_site_label
_atom_site_fract_x
_atom_site_fract_y
_atom_site_fract_z
Si Si1 0.416672 0.647020 0.011617
Si Si2 0.084798 0.420389 0.782105
Si Si3 0.750000 0.000000 0.500000
Si Si4 0.792432 0.848723 0.347524
Si Si5 0.186939 0.929403 0.815391
O O1 0.500000 0.626938 0.059895
O O2 0.410944 0.750000 0.978856
O O3 0.348743 0.625486 0.089276
O O4 0.407007 0.589784 0.906900
O O5 0.131096 0.345641 0.719342
O O6 0.120420 0.517237 0.756705
O O7 0.000000 0.415044 0.743461
O O8 0.798854 0.931218 0.429675
O O9 0.783642 0.750000 0.400307
O O10 0.722108 0.862519 0.269700
O O11 0.250000 0.000000 0.855578
#
# Coordination Sequence:
#
# PCOD8279759 Si02
#       5
#    16  16   4  16  16
#     4  10  20  33  53  83 121 162 198 230 272 336
#     4  10  20  37  58  85 122 159 196 232 280 346
#     4  12  22  48  62  92 108 144 196 248 312 356
#     4  11  23  40  66  89 114 150 191 247 297 347
#     4  10  20  36  54  86 120 155 197 232 284 339
#
# _framework density 19.974927000000001
#
# number of rings (size 3 to 8) (size 9 to 14) (size 15 to 20)
#    0.000    1.647    3.529    3.176    0.000    9.882 
#    0.000    6.471    0.000    0.000    0.000    0.000 
#    0.000    0.000    0.000    0.000    0.000    0.000 
#
# Total GULP energy -421363.069660 kJ/mol
# GULP energy per Si atom -12393.031461 kJ/mol
# Density = 1.992946 g / cm^3
# Si number density = 19.974927 Si / 1000 Ang^3
#
#
#
# Elastic Constant Matrix: (Units=GPa)
#
#
# Indices 1 2 3 4 5 6 
#
# 1 115.0604 47.5030 54.0044 0.0000 0.0000 0.0000
# 2 47.5030 116.0174 28.5423 0.0000 0.0000 0.0000
# 3 54.0044 28.5423 75.7533 0.0000 0.0000 0.0000
# 4 0.0000 0.0000 0.0000 19.2888 0.0000 0.0000
# 5 0.0000 0.0000 0.0000 0.0000 11.4849 0.0000
# 6 0.0000 0.0000 0.0000 0.0000 0.0000 16.5101
#
#
#
# Elastic Compliance Matrix: (Units=1/GPa)
#
#
# Indices 1 2 3 4 5 6 
#
# 1 0.014377 -0.003709 -0.008852 0.000000 0.000000 0.000000
# 2 -0.003709 0.010457 -0.001296 0.000000 0.000000 0.000000
# 3 -0.008852 -0.001296 0.019999 0.000000 0.000000 0.000000
# 4 0.000000 0.000000 0.000000 0.051843 0.000000 0.000000
# 5 0.000000 0.000000 0.000000 0.000000 0.087071 0.000000
# 6 0.000000 0.000000 0.000000 0.000000 0.000000 0.060569
#
#
# Mechanical properties :
#
#
# Convention : Reuss Voigt Hill
#
# Bulk Modulus (GPa) = 58.41119 62.99227 60.70173
# Shear Modulus (GPa) = 18.00268 21.24220 19.62244
#
# Velocity S-wave (km/s) = 3.00536 3.26459 3.13765
# Velocity P-wave (km/s) = 6.43029 6.76862 6.60162
#
# Compressibility (1/GPa) = 0.01712001
#
# Stress axis : x y z
#
# Youngs Moduli (GPa) = 69.55542 95.63154 50.00131
#
# Poissons Ratio (x) = 0.35469 0.44261
# Poissons Ratio (y) = 0.25798 0.06479
# Poissons Ratio (z) = 0.61570 0.12392
#
# Static dielectric constant tensor:
#      x y z
#    x 3.873040 0.000000 0.000000 
#    y 0.000000 3.669400 0.000000 
#    z 0.000000 0.000000 3.458970 
# 
# 
# High freq. dielectric constant tensor:
#      x y z
#    x 1.779290 0.000000 0.000000 
#    y 0.000000 1.789680 0.000000 
#    z 0.000000 0.000000 1.749550 
# 
# From -- ./inp_files/19136.got.cif
#   From: 2010.03.12/outbox.cif.g09.slc.cpg/sg67_10_cif.got.tgz:19136.got - 2010.04.10 22:41:39.
