data_PCOD8279586
_publ_section_title
;
Structure prediction by ZEFSAII (Michael W. Deem and Ramdas Pophale) SiO2 
 PCOD8279586
Probable space group: C M M A
;
_chemical_formula_sum "Si O2"
_cell_formula_units_Z 84
_cell_length_a 13.956828
_cell_length_b 19.483852
_cell_length_c 15.204194
_cell_angle_alpha 90.000000
_cell_angle_beta 90.000000
_cell_angle_gamma 90.000000
_cell_volume 4134.518607
_symmetry_space_group_name_H-M "C M M A"
_symmetry_group_IT_number 67
_symmetry_cell_setting 'orthorhombic'
loop_
_space_group_symop_operation_xyz
x,y,z
-x,1/2-y,z
x,-y,-z
-x,1/2+y,-z
-x,-y,-z
x,1/2+y,-z
-x,y,z
x,1/2-y,z
1/2+x,1/2+y,z
1/2-x,-y,z
1/2+x,1/2-y,-z
1/2-x,y,-z
1/2-x,1/2-y,-z
1/2+x,y,-z
1/2-x,1/2+y,z
1/2+x,-y,z
loop_
_atom_site_type_symbol
_atom_site_label
_atom_site_fract_x
_atom_site_fract_y
_atom_site_fract_z
Si Si1 0.611603 0.419299 0.253619
Si Si2 0.786665 0.330677 0.239714
Si Si3 0.658056 0.324511 0.561124
Si Si4 0.250000 0.500000 0.000000
Si Si5 0.395364 0.559167 0.552925
Si Si6 0.610411 0.555111 0.139847
O O1 0.500000 0.395957 0.247051
O O2 0.681022 0.360490 0.213852
O O3 0.651619 0.423894 0.353660
O O4 0.629206 0.491518 0.205691
O O5 0.789347 0.250000 0.215566
O O6 0.812548 0.344238 0.340807
O O7 0.866752 0.372310 0.185550
O O8 0.608028 0.250000 0.560576
O O9 0.750000 0.325102 0.500000
O O10 0.588212 0.377944 0.514342
O O11 0.319475 0.548420 0.056861
O O12 0.337057 0.500000 0.500000
O O13 0.500000 0.529923 0.578333
O O14 0.500000 0.555857 0.108558
#
# Coordination Sequence:
#
# PCOD8279586 Si02
#       6
#    16  16  16   4  16  16
#     4  10  20  37  60  86 122 165 211 260 308 363
#     4  11  22  39  61  87 126 170 209 253 311 368
#     4  10  20  33  50  76 115 162 209 252 297 347
#     4  12  22  44  78 102 122 152 188 248 320 374
#     4  10  20  32  50  79 112 152 208 266 308 347
#     4  11  24  43  69  99 125 155 201 248 304 380
#
# _framework density 20.316754
#
# number of rings (size 3 to 8) (size 9 to 14) (size 15 to 20)
#    0.000    1.524    3.810    1.429    0.000    3.810 
#    0.000    4.286    0.000    0.000    0.000    0.000 
#    0.000    0.000    0.000    0.000    0.000    0.000 
#
# Total GULP energy -520415.426884 kJ/mol
# GULP energy per Si atom -12390.843497 kJ/mol
# Density = 2.027051 g / cm^3
# Si number density = 20.316754 Si / 1000 Ang^3
#
#
#
# Elastic Constant Matrix: (Units=GPa)
#
#
# Indices 1 2 3 4 5 6 
#
# 1 102.9442 47.1670 44.7607 0.0000 0.0000 0.0000
# 2 47.1670 131.9663 53.9004 0.0000 0.0000 0.0000
# 3 44.7607 53.9004 94.5885 0.0000 0.0000 0.0000
# 4 0.0000 0.0000 0.0000 63.3761 0.0000 0.0000
# 5 0.0000 0.0000 0.0000 0.0000 23.9443 0.0000
# 6 0.0000 0.0000 0.0000 0.0000 0.0000 53.9588
#
#
#
# Elastic Compliance Matrix: (Units=1/GPa)
#
#
# Indices 1 2 3 4 5 6 
#
# 1 0.012965 -0.002774 -0.004555 0.000000 0.000000 0.000000
# 2 -0.002774 0.010470 -0.004654 0.000000 0.000000 0.000000
# 3 -0.004555 -0.004654 0.015379 0.000000 0.000000 0.000000
# 4 0.000000 0.000000 0.000000 0.015779 0.000000 0.000000
# 5 0.000000 0.000000 0.000000 0.000000 0.041764 0.000000
# 6 0.000000 0.000000 0.000000 0.000000 0.000000 0.018533
#
#
# Mechanical properties :
#
#
# Convention : Reuss Voigt Hill
#
# Bulk Modulus (GPa) = 67.33880 69.01724 68.17802
# Shear Modulus (GPa) = 34.76967 40.50057 37.63512
#
# Velocity S-wave (km/s) = 4.14137 4.46966 4.30864
# Velocity P-wave (km/s) = 7.48895 7.78983 7.64087
#
# Compressibility (1/GPa) = 0.01485028
#
# Stress axis : x y z
#
# Youngs Moduli (GPa) = 77.12896 95.51335 65.02247
#
# Poissons Ratio (x) = 0.26492 0.29617
# Poissons Ratio (y) = 0.21393 0.30259
# Poissons Ratio (z) = 0.35131 0.44448
#
# Static dielectric constant tensor:
#      x y z
#    x 3.613510 0.000000 0.000000 
#    y 0.000000 3.943170 0.000000 
#    z 0.000000 0.000000 3.798110 
# 
# 
# High freq. dielectric constant tensor:
#      x y z
#    x 1.800840 0.000000 0.000000 
#    y 0.000000 1.787450 0.000000 
#    z 0.000000 0.000000 1.776830 
# 
# From -- ./inp_files/27083.got.cif
#   From: 2010.03.12/outbox.cif.g09.slc.cpg/sg67_14_cif.got.tgz:27083.got - 2010.04.10 22:41:39.
