data_PCOD8279562
_publ_section_title
;
Structure prediction by ZEFSAII (Michael W. Deem and Ramdas Pophale) SiO2 
 PCOD8279562
Probable space group: C M M A
;
_chemical_formula_sum "Si O2"
_cell_formula_units_Z 80
_cell_length_a 23.893812
_cell_length_b 34.260783
_cell_length_c 4.982476
_cell_angle_alpha 90.000000
_cell_angle_beta 90.000000
_cell_angle_gamma 90.000000
_cell_volume 4078.758031
_symmetry_space_group_name_H-M "C M M A"
_symmetry_group_IT_number 67
_symmetry_cell_setting 'orthorhombic'
loop_
_space_group_symop_operation_xyz
x,y,z
-x,1/2-y,z
x,-y,-z
-x,1/2+y,-z
-x,-y,-z
x,1/2+y,-z
-x,y,z
x,1/2-y,z
1/2+x,1/2+y,z
1/2-x,-y,z
1/2+x,1/2-y,-z
1/2-x,y,-z
1/2-x,1/2-y,-z
1/2+x,y,-z
1/2-x,1/2+y,z
1/2+x,-y,z
loop_
_atom_site_type_symbol
_atom_site_label
_atom_site_fract_x
_atom_site_fract_y
_atom_site_fract_z
Si Si1 0.787553 0.206397 0.241487
Si Si2 0.187422 0.936760 0.584178
Si Si3 0.629784 0.642675 0.428433
Si Si4 0.622377 0.958789 0.909447
Si Si5 0.935689 0.879386 0.072132
O O1 0.807318 0.250000 0.156910
O O2 0.750000 0.208290 0.500000
O O3 0.842441 0.181886 0.315579
O O4 0.750000 0.187938 0.000000
O O5 0.250000 0.946873 0.500000
O O6 0.177325 0.890471 0.554412
O O7 0.173642 0.948483 0.889276
O O8 0.147545 0.961663 0.388235
O O9 0.602172 0.646268 0.723180
O O10 0.579375 0.631982 0.230058
O O11 0.574697 0.925801 0.902563
O O12 0.595263 0.000000 0.000000
O O13 0.000000 0.870183 0.129490
#
# Coordination Sequence:
#
# PCOD8279562 Si02
#       5
#    16  16  16  16  16
#     4  10  20  34  56  86 116 144 171 205 257 316
#     4  10  20  32  49  73 102 137 169 204 258 321
#     4  10  20  35  55  78 106 136 175 218 255 311
#     4  10  21  34  49  73 100 130 173 219 264 316
#     4  10  21  37  56  75  98 136 181 225 269 305
#
# _framework density 19.613813
#
# number of rings (size 3 to 8) (size 9 to 14) (size 15 to 20)
#    0.000    2.000    0.000    3.600    0.000    6.000 
#    0.000    0.000    0.000   10.800    0.000    0.000 
#    0.000    0.000    0.000    0.000    0.000    0.000 
#
# Total GULP energy -495975.549151 kJ/mol
# GULP energy per Si atom -12399.388729 kJ/mol
# Density = 1.956917 g / cm^3
# Si number density = 19.613813 Si / 1000 Ang^3
#
#
#
# Elastic Constant Matrix: (Units=GPa)
#
#
# Indices 1 2 3 4 5 6 
#
# 1 75.2631 28.0935 9.9749 0.0000 0.0000 0.0000
# 2 28.0935 78.1034 11.1412 0.0000 0.0000 0.0000
# 3 9.9749 11.1412 89.3230 0.0000 0.0000 0.0000
# 4 0.0000 0.0000 0.0000 28.6532 0.0000 0.0000
# 5 0.0000 0.0000 0.0000 0.0000 22.3008 0.0000
# 6 0.0000 0.0000 0.0000 0.0000 0.0000 16.7074
#
#
#
# Elastic Compliance Matrix: (Units=1/GPa)
#
#
# Indices 1 2 3 4 5 6 
#
# 1 0.015444 -0.005405 -0.001050 0.000000 0.000000 0.000000
# 2 -0.005405 0.014927 -0.001258 0.000000 0.000000 0.000000
# 3 -0.001050 -0.001258 0.011470 0.000000 0.000000 0.000000
# 4 0.000000 0.000000 0.000000 0.034900 0.000000 0.000000
# 5 0.000000 0.000000 0.000000 0.000000 0.044842 0.000000
# 6 0.000000 0.000000 0.000000 0.000000 0.000000 0.059854
#
#
# Mechanical properties :
#
#
# Convention : Reuss Voigt Hill
#
# Bulk Modulus (GPa) = 37.86061 37.90095 37.88078
# Shear Modulus (GPa) = 24.31108 26.43093 25.37100
#
# Velocity S-wave (km/s) = 3.52446 3.67490 3.60047
# Velocity P-wave (km/s) = 5.99227 6.11327 6.05307
#
# Compressibility (1/GPa) = 0.02641268
#
# Stress axis : x y z
#
# Youngs Moduli (GPa) = 64.75204 66.99159 87.18724
#
# Poissons Ratio (x) = 0.36210 0.09158
# Poissons Ratio (y) = 0.34999 0.10970
# Poissons Ratio (z) = 0.06802 0.08429
#
# Static dielectric constant tensor:
#      x y z
#    x 3.104940 0.000000 0.000000 
#    y 0.000000 3.650320 0.000000 
#    z 0.000000 0.000000 3.790790 
# 
# 
# High freq. dielectric constant tensor:
#      x y z
#    x 1.732450 0.000000 0.000000 
#    y 0.000000 1.749090 0.000000 
#    z 0.000000 0.000000 1.789210 
# 
# From -- ./inp_files/3550.got.cif
#   From: 2010.03.12/outbox.cif.g09.slc.cpg/sg67_2_cif.got.tgz:3550.got - 2010.04.10 22:41:39.
