data_PCOD8279456
_publ_section_title
;
Structure prediction by ZEFSAII (Michael W. Deem and Ramdas Pophale) SiO2 
 PCOD8279456
Probable space group: C M M A
;
_chemical_formula_sum "Si O2"
_cell_formula_units_Z 80
_cell_length_a 9.320599
_cell_length_b 26.052464
_cell_length_c 19.717042
_cell_angle_alpha 90.000000
_cell_angle_beta 90.000000
_cell_angle_gamma 90.000000
_cell_volume 4787.782243
_symmetry_space_group_name_H-M "C M M A"
_symmetry_group_IT_number 67
_symmetry_cell_setting 'orthorhombic'
loop_
_space_group_symop_operation_xyz
x,y,z
-x,1/2-y,z
x,-y,-z
-x,1/2+y,-z
-x,-y,-z
x,1/2+y,-z
-x,y,z
x,1/2-y,z
1/2+x,1/2+y,z
1/2-x,-y,z
1/2+x,1/2-y,-z
1/2-x,y,-z
1/2-x,1/2-y,-z
1/2+x,y,-z
1/2-x,1/2+y,z
1/2+x,-y,z
loop_
_atom_site_type_symbol
_atom_site_label
_atom_site_fract_x
_atom_site_fract_y
_atom_site_fract_z
Si Si1 0.164326 0.690926 0.805933
Si Si2 0.654860 0.691281 0.558082
Si Si3 0.670596 0.051943 0.568810
Si Si4 0.338409 0.188972 0.063623
Si Si5 0.162994 0.853595 0.664199
O O1 0.200213 0.750000 0.785032
O O2 0.263585 0.671270 0.866903
O O3 0.193002 0.651134 0.744352
O O4 0.000000 0.687650 0.830279
O O5 0.500000 0.663425 0.560096
O O6 0.631522 0.750000 0.538911
O O7 0.750000 0.663796 0.500000
O O8 0.733049 0.687696 0.629875
O O9 0.500000 0.043571 0.555890
O O10 0.750000 0.071361 0.500000
O O11 0.695974 0.090871 0.631637
O O12 0.750000 0.000000 0.591893
O O13 0.500000 0.167077 0.061668
O O14 0.339476 0.250000 0.059576
O O15 0.250000 0.166301 0.000000
O O16 0.000000 0.837215 0.648673
#
# Coordination Sequence:
#
# PCOD8279456 Si02
#       5
#    16  16  16  16  16
#     4   9  17  29  44  63  90 122 151 180 216 257
#     4  10  20  31  43  60  83 113 148 182 215 255
#     4  10  20  34  51  69  87 110 144 186 232 278
#     4   9  16  26  41  61  86 118 155 189 217 248
#     4  10  20  32  47  66  88 115 146 181 224 271
#
# _framework density 16.709198000000001
#
# number of rings (size 3 to 8) (size 9 to 14) (size 15 to 20)
#    0.000    2.400    0.000    3.600    0.000    8.400 
#    0.000    2.000    0.000    0.000    0.000    0.000 
#    0.000    0.800    0.000    9.200    0.000    3.200 
#
# Total GULP energy -495724.288182 kJ/mol
# GULP energy per Si atom -12393.107205 kJ/mol
# Density = 1.667117 g / cm^3
# Si number density = 16.709198 Si / 1000 Ang^3
#
#
#
# Elastic Constant Matrix: (Units=GPa)
#
#
# Indices 1 2 3 4 5 6 
#
# 1 143.8087 30.0914 83.8852 0.0000 0.0000 0.0000
# 2 30.0914 48.3885 37.6471 0.0000 0.0000 0.0000
# 3 83.8852 37.6471 135.4889 0.0000 0.0000 0.0000
# 4 0.0000 0.0000 0.0000 18.1560 0.0000 0.0000
# 5 0.0000 0.0000 0.0000 0.0000 32.0077 0.0000
# 6 0.0000 0.0000 0.0000 0.0000 0.0000 12.9315
#
#
#
# Elastic Compliance Matrix: (Units=1/GPa)
#
#
# Indices 1 2 3 4 5 6 
#
# 1 0.011030 -0.001973 -0.006281 0.000000 0.000000 0.000000
# 2 -0.001973 0.026719 -0.006203 0.000000 0.000000 0.000000
# 3 -0.006281 -0.006203 0.012993 0.000000 0.000000 0.000000
# 4 0.000000 0.000000 0.000000 0.055078 0.000000 0.000000
# 5 0.000000 0.000000 0.000000 0.000000 0.031243 0.000000
# 6 0.000000 0.000000 0.000000 0.000000 0.000000 0.077330
#
#
# Mechanical properties :
#
#
# Convention : Reuss Voigt Hill
#
# Bulk Modulus (GPa) = 45.81063 70.10371 57.95717
# Shear Modulus (GPa) = 19.95354 24.35653 22.15503
#
# Velocity S-wave (km/s) = 3.45942 3.82209 3.64527
# Velocity P-wave (km/s) = 6.59035 7.84373 7.24420
#
# Compressibility (1/GPa) = 0.02182899
#
# Stress axis : x y z
#
# Youngs Moduli (GPa) = 90.65988 37.42709 76.96480
#
# Poissons Ratio (x) = 0.07383 0.48342
# Poissons Ratio (y) = 0.17884 0.47739
# Poissons Ratio (z) = 0.56944 0.23215
#
# Static dielectric constant tensor:
#      x y z
#    x 3.517670 0.000000 0.000000 
#    y 0.000000 2.756940 0.000000 
#    z 0.000000 0.000000 3.104970 
# 
# 
# High freq. dielectric constant tensor:
#      x y z
#    x 1.664270 0.000000 0.000000 
#    y 0.000000 1.592880 0.000000 
#    z 0.000000 0.000000 1.634260 
# 
# From -- ./inp_files/32290.got.cif
#   From: 2010.03.12/outbox.cif.g09.slc.cpg/sg67_17_cif.got.tgz:32290.got - 2010.04.10 22:41:39.
