data_PCOD8279056
_publ_section_title
;
Structure prediction by ZEFSAII (Michael W. Deem and Ramdas Pophale) SiO2 
 PCOD8279056
Probable space group: C M M A
;
_chemical_formula_sum "Si O2"
_cell_formula_units_Z 88
_cell_length_a 28.934127
_cell_length_b 8.783391
_cell_length_c 17.663078
_cell_angle_alpha 90.000000
_cell_angle_beta 90.000000
_cell_angle_gamma 90.000000
_cell_volume 4488.890239
_symmetry_space_group_name_H-M "C M M A"
_symmetry_group_IT_number 67
_symmetry_cell_setting 'orthorhombic'
loop_
_space_group_symop_operation_xyz
x,y,z
-x,1/2-y,z
x,-y,-z
-x,1/2+y,-z
-x,-y,-z
x,1/2+y,-z
-x,y,z
x,1/2-y,z
1/2+x,1/2+y,z
1/2-x,-y,z
1/2+x,1/2-y,-z
1/2-x,y,-z
1/2-x,1/2-y,-z
1/2+x,y,-z
1/2-x,1/2+y,z
1/2+x,-y,z
loop_
_atom_site_type_symbol
_atom_site_label
_atom_site_fract_x
_atom_site_fract_y
_atom_site_fract_z
Si Si1 0.553167 0.571455 0.080405
Si Si2 0.201339 0.930477 0.725995
Si Si3 0.811457 0.586657 0.432447
Si Si4 0.052367 0.428254 0.641723
Si Si5 0.399672 0.500000 0.500000
Si Si6 0.112394 0.429182 0.787426
O O1 0.500000 0.536940 0.101545
O O2 0.563202 0.750000 0.078084
O O3 0.585730 0.492138 0.140792
O O4 0.565761 0.500000 0.000000
O O5 0.203309 0.750000 0.729801
O O6 0.250000 0.000000 0.752477
O O7 0.189481 0.981372 0.640849
O O8 0.162349 0.991939 0.782838
O O9 0.783977 0.500000 0.500000
O O10 0.788314 0.750000 0.413340
O O11 0.863933 0.622469 0.462668
O O12 0.056650 0.250000 0.618922
O O13 0.067052 0.538158 0.571184
O O14 0.083767 0.470761 0.712732
O O15 0.000000 0.468263 0.663845
O O16 0.119305 0.250000 0.795712
#
# Coordination Sequence:
#
# PCOD8279056 Si02
#       6
#    16  16  16  16   8  16
#     4  10  21  38  62  96 134 169 207 246 291 348
#     4  12  25  41  62  85 113 147 194 248 305 366
#     4  10  20  35  55  78 107 143 190 245 305 361
#     4  10  20  33  51  78 113 156 201 243 292 351
#     4  10  19  32  55  72 116 150 203 246 301 350
#     4  11  21  39  63  88 123 160 200 248 303 360
#
# _framework density 19.603954000000002
#
# number of rings (size 3 to 8) (size 9 to 14) (size 15 to 20)
#    0.545    0.909    1.818    4.636    0.000    2.182 
#    0.000    1.818    0.000    6.000    0.000    3.818 
#    0.000    0.000    0.000    0.000    0.000    0.000 
#
# Total GULP energy -545124.290672 kJ/mol
# GULP energy per Si atom -12389.188424 kJ/mol
# Density = 1.955933 g / cm^3
# Si number density = 19.603954 Si / 1000 Ang^3
#
#
#
# Elastic Constant Matrix: (Units=GPa)
#
#
# Indices 1 2 3 4 5 6 
#
# 1 144.8537 61.4305 65.3903 0.0000 0.0000 0.0000
# 2 61.4305 133.9646 58.7025 0.0000 0.0000 0.0000
# 3 65.3903 58.7025 120.8140 0.0000 0.0000 0.0000
# 4 0.0000 0.0000 0.0000 21.9985 0.0000 0.0000
# 5 0.0000 0.0000 0.0000 0.0000 99.0145 0.0000
# 6 0.0000 0.0000 0.0000 0.0000 0.0000 20.7577
#
#
#
# Elastic Compliance Matrix: (Units=1/GPa)
#
#
# Indices 1 2 3 4 5 6 
#
# 1 0.009889 -0.002782 -0.004001 0.000000 0.000000 0.000000
# 2 -0.002782 0.010266 -0.003483 0.000000 0.000000 0.000000
# 3 -0.004001 -0.003483 0.012135 0.000000 0.000000 0.000000
# 4 0.000000 0.000000 0.000000 0.045458 0.000000 0.000000
# 5 0.000000 0.000000 0.000000 0.000000 0.010100 0.000000
# 6 0.000000 0.000000 0.000000 0.000000 0.000000 0.048175
#
#
# Mechanical properties :
#
#
# Convention : Reuss Voigt Hill
#
# Bulk Modulus (GPa) = 85.03533 85.63100 85.33317
# Shear Modulus (GPa) = 31.15781 42.62807 36.89294
#
# Velocity S-wave (km/s) = 3.99101 4.66817 4.34281
# Velocity P-wave (km/s) = 8.04415 8.53411 8.29275
#
# Compressibility (1/GPa) = 0.01175982
#
# Stress axis : x y z
#
# Youngs Moduli (GPa) = 101.11929 97.40589 82.40633
#
# Poissons Ratio (x) = 0.27094 0.32971
# Poissons Ratio (y) = 0.28127 0.28700
# Poissons Ratio (z) = 0.40458 0.33924
#
# Static dielectric constant tensor:
#      x y z
#    x 3.791020 0.000000 0.000000 
#    y 0.000000 3.507750 0.000000 
#    z 0.000000 0.000000 3.419950 
# 
# 
# High freq. dielectric constant tensor:
#      x y z
#    x 1.777220 0.000000 0.000000 
#    y 0.000000 1.761340 0.000000 
#    z 0.000000 0.000000 1.742170 
# 
# From -- ./inp_files/36145.got.cif
#   From: 2010.03.12/outbox.cif.g09.slc.cpg/sg67_19_cif.got.tgz:36145.got - 2010.04.10 22:41:39.
