data_PCOD8279282
_publ_section_title
;
Structure prediction by ZEFSAII (Michael W. Deem and Ramdas Pophale) SiO2 
 PCOD8279282
Probable space group: C M M A
;
_chemical_formula_sum "Si O2"
_cell_formula_units_Z 88
_cell_length_a 26.468974
_cell_length_b 8.987798
_cell_length_c 18.760114
_cell_angle_alpha 90.000000
_cell_angle_beta 90.000000
_cell_angle_gamma 90.000000
_cell_volume 4462.989690
_symmetry_space_group_name_H-M "C M M A"
_symmetry_group_IT_number 67
_symmetry_cell_setting 'orthorhombic'
loop_
_space_group_symop_operation_xyz
x,y,z
-x,1/2-y,z
x,-y,-z
-x,1/2+y,-z
-x,-y,-z
x,1/2+y,-z
-x,y,z
x,1/2-y,z
1/2+x,1/2+y,z
1/2-x,-y,z
1/2+x,1/2-y,-z
1/2-x,y,-z
1/2-x,1/2-y,-z
1/2+x,y,-z
1/2-x,1/2+y,z
1/2+x,-y,z
loop_
_atom_site_type_symbol
_atom_site_label
_atom_site_fract_x
_atom_site_fract_y
_atom_site_fract_z
Si Si1 0.441921 0.588830 0.065000
Si Si2 0.500000 0.427615 0.422215
Si Si3 0.697538 0.926022 0.926236
Si Si4 0.108336 0.076106 0.819382
Si Si5 0.100547 0.573939 0.340511
Si Si6 0.200030 0.928069 0.423126
O O1 0.500000 0.611595 0.047112
O O2 0.415179 0.750000 0.070181
O O3 0.437308 0.500726 0.138730
O O4 0.415550 0.500000 0.000000
O O5 0.500000 0.250000 0.430783
O O6 0.500000 0.500000 0.500000
O O7 0.450418 0.484267 0.379117
O O8 0.704006 0.750000 0.937359
O O9 0.659741 0.962809 0.861304
O O10 0.750000 0.000000 0.903001
O O11 0.678458 0.000000 0.000000
O O12 0.097923 0.250000 0.818128
O O13 0.106719 0.010618 0.739499
O O14 0.098515 0.750000 0.338409
O O15 0.150307 0.519959 0.381486
O O16 0.205343 0.750000 0.427311
O O17 0.194658 0.000000 0.500000
O O18 0.250000 0.000000 0.386060
#
# Coordination Sequence:
#
# PCOD8279282 Si02
#       6
#    16   8  16  16  16  16
#     4  10  21  36  54  78 106 139 180 223 268 319
#     4  10  20  38  62  84 109 146 187 230 277 330
#     4  10  20  34  54  78 106 141 186 229 271 322
#     4  10  21  36  55  80 108 142 181 225 273 329
#     4   9  20  36  56  83 112 146 186 226 276 340
#     4  10  19  34  56  82 111 142 182 227 274 333
#
# _framework density 19.717725000000002
#
# number of rings (size 3 to 8) (size 9 to 14) (size 15 to 20)
#    0.000    2.182    0.000    3.818    1.273    4.727 
#    0.000    3.636    0.000    0.000    0.000    0.000 
#    0.000    0.000    0.000    0.000    0.000    0.000 
#
# Total GULP energy -545411.360238 kJ/mol
# GULP energy per Si atom -12395.712733 kJ/mol
# Density = 1.967285 g / cm^3
# Si number density = 19.717725 Si / 1000 Ang^3
#
#
#
# Elastic Constant Matrix: (Units=GPa)
#
#
# Indices 1 2 3 4 5 6 
#
# 1 133.3898 42.6738 77.7195 0.0000 0.0000 0.0000
# 2 42.6738 76.8304 47.1104 0.0000 0.0000 0.0000
# 3 77.7195 47.1104 162.6620 0.0000 0.0000 0.0000
# 4 0.0000 0.0000 0.0000 26.3233 0.0000 0.0000
# 5 0.0000 0.0000 0.0000 0.0000 27.0591 0.0000
# 6 0.0000 0.0000 0.0000 0.0000 0.0000 25.7209
#
#
#
# Elastic Compliance Matrix: (Units=1/GPa)
#
#
# Indices 1 2 3 4 5 6 
#
# 1 0.011133 -0.003553 -0.004290 0.000000 0.000000 0.000000
# 2 -0.003553 0.016960 -0.003214 0.000000 0.000000 0.000000
# 3 -0.004290 -0.003214 0.009129 0.000000 0.000000 0.000000
# 4 0.000000 0.000000 0.000000 0.037989 0.000000 0.000000
# 5 0.000000 0.000000 0.000000 0.000000 0.036956 0.000000
# 6 0.000000 0.000000 0.000000 0.000000 0.000000 0.038879
#
#
# Mechanical properties :
#
#
# Convention : Reuss Voigt Hill
#
# Bulk Modulus (GPa) = 66.19711 78.65440 72.42576
# Shear Modulus (GPa) = 28.05878 29.51257 28.78568
#
# Velocity S-wave (km/s) = 3.77639 3.87299 3.82499
# Velocity P-wave (km/s) = 7.25673 7.74447 7.50456
#
# Compressibility (1/GPa) = 0.01510640
#
# Stress axis : x y z
#
# Youngs Moduli (GPa) = 89.82041 58.96191 109.54529
#
# Poissons Ratio (x) = 0.20949 0.47000
# Poissons Ratio (y) = 0.31913 0.35212
# Poissons Ratio (z) = 0.38537 0.18953
#
# Static dielectric constant tensor:
#      x y z
#    x 3.882690 0.000000 0.000000 
#    y 0.000000 3.637280 0.000000 
#    z 0.000000 0.000000 3.706820 
# 
# 
# High freq. dielectric constant tensor:
#      x y z
#    x 1.779780 0.000000 0.000000 
#    y 0.000000 1.757630 0.000000 
#    z 0.000000 0.000000 1.764920 
# 
# From -- ./inp_files/36151.got.cif
#   From: 2010.03.12/outbox.cif.g09.slc.cpg/sg67_19_cif.got.tgz:36151.got - 2010.04.10 22:41:39.
