data_PCOD8279316
_publ_section_title
;
Structure prediction by ZEFSAII (Michael W. Deem and Ramdas Pophale) SiO2 
 PCOD8279316
Probable space group: C M M A
;
_chemical_formula_sum "Si O2"
_cell_formula_units_Z 96
_cell_length_a 16.563671
_cell_length_b 23.522957
_cell_length_c 12.388165
_cell_angle_alpha 90.000000
_cell_angle_beta 90.000000
_cell_angle_gamma 90.000000
_cell_volume 4826.757627
_symmetry_space_group_name_H-M "C M M A"
_symmetry_group_IT_number 67
_symmetry_cell_setting 'orthorhombic'
loop_
_space_group_symop_operation_xyz
x,y,z
-x,1/2-y,z
x,-y,-z
-x,1/2+y,-z
-x,-y,-z
x,1/2+y,-z
-x,y,z
x,1/2-y,z
1/2+x,1/2+y,z
1/2-x,-y,z
1/2+x,1/2-y,-z
1/2-x,y,-z
1/2-x,1/2-y,-z
1/2+x,y,-z
1/2-x,1/2+y,z
1/2+x,-y,z
loop_
_atom_site_type_symbol
_atom_site_label
_atom_site_fract_x
_atom_site_fract_y
_atom_site_fract_z
Si Si1 0.345152 0.005574 0.622914
Si Si2 0.907795 0.688532 0.141468
Si Si3 0.595578 0.378379 0.731375
Si Si4 0.169506 0.815881 0.930936
Si Si5 0.904584 0.887950 0.326245
Si Si6 0.905174 0.312854 0.480936
O O1 0.379554 0.952586 0.688010
O O2 0.378298 0.000000 0.500000
O O3 0.250000 0.000000 0.623778
O O4 0.376499 0.061007 0.684852
O O5 0.864618 0.750000 0.158491
O O6 0.866491 0.643744 0.222067
O O7 0.000000 0.693714 0.174799
O O8 0.901901 0.671761 0.016158
O O9 0.500000 0.380235 0.760712
O O10 0.650941 0.358869 0.832444
O O11 0.613770 0.332184 0.639831
O O12 0.169567 0.750000 0.891217
O O13 0.250000 0.830723 0.000000
O O14 0.867543 0.857714 0.433397
O O15 0.000000 0.884438 0.328743
O O16 0.867764 0.250000 0.499225
O O17 0.000000 0.310218 0.500681
#
# Coordination Sequence:
#
# PCOD8279316 Si02
#       6
#    16  16  16  16  16  16
#     4  11  24  40  59  85 122 167 206 251 313 372
#     4   9  18  34  58  86 116 153 195 243 300 364
#     4  11  22  38  64  92 121 161 210 256 306 372
#     4  10  22  39  61  90 124 162 200 248 312 372
#     4  10  19  34  59  86 115 153 201 249 300 366
#     4   9  17  30  54  90 123 148 185 245 306 359
#
# _framework density 19.889127999999999
#
# number of rings (size 3 to 8) (size 9 to 14) (size 15 to 20)
#    0.000    2.000    1.667    2.000    2.333    4.333 
#    0.000    0.833    0.000    4.000    0.000    0.000 
#    0.000    0.000    0.000    0.000    0.000    0.000 
#
# Total GULP energy -594804.858984 kJ/mol
# GULP energy per Si atom -12391.767895 kJ/mol
# Density = 1.984386 g / cm^3
# Si number density = 19.889128 Si / 1000 Ang^3
#
#
#
# Elastic Constant Matrix: (Units=GPa)
#
#
# Indices 1 2 3 4 5 6 
#
# 1 45.5697 29.3699 33.3244 0.0000 0.0000 0.0000
# 2 29.3699 157.2227 81.2574 0.0000 0.0000 0.0000
# 3 33.3244 81.2574 129.1996 0.0000 0.0000 0.0000
# 4 0.0000 0.0000 0.0000 41.3022 0.0000 0.0000
# 5 0.0000 0.0000 0.0000 0.0000 97.1101 0.0000
# 6 0.0000 0.0000 0.0000 0.0000 0.0000 17.7300
#
#
#
# Elastic Compliance Matrix: (Units=1/GPa)
#
#
# Indices 1 2 3 4 5 6 
#
# 1 0.027542 -0.002183 -0.005731 0.000000 0.000000 0.000000
# 2 -0.002183 0.009597 -0.005472 0.000000 0.000000 0.000000
# 3 -0.005731 -0.005472 0.012660 0.000000 0.000000 0.000000
# 4 0.000000 0.000000 0.000000 0.024212 0.000000 0.000000
# 5 0.000000 0.000000 0.000000 0.000000 0.010298 0.000000
# 6 0.000000 0.000000 0.000000 0.000000 0.000000 0.056402
#
#
# Mechanical properties :
#
#
# Convention : Reuss Voigt Hill
#
# Bulk Modulus (GPa) = 43.42954 68.87727 56.15340
# Shear Modulus (GPa) = 28.54561 43.76447 36.15504
#
# Velocity S-wave (km/s) = 3.79256 4.69595 4.26823
# Velocity P-wave (km/s) = 6.40791 8.00677 7.25154
#
# Compressibility (1/GPa) = 0.02302580
#
# Stress axis : x y z
#
# Youngs Moduli (GPa) = 36.30763 104.20414 78.98929
#
# Poissons Ratio (x) = 0.22749 0.45269
# Poissons Ratio (y) = 0.07926 0.43227
# Poissons Ratio (z) = 0.20808 0.57025
#
# Static dielectric constant tensor:
#      x y z
#    x 2.430360 0.000000 0.000000 
#    y 0.000000 3.364420 0.000000 
#    z 0.000000 0.000000 3.820170 
# 
# 
# High freq. dielectric constant tensor:
#      x y z
#    x 1.756910 0.000000 0.000000 
#    y 0.000000 1.776640 0.000000 
#    z 0.000000 0.000000 1.776990 
# 
# From -- ./inp_files/19636.got.cif
#   From: 2010.03.12/outbox.cif.g09.slc.cpg/sg67_10_cif.got.tgz:19636.got - 2010.04.10 22:41:39.
