data_PCOD8279027
_publ_section_title
;
Structure prediction by ZEFSAII (Michael W. Deem and Ramdas Pophale) SiO2 
 PCOD8279027
Probable space group: C M M A
;
_chemical_formula_sum "Si O2"
_cell_formula_units_Z 128
_cell_length_a 18.472504
_cell_length_b 19.540252
_cell_length_c 19.825675
_cell_angle_alpha 90.000000
_cell_angle_beta 90.000000
_cell_angle_gamma 90.000000
_cell_volume 7156.223769
_symmetry_space_group_name_H-M "C M M A"
_symmetry_group_IT_number 67
_symmetry_cell_setting 'orthorhombic'
loop_
_space_group_symop_operation_xyz
x,y,z
-x,1/2-y,z
x,-y,-z
-x,1/2+y,-z
-x,-y,-z
x,1/2+y,-z
-x,y,z
x,1/2-y,z
1/2+x,1/2+y,z
1/2-x,-y,z
1/2+x,1/2-y,-z
1/2-x,y,-z
1/2-x,1/2-y,-z
1/2+x,y,-z
1/2-x,1/2+y,z
1/2+x,-y,z
loop_
_atom_site_type_symbol
_atom_site_label
_atom_site_fract_x
_atom_site_fract_y
_atom_site_fract_z
Si Si1 0.181404 0.829259 0.882806
Si Si2 0.329896 0.917975 0.243829
Si Si3 0.583462 0.411511 0.540234
Si Si4 0.580589 0.331101 0.003318
Si Si5 0.163167 0.573222 0.259766
Si Si6 0.584188 0.674950 0.340648
Si Si7 0.085630 0.448533 0.602610
Si Si8 0.848422 0.829239 0.138760
O O1 0.162271 0.750000 0.867679
O O2 0.151980 0.876253 0.823229
O O3 0.267167 0.839537 0.889270
O O4 0.140282 0.856425 0.949507
O O5 0.247676 0.910935 0.268222
O O6 0.379092 0.885644 0.300772
O O7 0.350954 0.996823 0.232097
O O8 0.500000 0.430688 0.532896
O O9 0.596683 0.340800 0.579874
O O10 0.611508 0.404560 0.463237
O O11 0.614389 0.474909 0.584901
O O12 0.500000 0.358272 0.984812
O O13 0.582053 0.250000 0.003618
O O14 0.600758 0.356225 0.078385
O O15 0.125721 0.582573 0.332235
O O16 0.132131 0.626507 0.204840
O O17 0.500000 0.673945 0.322547
O O18 0.617219 0.750000 0.325042
O O19 0.000000 0.444627 0.617541
O O20 0.862361 0.750000 0.157239
#
# Coordination Sequence:
#
# PCOD8279027 Si02
#       8
#    16  16  16  16  16  16  16  16
#     4   9  17  31  51  71  94 130 166 199 247 309
#     4  10  20  33  48  73 107 134 170 212 253 309
#     4   8  15  29  50  75  99 128 170 213 252 301
#     4   9  17  30  50  75  99 122 158 210 257 300
#     4  10  20  33  51  73 102 139 173 211 259 305
#     4  10  19  32  53  78 105 136 168 211 266 317
#     4   9  16  30  53  74  96 131 174 215 251 299
#     4   9  18  33  51  70  94 130 173 209 249 304
#
# _framework density 17.886527999999998
#
# number of rings (size 3 to 8) (size 9 to 14) (size 15 to 20)
#    0.000    2.750    1.250    1.500    0.000    3.000 
#    0.000    3.125    0.000    5.250    0.000    0.000 
#    0.000    0.000    0.000    0.000    0.000    0.000 
#
# Total GULP energy -793118.366159 kJ/mol
# GULP energy per Si atom -12392.474471 kJ/mol
# Density = 1.784582 g / cm^3
# Si number density = 17.886528 Si / 1000 Ang^3
#
#
#
# Elastic Constant Matrix: (Units=GPa)
#
#
# Indices 1 2 3 4 5 6 
#
# 1 48.9329 29.0985 51.7895 0.0000 0.0000 0.0000
# 2 29.0985 78.5408 53.5702 0.0000 0.0000 0.0000
# 3 51.7895 53.5702 147.4774 0.0000 0.0000 0.0000
# 4 0.0000 0.0000 0.0000 31.1007 0.0000 0.0000
# 5 0.0000 0.0000 0.0000 0.0000 30.4238 0.0000
# 6 0.0000 0.0000 0.0000 0.0000 0.0000 18.1019
#
#
#
# Elastic Compliance Matrix: (Units=1/GPa)
#
#
# Indices 1 2 3 4 5 6 
#
# 1 0.034536 -0.006013 -0.009944 0.000000 0.000000 0.000000
# 2 -0.006013 0.017973 -0.004417 0.000000 0.000000 0.000000
# 3 -0.009944 -0.004417 0.011877 0.000000 0.000000 0.000000
# 4 0.000000 0.000000 0.000000 0.032154 0.000000 0.000000
# 5 0.000000 0.000000 0.000000 0.000000 0.032869 0.000000
# 6 0.000000 0.000000 0.000000 0.000000 0.000000 0.055243
#
#
# Mechanical properties :
#
#
# Convention : Reuss Voigt Hill
#
# Bulk Modulus (GPa) = 42.30376 60.42972 51.36674
# Shear Modulus (GPa) = 21.43364 25.29147 23.36256
#
# Velocity S-wave (km/s) = 3.46542 3.76439 3.61800
# Velocity P-wave (km/s) = 6.30196 7.26310 6.79953
#
# Compressibility (1/GPa) = 0.02363856
#
# Stress axis : x y z
#
# Youngs Moduli (GPa) = 28.95515 55.64047 84.19559
#
# Poissons Ratio (x) = 0.33456 0.83723
# Poissons Ratio (y) = 0.17410 0.37188
# Poissons Ratio (z) = 0.28793 0.24576
#
# Static dielectric constant tensor:
#      x y z
#    x 3.174990 0.000000 0.000000 
#    y 0.000000 3.236430 0.000000 
#    z 0.000000 0.000000 3.502500 
# 
# 
# High freq. dielectric constant tensor:
#      x y z
#    x 1.672650 0.000000 0.000000 
#    y 0.000000 1.670040 0.000000 
#    z 0.000000 0.000000 1.700350 
# 
# From -- ./inp_files/39141.got.cif
#   From: 2010.03.12/outbox.cif.g09.slc.cpg/sg67_20_cif.got.tgz:39141.got - 2010.04.10 22:41:39.
