data_PCOD8279474
_publ_section_title
;
Structure prediction by ZEFSAII (Michael W. Deem and Ramdas Pophale) SiO2 
 PCOD8279474
Probable space group: C M M A
;
_chemical_formula_sum "Si O2"
_cell_formula_units_Z 88
_cell_length_a 21.899926
_cell_length_b 23.060756
_cell_length_c 9.029063
_cell_angle_alpha 90.000000
_cell_angle_beta 90.000000
_cell_angle_gamma 90.000000
_cell_volume 4559.937303
_symmetry_space_group_name_H-M "C M M A"
_symmetry_group_IT_number 67
_symmetry_cell_setting 'orthorhombic'
loop_
_space_group_symop_operation_xyz
x,y,z
-x,1/2-y,z
x,-y,-z
-x,1/2+y,-z
-x,-y,-z
x,1/2+y,-z
-x,y,z
x,1/2-y,z
1/2+x,1/2+y,z
1/2-x,-y,z
1/2+x,1/2-y,-z
1/2-x,y,-z
1/2-x,1/2-y,-z
1/2+x,y,-z
1/2-x,1/2+y,z
1/2+x,-y,z
loop_
_atom_site_type_symbol
_atom_site_label
_atom_site_fract_x
_atom_site_fract_y
_atom_site_fract_z
Si Si1 0.609032 0.000000 0.500000
Si Si2 0.263644 0.933304 0.171745
Si Si3 0.067509 0.437641 0.959669
Si Si4 0.852029 0.396903 0.694683
Si Si5 0.098436 0.909666 0.731993
Si Si6 0.570399 0.817409 0.501029
O O1 0.647665 0.950121 0.579498
O O2 0.572946 0.964026 0.370460
O O3 0.218820 0.890009 0.263206
O O4 0.330870 0.918156 0.226371
O O5 0.250000 0.000000 0.210465
O O6 0.250000 0.921153 0.000000
O O7 0.061931 0.403731 0.114927
O O8 0.000000 0.443576 0.889389
O O9 0.096585 0.500000 0.000000
O O10 0.111523 0.407940 0.844900
O O11 0.882697 0.339744 0.626114
O O12 0.086208 0.849187 0.651619
O O13 0.500000 0.829799 0.548290
O O14 0.582095 0.750000 0.476558
#
# Coordination Sequence:
#
# PCOD8279474 Si02
#       6
#     8  16  16  16  16  16
#     4  10  20  31  51  84 124 152 191 233 298 362
#     4  11  20  34  62  89 131 163 192 235 293 370
#     4  11  20  33  54  86 125 157 195 245 298 364
#     4  11  21  37  59  90 120 160 200 245 297 357
#     4  11  21  37  59  90 120 160 200 245 297 357
#     4  10  24  46  65  83 116 161 209 257 301 351
#
# _framework density 19.29851
#
# number of rings (size 3 to 8) (size 9 to 14) (size 15 to 20)
#    0.000    1.273    5.455    1.091    0.000    3.636 
#    0.000    5.455    0.000    4.364    0.000    0.000 
#    0.000    0.000    0.000    0.000    0.000    0.000 
#
# Total GULP energy -545225.538325 kJ/mol
# GULP energy per Si atom -12391.489507 kJ/mol
# Density = 1.925459 g / cm^3
# Si number density = 19.298510 Si / 1000 Ang^3
#
#
#
# Elastic Constant Matrix: (Units=GPa)
#
#
# Indices 1 2 3 4 5 6 
#
# 1 94.1081 36.7631 18.6693 0.0000 0.0000 0.0000
# 2 36.7631 106.7902 33.8362 0.0000 0.0000 0.0000
# 3 18.6693 33.8362 93.9241 0.0000 0.0000 0.0000
# 4 0.0000 0.0000 0.0000 20.5096 0.0000 0.0000
# 5 0.0000 0.0000 0.0000 0.0000 16.6343 0.0000
# 6 0.0000 0.0000 0.0000 0.0000 0.0000 23.7845
#
#
#
# Elastic Compliance Matrix: (Units=1/GPa)
#
#
# Indices 1 2 3 4 5 6 
#
# 1 0.012367 -0.003927 -0.001044 0.000000 0.000000 0.000000
# 2 -0.003927 0.011818 -0.003477 0.000000 0.000000 0.000000
# 3 -0.001044 -0.003477 0.012107 0.000000 0.000000 0.000000
# 4 0.000000 0.000000 0.000000 0.048758 0.000000 0.000000
# 5 0.000000 0.000000 0.000000 0.000000 0.060117 0.000000
# 6 0.000000 0.000000 0.000000 0.000000 0.000000 0.042044
#
#
# Mechanical properties :
#
#
# Convention : Reuss Voigt Hill
#
# Bulk Modulus (GPa) = 51.55370 52.59551 52.07461
# Shear Modulus (GPa) = 23.74504 25.88925 24.81715
#
# Velocity S-wave (km/s) = 3.51152 3.66664 3.58992
# Velocity P-wave (km/s) = 6.57365 6.72596 6.65024
#
# Compressibility (1/GPa) = 0.01939725
#
# Stress axis : x y z
#
# Youngs Moduli (GPa) = 80.85978 84.61976 82.59802
#
# Poissons Ratio (x) = 0.33228 0.08620
# Poissons Ratio (y) = 0.31752 0.28717
# Poissons Ratio (z) = 0.08438 0.29420
#
# Static dielectric constant tensor:
#      x y z
#    x 3.610350 0.000000 0.000000 
#    y 0.000000 3.198780 0.000000 
#    z 0.000000 0.000000 3.968010 
# 
# 
# High freq. dielectric constant tensor:
#      x y z
#    x 1.754500 0.000000 0.000000 
#    y 0.000000 1.701690 0.000000 
#    z 0.000000 0.000000 1.773440 
# 
# From -- ./inp_files/11279.got.cif
#   From: 2010.03.12/outbox.cif.g09.slc.cpg/sg67_6_cif.got.tgz:11279.got - 2010.04.10 22:41:39.
