data_PCOD8279728
_publ_section_title
;
Structure prediction by ZEFSAII (Michael W. Deem and Ramdas Pophale) SiO2 
 PCOD8279728
Probable space group: C M M A
;
_chemical_formula_sum "Si O2"
_cell_formula_units_Z 96
_cell_length_a 23.146061
_cell_length_b 17.094780
_cell_length_c 13.182846
_cell_angle_alpha 90.000000
_cell_angle_beta 90.000000
_cell_angle_gamma 90.000000
_cell_volume 5216.146593
_symmetry_space_group_name_H-M "C M M A"
_symmetry_group_IT_number 67
_symmetry_cell_setting 'orthorhombic'
loop_
_space_group_symop_operation_xyz
x,y,z
-x,1/2-y,z
x,-y,-z
-x,1/2+y,-z
-x,-y,-z
x,1/2+y,-z
-x,y,z
x,1/2-y,z
1/2+x,1/2+y,z
1/2-x,-y,z
1/2+x,1/2-y,-z
1/2-x,y,-z
1/2-x,1/2-y,-z
1/2+x,y,-z
1/2-x,1/2+y,z
1/2+x,-y,z
loop_
_atom_site_type_symbol
_atom_site_label
_atom_site_fract_x
_atom_site_fract_y
_atom_site_fract_z
Si Si1 0.932488 0.574917 0.869717
Si Si2 0.434788 0.336173 0.075875
Si Si3 0.244846 0.661989 0.119087
Si Si4 0.682320 0.984351 0.386247
Si Si5 0.351292 0.838995 0.262642
Si Si6 0.641720 0.067911 0.198032
O O1 0.913888 0.637824 0.783538
O O2 0.889116 0.502134 0.862559
O O3 0.000000 0.552266 0.852421
O O4 0.923029 0.607169 0.982088
O O5 0.500000 0.339925 0.112236
O O6 0.417050 0.250000 0.038780
O O7 0.398384 0.357229 0.176419
O O8 0.221759 0.750000 0.145318
O O9 0.306775 0.649574 0.170360
O O10 0.204803 0.591364 0.157728
O O11 0.250000 0.652111 0.000000
O O12 0.667393 0.895021 0.355684
O O13 0.660949 0.000000 0.500000
O O14 0.750000 0.000000 0.375038
O O15 0.647014 0.045092 0.315827
O O16 0.352910 0.750000 0.303396
#
# Coordination Sequence:
#
# PCOD8279728 Si02
#       6
#    16  16  16  16  16  16
#     4  10  21  35  54  82 115 151 190 226 262 318
#     4  10  20  34  52  79 115 151 184 219 262 320
#     4  10  20  33  51  82 118 148 178 218 274 339
#     4  10  21  40  58  79 108 141 182 238 284 327
#     4  10  20  36  58  84 112 145 185 226 273 330
#     4  11  20  34  56  79 107 146 185 229 278 329
#
# _framework density 18.404389999999999
#
# number of rings (size 3 to 8) (size 9 to 14) (size 15 to 20)
#    0.000    1.833    1.667    3.000    0.000    5.000 
#    0.000    5.000    0.000   12.500    0.000    0.000 
#    0.000    0.000    0.000    0.000    0.000    0.000 
#
# Total GULP energy -594919.104684 kJ/mol
# GULP energy per Si atom -12394.148014 kJ/mol
# Density = 1.836250 g / cm^3
# Si number density = 18.404390 Si / 1000 Ang^3
#
#
#
# Elastic Constant Matrix: (Units=GPa)
#
#
# Indices 1 2 3 4 5 6 
#
# 1 71.5916 41.5019 34.7129 0.0000 0.0000 0.0000
# 2 41.5019 83.7128 50.1765 0.0000 0.0000 0.0000
# 3 34.7129 50.1765 116.3849 0.0000 0.0000 0.0000
# 4 0.0000 0.0000 0.0000 17.8564 0.0000 0.0000
# 5 0.0000 0.0000 0.0000 0.0000 21.1118 0.0000
# 6 0.0000 0.0000 0.0000 0.0000 0.0000 31.8507
#
#
#
# Elastic Compliance Matrix: (Units=1/GPa)
#
#
# Indices 1 2 3 4 5 6 
#
# 1 0.020042 -0.008567 -0.002284 0.000000 0.000000 0.000000
# 2 -0.008567 0.019770 -0.005968 0.000000 0.000000 0.000000
# 3 -0.002284 -0.005968 0.011847 0.000000 0.000000 0.000000
# 4 0.000000 0.000000 0.000000 0.056002 0.000000 0.000000
# 5 0.000000 0.000000 0.000000 0.000000 0.047367 0.000000
# 6 0.000000 0.000000 0.000000 0.000000 0.000000 0.031397
#
#
# Mechanical properties :
#
#
# Convention : Reuss Voigt Hill
#
# Bulk Modulus (GPa) = 55.49476 58.27465 56.88471
# Shear Modulus (GPa) = 22.11703 23.85029 22.98366
#
# Velocity S-wave (km/s) = 3.47035 3.60377 3.53769
# Velocity P-wave (km/s) = 6.80267 7.00346 6.90379
#
# Compressibility (1/GPa) = 0.01801972
#
# Stress axis : x y z
#
# Youngs Moduli (GPa) = 49.89522 50.58142 84.41286
#
# Poissons Ratio (x) = 0.43333 0.19282
# Poissons Ratio (y) = 0.42745 0.50379
# Poissons Ratio (z) = 0.11397 0.30188
#
# Static dielectric constant tensor:
#      x y z
#    x 3.540810 0.000000 0.000000 
#    y 0.000000 3.763800 0.000000 
#    z 0.000000 0.000000 3.198360 
# 
# 
# High freq. dielectric constant tensor:
#      x y z
#    x 1.717340 0.000000 0.000000 
#    y 0.000000 1.729700 0.000000 
#    z 0.000000 0.000000 1.677980 
# 
# From -- ./inp_files/19611.got.cif
#   From: 2010.03.12/outbox.cif.g09.slc.cpg/sg67_10_cif.got.tgz:19611.got - 2010.04.10 22:41:39.
