data_PCOD8279172
_publ_section_title
;
Structure prediction by ZEFSAII (Michael W. Deem and Ramdas Pophale) SiO2 
 PCOD8279172
Probable space group: C M M A
;
_chemical_formula_sum "Si O2"
_cell_formula_units_Z 80
_cell_length_a 14.522755
_cell_length_b 20.963814
_cell_length_c 11.695313
_cell_angle_alpha 90.000000
_cell_angle_beta 90.000000
_cell_angle_gamma 90.000000
_cell_volume 3560.665347
_symmetry_space_group_name_H-M "C M M A"
_symmetry_group_IT_number 67
_symmetry_cell_setting 'orthorhombic'
loop_
_space_group_symop_operation_xyz
x,y,z
-x,1/2-y,z
x,-y,-z
-x,1/2+y,-z
-x,-y,-z
x,1/2+y,-z
-x,y,z
x,1/2-y,z
1/2+x,1/2+y,z
1/2-x,-y,z
1/2+x,1/2-y,-z
1/2-x,y,-z
1/2-x,1/2-y,-z
1/2+x,y,-z
1/2-x,1/2+y,z
1/2+x,-y,z
loop_
_atom_site_type_symbol
_atom_site_label
_atom_site_fract_x
_atom_site_fract_y
_atom_site_fract_z
Si Si1 0.600636 0.029923 0.376988
Si Si2 0.269656 0.353043 0.373623
Si Si3 0.893926 0.570970 0.006727
Si Si4 0.603690 0.595955 0.248457
Si Si5 0.107307 0.319326 0.824813
O O1 0.500000 0.061463 0.348617
O O2 0.685090 0.077625 0.381459
O O3 0.593486 0.000000 0.500000
O O4 0.622605 0.977672 0.280344
O O5 0.250000 0.323961 0.500000
O O6 0.170334 0.356267 0.314325
O O7 0.338754 0.312281 0.295584
O O8 0.851984 0.620529 0.101182
O O9 0.000000 0.561130 0.038441
O O10 0.847288 0.500000 0.000000
O O11 0.880738 0.605453 0.885989
O O12 0.500000 0.614754 0.284065
O O13 0.119940 0.250000 0.886913
O O14 0.000000 0.330981 0.800113
#
# Coordination Sequence:
#
# PCOD8279172 Si02
#       5
#    16  16  16  16  16
#     4  10  19  33  54  86 128 168 207 261 326 385
#     4  12  23  35  58  87 125 165 216 261 313 385
#     4   9  18  37  63  90 122 159 206 265 324 385
#     4  10  21  35  54  85 125 163 205 259 326 386
#     4  10  23  44  68  92 121 163 214 268 330 398
#
# _framework density 22.467711000000001
#
# number of rings (size 3 to 8) (size 9 to 14) (size 15 to 20)
#    0.000    1.800    2.000    2.400    0.000    5.200 
#    0.000    3.000    0.000    1.800    0.000    0.000 
#    0.000    0.000    0.000    0.000    0.000    0.000 
#
# Total GULP energy -495621.163940 kJ/mol
# GULP energy per Si atom -12390.529098 kJ/mol
# Density = 2.241657 g / cm^3
# Si number density = 22.467711 Si / 1000 Ang^3
#
#
#
# Elastic Constant Matrix: (Units=GPa)
#
#
# Indices 1 2 3 4 5 6 
#
# 1 91.5777 26.6387 27.6877 0.0000 0.0000 0.0000
# 2 26.6387 111.9680 50.8792 0.0000 0.0000 0.0000
# 3 27.6877 50.8792 122.4552 0.0000 0.0000 0.0000
# 4 0.0000 0.0000 0.0000 17.2848 0.0000 0.0000
# 5 0.0000 0.0000 0.0000 0.0000 35.1247 0.0000
# 6 0.0000 0.0000 0.0000 0.0000 0.0000 10.7345
#
#
#
# Elastic Compliance Matrix: (Units=1/GPa)
#
#
# Indices 1 2 3 4 5 6 
#
# 1 0.012078 -0.002013 -0.001895 0.000000 0.000000 0.000000
# 2 -0.002013 0.011345 -0.004259 0.000000 0.000000 0.000000
# 3 -0.001895 -0.004259 0.010364 0.000000 0.000000 0.000000
# 4 0.000000 0.000000 0.000000 0.057854 0.000000 0.000000
# 5 0.000000 0.000000 0.000000 0.000000 0.028470 0.000000
# 6 0.000000 0.000000 0.000000 0.000000 0.000000 0.093158
#
#
# Mechanical properties :
#
#
# Convention : Reuss Voigt Hill
#
# Bulk Modulus (GPa) = 57.28943 59.60135 58.44539
# Shear Modulus (GPa) = 21.23864 27.34847 24.29356
#
# Velocity S-wave (km/s) = 3.07790 3.49267 3.29183
# Velocity P-wave (km/s) = 6.17942 6.54600 6.36535
#
# Compressibility (1/GPa) = 0.01745523
#
# Stress axis : x y z
#
# Youngs Moduli (GPa) = 82.79551 88.14324 96.48645
#
# Poissons Ratio (x) = 0.17739 0.18281
# Poissons Ratio (y) = 0.16663 0.41092
# Poissons Ratio (z) = 0.15687 0.37538
#
# Static dielectric constant tensor:
#      x y z
#    x 4.141470 0.000000 0.000000 
#    y 0.000000 5.527960 0.000000 
#    z 0.000000 0.000000 4.179380 
# 
# 
# High freq. dielectric constant tensor:
#      x y z
#    x 1.885040 0.000000 0.000000 
#    y 0.000000 1.849800 0.000000 
#    z 0.000000 0.000000 1.891520 
# 
# From -- ./inp_files/17945.got.cif
#   From: 2010.03.12/outbox.cif.g09.slc.cpg/sg67_9_cif.got.tgz:17945.got - 2010.04.10 22:41:39.
