data_PCOD8279276
_publ_section_title
;
Structure prediction by ZEFSAII (Michael W. Deem and Ramdas Pophale) SiO2 
 PCOD8279276
Probable space group: C M M A
;
_chemical_formula_sum "Si O2"
_cell_formula_units_Z 96
_cell_length_a 18.765990
_cell_length_b 23.566852
_cell_length_c 12.222911
_cell_angle_alpha 90.000000
_cell_angle_beta 90.000000
_cell_angle_gamma 90.000000
_cell_volume 5405.647281
_symmetry_space_group_name_H-M "C M M A"
_symmetry_group_IT_number 67
_symmetry_cell_setting 'orthorhombic'
loop_
_space_group_symop_operation_xyz
x,y,z
-x,1/2-y,z
x,-y,-z
-x,1/2+y,-z
-x,-y,-z
x,1/2+y,-z
-x,y,z
x,1/2-y,z
1/2+x,1/2+y,z
1/2-x,-y,z
1/2+x,1/2-y,-z
1/2-x,y,-z
1/2-x,1/2-y,-z
1/2+x,y,-z
1/2-x,1/2+y,z
1/2+x,-y,z
loop_
_atom_site_type_symbol
_atom_site_label
_atom_site_fract_x
_atom_site_fract_y
_atom_site_fract_z
Si Si1 0.581404 0.369884 0.131310
Si Si2 0.418386 0.945214 0.067912
Si Si3 0.669409 0.063073 0.713345
Si Si4 0.832600 0.064773 0.695383
Si Si5 0.833408 0.360031 0.488649
Si Si6 0.583754 0.750000 0.798016
Si Si7 0.584351 0.250000 0.455601
O O1 0.500000 0.367809 0.170868
O O2 0.618206 0.417498 0.204519
O O3 0.616120 0.307111 0.146749
O O4 0.587840 0.388846 0.005940
O O5 0.500000 0.956738 0.103394
O O6 0.372131 0.930628 0.173404
O O7 0.389914 0.000000 0.000000
O O8 0.752289 0.074208 0.735959
O O9 0.644977 0.108449 0.623222
O O10 0.655244 0.000728 0.664701
O O11 0.854505 0.100171 0.589428
O O12 0.750000 0.344604 0.500000
O O13 0.881297 0.304373 0.487748
O O14 0.500000 0.750000 0.816927
O O15 0.604904 0.750000 0.671484
O O16 0.500000 0.250000 0.474706
#
# Coordination Sequence:
#
# PCOD8279276 Si02
#       7
#    16  16  16  16  16   8   8
#     4  10  19  34  56  81 107 140 184 230 275 319
#     4  10  20  35  55  78 109 147 185 224 273 332
#     4  10  21  35  53  82 113 147 178 221 273 334
#     4  10  19  34  56  82 110 143 182 225 268 328
#     4  10  21  37  56  80 112 148 182 222 280 333
#     4   9  18  33  56  80 104 136 183 233 271 313
#     4  11  21  35  58  83 105 138 189 237 273 328
#
# _framework density 17.759205000000001
#
# number of rings (size 3 to 8) (size 9 to 14) (size 15 to 20)
#    0.000    2.000    3.333    0.750    0.000    3.333 
#    0.000    0.833    0.000    5.000    0.000    0.000 
#    0.000    0.000    0.000    0.000    0.000    0.000 
#
# Total GULP energy -595182.146730 kJ/mol
# GULP energy per Si atom -12399.628057 kJ/mol
# Density = 1.771878 g / cm^3
# Si number density = 17.759205 Si / 1000 Ang^3
#
#
#
# Elastic Constant Matrix: (Units=GPa)
#
#
# Indices 1 2 3 4 5 6 
#
# 1 60.9935 48.8523 53.2581 0.0000 0.0000 0.0000
# 2 48.8523 130.7242 58.7139 0.0000 0.0000 0.0000
# 3 53.2581 58.7139 116.2378 0.0000 0.0000 0.0000
# 4 0.0000 0.0000 0.0000 31.1444 0.0000 0.0000
# 5 0.0000 0.0000 0.0000 0.0000 28.3739 0.0000
# 6 0.0000 0.0000 0.0000 0.0000 0.0000 23.7481
#
#
#
# Elastic Compliance Matrix: (Units=1/GPa)
#
#
# Indices 1 2 3 4 5 6 
#
# 1 0.031423 -0.006825 -0.010950 0.000000 0.000000 0.000000
# 2 -0.006825 0.011377 -0.002620 0.000000 0.000000 0.000000
# 3 -0.010950 -0.002620 0.014943 0.000000 0.000000 0.000000
# 4 0.000000 0.000000 0.000000 0.032109 0.000000 0.000000
# 5 0.000000 0.000000 0.000000 0.000000 0.035244 0.000000
# 6 0.000000 0.000000 0.000000 0.000000 0.000000 0.042109
#
#
# Mechanical properties :
#
#
# Convention : Reuss Voigt Hill
#
# Bulk Modulus (GPa) = 58.98291 69.95600 64.46946
# Shear Modulus (GPa) = 23.40345 26.46201 24.93273
#
# Velocity S-wave (km/s) = 3.63412 3.86430 3.75097
# Velocity P-wave (km/s) = 7.13399 7.70632 7.42567
#
# Compressibility (1/GPa) = 0.01695406
#
# Stress axis : x y z
#
# Youngs Moduli (GPa) = 31.82417 87.89889 66.91920
#
# Poissons Ratio (x) = 0.59988 0.73277
# Poissons Ratio (y) = 0.21719 0.17530
# Poissons Ratio (z) = 0.34848 0.23026
#
# Static dielectric constant tensor:
#      x y z
#    x 3.169770 0.000000 0.000000 
#    y 0.000000 3.520060 0.000000 
#    z 0.000000 0.000000 3.219060 
# 
# 
# High freq. dielectric constant tensor:
#      x y z
#    x 1.672070 0.000000 0.000000 
#    y 0.000000 1.696550 0.000000 
#    z 0.000000 0.000000 1.681270 
# 
# From -- ./inp_files/19702.got.cif
#   From: 2010.03.12/outbox.cif.g09.slc.cpg/sg67_10_cif.got.tgz:19702.got - 2010.04.10 22:41:39.
