data_PCOD8279965
_publ_section_title
;
Structure prediction by ZEFSAII (Michael W. Deem and Ramdas Pophale) SiO2 
 PCOD8279965
Probable space group: C M M A
;
_chemical_formula_sum "Si O2"
_cell_formula_units_Z 120
_cell_length_a 25.975723
_cell_length_b 8.921108
_cell_length_c 27.037338
_cell_angle_alpha 90.000000
_cell_angle_beta 90.000000
_cell_angle_gamma 90.000000
_cell_volume 6265.422635
_symmetry_space_group_name_H-M "C M M A"
_symmetry_group_IT_number 67
_symmetry_cell_setting 'orthorhombic'
loop_
_space_group_symop_operation_xyz
x,y,z
-x,1/2-y,z
x,-y,-z
-x,1/2+y,-z
-x,-y,-z
x,1/2+y,-z
-x,y,z
x,1/2-y,z
1/2+x,1/2+y,z
1/2-x,-y,z
1/2+x,1/2-y,-z
1/2-x,y,-z
1/2-x,1/2-y,-z
1/2+x,y,-z
1/2-x,1/2+y,z
1/2+x,-y,z
loop_
_atom_site_type_symbol
_atom_site_label
_atom_site_fract_x
_atom_site_fract_y
_atom_site_fract_z
Si Si1 0.441772 0.077851 0.087830
Si Si2 0.400017 0.575850 0.805663
Si Si3 0.000000 0.573609 0.447067
Si Si4 0.154061 0.574635 0.950978
Si Si5 0.559029 0.077135 0.710166
Si Si6 0.197075 0.927275 0.447650
Si Si7 0.697019 0.072640 0.846447
Si Si8 0.402176 0.425449 0.383902
O O1 0.500000 0.037314 0.073692
O O2 0.428553 0.250000 0.075693
O O3 0.434113 0.046211 0.145862
O O4 0.405328 0.973934 0.054769
O O5 0.387910 0.750000 0.797976
O O6 0.432154 0.514487 0.759996
O O7 0.346330 0.487761 0.809568
O O8 0.000000 0.500000 0.500000
O O9 0.050984 0.520033 0.418391
O O10 0.000000 0.750000 0.454464
O O11 0.157074 0.750000 0.957802
O O12 0.185368 0.520549 0.902771
O O13 0.178380 0.500000 0.000000
O O14 0.500000 0.054448 0.693753
O O15 0.572232 0.250000 0.719758
O O16 0.595989 0.014626 0.667409
O O17 0.204275 0.750000 0.454567
O O18 0.151846 0.965012 0.409431
O O19 0.182257 0.000000 0.500000
O O20 0.250000 0.000000 0.427387
O O21 0.699895 0.250000 0.842175
O O22 0.750000 0.000000 0.829082
O O23 0.407212 0.250000 0.372434
#
# Coordination Sequence:
#
# PCOD8279965 Si02
#       8
#    16  16   8  16  16  16  16  16
#     4   9  18  33  53  77 104 137 179 222 267 323
#     4  10  20  36  59  83 108 142 182 226 275 329
#     4  10  20  34  54  80 112 148 186 232 281 338
#     4  10  21  35  52  76 107 142 179 221 269 324
#     4  11  23  37  56  84 116 149 184 227 279 334
#     4  10  20  35  57  83 110 146 189 233 279 329
#     4  10  21  38  59  83 110 140 179 227 277 329
#     4  10  21  37  56  80 112 150 191 232 281 338
#
# _framework density 19.152739
#
# number of rings (size 3 to 8) (size 9 to 14) (size 15 to 20)
#    0.000    2.000    0.667    3.200    0.000    5.867 
#    0.000    2.000    0.000    1.600    0.000    0.000 
#    0.000    0.000    0.000    0.000    0.000    0.000 
#
# Total GULP energy -744243.678459 kJ/mol
# GULP energy per Si atom -12404.061308 kJ/mol
# Density = 1.910915 g / cm^3
# Si number density = 19.152739 Si / 1000 Ang^3
#
#
#
# Elastic Constant Matrix: (Units=GPa)
#
#
# Indices 1 2 3 4 5 6 
#
# 1 85.9057 28.1488 11.8778 0.0000 0.0000 0.0000
# 2 28.1488 74.7669 27.6616 0.0000 0.0000 0.0000
# 3 11.8778 27.6616 72.4711 0.0000 0.0000 0.0000
# 4 0.0000 0.0000 0.0000 35.9277 0.0000 0.0000
# 5 0.0000 0.0000 0.0000 0.0000 17.4915 0.0000
# 6 0.0000 0.0000 0.0000 0.0000 0.0000 31.5461
#
#
#
# Elastic Compliance Matrix: (Units=1/GPa)
#
#
# Indices 1 2 3 4 5 6 
#
# 1 0.013285 -0.004886 -0.000312 0.000000 0.000000 0.000000
# 2 -0.004886 0.017371 -0.005830 0.000000 0.000000 0.000000
# 3 -0.000312 -0.005830 0.016075 0.000000 0.000000 0.000000
# 4 0.000000 0.000000 0.000000 0.027834 0.000000 0.000000
# 5 0.000000 0.000000 0.000000 0.000000 0.057171 0.000000
# 6 0.000000 0.000000 0.000000 0.000000 0.000000 0.031700
#
#
# Mechanical properties :
#
#
# Convention : Reuss Voigt Hill
#
# Bulk Modulus (GPa) = 40.52698 40.94666 40.73682
# Shear Modulus (GPa) = 25.81099 28.02343 26.91721
#
# Velocity S-wave (km/s) = 3.67500 3.82927 3.75293
# Velocity P-wave (km/s) = 6.26206 6.40129 6.33206
#
# Compressibility (1/GPa) = 0.02467492
#
# Stress axis : x y z
#
# Youngs Moduli (GPa) = 75.27356 57.56645 62.20868
#
# Poissons Ratio (x) = 0.28127 0.01943
# Poissons Ratio (y) = 0.36779 0.36265
# Poissons Ratio (z) = 0.02352 0.33559
#
# Static dielectric constant tensor:
#      x y z
#    x 3.508000 0.000000 0.000000 
#    y 0.000000 3.516090 0.000000 
#    z 0.000000 0.000000 3.401790 
# 
# 
# High freq. dielectric constant tensor:
#      x y z
#    x 1.744660 0.000000 0.000000 
#    y 0.000000 1.751550 0.000000 
#    z 0.000000 0.000000 1.737650 
# 
# From -- ./inp_files/45048.got.cif
#   From: 2010.03.12/outbox.cif.g09.slc.cpg/sg67_23_cif.got.tgz:45048.got - 2010.04.10 22:41:39.
