data_PCOD8279709
_publ_section_title
;
Structure prediction by ZEFSAII (Michael W. Deem and Ramdas Pophale) SiO2 
 PCOD8279709
Probable space group: C M M A
;
_chemical_formula_sum "Si O2"
_cell_formula_units_Z 80
_cell_length_a 14.757208
_cell_length_b 24.799458
_cell_length_c 11.490895
_cell_angle_alpha 90.000000
_cell_angle_beta 90.000000
_cell_angle_gamma 90.000000
_cell_volume 4205.331576
_symmetry_space_group_name_H-M "C M M A"
_symmetry_group_IT_number 67
_symmetry_cell_setting 'orthorhombic'
loop_
_space_group_symop_operation_xyz
x,y,z
-x,1/2-y,z
x,-y,-z
-x,1/2+y,-z
-x,-y,-z
x,1/2+y,-z
-x,y,z
x,1/2-y,z
1/2+x,1/2+y,z
1/2-x,-y,z
1/2+x,1/2-y,-z
1/2-x,y,-z
1/2-x,1/2-y,-z
1/2+x,y,-z
1/2-x,1/2+y,z
1/2+x,-y,z
loop_
_atom_site_type_symbol
_atom_site_label
_atom_site_fract_x
_atom_site_fract_y
_atom_site_fract_z
Si Si1 0.342874 0.478467 0.200116
Si Si2 0.606740 0.687150 0.758144
Si Si3 0.602390 0.386738 0.038292
Si Si4 0.897596 0.594494 0.783032
Si Si5 0.230373 0.890087 0.366097
O O1 0.250000 0.500000 0.143969
O O2 0.393775 0.443941 0.103092
O O3 0.403755 0.529724 0.234776
O O4 0.319233 0.442900 0.314303
O O5 0.500000 0.675026 0.738863
O O6 0.627301 0.750000 0.763760
O O7 0.643008 0.660091 0.878721
O O8 0.664226 0.661273 0.652619
O O9 0.500000 0.371667 0.012181
O O10 0.646409 0.390948 0.910156
O O11 0.828268 0.621107 0.692604
O O12 0.000000 0.616994 0.764643
O O13 0.250000 0.899839 0.500000
#
# Coordination Sequence:
#
# PCOD8279709 Si02
#       5
#    16  16  16  16  16
#     4   9  18  29  47  74 104 140 178 214 257 312
#     4   9  19  37  61  84 104 133 175 224 279 332
#     4   9  17  31  51  77 106 132 167 218 272 326
#     4  10  20  33  51  76 108 143 175 211 264 325
#     4  10  22  37  52  75 108 142 183 228 263 302
#
# _framework density 19.02347
#
# number of rings (size 3 to 8) (size 9 to 14) (size 15 to 20)
#    0.000    2.600    0.000    1.200    0.000   16.800 
#    0.000    3.000    0.000    1.800    0.000    0.000 
#    0.000    0.000    0.000    0.000    0.000    0.000 
#
# Total GULP energy -495741.882386 kJ/mol
# GULP energy per Si atom -12393.547060 kJ/mol
# Density = 1.898017 g / cm^3
# Si number density = 19.023470 Si / 1000 Ang^3
#
#
#
# Elastic Constant Matrix: (Units=GPa)
#
#
# Indices 1 2 3 4 5 6 
#
# 1 68.9629 20.1267 33.6903 0.0000 0.0000 0.0000
# 2 20.1267 75.0502 17.1764 0.0000 0.0000 0.0000
# 3 33.6903 17.1764 129.0457 0.0000 0.0000 0.0000
# 4 0.0000 0.0000 0.0000 13.0954 0.0000 0.0000
# 5 0.0000 0.0000 0.0000 0.0000 23.2024 0.0000
# 6 0.0000 0.0000 0.0000 0.0000 0.0000 27.7075
#
#
#
# Elastic Compliance Matrix: (Units=1/GPa)
#
#
# Indices 1 2 3 4 5 6 
#
# 1 0.017604 -0.003784 -0.004092 0.000000 0.000000 0.000000
# 2 -0.003784 0.014557 -0.000950 0.000000 0.000000 0.000000
# 3 -0.004092 -0.000950 0.008944 0.000000 0.000000 0.000000
# 4 0.000000 0.000000 0.000000 0.076363 0.000000 0.000000
# 5 0.000000 0.000000 0.000000 0.000000 0.043099 0.000000
# 6 0.000000 0.000000 0.000000 0.000000 0.000000 0.036091
#
#
# Mechanical properties :
#
#
# Convention : Reuss Voigt Hill
#
# Bulk Modulus (GPa) = 42.63966 46.11617 44.37792
# Shear Modulus (GPa) = 22.50958 26.27210 24.39084
#
# Velocity S-wave (km/s) = 3.44358 3.72026 3.58459
# Velocity P-wave (km/s) = 6.18659 6.53821 6.36483
#
# Compressibility (1/GPa) = 0.02345234
#
# Stress axis : x y z
#
# Youngs Moduli (GPa) = 56.80454 68.69721 111.80738
#
# Poissons Ratio (x) = 0.25998 0.45754
# Poissons Ratio (y) = 0.21497 0.10616
# Poissons Ratio (z) = 0.23246 0.06523
#
# Static dielectric constant tensor:
#      x y z
#    x 3.516910 0.000000 0.000000 
#    y 0.000000 3.384940 0.000000 
#    z 0.000000 0.000000 3.397160 
# 
# 
# High freq. dielectric constant tensor:
#      x y z
#    x 1.744120 0.000000 0.000000 
#    y 0.000000 1.716370 0.000000 
#    z 0.000000 0.000000 1.721490 
# 
# From -- ./inp_files/17895.got.cif
#   From: 2010.03.12/outbox.cif.g09.slc.cpg/sg67_9_cif.got.tgz:17895.got - 2010.04.10 22:41:39.
