data_PCOD8279298
_publ_section_title
;
Structure prediction by ZEFSAII (Michael W. Deem and Ramdas Pophale) SiO2 
 PCOD8279298
Probable space group: C M M A
;
_chemical_formula_sum "Si O2"
_cell_formula_units_Z 96
_cell_length_a 8.587767
_cell_length_b 29.181975
_cell_length_c 20.701655
_cell_angle_alpha 90.000000
_cell_angle_beta 90.000000
_cell_angle_gamma 90.000000
_cell_volume 5188.000396
_symmetry_space_group_name_H-M "C M M A"
_symmetry_group_IT_number 67
_symmetry_cell_setting 'orthorhombic'
loop_
_space_group_symop_operation_xyz
x,y,z
-x,1/2-y,z
x,-y,-z
-x,1/2+y,-z
-x,-y,-z
x,1/2+y,-z
-x,y,z
x,1/2-y,z
1/2+x,1/2+y,z
1/2-x,-y,z
1/2+x,1/2-y,-z
1/2-x,y,-z
1/2-x,1/2-y,-z
1/2+x,y,-z
1/2-x,1/2+y,z
1/2+x,-y,z
loop_
_atom_site_type_symbol
_atom_site_label
_atom_site_fract_x
_atom_site_fract_y
_atom_site_fract_z
Si Si1 0.184372 0.700666 0.234741
Si Si2 0.183515 0.949688 0.687433
Si Si3 0.183325 0.950370 0.067404
Si Si4 0.184032 0.604200 0.192686
Si Si5 0.684654 0.105249 0.432234
Si Si6 0.684901 0.700040 0.620035
O O1 0.245347 0.750000 0.207109
O O2 0.236759 0.657656 0.191151
O O3 0.248999 0.693755 0.307254
O O4 0.000000 0.702094 0.237985
O O5 0.225424 0.920729 0.750415
O O6 0.256498 0.927545 0.623922
O O7 0.000000 0.951990 0.679001
O O8 0.250000 0.000000 0.697269
O O9 0.234607 0.916100 0.123952
O O10 0.000000 0.954488 0.061308
O O11 0.250000 0.000000 0.084126
O O12 0.250000 0.931263 0.000000
O O13 0.000000 0.598562 0.205228
O O14 0.500000 0.103557 0.432824
O O15 0.750000 0.086902 0.500000
O O16 0.748231 0.157437 0.421938
O O17 0.500000 0.698442 0.620912
O O18 0.741041 0.750000 0.592851
#
# Coordination Sequence:
#
# PCOD8279298 Si02
#       6
#    16  16  16  16  16  16
#     4   8  13  25  50  81 108 136 174 217 260 309
#     4  12  25  40  58  80 105 137 177 222 272 322
#     4  10  20  33  52  77 110 145 181 219 265 317
#     4  10  19  34  57  85 111 141 179 222 266 312
#     4  11  22  38  57  78 108 141 179 223 268 322
#     4   8  14  27  51  79 106 138 173 214 263 313
#
# _framework density 18.504238999999998
#
# number of rings (size 3 to 8) (size 9 to 14) (size 15 to 20)
#    0.000    2.167    1.667    4.500    0.000    3.333 
#    0.000    1.667    0.000    3.500    0.000    0.000 
#    0.000    0.000    0.000    0.000    0.000    0.667 
#
# Total GULP energy -594952.021543 kJ/mol
# GULP energy per Si atom -12394.833782 kJ/mol
# Density = 1.846212 g / cm^3
# Si number density = 18.504239 Si / 1000 Ang^3
#
#
#
# Elastic Constant Matrix: (Units=GPa)
#
#
# Indices 1 2 3 4 5 6 
#
# 1 61.9257 30.3994 34.9168 0.0000 0.0000 0.0000
# 2 30.3994 140.4515 71.4560 0.0000 0.0000 0.0000
# 3 34.9168 71.4560 127.2988 0.0000 0.0000 0.0000
# 4 0.0000 0.0000 0.0000 25.1237 0.0000 0.0000
# 5 0.0000 0.0000 0.0000 0.0000 23.1515 0.0000
# 6 0.0000 0.0000 0.0000 0.0000 0.0000 17.0435
#
#
#
# Elastic Compliance Matrix: (Units=1/GPa)
#
#
# Indices 1 2 3 4 5 6 
#
# 1 0.019537 -0.002103 -0.004178 0.000000 0.000000 0.000000
# 2 -0.002103 0.010192 -0.005144 0.000000 0.000000 0.000000
# 3 -0.004178 -0.005144 0.011889 0.000000 0.000000 0.000000
# 4 0.000000 0.000000 0.000000 0.039803 0.000000 0.000000
# 5 0.000000 0.000000 0.000000 0.000000 0.043194 0.000000
# 6 0.000000 0.000000 0.000000 0.000000 0.000000 0.058673
#
#
# Mechanical properties :
#
#
# Convention : Reuss Voigt Hill
#
# Bulk Modulus (GPa) = 53.28463 67.02449 60.15456
# Shear Modulus (GPa) = 23.54103 25.92401 24.73252
#
# Velocity S-wave (km/s) = 3.57066 3.74702 3.65990
# Velocity P-wave (km/s) = 6.77184 7.41755 7.10204
#
# Compressibility (1/GPa) = 0.01876714
#
# Stress axis : x y z
#
# Youngs Moduli (GPa) = 51.18594 98.11350 84.10915
#
# Poissons Ratio (x) = 0.20631 0.35144
# Poissons Ratio (y) = 0.10763 0.43269
# Poissons Ratio (z) = 0.21387 0.50474
#
# Static dielectric constant tensor:
#      x y z
#    x 3.158140 0.000000 0.000000 
#    y 0.000000 3.931480 0.000000 
#    z 0.000000 0.000000 3.415940 
# 
# 
# High freq. dielectric constant tensor:
#      x y z
#    x 1.694160 0.000000 0.000000 
#    y 0.000000 1.731160 0.000000 
#    z 0.000000 0.000000 1.702340 
# 
# From -- ./inp_files/37159.got.cif
#   From: 2010.03.12/outbox.cif.g09.slc.cpg/sg67_19_cif.got.tgz:37159.got - 2010.04.10 22:41:39.
