data_PCOD8279679
_publ_section_title
;
Structure prediction by ZEFSAII (Michael W. Deem and Ramdas Pophale) SiO2 
 PCOD8279679
Probable space group: C M M A
;
_chemical_formula_sum "Si O2"
_cell_formula_units_Z 96
_cell_length_a 23.654718
_cell_length_b 8.790590
_cell_length_c 25.760134
_cell_angle_alpha 90.000000
_cell_angle_beta 90.000000
_cell_angle_gamma 90.000000
_cell_volume 5356.534636
_symmetry_space_group_name_H-M "C M M A"
_symmetry_group_IT_number 67
_symmetry_cell_setting 'orthorhombic'
loop_
_space_group_symop_operation_xyz
x,y,z
-x,1/2-y,z
x,-y,-z
-x,1/2+y,-z
-x,-y,-z
x,1/2+y,-z
-x,y,z
x,1/2-y,z
1/2+x,1/2+y,z
1/2-x,-y,z
1/2+x,1/2-y,-z
1/2-x,y,-z
1/2-x,1/2-y,-z
1/2+x,y,-z
1/2-x,1/2+y,z
1/2+x,-y,z
loop_
_atom_site_type_symbol
_atom_site_label
_atom_site_fract_x
_atom_site_fract_y
_atom_site_fract_z
Si Si1 0.886381 0.569602 0.053820
Si Si2 0.000000 0.430075 0.215594
Si Si3 0.311826 0.071967 0.663998
Si Si4 0.688948 0.428688 0.150025
Si Si5 0.810924 0.425245 0.451054
Si Si6 0.384572 0.569566 0.752962
Si Si7 0.000000 0.569493 0.903864
O O1 0.892893 0.750000 0.049935
O O2 0.840770 0.520831 0.096812
O O3 0.946215 0.497614 0.067362
O O4 0.864154 0.500000 0.000000
O O5 0.945980 0.495786 0.244858
O O6 0.000000 0.250000 0.219862
O O7 0.000000 0.484229 0.155809
O O8 0.307501 0.250000 0.678040
O O9 0.337763 0.048637 0.605918
O O10 0.250000 0.000000 0.670247
O O11 0.354907 0.986269 0.700968
O O12 0.696001 0.250000 0.153252
O O13 0.750000 0.500000 0.153848
O O14 0.651316 0.488445 0.197734
O O15 0.845323 0.500000 0.500000
O O16 0.804495 0.250000 0.463648
O O17 0.750000 0.500000 0.449017
O O18 0.390567 0.750000 0.752675
O O19 0.000000 0.750000 0.909156
#
# Coordination Sequence:
#
# PCOD8279679 Si02
#       7
#    16   8  16  16  16  16   8
#     4  11  23  40  59  82 110 140 175 219 265 318
#     4  11  23  38  60  85 108 137 174 221 270 323
#     4  10  20  33  50  78 113 149 186 227 271 319
#     4  10  23  39  57  79 107 141 176 216 262 313
#     4   9  16  26  43  68 103 143 184 225 267 313
#     4  11  22  38  58  81 108 142 180 222 271 323
#     4  11  22  38  61  87 108 137 173 215 268 319
#
# _framework density 17.922034
#
# number of rings (size 3 to 8) (size 9 to 14) (size 15 to 20)
#    0.000    1.667    1.667    3.750    0.000    7.000 
#    0.000    1.667    0.000    0.000    0.000    0.583 
#    0.000    0.000    0.000    0.000    0.000    0.000 
#
# Total GULP energy -595186.612990 kJ/mol
# GULP energy per Si atom -12399.721104 kJ/mol
# Density = 1.788124 g / cm^3
# Si number density = 17.922034 Si / 1000 Ang^3
#
#
#
# Elastic Constant Matrix: (Units=GPa)
#
#
# Indices 1 2 3 4 5 6 
#
# 1 113.7545 35.6143 56.7807 0.0000 0.0000 0.0000
# 2 35.6143 82.7640 52.1211 0.0000 0.0000 0.0000
# 3 56.7807 52.1211 146.0860 0.0000 0.0000 0.0000
# 4 0.0000 0.0000 0.0000 32.7236 0.0000 0.0000
# 5 0.0000 0.0000 0.0000 0.0000 43.2571 0.0000
# 6 0.0000 0.0000 0.0000 0.0000 0.0000 24.4444
#
#
#
# Elastic Compliance Matrix: (Units=1/GPa)
#
#
# Indices 1 2 3 4 5 6 
#
# 1 0.011362 -0.002719 -0.003446 0.000000 0.000000 0.000000
# 2 -0.002719 0.016235 -0.004735 0.000000 0.000000 0.000000
# 3 -0.003446 -0.004735 0.009874 0.000000 0.000000 0.000000
# 4 0.000000 0.000000 0.000000 0.030559 0.000000 0.000000
# 5 0.000000 0.000000 0.000000 0.000000 0.023118 0.000000
# 6 0.000000 0.000000 0.000000 0.000000 0.000000 0.040909
#
#
# Mechanical properties :
#
#
# Convention : Reuss Voigt Hill
#
# Bulk Modulus (GPa) = 63.81644 70.18185 66.99914
# Shear Modulus (GPa) = 31.43037 33.29092 32.36064
#
# Velocity S-wave (km/s) = 4.19230 4.31460 4.25389
# Velocity P-wave (km/s) = 7.68888 8.00409 7.84807
#
# Compressibility (1/GPa) = 0.01566994
#
# Stress axis : x y z
#
# Youngs Moduli (GPa) = 88.01019 61.59613 101.27326
#
# Poissons Ratio (x) = 0.16749 0.34901
# Poissons Ratio (y) = 0.23931 0.47957
# Poissons Ratio (z) = 0.30330 0.29169
#
# Static dielectric constant tensor:
#      x y z
#    x 3.027080 0.000000 0.000000 
#    y 0.000000 3.436990 0.000000 
#    z 0.000000 0.000000 4.102710 
# 
# 
# High freq. dielectric constant tensor:
#      x y z
#    x 1.664350 0.000000 0.000000 
#    y 0.000000 1.709660 0.000000 
#    z 0.000000 0.000000 1.711050 
# 
# From -- ./inp_files/40836.got.cif
#   From: 2010.03.12/outbox.cif.g09.slc.cpg/sg67_21_cif.got.tgz:40836.got - 2010.04.10 22:41:39.
