data_PCOD8279066
_publ_section_title
;
Structure prediction by ZEFSAII (Michael W. Deem and Ramdas Pophale) SiO2 
 PCOD8279066
Probable space group: C M M A
;
_chemical_formula_sum "Si O2"
_cell_formula_units_Z 96
_cell_length_a 16.065455
_cell_length_b 23.784942
_cell_length_c 12.459080
_cell_angle_alpha 90.000000
_cell_angle_beta 90.000000
_cell_angle_gamma 90.000000
_cell_volume 4760.812759
_symmetry_space_group_name_H-M "C M M A"
_symmetry_group_IT_number 67
_symmetry_cell_setting 'orthorhombic'
loop_
_space_group_symop_operation_xyz
x,y,z
-x,1/2-y,z
x,-y,-z
-x,1/2+y,-z
-x,-y,-z
x,1/2+y,-z
-x,y,z
x,1/2-y,z
1/2+x,1/2+y,z
1/2-x,-y,z
1/2+x,1/2-y,-z
1/2-x,y,-z
1/2-x,1/2-y,-z
1/2+x,y,-z
1/2-x,1/2+y,z
1/2+x,-y,z
loop_
_atom_site_type_symbol
_atom_site_label
_atom_site_fract_x
_atom_site_fract_y
_atom_site_fract_z
Si Si1 0.097625 0.061321 0.005564
Si Si2 0.166069 0.250000 0.925010
Si Si3 0.150410 0.939748 0.618655
Si Si4 0.154151 0.933877 0.373519
Si Si5 0.596554 0.357008 0.185401
Si Si6 0.593628 0.250000 0.856256
Si Si7 0.904386 0.867239 0.803753
O O1 0.116957 0.093295 0.896434
O O2 0.000000 0.054824 0.026693
O O3 0.139111 0.093879 0.106087
O O4 0.139683 0.000000 0.000000
O O5 0.155306 0.195781 0.846721
O O6 0.250000 0.250000 0.000000
O O7 0.093015 0.250000 0.013632
O O8 0.126903 0.925275 0.496646
O O9 0.247441 0.931418 0.638267
O O10 0.100884 0.894394 0.687549
O O11 0.123328 0.002759 0.655480
O O12 0.115247 0.883921 0.302257
O O13 0.500000 0.338218 0.181532
O O14 0.500000 0.250000 0.813705
O O15 0.639360 0.194354 0.808935
O O16 0.000000 0.858427 0.837417
#
# Coordination Sequence:
#
# PCOD8279066 Si02
#       7
#    16   8  16  16  16   8  16
#     4   9  17  29  49  80 112 140 176 227 290 349
#     4  12  26  40  59  85 116 159 204 238 291 363
#     4   9  19  38  58  83 120 153 200 244 291 361
#     4   9  20  37  59  83 115 163 193 239 305 354
#     4  11  22  38  59  85 120 156 197 251 304 357
#     4  10  20  38  57  79 111 150 186 233 289 334
#     4  10  19  32  56  81 108 146 189 239 289 342
#
# _framework density 20.164624
#
# number of rings (size 3 to 8) (size 9 to 14) (size 15 to 20)
#    0.000    2.167    1.667    2.750    2.333    2.667 
#    0.000    2.500    0.000    7.000    0.000    0.000 
#    0.000    0.000    0.000    0.000    0.000    0.000 
#
# Total GULP energy -594853.737396 kJ/mol
# GULP energy per Si atom -12392.786196 kJ/mol
# Density = 2.011873 g / cm^3
# Si number density = 20.164624 Si / 1000 Ang^3
#
#
#
# Elastic Constant Matrix: (Units=GPa)
#
#
# Indices 1 2 3 4 5 6 
#
# 1 38.6502 28.4042 19.2683 0.0000 0.0000 0.0000
# 2 28.4042 195.6092 84.2621 0.0000 0.0000 0.0000
# 3 19.2683 84.2621 117.7439 0.0000 0.0000 0.0000
# 4 0.0000 0.0000 0.0000 40.1816 0.0000 0.0000
# 5 0.0000 0.0000 0.0000 0.0000 26.9006 0.0000
# 6 0.0000 0.0000 0.0000 0.0000 0.0000 16.3534
#
#
#
# Elastic Compliance Matrix: (Units=1/GPa)
#
#
# Indices 1 2 3 4 5 6 
#
# 1 0.029482 -0.003184 -0.002546 0.000000 0.000000 0.000000
# 2 -0.003184 0.007735 -0.005014 0.000000 0.000000 0.000000
# 3 -0.002546 -0.005014 0.012498 0.000000 0.000000 0.000000
# 4 0.000000 0.000000 0.000000 0.024887 0.000000 0.000000
# 5 0.000000 0.000000 0.000000 0.000000 0.037174 0.000000
# 6 0.000000 0.000000 0.000000 0.000000 0.000000 0.061149
#
#
# Mechanical properties :
#
#
# Convention : Reuss Voigt Hill
#
# Bulk Modulus (GPa) = 35.42787 68.43026 51.92907
# Shear Modulus (GPa) = 24.53120 31.35839 27.94480
#
# Velocity S-wave (km/s) = 3.49169 3.94778 3.72672
# Velocity P-wave (km/s) = 5.81922 7.40199 6.65780
#
# Compressibility (1/GPa) = 0.02822637
#
# Stress axis : x y z
#
# Youngs Moduli (GPa) = 33.91846 129.29065 80.01401
#
# Poissons Ratio (x) = 0.41173 0.20369
# Poissons Ratio (y) = 0.10801 0.40119
# Poissons Ratio (z) = 0.08635 0.64826
#
# Static dielectric constant tensor:
#      x y z
#    x 3.326780 0.000000 0.000000 
#    y 0.000000 4.023360 0.000000 
#    z 0.000000 0.000000 3.605660 
# 
# 
# High freq. dielectric constant tensor:
#      x y z
#    x 1.760310 0.000000 0.000000 
#    y 0.000000 1.795950 0.000000 
#    z 0.000000 0.000000 1.778810 
# 
# From -- ./inp_files/19731.got.cif
#   From: 2010.03.12/outbox.cif.g09.slc.cpg/sg67_10_cif.got.tgz:19731.got - 2010.04.10 22:41:39.
