data_PCOD8279531
_publ_section_title
;
Structure prediction by ZEFSAII (Michael W. Deem and Ramdas Pophale) SiO2 
 PCOD8279531
Probable space group: C M M A
;
_chemical_formula_sum "Si O2"
_cell_formula_units_Z 88
_cell_length_a 30.595745
_cell_length_b 8.775150
_cell_length_c 17.486174
_cell_angle_alpha 90.000000
_cell_angle_beta 90.000000
_cell_angle_gamma 90.000000
_cell_volume 4694.727370
_symmetry_space_group_name_H-M "C M M A"
_symmetry_group_IT_number 67
_symmetry_cell_setting 'orthorhombic'
loop_
_space_group_symop_operation_xyz
x,y,z
-x,1/2-y,z
x,-y,-z
-x,1/2+y,-z
-x,-y,-z
x,1/2+y,-z
-x,y,z
x,1/2-y,z
1/2+x,1/2+y,z
1/2-x,-y,z
1/2+x,1/2-y,-z
1/2-x,y,-z
1/2-x,1/2-y,-z
1/2+x,y,-z
1/2-x,1/2+y,z
1/2+x,-y,z
loop_
_atom_site_type_symbol
_atom_site_label
_atom_site_fract_x
_atom_site_fract_y
_atom_site_fract_z
Si Si1 0.450427 0.429306 0.082771
Si Si2 0.088596 0.924928 0.345744
Si Si3 0.000000 0.927914 0.419115
Si Si4 0.823924 0.922003 0.421805
Si Si5 0.619441 0.928237 0.197127
Si Si6 0.204411 0.931900 0.255293
O O1 0.500000 0.464663 0.112661
O O2 0.442717 0.250000 0.078225
O O3 0.413561 0.500709 0.136189
O O4 0.443855 0.500000 0.000000
O O5 0.087793 0.750000 0.314433
O O6 0.042210 0.982609 0.374026
O O7 0.123573 0.936339 0.414540
O O8 0.099565 0.043180 0.280025
O O9 0.000000 0.750000 0.430511
O O10 0.000000 0.000000 0.500000
O O11 0.808279 0.750000 0.429792
O O12 0.803491 0.989827 0.343048
O O13 0.807513 0.000000 0.500000
O O14 0.624704 0.750000 0.180844
O O15 0.667332 0.006804 0.197014
O O16 0.203975 0.750000 0.252071
O O17 0.250000 0.000000 0.226081
#
# Coordination Sequence:
#
# PCOD8279531 Si02
#       6
#    16  16   8  16  16  16
#     4  10  21  38  61  89 122 156 187 224 270 321
#     4   9  19  34  48  69 100 140 184 228 278 331
#     4  10  20  32  48  68  97 136 181 230 282 332
#     4   9  18  31  48  69  99 135 177 228 282 337
#     4  11  22  36  57  84 113 147 186 228 274 328
#     4  10  21  38  57  80 109 143 186 233 285 338
#
# _framework density 18.744432
#
# number of rings (size 3 to 8) (size 9 to 14) (size 15 to 20)
#    0.000    2.182    0.000    4.364    1.273    5.818 
#    0.000    1.818    0.000    0.545    0.000    3.818 
#    0.000    0.000    0.000    0.000    0.000    0.000 
#
# Total GULP energy -545406.515261 kJ/mol
# GULP energy per Si atom -12395.602620 kJ/mol
# Density = 1.870177 g / cm^3
# Si number density = 18.744432 Si / 1000 Ang^3
#
#
#
# Elastic Constant Matrix: (Units=GPa)
#
#
# Indices 1 2 3 4 5 6 
#
# 1 155.7110 53.7305 49.3290 0.0000 0.0000 0.0000
# 2 53.7305 95.5893 44.2232 0.0000 0.0000 0.0000
# 3 49.3290 44.2232 73.5246 0.0000 0.0000 0.0000
# 4 0.0000 0.0000 0.0000 33.6331 0.0000 0.0000
# 5 0.0000 0.0000 0.0000 0.0000 18.3333 0.0000
# 6 0.0000 0.0000 0.0000 0.0000 0.0000 29.8079
#
#
#
# Elastic Compliance Matrix: (Units=1/GPa)
#
#
# Indices 1 2 3 4 5 6 
#
# 1 0.008755 -0.003053 -0.004037 0.000000 0.000000 0.000000
# 2 -0.003053 0.015560 -0.007310 0.000000 0.000000 0.000000
# 3 -0.004037 -0.007310 0.020707 0.000000 0.000000 0.000000
# 4 0.000000 0.000000 0.000000 0.029733 0.000000 0.000000
# 5 0.000000 0.000000 0.000000 0.000000 0.054545 0.000000
# 6 0.000000 0.000000 0.000000 0.000000 0.000000 0.033548
#
#
# Mechanical properties :
#
#
# Convention : Reuss Voigt Hill
#
# Bulk Modulus (GPa) = 61.65472 68.82114 65.23793
# Shear Modulus (GPa) = 25.37363 28.19102 26.78232
#
# Velocity S-wave (km/s) = 3.68321 3.88231 3.78407
# Velocity P-wave (km/s) = 7.14505 7.54266 7.34654
#
# Compressibility (1/GPa) = 0.01621936
#
# Stress axis : x y z
#
# Youngs Moduli (GPa) = 114.22423 64.26892 48.29396
#
# Poissons Ratio (x) = 0.19623 0.19498
# Poissons Ratio (y) = 0.34875 0.35304
# Poissons Ratio (z) = 0.46115 0.46982
#
# Static dielectric constant tensor:
#      x y z
#    x 3.760620 0.000000 0.000000 
#    y 0.000000 3.331460 0.000000 
#    z 0.000000 0.000000 3.201130 
# 
# 
# High freq. dielectric constant tensor:
#      x y z
#    x 1.739250 0.000000 0.000000 
#    y 0.000000 1.728970 0.000000 
#    z 0.000000 0.000000 1.701590 
# 
# From -- ./inp_files/36163.got.cif
#   From: 2010.03.12/outbox.cif.g09.slc.cpg/sg67_19_cif.got.tgz:36163.got - 2010.04.10 22:41:39.
