data_PCOD8279956
_publ_section_title
;
Structure prediction by ZEFSAII (Michael W. Deem and Ramdas Pophale) SiO2 
 PCOD8279956
Probable space group: C M M A
;
_chemical_formula_sum "Si O2"
_cell_formula_units_Z 96
_cell_length_a 18.743474
_cell_length_b 8.815368
_cell_length_c 30.474024
_cell_angle_alpha 90.000000
_cell_angle_beta 90.000000
_cell_angle_gamma 90.000000
_cell_volume 5035.241907
_symmetry_space_group_name_H-M "C M M A"
_symmetry_group_IT_number 67
_symmetry_cell_setting 'orthorhombic'
loop_
_space_group_symop_operation_xyz
x,y,z
-x,1/2-y,z
x,-y,-z
-x,1/2+y,-z
-x,-y,-z
x,1/2+y,-z
-x,y,z
x,1/2-y,z
1/2+x,1/2+y,z
1/2-x,-y,z
1/2+x,1/2-y,-z
1/2-x,y,-z
1/2-x,1/2-y,-z
1/2+x,y,-z
1/2-x,1/2+y,z
1/2+x,-y,z
loop_
_atom_site_type_symbol
_atom_site_label
_atom_site_fract_x
_atom_site_fract_y
_atom_site_fract_z
Si Si1 0.676084 0.428655 0.783905
Si Si2 0.918053 0.572630 0.453128
Si Si3 0.084467 0.422392 0.955718
Si Si4 0.672083 0.569544 0.376422
Si Si5 0.675536 0.071127 0.883230
Si Si6 0.079597 0.930186 0.705732
O O1 0.685219 0.250000 0.780777
O O2 0.750000 0.500000 0.767993
O O3 0.657329 0.479304 0.833452
O O4 0.614106 0.486757 0.751465
O O5 0.902475 0.500000 0.500000
O O6 0.899816 0.750000 0.454802
O O7 0.866520 0.488948 0.419677
O O8 0.000000 0.544673 0.439109
O O9 0.111713 0.250000 0.955018
O O10 0.112766 0.510573 0.913576
O O11 0.000000 0.432277 0.953856
O O12 0.113767 0.500000 0.000000
O O13 0.677562 0.750000 0.377958
O O14 0.750000 0.500000 0.372796
O O15 0.626798 0.511222 0.334759
O O16 0.680995 0.250000 0.887687
O O17 0.750000 0.000000 0.898779
O O18 0.075827 0.750000 0.704855
O O19 0.000000 0.999272 0.702235
#
# Coordination Sequence:
#
# PCOD8279956 Si02
#       6
#    16  16  16  16  16  16
#     4   9  18  33  54  78 106 140 176 217 263 314
#     4  10  21  38  60  85 113 144 180 223 271 324
#     4  10  21  37  56  78 106 139 176 220 269 321
#     4  11  22  36  56  81 111 147 186 227 272 321
#     4  10  20  34  54  80 109 142 180 221 266 317
#     4   9  18  33  54  80 108 140 180 223 267 318
#
# _framework density 19.065617
#
# number of rings (size 3 to 8) (size 9 to 14) (size 15 to 20)
#    0.000    2.167    0.000    3.000    0.000    4.667 
#    0.000    5.833    0.000    2.500    0.000    0.000 
#    0.000    0.000    0.000    0.000    0.000    0.000 
#
# Total GULP energy -595319.707050 kJ/mol
# GULP energy per Si atom -12402.493897 kJ/mol
# Density = 1.902222 g / cm^3
# Si number density = 19.065617 Si / 1000 Ang^3
#
#
#
# Elastic Constant Matrix: (Units=GPa)
#
#
# Indices 1 2 3 4 5 6 
#
# 1 121.5493 41.0992 79.3237 0.0000 0.0000 0.0000
# 2 41.0992 76.0344 41.8397 0.0000 0.0000 0.0000
# 3 79.3237 41.8397 127.7356 0.0000 0.0000 0.0000
# 4 0.0000 0.0000 0.0000 21.8062 0.0000 0.0000
# 5 0.0000 0.0000 0.0000 0.0000 69.7492 0.0000
# 6 0.0000 0.0000 0.0000 0.0000 0.0000 27.4715
#
#
#
# Elastic Compliance Matrix: (Units=1/GPa)
#
#
# Indices 1 2 3 4 5 6 
#
# 1 0.014572 -0.003534 -0.007892 0.000000 0.000000 0.000000
# 2 -0.003534 0.016901 -0.003341 0.000000 0.000000 0.000000
# 3 -0.007892 -0.003341 0.013824 0.000000 0.000000 0.000000
# 4 0.000000 0.000000 0.000000 0.045858 0.000000 0.000000
# 5 0.000000 0.000000 0.000000 0.000000 0.014337 0.000000
# 6 0.000000 0.000000 0.000000 0.000000 0.000000 0.036401
#
#
# Mechanical properties :
#
#
# Convention : Reuss Voigt Hill
#
# Bulk Modulus (GPa) = 63.44051 72.20495 67.82273
# Shear Modulus (GPa) = 28.29935 34.67582 31.48758
#
# Velocity S-wave (km/s) = 3.85686 4.26932 4.06832
# Velocity P-wave (km/s) = 7.29252 7.89030 7.59729
#
# Compressibility (1/GPa) = 0.01576280
#
# Stress axis : x y z
#
# Youngs Moduli (GPa) = 68.62302 59.16864 72.33873
#
# Poissons Ratio (x) = 0.20912 0.57088
# Poissons Ratio (y) = 0.24253 0.24169
# Poissons Ratio (z) = 0.54156 0.19769
#
# Static dielectric constant tensor:
#      x y z
#    x 3.575200 0.000000 0.000000 
#    y 0.000000 3.466860 0.000000 
#    z 0.000000 0.000000 3.676980 
# 
# 
# High freq. dielectric constant tensor:
#      x y z
#    x 1.741160 0.000000 0.000000 
#    y 0.000000 1.735310 0.000000 
#    z 0.000000 0.000000 1.754270 
# 
# From -- ./inp_files/44590.got.cif
#   From: 2010.03.12/outbox.cif.g09.slc.cpg/sg67_23_cif.got.tgz:44590.got - 2010.04.10 22:41:39.
