data_PCOD8279232
_publ_section_title
;
Structure prediction by ZEFSAII (Michael W. Deem and Ramdas Pophale) SiO2 
 PCOD8279232
Probable space group: C M M A
;
_chemical_formula_sum "Si O2"
_cell_formula_units_Z 104
_cell_length_a 9.041224
_cell_length_b 21.098828
_cell_length_c 28.916614
_cell_angle_alpha 90.000000
_cell_angle_beta 90.000000
_cell_angle_gamma 90.000000
_cell_volume 5516.111023
_symmetry_space_group_name_H-M "C M M A"
_symmetry_group_IT_number 67
_symmetry_cell_setting 'orthorhombic'
loop_
_space_group_symop_operation_xyz
x,y,z
-x,1/2-y,z
x,-y,-z
-x,1/2+y,-z
-x,-y,-z
x,1/2+y,-z
-x,y,z
x,1/2-y,z
1/2+x,1/2+y,z
1/2-x,-y,z
1/2+x,1/2-y,-z
1/2-x,y,-z
1/2-x,1/2-y,-z
1/2+x,y,-z
1/2-x,1/2+y,z
1/2+x,-y,z
loop_
_atom_site_type_symbol
_atom_site_label
_atom_site_fract_x
_atom_site_fract_y
_atom_site_fract_z
Si Si1 0.673584 0.435880 0.887358
Si Si2 0.172310 0.138801 0.383443
Si Si3 0.323836 0.433256 0.456289
Si Si4 0.325732 0.564424 0.219005
Si Si5 0.174008 0.178485 0.048198
Si Si6 0.834001 0.750000 0.547105
Si Si7 0.324241 0.820841 0.282255
O O1 0.500000 0.445351 0.893481
O O2 0.750000 0.500000 0.906463
O O3 0.717739 0.424554 0.834223
O O4 0.729408 0.373607 0.914807
O O5 0.275571 0.084197 0.403939
O O6 0.204650 0.191794 0.420767
O O7 0.230069 0.160055 0.333289
O O8 0.000000 0.118937 0.381051
O O9 0.500000 0.432899 0.460999
O O10 0.250000 0.500000 0.462955
O O11 0.250000 0.393156 0.500000
O O12 0.500000 0.556541 0.226003
O O13 0.250000 0.500000 0.237821
O O14 0.265278 0.626043 0.246484
O O15 0.216536 0.250000 0.064885
O O16 0.000000 0.173227 0.040857
O O17 0.250000 0.162205 0.000000
O O18 0.750000 0.750000 0.500000
O O19 0.000000 0.750000 0.530799
O O20 0.500000 0.818583 0.280998
O O21 0.263722 0.750000 0.269767
#
# Coordination Sequence:
#
# PCOD8279232 Si02
#       7
#    16  16  16  16  16   8  16
#     4   9  18  32  50  74 103 135 173 219 267 313
#     4  10  19  34  53  75 102 132 164 202 246 295
#     4  11  22  37  55  76 101 131 165 204 247 296
#     4   9  18  33  54  78 104 136 174 217 264 316
#     4   9  18  32  49  71 102 138 176 219 265 314
#     4  10  20  32  50  72  98 130 162 196 237 286
#     4   9  17  32  55  80 105 135 173 215 258 305
#
# _framework density 18.853863
#
# number of rings (size 3 to 8) (size 9 to 14) (size 15 to 20)
#    0.000    2.462    0.769    2.308    0.000    4.000 
#    0.000    6.923    0.000    1.385    0.000    4.308 
#    0.000    0.000    0.000    0.000    0.000    0.000 
#
# Total GULP energy -644300.864025 kJ/mol
# GULP energy per Si atom -12390.401231 kJ/mol
# Density = 1.881095 g / cm^3
# Si number density = 18.853863 Si / 1000 Ang^3
#
#
#
# Elastic Constant Matrix: (Units=GPa)
#
#
# Indices 1 2 3 4 5 6 
#
# 1 48.4061 40.3121 33.9821 0.0000 0.0000 0.0000
# 2 40.3121 148.8370 88.8695 0.0000 0.0000 0.0000
# 3 33.9821 88.8695 117.0738 0.0000 0.0000 0.0000
# 4 0.0000 0.0000 0.0000 47.8857 0.0000 0.0000
# 5 0.0000 0.0000 0.0000 0.0000 37.2368 0.0000
# 6 0.0000 0.0000 0.0000 0.0000 0.0000 33.8498
#
#
#
# Elastic Compliance Matrix: (Units=1/GPa)
#
#
# Indices 1 2 3 4 5 6 
#
# 1 0.027814 -0.004962 -0.004307 0.000000 0.000000 0.000000
# 2 -0.004962 0.013174 -0.008560 0.000000 0.000000 0.000000
# 3 -0.004307 -0.008560 0.016289 0.000000 0.000000 0.000000
# 4 0.000000 0.000000 0.000000 0.020883 0.000000 0.000000
# 5 0.000000 0.000000 0.000000 0.000000 0.026855 0.000000
# 6 0.000000 0.000000 0.000000 0.000000 0.000000 0.029542
#
#
# Mechanical properties :
#
#
# Convention : Reuss Voigt Hill
#
# Bulk Modulus (GPa) = 46.25293 71.18269 58.71781
# Shear Modulus (GPa) = 28.18149 33.87133 31.02641
#
# Velocity S-wave (km/s) = 3.87037 4.24314 4.06103
# Velocity P-wave (km/s) = 6.67523 7.86400 7.29387
#
# Compressibility (1/GPa) = 0.02162025
#
# Stress axis : x y z
#
# Youngs Moduli (GPa) = 35.95284 75.90951 61.38962
#
# Poissons Ratio (x) = 0.37664 0.26441
# Poissons Ratio (y) = 0.17839 0.52548
# Poissons Ratio (z) = 0.15485 0.64977
#
# Static dielectric constant tensor:
#      x y z
#    x 1.476030 0.000000 0.000000 
#    y 0.000000 3.710130 0.000000 
#    z 0.000000 0.000000 3.499730 
# 
# 
# High freq. dielectric constant tensor:
#      x y z
#    x 1.704320 0.000000 0.000000 
#    y 0.000000 1.742350 0.000000 
#    z 0.000000 0.000000 1.731760 
# 
# From -- ./inp_files/43717.got.cif
#   From: 2010.03.12/outbox.cif.g09.slc.cpg/sg67_22_cif.got.tgz:43717.got - 2010.04.10 22:41:39.
