data_PCOD8279095
_publ_section_title
;
Structure prediction by ZEFSAII (Michael W. Deem and Ramdas Pophale) SiO2 
 PCOD8279095
Probable space group: C M M A
;
_chemical_formula_sum "Si O2"
_cell_formula_units_Z 112
_cell_length_a 28.225773
_cell_length_b 19.775182
_cell_length_c 11.133171
_cell_angle_alpha 90.000000
_cell_angle_beta 90.000000
_cell_angle_gamma 90.000000
_cell_volume 6214.199810
_symmetry_space_group_name_H-M "C M M A"
_symmetry_group_IT_number 67
_symmetry_cell_setting 'orthorhombic'
loop_
_space_group_symop_operation_xyz
x,y,z
-x,1/2-y,z
x,-y,-z
-x,1/2+y,-z
-x,-y,-z
x,1/2+y,-z
-x,y,z
x,1/2-y,z
1/2+x,1/2+y,z
1/2-x,-y,z
1/2+x,1/2-y,-z
1/2-x,y,-z
1/2-x,1/2-y,-z
1/2+x,y,-z
1/2-x,1/2+y,z
1/2+x,-y,z
loop_
_atom_site_type_symbol
_atom_site_label
_atom_site_fract_x
_atom_site_fract_y
_atom_site_fract_z
Si Si1 0.125475 0.577560 0.508222
Si Si2 0.054560 0.573082 0.942927
Si Si3 0.760158 0.078822 0.128722
Si Si4 0.912509 0.671321 0.150328
Si Si5 0.053302 0.675393 0.406733
Si Si6 0.141607 0.060232 0.225841
Si Si7 0.330840 0.407380 0.261562
O O1 0.109481 0.500000 0.500000
O O2 0.079149 0.622237 0.490919
O O3 0.145913 0.590210 0.640192
O O4 0.163791 0.598209 0.406107
O O5 0.066090 0.630661 0.039226
O O6 0.000000 0.581352 0.898245
O O7 0.062491 0.500000 0.000000
O O8 0.091132 0.580350 0.831928
O O9 0.814672 0.095578 0.157576
O O10 0.724213 0.105844 0.230998
O O11 0.750000 0.000000 0.119596
O O12 0.750000 0.113314 0.000000
O O13 0.912244 0.750000 0.114841
O O14 0.945101 0.655659 0.266133
O O15 0.859696 0.648549 0.187080
O O16 0.076162 0.750000 0.423254
O O17 0.000000 0.675373 0.451785
O O18 0.148759 0.979747 0.219968
#
# Coordination Sequence:
#
# PCOD8279095 Si02
#       7
#    16  16  16  16  16  16  16
#     4   9  19  32  49  75 106 137 172 219 266 315
#     4  11  22  34  52  75 106 142 175 221 272 316
#     4   9  17  27  51  79 103 137 173 217 263 312
#     4  10  19  34  56  79 106 138 177 225 267 317
#     4   9  18  33  53  75 100 135 180 223 260 307
#     4  10  19  33  51  77 108 138 177 217 264 324
#     4   9  17  33  52  78 108 134 174 221 268 314
#
# _framework density 18.023237000000002
#
# number of rings (size 3 to 8) (size 9 to 14) (size 15 to 20)
#    0.000    2.429    1.429    1.286    2.000    2.286 
#    0.000    3.571    0.000    4.714    0.000    4.000 
#    0.000    0.000    0.000    0.000    0.000    0.000 
#
# Total GULP energy -694146.257130 kJ/mol
# GULP energy per Si atom -12395.468877 kJ/mol
# Density = 1.798222 g / cm^3
# Si number density = 18.023237 Si / 1000 Ang^3
#
#
#
# Elastic Constant Matrix: (Units=GPa)
#
#
# Indices 1 2 3 4 5 6 
#
# 1 138.2128 29.3559 67.0335 0.0000 0.0000 0.0000
# 2 29.3559 63.7673 34.8009 0.0000 0.0000 0.0000
# 3 67.0335 34.8009 114.3286 0.0000 0.0000 0.0000
# 4 0.0000 0.0000 0.0000 24.9375 0.0000 0.0000
# 5 0.0000 0.0000 0.0000 0.0000 19.3420 0.0000
# 6 0.0000 0.0000 0.0000 0.0000 0.0000 2.0920
#
#
#
# Elastic Compliance Matrix: (Units=1/GPa)
#
#
# Indices 1 2 3 4 5 6 
#
# 1 0.010267 -0.001728 -0.005494 0.000000 0.000000 0.000000
# 2 -0.001728 0.019097 -0.004800 0.000000 0.000000 0.000000
# 3 -0.005494 -0.004800 0.013429 0.000000 0.000000 0.000000
# 4 0.000000 0.000000 0.000000 0.040100 0.000000 0.000000
# 5 0.000000 0.000000 0.000000 0.000000 0.051701 0.000000
# 6 0.000000 0.000000 0.000000 0.000000 0.000000 0.478020
#
#
# Mechanical properties :
#
#
# Convention : Reuss Voigt Hill
#
# Bulk Modulus (GPa) = 53.33488 64.29881 58.81684
# Shear Modulus (GPa) = 7.77718 21.61551 14.69635
#
# Velocity S-wave (km/s) = 2.07953 3.46687 2.85864
# Velocity P-wave (km/s) = 5.95168 7.19573 6.60307
#
# Compressibility (1/GPa) = 0.01874946
#
# Stress axis : x y z
#
# Youngs Moduli (GPa) = 97.40262 52.36403 74.46746
#
# Poissons Ratio (x) = 0.09050 0.40909
# Poissons Ratio (y) = 0.16834 0.35742
# Poissons Ratio (z) = 0.53508 0.25133
#
# Static dielectric constant tensor:
#      x y z
#    x 3.418270 0.000000 0.000000 
#    y 0.000000 3.159330 0.000000 
#    z 0.000000 0.000000 3.412020 
# 
# 
# High freq. dielectric constant tensor:
#      x y z
#    x 1.696470 0.000000 0.000000 
#    y 0.000000 1.668170 0.000000 
#    z 0.000000 0.000000 1.695480 
# 
# From -- ./inp_files/22177.got.cif
#   From: 2010.03.12/outbox.cif.g09.slc.cpg/sg67_12_cif.got.tgz:22177.got - 2010.04.10 22:41:39.
