data_PCOD8279921
_publ_section_title
;
Structure prediction by ZEFSAII (Michael W. Deem and Ramdas Pophale) SiO2 
 PCOD8279921
Probable space group: C M M A
;
_chemical_formula_sum "Si O2"
_cell_formula_units_Z 68
_cell_length_a 24.782074
_cell_length_b 9.380728
_cell_length_c 13.716177
_cell_angle_alpha 90.000000
_cell_angle_beta 90.000000
_cell_angle_gamma 90.000000
_cell_volume 3188.653098
_symmetry_space_group_name_H-M "C M M A"
_symmetry_group_IT_number 67
_symmetry_cell_setting 'orthorhombic'
loop_
_space_group_symop_operation_xyz
x,y,z
-x,1/2-y,z
x,-y,-z
-x,1/2+y,-z
-x,-y,-z
x,1/2+y,-z
-x,y,z
x,1/2-y,z
1/2+x,1/2+y,z
1/2-x,-y,z
1/2+x,1/2-y,-z
1/2-x,y,-z
1/2-x,1/2-y,-z
1/2+x,y,-z
1/2-x,1/2+y,z
1/2+x,-y,z
loop_
_atom_site_type_symbol
_atom_site_label
_atom_site_fract_x
_atom_site_fract_y
_atom_site_fract_z
Si Si1 0.797851 0.087629 0.653883
Si Si2 0.083691 0.585703 0.407219
Si Si3 0.173659 0.092022 0.163187
Si Si4 0.250000 0.500000 0.000000
Si Si5 0.558579 0.912037 0.217969
O O1 0.779643 0.250000 0.665822
O O2 0.851597 0.073278 0.591082
O O3 0.750000 0.000000 0.600623
O O4 0.804636 0.025307 0.762588
O O5 0.060788 0.500000 0.500000
O O6 0.065059 0.750000 0.412808
O O7 0.060545 0.517509 0.309584
O O8 0.178741 0.250000 0.209403
O O9 0.109293 0.059287 0.145007
O O10 0.208967 0.092772 0.065028
O O11 0.500000 0.937054 0.165723
O O12 0.561901 0.750000 0.257330
#
# Coordination Sequence:
#
# PCOD8279921 Si02
#       5
#    16  16  16   4  16
#     4  10  20  34  53  77 110 149 189 230 278 335
#     4  10  21  35  53  81 113 148 190 236 281 328
#     4  10  21  36  56  83 115 147 184 230 279 337
#     4  12  22  32  58  94 120 144 182 226 282 340
#     4   9  19  38  61  81 107 149 194 235 281 330
#
# _framework density 21.325619
#
# number of rings (size 3 to 8) (size 9 to 14) (size 15 to 20)
#    0.000    2.118    1.176    1.765    0.000    5.176 
#    0.000    2.941    0.000    0.000    0.000    0.000 
#    0.000    0.000    0.000    0.000    0.000    0.000 
#
# Total GULP energy -421282.767164 kJ/mol
# GULP energy per Si atom -12390.669622 kJ/mol
# Density = 2.127708 g / cm^3
# Si number density = 21.325619 Si / 1000 Ang^3
#
#
#
# Elastic Constant Matrix: (Units=GPa)
#
#
# Indices 1 2 3 4 5 6 
#
# 1 162.2430 41.4056 29.0778 0.0000 0.0000 0.0000
# 2 41.4056 129.9102 23.0663 0.0000 0.0000 0.0000
# 3 29.0778 23.0663 64.1309 0.0000 0.0000 0.0000
# 4 0.0000 0.0000 0.0000 20.8568 0.0000 0.0000
# 5 0.0000 0.0000 0.0000 0.0000 12.7930 0.0000
# 6 0.0000 0.0000 0.0000 0.0000 0.0000 20.1512
#
#
#
# Elastic Compliance Matrix: (Units=1/GPa)
#
#
# Indices 1 2 3 4 5 6 
#
# 1 0.007083 -0.001802 -0.002563 0.000000 0.000000 0.000000
# 2 -0.001802 0.008681 -0.002305 0.000000 0.000000 0.000000
# 3 -0.002563 -0.002305 0.017584 0.000000 0.000000 0.000000
# 4 0.000000 0.000000 0.000000 0.047946 0.000000 0.000000
# 5 0.000000 0.000000 0.000000 0.000000 0.078168 0.000000
# 6 0.000000 0.000000 0.000000 0.000000 0.000000 0.049625
#
#
# Mechanical properties :
#
#
# Convention : Reuss Voigt Hill
#
# Bulk Modulus (GPa) = 49.98239 60.37596 55.17917
# Shear Modulus (GPa) = 21.82469 28.27582 25.05025
#
# Velocity S-wave (km/s) = 3.20254 3.64525 3.43104
# Velocity P-wave (km/s) = 6.09619 6.78897 6.45189
#
# Compressibility (1/GPa) = 0.02000705
#
# Stress axis : x y z
#
# Youngs Moduli (GPa) = 141.18367 115.18875 56.86844
#
# Poissons Ratio (x) = 0.20762 0.14577
# Poissons Ratio (y) = 0.25447 0.13110
# Poissons Ratio (z) = 0.36189 0.26554
#
# Static dielectric constant tensor:
#      x y z
#    x 4.420700 0.000000 0.000000 
#    y 0.000000 3.885130 0.000000 
#    z 0.000000 0.000000 3.254590 
# 
# 
# High freq. dielectric constant tensor:
#      x y z
#    x 1.865950 0.000000 0.000000 
#    y 0.000000 1.842070 0.000000 
#    z 0.000000 0.000000 1.781040 
# 
# From -- ./inp_files/30478.got.cif
#   From: 2010.03.12/outbox.cif.g09.slc.cpg/sg67_16_cif.got.tgz:30478.got - 2010.04.10 22:41:39.
