data_PCOD8279000
_publ_section_title
;
Structure prediction by ZEFSAII (Michael W. Deem and Ramdas Pophale) SiO2 
 PCOD8279000
Probable space group: C M M A
;
_chemical_formula_sum "Si O2"
_cell_formula_units_Z 80
_cell_length_a 18.396279
_cell_length_b 8.673046
_cell_length_c 25.647513
_cell_angle_alpha 90.000000
_cell_angle_beta 90.000000
_cell_angle_gamma 90.000000
_cell_volume 4092.106198
_symmetry_space_group_name_H-M "C M M A"
_symmetry_group_IT_number 67
_symmetry_cell_setting 'orthorhombic'
loop_
_space_group_symop_operation_xyz
x,y,z
-x,1/2-y,z
x,-y,-z
-x,1/2+y,-z
-x,-y,-z
x,1/2+y,-z
-x,y,z
x,1/2-y,z
1/2+x,1/2+y,z
1/2-x,-y,z
1/2+x,1/2-y,-z
1/2-x,y,-z
1/2-x,1/2-y,-z
1/2+x,y,-z
1/2-x,1/2+y,z
1/2+x,-y,z
loop_
_atom_site_type_symbol
_atom_site_label
_atom_site_fract_x
_atom_site_fract_y
_atom_site_fract_z
Si Si1 0.581434 0.933282 0.653671
Si Si2 0.171283 0.567066 0.445622
Si Si3 0.170246 0.432512 0.752369
Si Si4 0.826661 0.068627 0.055630
Si Si5 0.084425 0.070909 0.854515
O O1 0.500000 0.001008 0.656865
O O2 0.579161 0.750000 0.656574
O O3 0.617014 0.987987 0.599595
O O4 0.628276 0.998639 0.701879
O O5 0.141262 0.500000 0.500000
O O6 0.176861 0.750000 0.449537
O O7 0.250000 0.500000 0.432483
O O8 0.175306 0.250000 0.749498
O O9 0.250000 0.500000 0.754338
O O10 0.126737 0.486207 0.803394
O O11 0.818414 0.250000 0.050150
O O12 0.750000 0.000000 0.075132
O O13 0.889182 0.027633 0.096435
O O14 0.849326 0.000000 0.000000
O O15 0.099575 0.250000 0.865863
O O16 0.000000 0.038407 0.845117
#
# Coordination Sequence:
#
# PCOD8279000 Si02
#       5
#    16  16  16  16  16
#     4   9  18  33  53  77 104 136 175 217 263 315
#     4  10  19  32  52  75 102 136 174 217 261 310
#     4  10  20  35  57  81 106 139 178 220 264 316
#     4  11  22  38  60  84 112 146 185 227 270 318
#     4  10  21  37  57  82 112 145 181 222 270 323
#
# _framework density 19.549835000000002
#
# number of rings (size 3 to 8) (size 9 to 14) (size 15 to 20)
#    0.000    2.000    0.000    5.400    0.000    6.000 
#    0.000    1.000    0.000    6.000    0.000    0.000 
#    0.000    0.000    0.000    0.000    0.000    0.000 
#
# Total GULP energy -496134.838290 kJ/mol
# GULP energy per Si atom -12403.370957 kJ/mol
# Density = 1.950534 g / cm^3
# Si number density = 19.549835 Si / 1000 Ang^3
#
#
#
# Elastic Constant Matrix: (Units=GPa)
#
#
# Indices 1 2 3 4 5 6 
#
# 1 154.6530 37.7325 99.9252 0.0000 0.0000 0.0000
# 2 37.7325 73.4615 46.1188 0.0000 0.0000 0.0000
# 3 99.9252 46.1188 164.3433 0.0000 0.0000 0.0000
# 4 0.0000 0.0000 0.0000 21.0833 0.0000 0.0000
# 5 0.0000 0.0000 0.0000 0.0000 67.7268 0.0000
# 6 0.0000 0.0000 0.0000 0.0000 0.0000 25.6525
#
#
#
# Elastic Compliance Matrix: (Units=1/GPa)
#
#
# Indices 1 2 3 4 5 6 
#
# 1 0.010829 -0.001734 -0.006098 0.000000 0.000000 0.000000
# 2 -0.001734 0.016801 -0.003660 0.000000 0.000000 0.000000
# 3 -0.006098 -0.003660 0.010820 0.000000 0.000000 0.000000
# 4 0.000000 0.000000 0.000000 0.047431 0.000000 0.000000
# 5 0.000000 0.000000 0.000000 0.000000 0.014765 0.000000
# 6 0.000000 0.000000 0.000000 0.000000 0.000000 0.038982
#
#
# Mechanical properties :
#
#
# Convention : Reuss Voigt Hill
#
# Bulk Modulus (GPa) = 64.66051 84.44563 74.55307
# Shear Modulus (GPa) = 29.80299 36.80461 33.30380
#
# Velocity S-wave (km/s) = 3.90867 4.34361 4.13187
# Velocity P-wave (km/s) = 7.31552 8.27313 7.80902
#
# Compressibility (1/GPa) = 0.01546539
#
# Stress axis : x y z
#
# Youngs Moduli (GPa) = 92.34386 59.51925 92.42438
#
# Poissons Ratio (x) = 0.10321 0.56358
# Poissons Ratio (y) = 0.16013 0.33832
# Poissons Ratio (z) = 0.56309 0.21787
#
# Static dielectric constant tensor:
#      x y z
#    x 3.663870 0.000000 0.000000 
#    y 0.000000 3.362690 0.000000 
#    z 0.000000 0.000000 3.794940 
# 
# 
# High freq. dielectric constant tensor:
#      x y z
#    x 1.766160 0.000000 0.000000 
#    y 0.000000 1.740780 0.000000 
#    z 0.000000 0.000000 1.778700 
# 
# From -- ./inp_files/43320.got.cif
#   From: 2010.03.12/outbox.cif.g09.slc.cpg/sg67_22_cif.got.tgz:43320.got - 2010.04.10 22:41:39.
