data_PCOD8279473
_publ_section_title
;
Structure prediction by ZEFSAII (Michael W. Deem and Ramdas Pophale) SiO2 
 PCOD8279473
Probable space group: C M M A
;
_chemical_formula_sum "Si O2"
_cell_formula_units_Z 104
_cell_length_a 28.425801
_cell_length_b 20.108595
_cell_length_c 8.911743
_cell_angle_alpha 90.000000
_cell_angle_beta 90.000000
_cell_angle_gamma 90.000000
_cell_volume 5093.978320
_symmetry_space_group_name_H-M "C M M A"
_symmetry_group_IT_number 67
_symmetry_cell_setting 'orthorhombic'
loop_
_space_group_symop_operation_xyz
x,y,z
-x,1/2-y,z
x,-y,-z
-x,1/2+y,-z
-x,-y,-z
x,1/2+y,-z
-x,y,z
x,1/2-y,z
1/2+x,1/2+y,z
1/2-x,-y,z
1/2+x,1/2-y,-z
1/2-x,y,-z
1/2-x,1/2-y,-z
1/2+x,y,-z
1/2-x,1/2+y,z
1/2+x,-y,z
loop_
_atom_site_type_symbol
_atom_site_label
_atom_site_fract_x
_atom_site_fract_y
_atom_site_fract_z
Si Si1 0.074130 0.997363 0.178510
Si Si2 0.446593 0.362462 0.325898
Si Si3 0.447790 0.129074 0.660246
Si Si4 0.109212 0.750000 0.163149
Si Si5 0.556568 0.750000 0.149005
Si Si6 0.277236 0.250000 0.156951
Si Si7 0.820371 0.003611 0.178003
Si Si8 0.248779 0.108724 0.821044
O O1 0.049950 0.930716 0.234544
O O2 0.127278 0.000439 0.238813
O O3 0.048985 0.059794 0.252873
O O4 0.069624 0.000000 0.000000
O O5 0.500000 0.332602 0.324266
O O6 0.426369 0.376604 0.493256
O O7 0.408211 0.314818 0.251232
O O8 0.500000 0.155737 0.634554
O O9 0.423649 0.185620 0.761930
O O10 0.165807 0.750000 0.141327
O O11 0.084066 0.750000 0.004846
O O12 0.500000 0.750000 0.119627
O O13 0.260182 0.183043 0.244836
O O14 0.250000 0.250000 0.000000
O O15 0.792574 0.939411 0.238849
O O16 0.797442 0.073847 0.232668
O O17 0.818894 0.000000 0.000000
O O18 0.250000 0.113410 0.000000
#
# Coordination Sequence:
#
# PCOD8279473 Si02
#       8
#    16  16  16   8   8   8  16  16
#     4  11  21  33  55  87 117 149 195 252 299 342
#     4  11  23  39  58  82 119 163 202 239 289 355
#     4  10  22  39  56  78 114 160 199 235 290 358
#     4  12  23  37  61  92 118 148 198 250 297 349
#     4  10  21  38  59  84 115 150 193 244 295 348
#     4  10  20  31  50  84 118 142 178 240 296 343
#     4   8  15  28  46  71 104 141 178 223 282 340
#     4   8  14  27  45  68 104 143 174 217 282 346
#
# _framework density 20.416263000000001
#
# number of rings (size 3 to 8) (size 9 to 14) (size 15 to 20)
#    0.000    2.154    0.000    4.846    0.000    9.846 
#    0.000    0.000    0.000    0.000    0.000   30.154 
#    0.000    0.000    0.000    0.000    0.000    0.000 
#
# Total GULP energy -644343.453009 kJ/mol
# GULP energy per Si atom -12391.220250 kJ/mol
# Density = 2.036979 g / cm^3
# Si number density = 20.416263 Si / 1000 Ang^3
#
#
#
# Elastic Constant Matrix: (Units=GPa)
#
#
# Indices 1 2 3 4 5 6 
#
# 1 104.2429 29.3023 20.5501 0.0000 0.0000 0.0000
# 2 29.3023 166.2033 42.8749 0.0000 0.0000 0.0000
# 3 20.5501 42.8749 108.5349 0.0000 0.0000 0.0000
# 4 0.0000 0.0000 0.0000 26.3241 0.0000 0.0000
# 5 0.0000 0.0000 0.0000 0.0000 5.0408 0.0000
# 6 0.0000 0.0000 0.0000 0.0000 0.0000 26.0467
#
#
#
# Elastic Compliance Matrix: (Units=1/GPa)
#
#
# Indices 1 2 3 4 5 6 
#
# 1 0.010273 -0.001458 -0.001369 0.000000 0.000000 0.000000
# 2 -0.001458 0.006906 -0.002452 0.000000 0.000000 0.000000
# 3 -0.001369 -0.002452 0.010442 0.000000 0.000000 0.000000
# 4 0.000000 0.000000 0.000000 0.037988 0.000000 0.000000
# 5 0.000000 0.000000 0.000000 0.000000 0.198382 0.000000
# 6 0.000000 0.000000 0.000000 0.000000 0.000000 0.038393
#
#
# Mechanical properties :
#
#
# Convention : Reuss Voigt Hill
#
# Bulk Modulus (GPa) = 58.60931 62.71507 60.66219
# Shear Modulus (GPa) = 15.69222 30.56589 23.12906
#
# Velocity S-wave (km/s) = 2.77540 3.87348 3.36947
# Velocity P-wave (km/s) = 6.24819 7.12671 6.70186
#
# Compressibility (1/GPa) = 0.01706214
#
# Stress axis : x y z
#
# Youngs Moduli (GPa) = 97.34534 144.79426 95.77121
#
# Poissons Ratio (x) = 0.21110 0.13112
# Poissons Ratio (y) = 0.14192 0.23485
# Poissons Ratio (z) = 0.13328 0.35506
#
# Static dielectric constant tensor:
#      x y z
#    x 3.840370 0.000000 0.000000 
#    y 0.000000 4.007220 0.000000 
#    z 0.000000 0.000000 3.404190 
# 
# 
# High freq. dielectric constant tensor:
#      x y z
#    x 1.790170 0.000000 0.000000 
#    y 0.000000 1.814910 0.000000 
#    z 0.000000 0.000000 1.760880 
# 
# From -- ./inp_files/14795.got.cif
#   From: 2010.03.12/outbox.cif.g09.slc.cpg/sg67_8_cif.got.tgz:14795.got - 2010.04.10 22:41:39.
