data_PCOD8279070
_publ_section_title
;
Structure prediction by ZEFSAII (Michael W. Deem and Ramdas Pophale) SiO2 
 PCOD8279070
Probable space group: C M M A
;
_chemical_formula_sum "Si O2"
_cell_formula_units_Z 104
_cell_length_a 22.216156
_cell_length_b 9.846757
_cell_length_c 29.580070
_cell_angle_alpha 90.000000
_cell_angle_beta 90.000000
_cell_angle_gamma 90.000000
_cell_volume 6470.850024
_symmetry_space_group_name_H-M "C M M A"
_symmetry_group_IT_number 67
_symmetry_cell_setting 'orthorhombic'
loop_
_space_group_symop_operation_xyz
x,y,z
-x,1/2-y,z
x,-y,-z
-x,1/2+y,-z
-x,-y,-z
x,1/2+y,-z
-x,y,z
x,1/2-y,z
1/2+x,1/2+y,z
1/2-x,-y,z
1/2+x,1/2-y,-z
1/2-x,y,-z
1/2-x,1/2-y,-z
1/2+x,y,-z
1/2-x,1/2+y,z
1/2+x,-y,z
loop_
_atom_site_type_symbol
_atom_site_label
_atom_site_fract_x
_atom_site_fract_y
_atom_site_fract_z
Si Si1 0.927856 0.402766 0.538926
Si Si2 0.500000 0.400013 0.958911
Si Si3 0.382204 0.519394 0.092205
Si Si4 0.428166 0.402682 0.266979
Si Si5 0.934340 0.910614 0.364163
Si Si6 0.692248 0.750000 0.055188
Si Si7 0.665731 0.750000 0.952400
Si Si8 0.071041 0.090544 0.185645
O O1 0.901591 0.500000 0.500000
O O2 0.906198 0.250000 0.528065
O O3 0.902155 0.452795 0.588351
O O4 0.000000 0.408633 0.540658
O O5 0.500000 0.250000 0.979779
O O6 0.442158 0.417634 0.928172
O O7 0.500000 0.500000 0.000000
O O8 0.326082 0.615776 0.081848
O O9 0.367864 0.375530 0.070274
O O10 0.392481 0.514699 0.145887
O O11 0.500000 0.401434 0.270575
O O12 0.406160 0.250000 0.253614
O O13 0.401108 0.446857 0.316529
O O14 0.406566 0.514078 0.230786
O O15 0.942733 0.750000 0.365837
O O16 0.000000 0.980892 0.363270
O O17 0.763595 0.750000 0.055390
O O18 0.658518 0.750000 0.006533
O O19 0.087611 0.250000 0.188313
O O20 0.000000 0.070667 0.178168
#
# Coordination Sequence:
#
# PCOD8279070 Si02
#       8
#    16   8  16  16  16   8   8  16
#     4   8  12  17  25  37  56  83 116 159 209 256
#     4  12  24  38  56  78 106 134 154 184 233 284
#     4  12  23  38  57  78 104 128 154 189 233 280
#     4   8  14  24  40  57  75 101 138 178 213 262
#     4   7  10  18  30  44  62  89 124 163 211 258
#     4  11  22  45  61  75 101 128 157 191 230 271
#     4  11  26  39  61  83  95 124 165 197 220 263
#     4  10  19  33  46  64  93 124 145 172 227 282
#
# _framework density 16.072077
#
# number of rings (size 3 to 8) (size 9 to 14) (size 15 to 20)
#    0.000    2.462    2.308    3.692    2.154    1.231 
#    0.000    0.769    0.000    4.615    0.000    0.000 
#    0.000    0.000    0.000    0.000    0.000    0.000 
#
# Total GULP energy -644212.090506 kJ/mol
# GULP energy per Si atom -12388.694048 kJ/mol
# Density = 1.603550 g / cm^3
# Si number density = 16.072077 Si / 1000 Ang^3
#
#
#
# Elastic Constant Matrix: (Units=GPa)
#
#
# Indices 1 2 3 4 5 6 
#
# 1 25.6562 15.3229 17.1758 0.0000 0.0000 0.0000
# 2 15.3229 89.4864 53.6382 0.0000 0.0000 0.0000
# 3 17.1758 53.6382 155.7611 0.0000 0.0000 0.0000
# 4 0.0000 0.0000 0.0000 33.8931 0.0000 0.0000
# 5 0.0000 0.0000 0.0000 0.0000 4.4246 0.0000
# 6 0.0000 0.0000 0.0000 0.0000 0.0000 63.9708
#
#
#
# Elastic Compliance Matrix: (Units=1/GPa)
#
#
# Indices 1 2 3 4 5 6 
#
# 1 0.044413 -0.005884 -0.002871 0.000000 0.000000 0.000000
# 2 -0.005884 0.014861 -0.004469 0.000000 0.000000 0.000000
# 3 -0.002871 -0.004469 0.008276 0.000000 0.000000 0.000000
# 4 0.000000 0.000000 0.000000 0.029505 0.000000 0.000000
# 5 0.000000 0.000000 0.000000 0.000000 0.226008 0.000000
# 6 0.000000 0.000000 0.000000 0.000000 0.000000 0.015632
#
#
# Mechanical properties :
#
#
# Convention : Reuss Voigt Hill
#
# Bulk Modulus (GPa) = 24.32977 49.24196 36.78586
# Shear Modulus (GPa) = 13.19808 32.77550 22.98679
#
# Velocity S-wave (km/s) = 2.86873 4.52074 3.78594
# Velocity P-wave (km/s) = 5.11308 7.61276 6.48451
#
# Compressibility (1/GPa) = 0.04110192
#
# Stress axis : x y z
#
# Youngs Moduli (GPa) = 22.51584 67.29049 120.83774
#
# Poissons Ratio (x) = 0.39593 0.34696
# Poissons Ratio (y) = 0.13248 0.53999
# Poissons Ratio (z) = 0.06465 0.30070
#
# Static dielectric constant tensor:
#      x y z
#    x 2.520840 0.000000 0.000000 
#    y 0.000000 2.959770 0.000000 
#    z 0.000000 0.000000 3.599010 
# 
# 
# High freq. dielectric constant tensor:
#      x y z
#    x 1.545670 0.000000 0.000000 
#    y 0.000000 1.612920 0.000000 
#    z 0.000000 0.000000 1.634500 
# 
# From -- ./inp_files/45995.got.cif
#   From: 2010.03.12/outbox.cif.g09.slc.cpg/sg67_23_cif.got.tgz:45995.got - 2010.04.10 22:41:39.
