data_PCOD8279770
_publ_section_title
;
Structure prediction by ZEFSAII (Michael W. Deem and Ramdas Pophale) SiO2 
 PCOD8279770
Probable space group: C M M A
;
_chemical_formula_sum "Si O2"
_cell_formula_units_Z 88
_cell_length_a 21.250024
_cell_length_b 16.568459
_cell_length_c 14.203706
_cell_angle_alpha 90.000000
_cell_angle_beta 90.000000
_cell_angle_gamma 90.000000
_cell_volume 5000.842959
_symmetry_space_group_name_H-M "C M M A"
_symmetry_group_IT_number 67
_symmetry_cell_setting 'orthorhombic'
loop_
_space_group_symop_operation_xyz
x,y,z
-x,1/2-y,z
x,-y,-z
-x,1/2+y,-z
-x,-y,-z
x,1/2+y,-z
-x,y,z
x,1/2-y,z
1/2+x,1/2+y,z
1/2-x,-y,z
1/2+x,1/2-y,-z
1/2-x,y,-z
1/2-x,1/2-y,-z
1/2+x,y,-z
1/2-x,1/2+y,z
1/2+x,-y,z
loop_
_atom_site_type_symbol
_atom_site_label
_atom_site_fract_x
_atom_site_fract_y
_atom_site_fract_z
Si Si1 0.000000 0.657594 0.957469
Si Si2 0.235994 0.338995 0.609520
Si Si3 0.186638 0.551690 0.731876
Si Si4 0.618576 0.549665 0.595989
Si Si5 0.500000 0.346228 0.358851
Si Si6 0.103403 0.963623 0.900841
Si Si7 0.500000 0.587026 0.844891
O O1 0.061945 0.615755 0.916327
O O2 0.000000 0.750000 0.925934
O O3 0.000000 0.650078 0.069892
O O4 0.218487 0.250000 0.645310
O O5 0.250000 0.338677 0.500000
O O6 0.295044 0.367791 0.673586
O O7 0.177337 0.395779 0.621242
O O8 0.250000 0.500000 0.733888
O O9 0.124494 0.515173 0.679950
O O10 0.163391 0.564524 0.839001
O O11 0.624104 0.500000 0.500000
O O12 0.558536 0.607513 0.594660
O O13 0.500000 0.250000 0.382961
O O14 0.500000 0.358091 0.247496
O O15 0.062120 0.031876 0.848638
O O16 0.127648 0.000000 0.000000
#
# Coordination Sequence:
#
# PCOD8279770 Si02
#       7
#     8  16  16  16   8  16   8
#     4   9  18  32  55  79 106 140 181 226 275 330
#     4  10  20  35  56  81 109 142 186 232 269 320
#     4  10  20  33  57  80 103 144 184 220 265 325
#     4  11  21  37  55  77 107 144 185 219 269 330
#     4  12  23  34  55  81 111 140 176 236 286 317
#     4   9  18  34  55  78 109 141 181 224 270 333
#     4   9  17  34  53  78 102 140 186 226 265 323
#
# _framework density 17.597034000000001
#
# number of rings (size 3 to 8) (size 9 to 14) (size 15 to 20)
#    0.000    2.000    3.636    2.182    0.000    1.091 
#    0.000    0.000    0.000    1.091    0.000    5.091 
#    0.000    0.000    0.000    0.000    0.000    0.000 
#
# Total GULP energy -545155.297016 kJ/mol
# GULP energy per Si atom -12389.893114 kJ/mol
# Density = 1.755698 g / cm^3
# Si number density = 17.597034 Si / 1000 Ang^3
#
#
#
# Elastic Constant Matrix: (Units=GPa)
#
#
# Indices 1 2 3 4 5 6 
#
# 1 81.7982 40.5435 43.5444 0.0000 0.0000 0.0000
# 2 40.5435 115.8824 44.4898 0.0000 0.0000 0.0000
# 3 43.5444 44.4898 102.8327 0.0000 0.0000 0.0000
# 4 0.0000 0.0000 0.0000 29.6170 0.0000 0.0000
# 5 0.0000 0.0000 0.0000 0.0000 15.4412 0.0000
# 6 0.0000 0.0000 0.0000 0.0000 0.0000 16.2650
#
#
#
# Elastic Compliance Matrix: (Units=1/GPa)
#
#
# Indices 1 2 3 4 5 6 
#
# 1 0.017099 -0.003840 -0.005579 0.000000 0.000000 0.000000
# 2 -0.003840 0.011211 -0.003224 0.000000 0.000000 0.000000
# 3 -0.005579 -0.003224 0.013482 0.000000 0.000000 0.000000
# 4 0.000000 0.000000 0.000000 0.033764 0.000000 0.000000
# 5 0.000000 0.000000 0.000000 0.000000 0.064762 0.000000
# 6 0.000000 0.000000 0.000000 0.000000 0.000000 0.061482
#
#
# Mechanical properties :
#
#
# Convention : Reuss Voigt Hill
#
# Bulk Modulus (GPa) = 60.58942 61.96320 61.27631
# Shear Modulus (GPa) = 21.49731 23.72702 22.61216
#
# Velocity S-wave (km/s) = 3.49899 3.67598 3.58858
# Velocity P-wave (km/s) = 7.12954 7.30108 7.21582
#
# Compressibility (1/GPa) = 0.01650453
#
# Stress axis : x y z
#
# Youngs Moduli (GPa) = 58.48447 89.19922 74.17424
#
# Poissons Ratio (x) = 0.34256 0.41381
# Poissons Ratio (y) = 0.22460 0.23914
# Poissons Ratio (z) = 0.32628 0.28759
#
# Static dielectric constant tensor:
#      x y z
#    x 3.156510 0.000000 0.000000 
#    y 0.000000 3.382460 0.000000 
#    z 0.000000 0.000000 3.285410 
# 
# 
# High freq. dielectric constant tensor:
#      x y z
#    x 1.670970 0.000000 0.000000 
#    y 0.000000 1.674620 0.000000 
#    z 0.000000 0.000000 1.683140 
# 
# From -- ./inp_files/29197.got.cif
#   From: 2010.03.12/outbox.cif.g09.slc.cpg/sg67_15_cif.got.tgz:29197.got - 2010.04.10 22:41:39.
