data_PCOD8279336
_publ_section_title
;
Structure prediction by ZEFSAII (Michael W. Deem and Ramdas Pophale) SiO2 
 PCOD8279336
Probable space group: C M M A
;
_chemical_formula_sum "Si O2"
_cell_formula_units_Z 104
_cell_length_a 26.587203
_cell_length_b 9.142039
_cell_length_c 24.026498
_cell_angle_alpha 90.000000
_cell_angle_beta 90.000000
_cell_angle_gamma 90.000000
_cell_volume 5839.910558
_symmetry_space_group_name_H-M "C M M A"
_symmetry_group_IT_number 67
_symmetry_cell_setting 'orthorhombic'
loop_
_space_group_symop_operation_xyz
x,y,z
-x,1/2-y,z
x,-y,-z
-x,1/2+y,-z
-x,-y,-z
x,1/2+y,-z
-x,y,z
x,1/2-y,z
1/2+x,1/2+y,z
1/2-x,-y,z
1/2+x,1/2-y,-z
1/2-x,y,-z
1/2-x,1/2-y,-z
1/2+x,y,-z
1/2-x,1/2+y,z
1/2+x,-y,z
loop_
_atom_site_type_symbol
_atom_site_label
_atom_site_fract_x
_atom_site_fract_y
_atom_site_fract_z
Si Si1 0.798626 0.579758 0.723489
Si Si2 0.943037 0.585230 0.239552
Si Si3 0.298165 0.418030 0.850783
Si Si4 0.441738 0.920810 0.557577
Si Si5 0.599713 0.923127 0.338106
Si Si6 0.500000 0.577833 0.058527
Si Si7 0.092262 0.419964 0.135231
O O1 0.788387 0.750000 0.720464
O O2 0.750000 0.500000 0.698351
O O3 0.807804 0.529745 0.787268
O O4 0.845624 0.535724 0.685530
O O5 0.923216 0.750000 0.250437
O O6 0.940604 0.490766 0.295685
O O7 0.910971 0.510957 0.191454
O O8 0.000000 0.587921 0.218774
O O9 0.283347 0.250000 0.852381
O O10 0.250000 0.500000 0.877472
O O11 0.350043 0.445603 0.885760
O O12 0.500000 0.941598 0.574033
O O13 0.427840 0.750000 0.553122
O O14 0.429624 0.000000 0.500000
O O15 0.406852 0.999512 0.602766
O O16 0.591071 0.750000 0.343623
O O17 0.500000 0.750000 0.048751
O O18 0.449268 0.528063 0.090636
O O19 0.500000 0.500000 0.000000
O O20 0.083531 0.250000 0.150273
#
# Coordination Sequence:
#
# PCOD8279336 Si02
#       7
#    16  16  16  16  16   8  16
#     4   9  18  31  48  72 103 137 171 211 256 313
#     4  11  22  32  46  75 110 140 171 215 265 314
#     4   9  17  31  50  76 107 139 179 218 262 321
#     4  10  21  37  55  76 102 134 175 219 263 313
#     4  11  21  34  52  75 104 140 177 213 261 320
#     4  10  22  38  60  82 108 146 185 226 269 318
#     4  10  19  35  56  77 105 144 181 216 265 322
#
# _framework density 17.808492999999999
#
# number of rings (size 3 to 8) (size 9 to 14) (size 15 to 20)
#    0.000    2.000    2.308    1.846    0.000    6.154 
#    0.000    0.000    0.000    0.923    0.000    6.462 
#    0.000    0.000    0.000    0.000    0.000    0.000 
#
# Total GULP energy -644710.461505 kJ/mol
# GULP energy per Si atom -12398.278106 kJ/mol
# Density = 1.776796 g / cm^3
# Si number density = 17.808493 Si / 1000 Ang^3
#
#
#
# Elastic Constant Matrix: (Units=GPa)
#
#
# Indices 1 2 3 4 5 6 
#
# 1 125.4435 45.3328 42.5780 0.0000 0.0000 0.0000
# 2 45.3328 76.9501 36.7403 0.0000 0.0000 0.0000
# 3 42.5780 36.7403 76.3756 0.0000 0.0000 0.0000
# 4 0.0000 0.0000 0.0000 29.4393 0.0000 0.0000
# 5 0.0000 0.0000 0.0000 0.0000 16.0004 0.0000
# 6 0.0000 0.0000 0.0000 0.0000 0.0000 29.4507
#
#
#
# Elastic Compliance Matrix: (Units=1/GPa)
#
#
# Indices 1 2 3 4 5 6 
#
# 1 0.010954 -0.004592 -0.003898 0.000000 0.000000 0.000000
# 2 -0.004592 0.018795 -0.006481 0.000000 0.000000 0.000000
# 3 -0.003898 -0.006481 0.018384 0.000000 0.000000 0.000000
# 4 0.000000 0.000000 0.000000 0.033968 0.000000 0.000000
# 5 0.000000 0.000000 0.000000 0.000000 0.062498 0.000000
# 6 0.000000 0.000000 0.000000 0.000000 0.000000 0.033955
#
#
# Mechanical properties :
#
#
# Convention : Reuss Voigt Hill
#
# Bulk Modulus (GPa) = 54.97269 58.67460 56.82364
# Shear Modulus (GPa) = 23.30333 25.25263 24.27798
#
# Velocity S-wave (km/s) = 3.62132 3.76973 3.69627
# Velocity P-wave (km/s) = 6.95852 7.20881 7.08477
#
# Compressibility (1/GPa) = 0.01819085
#
# Stress axis : x y z
#
# Youngs Moduli (GPa) = 91.28875 53.20429 54.39543
#
# Poissons Ratio (x) = 0.24434 0.21201
# Poissons Ratio (y) = 0.41924 0.35256
# Poissons Ratio (z) = 0.35581 0.34484
#
# Static dielectric constant tensor:
#      x y z
#    x 3.452710 0.000000 0.000000 
#    y 0.000000 3.357700 0.000000 
#    z 0.000000 0.000000 3.018900 
# 
# 
# High freq. dielectric constant tensor:
#      x y z
#    x 1.693060 0.000000 0.000000 
#    y 0.000000 1.696170 0.000000 
#    z 0.000000 0.000000 1.653960 
# 
# From -- ./inp_files/37294.got.cif
#   From: 2010.03.12/outbox.cif.g09.slc.cpg/sg67_19_cif.got.tgz:37294.got - 2010.04.10 22:41:39.
