data_PCOD8279746
_publ_section_title
;
Structure prediction by ZEFSAII (Michael W. Deem and Ramdas Pophale) SiO2 
 PCOD8279746
Probable space group: C M M A
;
_chemical_formula_sum "Si O2"
_cell_formula_units_Z 112
_cell_length_a 31.597959
_cell_length_b 14.594295
_cell_length_c 11.779662
_cell_angle_alpha 90.000000
_cell_angle_beta 90.000000
_cell_angle_gamma 90.000000
_cell_volume 5432.190366
_symmetry_space_group_name_H-M "C M M A"
_symmetry_group_IT_number 67
_symmetry_cell_setting 'orthorhombic'
loop_
_space_group_symop_operation_xyz
x,y,z
-x,1/2-y,z
x,-y,-z
-x,1/2+y,-z
-x,-y,-z
x,1/2+y,-z
-x,y,z
x,1/2-y,z
1/2+x,1/2+y,z
1/2-x,-y,z
1/2+x,1/2-y,-z
1/2-x,y,-z
1/2-x,1/2-y,-z
1/2+x,y,-z
1/2-x,1/2+y,z
1/2+x,-y,z
loop_
_atom_site_type_symbol
_atom_site_label
_atom_site_fract_x
_atom_site_fract_y
_atom_site_fract_z
Si Si1 0.779159 0.860395 0.724524
Si Si2 0.150767 0.094904 0.443062
Si Si3 0.833054 0.851976 0.921408
Si Si4 0.624979 0.359393 0.144536
Si Si5 0.313024 0.351365 0.329224
Si Si6 0.090999 0.648690 0.746333
Si Si7 0.952419 0.484213 0.866566
O O1 0.785485 0.750000 0.705741
O O2 0.811401 0.917349 0.646295
O O3 0.790379 0.887167 0.856652
O O4 0.732941 0.897707 0.688479
O O5 0.170026 0.157727 0.542807
O O6 0.108397 0.133076 0.382344
O O7 0.138296 0.000000 0.500000
O O8 0.823489 0.750000 0.964095
O O9 0.869195 0.854690 0.828005
O O10 0.850255 0.902517 0.034647
O O11 0.618964 0.250000 0.138676
O O12 0.651620 0.398484 0.250672
O O13 0.578731 0.401284 0.162587
O O14 0.306723 0.250000 0.279554
O O15 0.069799 0.750000 0.750575
O O16 0.057594 0.573997 0.790428
O O17 0.000000 0.454139 0.835206
O O18 0.948335 0.500000 0.000000
#
# Coordination Sequence:
#
# PCOD8279746 Si02
#       7
#    16  16  16  16  16  16  16
#     4   9  18  32  51  78 113 155 206 255 294 344
#     4  11  21  34  55  80 115 156 202 255 299 347
#     4   8  15  30  52  78 110 155 200 238 293 355
#     4  10  20  36  57  83 122 162 197 242 300 373
#     4  10  20  33  52  80 113 154 204 248 292 350
#     4  10  20  38  62  86 117 158 200 245 303 370
#     4  11  23  38  61  92 120 145 185 247 313 376
#
# _framework density 20.617833999999998
#
# number of rings (size 3 to 8) (size 9 to 14) (size 15 to 20)
#    0.000    2.143    1.429    3.429    0.000    3.429 
#    0.000    4.286    0.000    3.857    0.000    4.000 
#    0.000    0.000    0.000    0.000    0.000    0.000 
#
# Total GULP energy -693767.719057 kJ/mol
# GULP energy per Si atom -12388.709269 kJ/mol
# Density = 2.057091 g / cm^3
# Si number density = 20.617834 Si / 1000 Ang^3
#
#
#
# Elastic Constant Matrix: (Units=GPa)
#
#
# Indices 1 2 3 4 5 6 
#
# 1 110.1585 25.3184 69.7183 0.0000 0.0000 0.0000
# 2 25.3184 51.1739 28.8577 0.0000 0.0000 0.0000
# 3 69.7183 28.8577 120.8137 0.0000 0.0000 0.0000
# 4 0.0000 0.0000 0.0000 25.6271 0.0000 0.0000
# 5 0.0000 0.0000 0.0000 0.0000 18.0664 0.0000
# 6 0.0000 0.0000 0.0000 0.0000 0.0000 -24.6627
#
#
#
# Elastic Compliance Matrix: (Units=1/GPa)
#
#
# Indices 1 2 3 4 5 6 
#
# 1 0.014656 -0.002868 -0.007773 0.000000 0.000000 0.000000
# 2 -0.002868 0.023144 -0.003873 0.000000 0.000000 0.000000
# 3 -0.007773 -0.003873 0.013688 0.000000 0.000000 0.000000
# 4 0.000000 0.000000 0.000000 0.039021 0.000000 0.000000
# 5 0.000000 0.000000 0.000000 0.000000 0.055351 0.000000
# 6 0.000000 0.000000 0.000000 0.000000 0.000000 -0.040547
#
#
# Mechanical properties :
#
#
# Convention : Reuss Voigt Hill
#
# Bulk Modulus (GPa) = 44.52265 58.88165 51.70215
# Shear Modulus (GPa) = 35.25382 14.35627 24.80504
#
# Velocity S-wave (km/s) = 4.13954 2.64162 3.47232
# Velocity P-wave (km/s) = 6.67000 6.15831 6.41926
#
# Compressibility (1/GPa) = 0.02246048
#
# Stress axis : x y z
#
# Youngs Moduli (GPa) = 68.23018 43.20710 73.05804
#
# Poissons Ratio (x) = 0.12392 0.56786
# Poissons Ratio (y) = 0.19569 0.28297
# Poissons Ratio (z) = 0.53033 0.16735
#
# Static dielectric constant tensor:
#      x y z
#    x 3.649360 0.000000 0.000000 
#    y 0.000000 3.634620 0.000000 
#    z 0.000000 0.000000 4.000760 
# 
# 
# High freq. dielectric constant tensor:
#      x y z
#    x 1.777740 0.000000 0.000000 
#    y 0.000000 1.799180 0.000000 
#    z 0.000000 0.000000 1.809520 
# 
# From -- ./inp_files/23862.got.cif
#   From: 2010.03.12/outbox.cif.g09.slc.cpg/sg67_12_cif.got.tgz:23862.got - 2010.04.10 22:41:39.
