data_PCOD8279386
_publ_section_title
;
Structure prediction by ZEFSAII (Michael W. Deem and Ramdas Pophale) SiO2 
 PCOD8279386
Probable space group: C M M A
;
_chemical_formula_sum "Si O2"
_cell_formula_units_Z 80
_cell_length_a 23.548774
_cell_length_b 9.227422
_cell_length_c 20.269032
_cell_angle_alpha 90.000000
_cell_angle_beta 90.000000
_cell_angle_gamma 90.000000
_cell_volume 4404.348673
_symmetry_space_group_name_H-M "C M M A"
_symmetry_group_IT_number 67
_symmetry_cell_setting 'orthorhombic'
loop_
_space_group_symop_operation_xyz
x,y,z
-x,1/2-y,z
x,-y,-z
-x,1/2+y,-z
-x,-y,-z
x,1/2+y,-z
-x,y,z
x,1/2-y,z
1/2+x,1/2+y,z
1/2-x,-y,z
1/2+x,1/2-y,-z
1/2-x,y,-z
1/2-x,1/2-y,-z
1/2+x,y,-z
1/2-x,1/2+y,z
1/2+x,-y,z
loop_
_atom_site_type_symbol
_atom_site_label
_atom_site_fract_x
_atom_site_fract_y
_atom_site_fract_z
Si Si1 0.384237 0.576971 0.936974
Si Si2 0.895862 0.082159 0.703957
Si Si3 0.935006 0.417651 0.564044
Si Si4 0.191559 0.917846 0.188164
Si Si5 0.500000 0.409177 0.758064
Si Si6 0.000000 0.586469 0.912271
O O1 0.388029 0.750000 0.946063
O O2 0.349933 0.535137 0.871065
O O3 0.446204 0.506459 0.934407
O O4 0.353501 0.500000 0.000000
O O5 0.911647 0.250000 0.713920
O O6 0.894133 0.044468 0.625928
O O7 0.836969 0.045070 0.740813
O O8 0.944351 0.992195 0.737744
O O9 0.911622 0.500000 0.500000
O O10 0.932567 0.250000 0.546624
O O11 0.000000 0.464400 0.581001
O O12 0.205839 0.750000 0.182914
O O13 0.250000 0.000000 0.182071
O O14 0.500000 0.250000 0.725043
O O15 0.500000 0.394612 0.835198
O O16 0.000000 0.750000 0.943628
#
# Coordination Sequence:
#
# PCOD8279386 Si02
#       6
#    16  16  16  16   8   8
#     4  11  23  39  59  82 110 146 180 220 272 329
#     4  10  19  36  57  78 108 148 184 217 268 329
#     4   9  17  29  49  77 112 147 176 214 258 316
#     4  10  23  40  60  80 103 139 185 231 275 321
#     4  11  21  30  51  86 113 139 175 226 273 314
#     4  11  22  36  55  84 117 145 176 220 270 326
#
# _framework density 18.163867
#
# number of rings (size 3 to 8) (size 9 to 14) (size 15 to 20)
#    0.000    1.800    3.000    1.500    0.000    4.400 
#    0.000    2.000    0.000    0.600    0.000    4.200 
#    0.000    0.000    0.000    0.000    0.000    0.000 
#
# Total GULP energy -495890.344365 kJ/mol
# GULP energy per Si atom -12397.258609 kJ/mol
# Density = 1.812253 g / cm^3
# Si number density = 18.163867 Si / 1000 Ang^3
#
#
#
# Elastic Constant Matrix: (Units=GPa)
#
#
# Indices 1 2 3 4 5 6 
#
# 1 100.6561 51.9779 56.0892 0.0000 0.0000 0.0000
# 2 51.9779 79.1386 55.7922 0.0000 0.0000 0.0000
# 3 56.0892 55.7922 146.2254 0.0000 0.0000 0.0000
# 4 0.0000 0.0000 0.0000 32.3222 0.0000 0.0000
# 5 0.0000 0.0000 0.0000 0.0000 9.6747 0.0000
# 6 0.0000 0.0000 0.0000 0.0000 0.0000 82.0862
#
#
#
# Elastic Compliance Matrix: (Units=1/GPa)
#
#
# Indices 1 2 3 4 5 6 
#
# 1 0.015878 -0.008392 -0.002888 0.000000 0.000000 0.000000
# 2 -0.008392 0.021721 -0.005069 0.000000 0.000000 0.000000
# 3 -0.002888 -0.005069 0.009881 0.000000 0.000000 0.000000
# 4 0.000000 0.000000 0.000000 0.030938 0.000000 0.000000
# 5 0.000000 0.000000 0.000000 0.000000 0.103363 0.000000
# 6 0.000000 0.000000 0.000000 0.000000 0.000000 0.012182
#
#
# Mechanical properties :
#
#
# Convention : Reuss Voigt Hill
#
# Bulk Modulus (GPa) = 67.65291 72.63764 70.14528
# Shear Modulus (GPa) = 21.58990 35.62733 28.60862
#
# Velocity S-wave (km/s) = 3.45137 4.43362 3.97297
# Velocity P-wave (km/s) = 7.29448 8.14164 7.72967
#
# Compressibility (1/GPa) = 0.01478133
#
# Stress axis : x y z
#
# Youngs Moduli (GPa) = 62.97988 46.03737 101.20781
#
# Poissons Ratio (x) = 0.38636 0.29233
# Poissons Ratio (y) = 0.52855 0.51299
# Poissons Ratio (z) = 0.18191 0.23335
#
# Static dielectric constant tensor:
#      x y z
#    x 3.003820 0.000000 0.000000 
#    y 0.000000 3.513350 0.000000 
#    z 0.000000 0.000000 3.710420 
# 
# 
# High freq. dielectric constant tensor:
#      x y z
#    x 1.669630 0.000000 0.000000 
#    y 0.000000 1.711030 0.000000 
#    z 0.000000 0.000000 1.719480 
# 
# From -- ./inp_files/39504.got.cif
#   From: 2010.03.12/outbox.cif.g09.slc.cpg/sg67_20_cif.got.tgz:39504.got - 2010.04.10 22:41:39.
