data_PCOD8279853
_publ_section_title
;
Structure prediction by ZEFSAII (Michael W. Deem and Ramdas Pophale) SiO2 
 PCOD8279853
Probable space group: C M M A
;
_chemical_formula_sum "Si O2"
_cell_formula_units_Z 60
_cell_length_a 10.804609
_cell_length_b 9.272523
_cell_length_c 31.628729
_cell_angle_alpha 90.000000
_cell_angle_beta 90.000000
_cell_angle_gamma 90.000000
_cell_volume 3168.755384
_symmetry_space_group_name_H-M "C M M A"
_symmetry_group_IT_number 67
_symmetry_cell_setting 'orthorhombic'
loop_
_space_group_symop_operation_xyz
x,y,z
-x,1/2-y,z
x,-y,-z
-x,1/2+y,-z
-x,-y,-z
x,1/2+y,-z
-x,y,z
x,1/2-y,z
1/2+x,1/2+y,z
1/2-x,-y,z
1/2+x,1/2-y,-z
1/2-x,y,-z
1/2-x,1/2-y,-z
1/2+x,y,-z
1/2-x,1/2+y,z
1/2+x,-y,z
loop_
_atom_site_type_symbol
_atom_site_label
_atom_site_fract_x
_atom_site_fract_y
_atom_site_fract_z
Si Si1 0.642160 0.750000 0.054647
Si Si2 0.250000 0.000000 0.798455
Si Si3 0.142167 0.250000 0.146898
Si Si4 0.147984 0.750000 0.350114
Si Si5 0.750000 0.500000 0.406050
Si Si6 0.750000 0.500000 0.000000
Si Si7 0.358457 0.250000 0.256182
Si Si8 0.500000 0.082300 0.543710
O O1 0.500000 0.750000 0.063908
O O2 0.710802 0.750000 0.100771
O O3 0.669378 0.603850 0.029365
O O4 0.330602 0.103902 0.827807
O O5 0.168795 0.103887 0.769236
O O6 0.000000 0.250000 0.137635
O O7 0.203584 0.882116 0.374332
O O8 0.204767 0.750000 0.302369
O O9 0.000000 0.750000 0.351784
O O10 0.629238 0.544975 0.433044
O O11 0.500000 0.250000 0.266502
O O12 0.500000 0.250000 0.533658
O O13 0.500000 0.000000 0.500000
#
# Coordination Sequence:
#
# PCOD8279853 Si02
#       8
#     8   8   8   8   8   4   8   8
#     4  10  20  34  52  77 105 145 185 234 286 339
#     4  10  20  36  56  82 112 148 186 234 280 346
#     4  10  20  34  55  79 110 144 187 233 287 336
#     4  11  23  40  65  91 122 160 196 246 292 350
#     4  12  24  44  66  94 126 160 202 246 294 348
#     4  10  20  34  52  74 108 142 188 234 280 342
#     4  10  21  37  58  86 116 149 190 230 290 341
#     4  12  28  44  68  96 126 162 204 246 296 350
#
# _framework density 18.934878999999999
#
# number of rings (size 3 to 8) (size 9 to 14) (size 15 to 20)
#    0.000    1.333    2.667    3.200    1.867    1.067 
#    0.000    0.000    2.933   12.800    0.000    0.000 
#    0.000    0.000    0.000    0.000    0.000    0.000 
#
# Total GULP energy -371671.624376 kJ/mol
# GULP energy per Si atom -12389.054146 kJ/mol
# Density = 1.889178 g / cm^3
# Si number density = 18.934879 Si / 1000 Ang^3
#
#
#
# Elastic Constant Matrix: (Units=GPa)
#
#
# Indices 1 2 3 4 5 6 
#
# 1 98.3929 46.6226 58.8362 0.0000 0.0000 0.0000
# 2 46.6226 178.6220 95.8438 0.0000 0.0000 0.0000
# 3 58.8362 95.8438 187.6492 0.0000 0.0000 0.0000
# 4 0.0000 0.0000 0.0000 15.3427 0.0000 0.0000
# 5 0.0000 0.0000 0.0000 0.0000 28.5451 0.0000
# 6 0.0000 0.0000 0.0000 0.0000 0.0000 20.9395
#
#
#
# Elastic Compliance Matrix: (Units=1/GPa)
#
#
# Indices 1 2 3 4 5 6 
#
# 1 0.012849 -0.001642 -0.003190 0.000000 0.000000 0.000000
# 2 -0.001642 0.007922 -0.003531 0.000000 0.000000 0.000000
# 3 -0.003190 -0.003531 0.008133 0.000000 0.000000 0.000000
# 4 0.000000 0.000000 0.000000 0.065178 0.000000 0.000000
# 5 0.000000 0.000000 0.000000 0.000000 0.035032 0.000000
# 6 0.000000 0.000000 0.000000 0.000000 0.000000 0.047757
#
#
# Mechanical properties :
#
#
# Convention : Reuss Voigt Hill
#
# Bulk Modulus (GPa) = 82.12218 96.36328 89.24273
# Shear Modulus (GPa) = 25.29647 30.52289 27.90968
#
# Velocity S-wave (km/s) = 3.65906 4.01932 3.84341
# Velocity P-wave (km/s) = 7.83049 8.51718 8.18104
#
# Compressibility (1/GPa) = 0.01217698
#
# Stress axis : x y z
#
# Youngs Moduli (GPa) = 77.82743 126.23380 122.95680
#
# Poissons Ratio (x) = 0.20728 0.39223
# Poissons Ratio (y) = 0.12780 0.43420
# Poissons Ratio (z) = 0.24827 0.44577
#
# Static dielectric constant tensor:
#      x y z
#    x 3.595630 0.000000 0.000000 
#    y 0.000000 4.284010 0.000000 
#    z 0.000000 0.000000 3.809450 
# 
# 
# High freq. dielectric constant tensor:
#      x y z
#    x 1.730530 0.000000 0.000000 
#    y 0.000000 1.755310 0.000000 
#    z 0.000000 0.000000 1.762620 
# 
# From -- ./inp_files/45472.got.cif
#   From: 2010.03.12/outbox.cif.g09.slc.cpg/sg67_23_cif.got.tgz:45472.got - 2010.04.10 22:41:39.
