data_PCOD8279987
_publ_section_title
;
Structure prediction by ZEFSAII (Michael W. Deem and Ramdas Pophale) SiO2 
 PCOD8279987
Probable space group: C M M A
;
_chemical_formula_sum "Si O2"
_cell_formula_units_Z 112
_cell_length_a 28.504201
_cell_length_b 17.373627
_cell_length_c 12.044992
_cell_angle_alpha 90.000000
_cell_angle_beta 90.000000
_cell_angle_gamma 90.000000
_cell_volume 5964.937273
_symmetry_space_group_name_H-M "C M M A"
_symmetry_group_IT_number 67
_symmetry_cell_setting 'orthorhombic'
loop_
_space_group_symop_operation_xyz
x,y,z
-x,1/2-y,z
x,-y,-z
-x,1/2+y,-z
-x,-y,-z
x,1/2+y,-z
-x,y,z
x,1/2-y,z
1/2+x,1/2+y,z
1/2-x,-y,z
1/2+x,1/2-y,-z
1/2-x,y,-z
1/2-x,1/2-y,-z
1/2+x,y,-z
1/2-x,1/2+y,z
1/2+x,-y,z
loop_
_atom_site_type_symbol
_atom_site_label
_atom_site_fract_x
_atom_site_fract_y
_atom_site_fract_z
Si Si1 0.329846 0.405319 0.828694
Si Si2 0.052874 0.457063 0.383714
Si Si3 0.734557 0.836927 0.812101
Si Si4 0.613909 0.052306 0.229258
Si Si5 0.366142 0.836911 0.389238
Si Si6 0.138988 0.838683 0.053427
Si Si7 0.669091 0.837737 0.622317
O O1 0.274018 0.397855 0.850728
O O2 0.344944 0.492945 0.807405
O O3 0.337661 0.353092 0.721337
O O4 0.360037 0.370319 0.928989
O O5 0.055576 0.500000 0.500000
O O6 0.068579 0.508309 0.277044
O O7 0.086254 0.384410 0.394886
O O8 0.000000 0.429840 0.358960
O O9 0.754156 0.750000 0.827430
O O10 0.689622 0.848754 0.890094
O O11 0.719146 0.851585 0.683391
O O12 0.602651 0.107843 0.123946
O O13 0.630721 0.104435 0.330554
O O14 0.383377 0.750000 0.392837
O O15 0.329806 0.853784 0.490572
O O16 0.122272 0.750000 0.054576
O O17 0.653139 0.750000 0.648447
#
# Coordination Sequence:
#
# PCOD8279987 Si02
#       7
#    16  16  16  16  16  16  16
#     4  11  21  31  51  79 108 141 188 228 270 314
#     4  10  20  36  59  84 109 133 163 217 279 332
#     4   9  18  32  50  73 105 144 185 232 271 307
#     4  10  20  35  55  77 106 139 175 219 275 330
#     4  10  20  34  55  78 109 145 178 218 263 331
#     4  10  20  35  54  74 104 146 189 230 265 307
#     4   9  18  33  51  73 105 146 184 218 268 322
#
# _framework density 18.776392000000001
#
# number of rings (size 3 to 8) (size 9 to 14) (size 15 to 20)
#    0.000    2.143    1.429    3.429    0.000    4.286 
#    0.000    5.000    0.000   12.000    0.000    0.000 
#    0.000    0.000    0.000    0.000    0.000    0.000 
#
# Total GULP energy -694121.034475 kJ/mol
# GULP energy per Si atom -12395.018473 kJ/mol
# Density = 1.873366 g / cm^3
# Si number density = 18.776392 Si / 1000 Ang^3
#
#
#
# Elastic Constant Matrix: (Units=GPa)
#
#
# Indices 1 2 3 4 5 6 
#
# 1 28.3340 12.7499 -0.8193 0.0000 0.0000 0.0000
# 2 12.7499 85.1433 38.3093 0.0000 0.0000 0.0000
# 3 -0.8193 38.3093 121.2299 0.0000 0.0000 0.0000
# 4 0.0000 0.0000 0.0000 25.9663 0.0000 0.0000
# 5 0.0000 0.0000 0.0000 0.0000 18.7665 0.0000
# 6 0.0000 0.0000 0.0000 0.0000 0.0000 14.9537
#
#
#
# Elastic Compliance Matrix: (Units=1/GPa)
#
#
# Indices 1 2 3 4 5 6 
#
# 1 0.038445 -0.006847 0.002424 0.000000 0.000000 0.000000
# 2 -0.006847 0.014911 -0.004758 0.000000 0.000000 0.000000
# 3 0.002424 -0.004758 0.009769 0.000000 0.000000 0.000000
# 4 0.000000 0.000000 0.000000 0.038511 0.000000 0.000000
# 5 0.000000 0.000000 0.000000 0.000000 0.053286 0.000000
# 6 0.000000 0.000000 0.000000 0.000000 0.000000 0.066873
#
#
# Mechanical properties :
#
#
# Convention : Reuss Voigt Hill
#
# Bulk Modulus (GPa) = 22.34113 37.24300 29.79206
# Shear Modulus (GPa) = 19.60170 24.23512 21.91841
#
# Velocity S-wave (km/s) = 3.23453 3.59656 3.42034
# Velocity P-wave (km/s) = 5.08665 6.09303 5.61244
#
# Compressibility (1/GPa) = 0.04476050
#
# Stress axis : x y z
#
# Youngs Moduli (GPa) = 26.01143 67.06352 102.36649
#
# Poissons Ratio (x) = 0.45921 -0.24810
# Poissons Ratio (y) = 0.17811 0.48709
# Poissons Ratio (z) = -0.06304 0.31911
#
# Static dielectric constant tensor:
#      x y z
#    x 3.090670 0.000000 0.000000 
#    y 0.000000 3.568280 0.000000 
#    z 0.000000 0.000000 3.741520 
# 
# 
# High freq. dielectric constant tensor:
#      x y z
#    x 1.677680 0.000000 0.000000 
#    y 0.000000 1.740190 0.000000 
#    z 0.000000 0.000000 1.745140 
# 
# From -- ./inp_files/23865.got.cif
#   From: 2010.03.12/outbox.cif.g09.slc.cpg/sg67_12_cif.got.tgz:23865.got - 2010.04.10 22:41:39.
