data_PCOD8279992
_publ_section_title
;
Structure prediction by ZEFSAII (Michael W. Deem and Ramdas Pophale) SiO2 
 PCOD8279992
Probable space group: C M M A
;
_chemical_formula_sum "Si O2"
_cell_formula_units_Z 88
_cell_length_a 35.822589
_cell_length_b 9.542375
_cell_length_c 14.298236
_cell_angle_alpha 90.000000
_cell_angle_beta 90.000000
_cell_angle_gamma 90.000000
_cell_volume 4887.602869
_symmetry_space_group_name_H-M "C M M A"
_symmetry_group_IT_number 67
_symmetry_cell_setting 'orthorhombic'
loop_
_space_group_symop_operation_xyz
x,y,z
-x,1/2-y,z
x,-y,-z
-x,1/2+y,-z
-x,-y,-z
x,1/2+y,-z
-x,y,z
x,1/2-y,z
1/2+x,1/2+y,z
1/2-x,-y,z
1/2+x,1/2-y,-z
1/2-x,y,-z
1/2-x,1/2-y,-z
1/2+x,y,-z
1/2-x,1/2+y,z
1/2+x,-y,z
loop_
_atom_site_type_symbol
_atom_site_label
_atom_site_fract_x
_atom_site_fract_y
_atom_site_fract_z
Si Si1 0.427468 0.415696 0.289821
Si Si2 0.500000 0.583332 0.596430
Si Si3 0.320276 0.410947 0.086926
Si Si4 0.143085 0.914302 0.405768
Si Si5 0.214259 0.412833 0.718495
Si Si6 0.092295 0.912153 0.088333
O O1 0.424708 0.250000 0.285603
O O2 0.464262 0.465299 0.344050
O O3 0.391098 0.472417 0.343477
O O4 0.428122 0.468878 0.182224
O O5 0.500000 0.750000 0.576880
O O6 0.500000 0.500000 0.500000
O O7 0.312213 0.250000 0.064163
O O8 0.298279 0.460895 0.178451
O O9 0.363900 0.436460 0.104406
O O10 0.305147 0.500000 0.000000
O O11 0.138330 0.750000 0.427517
O O12 0.181356 0.946068 0.353103
O O13 0.143118 0.000000 0.500000
O O14 0.224647 0.250000 0.717307
O O15 0.250000 0.500000 0.685919
O O16 0.083213 0.750000 0.068824
O O17 0.077340 0.000000 0.000000
#
# Coordination Sequence:
#
# PCOD8279992 Si02
#       6
#    16   8  16  16  16  16
#     4   9  17  33  56  78 105 139 171 204 251 309
#     4  10  20  34  55  82 108 138 173 212 257 302
#     4   9  17  31  51  73  98 131 167 206 250 298
#     4  10  20  36  55  74  98 132 171 211 255 304
#     4  10  21  36  52  71 100 134 168 209 257 304
#     4   9  16  30  52  76 102 134 171 207 245 297
#
# _framework density 18.004736999999999
#
# number of rings (size 3 to 8) (size 9 to 14) (size 15 to 20)
#    0.000    2.545    1.818    0.545    0.000    2.182 
#    0.000    5.909    0.000    0.000    0.000    0.000 
#    0.000    0.000    0.000    0.000    0.000    0.000 
#
# Total GULP energy -545604.417409 kJ/mol
# GULP energy per Si atom -12400.100396 kJ/mol
# Density = 1.796376 g / cm^3
# Si number density = 18.004737 Si / 1000 Ang^3
#
#
#
# Elastic Constant Matrix: (Units=GPa)
#
#
# Indices 1 2 3 4 5 6 
#
# 1 105.9174 42.1299 78.0652 0.0000 0.0000 0.0000
# 2 42.1299 48.5274 63.1071 0.0000 0.0000 0.0000
# 3 78.0652 63.1071 175.1318 0.0000 0.0000 0.0000
# 4 0.0000 0.0000 0.0000 36.8825 0.0000 0.0000
# 5 0.0000 0.0000 0.0000 0.0000 19.7365 0.0000
# 6 0.0000 0.0000 0.0000 0.0000 0.0000 18.6339
#
#
#
# Elastic Compliance Matrix: (Units=1/GPa)
#
#
# Indices 1 2 3 4 5 6 
#
# 1 0.015743 -0.008547 -0.003938 0.000000 0.000000 0.000000
# 2 -0.008547 0.043419 -0.011836 0.000000 0.000000 0.000000
# 3 -0.003938 -0.011836 0.011730 0.000000 0.000000 0.000000
# 4 0.000000 0.000000 0.000000 0.027113 0.000000 0.000000
# 5 0.000000 0.000000 0.000000 0.000000 0.050667 0.000000
# 6 0.000000 0.000000 0.000000 0.000000 0.000000 0.053665
#
#
# Mechanical properties :
#
#
# Convention : Reuss Voigt Hill
#
# Bulk Modulus (GPa) = 44.94124 77.35344 61.14734
# Shear Modulus (GPa) = 19.35013 24.80223 22.07618
#
# Velocity S-wave (km/s) = 3.28186 3.71555 3.50541
# Velocity P-wave (km/s) = 6.27501 7.83984 7.10067
#
# Compressibility (1/GPa) = 0.02225128
#
# Stress axis : x y z
#
# Youngs Moduli (GPa) = 63.51926 23.03151 85.25055
#
# Poissons Ratio (x) = 0.19685 0.33570
# Poissons Ratio (y) = 0.54290 1.00900
# Poissons Ratio (z) = 0.25012 0.27259
#
# Static dielectric constant tensor:
#      x y z
#    x 3.406530 0.000000 0.000000 
#    y 0.000000 3.097950 0.000000 
#    z 0.000000 0.000000 3.503950 
# 
# 
# High freq. dielectric constant tensor:
#      x y z
#    x 1.690340 0.000000 0.000000 
#    y 0.000000 1.670790 0.000000 
#    z 0.000000 0.000000 1.710310 
# 
# From -- ./inp_files/16870.got.cif
#   From: 2010.03.12/outbox.cif.g09.slc.cpg/sg67_9_cif.got.tgz:16870.got - 2010.04.10 22:41:39.
