data_PCOD8279911
_publ_section_title
;
Structure prediction by ZEFSAII (Michael W. Deem and Ramdas Pophale) SiO2 
 PCOD8279911
Probable space group: C M M A
;
_chemical_formula_sum "Si O2"
_cell_formula_units_Z 80
_cell_length_a 8.887449
_cell_length_b 17.989083
_cell_length_c 26.013564
_cell_angle_alpha 90.000000
_cell_angle_beta 90.000000
_cell_angle_gamma 90.000000
_cell_volume 4158.972073
_symmetry_space_group_name_H-M "C M M A"
_symmetry_group_IT_number 67
_symmetry_cell_setting 'orthorhombic'
loop_
_space_group_symop_operation_xyz
x,y,z
-x,1/2-y,z
x,-y,-z
-x,1/2+y,-z
-x,-y,-z
x,1/2+y,-z
-x,y,z
x,1/2-y,z
1/2+x,1/2+y,z
1/2-x,-y,z
1/2+x,1/2-y,-z
1/2-x,y,-z
1/2-x,1/2-y,-z
1/2+x,y,-z
1/2-x,1/2+y,z
1/2+x,-y,z
loop_
_atom_site_type_symbol
_atom_site_label
_atom_site_fract_x
_atom_site_fract_y
_atom_site_fract_z
Si Si1 0.168685 0.661274 0.161126
Si Si2 0.669811 0.661790 0.261919
Si Si3 0.175514 0.164089 0.445792
Si Si4 0.323150 0.834482 0.950410
Si Si5 0.322034 0.579415 0.647485
O O1 0.168053 0.750000 0.158428
O O2 0.278939 0.632286 0.205863
O O3 0.222732 0.630068 0.105127
O O4 0.000000 0.633060 0.173372
O O5 0.500000 0.633979 0.272341
O O6 0.679013 0.750000 0.263939
O O7 0.781739 0.631461 0.304755
O O8 0.200581 0.250000 0.430952
O O9 0.250000 0.145240 0.500000
O O10 0.255774 0.113360 0.404288
O O11 0.000000 0.144253 0.448168
O O12 0.500000 0.838284 0.956680
O O13 0.264043 0.750000 0.950345
O O14 0.250000 0.876233 0.000000
O O15 0.500000 0.572730 0.642140
O O16 0.250000 0.500000 0.657766
#
# Coordination Sequence:
#
# PCOD8279911 Si02
#       5
#    16  16  16  16  16
#     4   8  14  25  40  60  88 124 166 209 254 306
#     4  10  20  34  53  77 104 135 174 219 264 313
#     4  10  21  39  63  90 118 146 179 217 256 303
#     4   8  13  20  31  50  80 118 158 200 248 303
#     4  12  25  40  58  80 109 143 179 219 265 314
#
# _framework density 19.235522
#
# number of rings (size 3 to 8) (size 9 to 14) (size 15 to 20)
#    0.000    2.400    0.000    4.800    0.000    6.000 
#    0.000    6.000    0.000    0.000    0.000    0.000 
#    0.000    0.800    0.000    8.400    0.000   12.200 
#
# Total GULP energy -495823.440562 kJ/mol
# GULP energy per Si atom -12395.586014 kJ/mol
# Density = 1.919174 g / cm^3
# Si number density = 19.235522 Si / 1000 Ang^3
#
#
#
# Elastic Constant Matrix: (Units=GPa)
#
#
# Indices 1 2 3 4 5 6 
#
# 1 114.8894 24.3680 60.2044 0.0000 0.0000 0.0000
# 2 24.3680 22.3969 23.0297 0.0000 0.0000 0.0000
# 3 60.2044 23.0297 137.4993 0.0000 0.0000 0.0000
# 4 0.0000 0.0000 0.0000 -3.7980 0.0000 0.0000
# 5 0.0000 0.0000 0.0000 0.0000 41.2232 0.0000
# 6 0.0000 0.0000 0.0000 0.0000 0.0000 21.0296
#
#
#
# Elastic Compliance Matrix: (Units=1/GPa)
#
#
# Indices 1 2 3 4 5 6 
#
# 1 0.012899 -0.009939 -0.003983 0.000000 0.000000 0.000000
# 2 -0.009939 0.061596 -0.005965 0.000000 0.000000 0.000000
# 3 -0.003983 -0.005965 0.010016 0.000000 0.000000 0.000000
# 4 0.000000 0.000000 0.000000 -0.263295 0.000000 0.000000
# 5 0.000000 0.000000 0.000000 0.000000 0.024258 0.000000
# 6 0.000000 0.000000 0.000000 0.000000 0.000000 0.047552
#
#
# Mechanical properties :
#
#
# Convention : Reuss Voigt Hill
#
# Bulk Modulus (GPa) = 22.35280 54.44331 38.39806
# Shear Modulus (GPa) = -95.62604 22.83652 -36.39476
#
# Velocity S-wave (km/s) = -7.05841 3.44932 -4.35450
# Velocity P-wave (km/s) = 7.40152 6.65047 2.29714
#
# Compressibility (1/GPa) = 0.04473712
#
# Stress axis : x y z
#
# Youngs Moduli (GPa) = 77.52294 16.23483 99.84042
#
# Poissons Ratio (x) = 0.16135 0.39770
# Poissons Ratio (y) = 0.77048 0.59555
# Poissons Ratio (z) = 0.30881 0.09684
#
# Static dielectric constant tensor:
#      x y z
#    x 3.633990 0.000000 0.000000 
#    y 0.000000 3.058930 0.000000 
#    z 0.000000 0.000000 3.996690 
# 
# 
# High freq. dielectric constant tensor:
#      x y z
#    x 1.753720 0.000000 0.000000 
#    y 0.000000 1.689180 0.000000 
#    z 0.000000 0.000000 1.775310 
# 
# From -- ./inp_files/43297.got.cif
#   From: 2010.03.12/outbox.cif.g09.slc.cpg/sg67_22_cif.got.tgz:43297.got - 2010.04.10 22:41:39.
