data_PCOD8279683
_publ_section_title
;
Structure prediction by ZEFSAII (Michael W. Deem and Ramdas Pophale) SiO2 
 PCOD8279683
Probable space group: C M M A
;
_chemical_formula_sum "Si O2"
_cell_formula_units_Z 52
_cell_length_a 21.060627
_cell_length_b 9.524323
_cell_length_c 15.376640
_cell_angle_alpha 90.000000
_cell_angle_beta 90.000000
_cell_angle_gamma 90.000000
_cell_volume 3084.372757
_symmetry_space_group_name_H-M "C M M A"
_symmetry_group_IT_number 67
_symmetry_cell_setting 'orthorhombic'
loop_
_space_group_symop_operation_xyz
x,y,z
-x,1/2-y,z
x,-y,-z
-x,1/2+y,-z
-x,-y,-z
x,1/2+y,-z
-x,y,z
x,1/2-y,z
1/2+x,1/2+y,z
1/2-x,-y,z
1/2+x,1/2-y,-z
1/2-x,y,-z
1/2-x,1/2-y,-z
1/2+x,y,-z
1/2-x,1/2+y,z
1/2+x,-y,z
loop_
_atom_site_type_symbol
_atom_site_label
_atom_site_fract_x
_atom_site_fract_y
_atom_site_fract_z
Si Si1 0.074073 0.413385 0.729322
Si Si2 0.424692 0.095436 0.075867
Si Si3 0.750000 0.000000 0.500000
Si Si4 0.128329 0.590873 0.577897
O O1 0.091149 0.250000 0.713040
O O2 0.092329 0.458873 0.827586
O O3 0.114810 0.514117 0.668292
O O4 0.000000 0.438770 0.711372
O O5 0.500000 0.101325 0.066541
O O6 0.395992 0.250000 0.062602
O O7 0.394447 0.000000 0.000000
O O8 0.795432 0.904839 0.561508
O O9 0.095327 0.500000 0.500000
O O10 0.101660 0.750000 0.579033
#
# Coordination Sequence:
#
# PCOD8279683 Si02
#       4
#    16  16   4  16
#     4   9  18  31  46  68  99 129 156 187 227 272
#     4   8  14  25  41  62  90 124 156 186 219 259
#     4   8  22  36  52  68  88 112 154 198 238 276
#     4  10  20  33  51  69  90 119 154 194 233 275
#
# _framework density 16.859181
#
# number of rings (size 3 to 8) (size 9 to 14) (size 15 to 20)
#    0.923    2.154    0.000    3.231    0.000    2.462 
#    0.000    3.077    0.000    0.000    0.000    1.077 
#    0.000    7.385    0.000    0.000    0.000    0.000 
#
# Total GULP energy -322106.013199 kJ/mol
# GULP energy per Si atom -12388.692815 kJ/mol
# Density = 1.682081 g / cm^3
# Si number density = 16.859181 Si / 1000 Ang^3
#
#
#
# Elastic Constant Matrix: (Units=GPa)
#
#
# Indices 1 2 3 4 5 6 
#
# 1 35.0374 26.2657 34.4165 0.0000 0.0000 0.0000
# 2 26.2657 117.0970 85.6735 0.0000 0.0000 0.0000
# 3 34.4165 85.6735 153.8708 0.0000 0.0000 0.0000
# 4 0.0000 0.0000 0.0000 35.1650 0.0000 0.0000
# 5 0.0000 0.0000 0.0000 0.0000 2.0524 0.0000
# 6 0.0000 0.0000 0.0000 0.0000 0.0000 12.9897
#
#
#
# Elastic Compliance Matrix: (Units=1/GPa)
#
#
# Indices 1 2 3 4 5 6 
#
# 1 0.037576 -0.003846 -0.006263 0.000000 0.000000 0.000000
# 2 -0.003846 0.014804 -0.007382 0.000000 0.000000 0.000000
# 3 -0.006263 -0.007382 0.012010 0.000000 0.000000 0.000000
# 4 0.000000 0.000000 0.000000 0.028437 0.000000 0.000000
# 5 0.000000 0.000000 0.000000 0.000000 0.487245 0.000000
# 6 0.000000 0.000000 0.000000 0.000000 0.000000 0.076984
#
#
# Mechanical properties :
#
#
# Convention : Reuss Voigt Hill
#
# Bulk Modulus (GPa) = 34.00548 66.52407 50.26477
# Shear Modulus (GPa) = 7.12410 20.68471 13.90440
#
# Velocity S-wave (km/s) = 2.05787 3.50653 2.87494
# Velocity P-wave (km/s) = 5.08532 7.47921 6.39528
#
# Compressibility (1/GPa) = 0.02940702
#
# Stress axis : x y z
#
# Youngs Moduli (GPa) = 26.61243 67.54952 83.26179
#
# Poissons Ratio (x) = 0.25981 0.52149
# Poissons Ratio (y) = 0.10236 0.61467
# Poissons Ratio (z) = 0.16668 0.49868
#
# Static dielectric constant tensor:
#      x y z
#    x 2.609130 0.000000 0.000000 
#    y 0.000000 3.263010 0.000000 
#    z 0.000000 0.000000 3.264470 
# 
# 
# High freq. dielectric constant tensor:
#      x y z
#    x 1.588790 0.000000 0.000000 
#    y 0.000000 1.651120 0.000000 
#    z 0.000000 0.000000 1.657540 
# 
# From -- ./inp_files/22506.got.cif
#   From: 2010.03.12/outbox.cif.g09.slc.cpg/sg67_12_cif.got.tgz:22506.got - 2010.04.10 22:41:39.
