data_PCOD8279933
_publ_section_title
;
Structure prediction by ZEFSAII (Michael W. Deem and Ramdas Pophale) SiO2 
 PCOD8279933
Probable space group: C M M A
;
_chemical_formula_sum "Si O2"
_cell_formula_units_Z 96
_cell_length_a 19.324654
_cell_length_b 8.786173
_cell_length_c 30.811482
_cell_angle_alpha 90.000000
_cell_angle_beta 90.000000
_cell_angle_gamma 90.000000
_cell_volume 5231.473925
_symmetry_space_group_name_H-M "C M M A"
_symmetry_group_IT_number 67
_symmetry_cell_setting 'orthorhombic'
loop_
_space_group_symop_operation_xyz
x,y,z
-x,1/2-y,z
x,-y,-z
-x,1/2+y,-z
-x,-y,-z
x,1/2+y,-z
-x,y,z
x,1/2-y,z
1/2+x,1/2+y,z
1/2-x,-y,z
1/2+x,1/2-y,-z
1/2-x,y,-z
1/2-x,1/2-y,-z
1/2+x,y,-z
1/2-x,1/2+y,z
1/2+x,-y,z
loop_
_atom_site_type_symbol
_atom_site_label
_atom_site_fract_x
_atom_site_fract_y
_atom_site_fract_z
Si Si1 0.417946 0.417306 0.041628
Si Si2 0.177486 0.929685 0.793575
Si Si3 0.823087 0.930270 0.298206
Si Si4 0.581535 0.425538 0.631672
Si Si5 0.082262 0.078763 0.543228
Si Si6 0.580867 0.927248 0.862780
O O1 0.500000 0.411271 0.036582
O O2 0.386171 0.250000 0.040626
O O3 0.399870 0.488700 0.088729
O O4 0.384344 0.500000 0.000000
O O5 0.185080 0.750000 0.787833
O O6 0.250000 0.000000 0.809087
O O7 0.154303 0.002332 0.748073
O O8 0.120266 0.967207 0.829097
O O9 0.816061 0.750000 0.294507
O O10 0.750000 0.000000 0.313300
O O11 0.881831 0.972728 0.332331
O O12 0.500000 0.449741 0.637184
O O13 0.602556 0.250000 0.637134
O O14 0.606865 0.481827 0.584587
O O15 0.111642 0.250000 0.546761
O O16 0.000000 0.082075 0.540745
O O17 0.112674 0.000000 0.500000
O O18 0.500000 0.947616 0.853878
O O19 0.601621 0.750000 0.857715
#
# Coordination Sequence:
#
# PCOD8279933 Si02
#       6
#    16  16  16  16  16  16
#     4   8  14  25  43  68  99 133 166 201 243 293
#     4  11  22  37  56  76 100 132 171 211 254 306
#     4  11  22  38  58  77 101 134 172 211 255 309
#     4  10  20  34  53  79 109 138 172 215 258 300
#     4   9  16  27  45  71 103 138 174 211 254 302
#     4   9  18  33  52  76 106 137 169 208 254 300
#
# _framework density 18.350469
#
# number of rings (size 3 to 8) (size 9 to 14) (size 15 to 20)
#    0.000    2.333    0.000    6.000    0.000    4.667 
#    0.000    1.667    0.000    1.000    0.000    7.000 
#    0.000    0.000    0.000    0.000    0.000    0.000 
#
# Total GULP energy -595087.912989 kJ/mol
# GULP energy per Si atom -12397.664854 kJ/mol
# Density = 1.830870 g / cm^3
# Si number density = 18.350469 Si / 1000 Ang^3
#
#
#
# Elastic Constant Matrix: (Units=GPa)
#
#
# Indices 1 2 3 4 5 6 
#
# 1 39.6523 35.2151 49.9440 0.0000 0.0000 0.0000
# 2 35.2151 139.2055 63.6828 0.0000 0.0000 0.0000
# 3 49.9440 63.6828 139.5124 0.0000 0.0000 0.0000
# 4 0.0000 0.0000 0.0000 38.0832 0.0000 0.0000
# 5 0.0000 0.0000 0.0000 0.0000 -11.4920 0.0000
# 6 0.0000 0.0000 0.0000 0.0000 0.0000 23.2284
#
#
#
# Elastic Compliance Matrix: (Units=1/GPa)
#
#
# Indices 1 2 3 4 5 6 
#
# 1 0.049085 -0.005534 -0.015046 0.000000 0.000000 0.000000
# 2 -0.005534 0.009704 -0.002448 0.000000 0.000000 0.000000
# 3 -0.015046 -0.002448 0.013672 0.000000 0.000000 0.000000
# 4 0.000000 0.000000 0.000000 0.026258 0.000000 0.000000
# 5 0.000000 0.000000 0.000000 0.000000 -0.087017 0.000000
# 6 0.000000 0.000000 0.000000 0.000000 0.000000 0.043051
#
#
# Mechanical properties :
#
#
# Convention : Reuss Voigt Hill
#
# Bulk Modulus (GPa) = 37.87313 68.45043 53.16178
# Shear Modulus (GPa) = 45.61654 21.26579 33.44117
#
# Velocity S-wave (km/s) = 4.99124 3.40791 4.27354
# Velocity P-wave (km/s) = 7.34168 7.27103 7.30644
#
# Compressibility (1/GPa) = 0.02640394
#
# Stress axis : x y z
#
# Youngs Moduli (GPa) = 20.37287 103.05462 73.14446
#
# Poissons Ratio (x) = 0.57031 1.10051
# Poissons Ratio (y) = 0.11275 0.17907
# Poissons Ratio (z) = 0.30653 0.25230
#
# Static dielectric constant tensor:
#      x y z
#    x 2.966580 0.000000 0.000000 
#    y 0.000000 3.551650 0.000000 
#    z 0.000000 0.000000 3.589530 
# 
# 
# High freq. dielectric constant tensor:
#      x y z
#    x 1.665200 0.000000 0.000000 
#    y 0.000000 1.721260 0.000000 
#    z 0.000000 0.000000 1.727950 
# 
# From -- ./inp_files/44792.got.cif
#   From: 2010.03.12/outbox.cif.g09.slc.cpg/sg67_23_cif.got.tgz:44792.got - 2010.04.10 22:41:39.
