data_PCOD8279886
_publ_section_title
;
Structure prediction by ZEFSAII (Michael W. Deem and Ramdas Pophale) SiO2 
 PCOD8279886
Probable space group: C M M A
;
_chemical_formula_sum "Si O2"
_cell_formula_units_Z 104
_cell_length_a 8.641198
_cell_length_b 24.603656
_cell_length_c 27.169374
_cell_angle_alpha 90.000000
_cell_angle_beta 90.000000
_cell_angle_gamma 90.000000
_cell_volume 5776.346471
_symmetry_space_group_name_H-M "C M M A"
_symmetry_group_IT_number 67
_symmetry_cell_setting 'orthorhombic'
loop_
_space_group_symop_operation_xyz
x,y,z
-x,1/2-y,z
x,-y,-z
-x,1/2+y,-z
-x,-y,-z
x,1/2+y,-z
-x,y,z
x,1/2-y,z
1/2+x,1/2+y,z
1/2-x,-y,z
1/2+x,1/2-y,-z
1/2-x,y,-z
1/2-x,1/2-y,-z
1/2+x,y,-z
1/2-x,1/2+y,z
1/2+x,-y,z
loop_
_atom_site_type_symbol
_atom_site_label
_atom_site_fract_x
_atom_site_fract_y
_atom_site_fract_z
Si Si1 0.183904 0.250000 0.445805
Si Si2 0.329234 0.750000 0.796093
Si Si3 0.320553 0.750000 0.303086
Si Si4 0.823597 0.141054 0.854248
Si Si5 0.817233 0.312125 0.052163
Si Si6 0.816296 0.835031 0.372146
Si Si7 0.818550 0.943125 0.779925
Si Si8 0.183867 0.558400 0.668206
O O1 0.250000 0.250000 0.500000
O O2 0.243242 0.304540 0.418997
O O3 0.000000 0.250000 0.446526
O O4 0.500000 0.750000 0.771174
O O5 0.195735 0.750000 0.755340
O O6 0.306997 0.699405 0.830698
O O7 0.500000 0.750000 0.318503
O O8 0.238177 0.696124 0.323208
O O9 0.748872 0.145372 0.908102
O O10 0.732147 0.100674 0.819337
O O11 0.000000 0.121479 0.858918
O O12 0.765199 0.250000 0.063649
O O13 0.000000 0.316979 0.051117
O O14 0.750000 0.330794 0.000000
O O15 0.756372 0.896771 0.368343
O O16 0.000000 0.834029 0.376880
O O17 0.763032 0.928454 0.724382
O O18 0.000000 0.948219 0.780047
O O19 0.750000 0.000000 0.797188
O O20 0.250000 0.500000 0.651933
O O21 0.000000 0.558576 0.662603
#
# Coordination Sequence:
#
# PCOD8279886 Si02
#       8
#     8   8   8  16  16  16  16  16
#     4  11  22  39  61  86 115 147 186 231 279 330
#     4  10  21  33  47  72 106 141 172 208 261 320
#     4  11  21  32  48  72 105 142 179 221 267 320
#     4  11  21  34  52  75 104 136 172 214 262 317
#     4  10  20  34  53  75 101 132 168 212 262 318
#     4  11  21  35  55  80 110 146 186 227 272 322
#     4  10  21  36  54  77 106 143 184 223 265 313
#     4  10  20  35  55  81 111 147 187 229 271 318
#
# _framework density 18.004459000000001
#
# number of rings (size 3 to 8) (size 9 to 14) (size 15 to 20)
#    0.000    1.538    0.769    6.462    0.000    6.154 
#    0.000    0.000    0.000    0.923    0.000    6.462 
#    0.000    0.000    0.000    0.000    0.000    0.000 
#
# Total GULP energy -644903.565140 kJ/mol
# GULP energy per Si atom -12401.991637 kJ/mol
# Density = 1.796348 g / cm^3
# Si number density = 18.004459 Si / 1000 Ang^3
#
#
#
# Elastic Constant Matrix: (Units=GPa)
#
#
# Indices 1 2 3 4 5 6 
#
# 1 108.4041 43.1912 40.4257 0.0000 0.0000 0.0000
# 2 43.1912 118.3383 49.0420 0.0000 0.0000 0.0000
# 3 40.4257 49.0420 101.7547 0.0000 0.0000 0.0000
# 4 0.0000 0.0000 0.0000 33.3698 0.0000 0.0000
# 5 0.0000 0.0000 0.0000 0.0000 30.7995 0.0000
# 6 0.0000 0.0000 0.0000 0.0000 0.0000 29.6151
#
#
#
# Elastic Compliance Matrix: (Units=1/GPa)
#
#
# Indices 1 2 3 4 5 6 
#
# 1 0.011573 -0.002897 -0.003201 0.000000 0.000000 0.000000
# 2 -0.002897 0.011285 -0.004288 0.000000 0.000000 0.000000
# 3 -0.003201 -0.004288 0.013166 0.000000 0.000000 0.000000
# 4 0.000000 0.000000 0.000000 0.029967 0.000000 0.000000
# 5 0.000000 0.000000 0.000000 0.000000 0.032468 0.000000
# 6 0.000000 0.000000 0.000000 0.000000 0.000000 0.033767
#
#
# Mechanical properties :
#
#
# Convention : Reuss Voigt Hill
#
# Bulk Modulus (GPa) = 65.57017 65.97943 65.77480
# Shear Modulus (GPa) = 31.62918 31.81277 31.72098
#
# Velocity S-wave (km/s) = 4.19590 4.20806 4.20198
# Velocity P-wave (km/s) = 7.74416 7.76763 7.75590
#
# Compressibility (1/GPa) = 0.01525084
#
# Stress axis : x y z
#
# Youngs Moduli (GPa) = 86.40873 88.61539 75.95315
#
# Poissons Ratio (x) = 0.25673 0.24316
# Poissons Ratio (y) = 0.25034 0.32567
# Poissons Ratio (z) = 0.27663 0.37997
#
# Static dielectric constant tensor:
#      x y z
#    x 3.481710 0.000000 0.000000 
#    y 0.000000 3.275610 0.000000 
#    z 0.000000 0.000000 3.216060 
# 
# 
# High freq. dielectric constant tensor:
#      x y z
#    x 1.716680 0.000000 0.000000 
#    y 0.000000 1.687530 0.000000 
#    z 0.000000 0.000000 1.683670 
# 
# From -- ./inp_files/43777.got.cif
#   From: 2010.03.12/outbox.cif.g09.slc.cpg/sg67_22_cif.got.tgz:43777.got - 2010.04.10 22:41:39.
