data_PCOD8279157
_publ_section_title
;
Structure prediction by ZEFSAII (Michael W. Deem and Ramdas Pophale) SiO2 
 PCOD8279157
Probable space group: C M M A
;
_chemical_formula_sum "Si O2"
_cell_formula_units_Z 80
_cell_length_a 27.450295
_cell_length_b 8.602324
_cell_length_c 18.718453
_cell_angle_alpha 90.000000
_cell_angle_beta 90.000000
_cell_angle_gamma 90.000000
_cell_volume 4420.106823
_symmetry_space_group_name_H-M "C M M A"
_symmetry_group_IT_number 67
_symmetry_cell_setting 'orthorhombic'
loop_
_space_group_symop_operation_xyz
x,y,z
-x,1/2-y,z
x,-y,-z
-x,1/2+y,-z
-x,-y,-z
x,1/2+y,-z
-x,y,z
x,1/2-y,z
1/2+x,1/2+y,z
1/2-x,-y,z
1/2+x,1/2-y,-z
1/2-x,y,-z
1/2-x,1/2-y,-z
1/2+x,y,-z
1/2-x,1/2+y,z
1/2+x,-y,z
loop_
_atom_site_type_symbol
_atom_site_label
_atom_site_fract_x
_atom_site_fract_y
_atom_site_fract_z
Si Si1 0.351551 0.934354 0.076156
Si Si2 0.890657 0.933096 0.709695
Si Si3 0.801601 0.433437 0.787572
Si Si4 0.555994 0.067153 0.423649
Si Si5 0.446695 0.066268 0.848360
O O1 0.348743 0.750000 0.075798
O O2 0.406488 0.993246 0.094890
O O3 0.314505 0.996035 0.135262
O O4 0.335627 0.000000 0.000000
O O5 0.881295 0.750000 0.711500
O O6 0.930502 0.983168 0.768835
O O7 0.840108 0.017913 0.727071
O O8 0.909390 0.984983 0.633065
O O9 0.799438 0.250000 0.794306
O O10 0.750000 0.500000 0.762598
O O11 0.500000 0.024880 0.406586
O O12 0.564837 0.250000 0.422476
O O13 0.571267 0.000000 0.500000
O O14 0.500000 0.992191 0.864770
O O15 0.450263 0.250000 0.852937
#
# Coordination Sequence:
#
# PCOD8279157 Si02
#       5
#    16  16  16  16  16
#     4  10  20  34  51  74 103 135 172 214 262 314
#     4  10  19  33  54  79 107 139 175 216 262 311
#     4  11  22  38  58  79 102 130 169 216 266 318
#     4  10  20  33  51  79 114 150 185 219 257 302
#     4   8  15  28  47  71 100 135 172 208 249 300
#
# _framework density 18.099108000000001
#
# number of rings (size 3 to 8) (size 9 to 14) (size 15 to 20)
#    0.000    2.200    0.000    5.400    0.000    2.800 
#    0.000    2.000    0.000   12.000    0.000    4.200 
#    0.000    0.000    0.000    0.000    0.000    0.000 
#
# Total GULP energy -496020.732618 kJ/mol
# GULP energy per Si atom -12400.518315 kJ/mol
# Density = 1.805791 g / cm^3
# Si number density = 18.099108 Si / 1000 Ang^3
#
#
#
# Elastic Constant Matrix: (Units=GPa)
#
#
# Indices 1 2 3 4 5 6 
#
# 1 97.1316 27.9413 31.3779 0.0000 0.0000 0.0000
# 2 27.9413 89.5919 29.5377 0.0000 0.0000 0.0000
# 3 31.3779 29.5377 102.7407 0.0000 0.0000 0.0000
# 4 0.0000 0.0000 0.0000 29.5543 0.0000 0.0000
# 5 0.0000 0.0000 0.0000 0.0000 13.3286 0.0000
# 6 0.0000 0.0000 0.0000 0.0000 0.0000 26.0174
#
#
#
# Elastic Compliance Matrix: (Units=1/GPa)
#
#
# Indices 1 2 3 4 5 6 
#
# 1 0.012029 -0.002806 -0.002867 0.000000 0.000000 0.000000
# 2 -0.002806 0.012985 -0.002876 0.000000 0.000000 0.000000
# 3 -0.002867 -0.002876 0.011436 0.000000 0.000000 0.000000
# 4 0.000000 0.000000 0.000000 0.033836 0.000000 0.000000
# 5 0.000000 0.000000 0.000000 0.000000 0.075027 0.000000
# 6 0.000000 0.000000 0.000000 0.000000 0.000000 0.038436
#
#
# Mechanical properties :
#
#
# Convention : Reuss Voigt Hill
#
# Bulk Modulus (GPa) = 51.67690 51.90868 51.79279
# Shear Modulus (GPa) = 24.11998 27.15388 25.63693
#
# Velocity S-wave (km/s) = 3.65452 3.87756 3.76769
# Velocity P-wave (km/s) = 6.81334 6.98497 6.89969
#
# Compressibility (1/GPa) = 0.01935100
#
# Stress axis : x y z
#
# Youngs Moduli (GPa) = 83.13454 77.01099 87.44546
#
# Poissons Ratio (x) = 0.21611 0.25070
# Poissons Ratio (y) = 0.23330 0.25151
# Poissons Ratio (z) = 0.23834 0.22150
#
# Static dielectric constant tensor:
#      x y z
#    x 3.515600 0.000000 0.000000 
#    y 0.000000 3.273070 0.000000 
#    z 0.000000 0.000000 3.234150 
# 
# 
# High freq. dielectric constant tensor:
#      x y z
#    x 1.698310 0.000000 0.000000 
#    y 0.000000 1.701370 0.000000 
#    z 0.000000 0.000000 1.691940 
# 
# From -- ./inp_files/32132.got.cif
#   From: 2010.03.12/outbox.cif.g09.slc.cpg/sg67_17_cif.got.tgz:32132.got - 2010.04.10 22:41:39.
