data_PCOD8279988
_publ_section_title
;
Structure prediction by ZEFSAII (Michael W. Deem and Ramdas Pophale) SiO2 
 PCOD8279988
Probable space group: C M M A
;
_chemical_formula_sum "Si O2"
_cell_formula_units_Z 88
_cell_length_a 16.535471
_cell_length_b 9.030793
_cell_length_c 29.717684
_cell_angle_alpha 90.000000
_cell_angle_beta 90.000000
_cell_angle_gamma 90.000000
_cell_volume 4437.694672
_symmetry_space_group_name_H-M "C M M A"
_symmetry_group_IT_number 67
_symmetry_cell_setting 'orthorhombic'
loop_
_space_group_symop_operation_xyz
x,y,z
-x,1/2-y,z
x,-y,-z
-x,1/2+y,-z
-x,-y,-z
x,1/2+y,-z
-x,y,z
x,1/2-y,z
1/2+x,1/2+y,z
1/2-x,-y,z
1/2+x,1/2-y,-z
1/2-x,y,-z
1/2-x,1/2-y,-z
1/2+x,y,-z
1/2-x,1/2+y,z
1/2+x,-y,z
loop_
_atom_site_type_symbol
_atom_site_label
_atom_site_fract_x
_atom_site_fract_y
_atom_site_fract_z
Si Si1 0.330307 0.577488 0.799691
Si Si2 0.665349 0.424877 0.098113
Si Si3 0.000000 0.074124 0.951899
Si Si4 0.336555 0.074693 0.456658
Si Si5 0.904883 0.084836 0.374426
Si Si6 0.406566 0.088834 0.723921
O O1 0.318347 0.750000 0.798513
O O2 0.250000 0.500000 0.782113
O O3 0.351338 0.526848 0.850407
O O4 0.397258 0.529402 0.763926
O O5 0.677545 0.250000 0.092648
O O6 0.750000 0.500000 0.080758
O O7 0.583719 0.477827 0.072347
O O8 0.000000 0.250000 0.956052
O O9 0.000000 0.000000 0.000000
O O10 0.331276 0.250000 0.463388
O O11 0.381490 0.000000 0.500000
O O12 0.250000 0.000000 0.453382
O O13 0.381027 0.038772 0.410340
O O14 0.871734 0.250000 0.386855
O O15 0.870461 0.038552 0.324726
O O16 0.000000 0.089943 0.373347
O O17 0.500000 0.109148 0.715861
O O18 0.369708 0.250000 0.737678
#
# Coordination Sequence:
#
# PCOD8279988 Si02
#       6
#    16  16   8  16  16  16
#     4  10  20  34  55  80 109 145 185 228 275 329
#     4   9  20  38  59  83 117 154 193 242 294 345
#     4  10  22  40  60  86 118 154 196 242 293 352
#     4  11  22  37  57  79 104 134 173 219 268 322
#     4   9  19  37  57  77 106 141 176 217 267 320
#     4   9  19  35  54  78 109 143 178 221 270 320
#
# _framework density 19.830114999999999
#
# number of rings (size 3 to 8) (size 9 to 14) (size 15 to 20)
#    0.000    2.364    0.000    3.818    1.273    4.364 
#    0.000    3.636    0.000    0.000    0.000    0.000 
#    0.000    0.000    0.000    0.000    0.000    0.000 
#
# Total GULP energy -545162.120590 kJ/mol
# GULP energy per Si atom -12390.048195 kJ/mol
# Density = 1.978498 g / cm^3
# Si number density = 19.830115 Si / 1000 Ang^3
#
#
#
# Elastic Constant Matrix: (Units=GPa)
#
#
# Indices 1 2 3 4 5 6 
#
# 1 86.9532 33.9670 54.5019 0.0000 0.0000 0.0000
# 2 33.9670 92.9211 54.4712 0.0000 0.0000 0.0000
# 3 54.5019 54.4712 135.4938 0.0000 0.0000 0.0000
# 4 0.0000 0.0000 0.0000 -2.7538 0.0000 0.0000
# 5 0.0000 0.0000 0.0000 0.0000 88.7365 0.0000
# 6 0.0000 0.0000 0.0000 0.0000 0.0000 27.4212
#
#
#
# Elastic Compliance Matrix: (Units=1/GPa)
#
#
# Indices 1 2 3 4 5 6 
#
# 1 0.015877 -0.002695 -0.005303 0.000000 0.000000 0.000000
# 2 -0.002695 0.014538 -0.004760 0.000000 0.000000 0.000000
# 3 -0.005303 -0.004760 0.011427 0.000000 0.000000 0.000000
# 4 0.000000 0.000000 0.000000 -0.363130 0.000000 0.000000
# 5 0.000000 0.000000 0.000000 0.000000 0.011269 0.000000
# 6 0.000000 0.000000 0.000000 0.000000 0.000000 0.036468
#
#
# Mechanical properties :
#
#
# Convention : Reuss Voigt Hill
#
# Bulk Modulus (GPa) = 61.25547 66.80535 64.03041
# Shear Modulus (GPa) = -20.61075 34.17596 6.78261
#
# Velocity S-wave (km/s) = -3.22742 4.15593 1.85143
# Velocity P-wave (km/s) = 4.13145 7.53598 6.07700
#
# Compressibility (1/GPa) = 0.01632507
#
# Stress axis : x y z
#
# Youngs Moduli (GPa) = 62.98340 68.78750 87.51002
#
# Poissons Ratio (x) = 0.18539 0.46407
# Poissons Ratio (y) = 0.16975 0.41657
# Poissons Ratio (z) = 0.33400 0.32745
#
# Static dielectric constant tensor:
#      x y z
#    x 3.573270 0.000000 0.000000 
#    y 0.000000 3.670290 0.000000 
#    z 0.000000 0.000000 4.107970 
# 
# 
# High freq. dielectric constant tensor:
#      x y z
#    x 1.758470 0.000000 0.000000 
#    y 0.000000 1.767440 0.000000 
#    z 0.000000 0.000000 1.784050 
# 
# From -- ./inp_files/45787.got.cif
#   From: 2010.03.12/outbox.cif.g09.slc.cpg/sg67_23_cif.got.tgz:45787.got - 2010.04.10 22:41:39.
