data_PCOD8279255
_publ_section_title
;
Structure prediction by ZEFSAII (Michael W. Deem and Ramdas Pophale) SiO2 
 PCOD8279255
Probable space group: C M M A
;
_chemical_formula_sum "Si O2"
_cell_formula_units_Z 104
_cell_length_a 8.693235
_cell_length_b 26.245987
_cell_length_c 22.967470
_cell_angle_alpha 90.000000
_cell_angle_beta 90.000000
_cell_angle_gamma 90.000000
_cell_volume 5240.316127
_symmetry_space_group_name_H-M "C M M A"
_symmetry_group_IT_number 67
_symmetry_cell_setting 'orthorhombic'
loop_
_space_group_symop_operation_xyz
x,y,z
-x,1/2-y,z
x,-y,-z
-x,1/2+y,-z
-x,-y,-z
x,1/2+y,-z
-x,y,z
x,1/2-y,z
1/2+x,1/2+y,z
1/2-x,-y,z
1/2+x,1/2-y,-z
1/2-x,y,-z
1/2-x,1/2-y,-z
1/2+x,y,-z
1/2-x,1/2+y,z
1/2+x,-y,z
loop_
_atom_site_type_symbol
_atom_site_label
_atom_site_fract_x
_atom_site_fract_y
_atom_site_fract_z
Si Si1 0.678407 0.693666 0.827433
Si Si2 0.181810 0.552758 0.107005
Si Si3 0.682926 0.945501 0.647788
Si Si4 0.682335 0.139213 0.564528
Si Si5 0.681195 0.346809 0.940522
Si Si6 0.319132 0.406713 0.230095
Si Si7 0.321757 0.250000 0.562306
O O1 0.500000 0.683169 0.842474
O O2 0.704044 0.750000 0.800959
O O3 0.771563 0.689414 0.887310
O O4 0.735760 0.651936 0.780333
O O5 0.250000 0.500000 0.084094
O O6 0.251869 0.596734 0.067509
O O7 0.232902 0.560449 0.174333
O O8 0.000000 0.553473 0.100227
O O9 0.500000 0.948789 0.647993
O O10 0.735504 0.903253 0.602498
O O11 0.753206 0.929846 0.711093
O O12 0.750000 0.000000 0.629257
O O13 0.500000 0.129379 0.563162
O O14 0.750000 0.135300 0.500000
O O15 0.722087 0.195691 0.592642
O O16 0.500000 0.349346 0.945146
O O17 0.750000 0.323639 0.000000
O O18 0.500000 0.408028 0.237839
O O19 0.500000 0.250000 0.550690
O O20 0.250000 0.250000 0.500000
#
# Coordination Sequence:
#
# PCOD8279255 Si02
#       7
#    16  16  16  16  16  16   8
#     4   9  18  36  60  82 108 142 179 223 274 328
#     4  10  19  34  55  79 105 138 178 222 273 326
#     4  11  22  37  56  83 116 152 192 234 280 335
#     4  10  20  37  59  85 115 151 190 234 283 336
#     4  11  22  36  53  76 107 141 180 224 271 326
#     4   8  17  34  55  80 109 141 180 223 270 327
#     4   8  16  32  56  80 108 142 180 222 271 324
#
# _framework density 19.846129999999999
#
# number of rings (size 3 to 8) (size 9 to 14) (size 15 to 20)
#    0.000    2.308    0.000    4.154    0.000    1.846 
#    1.385   10.000    0.000    0.000    0.000    0.000 
#    0.000    0.000    0.000    0.000    0.000    0.000 
#
# Total GULP energy -644523.383113 kJ/mol
# GULP energy per Si atom -12394.680444 kJ/mol
# Density = 1.980096 g / cm^3
# Si number density = 19.846130 Si / 1000 Ang^3
#
#
#
# Elastic Constant Matrix: (Units=GPa)
#
#
# Indices 1 2 3 4 5 6 
#
# 1 87.4873 36.6640 23.3452 0.0000 0.0000 0.0000
# 2 36.6640 139.3658 28.7497 0.0000 0.0000 0.0000
# 3 23.3452 28.7497 70.7274 0.0000 0.0000 0.0000
# 4 0.0000 0.0000 0.0000 14.7545 0.0000 0.0000
# 5 0.0000 0.0000 0.0000 0.0000 23.0001 0.0000
# 6 0.0000 0.0000 0.0000 0.0000 0.0000 23.5626
#
#
#
# Elastic Compliance Matrix: (Units=1/GPa)
#
#
# Indices 1 2 3 4 5 6 
#
# 1 0.013514 -0.002876 -0.003291 0.000000 0.000000 0.000000
# 2 -0.002876 0.008444 -0.002483 0.000000 0.000000 0.000000
# 3 -0.003291 -0.002483 0.016235 0.000000 0.000000 0.000000
# 4 0.000000 0.000000 0.000000 0.067776 0.000000 0.000000
# 5 0.000000 0.000000 0.000000 0.000000 0.043478 0.000000
# 6 0.000000 0.000000 0.000000 0.000000 0.000000 0.042440
#
#
# Mechanical properties :
#
#
# Convention : Reuss Voigt Hill
#
# Bulk Modulus (GPa) = 47.86706 52.78869 50.32788
# Shear Modulus (GPa) = 23.13187 26.18488 24.65838
#
# Velocity S-wave (km/s) = 3.41773 3.63629 3.52870
# Velocity P-wave (km/s) = 6.30444 6.65484 6.48201
#
# Compressibility (1/GPa) = 0.02089119
#
# Stress axis : x y z
#
# Youngs Moduli (GPa) = 73.99804 118.42354 61.59697
#
# Poissons Ratio (x) = 0.34061 0.20274
# Poissons Ratio (y) = 0.21283 0.15295
# Poissons Ratio (z) = 0.24356 0.29406
#
# Static dielectric constant tensor:
#      x y z
#    x 3.391190 0.000000 0.000000 
#    y 0.000000 4.565220 0.000000 
#    z 0.000000 0.000000 3.576400 
# 
# 
# High freq. dielectric constant tensor:
#      x y z
#    x 1.765990 0.000000 0.000000 
#    y 0.000000 1.789810 0.000000 
#    z 0.000000 0.000000 1.753390 
# 
# From -- ./inp_files/37297.got.cif
#   From: 2010.03.12/outbox.cif.g09.slc.cpg/sg67_19_cif.got.tgz:37297.got - 2010.04.10 22:41:39.
