data_PCOD8279975
_publ_section_title
;
Structure prediction by ZEFSAII (Michael W. Deem and Ramdas Pophale) SiO2 
 PCOD8279975
Probable space group: C M M A
;
_chemical_formula_sum "Si O2"
_cell_formula_units_Z 80
_cell_length_a 18.340523
_cell_length_b 8.781531
_cell_length_c 25.603412
_cell_angle_alpha 90.000000
_cell_angle_beta 90.000000
_cell_angle_gamma 90.000000
_cell_volume 4123.631034
_symmetry_space_group_name_H-M "C M M A"
_symmetry_group_IT_number 67
_symmetry_cell_setting 'orthorhombic'
loop_
_space_group_symop_operation_xyz
x,y,z
-x,1/2-y,z
x,-y,-z
-x,1/2+y,-z
-x,-y,-z
x,1/2+y,-z
-x,y,z
x,1/2-y,z
1/2+x,1/2+y,z
1/2-x,-y,z
1/2+x,1/2-y,-z
1/2-x,y,-z
1/2-x,1/2-y,-z
1/2+x,y,-z
1/2-x,1/2+y,z
1/2+x,-y,z
loop_
_atom_site_type_symbol
_atom_site_label
_atom_site_fract_x
_atom_site_fract_y
_atom_site_fract_z
Si Si1 0.326665 0.070053 0.444699
Si Si2 0.913340 0.578922 0.948130
Si Si3 0.915628 0.071488 0.841355
Si Si4 0.084853 0.925932 0.644465
Si Si5 0.171099 0.429287 0.252847
O O1 0.318525 0.250000 0.450352
O O2 0.350292 0.000000 0.500000
O O3 0.250000 0.000000 0.425747
O O4 0.388354 0.029682 0.403052
O O5 0.882429 0.750000 0.944081
O O6 0.887875 0.483738 0.897839
O O7 0.000000 0.581158 0.951570
O O8 0.880804 0.500000 0.000000
O O9 0.902825 0.250000 0.837063
O O10 0.000000 0.027488 0.832874
O O11 0.868146 0.987870 0.798537
O O12 0.101615 0.750000 0.631595
O O13 0.124481 0.979248 0.697057
O O14 0.000000 0.955581 0.652829
O O15 0.178520 0.250000 0.248756
O O16 0.250000 0.500000 0.258746
#
# Coordination Sequence:
#
# PCOD8279975 Si02
#       5
#    16  16  16  16  16
#     4  11  22  38  61  87 117 153 192 232 276 328
#     4   9  16  27  46  74 108 144 182 225 274 327
#     4  10  20  34  54  81 112 145 184 231 279 328
#     4  10  22  40  61  86 116 148 185 231 281 332
#     4  11  23  39  59  82 110 146 186 229 279 334
#
# _framework density 19.400378
#
# number of rings (size 3 to 8) (size 9 to 14) (size 15 to 20)
#    0.000    1.800    0.000    5.400    0.000    8.400 
#    0.000    0.000    0.000    0.600    0.000    4.200 
#    0.000    0.000    0.000    0.000    0.000    0.000 
#
# Total GULP energy -496179.242367 kJ/mol
# GULP energy per Si atom -12404.481059 kJ/mol
# Density = 1.935622 g / cm^3
# Si number density = 19.400378 Si / 1000 Ang^3
#
#
#
# Elastic Constant Matrix: (Units=GPa)
#
#
# Indices 1 2 3 4 5 6 
#
# 1 94.9395 50.1597 74.6880 0.0000 0.0000 0.0000
# 2 50.1597 113.1795 60.6801 0.0000 0.0000 0.0000
# 3 74.6880 60.6801 154.1790 0.0000 0.0000 0.0000
# 4 0.0000 0.0000 0.0000 37.7048 0.0000 0.0000
# 5 0.0000 0.0000 0.0000 0.0000 -1.5743 0.0000
# 6 0.0000 0.0000 0.0000 0.0000 0.0000 15.3637
#
#
#
# Elastic Compliance Matrix: (Units=1/GPa)
#
#
# Indices 1 2 3 4 5 6 
#
# 1 0.018542 -0.004312 -0.007285 0.000000 0.000000 0.000000
# 2 -0.004312 0.012201 -0.002713 0.000000 0.000000 0.000000
# 3 -0.007285 -0.002713 0.011083 0.000000 0.000000 0.000000
# 4 0.000000 0.000000 0.000000 0.026522 0.000000 0.000000
# 5 0.000000 0.000000 0.000000 0.000000 -0.635199 0.000000
# 6 0.000000 0.000000 0.000000 0.000000 0.000000 0.065089
#
#
# Mechanical properties :
#
#
# Convention : Reuss Voigt Hill
#
# Bulk Modulus (GPa) = 75.72476 81.48376 78.60426
# Shear Modulus (GPa) = -10.66692 22.08351 5.70830
#
# Velocity S-wave (km/s) = -2.34739 3.37754 1.71719
# Velocity P-wave (km/s) = 5.63652 7.56985 6.67357
#
# Compressibility (1/GPa) = 0.01320572
#
# Stress axis : x y z
#
# Youngs Moduli (GPa) = 53.93030 81.95963 90.22771
#
# Poissons Ratio (x) = 0.35339 0.65735
# Poissons Ratio (y) = 0.23253 0.24481
# Poissons Ratio (z) = 0.39291 0.22238
#
# Static dielectric constant tensor:
#      x y z
#    x 3.275780 0.000000 0.000000 
#    y 0.000000 3.688320 0.000000 
#    z 0.000000 0.000000 3.755060 
# 
# 
# High freq. dielectric constant tensor:
#      x y z
#    x 1.730840 0.000000 0.000000 
#    y 0.000000 1.768030 0.000000 
#    z 0.000000 0.000000 1.772200 
# 
# From -- ./inp_files/43225.got.cif
#   From: 2010.03.12/outbox.cif.g09.slc.cpg/sg67_22_cif.got.tgz:43225.got - 2010.04.10 22:41:39.
