data_PCOD8279133
_publ_section_title
;
Structure prediction by ZEFSAII (Michael W. Deem and Ramdas Pophale) SiO2 
 PCOD8279133
Probable space group: C M M A
;
_chemical_formula_sum "Si O2"
_cell_formula_units_Z 88
_cell_length_a 33.738843
_cell_length_b 25.633149
_cell_length_c 5.034099
_cell_angle_alpha 90.000000
_cell_angle_beta 90.000000
_cell_angle_gamma 90.000000
_cell_volume 4353.653882
_symmetry_space_group_name_H-M "C M M A"
_symmetry_group_IT_number 67
_symmetry_cell_setting 'orthorhombic'
loop_
_space_group_symop_operation_xyz
x,y,z
-x,1/2-y,z
x,-y,-z
-x,1/2+y,-z
-x,-y,-z
x,1/2+y,-z
-x,y,z
x,1/2-y,z
1/2+x,1/2+y,z
1/2-x,-y,z
1/2+x,1/2-y,-z
1/2-x,y,-z
1/2-x,1/2-y,-z
1/2+x,y,-z
1/2-x,1/2+y,z
1/2+x,-y,z
loop_
_atom_site_type_symbol
_atom_site_label
_atom_site_fract_x
_atom_site_fract_y
_atom_site_fract_z
Si Si1 0.277805 0.862096 0.747622
Si Si2 0.858438 0.597190 0.392417
Si Si3 0.399648 0.056263 0.884939
Si Si4 0.222514 0.750000 0.246959
Si Si5 0.912485 0.309474 0.600567
Si Si6 0.954081 0.351204 0.118071
O O1 0.250000 0.856988 0.500000
O O2 0.311242 0.903847 0.663253
O O3 0.300694 0.805537 0.779464
O O4 0.250000 0.878102 0.000000
O O5 0.872289 0.555162 0.617018
O O6 0.875157 0.653929 0.480012
O O7 0.875087 0.585162 0.106501
O O8 0.439731 0.088996 0.832819
O O9 0.411442 0.000000 0.000000
O O10 0.250000 0.750000 0.500000
O O11 0.250000 0.750000 0.000000
O O12 0.897496 0.250000 0.598842
O O13 0.947076 0.317973 0.384309
O O14 0.930083 0.323304 0.885477
O O15 0.000000 0.352529 0.045318
#
# Coordination Sequence:
#
# PCOD8279133 Si02
#       6
#    16  16  16   8  16  16
#     4  10  19  33  53  79 111 144 181 224 271 317
#     4  10  21  36  57  82 109 145 187 229 276 338
#     4  10  21  39  59  80 106 141 185 235 289 335
#     4   8  16  28  44  72 104 138 171 204 255 312
#     4  10  21  35  53  80 115 154 185 218 269 330
#     4  10  21  36  55  83 111 141 188 231 273 334
#
# _framework density 20.212909
#
# number of rings (size 3 to 8) (size 9 to 14) (size 15 to 20)
#    0.000    2.182    0.000    2.727    1.273    2.545 
#    0.000    0.000    0.000   14.727    0.000    0.000 
#    0.000    0.000    0.000    0.000    0.000    0.000 
#
# Total GULP energy -545078.287702 kJ/mol
# GULP energy per Si atom -12388.142902 kJ/mol
# Density = 2.016690 g / cm^3
# Si number density = 20.212909 Si / 1000 Ang^3
#
#
#
# Elastic Constant Matrix: (Units=GPa)
#
#
# Indices 1 2 3 4 5 6 
#
# 1 55.8486 20.7099 14.7892 0.0000 0.0000 0.0000
# 2 20.7099 76.4623 7.3887 0.0000 0.0000 0.0000
# 3 14.7892 7.3887 108.2193 0.0000 0.0000 0.0000
# 4 0.0000 0.0000 0.0000 24.2908 0.0000 0.0000
# 5 0.0000 0.0000 0.0000 0.0000 21.3303 0.0000
# 6 0.0000 0.0000 0.0000 0.0000 0.0000 14.6903
#
#
#
# Elastic Compliance Matrix: (Units=1/GPa)
#
#
# Indices 1 2 3 4 5 6 
#
# 1 0.020526 -0.005324 -0.002442 0.000000 0.000000 0.000000
# 2 -0.005324 0.014546 -0.000266 0.000000 0.000000 0.000000
# 3 -0.002442 -0.000266 0.009592 0.000000 0.000000 0.000000
# 4 0.000000 0.000000 0.000000 0.041168 0.000000 0.000000
# 5 0.000000 0.000000 0.000000 0.000000 0.046882 0.000000
# 6 0.000000 0.000000 0.000000 0.000000 0.000000 0.068072
#
#
# Mechanical properties :
#
#
# Convention : Reuss Voigt Hill
#
# Bulk Modulus (GPa) = 34.96167 36.25620 35.60893
# Shear Modulus (GPa) = 22.08656 25.23844 23.66250
#
# Velocity S-wave (km/s) = 3.30918 3.53743 3.42521
# Velocity P-wave (km/s) = 5.65112 5.88733 5.77043
#
# Compressibility (1/GPa) = 0.02860275
#
# Stress axis : x y z
#
# Youngs Moduli (GPa) = 48.71810 68.74779 104.25024
#
# Poissons Ratio (x) = 0.36599 0.25454
# Poissons Ratio (y) = 0.25936 0.02769
# Poissons Ratio (z) = 0.11895 0.01826
#
# Static dielectric constant tensor:
#      x y z
#    x 3.419960 0.000000 0.000000 
#    y 0.000000 3.633730 0.000000 
#    z 0.000000 0.000000 3.787560 
# 
# 
# High freq. dielectric constant tensor:
#      x y z
#    x 1.762160 0.000000 0.000000 
#    y 0.000000 1.776830 0.000000 
#    z 0.000000 0.000000 1.813350 
# 
# From -- ./inp_files/4773.got.cif
#   From: 2010.03.12/outbox.cif.g09.slc.cpg/sg67_3_cif.got.tgz:4773.got - 2010.04.10 22:41:39.
