data_PCOD8279532
_publ_section_title
;
Structure prediction by ZEFSAII (Michael W. Deem and Ramdas Pophale) SiO2 
 PCOD8279532
Probable space group: C M M A
;
_chemical_formula_sum "Si O2"
_cell_formula_units_Z 96
_cell_length_a 8.984570
_cell_length_b 27.216363
_cell_length_c 23.512668
_cell_angle_alpha 90.000000
_cell_angle_beta 90.000000
_cell_angle_gamma 90.000000
_cell_volume 5749.489657
_symmetry_space_group_name_H-M "C M M A"
_symmetry_group_IT_number 67
_symmetry_cell_setting 'orthorhombic'
loop_
_space_group_symop_operation_xyz
x,y,z
-x,1/2-y,z
x,-y,-z
-x,1/2+y,-z
-x,-y,-z
x,1/2+y,-z
-x,y,z
x,1/2-y,z
1/2+x,1/2+y,z
1/2-x,-y,z
1/2+x,1/2-y,-z
1/2-x,y,-z
1/2-x,1/2-y,-z
1/2+x,y,-z
1/2-x,1/2+y,z
1/2+x,-y,z
loop_
_atom_site_type_symbol
_atom_site_label
_atom_site_fract_x
_atom_site_fract_y
_atom_site_fract_z
Si Si1 0.329643 0.853346 0.161374
Si Si2 0.325866 0.448732 0.442917
Si Si3 0.172666 0.895232 0.328112
Si Si4 0.325486 0.193925 0.057878
Si Si5 0.827149 0.549761 0.772086
Si Si6 0.326838 0.306105 0.721206
O O1 0.500000 0.844384 0.143439
O O2 0.225063 0.841126 0.108713
O O3 0.302018 0.909701 0.179118
O O4 0.285466 0.818037 0.213660
O O5 0.500000 0.457668 0.453587
O O6 0.250000 0.500000 0.425881
O O7 0.250000 0.427395 0.500000
O O8 0.298001 0.409848 0.393062
O O9 0.258696 0.932730 0.287396
O O10 0.231660 0.839784 0.321080
O O11 0.000000 0.897581 0.311958
O O12 0.500000 0.189055 0.050014
O O13 0.277429 0.250000 0.071195
O O14 0.250000 0.175389 0.000000
O O15 0.750000 0.500000 0.793270
O O16 0.000000 0.539974 0.761287
O O17 0.500000 0.317848 0.711178
O O18 0.286806 0.250000 0.707839
#
# Coordination Sequence:
#
# PCOD8279532 Si02
#       6
#    16  16  16  16  16  16
#     4   9  18  32  49  70  97 126 156 192 234 280
#     4  10  20  32  48  70  95 124 157 194 237 283
#     4  10  20  32  48  72  99 127 159 196 238 283
#     4  10  20  32  48  71  97 126 159 194 234 279
#     4  10  20  33  50  72  98 129 161 195 237 283
#     4   9  18  32  50  72  98 129 161 194 237 285
#
# _framework density 16.697134999999999
#
# number of rings (size 3 to 8) (size 9 to 14) (size 15 to 20)
#    0.000    2.333    0.000    4.500    0.000    9.333 
#    0.000    0.000    0.000    1.000    0.000    3.500 
#    0.000    0.000    0.000    0.000    0.000    0.000 
#
# Total GULP energy -595329.188768 kJ/mol
# GULP energy per Si atom -12402.691433 kJ/mol
# Density = 1.665913 g / cm^3
# Si number density = 16.697135 Si / 1000 Ang^3
#
#
#
# Elastic Constant Matrix: (Units=GPa)
#
#
# Indices 1 2 3 4 5 6 
#
# 1 107.9807 55.1114 64.3268 0.0000 0.0000 0.0000
# 2 55.1114 96.8176 56.8523 0.0000 0.0000 0.0000
# 3 64.3268 56.8523 109.9998 0.0000 0.0000 0.0000
# 4 0.0000 0.0000 0.0000 22.6147 0.0000 0.0000
# 5 0.0000 0.0000 0.0000 0.0000 31.9112 0.0000
# 6 0.0000 0.0000 0.0000 0.0000 0.0000 30.4964
#
#
#
# Elastic Compliance Matrix: (Units=1/GPa)
#
#
# Indices 1 2 3 4 5 6 
#
# 1 0.015804 -0.005124 -0.006594 0.000000 0.000000 0.000000
# 2 -0.005124 0.016491 -0.005526 0.000000 0.000000 0.000000
# 3 -0.006594 -0.005526 0.015803 0.000000 0.000000 0.000000
# 4 0.000000 0.000000 0.000000 0.044219 0.000000 0.000000
# 5 0.000000 0.000000 0.000000 0.000000 0.031337 0.000000
# 6 0.000000 0.000000 0.000000 0.000000 0.000000 0.032791
#
#
# Mechanical properties :
#
#
# Convention : Reuss Voigt Hill
#
# Bulk Modulus (GPa) = 73.47956 74.15325 73.81640
# Shear Modulus (GPa) = 25.57930 26.23832 25.90881
#
# Velocity S-wave (km/s) = 3.91827 3.96842 3.94343
# Velocity P-wave (km/s) = 8.03575 8.09352 8.06468
#
# Compressibility (1/GPa) = 0.01360923
#
# Stress axis : x y z
#
# Youngs Moduli (GPa) = 63.27363 60.63977 63.27851
#
# Poissons Ratio (x) = 0.31074 0.41724
# Poissons Ratio (y) = 0.32424 0.34970
# Poissons Ratio (z) = 0.41721 0.33512
#
# Static dielectric constant tensor:
#      x y z
#    x 3.229370 0.000000 0.000000 
#    y 0.000000 3.143480 0.000000 
#    z 0.000000 0.000000 3.001680 
# 
# 
# High freq. dielectric constant tensor:
#      x y z
#    x 1.657160 0.000000 0.000000 
#    y 0.000000 1.633380 0.000000 
#    z 0.000000 0.000000 1.631000 
# 
# From -- ./inp_files/39877.got.cif
#   From: 2010.03.12/outbox.cif.g09.slc.cpg/sg67_20_cif.got.tgz:39877.got - 2010.04.10 22:41:39.
