data_PCOD8279001
_publ_section_title
;
Structure prediction by ZEFSAII (Michael W. Deem and Ramdas Pophale) SiO2 
 PCOD8279001
Probable space group: C M M A
;
_chemical_formula_sum "Si O2"
_cell_formula_units_Z 80
_cell_length_a 27.749202
_cell_length_b 16.460406
_cell_length_c 9.521690
_cell_angle_alpha 90.000000
_cell_angle_beta 90.000000
_cell_angle_gamma 90.000000
_cell_volume 4349.156938
_symmetry_space_group_name_H-M "C M M A"
_symmetry_group_IT_number 67
_symmetry_cell_setting 'orthorhombic'
loop_
_space_group_symop_operation_xyz
x,y,z
-x,1/2-y,z
x,-y,-z
-x,1/2+y,-z
-x,-y,-z
x,1/2+y,-z
-x,y,z
x,1/2-y,z
1/2+x,1/2+y,z
1/2-x,-y,z
1/2+x,1/2-y,-z
1/2-x,y,-z
1/2-x,1/2-y,-z
1/2+x,y,-z
1/2-x,1/2+y,z
1/2+x,-y,z
loop_
_atom_site_type_symbol
_atom_site_label
_atom_site_fract_x
_atom_site_fract_y
_atom_site_fract_z
Si Si1 0.555121 0.412388 0.759261
Si Si2 0.633362 0.658095 0.416223
Si Si3 0.697709 0.979838 0.337774
Si Si4 0.608683 0.574190 0.708276
Si Si5 0.054344 0.342346 0.944999
O O1 0.500000 0.395745 0.718400
O O2 0.587518 0.343737 0.686219
O O3 0.569527 0.501921 0.705304
O O4 0.562775 0.404227 0.926690
O O5 0.649430 0.750000 0.446890
O O6 0.678715 0.613599 0.338330
O O7 0.614832 0.615057 0.557385
O O8 0.698879 0.000000 0.500000
O O9 0.750000 0.000000 0.270465
O O10 0.660350 0.035428 0.250748
O O11 0.592661 0.640065 0.822394
O O12 0.062091 0.250000 0.996326
O O13 0.000000 0.353947 0.886203
#
# Coordination Sequence:
#
# PCOD8279001 Si02
#       5
#    16  16  16  16  16
#     4  10  20  34  51  70  98 141 179 201 238 302
#     4  10  20  33  51  77 105 130 163 210 255 292
#     4   8  16  33  53  73  99 129 164 202 246 303
#     4  10  19  32  52  75  99 128 166 211 252 294
#     4  10  20  33  49  72 102 133 168 210 251 292
#
# _framework density 18.394369000000001
#
# number of rings (size 3 to 8) (size 9 to 14) (size 15 to 20)
#    0.000    2.400    0.000    4.200    0.000    5.200 
#    0.000    9.000    0.000    9.600    0.000    7.000 
#    0.000    0.000    0.000    0.000    0.000    0.000 
#
# Total GULP energy -495698.595980 kJ/mol
# GULP energy per Si atom -12392.464899 kJ/mol
# Density = 1.835250 g / cm^3
# Si number density = 18.394369 Si / 1000 Ang^3
#
#
#
# Elastic Constant Matrix: (Units=GPa)
#
#
# Indices 1 2 3 4 5 6 
#
# 1 137.8387 51.6602 43.8476 0.0000 0.0000 0.0000
# 2 51.6602 106.0853 30.8374 0.0000 0.0000 0.0000
# 3 43.8476 30.8374 58.1149 0.0000 0.0000 0.0000
# 4 0.0000 0.0000 0.0000 27.1566 0.0000 0.0000
# 5 0.0000 0.0000 0.0000 0.0000 9.5935 0.0000
# 6 0.0000 0.0000 0.0000 0.0000 0.0000 15.1926
#
#
#
# Elastic Compliance Matrix: (Units=1/GPa)
#
#
# Indices 1 2 3 4 5 6 
#
# 1 0.010442 -0.003304 -0.006125 0.000000 0.000000 0.000000
# 2 -0.003304 0.012191 -0.003976 0.000000 0.000000 0.000000
# 3 -0.006125 -0.003976 0.023938 0.000000 0.000000 0.000000
# 4 0.000000 0.000000 0.000000 0.036823 0.000000 0.000000
# 5 0.000000 0.000000 0.000000 0.000000 0.104237 0.000000
# 6 0.000000 0.000000 0.000000 0.000000 0.000000 0.065822
#
#
# Mechanical properties :
#
#
# Convention : Reuss Voigt Hill
#
# Bulk Modulus (GPa) = 50.60492 61.63660 56.12076
# Shear Modulus (GPa) = 17.43068 22.10145 19.76607
#
# Velocity S-wave (km/s) = 3.08167 3.47007 3.28162
# Velocity P-wave (km/s) = 6.34295 7.04531 6.70334
#
# Compressibility (1/GPa) = 0.01976093
#
# Stress axis : x y z
#
# Youngs Moduli (GPa) = 95.77037 82.02619 41.77432
#
# Poissons Ratio (x) = 0.27104 0.25586
# Poissons Ratio (y) = 0.31646 0.16609
# Poissons Ratio (z) = 0.58658 0.32613
#
# Static dielectric constant tensor:
#      x y z
#    x 3.855270 0.000000 0.000000 
#    y 0.000000 3.385820 0.000000 
#    z 0.000000 0.000000 3.207680 
# 
# 
# High freq. dielectric constant tensor:
#      x y z
#    x 1.706740 0.000000 0.000000 
#    y 0.000000 1.715160 0.000000 
#    z 0.000000 0.000000 1.690710 
# 
# From -- ./inp_files/9905.got.cif
#   From: 2010.03.12/outbox.cif.g09.slc.cpg/sg67_5_cif.got.tgz:9905.got - 2010.04.10 22:41:39.
