data_PCOD8279129
_publ_section_title
;
Structure prediction by ZEFSAII (Michael W. Deem and Ramdas Pophale) SiO2 
 PCOD8279129
Probable space group: C M M A
;
_chemical_formula_sum "Si O2"
_cell_formula_units_Z 64
_cell_length_a 8.835047
_cell_length_b 15.327309
_cell_length_c 24.528604
_cell_angle_alpha 90.000000
_cell_angle_beta 90.000000
_cell_angle_gamma 90.000000
_cell_volume 3321.602119
_symmetry_space_group_name_H-M "C M M A"
_symmetry_group_IT_number 67
_symmetry_cell_setting 'orthorhombic'
loop_
_space_group_symop_operation_xyz
x,y,z
-x,1/2-y,z
x,-y,-z
-x,1/2+y,-z
-x,-y,-z
x,1/2+y,-z
-x,y,z
x,1/2-y,z
1/2+x,1/2+y,z
1/2-x,-y,z
1/2+x,1/2-y,-z
1/2-x,y,-z
1/2-x,1/2-y,-z
1/2+x,y,-z
1/2-x,1/2+y,z
1/2+x,-y,z
loop_
_atom_site_type_symbol
_atom_site_label
_atom_site_fract_x
_atom_site_fract_y
_atom_site_fract_z
Si Si1 0.822966 0.093854 0.828158
Si Si2 0.176266 0.594304 0.051543
Si Si3 0.179079 0.750000 0.367709
Si Si4 0.819264 0.091029 0.558215
Si Si5 0.180915 0.750000 0.245373
O O1 0.790595 0.134419 0.888655
O O2 0.757822 0.163402 0.784923
O O3 0.000000 0.079838 0.820091
O O4 0.750000 0.000000 0.817966
O O5 0.250000 0.500000 0.052636
O O6 0.000000 0.587424 0.040182
O O7 0.250000 0.647162 0.000000
O O8 0.234624 0.663924 0.399089
O O9 0.246284 0.750000 0.306700
O O10 0.000000 0.750000 0.364898
O O11 0.750000 0.116533 0.500000
O O12 0.000000 0.084196 0.553291
O O13 0.750000 0.000000 0.578983
O O14 0.000000 0.750000 0.244002
#
# Coordination Sequence:
#
# PCOD8279129 Si02
#       5
#    16  16   8  16   8
#     4   9  18  32  52  72  95 127 164 202 246 294
#     4   9  15  24  41  67  92 119 153 193 240 293
#     4   9  19  33  52  75 101 133 170 205 242 286
#     4  10  19  33  53  79 106 134 165 201 243 291
#     4   9  18  35  53  71  97 133 170 203 240 294
#
# _framework density 19.267810999999998
#
# number of rings (size 3 to 8) (size 9 to 14) (size 15 to 20)
#    0.000    2.750    0.000    3.375    0.000    2.000 
#    0.000    3.125    0.000    4.500    0.000    0.000 
#    0.000    0.000    0.000    0.000    0.000    0.000 
#
# Total GULP energy -396525.674681 kJ/mol
# GULP energy per Si atom -12391.427334 kJ/mol
# Density = 1.922396 g / cm^3
# Si number density = 19.267811 Si / 1000 Ang^3
#
#
#
# Elastic Constant Matrix: (Units=GPa)
#
#
# Indices 1 2 3 4 5 6 
#
# 1 64.7485 34.1910 45.3861 0.0000 0.0000 0.0000
# 2 34.1910 131.8806 103.1758 0.0000 0.0000 0.0000
# 3 45.3861 103.1758 185.4143 0.0000 0.0000 0.0000
# 4 0.0000 0.0000 0.0000 9.9513 0.0000 0.0000
# 5 0.0000 0.0000 0.0000 0.0000 16.6969 0.0000
# 6 0.0000 0.0000 0.0000 0.0000 0.0000 14.8453
#
#
#
# Elastic Compliance Matrix: (Units=1/GPa)
#
#
# Indices 1 2 3 4 5 6 
#
# 1 0.019023 -0.002283 -0.003386 0.000000 0.000000 0.000000
# 2 -0.002283 0.013703 -0.007066 0.000000 0.000000 0.000000
# 3 -0.003386 -0.007066 0.010154 0.000000 0.000000 0.000000
# 4 0.000000 0.000000 0.000000 0.100489 0.000000 0.000000
# 5 0.000000 0.000000 0.000000 0.000000 0.059891 0.000000
# 6 0.000000 0.000000 0.000000 0.000000 0.000000 0.067361
#
#
# Mechanical properties :
#
#
# Convention : Reuss Voigt Hill
#
# Bulk Modulus (GPa) = 57.43862 83.06102 70.24982
# Shear Modulus (GPa) = 16.56200 21.58475 19.07338
#
# Velocity S-wave (km/s) = 2.93502 3.35064 3.14969
# Velocity P-wave (km/s) = 6.43127 7.62702 7.05452
#
# Compressibility (1/GPa) = 0.01740989
#
# Stress axis : x y z
#
# Youngs Moduli (GPa) = 52.56663 72.97879 98.48017
#
# Poissons Ratio (x) = 0.16658 0.33349
# Poissons Ratio (y) = 0.11999 0.69588
# Poissons Ratio (z) = 0.17801 0.51568
#
# Static dielectric constant tensor:
#      x y z
#    x 3.324650 0.000000 0.000000 
#    y 0.000000 3.421120 0.000000 
#    z 0.000000 0.000000 4.380480 
# 
# 
# High freq. dielectric constant tensor:
#      x y z
#    x 1.728780 0.000000 0.000000 
#    y 0.000000 1.735070 0.000000 
#    z 0.000000 0.000000 1.761160 
# 
# From -- ./inp_files/40434.got.cif
#   From: 2010.03.12/outbox.cif.g09.slc.cpg/sg67_21_cif.got.tgz:40434.got - 2010.04.10 22:41:39.
