data_PCOD8279295
_publ_section_title
;
Structure prediction by ZEFSAII (Michael W. Deem and Ramdas Pophale) SiO2 
 PCOD8279295
Probable space group: C M M A
;
_chemical_formula_sum "Si O2"
_cell_formula_units_Z 96
_cell_length_a 20.355427
_cell_length_b 18.640152
_cell_length_c 13.887762
_cell_angle_alpha 90.000000
_cell_angle_beta 90.000000
_cell_angle_gamma 90.000000
_cell_volume 5269.409278
_symmetry_space_group_name_H-M "C M M A"
_symmetry_group_IT_number 67
_symmetry_cell_setting 'orthorhombic'
loop_
_space_group_symop_operation_xyz
x,y,z
-x,1/2-y,z
x,-y,-z
-x,1/2+y,-z
-x,-y,-z
x,1/2+y,-z
-x,y,z
x,1/2-y,z
1/2+x,1/2+y,z
1/2-x,-y,z
1/2+x,1/2-y,-z
1/2-x,y,-z
1/2-x,1/2-y,-z
1/2+x,y,-z
1/2-x,1/2+y,z
1/2+x,-y,z
loop_
_atom_site_type_symbol
_atom_site_label
_atom_site_fract_x
_atom_site_fract_y
_atom_site_fract_z
Si Si1 0.262777 0.671753 0.386933
Si Si2 0.424400 0.473962 0.257078
Si Si3 0.317832 0.526858 0.391587
Si Si4 0.355337 0.330632 0.242292
Si Si5 0.678268 0.668147 0.977223
Si Si6 0.573576 0.936086 0.073559
O O1 0.287975 0.750000 0.351684
O O2 0.250000 0.673903 0.500000
O O3 0.319656 0.612782 0.374587
O O4 0.197669 0.651034 0.325714
O O5 0.500000 0.486625 0.279048
O O6 0.383638 0.494974 0.349807
O O7 0.413484 0.389033 0.240289
O O8 0.400676 0.526372 0.171276
O O9 0.315769 0.500000 0.500000
O O10 0.250000 0.500000 0.341345
O O11 0.383693 0.250000 0.259426
O O12 0.324048 0.336186 0.137384
O O13 0.671115 0.750000 0.013347
O O14 0.750000 0.636362 0.000000
O O15 0.623093 0.624084 0.035091
O O16 0.500000 0.902689 0.086392
O O17 0.568723 0.000000 0.000000
#
# Coordination Sequence:
#
# PCOD8279295 Si02
#       6
#    16  16  16  16  16  16
#     4  10  19  34  57  84 113 145 181 225 276 333
#     4  11  23  37  56  82 112 149 190 232 278 332
#     4  11  20  36  58  86 115 146 187 230 276 342
#     4  10  20  35  55  82 113 144 182 230 287 337
#     4  10  22  37  55  83 113 141 182 236 286 330
#     4  10  21  38  55  76 108 147 190 225 269 335
#
# _framework density 18.218361999999999
#
# number of rings (size 3 to 8) (size 9 to 14) (size 15 to 20)
#    0.000    1.667    5.000    0.000    2.333    1.333 
#    0.000    1.667    0.000    1.500    0.000    0.000 
#    0.000    0.000    0.000    0.000    0.000    0.000 
#
# Total GULP energy -594754.537445 kJ/mol
# GULP energy per Si atom -12390.719530 kJ/mol
# Density = 1.817690 g / cm^3
# Si number density = 18.218362 Si / 1000 Ang^3
#
#
#
# Elastic Constant Matrix: (Units=GPa)
#
#
# Indices 1 2 3 4 5 6 
#
# 1 100.8439 57.2454 46.8494 0.0000 0.0000 0.0000
# 2 57.2454 117.6390 33.0197 0.0000 0.0000 0.0000
# 3 46.8494 33.0197 76.3912 0.0000 0.0000 0.0000
# 4 0.0000 0.0000 0.0000 28.5338 0.0000 0.0000
# 5 0.0000 0.0000 0.0000 0.0000 25.1286 0.0000
# 6 0.0000 0.0000 0.0000 0.0000 0.0000 3.9079
#
#
#
# Elastic Compliance Matrix: (Units=1/GPa)
#
#
# Indices 1 2 3 4 5 6 
#
# 1 0.016986 -0.006079 -0.007790 0.000000 0.000000 0.000000
# 2 -0.006079 0.011850 -0.001394 0.000000 0.000000 0.000000
# 3 -0.007790 -0.001394 0.018470 0.000000 0.000000 0.000000
# 4 0.000000 0.000000 0.000000 0.035046 0.000000 0.000000
# 5 0.000000 0.000000 0.000000 0.000000 0.039795 0.000000
# 6 0.000000 0.000000 0.000000 0.000000 0.000000 0.255890
#
#
# Mechanical properties :
#
#
# Convention : Reuss Voigt Hill
#
# Bulk Modulus (GPa) = 59.59100 63.23369 61.41234
# Shear Modulus (GPa) = 12.07272 22.03138 17.05205
#
# Velocity S-wave (km/s) = 2.57703 3.48126 3.06270
# Velocity P-wave (km/s) = 6.45252 7.13744 6.80361
#
# Compressibility (1/GPa) = 0.01678106
#
# Stress axis : x y z
#
# Youngs Moduli (GPa) = 58.87147 84.38718 54.14142
#
# Poissons Ratio (x) = 0.51302 0.42174
# Poissons Ratio (y) = 0.35790 0.07546
# Poissons Ratio (z) = 0.45858 0.11762
#
# Static dielectric constant tensor:
#      x y z
#    x 3.335730 0.000000 0.000000 
#    y 0.000000 3.791120 0.000000 
#    z 0.000000 0.000000 3.320050 
# 
# 
# High freq. dielectric constant tensor:
#      x y z
#    x 1.681070 0.000000 0.000000 
#    y 0.000000 1.721430 0.000000 
#    z 0.000000 0.000000 1.709450 
# 
# From -- ./inp_files/27224.got.cif
#   From: 2010.03.12/outbox.cif.g09.slc.cpg/sg67_14_cif.got.tgz:27224.got - 2010.04.10 22:41:39.
