data_PCOD8279429
_publ_section_title
;
Structure prediction by ZEFSAII (Michael W. Deem and Ramdas Pophale) SiO2 
 PCOD8279429
Probable space group: C M M A
;
_chemical_formula_sum "Si O2"
_cell_formula_units_Z 88
_cell_length_a 14.505044
_cell_length_b 14.250447
_cell_length_c 20.157450
_cell_angle_alpha 90.000000
_cell_angle_beta 90.000000
_cell_angle_gamma 90.000000
_cell_volume 4166.612659
_symmetry_space_group_name_H-M "C M M A"
_symmetry_group_IT_number 67
_symmetry_cell_setting 'orthorhombic'
loop_
_space_group_symop_operation_xyz
x,y,z
-x,1/2-y,z
x,-y,-z
-x,1/2+y,-z
-x,-y,-z
x,1/2+y,-z
-x,y,z
x,1/2-y,z
1/2+x,1/2+y,z
1/2-x,-y,z
1/2+x,1/2-y,-z
1/2-x,y,-z
1/2-x,1/2-y,-z
1/2+x,y,-z
1/2-x,1/2+y,z
1/2+x,-y,z
loop_
_atom_site_type_symbol
_atom_site_label
_atom_site_fract_x
_atom_site_fract_y
_atom_site_fract_z
Si Si1 0.277396 0.148291 0.604360
Si Si2 0.500000 0.140198 0.118067
Si Si3 0.815296 0.361202 0.811117
Si Si4 0.250000 0.000000 0.703503
Si Si5 0.197104 0.361109 0.064713
Si Si6 0.500000 0.861984 0.028215
Si Si7 0.104989 0.107520 0.517844
O O1 0.274690 0.250000 0.640007
O O2 0.172704 0.124965 0.580075
O O3 0.350440 0.158980 0.545097
O O4 0.311128 0.067942 0.655859
O O5 0.500000 0.250000 0.105072
O O6 0.412329 0.109727 0.159193
O O7 0.500000 0.092619 0.045457
O O8 0.808055 0.250000 0.793773
O O9 0.808397 0.426357 0.746508
O O10 0.740196 0.393327 0.865642
O O11 0.204281 0.250000 0.059690
O O12 0.091528 0.396643 0.066023
O O13 0.250000 0.403040 0.000000
O O14 0.500000 0.750000 0.023948
O O15 0.000000 0.143848 0.532072
O O16 0.103220 0.000000 0.500000
#
# Coordination Sequence:
#
# PCOD8279429 Si02
#       7
#    16   8  16   8  16   8  16
#     4  11  22  40  66  93 125 162 201 246 296 348
#     4   9  16  32  59  91 114 143 195 252 313 368
#     4  10  21  38  61  85 116 159 201 246 304 365
#     4  12  24  43  55  80 124 166 208 246 282 346
#     4   9  15  27  53  85 111 145 192 246 310 366
#     4   9  14  24  53  89 115 138 185 255 315 375
#     4  10  19  38  69 101 130 156 190 245 304 351
#
# _framework density 21.120274999999999
#
# number of rings (size 3 to 8) (size 9 to 14) (size 15 to 20)
#    0.000    2.000    3.636    2.182    0.000    1.455 
#    3.273    1.364    0.000    1.091    0.000    0.000 
#    0.000    0.000    0.000    0.000    0.000    0.000 
#
# Total GULP energy -545203.442961 kJ/mol
# GULP energy per Si atom -12390.987340 kJ/mol
# Density = 2.107220 g / cm^3
# Si number density = 21.120275 Si / 1000 Ang^3
#
#
#
# Elastic Constant Matrix: (Units=GPa)
#
#
# Indices 1 2 3 4 5 6 
#
# 1 156.2114 24.9314 44.1349 0.0000 0.0000 0.0000
# 2 24.9314 101.6195 43.7027 0.0000 0.0000 0.0000
# 3 44.1349 43.7027 110.4976 0.0000 0.0000 0.0000
# 4 0.0000 0.0000 0.0000 20.3585 0.0000 0.0000
# 5 0.0000 0.0000 0.0000 0.0000 -5.7458 0.0000
# 6 0.0000 0.0000 0.0000 0.0000 0.0000 11.9154
#
#
#
# Elastic Compliance Matrix: (Units=1/GPa)
#
#
# Indices 1 2 3 4 5 6 
#
# 1 0.007251 -0.000643 -0.002642 0.000000 0.000000 0.000000
# 2 -0.000643 0.011914 -0.004456 0.000000 0.000000 0.000000
# 3 -0.002642 -0.004456 0.011867 0.000000 0.000000 0.000000
# 4 0.000000 0.000000 0.000000 0.049119 0.000000 0.000000
# 5 0.000000 0.000000 0.000000 0.000000 -0.174039 0.000000
# 6 0.000000 0.000000 0.000000 0.000000 0.000000 0.083925
#
#
# Mechanical properties :
#
#
# Convention : Reuss Voigt Hill
#
# Bulk Modulus (GPa) = 64.29946 65.98518 65.14232
# Shear Modulus (GPa) = 467.22392 22.34293 244.78342
#
# Velocity S-wave (km/s) = 14.88962 3.25605 10.77735
# Velocity P-wave (km/s) = 18.05856 6.74138 13.63007
#
# Compressibility (1/GPa) = 0.01555223
#
# Stress axis : x y z
#
# Youngs Moduli (GPa) = 137.92038 83.93151 84.26461
#
# Poissons Ratio (x) = 0.05394 0.22261
# Poissons Ratio (y) = 0.08864 0.37545
# Poissons Ratio (z) = 0.36436 0.37396
#
# Static dielectric constant tensor:
#      x y z
#    x 3.894060 0.000000 0.000000 
#    y 0.000000 3.784960 0.000000 
#    z 0.000000 0.000000 3.769180 
# 
# 
# High freq. dielectric constant tensor:
#      x y z
#    x 1.813060 0.000000 0.000000 
#    y 0.000000 1.838080 0.000000 
#    z 0.000000 0.000000 1.808950 
# 
# From -- ./inp_files/38342.got.cif
#   From: 2010.03.12/outbox.cif.g09.slc.cpg/sg67_20_cif.got.tgz:38342.got - 2010.04.10 22:41:39.
