data_PCOD8279216
_publ_section_title
;
Structure prediction by ZEFSAII (Michael W. Deem and Ramdas Pophale) SiO2 
 PCOD8279216
Probable space group: C M M A
;
_chemical_formula_sum "Si O2"
_cell_formula_units_Z 96
_cell_length_a 15.433650
_cell_length_b 18.813865
_cell_length_c 17.850382
_cell_angle_alpha 90.000000
_cell_angle_beta 90.000000
_cell_angle_gamma 90.000000
_cell_volume 5183.154865
_symmetry_space_group_name_H-M "C M M A"
_symmetry_group_IT_number 67
_symmetry_cell_setting 'orthorhombic'
loop_
_space_group_symop_operation_xyz
x,y,z
-x,1/2-y,z
x,-y,-z
-x,1/2+y,-z
-x,-y,-z
x,1/2+y,-z
-x,y,z
x,1/2-y,z
1/2+x,1/2+y,z
1/2-x,-y,z
1/2+x,1/2-y,-z
1/2-x,y,-z
1/2-x,1/2-y,-z
1/2+x,y,-z
1/2-x,1/2+y,z
1/2+x,-y,z
loop_
_atom_site_type_symbol
_atom_site_label
_atom_site_fract_x
_atom_site_fract_y
_atom_site_fract_z
Si Si1 0.273251 0.418726 0.332191
Si Si2 0.259607 0.583732 0.837963
Si Si3 0.671923 0.329406 0.558947
Si Si4 0.596061 0.432942 0.457618
Si Si5 0.401556 0.168334 0.894561
Si Si6 0.099095 0.831471 0.070580
O O1 0.250000 0.500000 0.339310
O O2 0.289781 0.398566 0.246278
O O3 0.196619 0.369350 0.364296
O O4 0.358934 0.407194 0.381415
O O5 0.250000 0.500000 0.853218
O O6 0.165892 0.618724 0.851285
O O7 0.334133 0.615511 0.890336
O O8 0.643959 0.250000 0.579925
O O9 0.750000 0.332139 0.500000
O O10 0.592921 0.368837 0.517783
O O11 0.642307 0.500000 0.500000
O O12 0.500000 0.455298 0.434211
O O13 0.500000 0.146752 0.872203
O O14 0.384158 0.250000 0.872443
O O15 0.388163 0.158095 0.982632
O O16 0.120189 0.750000 0.093038
O O17 0.000000 0.850086 0.093405
#
# Coordination Sequence:
#
# PCOD8279216 Si02
#       6
#    16  16  16  16  16  16
#     4  10  20  36  53  75 108 146 180 216 265 334
#     4  11  23  34  52  86 121 150 182 230 292 347
#     4   9  18  32  53  77 100 131 173 220 264 311
#     4  10  19  33  58  81  99 137 184 222 267 325
#     4   9  19  38  61  81 106 149 202 243 277 332
#     4   9  19  37  60  82 107 148 199 241 278 333
#
# _framework density 18.521538
#
# number of rings (size 3 to 8) (size 9 to 14) (size 15 to 20)
#    0.000    2.333    1.667    2.000    0.000    5.667 
#    0.000    5.000    0.000    0.000    0.000    0.000 
#    0.000    0.000    0.000    0.000    0.000    0.000 
#
# Total GULP energy -595020.193084 kJ/mol
# GULP energy per Si atom -12396.254023 kJ/mol
# Density = 1.847938 g / cm^3
# Si number density = 18.521538 Si / 1000 Ang^3
#
#
#
# Elastic Constant Matrix: (Units=GPa)
#
#
# Indices 1 2 3 4 5 6 
#
# 1 102.6185 46.5951 47.4436 0.0000 0.0000 0.0000
# 2 46.5951 121.6852 52.5148 0.0000 0.0000 0.0000
# 3 47.4436 52.5148 81.0935 0.0000 0.0000 0.0000
# 4 0.0000 0.0000 0.0000 93.7615 0.0000 0.0000
# 5 0.0000 0.0000 0.0000 0.0000 16.6221 0.0000
# 6 0.0000 0.0000 0.0000 0.0000 0.0000 28.0160
#
#
#
# Elastic Compliance Matrix: (Units=1/GPa)
#
#
# Indices 1 2 3 4 5 6 
#
# 1 0.013891 -0.002515 -0.006499 0.000000 0.000000 0.000000
# 2 -0.002515 0.011861 -0.006210 0.000000 0.000000 0.000000
# 3 -0.006499 -0.006210 0.020155 0.000000 0.000000 0.000000
# 4 0.000000 0.000000 0.000000 0.010665 0.000000 0.000000
# 5 0.000000 0.000000 0.000000 0.000000 0.060161 0.000000
# 6 0.000000 0.000000 0.000000 0.000000 0.000000 0.035694
#
#
# Mechanical properties :
#
#
# Convention : Reuss Voigt Hill
#
# Bulk Modulus (GPa) = 64.67930 66.50048 65.58989
# Shear Modulus (GPa) = 26.59214 38.26950 32.43082
#
# Velocity S-wave (km/s) = 3.79323 4.55050 4.18901
# Velocity P-wave (km/s) = 7.36082 7.97444 7.67377
#
# Compressibility (1/GPa) = 0.01546090
#
# Stress axis : x y z
#
# Youngs Moduli (GPa) = 71.98861 84.31261 49.61633
#
# Poissons Ratio (x) = 0.21201 0.32244
# Poissons Ratio (y) = 0.18102 0.30810
# Poissons Ratio (z) = 0.46782 0.52355
#
# Static dielectric constant tensor:
#      x y z
#    x 3.292490 0.000000 0.000000 
#    y 0.000000 3.511910 0.000000 
#    z 0.000000 0.000000 3.452850 
# 
# 
# High freq. dielectric constant tensor:
#      x y z
#    x 1.711360 0.000000 0.000000 
#    y 0.000000 1.722520 0.000000 
#    z 0.000000 0.000000 1.708830 
# 
# From -- ./inp_files/27198.got.cif
#   From: 2010.03.12/outbox.cif.g09.slc.cpg/sg67_14_cif.got.tgz:27198.got - 2010.04.10 22:41:39.
