data_PCOD8279986
_publ_section_title
;
Structure prediction by ZEFSAII (Michael W. Deem and Ramdas Pophale) SiO2 
 PCOD8279986
Probable space group: C M M A
;
_chemical_formula_sum "Si O2"
_cell_formula_units_Z 52
_cell_length_a 19.752646
_cell_length_b 9.546730
_cell_length_c 16.042814
_cell_angle_alpha 90.000000
_cell_angle_beta 90.000000
_cell_angle_gamma 90.000000
_cell_volume 3025.244422
_symmetry_space_group_name_H-M "C M M A"
_symmetry_group_IT_number 67
_symmetry_cell_setting 'orthorhombic'
loop_
_space_group_symop_operation_xyz
x,y,z
-x,1/2-y,z
x,-y,-z
-x,1/2+y,-z
-x,-y,-z
x,1/2+y,-z
-x,y,z
x,1/2-y,z
1/2+x,1/2+y,z
1/2-x,-y,z
1/2+x,1/2-y,-z
1/2-x,y,-z
1/2-x,1/2-y,-z
1/2+x,y,-z
1/2-x,1/2+y,z
1/2+x,-y,z
loop_
_atom_site_type_symbol
_atom_site_label
_atom_site_fract_x
_atom_site_fract_y
_atom_site_fract_z
Si Si1 0.421115 0.412885 0.759345
Si Si2 0.419697 0.095741 0.572493
Si Si3 0.189450 0.908937 0.159761
Si Si4 0.250000 0.500000 0.000000
O O1 0.500000 0.437457 0.776425
O O2 0.402456 0.250000 0.774493
O O3 0.401544 0.458533 0.665002
O O4 0.380991 0.513432 0.821871
O O5 0.500000 0.101638 0.563555
O O6 0.389156 0.250000 0.559567
O O7 0.387443 0.000000 0.500000
O O8 0.188440 0.750000 0.194146
O O9 0.201892 0.905350 0.059569
O O10 0.250000 0.000000 0.202897
#
# Coordination Sequence:
#
# PCOD8279986 Si02
#       4
#    16  16  16   4
#     4   9  18  32  50  75 107 136 164 204 251 291
#     4   8  14  25  42  66  97 133 167 199 237 283
#     4  10  20  34  55  76  98 128 166 206 246 300
#     4   8  22  36  56  76  96 124 164 208 246 300
#
# _framework density 17.188694000000002
#
# number of rings (size 3 to 8) (size 9 to 14) (size 15 to 20)
#    0.923    2.154    0.000    3.231    0.000    1.846 
#    0.000    3.846    0.000    0.923    0.000    6.462 
#    0.000    0.000    0.000    0.000    0.000    0.000 
#
# Total GULP energy -322108.180115 kJ/mol
# GULP energy per Si atom -12388.776158 kJ/mol
# Density = 1.714957 g / cm^3
# Si number density = 17.188694 Si / 1000 Ang^3
#
#
#
# Elastic Constant Matrix: (Units=GPa)
#
#
# Indices 1 2 3 4 5 6 
#
# 1 65.9386 56.2922 39.7316 0.0000 0.0000 0.0000
# 2 56.2922 120.5074 48.5806 0.0000 0.0000 0.0000
# 3 39.7316 48.5806 88.9050 0.0000 0.0000 0.0000
# 4 0.0000 0.0000 0.0000 27.9385 0.0000 0.0000
# 5 0.0000 0.0000 0.0000 0.0000 11.6437 0.0000
# 6 0.0000 0.0000 0.0000 0.0000 0.0000 22.1036
#
#
#
# Elastic Compliance Matrix: (Units=1/GPa)
#
#
# Indices 1 2 3 4 5 6 
#
# 1 0.028205 -0.010380 -0.006932 0.000000 0.000000 0.000000
# 2 -0.010380 0.014463 -0.003264 0.000000 0.000000 0.000000
# 3 -0.006932 -0.003264 0.016130 0.000000 0.000000 0.000000
# 4 0.000000 0.000000 0.000000 0.035793 0.000000 0.000000
# 5 0.000000 0.000000 0.000000 0.000000 0.085883 0.000000
# 6 0.000000 0.000000 0.000000 0.000000 0.000000 0.045242
#
#
# Mechanical properties :
#
#
# Convention : Reuss Voigt Hill
#
# Bulk Modulus (GPa) = 56.67821 62.72889 59.70355
# Shear Modulus (GPa) = 18.33179 21.05360 19.69269
#
# Velocity S-wave (km/s) = 3.26928 3.50358 3.38846
# Velocity P-wave (km/s) = 6.87725 7.27601 7.07944
#
# Compressibility (1/GPa) = 0.01764346
#
# Stress axis : x y z
#
# Youngs Moduli (GPa) = 35.45519 69.14156 61.99755
#
# Poissons Ratio (x) = 0.71772 0.42979
# Poissons Ratio (y) = 0.36804 0.20237
# Poissons Ratio (z) = 0.24579 0.22568
#
# Static dielectric constant tensor:
#      x y z
#    x 2.804320 0.000000 0.000000 
#    y 0.000000 3.283460 0.000000 
#    z 0.000000 0.000000 3.128200 
# 
# 
# High freq. dielectric constant tensor:
#      x y z
#    x 1.625030 0.000000 0.000000 
#    y 0.000000 1.664180 0.000000 
#    z 0.000000 0.000000 1.650500 
# 
# From -- ./inp_files/29708.got.cif
#   From: 2010.03.12/outbox.cif.g09.slc.cpg/sg67_15_cif.got.tgz:29708.got - 2010.04.10 22:41:39.
