data_PCOD8279538
_publ_section_title
;
Structure prediction by ZEFSAII (Michael W. Deem and Ramdas Pophale) SiO2 
 PCOD8279538
Probable space group: C M M A
;
_chemical_formula_sum "Si O2"
_cell_formula_units_Z 72
_cell_length_a 25.480513
_cell_length_b 10.160539
_cell_length_c 16.007779
_cell_angle_alpha 90.000000
_cell_angle_beta 90.000000
_cell_angle_gamma 90.000000
_cell_volume 4144.345887
_symmetry_space_group_name_H-M "C M M A"
_symmetry_group_IT_number 67
_symmetry_cell_setting 'orthorhombic'
loop_
_space_group_symop_operation_xyz
x,y,z
-x,1/2-y,z
x,-y,-z
-x,1/2+y,-z
-x,-y,-z
x,1/2+y,-z
-x,y,z
x,1/2-y,z
1/2+x,1/2+y,z
1/2-x,-y,z
1/2+x,1/2-y,-z
1/2-x,y,-z
1/2-x,1/2-y,-z
1/2+x,y,-z
1/2-x,1/2+y,z
1/2+x,-y,z
loop_
_atom_site_type_symbol
_atom_site_label
_atom_site_fract_x
_atom_site_fract_y
_atom_site_fract_z
Si Si1 0.137433 0.500000 0.500000
Si Si2 0.441494 0.395283 0.627514
Si Si3 0.103188 0.899853 0.249496
Si Si4 0.296534 0.897649 0.648260
Si Si5 0.939309 0.600162 0.071391
O O1 0.100407 0.595733 0.553153
O O2 0.173765 0.586782 0.439767
O O3 0.500000 0.413394 0.590589
O O4 0.435110 0.250000 0.667596
O O5 0.433779 0.503500 0.698763
O O6 0.085907 0.750000 0.270010
O O7 0.163710 0.922149 0.274959
O O8 0.096516 0.929448 0.151731
O O9 0.273351 0.750000 0.651497
O O10 0.250000 0.000000 0.657882
O O11 0.931088 0.750000 0.040054
O O12 0.000000 0.575667 0.095228
O O13 0.920595 0.500000 0.000000
#
# Coordination Sequence:
#
# PCOD8279538 Si02
#       5
#     8  16  16  16  16
#     4  10  20  34  50  68  96 130 164 200 246 296
#     4  10  20  32  48  72 100 130 166 205 241 283
#     4   9  19  35  52  71  98 133 166 196 240 295
#     4  10  21  35  52  71  92 122 162 207 250 292
#     4   9  17  30  50  76 104 131 158 189 228 279
#
# _framework density 17.373068
#
# number of rings (size 3 to 8) (size 9 to 14) (size 15 to 20)
#    0.000    2.444    0.000    2.000    0.000    8.444 
#    0.000    2.222    0.000    0.667    0.000    4.667 
#    0.000    0.000    0.000    0.000    0.000    0.000 
#
# Total GULP energy -446374.344337 kJ/mol
# GULP energy per Si atom -12399.287343 kJ/mol
# Density = 1.733353 g / cm^3
# Si number density = 17.373068 Si / 1000 Ang^3
#
#
#
# Elastic Constant Matrix: (Units=GPa)
#
#
# Indices 1 2 3 4 5 6 
#
# 1 92.6121 67.0351 52.0152 0.0000 0.0000 0.0000
# 2 67.0351 132.7511 68.4200 0.0000 0.0000 0.0000
# 3 52.0152 68.4200 119.6490 0.0000 0.0000 0.0000
# 4 0.0000 0.0000 0.0000 27.8484 0.0000 0.0000
# 5 0.0000 0.0000 0.0000 0.0000 14.9026 0.0000
# 6 0.0000 0.0000 0.0000 0.0000 0.0000 30.4898
#
#
#
# Elastic Compliance Matrix: (Units=1/GPa)
#
#
# Indices 1 2 3 4 5 6 
#
# 1 0.018133 -0.007222 -0.003753 0.000000 0.000000 0.000000
# 2 -0.007222 0.013557 -0.004613 0.000000 0.000000 0.000000
# 3 -0.003753 -0.004613 0.012627 0.000000 0.000000 0.000000
# 4 0.000000 0.000000 0.000000 0.035909 0.000000 0.000000
# 5 0.000000 0.000000 0.000000 0.000000 0.067103 0.000000
# 6 0.000000 0.000000 0.000000 0.000000 0.000000 0.032798
#
#
# Mechanical properties :
#
#
# Convention : Reuss Voigt Hill
#
# Bulk Modulus (GPa) = 76.09617 79.99474 78.04545
# Shear Modulus (GPa) = 23.18201 25.15095 24.16648
#
# Velocity S-wave (km/s) = 3.65686 3.80899 3.73370
# Velocity P-wave (km/s) = 7.85662 8.09257 7.97547
#
# Compressibility (1/GPa) = 0.01314127
#
# Stress axis : x y z
#
# Youngs Moduli (GPa) = 55.14668 73.75995 79.19430
#
# Poissons Ratio (x) = 0.53273 0.29722
# Poissons Ratio (y) = 0.39830 0.36531
# Poissons Ratio (z) = 0.20697 0.34024
#
# Static dielectric constant tensor:
#      x y z
#    x 3.170190 0.000000 0.000000 
#    y 0.000000 3.355340 0.000000 
#    z 0.000000 0.000000 3.123930 
# 
# 
# High freq. dielectric constant tensor:
#      x y z
#    x 1.659840 0.000000 0.000000 
#    y 0.000000 1.684890 0.000000 
#    z 0.000000 0.000000 1.652610 
# 
# From -- ./inp_files/26014.got.cif
#   From: 2010.03.12/outbox.cif.g09.slc.cpg/sg67_14_cif.got.tgz:26014.got - 2010.04.10 22:41:39.
