data_PCOD8279737
_publ_section_title
;
Structure prediction by ZEFSAII (Michael W. Deem and Ramdas Pophale) SiO2 
 PCOD8279737
Probable space group: C M M A
;
_chemical_formula_sum "Si O2"
_cell_formula_units_Z 112
_cell_length_a 24.886146
_cell_length_b 17.107981
_cell_length_c 13.990915
_cell_angle_alpha 90.000000
_cell_angle_beta 90.000000
_cell_angle_gamma 90.000000
_cell_volume 5956.656027
_symmetry_space_group_name_H-M "C M M A"
_symmetry_group_IT_number 67
_symmetry_cell_setting 'orthorhombic'
loop_
_space_group_symop_operation_xyz
x,y,z
-x,1/2-y,z
x,-y,-z
-x,1/2+y,-z
-x,-y,-z
x,1/2+y,-z
-x,y,z
x,1/2-y,z
1/2+x,1/2+y,z
1/2-x,-y,z
1/2+x,1/2-y,-z
1/2-x,y,-z
1/2-x,1/2-y,-z
1/2+x,y,-z
1/2-x,1/2+y,z
1/2+x,-y,z
loop_
_atom_site_type_symbol
_atom_site_label
_atom_site_fract_x
_atom_site_fract_y
_atom_site_fract_z
Si Si1 0.442143 0.589264 0.027565
Si Si2 0.829735 0.592541 0.013579
Si Si3 0.437566 0.335705 0.777300
Si Si4 0.166181 0.091961 0.508518
Si Si5 0.256384 0.158688 0.856312
Si Si6 0.749073 0.841765 0.360757
Si Si7 0.438748 0.657409 0.433757
O O1 0.500000 0.631534 0.005748
O O2 0.426798 0.600572 0.139839
O O3 0.449290 0.500000 0.000000
O O4 0.391159 0.622841 0.969460
O O5 0.796496 0.614752 0.106486
O O6 0.828430 0.500000 0.000000
O O7 0.807580 0.632874 0.917715
O O8 0.500000 0.321258 0.763841
O O9 0.411424 0.250000 0.802253
O O10 0.418040 0.366021 0.673328
O O11 0.195196 0.117273 0.607130
O O12 0.198388 0.132268 0.422614
O O13 0.103608 0.118231 0.507106
O O14 0.170137 0.000000 0.500000
O O15 0.246794 0.250000 0.869279
O O16 0.264915 0.134145 0.747319
O O17 0.757523 0.750000 0.371697
O O18 0.500000 0.627608 0.454454
O O19 0.436608 0.750000 0.446361
#
# Coordination Sequence:
#
# PCOD8279737 Si02
#       7
#    16  16  16  16  16  16  16
#     4   9  18  32  48  73 108 141 173 209 261 318
#     4  10  20  33  52  78 107 141 175 212 263 317
#     4   8  15  28  48  75 101 130 173 219 258 299
#     4  11  22  35  54  84 111 137 172 220 273 326
#     4  10  21  36  55  77 102 136 178 224 262 305
#     4  10  21  38  58  77 103 141 182 222 270 322
#     4   9  18  34  56  81 110 142 177 219 265 316
#
# _framework density 18.802496000000001
#
# number of rings (size 3 to 8) (size 9 to 14) (size 15 to 20)
#    0.000    2.429    0.000    5.143    2.000    3.714 
#    2.571    0.000    0.000    0.857    0.000    2.000 
#    0.000    0.000    0.000    0.000    0.000    0.000 
#
# Total GULP energy -693859.801710 kJ/mol
# GULP energy per Si atom -12390.353602 kJ/mol
# Density = 1.875970 g / cm^3
# Si number density = 18.802496 Si / 1000 Ang^3
#
#
#
# Elastic Constant Matrix: (Units=GPa)
#
#
# Indices 1 2 3 4 5 6 
#
# 1 129.5276 20.6863 14.8725 0.0000 0.0000 0.0000
# 2 20.6863 67.7488 20.2320 0.0000 0.0000 0.0000
# 3 14.8725 20.2320 60.5408 0.0000 0.0000 0.0000
# 4 0.0000 0.0000 0.0000 5.6571 0.0000 0.0000
# 5 0.0000 0.0000 0.0000 0.0000 20.6528 0.0000
# 6 0.0000 0.0000 0.0000 0.0000 0.0000 15.4274
#
#
#
# Elastic Compliance Matrix: (Units=1/GPa)
#
#
# Indices 1 2 3 4 5 6 
#
# 1 0.008209 -0.002115 -0.001310 0.000000 0.000000 0.000000
# 2 -0.002115 0.016942 -0.005142 0.000000 0.000000 0.000000
# 3 -0.001310 -0.005142 0.018558 0.000000 0.000000 0.000000
# 4 0.000000 0.000000 0.000000 0.176770 0.000000 0.000000
# 5 0.000000 0.000000 0.000000 0.000000 0.048419 0.000000
# 6 0.000000 0.000000 0.000000 0.000000 0.000000 0.064820
#
#
# Mechanical properties :
#
#
# Convention : Reuss Voigt Hill
#
# Bulk Modulus (GPa) = 37.63030 41.04430 39.33730
# Shear Modulus (GPa) = 13.90009 21.81590 17.85799
#
# Velocity S-wave (km/s) = 2.72190 3.40996 3.08517
# Velocity P-wave (km/s) = 5.47131 6.11395 5.80153
#
# Compressibility (1/GPa) = 0.02657433
#
# Stress axis : x y z
#
# Youngs Moduli (GPa) = 121.82414 59.02529 53.88532
#
# Poissons Ratio (x) = 0.12486 0.07057
# Poissons Ratio (y) = 0.25769 0.27708
# Poissons Ratio (z) = 0.15954 0.30352
#
# Static dielectric constant tensor:
#      x y z
#    x 3.889060 0.000000 0.000000 
#    y 0.000000 3.379040 0.000000 
#    z 0.000000 0.000000 3.471370 
# 
# 
# High freq. dielectric constant tensor:
#      x y z
#    x 1.741940 0.000000 0.000000 
#    y 0.000000 1.720090 0.000000 
#    z 0.000000 0.000000 1.709250 
# 
# From -- ./inp_files/30822.got.cif
#   From: 2010.03.12/outbox.cif.g09.slc.cpg/sg67_16_cif.got.tgz:30822.got - 2010.04.10 22:41:39.
