data_PCOD8279813
_publ_section_title
;
Structure prediction by ZEFSAII (Michael W. Deem and Ramdas Pophale) SiO2 
 PCOD8279813
Probable space group: C M M A
;
_chemical_formula_sum "Si O2"
_cell_formula_units_Z 80
_cell_length_a 19.320578
_cell_length_b 9.289022
_cell_length_c 25.952456
_cell_angle_alpha 90.000000
_cell_angle_beta 90.000000
_cell_angle_gamma 90.000000
_cell_volume 4657.668439
_symmetry_space_group_name_H-M "C M M A"
_symmetry_group_IT_number 67
_symmetry_cell_setting 'orthorhombic'
loop_
_space_group_symop_operation_xyz
x,y,z
-x,1/2-y,z
x,-y,-z
-x,1/2+y,-z
-x,-y,-z
x,1/2+y,-z
-x,y,z
x,1/2-y,z
1/2+x,1/2+y,z
1/2-x,-y,z
1/2+x,1/2-y,-z
1/2-x,y,-z
1/2-x,1/2-y,-z
1/2+x,y,-z
1/2-x,1/2+y,z
1/2+x,-y,z
loop_
_atom_site_type_symbol
_atom_site_label
_atom_site_fract_x
_atom_site_fract_y
_atom_site_fract_z
Si Si1 0.917708 0.588821 0.047191
Si Si2 0.679619 0.421649 0.448070
Si Si3 0.917468 0.911735 0.743786
Si Si4 0.917699 0.587938 0.160226
Si Si5 0.420752 0.415947 0.354824
O O1 0.889846 0.750000 0.041474
O O2 0.895238 0.528428 0.103602
O O3 0.000000 0.585796 0.043181
O O4 0.884298 0.500000 0.000000
O O5 0.653528 0.500000 0.500000
O O6 0.690941 0.250000 0.456652
O O7 0.750000 0.500000 0.430236
O O8 0.622321 0.453062 0.405413
O O9 0.888822 0.750000 0.742181
O O10 0.000000 0.915478 0.745367
O O11 0.886583 0.987141 0.794999
O O12 0.890840 0.993306 0.692953
O O13 0.889709 0.750000 0.168104
O O14 0.000000 0.589601 0.163851
O O15 0.500000 0.457098 0.366802
O O16 0.413795 0.250000 0.339117
#
# Coordination Sequence:
#
# PCOD8279813 Si02
#       5
#    16  16  16  16  16
#     4   8  13  19  26  37  54  80 117 160 203 244
#     4  10  20  34  52  71  92 119 148 178 213 255
#     4   9  16  24  36  56  78 100 130 170 213 252
#     4   8  13  21  31  42  61  92 126 160 203 254
#     4   9  18  32  48  66  89 117 147 178 215 259
#
# _framework density 17.175975999999999
#
# number of rings (size 3 to 8) (size 9 to 14) (size 15 to 20)
#    0.000    3.200    0.000    3.000    0.000    5.200 
#    0.000    4.000    0.000    0.000    0.000    0.000 
#    0.000    0.000    0.000    0.000    0.000    1.000 
#
# Total GULP energy -495690.858742 kJ/mol
# GULP energy per Si atom -12392.271469 kJ/mol
# Density = 1.713688 g / cm^3
# Si number density = 17.175976 Si / 1000 Ang^3
#
#
#
# Elastic Constant Matrix: (Units=GPa)
#
#
# Indices 1 2 3 4 5 6 
#
# 1 23.8016 26.4887 44.1886 0.0000 0.0000 0.0000
# 2 26.4887 114.0974 92.8275 0.0000 0.0000 0.0000
# 3 44.1886 92.8275 177.3101 0.0000 0.0000 0.0000
# 4 0.0000 0.0000 0.0000 36.7836 0.0000 0.0000
# 5 0.0000 0.0000 0.0000 0.0000 0.0717 0.0000
# 6 0.0000 0.0000 0.0000 0.0000 0.0000 11.0132
#
#
#
# Elastic Compliance Matrix: (Units=1/GPa)
#
#
# Indices 1 2 3 4 5 6 
#
# 1 0.079257 -0.004059 -0.017627 0.000000 0.000000 0.000000
# 2 -0.004059 0.015475 -0.007090 0.000000 0.000000 0.000000
# 3 -0.017627 -0.007090 0.013745 0.000000 0.000000 0.000000
# 4 0.000000 0.000000 0.000000 0.027186 0.000000 0.000000
# 5 0.000000 0.000000 0.000000 0.000000 13.938950 0.000000
# 6 0.000000 0.000000 0.000000 0.000000 0.000000 0.090800
#
#
# Mechanical properties :
#
#
# Convention : Reuss Voigt Hill
#
# Bulk Modulus (GPa) = 19.63707 71.35763 45.49735
# Shear Modulus (GPa) = 0.35113 19.68732 10.01922
#
# Velocity S-wave (km/s) = 0.45263 3.38925 2.41784
# Velocity P-wave (km/s) = 3.42503 7.54660 5.86012
#
# Compressibility (1/GPa) = 0.05092410
#
# Stress axis : x y z
#
# Youngs Moduli (GPa) = 12.61721 64.61940 72.75519
#
# Poissons Ratio (x) = 0.26230 1.28246
# Poissons Ratio (y) = 0.05121 0.51585
# Poissons Ratio (z) = 0.22240 0.45816
#
# Static dielectric constant tensor:
#      x y z
#    x 2.540730 0.000000 0.000000 
#    y 0.000000 3.396950 0.000000 
#    z 0.000000 0.000000 3.537440 
# 
# 
# High freq. dielectric constant tensor:
#      x y z
#    x 1.582300 0.000000 0.000000 
#    y 0.000000 1.667900 0.000000 
#    z 0.000000 0.000000 1.683010 
# 
# From -- ./inp_files/44446.got.cif
#   From: 2010.03.12/outbox.cif.g09.slc.cpg/sg67_23_cif.got.tgz:44446.got - 2010.04.10 22:41:39.
