data_PCOD8279108
_publ_section_title
;
Structure prediction by ZEFSAII (Michael W. Deem and Ramdas Pophale) SiO2 
 PCOD8279108
Probable space group: C M M A
;
_chemical_formula_sum "Si O2"
_cell_formula_units_Z 96
_cell_length_a 16.711237
_cell_length_b 25.444534
_cell_length_c 11.834584
_cell_angle_alpha 90.000000
_cell_angle_beta 90.000000
_cell_angle_gamma 90.000000
_cell_volume 5032.179179
_symmetry_space_group_name_H-M "C M M A"
_symmetry_group_IT_number 67
_symmetry_cell_setting 'orthorhombic'
loop_
_space_group_symop_operation_xyz
x,y,z
-x,1/2-y,z
x,-y,-z
-x,1/2+y,-z
-x,-y,-z
x,1/2+y,-z
-x,y,z
x,1/2-y,z
1/2+x,1/2+y,z
1/2-x,-y,z
1/2+x,1/2-y,-z
1/2-x,y,-z
1/2-x,1/2-y,-z
1/2+x,y,-z
1/2-x,1/2+y,z
1/2+x,-y,z
loop_
_atom_site_type_symbol
_atom_site_label
_atom_site_fract_x
_atom_site_fract_y
_atom_site_fract_z
Si Si1 0.332870 0.926237 0.262070
Si Si2 0.094709 0.190034 0.667109
Si Si3 0.407038 0.059786 0.975087
Si Si4 0.343437 0.604584 0.809462
Si Si5 0.907724 0.887248 0.527968
Si Si6 0.589500 0.525578 0.647021
O O1 0.242709 0.916432 0.227141
O O2 0.359324 0.882803 0.354638
O O3 0.343860 0.982566 0.322777
O O4 0.389062 0.923675 0.152614
O O5 0.122089 0.250000 0.654180
O O6 0.141392 0.165235 0.774744
O O7 0.122744 0.158431 0.555429
O O8 0.000000 0.185229 0.685936
O O9 0.500000 0.067859 0.999669
O O10 0.355739 0.097761 0.056723
O O11 0.380399 0.000000 0.000000
O O12 0.409656 0.570329 0.743453
O O13 0.893822 0.945612 0.473217
O O14 0.000000 0.878351 0.555467
O O15 0.500000 0.500528 0.647911
#
# Coordination Sequence:
#
# PCOD8279108 Si02
#       6
#    16  16  16  16  16  16
#     4  12  22  32  51  80 116 154 182 220 287 339
#     4   9  19  39  66  86 105 144 194 240 282 327
#     4  11  22  36  57  78 109 157 201 230 267 332
#     4  11  22  35  53  84 117 143 185 240 280 328
#     4   9  19  35  55  81 112 146 192 235 273 332
#     4  10  19  33  52  75 110 155 191 221 260 327
#
# _framework density 19.077223
#
# number of rings (size 3 to 8) (size 9 to 14) (size 15 to 20)
#    0.000    1.667    1.667    5.500    0.000    4.667 
#    0.000    5.000    0.000    3.000    0.000    2.333 
#    0.000    0.000    0.000    0.000    0.000    0.000 
#
# Total GULP energy -595209.599074 kJ/mol
# GULP energy per Si atom -12400.199981 kJ/mol
# Density = 1.903380 g / cm^3
# Si number density = 19.077223 Si / 1000 Ang^3
#
#
#
# Elastic Constant Matrix: (Units=GPa)
#
#
# Indices 1 2 3 4 5 6 
#
# 1 80.2845 42.9604 42.2127 0.0000 0.0000 0.0000
# 2 42.9604 110.9831 47.8884 0.0000 0.0000 0.0000
# 3 42.2127 47.8884 137.1631 0.0000 0.0000 0.0000
# 4 0.0000 0.0000 0.0000 16.4013 0.0000 0.0000
# 5 0.0000 0.0000 0.0000 0.0000 27.9746 0.0000
# 6 0.0000 0.0000 0.0000 0.0000 0.0000 19.6937
#
#
#
# Elastic Compliance Matrix: (Units=1/GPa)
#
#
# Indices 1 2 3 4 5 6 
#
# 1 0.016994 -0.005088 -0.003454 0.000000 0.000000 0.000000
# 2 -0.005088 0.012132 -0.002670 0.000000 0.000000 0.000000
# 3 -0.003454 -0.002670 0.009286 0.000000 0.000000 0.000000
# 4 0.000000 0.000000 0.000000 0.060971 0.000000 0.000000
# 5 0.000000 0.000000 0.000000 0.000000 0.035747 0.000000
# 6 0.000000 0.000000 0.000000 0.000000 0.000000 0.050778
#
#
# Mechanical properties :
#
#
# Convention : Reuss Voigt Hill
#
# Bulk Modulus (GPa) = 62.54409 66.06150 64.30280
# Shear Modulus (GPa) = 23.40175 25.83856 24.62015
#
# Velocity S-wave (km/s) = 3.50621 3.68424 3.59632
# Velocity P-wave (km/s) = 7.01763 7.26648 7.14314
#
# Compressibility (1/GPa) = 0.01598872
#
# Stress axis : x y z
#
# Youngs Moduli (GPa) = 58.84356 82.42724 107.69384
#
# Poissons Ratio (x) = 0.41939 0.37194
# Poissons Ratio (y) = 0.29940 0.28752
# Poissons Ratio (z) = 0.20322 0.22006
#
# Static dielectric constant tensor:
#      x y z
#    x 3.307950 0.000000 0.000000 
#    y 0.000000 3.324210 0.000000 
#    z 0.000000 0.000000 3.685800 
# 
# 
# High freq. dielectric constant tensor:
#      x y z
#    x 1.736760 0.000000 0.000000 
#    y 0.000000 1.700050 0.000000 
#    z 0.000000 0.000000 1.751150 
# 
# From -- ./inp_files/19627.got.cif
#   From: 2010.03.12/outbox.cif.g09.slc.cpg/sg67_10_cif.got.tgz:19627.got - 2010.04.10 22:41:39.
