data_PCOD8279716
_publ_section_title
;
Structure prediction by ZEFSAII (Michael W. Deem and Ramdas Pophale) SiO2 
 PCOD8279716
Probable space group: C M M A
;
_chemical_formula_sum "Si O2"
_cell_formula_units_Z 80
_cell_length_a 19.514672
_cell_length_b 8.941705
_cell_length_c 24.948222
_cell_angle_alpha 90.000000
_cell_angle_beta 90.000000
_cell_angle_gamma 90.000000
_cell_volume 4353.326032
_symmetry_space_group_name_H-M "C M M A"
_symmetry_group_IT_number 67
_symmetry_cell_setting 'orthorhombic'
loop_
_space_group_symop_operation_xyz
x,y,z
-x,1/2-y,z
x,-y,-z
-x,1/2+y,-z
-x,-y,-z
x,1/2+y,-z
-x,y,z
x,1/2-y,z
1/2+x,1/2+y,z
1/2-x,-y,z
1/2+x,1/2-y,-z
1/2-x,y,-z
1/2-x,1/2-y,-z
1/2+x,y,-z
1/2-x,1/2+y,z
1/2+x,-y,z
loop_
_atom_site_type_symbol
_atom_site_label
_atom_site_fract_x
_atom_site_fract_y
_atom_site_fract_z
Si Si1 0.580458 0.423540 0.339508
Si Si2 0.179825 0.424282 0.134689
Si Si3 0.320087 0.575968 0.259657
Si Si4 0.418413 0.081315 0.552748
Si Si5 0.919721 0.423448 0.945272
O O1 0.500000 0.450651 0.332683
O O2 0.599381 0.250000 0.339670
O O3 0.616156 0.503879 0.289923
O O4 0.607706 0.493690 0.394973
O O5 0.183460 0.250000 0.121056
O O6 0.250000 0.500000 0.114984
O O7 0.167712 0.454340 0.197184
O O8 0.116619 0.498881 0.104574
O O9 0.315778 0.750000 0.273137
O O10 0.250000 0.500000 0.279389
O O11 0.500000 0.080807 0.550816
O O12 0.389973 0.250000 0.554517
O O13 0.388774 0.000000 0.500000
O O14 0.900048 0.250000 0.947622
O O15 0.000000 0.448506 0.936827
O O16 0.894382 0.500000 0.000000
#
# Coordination Sequence:
#
# PCOD8279716 Si02
#       5
#    16  16  16  16  16
#     4  10  20  33  51  77 107 138 175 218 261 308
#     4  10  21  37  57  80 106 137 176 219 261 309
#     4  10  21  37  56  77 104 139 176 216 263 313
#     4   9  16  27  45  70 101 135 171 213 261 310
#     4  10  21  37  57  81 110 142 175 213 259 310
#
# _framework density 18.376753000000001
#
# number of rings (size 3 to 8) (size 9 to 14) (size 15 to 20)
#    0.000    2.200    0.000    3.000    0.000    8.400 
#    0.000    6.000    0.000    0.600    0.000    4.200 
#    0.000    0.000    0.000    0.000    0.000    0.000 
#
# Total GULP energy -496170.085952 kJ/mol
# GULP energy per Si atom -12404.252149 kJ/mol
# Density = 1.833493 g / cm^3
# Si number density = 18.376753 Si / 1000 Ang^3
#
#
#
# Elastic Constant Matrix: (Units=GPa)
#
#
# Indices 1 2 3 4 5 6 
#
# 1 52.1354 53.8084 50.4711 0.0000 0.0000 0.0000
# 2 53.8084 160.3280 75.8569 0.0000 0.0000 0.0000
# 3 50.4711 75.8569 96.5820 0.0000 0.0000 0.0000
# 4 0.0000 0.0000 0.0000 40.0566 0.0000 0.0000
# 5 0.0000 0.0000 0.0000 0.0000 10.0371 0.0000
# 6 0.0000 0.0000 0.0000 0.0000 0.0000 32.2734
#
#
#
# Elastic Compliance Matrix: (Units=1/GPa)
#
#
# Indices 1 2 3 4 5 6 
#
# 1 0.042073 -0.005916 -0.017339 0.000000 0.000000 0.000000
# 2 -0.005916 0.010758 -0.005357 0.000000 0.000000 0.000000
# 3 -0.017339 -0.005357 0.023623 0.000000 0.000000 0.000000
# 4 0.000000 0.000000 0.000000 0.024965 0.000000 0.000000
# 5 0.000000 0.000000 0.000000 0.000000 0.099630 0.000000
# 6 0.000000 0.000000 0.000000 0.000000 0.000000 0.030985
#
#
# Mechanical properties :
#
#
# Convention : Reuss Voigt Hill
#
# Bulk Modulus (GPa) = 52.01036 74.36867 63.18952
# Shear Modulus (GPa) = 16.91082 25.06735 20.98909
#
# Velocity S-wave (km/s) = 3.03682 3.69735 3.38324
# Velocity P-wave (km/s) = 6.37652 7.66707 7.05138
#
# Compressibility (1/GPa) = 0.01922694
#
# Stress axis : x y z
#
# Youngs Moduli (GPa) = 23.76837 92.95703 42.33214
#
# Poissons Ratio (x) = 0.54997 0.73401
# Poissons Ratio (y) = 0.14062 0.22679
# Poissons Ratio (z) = 0.41212 0.49801
#
# Static dielectric constant tensor:
#      x y z
#    x 3.114240 0.000000 0.000000 
#    y 0.000000 3.628890 0.000000 
#    z 0.000000 0.000000 3.425090 
# 
# 
# High freq. dielectric constant tensor:
#      x y z
#    x 1.685580 0.000000 0.000000 
#    y 0.000000 1.734930 0.000000 
#    z 0.000000 0.000000 1.719020 
# 
# From -- ./inp_files/43255.got.cif
#   From: 2010.03.12/outbox.cif.g09.slc.cpg/sg67_22_cif.got.tgz:43255.got - 2010.04.10 22:41:39.
