data_PCOD8279043
_publ_section_title
;
Structure prediction by ZEFSAII (Michael W. Deem and Ramdas Pophale) SiO2 
 PCOD8279043
Probable space group: C M M A
;
_chemical_formula_sum "Si O2"
_cell_formula_units_Z 104
_cell_length_a 10.021525
_cell_length_b 26.377853
_cell_length_c 21.128399
_cell_angle_alpha 90.000000
_cell_angle_beta 90.000000
_cell_angle_gamma 90.000000
_cell_volume 5585.214381
_symmetry_space_group_name_H-M "C M M A"
_symmetry_group_IT_number 67
_symmetry_cell_setting 'orthorhombic'
loop_
_space_group_symop_operation_xyz
x,y,z
-x,1/2-y,z
x,-y,-z
-x,1/2+y,-z
-x,-y,-z
x,1/2+y,-z
-x,y,z
x,1/2-y,z
1/2+x,1/2+y,z
1/2-x,-y,z
1/2+x,1/2-y,-z
1/2-x,y,-z
1/2-x,1/2-y,-z
1/2+x,y,-z
1/2-x,1/2+y,z
1/2+x,-y,z
loop_
_atom_site_type_symbol
_atom_site_label
_atom_site_fract_x
_atom_site_fract_y
_atom_site_fract_z
Si Si1 0.846538 0.250000 0.858693
Si Si2 0.154553 0.349582 0.940407
Si Si3 0.348943 0.750000 0.258840
Si Si4 0.250000 0.500000 0.634216
Si Si5 0.646622 0.429439 0.262634
Si Si6 0.651568 0.644637 0.317217
Si Si7 0.849434 0.090994 0.442463
Si Si8 0.651616 0.956976 0.878205
O O1 0.814310 0.199335 0.897814
O O2 0.753095 0.250000 0.798198
O O3 0.000000 0.250000 0.836390
O O4 0.189579 0.401051 0.902911
O O5 0.000000 0.349228 0.962065
O O6 0.250000 0.346098 0.000000
O O7 0.500000 0.750000 0.231420
O O8 0.324036 0.796746 0.305191
O O9 0.349080 0.531395 0.679150
O O10 0.162711 0.535860 0.589330
O O11 0.500000 0.403864 0.262518
O O12 0.756874 0.386209 0.268836
O O13 0.669579 0.458462 0.197168
O O14 0.500000 0.627616 0.303276
O O15 0.687070 0.633390 0.390227
O O16 0.750000 0.098605 0.500000
O O17 0.000000 0.097309 0.467829
O O18 0.500000 0.970823 0.897733
O O19 0.750000 0.000000 0.907337
#
# Coordination Sequence:
#
# PCOD8279043 Si02
#       8
#     8  16   8   8  16  16  16  16
#     4  10  21  39  63  89 117 142 174 232 291 336
#     4  10  22  39  59  83 113 149 188 230 277 329
#     4  10  20  37  60  85 110 140 177 220 273 332
#     4  10  19  32  54  78 105 140 178 220 272 324
#     4  10  19  33  54  80 109 141 179 223 274 327
#     4   9  20  36  54  77 108 142 178 221 272 325
#     4  10  21  35  51  74 105 141 180 221 264 316
#     4  10  21  36  54  80 112 148 189 229 273 326
#
# _framework density 18.620593
#
# number of rings (size 3 to 8) (size 9 to 14) (size 15 to 20)
#    0.000    2.154    0.769    1.846    0.000    8.308 
#    0.000    1.923    0.000    0.000    0.000    0.000 
#    0.000    0.000    0.000    0.000    0.000    0.000 
#
# Total GULP energy -644794.370905 kJ/mol
# GULP energy per Si atom -12399.891748 kJ/mol
# Density = 1.857821 g / cm^3
# Si number density = 18.620593 Si / 1000 Ang^3
#
#
#
# Elastic Constant Matrix: (Units=GPa)
#
#
# Indices 1 2 3 4 5 6 
#
# 1 104.6541 71.0252 62.2609 0.0000 0.0000 0.0000
# 2 71.0252 140.5203 51.2821 0.0000 0.0000 0.0000
# 3 62.2609 51.2821 92.8040 0.0000 0.0000 0.0000
# 4 0.0000 0.0000 0.0000 13.5768 0.0000 0.0000
# 5 0.0000 0.0000 0.0000 0.0000 32.5382 0.0000
# 6 0.0000 0.0000 0.0000 0.0000 0.0000 28.4338
#
#
#
# Elastic Compliance Matrix: (Units=1/GPa)
#
#
# Indices 1 2 3 4 5 6 
#
# 1 0.019635 -0.006410 -0.009631 0.000000 0.000000 0.000000
# 2 -0.006410 0.011006 -0.001782 0.000000 0.000000 0.000000
# 3 -0.009631 -0.001782 0.018221 0.000000 0.000000 0.000000
# 4 0.000000 0.000000 0.000000 0.073655 0.000000 0.000000
# 5 0.000000 0.000000 0.000000 0.000000 0.030733 0.000000
# 6 0.000000 0.000000 0.000000 0.000000 0.000000 0.035169
#
#
# Mechanical properties :
#
#
# Convention : Reuss Voigt Hill
#
# Bulk Modulus (GPa) = 75.65555 78.56829 77.11192
# Shear Modulus (GPa) = 21.88461 25.13709 23.51085
#
# Velocity S-wave (km/s) = 3.43197 3.67817 3.55720
# Velocity P-wave (km/s) = 7.51151 7.76688 7.64026
#
# Compressibility (1/GPa) = 0.01321780
#
# Stress axis : x y z
#
# Youngs Moduli (GPa) = 50.92965 90.85638 54.88086
#
# Poissons Ratio (x) = 0.58235 0.52855
# Poissons Ratio (y) = 0.32644 0.09779
# Poissons Ratio (z) = 0.49050 0.16189
#
# Static dielectric constant tensor:
#      x y z
#    x 3.523050 0.000000 0.000000 
#    y 0.000000 3.536970 0.000000 
#    z 0.000000 0.000000 3.311610 
# 
# 
# High freq. dielectric constant tensor:
#      x y z
#    x 1.729930 0.000000 0.000000 
#    y 0.000000 1.723150 0.000000 
#    z 0.000000 0.000000 1.715010 
# 
# From -- ./inp_files/37361.got.cif
#   From: 2010.03.12/outbox.cif.g09.slc.cpg/sg67_19_cif.got.tgz:37361.got - 2010.04.10 22:41:39.
