data_PCOD8279394
_publ_section_title
;
Structure prediction by ZEFSAII (Michael W. Deem and Ramdas Pophale) SiO2 
 PCOD8279394
Probable space group: C M M A
;
_chemical_formula_sum "Si O2"
_cell_formula_units_Z 72
_cell_length_a 8.790042
_cell_length_b 25.113056
_cell_length_c 16.739850
_cell_angle_alpha 90.000000
_cell_angle_beta 90.000000
_cell_angle_gamma 90.000000
_cell_volume 3695.235125
_symmetry_space_group_name_H-M "C M M A"
_symmetry_group_IT_number 67
_symmetry_cell_setting 'orthorhombic'
loop_
_space_group_symop_operation_xyz
x,y,z
-x,1/2-y,z
x,-y,-z
-x,1/2+y,-z
-x,-y,-z
x,1/2+y,-z
-x,y,z
x,1/2-y,z
1/2+x,1/2+y,z
1/2-x,-y,z
1/2+x,1/2-y,-z
1/2-x,y,-z
1/2-x,1/2-y,-z
1/2+x,y,-z
1/2-x,1/2+y,z
1/2+x,-y,z
loop_
_atom_site_type_symbol
_atom_site_label
_atom_site_fract_x
_atom_site_fract_y
_atom_site_fract_z
Si Si1 0.176884 0.339171 0.305695
Si Si2 0.173207 0.190402 0.125797
Si Si3 0.176296 0.087845 0.921253
Si Si4 0.319105 0.750000 0.587187
Si Si5 0.681344 0.555032 0.747459
O O1 0.200700 0.311857 0.220329
O O2 0.262618 0.303359 0.369783
O O3 0.250906 0.397875 0.306496
O O4 0.000000 0.343466 0.328634
O O5 0.209466 0.250000 0.096374
O O6 0.285299 0.150734 0.079769
O O7 0.000000 0.173876 0.105953
O O8 0.238255 0.061728 0.839480
O O9 0.000000 0.078950 0.928686
O O10 0.250000 0.061007 0.000000
O O11 0.500000 0.750000 0.584045
O O12 0.250000 0.750000 0.500000
O O13 0.500000 0.555495 0.741468
O O14 0.750000 0.500000 0.714541
#
# Coordination Sequence:
#
# PCOD8279394 Si02
#       5
#    16  16  16   8  16
#     4  10  19  36  59  85 116 149 186 231 279 330
#     4   9  17  31  51  73 100 138 181 224 276 335
#     4  10  21  34  48  70 101 138 184 235 289 340
#     4  12  24  38  60  92 127 158 187 222 268 328
#     4  10  21  37  57  83 109 145 193 239 286 337
#
# _framework density 19.484552000000001
#
# number of rings (size 3 to 8) (size 9 to 14) (size 15 to 20)
#    0.000    2.000    1.111    3.000    0.000    4.889 
#    0.000    2.222    0.000    0.667    0.000    4.667 
#    0.000    0.000    0.000    0.000    0.000    0.000 
#
# Total GULP energy -446449.720273 kJ/mol
# GULP energy per Si atom -12401.381119 kJ/mol
# Density = 1.944020 g / cm^3
# Si number density = 19.484552 Si / 1000 Ang^3
#
#
#
# Elastic Constant Matrix: (Units=GPa)
#
#
# Indices 1 2 3 4 5 6 
#
# 1 107.6277 47.0288 41.9114 0.0000 0.0000 0.0000
# 2 47.0288 130.4659 35.5306 0.0000 0.0000 0.0000
# 3 41.9114 35.5306 82.1676 0.0000 0.0000 0.0000
# 4 0.0000 0.0000 0.0000 8.6391 0.0000 0.0000
# 5 0.0000 0.0000 0.0000 0.0000 29.0757 0.0000
# 6 0.0000 0.0000 0.0000 0.0000 0.0000 33.7324
#
#
#
# Elastic Compliance Matrix: (Units=1/GPa)
#
#
# Indices 1 2 3 4 5 6 
#
# 1 0.012660 -0.003179 -0.005083 0.000000 0.000000 0.000000
# 2 -0.003179 0.009486 -0.002480 0.000000 0.000000 0.000000
# 3 -0.005083 -0.002480 0.015835 0.000000 0.000000 0.000000
# 4 0.000000 0.000000 0.000000 0.115753 0.000000 0.000000
# 5 0.000000 0.000000 0.000000 0.000000 0.034393 0.000000
# 6 0.000000 0.000000 0.000000 0.000000 0.000000 0.029645
#
#
# Mechanical properties :
#
#
# Convention : Reuss Voigt Hill
#
# Bulk Modulus (GPa) = 60.61762 63.24476 61.93119
# Shear Modulus (GPa) = 20.42852 27.34214 23.88533
#
# Velocity S-wave (km/s) = 3.24149 3.75009 3.50503
# Velocity P-wave (km/s) = 6.72219 7.16103 6.94507
#
# Compressibility (1/GPa) = 0.01649685
#
# Stress axis : x y z
#
# Youngs Moduli (GPa) = 78.99086 105.41444 63.15005
#
# Poissons Ratio (x) = 0.33514 0.32097
# Poissons Ratio (y) = 0.25113 0.15664
# Poissons Ratio (z) = 0.40148 0.26147
#
# Static dielectric constant tensor:
#      x y z
#    x 3.540660 0.000000 0.000000 
#    y 0.000000 3.574180 0.000000 
#    z 0.000000 0.000000 3.294810 
# 
# 
# High freq. dielectric constant tensor:
#      x y z
#    x 1.765740 0.000000 0.000000 
#    y 0.000000 1.762600 0.000000 
#    z 0.000000 0.000000 1.727460 
# 
# From -- ./inp_files/25069.got.cif
#   From: 2010.03.12/outbox.cif.g09.slc.cpg/sg67_13_cif.got.tgz:25069.got - 2010.04.10 22:41:39.
