data_PCOD8279313
_publ_section_title
;
Structure prediction by ZEFSAII (Michael W. Deem and Ramdas Pophale) SiO2 
 PCOD8279313
Probable space group: C M M A
;
_chemical_formula_sum "Si O2"
_cell_formula_units_Z 56
_cell_length_a 30.407692
_cell_length_b 16.148887
_cell_length_c 5.103765
_cell_angle_alpha 90.000000
_cell_angle_beta 90.000000
_cell_angle_gamma 90.000000
_cell_volume 2506.205753
_symmetry_space_group_name_H-M "C M M A"
_symmetry_group_IT_number 67
_symmetry_cell_setting 'orthorhombic'
loop_
_space_group_symop_operation_xyz
x,y,z
-x,1/2-y,z
x,-y,-z
-x,1/2+y,-z
-x,-y,-z
x,1/2+y,-z
-x,y,z
x,1/2-y,z
1/2+x,1/2+y,z
1/2-x,-y,z
1/2+x,1/2-y,-z
1/2-x,y,-z
1/2-x,1/2-y,-z
1/2+x,y,-z
1/2-x,1/2+y,z
1/2+x,-y,z
loop_
_atom_site_type_symbol
_atom_site_label
_atom_site_fract_x
_atom_site_fract_y
_atom_site_fract_z
Si Si1 0.769840 0.592273 0.747649
Si Si2 0.586354 0.654994 0.861006
Si Si3 0.000000 0.942241 0.248903
Si Si4 0.870939 0.588563 0.621467
O O1 0.750000 0.500000 0.748369
O O2 0.750000 0.641012 0.500000
O O3 0.822080 0.591751 0.737199
O O4 0.750000 0.639243 0.000000
O O5 0.579868 0.750000 0.941109
O O6 0.541951 0.617339 0.745045
O O7 0.622148 0.650719 0.623675
O O8 0.598914 0.606353 0.126611
O O9 0.000000 0.000000 0.500000
O O10 0.000000 0.000000 0.000000
O O11 0.883231 0.500000 0.500000
#
# Coordination Sequence:
#
# PCOD8279313 Si02
#       4
#    16  16   8  16
#     4  10  19  34  59 100 128 163 226 295 342 378
#     4  12  27  45  68 100 147 188 218 273 366 422
#     4  12  25  48  73 104 133 168 237 288 319 396
#     4  12  23  41  71 104 133 176 243 293 327 403
#
# _framework density 22.344535
#
# number of rings (size 3 to 8) (size 9 to 14) (size 15 to 20)
#    0.000    0.571    2.857    8.143    4.000    0.000 
#    0.000    4.286    0.000   17.143    0.000    0.000 
#    0.000    0.000    0.000    0.000    0.000    0.000 
#
# Total GULP energy -347087.482539 kJ/mol
# GULP energy per Si atom -12395.981519 kJ/mol
# Density = 2.229368 g / cm^3
# Si number density = 22.344535 Si / 1000 Ang^3
#
#
#
# Elastic Constant Matrix: (Units=GPa)
#
#
# Indices 1 2 3 4 5 6 
#
# 1 137.1111 65.3223 70.1360 0.0000 0.0000 0.0000
# 2 65.3223 96.5661 51.4532 0.0000 0.0000 0.0000
# 3 70.1360 51.4532 228.9434 0.0000 0.0000 0.0000
# 4 0.0000 0.0000 0.0000 14.5899 0.0000 0.0000
# 5 0.0000 0.0000 0.0000 0.0000 45.0060 0.0000
# 6 0.0000 0.0000 0.0000 0.0000 0.0000 7.0071
#
#
#
# Elastic Compliance Matrix: (Units=1/GPa)
#
#
# Indices 1 2 3 4 5 6 
#
# 1 0.011530 -0.006722 -0.002021 0.000000 0.000000 0.000000
# 2 -0.006722 0.015684 -0.001465 0.000000 0.000000 0.000000
# 3 -0.002021 -0.001465 0.005316 0.000000 0.000000 0.000000
# 4 0.000000 0.000000 0.000000 0.068541 0.000000 0.000000
# 5 0.000000 0.000000 0.000000 0.000000 0.022219 0.000000
# 6 0.000000 0.000000 0.000000 0.000000 0.000000 0.142713
#
#
# Mechanical properties :
#
#
# Convention : Reuss Voigt Hill
#
# Bulk Modulus (GPa) = 82.56376 92.93817 87.75097
# Shear Modulus (GPa) = 17.21413 31.70119 24.45766
#
# Velocity S-wave (km/s) = 2.77861 3.77071 3.31202
# Velocity P-wave (km/s) = 6.87930 7.78725 7.34731
#
# Compressibility (1/GPa) = 0.01211185
#
# Stress axis : x y z
#
# Youngs Moduli (GPa) = 86.72981 63.75984 188.09471
#
# Poissons Ratio (x) = 0.42862 0.38021
# Poissons Ratio (y) = 0.58304 0.27564
# Poissons Ratio (z) = 0.17531 0.09343
#
# Static dielectric constant tensor:
#      x y z
#    x 4.131950 0.000000 0.000000 
#    y 0.000000 3.697870 0.000000 
#    z 0.000000 0.000000 2.939290 
# 
# 
# High freq. dielectric constant tensor:
#      x y z
#    x 1.888790 0.000000 0.000000 
#    y 0.000000 1.845210 0.000000 
#    z 0.000000 0.000000 1.919000 
# 
# From -- ./inp_files/4453.got.cif
#   From: 2010.03.12/outbox.cif.g09.slc.cpg/sg67_3_cif.got.tgz:4453.got - 2010.04.10 22:41:39.
