data_PCOD8279075
_publ_section_title
;
Structure prediction by ZEFSAII (Michael W. Deem and Ramdas Pophale) SiO2 
 PCOD8279075
Probable space group: C M M A
;
_chemical_formula_sum "Si O2"
_cell_formula_units_Z 88
_cell_length_a 8.715649
_cell_length_b 33.650559
_cell_length_c 15.811499
_cell_angle_alpha 90.000000
_cell_angle_beta 90.000000
_cell_angle_gamma 90.000000
_cell_volume 4637.298583
_symmetry_space_group_name_H-M "C M M A"
_symmetry_group_IT_number 67
_symmetry_cell_setting 'orthorhombic'
loop_
_space_group_symop_operation_xyz
x,y,z
-x,1/2-y,z
x,-y,-z
-x,1/2+y,-z
-x,-y,-z
x,1/2+y,-z
-x,y,z
x,1/2-y,z
1/2+x,1/2+y,z
1/2-x,-y,z
1/2+x,1/2-y,-z
1/2-x,y,-z
1/2-x,1/2-y,-z
1/2+x,y,-z
1/2-x,1/2+y,z
1/2+x,-y,z
loop_
_atom_site_type_symbol
_atom_site_label
_atom_site_fract_x
_atom_site_fract_y
_atom_site_fract_z
Si Si1 0.678142 0.320202 0.797732
Si Si2 0.319472 0.750000 0.089444
Si Si3 0.680180 0.401142 0.229500
Si Si4 0.317263 0.043667 0.912013
Si Si5 0.674423 0.793767 0.635156
Si Si6 0.324217 0.120016 0.416054
O O1 0.500000 0.332176 0.806592
O O2 0.738953 0.290097 0.867727
O O3 0.785094 0.358336 0.809870
O O4 0.703417 0.297548 0.709740
O O5 0.500000 0.750000 0.090418
O O6 0.250000 0.750000 0.000000
O O7 0.500000 0.410327 0.225506
O O8 0.769651 0.432991 0.172847
O O9 0.740449 0.399004 0.327906
O O10 0.500000 0.042558 0.918814
O O11 0.250000 0.000000 0.901324
O O12 0.250000 0.062394 0.000000
O O13 0.500000 0.796450 0.670367
O O14 0.699567 0.750000 0.591115
O O15 0.702315 0.832154 0.576051
O O16 0.500000 0.108707 0.419254
O O17 0.250000 0.100557 0.500000
#
# Coordination Sequence:
#
# PCOD8279075 Si02
#       6
#    16   8  16  16  16  16
#     4  10  19  33  49  71  99 133 180 232 278 330
#     4  10  22  34  46  66  95 130 175 226 277 328
#     4  10  21  38  58  83 113 150 189 230 279 336
#     4  11  22  39  64  94 124 153 181 221 272 330
#     4   9  17  30  48  68  94 133 178 227 284 340
#     4   9  19  33  50  75 108 145 188 235 284 336
#
# _framework density 18.976565000000001
#
# number of rings (size 3 to 8) (size 9 to 14) (size 15 to 20)
#    0.000    2.182    0.909    4.364    0.000    6.182 
#    0.000    1.818    0.000    0.545    0.000    3.818 
#    0.000    0.000    0.000    0.000    0.000    0.000 
#
# Total GULP energy -545107.998091 kJ/mol
# GULP energy per Si atom -12388.818138 kJ/mol
# Density = 1.893337 g / cm^3
# Si number density = 18.976565 Si / 1000 Ang^3
#
#
#
# Elastic Constant Matrix: (Units=GPa)
#
#
# Indices 1 2 3 4 5 6 
#
# 1 69.9960 28.3989 48.9742 0.0000 0.0000 0.0000
# 2 28.3989 69.0113 56.2446 0.0000 0.0000 0.0000
# 3 48.9742 56.2446 137.9116 0.0000 0.0000 0.0000
# 4 0.0000 0.0000 0.0000 18.3152 0.0000 0.0000
# 5 0.0000 0.0000 0.0000 0.0000 32.9746 0.0000
# 6 0.0000 0.0000 0.0000 0.0000 0.0000 27.9889
#
#
#
# Elastic Compliance Matrix: (Units=1/GPa)
#
#
# Indices 1 2 3 4 5 6 
#
# 1 0.019583 -0.003581 -0.005494 0.000000 0.000000 0.000000
# 2 -0.003581 0.022360 -0.007847 0.000000 0.000000 0.000000
# 3 -0.005494 -0.007847 0.012402 0.000000 0.000000 0.000000
# 4 0.000000 0.000000 0.000000 0.054599 0.000000 0.000000
# 5 0.000000 0.000000 0.000000 0.000000 0.030326 0.000000
# 6 0.000000 0.000000 0.000000 0.000000 0.000000 0.035728
#
#
# Mechanical properties :
#
#
# Convention : Reuss Voigt Hill
#
# Bulk Modulus (GPa) = 48.77874 60.46160 54.62017
# Shear Modulus (GPa) = 23.18277 25.40916 24.29596
#
# Velocity S-wave (km/s) = 3.49901 3.66317 3.58203
# Velocity P-wave (km/s) = 6.48726 7.05848 6.77889
#
# Compressibility (1/GPa) = 0.02050073
#
# Stress axis : x y z
#
# Youngs Moduli (GPa) = 51.06381 44.72350 80.63077
#
# Poissons Ratio (x) = 0.16017 0.44296
# Poissons Ratio (y) = 0.18288 0.63272
# Poissons Ratio (z) = 0.28053 0.35095
#
# Static dielectric constant tensor:
#      x y z
#    x 3.408090 0.000000 0.000000 
#    y 0.000000 3.292970 0.000000 
#    z 0.000000 0.000000 3.564730 
# 
# 
# High freq. dielectric constant tensor:
#      x y z
#    x 1.740340 0.000000 0.000000 
#    y 0.000000 1.715140 0.000000 
#    z 0.000000 0.000000 1.732650 
# 
# From -- ./inp_files/32453.got.cif
#   From: 2010.03.12/outbox.cif.g09.slc.cpg/sg67_17_cif.got.tgz:32453.got - 2010.04.10 22:41:39.
