data_PCOD8279629
_publ_section_title
;
Structure prediction by ZEFSAII (Michael W. Deem and Ramdas Pophale) SiO2 
 PCOD8279629
Probable space group: C M M A
;
_chemical_formula_sum "Si O2"
_cell_formula_units_Z 104
_cell_length_a 9.583682
_cell_length_b 26.147585
_cell_length_c 22.884104
_cell_angle_alpha 90.000000
_cell_angle_beta 90.000000
_cell_angle_gamma 90.000000
_cell_volume 5734.530818
_symmetry_space_group_name_H-M "C M M A"
_symmetry_group_IT_number 67
_symmetry_cell_setting 'orthorhombic'
loop_
_space_group_symop_operation_xyz
x,y,z
-x,1/2-y,z
x,-y,-z
-x,1/2+y,-z
-x,-y,-z
x,1/2+y,-z
-x,y,z
x,1/2-y,z
1/2+x,1/2+y,z
1/2-x,-y,z
1/2+x,1/2-y,-z
1/2-x,y,-z
1/2-x,1/2-y,-z
1/2+x,y,-z
1/2-x,1/2+y,z
1/2+x,-y,z
loop_
_atom_site_type_symbol
_atom_site_label
_atom_site_fract_x
_atom_site_fract_y
_atom_site_fract_z
Si Si1 0.339833 0.154571 0.054965
Si Si2 0.166198 0.305834 0.821694
Si Si3 0.165687 0.550033 0.352255
Si Si4 0.342074 0.250000 0.443825
Si Si5 0.340492 0.546229 0.892263
Si Si6 0.338289 0.138758 0.441225
Si Si7 0.334430 0.408415 0.229213
O O1 0.500000 0.168552 0.042271
O O2 0.283240 0.184071 0.112075
O O3 0.322376 0.094076 0.065034
O O4 0.250000 0.172712 0.000000
O O5 0.219747 0.250000 0.800762
O O6 0.222878 0.349977 0.778081
O O7 0.000000 0.308343 0.822305
O O8 0.250000 0.500000 0.372618
O O9 0.207548 0.596018 0.395191
O O10 0.222415 0.566039 0.288244
O O11 0.000000 0.539114 0.352907
O O12 0.500000 0.250000 0.465903
O O13 0.250000 0.250000 0.500000
O O14 0.313478 0.195512 0.411151
O O15 0.500000 0.528412 0.889655
O O16 0.250000 0.500000 0.917961
O O17 0.285758 0.559352 0.826939
O O18 0.500000 0.131699 0.457929
O O19 0.250000 0.131931 0.500000
O O20 0.500000 0.406143 0.231837
#
# Coordination Sequence:
#
# PCOD8279629 Si02
#       7
#    16  16  16   8  16  16  16
#     4   9  18  30  43  63  91 118 147 184 223 269
#     4   8  14  27  47  69  92 118 147 184 232 280
#     4  10  20  33  49  72 100 128 160 199 238 282
#     4   8  14  28  48  68  92 122 154 192 233 272
#     4   9  17  29  45  63  85 115 149 186 226 269
#     4   9  18  32  50  72  99 129 162 199 239 283
#     4   8  15  29  46  66  92 118 149 189 232 276
#
# _framework density 18.135746000000001
#
# number of rings (size 3 to 8) (size 9 to 14) (size 15 to 20)
#    0.000    3.231    0.000    2.308    0.000    2.154 
#    1.385    3.077    0.000    0.923    0.000    0.000 
#    0.000    0.000    0.000    0.000    0.000    0.000 
#
# Total GULP energy -644300.195720 kJ/mol
# GULP energy per Si atom -12390.388379 kJ/mol
# Density = 1.809447 g / cm^3
# Si number density = 18.135746 Si / 1000 Ang^3
#
#
#
# Elastic Constant Matrix: (Units=GPa)
#
#
# Indices 1 2 3 4 5 6 
#
# 1 32.1933 28.6619 16.8025 0.0000 0.0000 0.0000
# 2 28.6619 123.0601 23.1143 0.0000 0.0000 0.0000
# 3 16.8025 23.1143 58.4038 0.0000 0.0000 0.0000
# 4 0.0000 0.0000 0.0000 18.2049 0.0000 0.0000
# 5 0.0000 0.0000 0.0000 0.0000 20.8409 0.0000
# 6 0.0000 0.0000 0.0000 0.0000 0.0000 19.4203
#
#
#
# Elastic Compliance Matrix: (Units=1/GPa)
#
#
# Indices 1 2 3 4 5 6 
#
# 1 0.043279 -0.008363 -0.009141 0.000000 0.000000 0.000000
# 2 -0.008363 0.010395 -0.001708 0.000000 0.000000 0.000000
# 3 -0.009141 -0.001708 0.020428 0.000000 0.000000 0.000000
# 4 0.000000 0.000000 0.000000 0.054930 0.000000 0.000000
# 5 0.000000 0.000000 0.000000 0.000000 0.047982 0.000000
# 6 0.000000 0.000000 0.000000 0.000000 0.000000 0.051492
#
#
# Mechanical properties :
#
#
# Convention : Reuss Voigt Hill
#
# Bulk Modulus (GPa) = 28.02904 38.97940 33.50422
# Shear Modulus (GPa) = 17.93242 21.36512 19.64877
#
# Velocity S-wave (km/s) = 3.14791 3.43602 3.29512
# Velocity P-wave (km/s) = 5.35735 6.10585 5.74381
#
# Compressibility (1/GPa) = 0.03567729
#
# Stress axis : x y z
#
# Youngs Moduli (GPa) = 23.10574 96.20224 48.95242
#
# Poissons Ratio (x) = 0.80456 0.44749
# Poissons Ratio (y) = 0.19324 0.08360
# Poissons Ratio (z) = 0.21122 0.16430
#
# Static dielectric constant tensor:
#      x y z
#    x 2.948560 0.000000 0.000000 
#    y 0.000000 3.745420 0.000000 
#    z 0.000000 0.000000 3.541990 
# 
# 
# High freq. dielectric constant tensor:
#      x y z
#    x 1.662190 0.000000 0.000000 
#    y 0.000000 1.719350 0.000000 
#    z 0.000000 0.000000 1.681650 
# 
# From -- ./inp_files/41039.got.cif
#   From: 2010.03.12/outbox.cif.g09.slc.cpg/sg67_21_cif.got.tgz:41039.got - 2010.04.10 22:41:39.
