data_PCOD8279188
_publ_section_title
;
Structure prediction by ZEFSAII (Michael W. Deem and Ramdas Pophale) SiO2 
 PCOD8279188
Probable space group: C M M A
;
_chemical_formula_sum "Si O2"
_cell_formula_units_Z 80
_cell_length_a 9.991720
_cell_length_b 17.947162
_cell_length_c 24.207613
_cell_angle_alpha 90.000000
_cell_angle_beta 90.000000
_cell_angle_gamma 90.000000
_cell_volume 4340.982210
_symmetry_space_group_name_H-M "C M M A"
_symmetry_group_IT_number 67
_symmetry_cell_setting 'orthorhombic'
loop_
_space_group_symop_operation_xyz
x,y,z
-x,1/2-y,z
x,-y,-z
-x,1/2+y,-z
-x,-y,-z
x,1/2+y,-z
-x,y,z
x,1/2-y,z
1/2+x,1/2+y,z
1/2-x,-y,z
1/2+x,1/2-y,-z
1/2-x,y,-z
1/2-x,1/2-y,-z
1/2+x,y,-z
1/2-x,1/2+y,z
1/2+x,-y,z
loop_
_atom_site_type_symbol
_atom_site_label
_atom_site_fract_x
_atom_site_fract_y
_atom_site_fract_z
Si Si1 0.219865 0.838208 0.626638
Si Si2 0.845898 0.068731 0.268225
Si Si3 0.149230 0.338773 0.045550
Si Si4 0.341301 0.667400 0.167660
Si Si5 0.000000 0.161442 0.581616
Si Si6 0.000000 0.338075 0.458506
O O1 0.211434 0.750000 0.634940
O O2 0.161436 0.874318 0.681388
O O3 0.370533 0.866106 0.615210
O O4 0.131892 0.864115 0.574288
O O5 0.789268 0.109888 0.213572
O O6 0.000000 0.042801 0.260543
O O7 0.750000 0.000000 0.280610
O O8 0.145708 0.250000 0.042225
O O9 0.200313 0.362059 0.106725
O O10 0.000000 0.370247 0.034120
O O11 0.250000 0.372674 0.000000
O O12 0.500000 0.673736 0.170757
O O13 0.279990 0.750000 0.178480
O O14 0.000000 0.126586 0.519848
O O15 0.000000 0.250000 0.576837
O O16 0.000000 0.250000 0.464225
#
# Coordination Sequence:
#
# PCOD8279188 Si02
#       6
#    16  16  16  16   8   8
#     4  10  19  33  56  81 104 133 169 208 251 301
#     4  11  23  37  54  73 100 136 175 217 258 304
#     4   8  13  23  43  72 103 129 156 197 248 297
#     4   8  15  30  53  77  99 130 173 212 246 295
#     4   9  18  30  51  83 113 131 154 207 262 299
#     4   9  16  30  53  83 107 129 166 205 248 301
#
# _framework density 18.429010000000002
#
# number of rings (size 3 to 8) (size 9 to 14) (size 15 to 20)
#    0.000    2.800    1.000    2.400    1.400    3.200 
#    0.000    1.000    0.000    5.400    0.000    4.200 
#    0.000    0.000    0.000    0.000    0.000    0.000 
#
# Total GULP energy -495850.355224 kJ/mol
# GULP energy per Si atom -12396.258881 kJ/mol
# Density = 1.838706 g / cm^3
# Si number density = 18.429010 Si / 1000 Ang^3
#
#
#
# Elastic Constant Matrix: (Units=GPa)
#
#
# Indices 1 2 3 4 5 6 
#
# 1 93.7001 20.6350 31.2047 0.0000 0.0000 0.0000
# 2 20.6350 36.4627 25.0892 0.0000 0.0000 0.0000
# 3 31.2047 25.0892 114.8602 0.0000 0.0000 0.0000
# 4 0.0000 0.0000 0.0000 1.7686 0.0000 0.0000
# 5 0.0000 0.0000 0.0000 0.0000 28.4694 0.0000
# 6 0.0000 0.0000 0.0000 0.0000 0.0000 16.1624
#
#
#
# Elastic Compliance Matrix: (Units=1/GPa)
#
#
# Indices 1 2 3 4 5 6 
#
# 1 0.012649 -0.005642 -0.002204 0.000000 0.000000 0.000000
# 2 -0.005642 0.034793 -0.006067 0.000000 0.000000 0.000000
# 3 -0.002204 -0.006067 0.010630 0.000000 0.000000 0.000000
# 4 0.000000 0.000000 0.000000 0.565412 0.000000 0.000000
# 5 0.000000 0.000000 0.000000 0.000000 0.035125 0.000000
# 6 0.000000 0.000000 0.000000 0.000000 0.000000 0.061872
#
#
# Mechanical properties :
#
#
# Convention : Reuss Voigt Hill
#
# Bulk Modulus (GPa) = 33.06218 44.32009 38.69113
# Shear Modulus (GPa) = 6.59292 20.48635 13.53964
#
# Velocity S-wave (km/s) = 1.89347 3.33774 2.71346
# Velocity P-wave (km/s) = 4.77070 6.24142 5.55495
#
# Compressibility (1/GPa) = 0.03024604
#
# Stress axis : x y z
#
# Youngs Moduli (GPa) = 79.05898 28.74168 94.07093
#
# Poissons Ratio (x) = 0.16215 0.20734
# Poissons Ratio (y) = 0.44602 0.57074
# Poissons Ratio (z) = 0.17425 0.17438
#
# Static dielectric constant tensor:
#      x y z
#    x 3.423550 0.000000 0.000000 
#    y 0.000000 2.956400 0.000000 
#    z 0.000000 0.000000 3.731670 
# 
# 
# High freq. dielectric constant tensor:
#      x y z
#    x 1.703280 0.000000 0.000000 
#    y 0.000000 1.661890 0.000000 
#    z 0.000000 0.000000 1.729500 
# 
# From -- ./inp_files/37769.got.cif
#   From: 2010.03.12/outbox.cif.g09.slc.cpg/sg67_19_cif.got.tgz:37769.got - 2010.04.10 22:41:39.
