data_PCOD8279834
_publ_section_title
;
Structure prediction by ZEFSAII (Michael W. Deem and Ramdas Pophale) SiO2 
 PCOD8279834
Probable space group: C M M A
;
_chemical_formula_sum "Si O2"
_cell_formula_units_Z 104
_cell_length_a 20.367586
_cell_length_b 9.215027
_cell_length_c 29.905902
_cell_angle_alpha 90.000000
_cell_angle_beta 90.000000
_cell_angle_gamma 90.000000
_cell_volume 5612.974596
_symmetry_space_group_name_H-M "C M M A"
_symmetry_group_IT_number 67
_symmetry_cell_setting 'orthorhombic'
loop_
_space_group_symop_operation_xyz
x,y,z
-x,1/2-y,z
x,-y,-z
-x,1/2+y,-z
-x,-y,-z
x,1/2+y,-z
-x,y,z
x,1/2-y,z
1/2+x,1/2+y,z
1/2-x,-y,z
1/2+x,1/2-y,-z
1/2-x,y,-z
1/2-x,1/2-y,-z
1/2+x,y,-z
1/2-x,1/2+y,z
1/2+x,-y,z
loop_
_atom_site_type_symbol
_atom_site_label
_atom_site_fract_x
_atom_site_fract_y
_atom_site_fract_z
Si Si1 0.424738 0.418002 0.880860
Si Si2 0.924924 0.080007 0.293345
Si Si3 0.000000 0.413253 0.455926
Si Si4 0.922120 0.912850 0.205983
Si Si5 0.815422 0.422879 0.046751
Si Si6 0.858011 0.581979 0.546441
Si Si7 0.812442 0.079523 0.359951
O O1 0.500000 0.460564 0.893258
O O2 0.420695 0.250000 0.867679
O O3 0.397427 0.507486 0.838645
O O4 0.377886 0.455010 0.922227
O O5 0.920364 0.250000 0.283215
O O6 0.878905 0.033190 0.334578
O O7 0.000000 0.036129 0.305236
O O8 0.897686 0.997626 0.249761
O O9 0.000000 0.500000 0.500000
O O10 0.068975 0.446799 0.431854
O O11 0.000000 0.250000 0.472091
O O12 0.893475 0.750000 0.206782
O O13 0.000000 0.912201 0.205894
O O14 0.803794 0.250000 0.040788
O O15 0.750000 0.500000 0.066911
O O16 0.831600 0.500000 0.000000
O O17 0.842701 0.500000 0.500000
O O18 0.847260 0.750000 0.535185
O O19 0.813527 0.530942 0.587727
O O20 0.802180 0.250000 0.355750
O O21 0.750000 0.000000 0.337899
#
# Coordination Sequence:
#
# PCOD8279834 Si02
#       7
#    16  16   8  16  16  16  16
#     4   9  18  33  53  77 105 137 174 215 259 308
#     4   9  18  34  57  79  99 130 171 209 248 300
#     4   8  14  26  46  70  96 120 150 196 240 278
#     4   9  17  30  51  80 109 133 162 207 261 309
#     4  10  20  34  52  73 102 141 181 221 262 308
#     4   9  18  32  51  74  99 129 164 203 246 293
#     4  10  22  37  53  75 103 135 168 205 250 299
#
# _framework density 18.528499
#
# number of rings (size 3 to 8) (size 9 to 14) (size 15 to 20)
#    0.000    2.769    0.000    1.385    1.077    4.923 
#    0.000    2.308    0.000    0.000    0.000    0.000 
#    0.000    0.000    0.000    0.000    0.000    0.000 
#
# Total GULP energy -644304.976280 kJ/mol
# GULP energy per Si atom -12390.480313 kJ/mol
# Density = 1.848633 g / cm^3
# Si number density = 18.528499 Si / 1000 Ang^3
#
#
#
# Elastic Constant Matrix: (Units=GPa)
#
#
# Indices 1 2 3 4 5 6 
#
# 1 99.4139 45.6413 61.7901 0.0000 0.0000 0.0000
# 2 45.6413 75.8879 58.6994 0.0000 0.0000 0.0000
# 3 61.7901 58.6994 119.8601 0.0000 0.0000 0.0000
# 4 0.0000 0.0000 0.0000 26.7278 0.0000 0.0000
# 5 0.0000 0.0000 0.0000 0.0000 13.1322 0.0000
# 6 0.0000 0.0000 0.0000 0.0000 0.0000 25.5069
#
#
#
# Elastic Compliance Matrix: (Units=1/GPa)
#
#
# Indices 1 2 3 4 5 6 
#
# 1 0.015989 -0.005217 -0.005688 0.000000 0.000000 0.000000
# 2 -0.005217 0.022915 -0.008533 0.000000 0.000000 0.000000
# 3 -0.005688 -0.008533 0.015454 0.000000 0.000000 0.000000
# 4 0.000000 0.000000 0.000000 0.037414 0.000000 0.000000
# 5 0.000000 0.000000 0.000000 0.000000 0.076149 0.000000
# 6 0.000000 0.000000 0.000000 0.000000 0.000000 0.039205
#
#
# Mechanical properties :
#
#
# Convention : Reuss Voigt Hill
#
# Bulk Modulus (GPa) = 64.58605 69.71372 67.14989
# Shear Modulus (GPa) = 19.90738 21.67545 20.79142
#
# Velocity S-wave (km/s) = 3.28139 3.42401 3.35346
# Velocity P-wave (km/s) = 7.02069 7.30333 7.16340
#
# Compressibility (1/GPa) = 0.01548322
#
# Stress axis : x y z
#
# Youngs Moduli (GPa) = 62.54166 43.63929 64.70748
#
# Poissons Ratio (x) = 0.22766 0.36805
# Poissons Ratio (y) = 0.32627 0.55214
# Poissons Ratio (z) = 0.35573 0.37237
#
# Static dielectric constant tensor:
#      x y z
#    x 3.419200 0.000000 0.000000 
#    y 0.000000 3.457630 0.000000 
#    z 0.000000 0.000000 3.323420 
# 
# 
# High freq. dielectric constant tensor:
#      x y z
#    x 1.709720 0.000000 0.000000 
#    y 0.000000 1.717510 0.000000 
#    z 0.000000 0.000000 1.710440 
# 
# From -- ./inp_files/45860.got.cif
#   From: 2010.03.12/outbox.cif.g09.slc.cpg/sg67_23_cif.got.tgz:45860.got - 2010.04.10 22:41:39.
