data_PCOD8279885
_publ_section_title
;
Structure prediction by ZEFSAII (Michael W. Deem and Ramdas Pophale) SiO2 
 PCOD8279885
Probable space group: C M M A
;
_chemical_formula_sum "Si O2"
_cell_formula_units_Z 80
_cell_length_a 8.916884
_cell_length_b 18.463314
_cell_length_c 25.804943
_cell_angle_alpha 90.000000
_cell_angle_beta 90.000000
_cell_angle_gamma 90.000000
_cell_volume 4248.402705
_symmetry_space_group_name_H-M "C M M A"
_symmetry_group_IT_number 67
_symmetry_cell_setting 'orthorhombic'
loop_
_space_group_symop_operation_xyz
x,y,z
-x,1/2-y,z
x,-y,-z
-x,1/2+y,-z
-x,-y,-z
x,1/2+y,-z
-x,y,z
x,1/2-y,z
1/2+x,1/2+y,z
1/2-x,-y,z
1/2+x,1/2-y,-z
1/2-x,y,-z
1/2-x,1/2-y,-z
1/2+x,y,-z
1/2-x,1/2+y,z
1/2+x,-y,z
loop_
_atom_site_type_symbol
_atom_site_label
_atom_site_fract_x
_atom_site_fract_y
_atom_site_fract_z
Si Si1 0.665319 0.836224 0.950641
Si Si2 0.179428 0.668950 0.162161
Si Si3 0.823631 0.577011 0.257921
Si Si4 0.178521 0.924531 0.554810
Si Si5 0.672702 0.665451 0.640737
O O1 0.500000 0.869401 0.953294
O O2 0.660050 0.750000 0.954834
O O3 0.738787 0.856642 0.894750
O O4 0.750000 0.870208 0.000000
O O5 0.238071 0.750000 0.174714
O O6 0.240717 0.614391 0.205812
O O7 0.000000 0.670315 0.161334
O O8 0.750000 0.500000 0.266341
O O9 0.780371 0.627420 0.306019
O O10 0.000000 0.566469 0.253541
O O11 0.250000 0.902525 0.500000
O O12 0.219548 0.862359 0.595360
O O13 0.000000 0.932354 0.549554
O O14 0.250000 0.000000 0.574344
O O15 0.500000 0.648648 0.626414
O O16 0.700344 0.750000 0.648188
#
# Coordination Sequence:
#
# PCOD8279885 Si02
#       5
#    16  16  16  16  16
#     4   8  13  22  39  64  92 120 153 196 244 293
#     4   8  14  27  48  71  94 125 166 206 244 293
#     4  10  20  34  53  75 100 132 169 209 253 304
#     4  11  22  38  60  84 112 145 180 216 255 302
#     4  10  21  37  57  81 108 138 174 216 261 309
#
# _framework density 18.830606
#
# number of rings (size 3 to 8) (size 9 to 14) (size 15 to 20)
#    0.000    2.600    0.000    4.800    0.000    5.600 
#    0.000    1.000    0.000    3.600    0.000    4.200 
#    0.000    0.000    0.000    0.000    0.000    0.000 
#
# Total GULP energy -495857.160914 kJ/mol
# GULP energy per Si atom -12396.429023 kJ/mol
# Density = 1.878775 g / cm^3
# Si number density = 18.830606 Si / 1000 Ang^3
#
#
#
# Elastic Constant Matrix: (Units=GPa)
#
#
# Indices 1 2 3 4 5 6 
#
# 1 72.0237 37.6069 54.1374 0.0000 0.0000 0.0000
# 2 37.6069 101.6863 74.6327 0.0000 0.0000 0.0000
# 3 54.1374 74.6327 155.0928 0.0000 0.0000 0.0000
# 4 0.0000 0.0000 0.0000 345.3262 0.0000 0.0000
# 5 0.0000 0.0000 0.0000 0.0000 27.0858 0.0000
# 6 0.0000 0.0000 0.0000 0.0000 0.0000 22.8050
#
#
#
# Elastic Compliance Matrix: (Units=1/GPa)
#
#
# Indices 1 2 3 4 5 6 
#
# 1 0.019571 -0.003438 -0.005177 0.000000 0.000000 0.000000
# 2 -0.003438 0.015808 -0.006407 0.000000 0.000000 0.000000
# 3 -0.005177 -0.006407 0.011338 0.000000 0.000000 0.000000
# 4 0.000000 0.000000 0.000000 0.002896 0.000000 0.000000
# 5 0.000000 0.000000 0.000000 0.000000 0.036920 0.000000
# 6 0.000000 0.000000 0.000000 0.000000 0.000000 0.043850
#
#
# Mechanical properties :
#
#
# Convention : Reuss Voigt Hill
#
# Bulk Modulus (GPa) = 59.97846 73.50631 66.74238
# Shear Modulus (GPa) = 30.12332 89.87180 59.99756
#
# Velocity S-wave (km/s) = 4.00396 6.91593 5.65074
# Velocity P-wave (km/s) = 7.30044 10.14365 8.83714
#
# Compressibility (1/GPa) = 0.01667265
#
# Stress axis : x y z
#
# Youngs Moduli (GPa) = 51.09613 63.25868 88.19967
#
# Poissons Ratio (x) = 0.21750 0.45661
# Poissons Ratio (y) = 0.17569 0.56508
# Poissons Ratio (z) = 0.26452 0.40529
#
# Static dielectric constant tensor:
#      x y z
#    x 3.306110 0.000000 0.000000 
#    y 0.000000 3.222260 0.000000 
#    z 0.000000 0.000000 3.817220 
# 
# 
# High freq. dielectric constant tensor:
#      x y z
#    x 1.702710 0.000000 0.000000 
#    y 0.000000 1.706440 0.000000 
#    z 0.000000 0.000000 1.752740 
# 
# From -- ./inp_files/43231.got.cif
#   From: 2010.03.12/outbox.cif.g09.slc.cpg/sg67_22_cif.got.tgz:43231.got - 2010.04.10 22:41:39.
