data_PCOD8279280
_publ_section_title
;
Structure prediction by ZEFSAII (Michael W. Deem and Ramdas Pophale) SiO2 
 PCOD8279280
Probable space group: C M M A
;
_chemical_formula_sum "Si O2"
_cell_formula_units_Z 80
_cell_length_a 17.733058
_cell_length_b 17.470022
_cell_length_c 13.762161
_cell_angle_alpha 90.000000
_cell_angle_beta 90.000000
_cell_angle_gamma 90.000000
_cell_volume 4263.474999
_symmetry_space_group_name_H-M "C M M A"
_symmetry_group_IT_number 67
_symmetry_cell_setting 'orthorhombic'
loop_
_space_group_symop_operation_xyz
x,y,z
-x,1/2-y,z
x,-y,-z
-x,1/2+y,-z
-x,-y,-z
x,1/2+y,-z
-x,y,z
x,1/2-y,z
1/2+x,1/2+y,z
1/2-x,-y,z
1/2+x,1/2-y,-z
1/2-x,y,-z
1/2-x,1/2-y,-z
1/2+x,y,-z
1/2-x,1/2+y,z
1/2+x,-y,z
loop_
_atom_site_type_symbol
_atom_site_label
_atom_site_fract_x
_atom_site_fract_y
_atom_site_fract_z
Si Si1 0.177311 0.159741 0.192535
Si Si2 0.830926 0.085654 0.535237
Si Si3 0.412582 0.528987 0.108367
Si Si4 0.190117 0.065791 0.752776
Si Si5 0.082171 0.160476 0.376081
O O1 0.169441 0.250000 0.169941
O O2 0.130510 0.110792 0.113482
O O3 0.265460 0.135382 0.193386
O O4 0.142591 0.133461 0.296239
O O5 0.750000 0.116763 0.500000
O O6 0.843250 0.094630 0.650511
O O7 0.893807 0.136997 0.484001
O O8 0.843154 0.000000 0.500000
O O9 0.500000 0.539882 0.135752
O O10 0.376623 0.465454 0.179633
O O11 0.402104 0.500000 0.000000
O O12 0.250000 0.000000 0.728940
O O13 0.075388 0.250000 0.371503
O O14 0.000000 0.124217 0.352596
#
# Coordination Sequence:
#
# PCOD8279280 Si02
#       5
#    16  16  16  16  16
#     4  10  20  35  59  86 110 140 182 234 280 329
#     4  11  18  31  51  78 110 146 183 219 263 322
#     4  10  22  40  60  82 110 146 186 234 289 335
#     4  10  19  34  56  81 112 145 188 228 273 332
#     4  10  21  34  50  78 112 145 183 226 274 328
#
# _framework density 18.764036000000001
#
# number of rings (size 3 to 8) (size 9 to 14) (size 15 to 20)
#    0.000    1.800    4.000    1.800    0.000    7.200 
#    0.000    2.000    0.000    1.800    0.000    0.000 
#    0.000    0.000    0.000    0.000    0.000    0.000 
#
# Total GULP energy -495958.240278 kJ/mol
# GULP energy per Si atom -12398.956007 kJ/mol
# Density = 1.872133 g / cm^3
# Si number density = 18.764036 Si / 1000 Ang^3
#
#
#
# Elastic Constant Matrix: (Units=GPa)
#
#
# Indices 1 2 3 4 5 6 
#
# 1 80.7357 44.9218 34.1437 0.0000 0.0000 0.0000
# 2 44.9218 72.8236 35.6849 0.0000 0.0000 0.0000
# 3 34.1437 35.6849 93.3727 0.0000 0.0000 0.0000
# 4 0.0000 0.0000 0.0000 26.6880 0.0000 0.0000
# 5 0.0000 0.0000 0.0000 0.0000 31.8911 0.0000
# 6 0.0000 0.0000 0.0000 0.0000 0.0000 19.8265
#
#
#
# Elastic Compliance Matrix: (Units=1/GPa)
#
#
# Indices 1 2 3 4 5 6 
#
# 1 0.019575 -0.010541 -0.003129 0.000000 0.000000 0.000000
# 2 -0.010541 0.022573 -0.004772 0.000000 0.000000 0.000000
# 3 -0.003129 -0.004772 0.013678 0.000000 0.000000 0.000000
# 4 0.000000 0.000000 0.000000 0.037470 0.000000 0.000000
# 5 0.000000 0.000000 0.000000 0.000000 0.031357 0.000000
# 6 0.000000 0.000000 0.000000 0.000000 0.000000 0.050437
#
#
# Mechanical properties :
#
#
# Convention : Reuss Voigt Hill
#
# Bulk Modulus (GPa) = 52.79880 52.93699 52.86790
# Shear Modulus (GPa) = 22.90547 24.49324 23.69935
#
# Velocity S-wave (km/s) = 3.49766 3.61685 3.55775
# Velocity P-wave (km/s) = 6.67165 6.76131 6.71663
#
# Compressibility (1/GPa) = 0.01893982
#
# Stress axis : x y z
#
# Youngs Moduli (GPa) = 51.08605 44.30104 73.11101
#
# Poissons Ratio (x) = 0.46700 0.22878
# Poissons Ratio (y) = 0.53852 0.34889
# Poissons Ratio (z) = 0.15986 0.21141
#
# Static dielectric constant tensor:
#      x y z
#    x 3.819260 0.000000 0.000000 
#    y 0.000000 3.358090 0.000000 
#    z 0.000000 0.000000 3.230770 
# 
# 
# High freq. dielectric constant tensor:
#      x y z
#    x 1.727050 0.000000 0.000000 
#    y 0.000000 1.716130 0.000000 
#    z 0.000000 0.000000 1.721040 
# 
# From -- ./inp_files/28381.got.cif
#   From: 2010.03.12/outbox.cif.g09.slc.cpg/sg67_15_cif.got.tgz:28381.got - 2010.04.10 22:41:39.
