data_PCOD8279833
_publ_section_title
;
Structure prediction by ZEFSAII (Michael W. Deem and Ramdas Pophale) SiO2 
 PCOD8279833
Probable space group: C M M A
;
_chemical_formula_sum "Si O2"
_cell_formula_units_Z 96
_cell_length_a 13.948815
_cell_length_b 16.616121
_cell_length_c 21.111738
_cell_angle_alpha 90.000000
_cell_angle_beta 90.000000
_cell_angle_gamma 90.000000
_cell_volume 4893.177252
_symmetry_space_group_name_H-M "C M M A"
_symmetry_group_IT_number 67
_symmetry_cell_setting 'orthorhombic'
loop_
_space_group_symop_operation_xyz
x,y,z
-x,1/2-y,z
x,-y,-z
-x,1/2+y,-z
-x,-y,-z
x,1/2+y,-z
-x,y,z
x,1/2-y,z
1/2+x,1/2+y,z
1/2-x,-y,z
1/2+x,1/2-y,-z
1/2-x,y,-z
1/2-x,1/2-y,-z
1/2+x,y,-z
1/2-x,1/2+y,z
1/2+x,-y,z
loop_
_atom_site_type_symbol
_atom_site_label
_atom_site_fract_x
_atom_site_fract_y
_atom_site_fract_z
Si Si1 0.609249 0.657031 0.978954
Si Si2 0.890421 0.345675 0.213210
Si Si3 0.888020 0.340107 0.465797
Si Si4 0.895271 0.654436 0.395844
Si Si5 0.296698 0.345421 0.658881
Si Si6 0.722850 0.092127 0.906173
O O1 0.500000 0.632634 0.961836
O O2 0.614801 0.750000 0.999215
O O3 0.678925 0.641805 0.919062
O O4 0.646106 0.604021 0.037648
O O5 0.885988 0.250000 0.211303
O O6 0.847462 0.380983 0.278854
O O7 0.824018 0.379661 0.158440
O O8 0.000000 0.375489 0.205557
O O9 0.845831 0.250000 0.466190
O O10 0.864926 0.380362 0.534378
O O11 0.841259 0.384734 0.405112
O O12 0.000000 0.339737 0.453990
O O13 0.902841 0.750000 0.403951
O O14 0.816699 0.631755 0.342664
O O15 0.000000 0.620456 0.375405
O O16 0.312965 0.250000 0.659534
O O17 0.750000 0.000000 0.901218
#
# Coordination Sequence:
#
# PCOD8279833 Si02
#       6
#    16  16  16  16  16  16
#     4  10  20  36  60  86 110 135 165 204 248 293
#     4  10  20  34  52  73 100 136 176 216 256 298
#     4   8  12  18  30  51  80 114 154 201 254 309
#     4   8  13  20  31  50  80 119 158 198 252 315
#     4   9  15  23  37  58  86 123 167 209 249 300
#     4  11  22  35  54  79 108 140 171 206 246 293
#
# _framework density 19.619154999999999
#
# number of rings (size 3 to 8) (size 9 to 14) (size 15 to 20)
#    0.000    2.667    0.000    5.500    0.000    7.333 
#    0.000    0.833    0.000    3.000    0.000    0.000 
#    0.000    2.667    0.000   10.000    0.000   10.000 
#
# Total GULP energy -594780.249242 kJ/mol
# GULP energy per Si atom -12391.255193 kJ/mol
# Density = 1.957450 g / cm^3
# Si number density = 19.619155 Si / 1000 Ang^3
#
#
#
# Elastic Constant Matrix: (Units=GPa)
#
#
# Indices 1 2 3 4 5 6 
#
# 1 156.7885 26.8330 91.9184 0.0000 0.0000 0.0000
# 2 26.8330 17.9056 20.4807 0.0000 0.0000 0.0000
# 3 91.9184 20.4807 116.6249 0.0000 0.0000 0.0000
# 4 0.0000 0.0000 0.0000 1.3943 0.0000 0.0000
# 5 0.0000 0.0000 0.0000 0.0000 35.8381 0.0000
# 6 0.0000 0.0000 0.0000 0.0000 0.0000 11.7085
#
#
#
# Elastic Compliance Matrix: (Units=1/GPa)
#
#
# Indices 1 2 3 4 5 6 
#
# 1 0.013097 -0.009785 -0.008604 0.000000 0.000000 0.000000
# 2 -0.009785 0.077198 -0.005844 0.000000 0.000000 0.000000
# 3 -0.008604 -0.005844 0.016382 0.000000 0.000000 0.000000
# 4 0.000000 0.000000 0.000000 0.717227 0.000000 0.000000
# 5 0.000000 0.000000 0.000000 0.000000 0.027903 0.000000
# 6 0.000000 0.000000 0.000000 0.000000 0.000000 0.085408
#
#
# Mechanical properties :
#
#
# Convention : Reuss Voigt Hill
#
# Bulk Modulus (GPa) = 17.17939 63.30924 40.24432
# Shear Modulus (GPa) = 4.97470 19.92729 12.45099
#
# Velocity S-wave (km/s) = 1.59409 3.19047 2.52193
# Velocity P-wave (km/s) = 3.48764 6.77579 5.38864
#
# Compressibility (1/GPa) = 0.05820927
#
# Stress axis : x y z
#
# Youngs Moduli (GPa) = 76.35467 12.95372 61.04263
#
# Poissons Ratio (x) = 0.12676 0.52520
# Poissons Ratio (y) = 0.74716 0.35676
# Poissons Ratio (z) = 0.65694 0.07571
#
# Static dielectric constant tensor:
#      x y z
#    x 3.915720 0.000000 0.000000 
#    y 0.000000 2.989320 0.000000 
#    z 0.000000 0.000000 3.638280 
# 
# 
# High freq. dielectric constant tensor:
#      x y z
#    x 1.785180 0.000000 0.000000 
#    y 0.000000 1.699600 0.000000 
#    z 0.000000 0.000000 1.753320 
# 
# From -- ./inp_files/38459.got.cif
#   From: 2010.03.12/outbox.cif.g09.slc.cpg/sg67_20_cif.got.tgz:38459.got - 2010.04.10 22:41:39.
