data_PCOD8279855
_publ_section_title
;
Structure prediction by ZEFSAII (Michael W. Deem and Ramdas Pophale) SiO2 
 PCOD8279855
Probable space group: C M M A
;
_chemical_formula_sum "Si O2"
_cell_formula_units_Z 104
_cell_length_a 8.965605
_cell_length_b 24.873314
_cell_length_c 27.576495
_cell_angle_alpha 90.000000
_cell_angle_beta 90.000000
_cell_angle_gamma 90.000000
_cell_volume 6149.677195
_symmetry_space_group_name_H-M "C M M A"
_symmetry_group_IT_number 67
_symmetry_cell_setting 'orthorhombic'
loop_
_space_group_symop_operation_xyz
x,y,z
-x,1/2-y,z
x,-y,-z
-x,1/2+y,-z
-x,-y,-z
x,1/2+y,-z
-x,y,z
x,1/2-y,z
1/2+x,1/2+y,z
1/2-x,-y,z
1/2+x,1/2-y,-z
1/2-x,y,-z
1/2-x,1/2-y,-z
1/2+x,y,-z
1/2-x,1/2+y,z
1/2+x,-y,z
loop_
_atom_site_type_symbol
_atom_site_label
_atom_site_fract_x
_atom_site_fract_y
_atom_site_fract_z
Si Si1 0.672665 0.189264 0.451744
Si Si2 0.825144 0.645632 0.350507
Si Si3 0.676252 0.056480 0.714775
Si Si4 0.322848 0.250000 0.948001
Si Si5 0.677931 0.250000 0.690709
Si Si6 0.323018 0.663606 0.128416
Si Si7 0.324908 0.444059 0.825986
Si Si8 0.322721 0.750000 0.201432
O O1 0.500000 0.192832 0.463178
O O2 0.731206 0.250000 0.438925
O O3 0.750000 0.166548 0.500000
O O4 0.702112 0.146401 0.408535
O O5 0.747324 0.596290 0.324071
O O6 0.744710 0.698514 0.333481
O O7 0.000000 0.646405 0.337862
O O8 0.500000 0.053902 0.706420
O O9 0.713278 0.072949 0.770490
O O10 0.750000 0.000000 0.703005
O O11 0.500000 0.250000 0.952906
O O12 0.269533 0.304764 0.920123
O O13 0.250000 0.250000 0.000000
O O14 0.500000 0.250000 0.687563
O O15 0.740025 0.250000 0.745108
O O16 0.500000 0.662780 0.128504
O O17 0.265717 0.602289 0.136596
O O18 0.263195 0.697042 0.174308
O O19 0.500000 0.452411 0.831542
O O20 0.250000 0.500000 0.840964
O O21 0.500000 0.750000 0.200959
#
# Coordination Sequence:
#
# PCOD8279855 Si02
#       8
#    16  16  16   8   8  16  16   8
#     4   9  18  33  50  69  94 124 158 198 245 294
#     4  11  21  34  49  70 102 132 159 198 246 295
#     4  10  20  34  52  75 100 132 169 203 239 284
#     4   9  17  30  50  72  94 123 158 197 245 289
#     4  11  20  29  46  73 100 129 162 197 240 294
#     4   8  14  27  47  68  91 123 158 194 237 284
#     4   9  17  30  48  70  97 126 162 200 233 277
#     4   8  14  25  42  65  91 118 155 196 230 275
#
# _framework density 16.911456999999999
#
# number of rings (size 3 to 8) (size 9 to 14) (size 15 to 20)
#    0.000    2.615    0.769    3.000    0.000    4.308 
#    0.000    0.769    0.000    6.462    0.000    6.462 
#    0.000    0.000    0.000    0.000    0.000    0.000 
#
# Total GULP energy -644307.689137 kJ/mol
# GULP energy per Si atom -12390.532483 kJ/mol
# Density = 1.687297 g / cm^3
# Si number density = 16.911457 Si / 1000 Ang^3
#
#
#
# Elastic Constant Matrix: (Units=GPa)
#
#
# Indices 1 2 3 4 5 6 
#
# 1 55.1881 43.9830 44.7741 0.0000 0.0000 0.0000
# 2 43.9830 134.3508 72.4868 0.0000 0.0000 0.0000
# 3 44.7741 72.4868 118.7002 0.0000 0.0000 0.0000
# 4 0.0000 0.0000 0.0000 28.3783 0.0000 0.0000
# 5 0.0000 0.0000 0.0000 0.0000 24.5366 0.0000
# 6 0.0000 0.0000 0.0000 0.0000 0.0000 33.7747
#
#
#
# Elastic Compliance Matrix: (Units=1/GPa)
#
#
# Indices 1 2 3 4 5 6 
#
# 1 0.028389 -0.005244 -0.007506 0.000000 0.000000 0.000000
# 2 -0.005244 0.012069 -0.005392 0.000000 0.000000 0.000000
# 3 -0.007506 -0.005392 0.014549 0.000000 0.000000 0.000000
# 4 0.000000 0.000000 0.000000 0.035238 0.000000 0.000000
# 5 0.000000 0.000000 0.000000 0.000000 0.040755 0.000000
# 6 0.000000 0.000000 0.000000 0.000000 0.000000 0.029608
#
#
# Mechanical properties :
#
#
# Convention : Reuss Voigt Hill
#
# Bulk Modulus (GPa) = 53.41239 70.08077 61.74658
# Shear Modulus (GPa) = 24.61433 27.13759 25.87596
#
# Velocity S-wave (km/s) = 3.81922 4.01020 3.91587
# Velocity P-wave (km/s) = 7.14847 7.93549 7.55224
#
# Compressibility (1/GPa) = 0.01872225
#
# Stress axis : x y z
#
# Youngs Moduli (GPa) = 35.22526 82.85489 68.73433
#
# Poissons Ratio (x) = 0.43449 0.51592
# Poissons Ratio (y) = 0.18472 0.37064
# Poissons Ratio (z) = 0.26440 0.44678
#
# Static dielectric constant tensor:
#      x y z
#    x 3.019150 0.000000 0.000000 
#    y 0.000000 3.188680 0.000000 
#    z 0.000000 0.000000 3.293560 
# 
# 
# High freq. dielectric constant tensor:
#      x y z
#    x 1.636960 0.000000 0.000000 
#    y 0.000000 1.645720 0.000000 
#    z 0.000000 0.000000 1.643040 
# 
# From -- ./inp_files/43762.got.cif
#   From: 2010.03.12/outbox.cif.g09.slc.cpg/sg67_22_cif.got.tgz:43762.got - 2010.04.10 22:41:39.
