data_PCOD8279831
_publ_section_title
;
Structure prediction by ZEFSAII (Michael W. Deem and Ramdas Pophale) SiO2 
 PCOD8279831
Probable space group: C M M A
;
_chemical_formula_sum "Si O2"
_cell_formula_units_Z 80
_cell_length_a 18.837715
_cell_length_b 8.977328
_cell_length_c 25.786503
_cell_angle_alpha 90.000000
_cell_angle_beta 90.000000
_cell_angle_gamma 90.000000
_cell_volume 4360.816026
_symmetry_space_group_name_H-M "C M M A"
_symmetry_group_IT_number 67
_symmetry_cell_setting 'orthorhombic'
loop_
_space_group_symop_operation_xyz
x,y,z
-x,1/2-y,z
x,-y,-z
-x,1/2+y,-z
-x,-y,-z
x,1/2+y,-z
-x,y,z
x,1/2-y,z
1/2+x,1/2+y,z
1/2-x,-y,z
1/2+x,1/2-y,-z
1/2-x,y,-z
1/2-x,1/2-y,-z
1/2+x,y,-z
1/2-x,1/2+y,z
1/2+x,-y,z
loop_
_atom_site_type_symbol
_atom_site_label
_atom_site_fract_x
_atom_site_fract_y
_atom_site_fract_z
Si Si1 0.919328 0.426035 0.753858
Si Si2 0.580920 0.425346 0.052729
Si Si3 0.826445 0.926759 0.149683
Si Si4 0.825610 0.927537 0.552344
Si Si5 0.081249 0.576639 0.649721
O O1 0.917083 0.250000 0.750108
O O2 0.869818 0.483564 0.800300
O O3 0.889228 0.491944 0.700204
O O4 0.000000 0.481509 0.763851
O O5 0.500000 0.473857 0.064907
O O6 0.586260 0.250000 0.045748
O O7 0.630584 0.481296 0.099255
O O8 0.608602 0.500000 0.000000
O O9 0.818318 0.750000 0.150185
O O10 0.750000 0.000000 0.149627
O O11 0.819005 0.750000 0.545915
O O12 0.876001 0.974545 0.599365
O O13 0.857680 0.000000 0.500000
O O14 0.750000 0.000000 0.564037
O O15 0.091067 0.750000 0.660436
O O16 0.000000 0.533068 0.639435
#
# Coordination Sequence:
#
# PCOD8279831 Si02
#       5
#    16  16  16  16  16
#     4   9  18  34  55  75  96 128 169 207 244 291
#     4   9  18  34  55  76  99 130 168 208 248 292
#     4  10  21  35  51  74 104 134 165 204 249 295
#     4  10  20  34  52  73 100 133 167 203 244 293
#     4   9  19  35  53  75 102 130 162 204 252 295
#
# _framework density 18.345189000000001
#
# number of rings (size 3 to 8) (size 9 to 14) (size 15 to 20)
#    0.000    2.600    0.000    1.800    0.000    7.200 
#    0.000    6.000    0.000    6.000    0.000    0.000 
#    0.000    0.000    0.000    0.000    0.000    0.000 
#
# Total GULP energy -496038.718122 kJ/mol
# GULP energy per Si atom -12400.967953 kJ/mol
# Density = 1.830343 g / cm^3
# Si number density = 18.345189 Si / 1000 Ang^3
#
#
#
# Elastic Constant Matrix: (Units=GPa)
#
#
# Indices 1 2 3 4 5 6 
#
# 1 107.1398 35.1191 103.3231 0.0000 0.0000 0.0000
# 2 35.1191 38.5501 50.9144 0.0000 0.0000 0.0000
# 3 103.3231 50.9144 203.3235 0.0000 0.0000 0.0000
# 4 0.0000 0.0000 0.0000 34.9248 0.0000 0.0000
# 5 0.0000 0.0000 0.0000 0.0000 23.5786 0.0000
# 6 0.0000 0.0000 0.0000 0.0000 0.0000 28.2444
#
#
#
# Elastic Compliance Matrix: (Units=1/GPa)
#
#
# Indices 1 2 3 4 5 6 
#
# 1 0.019485 -0.006983 -0.008153 0.000000 0.000000 0.000000
# 2 -0.006983 0.041261 -0.006784 0.000000 0.000000 0.000000
# 3 -0.008153 -0.006784 0.010760 0.000000 0.000000 0.000000
# 4 0.000000 0.000000 0.000000 0.028633 0.000000 0.000000
# 5 0.000000 0.000000 0.000000 0.000000 0.042411 0.000000
# 6 0.000000 0.000000 0.000000 0.000000 0.000000 0.035405
#
#
# Mechanical properties :
#
#
# Convention : Reuss Voigt Hill
#
# Bulk Modulus (GPa) = 36.14414 80.85852 58.50133
# Shear Modulus (GPa) = 21.64330 27.99336 24.81833
#
# Velocity S-wave (km/s) = 3.43852 3.91055 3.68210
# Velocity P-wave (km/s) = 5.95899 8.03503 7.07359
#
# Compressibility (1/GPa) = 0.02766700
#
# Stress axis : x y z
#
# Youngs Moduli (GPa) = 51.32059 24.23588 92.93418
#
# Poissons Ratio (x) = 0.16923 0.75772
# Poissons Ratio (y) = 0.35836 0.63045
# Poissons Ratio (z) = 0.41843 0.16441
#
# Static dielectric constant tensor:
#      x y z
#    x 3.375810 0.000000 0.000000 
#    y 0.000000 3.260660 0.000000 
#    z 0.000000 0.000000 3.644750 
# 
# 
# High freq. dielectric constant tensor:
#      x y z
#    x 1.705230 0.000000 0.000000 
#    y 0.000000 1.702900 0.000000 
#    z 0.000000 0.000000 1.726280 
# 
# From -- ./inp_files/43242.got.cif
#   From: 2010.03.12/outbox.cif.g09.slc.cpg/sg67_22_cif.got.tgz:43242.got - 2010.04.10 22:41:39.
