data_PCOD8279687
_publ_section_title
;
Structure prediction by ZEFSAII (Michael W. Deem and Ramdas Pophale) SiO2 
 PCOD8279687
Probable space group: C M M A
;
_chemical_formula_sum "Si O2"
_cell_formula_units_Z 72
_cell_length_a 9.080321
_cell_length_b 19.956298
_cell_length_c 23.694437
_cell_angle_alpha 90.000000
_cell_angle_beta 90.000000
_cell_angle_gamma 90.000000
_cell_volume 4293.659257
_symmetry_space_group_name_H-M "C M M A"
_symmetry_group_IT_number 67
_symmetry_cell_setting 'orthorhombic'
loop_
_space_group_symop_operation_xyz
x,y,z
-x,1/2-y,z
x,-y,-z
-x,1/2+y,-z
-x,-y,-z
x,1/2+y,-z
-x,y,z
x,1/2-y,z
1/2+x,1/2+y,z
1/2-x,-y,z
1/2+x,1/2-y,-z
1/2-x,y,-z
1/2-x,1/2-y,-z
1/2+x,y,-z
1/2-x,1/2+y,z
1/2+x,-y,z
loop_
_atom_site_type_symbol
_atom_site_label
_atom_site_fract_x
_atom_site_fract_y
_atom_site_fract_z
Si Si1 0.673985 0.568651 0.138120
Si Si2 0.171870 0.828073 0.058290
Si Si3 0.331994 0.250000 0.441696
Si Si4 0.170150 0.933755 0.731327
Si Si5 0.665016 0.824279 0.664549
O O1 0.500000 0.565438 0.125549
O O2 0.750000 0.500000 0.117042
O O3 0.748110 0.630952 0.107134
O O4 0.708952 0.580431 0.203727
O O5 0.193268 0.750000 0.072260
O O6 0.000000 0.847205 0.054605
O O7 0.250000 0.847367 0.000000
O O8 0.500000 0.250000 0.459151
O O9 0.250000 0.250000 0.500000
O O10 0.298361 0.315828 0.402687
O O11 0.217013 0.871150 0.693824
O O12 0.000000 0.946232 0.722523
O O13 0.250000 0.000000 0.709085
O O14 0.500000 0.853507 0.672760
O O15 0.673208 0.750000 0.692593
#
# Coordination Sequence:
#
# PCOD8279687 Si02
#       5
#    16  16   8  16  16
#     4  10  21  36  53  75 102 132 169 210 252 302
#     4  10  21  37  56  77 101 131 166 206 255 305
#     4   8  16  30  50  76 104 136 169 208 251 292
#     4  10  20  33  51  74 102 136 170 208 254 301
#     4   8  17  32  49  73 103 134 168 206 248 295
#
# _framework density 16.768913999999999
#
# number of rings (size 3 to 8) (size 9 to 14) (size 15 to 20)
#    0.667    2.000    0.000    2.000    0.000    6.667 
#    0.000    6.667    0.000    0.667    0.000    4.667 
#    0.000    0.000    0.000    0.000    0.000    0.000 
#
# Total GULP energy -446203.777799 kJ/mol
# GULP energy per Si atom -12394.549383 kJ/mol
# Density = 1.673075 g / cm^3
# Si number density = 16.768914 Si / 1000 Ang^3
#
#
#
# Elastic Constant Matrix: (Units=GPa)
#
#
# Indices 1 2 3 4 5 6 
#
# 1 104.6208 52.3720 58.9735 0.0000 0.0000 0.0000
# 2 52.3720 83.1998 55.1824 0.0000 0.0000 0.0000
# 3 58.9735 55.1824 82.8786 0.0000 0.0000 0.0000
# 4 0.0000 0.0000 0.0000 0.6279 0.0000 0.0000
# 5 0.0000 0.0000 0.0000 0.0000 34.4599 0.0000
# 6 0.0000 0.0000 0.0000 0.0000 0.0000 35.8872
#
#
#
# Elastic Compliance Matrix: (Units=1/GPa)
#
#
# Indices 1 2 3 4 5 6 
#
# 1 0.016961 -0.004785 -0.008883 0.000000 0.000000 0.000000
# 2 -0.004785 0.022875 -0.011826 0.000000 0.000000 0.000000
# 3 -0.008883 -0.011826 0.026260 0.000000 0.000000 0.000000
# 4 0.000000 0.000000 0.000000 1.592713 0.000000 0.000000
# 5 0.000000 0.000000 0.000000 0.000000 0.029019 0.000000
# 6 0.000000 0.000000 0.000000 0.000000 0.000000 0.027865
#
#
# Mechanical properties :
#
#
# Convention : Reuss Voigt Hill
#
# Bulk Modulus (GPa) = 66.18568 67.08389 66.63479
# Shear Modulus (GPa) = 2.82212 21.13975 11.98094
#
# Velocity S-wave (km/s) = 1.29869 3.55442 2.67586
# Velocity P-wave (km/s) = 6.46558 7.54566 7.02640
#
# Compressibility (1/GPa) = 0.01510901
#
# Stress axis : x y z
#
# Youngs Moduli (GPa) = 58.96002 43.71677 38.08017
#
# Poissons Ratio (x) = 0.20917 0.33826
# Poissons Ratio (y) = 0.28211 0.45033
# Poissons Ratio (z) = 0.52373 0.51698
#
# Static dielectric constant tensor:
#      x y z
#    x 3.202530 0.000000 0.000000 
#    y 0.000000 3.043450 0.000000 
#    z 0.000000 0.000000 2.999060 
# 
# 
# High freq. dielectric constant tensor:
#      x y z
#    x 1.660610 0.000000 0.000000 
#    y 0.000000 1.638100 0.000000 
#    z 0.000000 0.000000 1.631960 
# 
# From -- ./inp_files/36770.got.cif
#   From: 2010.03.12/outbox.cif.g09.slc.cpg/sg67_19_cif.got.tgz:36770.got - 2010.04.10 22:41:39.
