data_PCOD8279607
_publ_section_title
;
Structure prediction by ZEFSAII (Michael W. Deem and Ramdas Pophale) SiO2 
 PCOD8279607
Probable space group: C M M A
;
_chemical_formula_sum "Si O2"
_cell_formula_units_Z 96
_cell_length_a 28.829994
_cell_length_b 9.632868
_cell_length_c 20.556503
_cell_angle_alpha 90.000000
_cell_angle_beta 90.000000
_cell_angle_gamma 90.000000
_cell_volume 5708.860057
_symmetry_space_group_name_H-M "C M M A"
_symmetry_group_IT_number 67
_symmetry_cell_setting 'orthorhombic'
loop_
_space_group_symop_operation_xyz
x,y,z
-x,1/2-y,z
x,-y,-z
-x,1/2+y,-z
-x,-y,-z
x,1/2+y,-z
-x,y,z
x,1/2-y,z
1/2+x,1/2+y,z
1/2-x,-y,z
1/2+x,1/2-y,-z
1/2-x,y,-z
1/2-x,1/2-y,-z
1/2+x,y,-z
1/2-x,1/2+y,z
1/2+x,-y,z
loop_
_atom_site_type_symbol
_atom_site_label
_atom_site_fract_x
_atom_site_fract_y
_atom_site_fract_z
Si Si1 0.706743 0.910673 0.229826
Si Si2 0.707610 0.908598 0.381119
Si Si3 0.891028 0.412843 0.437730
Si Si4 0.106932 0.914601 0.811058
Si Si5 0.552290 0.584739 0.312794
Si Si6 0.053781 0.410902 0.062113
O O1 0.717962 0.750000 0.216693
O O2 0.697230 0.938861 0.305658
O O3 0.660794 0.959771 0.191345
O O4 0.750000 0.000000 0.203920
O O5 0.722015 0.750000 0.391405
O O6 0.662254 0.947027 0.421774
O O7 0.750000 0.000000 0.407584
O O8 0.906836 0.500000 0.500000
O O9 0.898232 0.250000 0.451267
O O10 0.922608 0.465157 0.378286
O O11 0.103171 0.750000 0.806882
O O12 0.079117 0.977827 0.749652
O O13 0.083977 0.967850 0.877686
O O14 0.500000 0.527103 0.312432
O O15 0.553035 0.750000 0.309624
O O16 0.064210 0.250000 0.047294
O O17 0.000000 0.433298 0.079718
O O18 0.068693 0.500000 0.000000
#
# Coordination Sequence:
#
# PCOD8279607 Si02
#       6
#    16  16  16  16  16  16
#     4   9  16  28  47  70  94 118 149 191 234 273
#     4   9  17  30  47  66  90 117 148 188 234 278
#     4  10  20  33  47  66  92 121 152 190 235 279
#     4   9  15  27  49  73  95 121 156 195 229 265
#     4   9  16  28  48  71  91 115 154 198 232 267
#     4   9  17  29  47  73 102 129 156 187 227 274
#
# _framework density 16.815967000000001
#
# number of rings (size 3 to 8) (size 9 to 14) (size 15 to 20)
#    0.000    2.833    1.667    0.500    0.000    3.333 
#    0.000    2.500    0.000    1.500    0.000    3.500 
#    0.000    0.000    0.000    0.000    0.000    0.000 
#
# Total GULP energy -595175.880257 kJ/mol
# GULP energy per Si atom -12399.497505 kJ/mol
# Density = 1.677769 g / cm^3
# Si number density = 16.815967 Si / 1000 Ang^3
#
#
#
# Elastic Constant Matrix: (Units=GPa)
#
#
# Indices 1 2 3 4 5 6 
#
# 1 120.7388 40.4834 76.3229 0.0000 0.0000 0.0000
# 2 40.4834 38.4438 41.3254 0.0000 0.0000 0.0000
# 3 76.3229 41.3254 129.2657 0.0000 0.0000 0.0000
# 4 0.0000 0.0000 0.0000 23.9531 0.0000 0.0000
# 5 0.0000 0.0000 0.0000 0.0000 27.3478 0.0000
# 6 0.0000 0.0000 0.0000 0.0000 0.0000 18.6735
#
#
#
# Elastic Compliance Matrix: (Units=1/GPa)
#
#
# Indices 1 2 3 4 5 6 
#
# 1 0.015285 -0.009743 -0.005910 0.000000 0.000000 0.000000
# 2 -0.009743 0.045842 -0.008903 0.000000 0.000000 0.000000
# 3 -0.005910 -0.008903 0.014072 0.000000 0.000000 0.000000
# 4 0.000000 0.000000 0.000000 0.041748 0.000000 0.000000
# 5 0.000000 0.000000 0.000000 0.000000 0.036566 0.000000
# 6 0.000000 0.000000 0.000000 0.000000 0.000000 0.053552
#
#
# Mechanical properties :
#
#
# Convention : Reuss Voigt Hill
#
# Bulk Modulus (GPa) = 38.33313 67.19017 52.76165
# Shear Modulus (GPa) = 18.87703 22.68266 20.77984
#
# Velocity S-wave (km/s) = 3.35411 3.67669 3.51910
# Velocity P-wave (km/s) = 6.15185 7.62017 6.92503
#
# Compressibility (1/GPa) = 0.02608709
#
# Stress axis : x y z
#
# Youngs Moduli (GPa) = 65.42334 21.81407 71.06470
#
# Poissons Ratio (x) = 0.21253 0.42000
# Poissons Ratio (y) = 0.63742 0.63268
# Poissons Ratio (z) = 0.38666 0.19421
#
# Static dielectric constant tensor:
#      x y z
#    x 3.296160 0.000000 0.000000 
#    y 0.000000 2.813140 0.000000 
#    z 0.000000 0.000000 3.108220 
# 
# 
# High freq. dielectric constant tensor:
#      x y z
#    x 1.654760 0.000000 0.000000 
#    y 0.000000 1.608430 0.000000 
#    z 0.000000 0.000000 1.637940 
# 
# From -- ./inp_files/33025.got.cif
#   From: 2010.03.12/outbox.cif.g09.slc.cpg/sg67_17_cif.got.tgz:33025.got - 2010.04.10 22:41:39.
