data_PCOD8279415
_publ_section_title
;
Structure prediction by ZEFSAII (Michael W. Deem and Ramdas Pophale) SiO2 
 PCOD8279415
Probable space group: C M M A
;
_chemical_formula_sum "Si O2"
_cell_formula_units_Z 88
_cell_length_a 14.111818
_cell_length_b 23.045697
_cell_length_c 11.305679
_cell_angle_alpha 90.000000
_cell_angle_beta 90.000000
_cell_angle_gamma 90.000000
_cell_volume 3676.795409
_symmetry_space_group_name_H-M "C M M A"
_symmetry_group_IT_number 67
_symmetry_cell_setting 'orthorhombic'
loop_
_space_group_symop_operation_xyz
x,y,z
-x,1/2-y,z
x,-y,-z
-x,1/2+y,-z
-x,-y,-z
x,1/2+y,-z
-x,y,z
x,1/2-y,z
1/2+x,1/2+y,z
1/2-x,-y,z
1/2+x,1/2-y,-z
1/2-x,y,-z
1/2-x,1/2-y,-z
1/2+x,y,-z
1/2-x,1/2+y,z
1/2+x,-y,z
loop_
_atom_site_type_symbol
_atom_site_label
_atom_site_fract_x
_atom_site_fract_y
_atom_site_fract_z
Si Si1 0.605930 0.582183 0.312321
Si Si2 0.891305 0.855384 0.108234
Si Si3 0.640700 0.987103 0.872610
Si Si4 0.609315 0.815037 0.647276
Si Si5 0.250000 0.892926 0.500000
Si Si6 0.387609 0.815560 0.141611
O O1 0.500000 0.593231 0.365712
O O2 0.593621 0.527313 0.226211
O O3 0.686200 0.567958 0.410911
O O4 0.644074 0.639742 0.243965
O O5 0.876051 0.920312 0.155082
O O6 0.852934 0.816356 0.216526
O O7 0.000000 0.841181 0.087847
O O8 0.842246 0.839020 0.982736
O O9 0.750000 0.000000 0.877034
O O10 0.593371 0.000000 0.000000
O O11 0.500000 0.836921 0.642509
O O12 0.616861 0.750000 0.598750
O O13 0.672872 0.854217 0.564793
O O14 0.500000 0.816507 0.134991
O O15 0.351482 0.750000 0.168162
#
# Coordination Sequence:
#
# PCOD8279415 Si02
#       6
#    16  16  16  16   8  16
#     4  11  24  43  68  99 135 181 231 279 335 399
#     4  10  19  36  64  95 127 164 214 276 342 407
#     4  11  22  38  64  97 138 173 215 272 340 409
#     4  10  22  41  65  92 126 174 227 279 339 403
#     4  12  25  44  65  90 134 180 234 282 328 388
#     4   9  18  34  60  96 133 166 210 274 341 403
#
# _framework density 23.933885
#
# number of rings (size 3 to 8) (size 9 to 14) (size 15 to 20)
#    0.000    1.636    1.818    3.000    0.000    4.364 
#    0.000    5.909    0.000    9.818    0.000    0.000 
#    0.000    0.000    0.000    0.000    0.000    0.000 
#
# Total GULP energy -545396.197396 kJ/mol
# GULP energy per Si atom -12395.368123 kJ/mol
# Density = 2.387941 g / cm^3
# Si number density = 23.933885 Si / 1000 Ang^3
#
#
#
# Elastic Constant Matrix: (Units=GPa)
#
#
# Indices 1 2 3 4 5 6 
#
# 1 77.2184 7.2396 44.9357 0.0000 0.0000 0.0000
# 2 7.2396 104.4314 26.4375 0.0000 0.0000 0.0000
# 3 44.9357 26.4375 118.6278 0.0000 0.0000 0.0000
# 4 0.0000 0.0000 0.0000 30.2127 0.0000 0.0000
# 5 0.0000 0.0000 0.0000 0.0000 32.6311 0.0000
# 6 0.0000 0.0000 0.0000 0.0000 0.0000 21.7079
#
#
#
# Elastic Compliance Matrix: (Units=1/GPa)
#
#
# Indices 1 2 3 4 5 6 
#
# 1 0.016634 0.000468 -0.006405 0.000000 0.000000 0.000000
# 2 0.000468 0.010161 -0.002442 0.000000 0.000000 0.000000
# 3 -0.006405 -0.002442 0.011400 0.000000 0.000000 0.000000
# 4 0.000000 0.000000 0.000000 0.033099 0.000000 0.000000
# 5 0.000000 0.000000 0.000000 0.000000 0.030646 0.000000
# 6 0.000000 0.000000 0.000000 0.000000 0.000000 0.046066
#
#
# Mechanical properties :
#
#
# Convention : Reuss Voigt Hill
#
# Bulk Modulus (GPa) = 46.64664 50.83370 48.74017
# Shear Modulus (GPa) = 29.08509 31.68799 30.38654
#
# Velocity S-wave (km/s) = 3.48979 3.64260 3.56701
# Velocity P-wave (km/s) = 5.98083 6.24313 6.11339
#
# Compressibility (1/GPa) = 0.02143777
#
# Stress axis : x y z
#
# Youngs Moduli (GPa) = 60.11877 98.41167 87.71775
#
# Poissons Ratio (x) = -0.04610 0.56185
# Poissons Ratio (y) = -0.02816 0.21421
# Poissons Ratio (z) = 0.38507 0.24032
#
# Static dielectric constant tensor:
#      x y z
#    x 4.222040 0.000000 0.000000 
#    y 0.000000 4.233460 0.000000 
#    z 0.000000 0.000000 4.596250 
# 
# 
# High freq. dielectric constant tensor:
#      x y z
#    x 1.956000 0.000000 0.000000 
#    y 0.000000 1.939390 0.000000 
#    z 0.000000 0.000000 1.942410 
# 
# From -- ./inp_files/18121.got.cif
#   From: 2010.03.12/outbox.cif.g09.slc.cpg/sg67_10_cif.got.tgz:18121.got - 2010.04.10 22:41:39.
