data_PCOD8279611
_publ_section_title
;
Structure prediction by ZEFSAII (Michael W. Deem and Ramdas Pophale) SiO2 
 PCOD8279611
Probable space group: C M M A
;
_chemical_formula_sum "Si O2"
_cell_formula_units_Z 88
_cell_length_a 9.283636
_cell_length_b 30.220538
_cell_length_c 17.726511
_cell_angle_alpha 90.000000
_cell_angle_beta 90.000000
_cell_angle_gamma 90.000000
_cell_volume 4973.287432
_symmetry_space_group_name_H-M "C M M A"
_symmetry_group_IT_number 67
_symmetry_cell_setting 'orthorhombic'
loop_
_space_group_symop_operation_xyz
x,y,z
-x,1/2-y,z
x,-y,-z
-x,1/2+y,-z
-x,-y,-z
x,1/2+y,-z
-x,y,z
x,1/2-y,z
1/2+x,1/2+y,z
1/2-x,-y,z
1/2+x,1/2-y,-z
1/2-x,y,-z
1/2-x,1/2-y,-z
1/2+x,y,-z
1/2-x,1/2+y,z
1/2+x,-y,z
loop_
_atom_site_type_symbol
_atom_site_label
_atom_site_fract_x
_atom_site_fract_y
_atom_site_fract_z
Si Si1 0.837799 0.250000 0.425581
Si Si2 0.836442 0.041887 0.735407
Si Si3 0.332880 0.800071 0.924420
Si Si4 0.828491 0.920385 0.426590
Si Si5 0.832023 0.342577 0.358285
Si Si6 0.666153 0.863356 0.787795
O O1 0.750000 0.250000 0.500000
O O2 0.801480 0.292003 0.375543
O O3 0.000000 0.250000 0.453263
O O4 0.787997 0.053107 0.649509
O O5 0.814004 0.083306 0.792466
O O6 0.000000 0.026815 0.733956
O O7 0.750000 0.000000 0.766784
O O8 0.500000 0.802638 0.943548
O O9 0.292586 0.750000 0.896761
O O10 0.291230 0.837521 0.863633
O O11 0.250000 0.812570 0.000000
O O12 0.750000 0.942147 0.500000
O O13 0.761770 0.871545 0.416511
O O14 0.000000 0.917735 0.439221
O O15 0.777534 0.346946 0.273678
O O16 0.000000 0.355955 0.364450
O O17 0.500000 0.853045 0.764617
#
# Coordination Sequence:
#
# PCOD8279611 Si02
#       6
#     8  16  16  16  16  16
#     4  10  22  34  44  64  93 126 167 212 253 292
#     4   9  19  34  51  72  99 129 167 213 257 305
#     4   9  18  33  54  81 111 140 169 201 244 296
#     4  10  20  34  50  70  96 127 165 213 263 310
#     4  10  20  33  48  69  96 129 170 212 253 300
#     4   9  19  35  53  76 104 134 168 206 250 299
#
# _framework density 17.694533
#
# number of rings (size 3 to 8) (size 9 to 14) (size 15 to 20)
#    0.000    2.545    0.000    2.727    1.273    7.636 
#    0.000    1.818    0.000    0.545    0.000    3.818 
#    0.000    0.000    0.000    0.000    0.000    0.000 
#
# Total GULP energy -545405.571865 kJ/mol
# GULP energy per Si atom -12395.581179 kJ/mol
# Density = 1.765426 g / cm^3
# Si number density = 17.694533 Si / 1000 Ang^3
#
#
#
# Elastic Constant Matrix: (Units=GPa)
#
#
# Indices 1 2 3 4 5 6 
#
# 1 61.3757 43.1991 31.4651 0.0000 0.0000 0.0000
# 2 43.1991 110.7278 44.3241 0.0000 0.0000 0.0000
# 3 31.4651 44.3241 85.0363 0.0000 0.0000 0.0000
# 4 0.0000 0.0000 0.0000 9.8074 0.0000 0.0000
# 5 0.0000 0.0000 0.0000 0.0000 30.0177 0.0000
# 6 0.0000 0.0000 0.0000 0.0000 0.0000 30.0063
#
#
#
# Elastic Compliance Matrix: (Units=1/GPa)
#
#
# Indices 1 2 3 4 5 6 
#
# 1 0.024075 -0.007363 -0.005070 0.000000 0.000000 0.000000
# 2 -0.007363 0.013664 -0.004398 0.000000 0.000000 0.000000
# 3 -0.005070 -0.004398 0.015928 0.000000 0.000000 0.000000
# 4 0.000000 0.000000 0.000000 0.101963 0.000000 0.000000
# 5 0.000000 0.000000 0.000000 0.000000 0.033314 0.000000
# 6 0.000000 0.000000 0.000000 0.000000 0.000000 0.033326
#
#
# Mechanical properties :
#
#
# Convention : Reuss Voigt Hill
#
# Bulk Modulus (GPa) = 49.98760 55.01292 52.50026
# Shear Modulus (GPa) = 19.04030 23.17639 21.10835
#
# Velocity S-wave (km/s) = 3.28389 3.62305 3.45763
# Velocity P-wave (km/s) = 6.53377 6.97566 6.75833
#
# Compressibility (1/GPa) = 0.02000496
#
# Stress axis : x y z
#
# Youngs Moduli (GPa) = 41.53724 73.18430 62.78192
#
# Poissons Ratio (x) = 0.53884 0.31833
# Poissons Ratio (y) = 0.30583 0.27611
# Poissons Ratio (z) = 0.21061 0.32186
#
# Static dielectric constant tensor:
#      x y z
#    x 3.335010 0.000000 0.000000 
#    y 0.000000 3.415710 0.000000 
#    z 0.000000 0.000000 3.032660 
# 
# 
# High freq. dielectric constant tensor:
#      x y z
#    x 1.691540 0.000000 0.000000 
#    y 0.000000 1.685360 0.000000 
#    z 0.000000 0.000000 1.659290 
# 
# From -- ./inp_files/32437.got.cif
#   From: 2010.03.12/outbox.cif.g09.slc.cpg/sg67_17_cif.got.tgz:32437.got - 2010.04.10 22:41:39.
