data_PCOD8279804
_publ_section_title
;
Structure prediction by ZEFSAII (Michael W. Deem and Ramdas Pophale) SiO2 
 PCOD8279804
Probable space group: C M M A
;
_chemical_formula_sum "Si O2"
_cell_formula_units_Z 64
_cell_length_a 39.061162
_cell_length_b 8.935553
_cell_length_c 10.239491
_cell_angle_alpha 90.000000
_cell_angle_beta 90.000000
_cell_angle_gamma 90.000000
_cell_volume 3573.921115
_symmetry_space_group_name_H-M "C M M A"
_symmetry_group_IT_number 67
_symmetry_cell_setting 'orthorhombic'
loop_
_space_group_symop_operation_xyz
x,y,z
-x,1/2-y,z
x,-y,-z
-x,1/2+y,-z
-x,-y,-z
x,1/2+y,-z
-x,y,z
x,1/2-y,z
1/2+x,1/2+y,z
1/2-x,-y,z
1/2+x,1/2-y,-z
1/2-x,y,-z
1/2-x,1/2-y,-z
1/2+x,y,-z
1/2-x,1/2+y,z
1/2+x,-y,z
loop_
_atom_site_type_symbol
_atom_site_label
_atom_site_fract_x
_atom_site_fract_y
_atom_site_fract_z
Si Si1 0.586177 0.426494 0.367026
Si Si2 0.213776 0.928650 0.135459
Si Si3 0.835881 0.925293 0.367547
Si Si4 0.039055 0.073868 0.866692
O O1 0.572648 0.500000 0.500000
O O2 0.582661 0.250000 0.381643
O O3 0.625206 0.475648 0.338732
O O4 0.562698 0.487425 0.249838
O O5 0.217116 0.750000 0.121247
O O6 0.186987 0.977121 0.246083
O O7 0.250000 0.000000 0.174458
O O8 0.200672 0.000000 0.000000
O O9 0.833296 0.750000 0.388799
O O10 0.821956 0.000000 0.500000
O O11 0.042930 0.250000 0.882483
O O12 0.000000 0.027110 0.836591
O O13 0.052144 0.000000 0.000000
#
# Coordination Sequence:
#
# PCOD8279804 Si02
#       4
#    16  16  16  16
#     4   9  18  33  50  70  97 126 158 196 236 279
#     4  10  20  34  51  72  97 125 158 195 236 281
#     4   9  19  34  51  71  96 126 159 195 235 281
#     4   9  18  32  49  70  97 127 159 196 236 279
#
# _framework density 17.907502000000001
#
# number of rings (size 3 to 8) (size 9 to 14) (size 15 to 20)
#    0.000    2.750    0.000    1.500    0.000    5.000 
#    0.000    2.500    0.000    0.000    0.000    0.000 
#    0.000    0.000    0.000    0.000    0.000    0.000 
#
# Total GULP energy -396833.946835 kJ/mol
# GULP energy per Si atom -12401.060839 kJ/mol
# Density = 1.786674 g / cm^3
# Si number density = 17.907502 Si / 1000 Ang^3
#
#
#
# Elastic Constant Matrix: (Units=GPa)
#
#
# Indices 1 2 3 4 5 6 
#
# 1 94.3897 32.4351 105.4022 0.0000 0.0000 0.0000
# 2 32.4351 39.0193 49.1662 0.0000 0.0000 0.0000
# 3 105.4022 49.1662 195.0797 0.0000 0.0000 0.0000
# 4 0.0000 0.0000 0.0000 35.3944 0.0000 0.0000
# 5 0.0000 0.0000 0.0000 0.0000 43.3460 0.0000
# 6 0.0000 0.0000 0.0000 0.0000 0.0000 21.4630
#
#
#
# Elastic Compliance Matrix: (Units=1/GPa)
#
#
# Indices 1 2 3 4 5 6 
#
# 1 0.027665 -0.006099 -0.013411 0.000000 0.000000 0.000000
# 2 -0.006099 0.038899 -0.006508 0.000000 0.000000 0.000000
# 3 -0.013411 -0.006508 0.014012 0.000000 0.000000 0.000000
# 4 0.000000 0.000000 0.000000 0.028253 0.000000 0.000000
# 5 0.000000 0.000000 0.000000 0.000000 0.023070 0.000000
# 6 0.000000 0.000000 0.000000 0.000000 0.000000 0.046592
#
#
# Mechanical properties :
#
#
# Convention : Reuss Voigt Hill
#
# Bulk Modulus (GPa) = 35.03778 78.05508 56.54643
# Shear Modulus (GPa) = 20.82972 29.47302 25.15137
#
# Velocity S-wave (km/s) = 3.41425 4.06131 3.75175
# Velocity P-wave (km/s) = 5.92885 8.10400 7.10021
#
# Compressibility (1/GPa) = 0.02854062
#
# Stress axis : x y z
#
# Youngs Moduli (GPa) = 36.14628 25.70740 71.36645
#
# Poissons Ratio (x) = 0.15679 0.95706
# Poissons Ratio (y) = 0.22046 0.46449
# Poissons Ratio (z) = 0.48474 0.16732
#
# Static dielectric constant tensor:
#      x y z
#    x 3.423090 0.000000 0.000000 
#    y 0.000000 3.214490 0.000000 
#    z 0.000000 0.000000 3.461020 
# 
# 
# High freq. dielectric constant tensor:
#      x y z
#    x 1.689640 0.000000 0.000000 
#    y 0.000000 1.688550 0.000000 
#    z 0.000000 0.000000 1.701320 
# 
# From -- ./inp_files/15798.got.cif
#   From: 2010.03.12/outbox.cif.g09.slc.cpg/sg67_8_cif.got.tgz:15798.got - 2010.04.10 22:41:39.
