data_PCOD8279300
_publ_section_title
;
Structure prediction by ZEFSAII (Michael W. Deem and Ramdas Pophale) SiO2 
 PCOD8279300
Probable space group: C M M A
;
_chemical_formula_sum "Si O2"
_cell_formula_units_Z 72
_cell_length_a 22.671163
_cell_length_b 9.331134
_cell_length_c 17.727779
_cell_angle_alpha 90.000000
_cell_angle_beta 90.000000
_cell_angle_gamma 90.000000
_cell_volume 3750.270162
_symmetry_space_group_name_H-M "C M M A"
_symmetry_group_IT_number 67
_symmetry_cell_setting 'orthorhombic'
loop_
_space_group_symop_operation_xyz
x,y,z
-x,1/2-y,z
x,-y,-z
-x,1/2+y,-z
-x,-y,-z
x,1/2+y,-z
-x,y,z
x,1/2-y,z
1/2+x,1/2+y,z
1/2-x,-y,z
1/2+x,1/2-y,-z
1/2-x,y,-z
1/2-x,1/2-y,-z
1/2+x,y,-z
1/2-x,1/2+y,z
1/2+x,-y,z
loop_
_atom_site_type_symbol
_atom_site_label
_atom_site_fract_x
_atom_site_fract_y
_atom_site_fract_z
Si Si1 0.603180 0.000000 0.500000
Si Si2 0.312217 0.922583 0.927793
Si Si3 0.191674 0.913633 0.372787
Si Si4 0.374618 0.419262 0.225803
Si Si5 0.500000 0.898856 0.408111
Si Si6 0.000000 0.919163 0.268502
O O1 0.644136 0.080166 0.439487
O O2 0.559173 0.109372 0.541548
O O3 0.306145 0.750000 0.938548
O O4 0.349203 0.964588 0.854520
O O5 0.250000 0.000000 0.917409
O O6 0.343083 0.000000 0.000000
O O7 0.210717 0.750000 0.360408
O O8 0.164372 0.979798 0.295246
O O9 0.250000 0.000000 0.395293
O O10 0.376495 0.250000 0.235297
O O11 0.441235 0.481449 0.228964
O O12 0.500000 0.750000 0.360670
O O13 0.500000 0.037925 0.355970
O O14 0.000000 0.750000 0.265245
#
# Coordination Sequence:
#
# PCOD8279300 Si02
#       6
#     8  16  16  16   8   8
#     4  11  23  38  58  78 113 149 188 228 288 341
#     4  10  19  34  57  86 115 145 182 222 270 327
#     4  11  23  39  57  80 110 149 190 232 281 334
#     4   9  19  36  59  83 108 145 189 225 271 334
#     4  11  23  37  58  87 108 138 190 246 287 324
#     4  10  19  39  63  80 106 148 188 228 279 340
#
# _framework density 19.198616000000001
#
# number of rings (size 3 to 8) (size 9 to 14) (size 15 to 20)
#    0.000    1.778    2.222    3.000    0.000    4.444 
#    0.000    3.889    0.000    0.000    0.000    0.000 
#    0.000    0.000    0.000    0.000    0.000    0.000 
#
# Total GULP energy -446132.963366 kJ/mol
# GULP energy per Si atom -12392.582316 kJ/mol
# Density = 1.915492 g / cm^3
# Si number density = 19.198616 Si / 1000 Ang^3
#
#
#
# Elastic Constant Matrix: (Units=GPa)
#
#
# Indices 1 2 3 4 5 6 
#
# 1 139.1139 35.3108 68.7094 0.0000 0.0000 0.0000
# 2 35.3108 67.7694 28.1224 0.0000 0.0000 0.0000
# 3 68.7094 28.1224 147.1060 0.0000 0.0000 0.0000
# 4 0.0000 0.0000 0.0000 19.0916 0.0000 0.0000
# 5 0.0000 0.0000 0.0000 0.0000 28.6458 0.0000
# 6 0.0000 0.0000 0.0000 0.0000 0.0000 192.5736
#
#
#
# Elastic Compliance Matrix: (Units=1/GPa)
#
#
# Indices 1 2 3 4 5 6 
#
# 1 0.010087 -0.003585 -0.004026 0.000000 0.000000 0.000000
# 2 -0.003585 0.017302 -0.001633 0.000000 0.000000 0.000000
# 3 -0.004026 -0.001633 0.008990 0.000000 0.000000 0.000000
# 4 0.000000 0.000000 0.000000 0.052379 0.000000 0.000000
# 5 0.000000 0.000000 0.000000 0.000000 0.034909 0.000000
# 6 0.000000 0.000000 0.000000 0.000000 0.000000 0.005193
#
#
# Mechanical properties :
#
#
# Convention : Reuss Voigt Hill
#
# Bulk Modulus (GPa) = 55.89490 68.69716 62.29603
# Shear Modulus (GPa) = 32.61338 62.85199 47.73268
#
# Velocity S-wave (km/s) = 4.12604 5.72790 4.99165
# Velocity P-wave (km/s) = 7.20251 8.92217 8.10806
#
# Compressibility (1/GPa) = 0.01789072
#
# Stress axis : x y z
#
# Youngs Moduli (GPa) = 99.13998 57.79826 111.22954
#
# Poissons Ratio (x) = 0.20721 0.44780
# Poissons Ratio (y) = 0.35542 0.18165
# Poissons Ratio (z) = 0.39913 0.09439
#
# Static dielectric constant tensor:
#      x y z
#    x 3.751190 0.000000 0.000000 
#    y 0.000000 3.250760 0.000000 
#    z 0.000000 0.000000 3.835310 
# 
# 
# High freq. dielectric constant tensor:
#      x y z
#    x 1.752520 0.000000 0.000000 
#    y 0.000000 1.726530 0.000000 
#    z 0.000000 0.000000 1.747400 
# 
# From -- ./inp_files/35374.got.cif
#   From: 2010.03.12/outbox.cif.g09.slc.cpg/sg67_18_cif.got.tgz:35374.got - 2010.04.10 22:41:39.
