data_PCOD8279722
_publ_section_title
;
Structure prediction by ZEFSAII (Michael W. Deem and Ramdas Pophale) SiO2 
 PCOD8279722
Probable space group: C M M A
;
_chemical_formula_sum "Si O2"
_cell_formula_units_Z 96
_cell_length_a 25.514828
_cell_length_b 16.791648
_cell_length_c 11.353295
_cell_angle_alpha 90.000000
_cell_angle_beta 90.000000
_cell_angle_gamma 90.000000
_cell_volume 4864.160416
_symmetry_space_group_name_H-M "C M M A"
_symmetry_group_IT_number 67
_symmetry_cell_setting 'orthorhombic'
loop_
_space_group_symop_operation_xyz
x,y,z
-x,1/2-y,z
x,-y,-z
-x,1/2+y,-z
-x,-y,-z
x,1/2+y,-z
-x,y,z
x,1/2-y,z
1/2+x,1/2+y,z
1/2-x,-y,z
1/2+x,1/2-y,-z
1/2-x,y,-z
1/2-x,1/2-y,-z
1/2+x,y,-z
1/2-x,1/2+y,z
1/2+x,-y,z
loop_
_atom_site_type_symbol
_atom_site_label
_atom_site_fract_x
_atom_site_fract_y
_atom_site_fract_z
Si Si1 0.388525 0.461200 0.886363
Si Si2 0.744903 0.835743 0.330032
Si Si3 0.838988 0.546715 0.321725
Si Si4 0.352104 0.383445 0.553459
Si Si5 0.058883 0.161734 0.277251
Si Si6 0.199674 0.160947 0.076464
O O1 0.368051 0.534285 0.802900
O O2 0.429534 0.405586 0.818719
O O3 0.343184 0.406993 0.943876
O O4 0.416916 0.500000 0.000000
O O5 0.774879 0.750000 0.333014
O O6 0.783085 0.910386 0.312209
O O7 0.703662 0.835980 0.441799
O O8 0.708307 0.837950 0.215530
O O9 0.832453 0.460048 0.375339
O O10 0.870582 0.599408 0.419179
O O11 0.401485 0.341702 0.613171
O O12 0.064135 0.250000 0.220515
O O13 0.000000 0.147680 0.324681
O O14 0.181095 0.250000 0.036239
O O15 0.250000 0.135957 0.000000
#
# Coordination Sequence:
#
# PCOD8279722 Si02
#       6
#    16  16  16  16  16  16
#     4  11  22  37  58  83 117 155 191 238 286 343
#     4  11  20  31  50  77 112 155 192 227 278 341
#     4  10  21  34  50  81 114 148 188 226 281 343
#     4  10  20  35  55  79 111 144 188 238 287 340
#     4  10  21  40  66  88 107 142 194 247 294 342
#     4  10  20  33  51  77 112 154 200 240 276 330
#
# _framework density 19.736191000000002
#
# number of rings (size 3 to 8) (size 9 to 14) (size 15 to 20)
#    0.000    1.667    3.333    3.000    0.000    5.333 
#    0.000    7.500    0.000    0.000    0.000    2.333 
#    0.000    0.000    0.000    0.000    0.000    0.000 
#
# Total GULP energy -594634.257283 kJ/mol
# GULP energy per Si atom -12388.213693 kJ/mol
# Density = 1.969127 g / cm^3
# Si number density = 19.736191 Si / 1000 Ang^3
#
#
#
# Elastic Constant Matrix: (Units=GPa)
#
#
# Indices 1 2 3 4 5 6 
#
# 1 103.0285 43.8954 23.5378 0.0000 0.0000 0.0000
# 2 43.8954 89.2621 35.3523 0.0000 0.0000 0.0000
# 3 23.5378 35.3523 90.0281 0.0000 0.0000 0.0000
# 4 0.0000 0.0000 0.0000 20.7963 0.0000 0.0000
# 5 0.0000 0.0000 0.0000 0.0000 18.4024 0.0000
# 6 0.0000 0.0000 0.0000 0.0000 0.0000 25.1030
#
#
#
# Elastic Compliance Matrix: (Units=1/GPa)
#
#
# Indices 1 2 3 4 5 6 
#
# 1 0.012354 -0.005679 -0.001000 0.000000 0.000000 0.000000
# 2 -0.005679 0.015877 -0.004750 0.000000 0.000000 0.000000
# 3 -0.001000 -0.004750 0.013234 0.000000 0.000000 0.000000
# 4 0.000000 0.000000 0.000000 0.048085 0.000000 0.000000
# 5 0.000000 0.000000 0.000000 0.000000 0.054341 0.000000
# 6 0.000000 0.000000 0.000000 0.000000 0.000000 0.039836
#
#
# Mechanical properties :
#
#
# Convention : Reuss Voigt Hill
#
# Bulk Modulus (GPa) = 53.74155 54.20996 53.97575
# Shear Modulus (GPa) = 23.49762 24.82922 24.16342
#
# Velocity S-wave (km/s) = 3.45423 3.55076 3.50283
# Velocity P-wave (km/s) = 6.57252 6.65863 6.61572
#
# Compressibility (1/GPa) = 0.01860758
#
# Stress axis : x y z
#
# Youngs Moduli (GPa) = 80.94463 62.98449 75.56194
#
# Poissons Ratio (x) = 0.35771 0.07555
# Poissons Ratio (y) = 0.45971 0.35890
# Poissons Ratio (z) = 0.08093 0.29916
#
# Static dielectric constant tensor:
#      x y z
#    x 3.204290 0.000000 0.000000 
#    y 0.000000 3.920620 0.000000 
#    z 0.000000 0.000000 3.776390 
# 
# 
# High freq. dielectric constant tensor:
#      x y z
#    x 1.724390 0.000000 0.000000 
#    y 0.000000 1.784220 0.000000 
#    z 0.000000 0.000000 1.770490 
# 
# From -- ./inp_files/21911.got.cif
#   From: 2010.03.12/outbox.cif.g09.slc.cpg/sg67_11_cif.got.tgz:21911.got - 2010.04.10 22:41:39.
