data_PCOD8279678
_publ_section_title
;
Structure prediction by ZEFSAII (Michael W. Deem and Ramdas Pophale) SiO2 
 PCOD8279678
Probable space group: C M M A
;
_chemical_formula_sum "Si O2"
_cell_formula_units_Z 96
_cell_length_a 17.215204
_cell_length_b 13.941358
_cell_length_c 20.379773
_cell_angle_alpha 90.000000
_cell_angle_beta 90.000000
_cell_angle_gamma 90.000000
_cell_volume 4891.213222
_symmetry_space_group_name_H-M "C M M A"
_symmetry_group_IT_number 67
_symmetry_cell_setting 'orthorhombic'
loop_
_space_group_symop_operation_xyz
x,y,z
-x,1/2-y,z
x,-y,-z
-x,1/2+y,-z
-x,-y,-z
x,1/2+y,-z
-x,y,z
x,1/2-y,z
1/2+x,1/2+y,z
1/2-x,-y,z
1/2+x,1/2-y,-z
1/2-x,y,-z
1/2-x,1/2-y,-z
1/2+x,y,-z
1/2-x,1/2+y,z
1/2+x,-y,z
loop_
_atom_site_type_symbol
_atom_site_label
_atom_site_fract_x
_atom_site_fract_y
_atom_site_fract_z
Si Si1 0.409429 0.860058 0.022046
Si Si2 0.590043 0.352931 0.610250
Si Si3 0.091165 0.052903 0.649620
Si Si4 0.409118 0.139272 0.212077
Si Si5 0.167334 0.360742 0.523192
Si Si6 0.839870 0.474380 0.904722
O O1 0.500000 0.869962 0.004605
O O2 0.387761 0.750000 0.038306
O O3 0.388733 0.927449 0.084097
O O4 0.359821 0.895796 0.960035
O O5 0.500000 0.336278 0.616611
O O6 0.631403 0.250000 0.628318
O O7 0.613857 0.439992 0.658664
O O8 0.607165 0.381586 0.535115
O O9 0.114199 0.111335 0.714160
O O10 0.140837 0.089030 0.589158
O O11 0.000000 0.065515 0.633914
O O12 0.500000 0.121839 0.199235
O O13 0.387132 0.250000 0.199703
O O14 0.360250 0.070445 0.165152
O O15 0.174301 0.250000 0.540567
O O16 0.250000 0.402412 0.500000
O O17 0.750000 0.500000 0.908084
#
# Coordination Sequence:
#
# PCOD8279678 Si02
#       6
#    16  16  16  16  16  16
#     4  10  20  36  62  91 119 155 199 243 281 326
#     4   9  18  33  52  74 102 136 176 224 281 343
#     4  10  20  35  57  81 105 141 192 242 284 336
#     4  10  21  39  62  84 110 150 200 248 289 337
#     4  10  20  33  50  78 109 139 175 225 292 351
#     4  11  22  36  56  87 123 158 190 234 291 346
#
# _framework density 19.627032
#
# number of rings (size 3 to 8) (size 9 to 14) (size 15 to 20)
#    0.000    2.000    0.000    5.000    0.000    7.667 
#    3.000    0.833    0.000    3.000    0.000    0.000 
#    0.000    0.000    0.000    0.000    0.000    0.000 
#
# Total GULP energy -595014.950678 kJ/mol
# GULP energy per Si atom -12396.144806 kJ/mol
# Density = 1.958236 g / cm^3
# Si number density = 19.627032 Si / 1000 Ang^3
#
#
#
# Elastic Constant Matrix: (Units=GPa)
#
#
# Indices 1 2 3 4 5 6 
#
# 1 74.5063 53.0816 39.5171 0.0000 0.0000 0.0000
# 2 53.0816 147.9372 61.6122 0.0000 0.0000 0.0000
# 3 39.5171 61.6122 83.2394 0.0000 0.0000 0.0000
# 4 0.0000 0.0000 0.0000 34.8077 0.0000 0.0000
# 5 0.0000 0.0000 0.0000 0.0000 15.4133 0.0000
# 6 0.0000 0.0000 0.0000 0.0000 0.0000 20.4378
#
#
#
# Elastic Compliance Matrix: (Units=1/GPa)
#
#
# Indices 1 2 3 4 5 6 
#
# 1 0.019922 -0.004640 -0.006024 0.000000 0.000000 0.000000
# 2 -0.004640 0.010853 -0.005830 0.000000 0.000000 0.000000
# 3 -0.006024 -0.005830 0.019189 0.000000 0.000000 0.000000
# 4 0.000000 0.000000 0.000000 0.028729 0.000000 0.000000
# 5 0.000000 0.000000 0.000000 0.000000 0.064879 0.000000
# 6 0.000000 0.000000 0.000000 0.000000 0.000000 0.048929
#
#
# Mechanical properties :
#
#
# Convention : Reuss Voigt Hill
#
# Bulk Modulus (GPa) = 58.90585 68.23386 63.56986
# Shear Modulus (GPa) = 21.63135 24.22988 22.93062
#
# Velocity S-wave (km/s) = 3.32342 3.51738 3.42177
# Velocity P-wave (km/s) = 6.69362 7.16496 6.93330
#
# Compressibility (1/GPa) = 0.01697624
#
# Stress axis : x y z
#
# Youngs Moduli (GPa) = 50.19589 92.14465 52.11415
#
# Poissons Ratio (x) = 0.42751 0.31392
# Poissons Ratio (y) = 0.23289 0.30384
# Poissons Ratio (z) = 0.30236 0.53723
#
# Static dielectric constant tensor:
#      x y z
#    x 3.594140 0.000000 0.000000 
#    y 0.000000 4.204200 0.000000 
#    z 0.000000 0.000000 3.123250 
# 
# 
# High freq. dielectric constant tensor:
#      x y z
#    x 1.755710 0.000000 0.000000 
#    y 0.000000 1.789720 0.000000 
#    z 0.000000 0.000000 1.738960 
# 
# From -- ./inp_files/38465.got.cif
#   From: 2010.03.12/outbox.cif.g09.slc.cpg/sg67_20_cif.got.tgz:38465.got - 2010.04.10 22:41:39.
