data_PCOD8279945
_publ_section_title
;
Structure prediction by ZEFSAII (Michael W. Deem and Ramdas Pophale) SiO2 
 PCOD8279945
Probable space group: C M M A
;
_chemical_formula_sum "Si O2"
_cell_formula_units_Z 80
_cell_length_a 10.278808
_cell_length_b 30.024407
_cell_length_c 13.788452
_cell_angle_alpha 90.000000
_cell_angle_beta 90.000000
_cell_angle_gamma 90.000000
_cell_volume 4255.324698
_symmetry_space_group_name_H-M "C M M A"
_symmetry_group_IT_number 67
_symmetry_cell_setting 'orthorhombic'
loop_
_space_group_symop_operation_xyz
x,y,z
-x,1/2-y,z
x,-y,-z
-x,1/2+y,-z
-x,-y,-z
x,1/2+y,-z
-x,y,z
x,1/2-y,z
1/2+x,1/2+y,z
1/2-x,-y,z
1/2+x,1/2-y,-z
1/2-x,y,-z
1/2-x,1/2-y,-z
1/2+x,y,-z
1/2-x,1/2+y,z
1/2+x,-y,z
loop_
_atom_site_type_symbol
_atom_site_label
_atom_site_fract_x
_atom_site_fract_y
_atom_site_fract_z
Si Si1 0.654099 0.200882 0.290722
Si Si2 0.147138 0.035034 0.720147
Si Si3 0.354547 0.302803 0.075340
Si Si4 0.150515 0.381446 0.584714
Si Si5 0.139092 0.546802 0.056658
O O1 0.500000 0.203867 0.289957
O O2 0.712407 0.250000 0.315643
O O3 0.696746 0.184997 0.183284
O O4 0.699782 0.165414 0.370798
O O5 0.163550 0.081904 0.667808
O O6 0.180918 0.041097 0.832686
O O7 0.000000 0.016621 0.706702
O O8 0.250000 0.000000 0.675108
O O9 0.500000 0.322527 0.056376
O O10 0.362080 0.250000 0.064965
O O11 0.250000 0.323118 0.000000
O O12 0.250000 0.394228 0.500000
O O13 0.000000 0.378842 0.548022
O O14 0.000000 0.571721 0.051555
O O15 0.128314 0.500000 0.000000
O O16 0.250000 0.575380 0.000000
#
# Coordination Sequence:
#
# PCOD8279945 Si02
#       5
#    16  16  16  16  16
#     4   8  15  31  55  78 102 137 176 213 259 314
#     4  10  20  34  54  78 105 138 171 209 257 308
#     4   8  13  23  43  70  99 132 166 199 241 297
#     4  10  22  39  56  76 103 134 174 222 267 312
#     4   9  15  26  47  74 101 131 164 201 246 296
#
# _framework density 18.799976999999998
#
# number of rings (size 3 to 8) (size 9 to 14) (size 15 to 20)
#    0.000    3.000    2.000    1.200    0.000    1.600 
#    0.000    4.000    0.000    1.200    0.000    0.000 
#    0.000    0.000    0.000    0.000    0.000    0.000 
#
# Total GULP energy -495551.776152 kJ/mol
# GULP energy per Si atom -12388.794404 kJ/mol
# Density = 1.875719 g / cm^3
# Si number density = 18.799977 Si / 1000 Ang^3
#
#
#
# Elastic Constant Matrix: (Units=GPa)
#
#
# Indices 1 2 3 4 5 6 
#
# 1 108.1606 32.5083 46.5372 0.0000 0.0000 0.0000
# 2 32.5083 64.7692 34.5507 0.0000 0.0000 0.0000
# 3 46.5372 34.5507 98.9414 0.0000 0.0000 0.0000
# 4 0.0000 0.0000 0.0000 15.8719 0.0000 0.0000
# 5 0.0000 0.0000 0.0000 0.0000 29.0460 0.0000
# 6 0.0000 0.0000 0.0000 0.0000 0.0000 13.1599
#
#
#
# Elastic Compliance Matrix: (Units=1/GPa)
#
#
# Indices 1 2 3 4 5 6 
#
# 1 0.012307 -0.003796 -0.004463 0.000000 0.000000 0.000000
# 2 -0.003796 0.020145 -0.005249 0.000000 0.000000 0.000000
# 3 -0.004463 -0.005249 0.014039 0.000000 0.000000 0.000000
# 4 0.000000 0.000000 0.000000 0.063004 0.000000 0.000000
# 5 0.000000 0.000000 0.000000 0.000000 0.034428 0.000000
# 6 0.000000 0.000000 0.000000 0.000000 0.000000 0.075988
#
#
# Mechanical properties :
#
#
# Convention : Reuss Voigt Hill
#
# Bulk Modulus (GPa) = 51.34947 55.45152 53.40050
# Shear Modulus (GPa) = 19.73017 22.16724 20.94871
#
# Velocity S-wave (km/s) = 3.24308 3.43754 3.34173
# Velocity P-wave (km/s) = 6.43400 6.73165 6.58451
#
# Compressibility (1/GPa) = 0.01947440
#
# Stress axis : x y z
#
# Youngs Moduli (GPa) = 81.25687 49.64042 71.22964
#
# Poissons Ratio (x) = 0.18844 0.31788
# Poissons Ratio (y) = 0.30847 0.37389
# Poissons Ratio (z) = 0.36263 0.26057
#
# Static dielectric constant tensor:
#      x y z
#    x 4.801910 0.000000 0.000000 
#    y 0.000000 3.393640 0.000000 
#    z 0.000000 0.000000 3.434910 
# 
# 
# High freq. dielectric constant tensor:
#      x y z
#    x 1.721420 0.000000 0.000000 
#    y 0.000000 1.706320 0.000000 
#    z 0.000000 0.000000 1.722620 
# 
# From -- ./inp_files/16776.got.cif
#   From: 2010.03.12/outbox.cif.g09.slc.cpg/sg67_9_cif.got.tgz:16776.got - 2010.04.10 22:41:39.
