data_PCOD8279608
_publ_section_title
;
Structure prediction by ZEFSAII (Michael W. Deem and Ramdas Pophale) SiO2 
 PCOD8279608
Probable space group: C M M A
;
_chemical_formula_sum "Si O2"
_cell_formula_units_Z 72
_cell_length_a 25.288616
_cell_length_b 9.031682
_cell_length_c 16.955478
_cell_angle_alpha 90.000000
_cell_angle_beta 90.000000
_cell_angle_gamma 90.000000
_cell_volume 3872.609776
_symmetry_space_group_name_H-M "C M M A"
_symmetry_group_IT_number 67
_symmetry_cell_setting 'orthorhombic'
loop_
_space_group_symop_operation_xyz
x,y,z
-x,1/2-y,z
x,-y,-z
-x,1/2+y,-z
-x,-y,-z
x,1/2+y,-z
-x,y,z
x,1/2-y,z
1/2+x,1/2+y,z
1/2-x,-y,z
1/2+x,1/2-y,-z
1/2-x,y,-z
1/2-x,1/2-y,-z
1/2+x,y,-z
1/2-x,1/2+y,z
1/2+x,-y,z
loop_
_atom_site_type_symbol
_atom_site_label
_atom_site_fract_x
_atom_site_fract_y
_atom_site_fract_z
Si Si1 0.332029 0.576111 0.578661
Si Si2 0.442795 0.582455 0.638155
Si Si3 0.585302 0.076646 0.793213
Si Si4 0.801650 0.574303 0.740270
Si Si5 0.000000 0.925266 0.916034
O O1 0.308856 0.500000 0.500000
O O2 0.318157 0.750000 0.579328
O O3 0.395238 0.544873 0.578765
O O4 0.306523 0.497130 0.653793
O O5 0.500000 0.558657 0.596026
O O6 0.435956 0.750000 0.667850
O O7 0.441963 0.483502 0.715410
O O8 0.579112 0.250000 0.787422
O O9 0.647622 0.032619 0.794639
O O10 0.553033 0.020576 0.869789
O O11 0.794788 0.750000 0.732127
O O12 0.750000 0.500000 0.780625
O O13 0.000000 0.750000 0.927288
O O14 0.000000 0.000000 0.000000
#
# Coordination Sequence:
#
# PCOD8279608 Si02
#       5
#    16  16  16  16   8
#     4  10  20  33  47  68  99 133 172 218 264 310
#     4   9  17  29  47  70  97 131 171 212 255 303
#     4   9  18  33  53  76 105 136 169 206 248 299
#     4  10  20  35  55  77  99 131 173 217 260 304
#     4  10  20  34  54  84 115 140 165 198 243 298
#
# _framework density 18.592113000000001
#
# number of rings (size 3 to 8) (size 9 to 14) (size 15 to 20)
#    0.000    2.444    1.111    1.333    0.000    3.556 
#    0.000    2.222    0.000    0.667    0.000    4.667 
#    0.000    0.000    0.000    0.000    0.000    0.000 
#
# Total GULP energy -446154.209366 kJ/mol
# GULP energy per Si atom -12393.172482 kJ/mol
# Density = 1.854980 g / cm^3
# Si number density = 18.592113 Si / 1000 Ang^3
#
#
#
# Elastic Constant Matrix: (Units=GPa)
#
#
# Indices 1 2 3 4 5 6 
#
# 1 130.2415 46.1835 35.9784 0.0000 0.0000 0.0000
# 2 46.1835 53.9388 33.0762 0.0000 0.0000 0.0000
# 3 35.9784 33.0762 88.2302 0.0000 0.0000 0.0000
# 4 0.0000 0.0000 0.0000 26.1427 0.0000 0.0000
# 5 0.0000 0.0000 0.0000 0.0000 15.3636 0.0000
# 6 0.0000 0.0000 0.0000 0.0000 0.0000 27.1060
#
#
#
# Elastic Compliance Matrix: (Units=1/GPa)
#
#
# Indices 1 2 3 4 5 6 
#
# 1 0.011131 -0.008762 -0.001255 0.000000 0.000000 0.000000
# 2 -0.008762 0.030970 -0.008037 0.000000 0.000000 0.000000
# 3 -0.001255 -0.008037 0.014859 0.000000 0.000000 0.000000
# 4 0.000000 0.000000 0.000000 0.038252 0.000000 0.000000
# 5 0.000000 0.000000 0.000000 0.000000 0.065089 0.000000
# 6 0.000000 0.000000 0.000000 0.000000 0.000000 0.036892
#
#
# Mechanical properties :
#
#
# Convention : Reuss Voigt Hill
#
# Bulk Modulus (GPa) = 47.95477 55.87629 51.91553
# Shear Modulus (GPa) = 20.81154 24.20062 22.50608
#
# Velocity S-wave (km/s) = 3.34934 3.61177 3.48302
# Velocity P-wave (km/s) = 6.38799 6.89291 6.64525
#
# Compressibility (1/GPa) = 0.02085298
#
# Stress axis : x y z
#
# Youngs Moduli (GPa) = 89.83525 32.28917 67.30071
#
# Poissons Ratio (x) = 0.28291 0.08443
# Poissons Ratio (y) = 0.78711 0.54092
# Poissons Ratio (z) = 0.11270 0.25952
#
# Static dielectric constant tensor:
#      x y z
#    x 4.236940 0.000000 0.000000 
#    y 0.000000 3.543150 0.000000 
#    z 0.000000 0.000000 3.049230 
# 
# 
# High freq. dielectric constant tensor:
#      x y z
#    x 1.744090 0.000000 0.000000 
#    y 0.000000 1.726250 0.000000 
#    z 0.000000 0.000000 1.670020 
# 
# From -- ./inp_files/25056.got.cif
#   From: 2010.03.12/outbox.cif.g09.slc.cpg/sg67_13_cif.got.tgz:25056.got - 2010.04.10 22:41:39.
