data_PCOD8279003
_publ_section_title
;
Structure prediction by ZEFSAII (Michael W. Deem and Ramdas Pophale) SiO2 
 PCOD8279003
Probable space group: C M M A
;
_chemical_formula_sum "Si O2"
_cell_formula_units_Z 112
_cell_length_a 23.340775
_cell_length_b 14.994799
_cell_length_c 17.620667
_cell_angle_alpha 90.000000
_cell_angle_beta 90.000000
_cell_angle_gamma 90.000000
_cell_volume 6167.061290
_symmetry_space_group_name_H-M "C M M A"
_symmetry_group_IT_number 67
_symmetry_cell_setting 'orthorhombic'
loop_
_space_group_symop_operation_xyz
x,y,z
-x,1/2-y,z
x,-y,-z
-x,1/2+y,-z
-x,-y,-z
x,1/2+y,-z
-x,y,z
x,1/2-y,z
1/2+x,1/2+y,z
1/2-x,-y,z
1/2+x,1/2-y,-z
1/2-x,y,-z
1/2-x,1/2-y,-z
1/2+x,y,-z
1/2-x,1/2+y,z
1/2+x,-y,z
loop_
_atom_site_type_symbol
_atom_site_label
_atom_site_fract_x
_atom_site_fract_y
_atom_site_fract_z
Si Si1 0.848996 0.348841 0.321247
Si Si2 0.565956 0.012362 0.085069
Si Si3 0.270740 0.591767 0.719354
Si Si4 0.066277 0.147613 0.640375
Si Si5 0.882269 0.851653 0.200413
Si Si6 0.156550 0.481113 0.584272
Si Si7 0.064321 0.649331 0.808993
O O1 0.865540 0.250000 0.350848
O O2 0.783478 0.344342 0.292088
O O3 0.859014 0.420724 0.386072
O O4 0.890701 0.379568 0.254278
O O5 0.500000 0.044770 0.085654
O O6 0.603561 0.085191 0.129679
O O7 0.573095 0.914897 0.120253
O O8 0.589331 0.000000 0.000000
O O9 0.250000 0.500000 0.758751
O O10 0.316254 0.638553 0.774031
O O11 0.296014 0.567354 0.636018
O O12 0.085871 0.250000 0.626812
O O13 0.077948 0.121431 0.728160
O O14 0.100599 0.082335 0.583992
O O15 0.000000 0.134668 0.622127
O O16 0.893369 0.750000 0.175249
O O17 0.179754 0.500000 0.500000
O O18 0.075950 0.750000 0.837210
O O19 0.000000 0.640031 0.775572
#
# Coordination Sequence:
#
# PCOD8279003 Si02
#       7
#    16  16  16  16  16  16  16
#     4  10  20  34  54  77  99 129 172 215 254 301
#     4  10  20  32  49  77 109 138 168 203 250 307
#     4   9  18  33  53  75  99 131 171 213 256 301
#     4   9  18  33  53  75  99 133 176 216 254 297
#     4  10  19  32  52  76 102 133 171 214 256 301
#     4  10  21  34  49  73 105 135 166 207 258 311
#     4   9  18  34  55  76  99 130 169 213 256 299
#
# _framework density 18.161000000000001
#
# number of rings (size 3 to 8) (size 9 to 14) (size 15 to 20)
#    0.000    2.429    0.000    3.429    0.000    7.143 
#    0.000    2.143    0.000    5.571    0.000    6.000 
#    0.000    0.000    0.000    0.000    0.000    0.000 
#
# Total GULP energy -694315.054931 kJ/mol
# GULP energy per Si atom -12398.483124 kJ/mol
# Density = 1.811966 g / cm^3
# Si number density = 18.161000 Si / 1000 Ang^3
#
#
#
# Elastic Constant Matrix: (Units=GPa)
#
#
# Indices 1 2 3 4 5 6 
#
# 1 88.3044 31.2668 39.9654 0.0000 0.0000 0.0000
# 2 31.2668 85.8828 45.3963 0.0000 0.0000 0.0000
# 3 39.9654 45.3963 105.9263 0.0000 0.0000 0.0000
# 4 0.0000 0.0000 0.0000 16.8783 0.0000 0.0000
# 5 0.0000 0.0000 0.0000 0.0000 11.9514 0.0000
# 6 0.0000 0.0000 0.0000 0.0000 0.0000 30.7829
#
#
#
# Elastic Compliance Matrix: (Units=1/GPa)
#
#
# Indices 1 2 3 4 5 6 
#
# 1 0.014242 -0.003031 -0.004074 0.000000 0.000000 0.000000
# 2 -0.003031 0.015699 -0.005584 0.000000 0.000000 0.000000
# 3 -0.004074 -0.005584 0.013371 0.000000 0.000000 0.000000
# 4 0.000000 0.000000 0.000000 0.059248 0.000000 0.000000
# 5 0.000000 0.000000 0.000000 0.000000 0.083672 0.000000
# 6 0.000000 0.000000 0.000000 0.000000 0.000000 0.032486
#
#
# Mechanical properties :
#
#
# Convention : Reuss Voigt Hill
#
# Bulk Modulus (GPa) = 55.76623 57.04119 56.40371
# Shear Modulus (GPa) = 19.99401 22.82150 21.40776
#
# Velocity S-wave (km/s) = 3.32163 3.54873 3.43706
# Velocity P-wave (km/s) = 6.74420 6.94753 6.84662
#
# Compressibility (1/GPa) = 0.01793200
#
# Stress axis : x y z
#
# Youngs Moduli (GPa) = 70.21618 63.69740 74.78880
#
# Poissons Ratio (x) = 0.19309 0.30470
# Poissons Ratio (y) = 0.21285 0.41765
# Poissons Ratio (z) = 0.28607 0.35571
#
# Static dielectric constant tensor:
#      x y z
#    x 3.444120 0.000000 0.000000 
#    y 0.000000 3.480140 0.000000 
#    z 0.000000 0.000000 3.052680 
# 
# 
# High freq. dielectric constant tensor:
#      x y z
#    x 1.705090 0.000000 0.000000 
#    y 0.000000 1.720400 0.000000 
#    z 0.000000 0.000000 1.667200 
# 
# From -- ./inp_files/30142.got.cif
#   From: 2010.03.12/outbox.cif.g09.slc.cpg/sg67_16_cif.got.tgz:30142.got - 2010.04.10 22:41:39.
