data_PCOD8279860
_publ_section_title
;
Structure prediction by ZEFSAII (Michael W. Deem and Ramdas Pophale) SiO2 
 PCOD8279860
Probable space group: C M M A
;
_chemical_formula_sum "Si O2"
_cell_formula_units_Z 96
_cell_length_a 8.732480
_cell_length_b 19.114133
_cell_length_c 30.736937
_cell_angle_alpha 90.000000
_cell_angle_beta 90.000000
_cell_angle_gamma 90.000000
_cell_volume 5130.418468
_symmetry_space_group_name_H-M "C M M A"
_symmetry_group_IT_number 67
_symmetry_cell_setting 'orthorhombic'
loop_
_space_group_symop_operation_xyz
x,y,z
-x,1/2-y,z
x,-y,-z
-x,1/2+y,-z
-x,-y,-z
x,1/2+y,-z
-x,y,z
x,1/2-y,z
1/2+x,1/2+y,z
1/2-x,-y,z
1/2+x,1/2-y,-z
1/2-x,y,-z
1/2-x,1/2-y,-z
1/2+x,y,-z
1/2-x,1/2+y,z
1/2+x,-y,z
loop_
_atom_site_type_symbol
_atom_site_label
_atom_site_fract_x
_atom_site_fract_y
_atom_site_fract_z
Si Si1 0.180544 0.426494 0.789826
Si Si2 0.327625 0.333458 0.543746
Si Si3 0.824643 0.832528 0.718904
Si Si4 0.671587 0.833182 0.630732
Si Si5 0.823786 0.167495 0.954812
Si Si6 0.681470 0.425857 0.882304
O O1 0.250000 0.500000 0.773878
O O2 0.217502 0.367594 0.754701
O O3 0.253886 0.403610 0.835476
O O4 0.000000 0.434168 0.795791
O O5 0.500000 0.361394 0.545288
O O6 0.322960 0.250000 0.543810
O O7 0.250000 0.362899 0.500000
O O8 0.240456 0.363536 0.585960
O O9 0.801673 0.750000 0.723301
O O10 0.773512 0.858783 0.671240
O O11 0.000000 0.854627 0.726241
O O12 0.500000 0.862191 0.636487
O O13 0.671579 0.750000 0.628549
O O14 0.807772 0.250000 0.949069
O O15 0.729429 0.133058 0.916137
O O16 0.000000 0.143405 0.953526
O O17 0.750000 0.142480 0.000000
O O18 0.500000 0.431660 0.879713
O O19 0.750000 0.500000 0.897306
#
# Coordination Sequence:
#
# PCOD8279860 Si02
#       6
#    16  16  16  16  16  16
#     4  11  22  38  58  79 106 138 174 216 263 312
#     4   9  15  22  33  51  78 115 157 199 245 299
#     4  10  20  34  52  75 103 135 172 213 258 309
#     4   9  16  26  40  60  88 122 160 203 251 302
#     4  10  21  38  59  84 114 146 180 218 261 308
#     4  11  22  38  59  82 109 140 177 218 262 310
#
# _framework density 18.711924
#
# number of rings (size 3 to 8) (size 9 to 14) (size 15 to 20)
#    0.000    2.000    0.000    6.000    0.000    7.000 
#    0.000    1.667    0.000    0.000    0.000    0.000 
#    0.000    0.667    0.000    6.667    0.000   10.333 
#
# Total GULP energy -595322.959569 kJ/mol
# GULP energy per Si atom -12402.561658 kJ/mol
# Density = 1.866933 g / cm^3
# Si number density = 18.711924 Si / 1000 Ang^3
#
#
#
# Elastic Constant Matrix: (Units=GPa)
#
#
# Indices 1 2 3 4 5 6 
#
# 1 166.2089 31.4856 62.4497 0.0000 0.0000 0.0000
# 2 31.4856 29.2266 41.2842 0.0000 0.0000 0.0000
# 3 62.4497 41.2842 134.9532 0.0000 0.0000 0.0000
# 4 0.0000 0.0000 0.0000 -4.0990 0.0000 0.0000
# 5 0.0000 0.0000 0.0000 0.0000 41.0809 0.0000
# 6 0.0000 0.0000 0.0000 0.0000 0.0000 22.9369
#
#
#
# Elastic Compliance Matrix: (Units=1/GPa)
#
#
# Indices 1 2 3 4 5 6 
#
# 1 0.007808 -0.005825 -0.001831 0.000000 0.000000 0.000000
# 2 -0.005825 0.064596 -0.017066 0.000000 0.000000 0.000000
# 3 -0.001831 -0.017066 0.013478 0.000000 0.000000 0.000000
# 4 0.000000 0.000000 0.000000 -0.243960 0.000000 0.000000
# 5 0.000000 0.000000 0.000000 0.000000 0.024342 0.000000
# 6 0.000000 0.000000 0.000000 0.000000 0.000000 0.043598
#
#
# Mechanical properties :
#
#
# Convention : Reuss Voigt Hill
#
# Bulk Modulus (GPa) = 27.44297 66.75863 47.10080
# Shear Modulus (GPa) = -175.14515 24.99503 -75.07506
#
# Velocity S-wave (km/s) = -9.68525 3.65880 -6.34103
# Velocity P-wave (km/s) = 10.50591 7.32145 5.32778
#
# Compressibility (1/GPa) = 0.03643921
#
# Stress axis : x y z
#
# Youngs Moduli (GPa) = 128.07395 15.48074 74.19468
#
# Poissons Ratio (x) = 0.09017 0.13587
# Poissons Ratio (y) = 0.74599 1.26618
# Poissons Ratio (z) = 0.23454 0.26419
#
# Static dielectric constant tensor:
#      x y z
#    x 3.663120 0.000000 0.000000 
#    y 0.000000 2.970130 0.000000 
#    z 0.000000 0.000000 3.585890 
# 
# 
# High freq. dielectric constant tensor:
#      x y z
#    x 1.749500 0.000000 0.000000 
#    y 0.000000 1.675570 0.000000 
#    z 0.000000 0.000000 1.741870 
# 
# From -- ./inp_files/43496.got.cif
#   From: 2010.03.12/outbox.cif.g09.slc.cpg/sg67_22_cif.got.tgz:43496.got - 2010.04.10 22:41:39.
