data_PCOD8279278
_publ_section_title
;
Structure prediction by ZEFSAII (Michael W. Deem and Ramdas Pophale) SiO2 
 PCOD8279278
Probable space group: C M M A
;
_chemical_formula_sum "Si O2"
_cell_formula_units_Z 112
_cell_length_a 27.537727
_cell_length_b 13.227334
_cell_length_c 15.943471
_cell_angle_alpha 90.000000
_cell_angle_beta 90.000000
_cell_angle_gamma 90.000000
_cell_volume 5807.420674
_symmetry_space_group_name_H-M "C M M A"
_symmetry_group_IT_number 67
_symmetry_cell_setting 'orthorhombic'
loop_
_space_group_symop_operation_xyz
x,y,z
-x,1/2-y,z
x,-y,-z
-x,1/2+y,-z
-x,-y,-z
x,1/2+y,-z
-x,y,z
x,1/2-y,z
1/2+x,1/2+y,z
1/2-x,-y,z
1/2+x,1/2-y,-z
1/2-x,y,-z
1/2-x,1/2-y,-z
1/2+x,y,-z
1/2-x,1/2+y,z
1/2+x,-y,z
loop_
_atom_site_type_symbol
_atom_site_label
_atom_site_fract_x
_atom_site_fract_y
_atom_site_fract_z
Si Si1 0.348865 0.452782 0.874103
Si Si2 0.126762 0.134354 0.632209
Si Si3 0.304036 0.636181 0.974192
Si Si4 0.554500 0.131704 0.819365
Si Si5 0.806687 0.514183 0.700614
Si Si6 0.640939 0.364940 0.557802
Si Si7 0.054364 0.538843 0.637657
O O1 0.329903 0.562089 0.906996
O O2 0.407410 0.441548 0.867509
O O3 0.324634 0.428528 0.784134
O O4 0.333597 0.366347 0.939150
O O5 0.114183 0.250000 0.649534
O O6 0.167528 0.095779 0.697671
O O7 0.150424 0.116203 0.540317
O O8 0.077436 0.072351 0.648368
O O9 0.304305 0.750000 0.937539
O O10 0.250000 0.600318 0.000000
O O11 0.500000 0.112729 0.855180
O O12 0.568682 0.250000 0.828236
O O13 0.555925 0.102009 0.722577
O O14 0.750000 0.500000 0.703200
O O15 0.822564 0.573372 0.616957
O O16 0.648859 0.250000 0.582661
O O17 0.585146 0.397679 0.570583
O O18 0.000000 0.526640 0.603371
#
# Coordination Sequence:
#
# PCOD8279278 Si02
#       7
#    16  16  16  16  16  16  16
#     4  11  20  38  62  86 117 147 188 239 282 334
#     4  10  22  38  52  76 116 154 188 234 292 345
#     4  10  22  39  60  89 124 158 187 226 283 339
#     4  10  20  35  59  89 117 148 188 236 289 340
#     4  11  22  36  57  83 109 145 194 241 282 337
#     4  10  21  36  54  79 113 149 190 241 291 338
#     4  10  19  34  56  81 110 146 191 242 287 335
#
# _framework density 19.28567
#
# number of rings (size 3 to 8) (size 9 to 14) (size 15 to 20)
#    0.000    1.714    2.857    4.286    0.000    5.143 
#    0.000    4.286    0.000    1.286    0.000    0.000 
#    0.000    0.000    0.000    0.000    0.000    0.000 
#
# Total GULP energy -694085.006904 kJ/mol
# GULP energy per Si atom -12394.375123 kJ/mol
# Density = 1.924178 g / cm^3
# Si number density = 19.285670 Si / 1000 Ang^3
#
#
#
# Elastic Constant Matrix: (Units=GPa)
#
#
# Indices 1 2 3 4 5 6 
#
# 1 141.1835 42.6559 27.5159 0.0000 0.0000 0.0000
# 2 42.6559 94.3362 28.3580 0.0000 0.0000 0.0000
# 3 27.5159 28.3580 39.0943 0.0000 0.0000 0.0000
# 4 0.0000 0.0000 0.0000 24.0101 0.0000 0.0000
# 5 0.0000 0.0000 0.0000 0.0000 23.0572 0.0000
# 6 0.0000 0.0000 0.0000 0.0000 0.0000 23.8450
#
#
#
# Elastic Compliance Matrix: (Units=1/GPa)
#
#
# Indices 1 2 3 4 5 6 
#
# 1 0.008708 -0.002679 -0.004186 0.000000 0.000000 0.000000
# 2 -0.002679 0.014381 -0.008546 0.000000 0.000000 0.000000
# 3 -0.004186 -0.008546 0.034724 0.000000 0.000000 0.000000
# 4 0.000000 0.000000 0.000000 0.041649 0.000000 0.000000
# 5 0.000000 0.000000 0.000000 0.000000 0.043370 0.000000
# 6 0.000000 0.000000 0.000000 0.000000 0.000000 0.041938
#
#
# Mechanical properties :
#
#
# Convention : Reuss Voigt Hill
#
# Bulk Modulus (GPa) = 37.04834 52.40818 44.72826
# Shear Modulus (GPa) = 22.26293 25.92141 24.09217
#
# Velocity S-wave (km/s) = 3.40130 3.67014 3.53827
# Velocity P-wave (km/s) = 5.88873 6.72262 6.31944
#
# Compressibility (1/GPa) = 0.02699176
#
# Stress axis : x y z
#
# Youngs Moduli (GPa) = 114.83357 69.53726 28.79855
#
# Poissons Ratio (x) = 0.18632 0.12054
# Poissons Ratio (y) = 0.30768 0.24610
# Poissons Ratio (z) = 0.48065 0.59424
#
# Static dielectric constant tensor:
#      x y z
#    x 3.684700 0.000000 0.000000 
#    y 0.000000 3.580450 0.000000 
#    z 0.000000 0.000000 3.474060 
# 
# 
# High freq. dielectric constant tensor:
#      x y z
#    x 1.749490 0.000000 0.000000 
#    y 0.000000 1.751440 0.000000 
#    z 0.000000 0.000000 1.743070 
# 
# From -- ./inp_files/30794.got.cif
#   From: 2010.03.12/outbox.cif.g09.slc.cpg/sg67_16_cif.got.tgz:30794.got - 2010.04.10 22:41:39.
