data_PCOD8279395
_publ_section_title
;
Structure prediction by ZEFSAII (Michael W. Deem and Ramdas Pophale) SiO2 
 PCOD8279395
Probable space group: C M M A
;
_chemical_formula_sum "Si O2"
_cell_formula_units_Z 88
_cell_length_a 23.180515
_cell_length_b 15.666961
_cell_length_c 11.770946
_cell_angle_alpha 90.000000
_cell_angle_beta 90.000000
_cell_angle_gamma 90.000000
_cell_volume 4274.833559
_symmetry_space_group_name_H-M "C M M A"
_symmetry_group_IT_number 67
_symmetry_cell_setting 'orthorhombic'
loop_
_space_group_symop_operation_xyz
x,y,z
-x,1/2-y,z
x,-y,-z
-x,1/2+y,-z
-x,-y,-z
x,1/2+y,-z
-x,y,z
x,1/2-y,z
1/2+x,1/2+y,z
1/2-x,-y,z
1/2+x,1/2-y,-z
1/2-x,y,-z
1/2-x,1/2-y,-z
1/2+x,y,-z
1/2-x,1/2+y,z
1/2+x,-y,z
loop_
_atom_site_type_symbol
_atom_site_label
_atom_site_fract_x
_atom_site_fract_y
_atom_site_fract_z
Si Si1 0.066218 0.002126 0.245516
Si Si2 0.745126 0.148975 0.699358
Si Si3 0.374460 0.654239 0.654102
Si Si4 0.692428 0.155781 0.933746
Si Si5 0.857726 0.915275 0.571989
Si Si6 0.617105 0.500000 0.000000
O O1 0.103071 0.073268 0.315096
O O2 0.078020 0.005933 0.111576
O O3 0.000000 0.024115 0.268135
O O4 0.078669 0.906408 0.288028
O O5 0.744601 0.250000 0.689308
O O6 0.811150 0.117232 0.690465
O O7 0.712231 0.118136 0.812656
O O8 0.708004 0.108902 0.598492
O O9 0.383682 0.750000 0.700290
O O10 0.381951 0.655444 0.516566
O O11 0.661324 0.250000 0.923354
O O12 0.654688 0.086691 0.001810
O O13 0.750000 0.172929 0.000000
O O14 0.858123 0.000000 0.500000
#
# Coordination Sequence:
#
# PCOD8279395 Si02
#       6
#    16  16  16  16  16   8
#     4  11  25  42  61  85 117 160 214 264 301 353
#     4  10  19  36  59  89 125 154 190 242 303 375
#     4  10  22  38  62  92 123 158 197 246 309 374
#     4  10  21  36  59  92 127 160 197 245 305 378
#     4  10  21  37  59  88 122 155 197 244 301 367
#     4  12  22  42  66  86 118 167 213 256 314 362
#
# _framework density 20.585597
#
# number of rings (size 3 to 8) (size 9 to 14) (size 15 to 20)
#    0.000    1.636    1.818    2.727    0.000   12.364 
#    0.000    0.000    0.000    5.455    0.000    0.000 
#    0.000    0.000    0.000    0.000    0.000    0.000 
#
# Total GULP energy -545392.458905 kJ/mol
# GULP energy per Si atom -12395.283157 kJ/mol
# Density = 2.053874 g / cm^3
# Si number density = 20.585597 Si / 1000 Ang^3
#
#
#
# Elastic Constant Matrix: (Units=GPa)
#
#
# Indices 1 2 3 4 5 6 
#
# 1 93.6273 22.8533 27.6999 0.0000 0.0000 0.0000
# 2 22.8533 56.8224 6.8901 0.0000 0.0000 0.0000
# 3 27.6999 6.8901 98.8480 0.0000 0.0000 0.0000
# 4 0.0000 0.0000 0.0000 23.0832 0.0000 0.0000
# 5 0.0000 0.0000 0.0000 0.0000 22.6610 0.0000
# 6 0.0000 0.0000 0.0000 0.0000 0.0000 13.7299
#
#
#
# Elastic Compliance Matrix: (Units=1/GPa)
#
#
# Indices 1 2 3 4 5 6 
#
# 1 0.012805 -0.004755 -0.003257 0.000000 0.000000 0.000000
# 2 -0.004755 0.019514 -0.000028 0.000000 0.000000 0.000000
# 3 -0.003257 -0.000028 0.011031 0.000000 0.000000 0.000000
# 4 0.000000 0.000000 0.000000 0.043322 0.000000 0.000000
# 5 0.000000 0.000000 0.000000 0.000000 0.044129 0.000000
# 6 0.000000 0.000000 0.000000 0.000000 0.000000 0.072834
#
#
# Mechanical properties :
#
#
# Convention : Reuss Voigt Hill
#
# Bulk Modulus (GPa) = 36.66868 40.46492 38.56680
# Shear Modulus (GPa) = 21.85276 24.68511 23.26894
#
# Velocity S-wave (km/s) = 3.26169 3.46662 3.36572
# Velocity P-wave (km/s) = 5.66006 5.97686 5.82062
#
# Compressibility (1/GPa) = 0.02727123
#
# Stress axis : x y z
#
# Youngs Moduli (GPa) = 78.09548 51.24404 90.65259
#
# Poissons Ratio (x) = 0.24367 0.29524
# Poissons Ratio (y) = 0.37135 0.00251
# Poissons Ratio (z) = 0.25434 0.00142
#
# Static dielectric constant tensor:
#      x y z
#    x 3.498020 0.000000 0.000000 
#    y 0.000000 4.213550 0.000000 
#    z 0.000000 0.000000 4.958050 
# 
# 
# High freq. dielectric constant tensor:
#      x y z
#    x 1.773020 0.000000 0.000000 
#    y 0.000000 1.804430 0.000000 
#    z 0.000000 0.000000 1.822750 
# 
# From -- ./inp_files/22822.got.cif
#   From: 2010.03.12/outbox.cif.g09.slc.cpg/sg67_12_cif.got.tgz:22822.got - 2010.04.10 22:41:39.
