data_PCOD8279158
_publ_section_title
;
Structure prediction by ZEFSAII (Michael W. Deem and Ramdas Pophale) SiO2 
 PCOD8279158
Probable space group: C M M A
;
_chemical_formula_sum "Si O2"
_cell_formula_units_Z 120
_cell_length_a 8.924567
_cell_length_b 26.827529
_cell_length_c 27.838159
_cell_angle_alpha 90.000000
_cell_angle_beta 90.000000
_cell_angle_gamma 90.000000
_cell_volume 6665.125608
_symmetry_space_group_name_H-M "C M M A"
_symmetry_group_IT_number 67
_symmetry_cell_setting 'orthorhombic'
loop_
_space_group_symop_operation_xyz
x,y,z
-x,1/2-y,z
x,-y,-z
-x,1/2+y,-z
-x,-y,-z
x,1/2+y,-z
-x,y,z
x,1/2-y,z
1/2+x,1/2+y,z
1/2-x,-y,z
1/2+x,1/2-y,-z
1/2-x,y,-z
1/2-x,1/2-y,-z
1/2+x,y,-z
1/2-x,1/2+y,z
1/2+x,-y,z
loop_
_atom_site_type_symbol
_atom_site_label
_atom_site_fract_x
_atom_site_fract_y
_atom_site_fract_z
Si Si1 0.324820 0.640596 0.548423
Si Si2 0.176106 0.447908 0.888648
Si Si3 0.172843 0.250000 0.050305
Si Si4 0.670920 0.307274 0.354653
Si Si5 0.677575 0.858996 0.052392
Si Si6 0.826125 0.449355 0.777278
Si Si7 0.673687 0.390952 0.697854
Si Si8 0.323599 0.052766 0.601561
O O1 0.500000 0.632082 0.540227
O O2 0.250000 0.661589 0.500000
O O3 0.291551 0.680664 0.590024
O O4 0.248303 0.588543 0.562021
O O5 0.250000 0.500000 0.905940
O O6 0.249445 0.401241 0.915034
O O7 0.209673 0.439022 0.832735
O O8 0.000000 0.450363 0.899907
O O9 0.212362 0.303414 0.075762
O O10 0.000000 0.250000 0.038367
O O11 0.250000 0.250000 0.000000
O O12 0.500000 0.322611 0.343550
O O13 0.701467 0.250000 0.345186
O O14 0.778914 0.335898 0.318201
O O15 0.500000 0.868395 0.048809
O O16 0.750000 0.862793 0.000000
O O17 0.750000 0.500000 0.759412
O O18 0.762297 0.404127 0.746149
O O19 0.000000 0.455057 0.767357
O O20 0.500000 0.391513 0.710230
O O21 0.715512 0.428973 0.655224
O O22 0.500000 0.050335 0.593035
O O23 0.250000 0.000000 0.593454
#
# Coordination Sequence:
#
# PCOD8279158 Si02
#       8
#    16  16   8  16  16  16  16  16
#     4  10  20  34  51  72  99 130 165 203 245 295
#     4  10  21  36  53  77 108 143 182 221 267 319
#     4   8  16  30  50  76 102 132 172 216 264 310
#     4   9  19  36  56  76 100 132 167 206 254 303
#     4  10  19  33  54  79 108 142 181 226 272 320
#     4  10  20  34  54  78 106 138 173 211 256 307
#     4  10  20  33  53  79 104 130 165 208 253 302
#     4  10  20  33  49  72 100 129 162 201 244 294
#
# _framework density 18.004162000000001
#
# number of rings (size 3 to 8) (size 9 to 14) (size 15 to 20)
#    0.000    2.267    0.000    2.800    0.000    6.400 
#    0.000    2.667    1.467    0.000    0.000    0.000 
#    0.000    0.000    0.000    0.000    0.000    0.000 
#
# Total GULP energy -743910.963752 kJ/mol
# GULP energy per Si atom -12398.516063 kJ/mol
# Density = 1.796318 g / cm^3
# Si number density = 18.004162 Si / 1000 Ang^3
#
#
#
# Elastic Constant Matrix: (Units=GPa)
#
#
# Indices 1 2 3 4 5 6 
#
# 1 88.9130 48.5677 47.0295 0.0000 0.0000 0.0000
# 2 48.5677 106.1177 48.6389 0.0000 0.0000 0.0000
# 3 47.0295 48.6389 74.2195 0.0000 0.0000 0.0000
# 4 0.0000 0.0000 0.0000 16.9742 0.0000 0.0000
# 5 0.0000 0.0000 0.0000 0.0000 31.5507 0.0000
# 6 0.0000 0.0000 0.0000 0.0000 0.0000 30.1980
#
#
#
# Elastic Compliance Matrix: (Units=1/GPa)
#
#
# Indices 1 2 3 4 5 6 
#
# 1 0.018225 -0.004357 -0.008693 0.000000 0.000000 0.000000
# 2 -0.004357 0.014511 -0.006749 0.000000 0.000000 0.000000
# 3 -0.008693 -0.006749 0.023405 0.000000 0.000000 0.000000
# 4 0.000000 0.000000 0.000000 0.058913 0.000000 0.000000
# 5 0.000000 0.000000 0.000000 0.000000 0.031695 0.000000
# 6 0.000000 0.000000 0.000000 0.000000 0.000000 0.033115
#
#
# Mechanical properties :
#
#
# Convention : Reuss Voigt Hill
#
# Bulk Modulus (GPa) = 60.44823 61.96914 61.20869
# Shear Modulus (GPa) = 22.22471 24.07887 23.15179
#
# Velocity S-wave (km/s) = 3.51724 3.66102 3.58985
# Velocity P-wave (km/s) = 7.08111 7.23636 7.15916
#
# Compressibility (1/GPa) = 0.01654308
#
# Stress axis : x y z
#
# Youngs Moduli (GPa) = 54.87013 68.91435 42.72620
#
# Poissons Ratio (x) = 0.30023 0.37143
# Poissons Ratio (y) = 0.23905 0.28835
# Poissons Ratio (z) = 0.47700 0.46510
#
# Static dielectric constant tensor:
#      x y z
#    x 3.458020 0.000000 0.000000 
#    y 0.000000 3.471490 0.000000 
#    z 0.000000 0.000000 3.177180 
# 
# 
# High freq. dielectric constant tensor:
#      x y z
#    x 1.713340 0.000000 0.000000 
#    y 0.000000 1.699520 0.000000 
#    z 0.000000 0.000000 1.677880 
# 
# From -- ./inp_files/43890.got.cif
#   From: 2010.03.12/outbox.cif.g09.slc.cpg/sg67_22_cif.got.tgz:43890.got - 2010.04.10 22:41:39.
