data_PCOD8279463
_publ_section_title
;
Structure prediction by ZEFSAII (Michael W. Deem and Ramdas Pophale) SiO2 
 PCOD8279463
Probable space group: C M M A
;
_chemical_formula_sum "Si O2"
_cell_formula_units_Z 64
_cell_length_a 26.063767
_cell_length_b 9.360150
_cell_length_c 14.592822
_cell_angle_alpha 90.000000
_cell_angle_beta 90.000000
_cell_angle_gamma 90.000000
_cell_volume 3560.076072
_symmetry_space_group_name_H-M "C M M A"
_symmetry_group_IT_number 67
_symmetry_cell_setting 'orthorhombic'
loop_
_space_group_symop_operation_xyz
x,y,z
-x,1/2-y,z
x,-y,-z
-x,1/2+y,-z
-x,-y,-z
x,1/2+y,-z
-x,y,z
x,1/2-y,z
1/2+x,1/2+y,z
1/2-x,-y,z
1/2+x,1/2-y,-z
1/2-x,y,-z
1/2-x,1/2-y,-z
1/2+x,y,-z
1/2-x,1/2+y,z
1/2+x,-y,z
loop_
_atom_site_type_symbol
_atom_site_label
_atom_site_fract_x
_atom_site_fract_y
_atom_site_fract_z
Si Si1 0.396116 0.413155 0.222042
Si Si2 0.441243 0.404802 0.921546
Si Si3 0.441445 0.914556 0.588294
Si Si4 0.301819 0.920071 0.907374
O O1 0.412624 0.250000 0.203544
O O2 0.437355 0.515932 0.174901
O O3 0.400951 0.447398 0.329983
O O4 0.340589 0.444478 0.177755
O O5 0.500000 0.381695 0.947012
O O6 0.413629 0.250000 0.918864
O O7 0.413904 0.500000 0.000000
O O8 0.500000 0.958029 0.615735
O O9 0.439563 0.750000 0.561200
O O10 0.422120 0.000000 0.500000
O O11 0.293396 0.750000 0.925103
O O12 0.250000 0.000000 0.876412
O O13 0.321406 0.000000 0.000000
#
# Coordination Sequence:
#
# PCOD8279463 Si02
#       4
#    16  16  16  16
#     4  10  20  33  51  73  97 128 165 205 249 296
#     4  10  20  31  44  66  97 131 164 197 236 287
#     4   9  18  33  52  74 101 131 163 202 247 294
#     4  10  20  34  52  74 100 130 165 204 248 297
#
# _framework density 17.977143999999999
#
# number of rings (size 3 to 8) (size 9 to 14) (size 15 to 20)
#    0.000    2.250    0.000    3.750    0.000    7.500 
#    0.000    2.500    0.000    0.750    0.000    5.250 
#    0.000    0.000    0.000    0.000    0.000    0.000 
#
# Total GULP energy -396540.326593 kJ/mol
# GULP energy per Si atom -12391.885206 kJ/mol
# Density = 1.793623 g / cm^3
# Si number density = 17.977144 Si / 1000 Ang^3
#
#
#
# Elastic Constant Matrix: (Units=GPa)
#
#
# Indices 1 2 3 4 5 6 
#
# 1 70.3100 39.2565 54.4459 0.0000 0.0000 0.0000
# 2 39.2565 128.6934 78.6499 0.0000 0.0000 0.0000
# 3 54.4459 78.6499 150.7193 0.0000 0.0000 0.0000
# 4 0.0000 0.0000 0.0000 33.1758 0.0000 0.0000
# 5 0.0000 0.0000 0.0000 0.0000 31.6425 0.0000
# 6 0.0000 0.0000 0.0000 0.0000 0.0000 15.0714
#
#
#
# Elastic Compliance Matrix: (Units=1/GPa)
#
#
# Indices 1 2 3 4 5 6 
#
# 1 0.020284 -0.002510 -0.006018 0.000000 0.000000 0.000000
# 2 -0.002510 0.011719 -0.005209 0.000000 0.000000 0.000000
# 3 -0.006018 -0.005209 0.011527 0.000000 0.000000 0.000000
# 4 0.000000 0.000000 0.000000 0.030142 0.000000 0.000000
# 5 0.000000 0.000000 0.000000 0.000000 0.031603 0.000000
# 6 0.000000 0.000000 0.000000 0.000000 0.000000 0.066351
#
#
# Mechanical properties :
#
#
# Convention : Reuss Voigt Hill
#
# Bulk Modulus (GPa) = 62.27638 77.15860 69.71749
# Shear Modulus (GPa) = 24.45568 27.80265 26.12917
#
# Velocity S-wave (km/s) = 3.69233 3.93689 3.81657
# Velocity P-wave (km/s) = 7.27289 7.97992 7.63459
#
# Compressibility (1/GPa) = 0.01605745
#
# Stress axis : x y z
#
# Youngs Moduli (GPa) = 49.30013 85.32905 86.75383
#
# Poissons Ratio (x) = 0.21415 0.52206
# Poissons Ratio (y) = 0.12373 0.45189
# Poissons Ratio (z) = 0.29668 0.44447
#
# Static dielectric constant tensor:
#      x y z
#    x 3.136750 0.000000 0.000000 
#    y 0.000000 3.676280 0.000000 
#    z 0.000000 0.000000 3.237130 
# 
# 
# High freq. dielectric constant tensor:
#      x y z
#    x 1.674080 0.000000 0.000000 
#    y 0.000000 1.712940 0.000000 
#    z 0.000000 0.000000 1.678980 
# 
# From -- ./inp_files/15810.got.cif
#   From: 2010.03.12/outbox.cif.g09.slc.cpg/sg67_8_cif.got.tgz:15810.got - 2010.04.10 22:41:39.
