data_PCOD8279894
_publ_section_title
;
Structure prediction by ZEFSAII (Michael W. Deem and Ramdas Pophale) SiO2 
 PCOD8279894
Probable space group: C M M A
;
_chemical_formula_sum "Si O2"
_cell_formula_units_Z 96
_cell_length_a 9.090610
_cell_length_b 19.951392
_cell_length_c 30.432230
_cell_angle_alpha 90.000000
_cell_angle_beta 90.000000
_cell_angle_gamma 90.000000
_cell_volume 5519.503404
_symmetry_space_group_name_H-M "C M M A"
_symmetry_group_IT_number 67
_symmetry_cell_setting 'orthorhombic'
loop_
_space_group_symop_operation_xyz
x,y,z
-x,1/2-y,z
x,-y,-z
-x,1/2+y,-z
-x,-y,-z
x,1/2+y,-z
-x,y,z
x,1/2-y,z
1/2+x,1/2+y,z
1/2-x,-y,z
1/2+x,1/2-y,-z
1/2-x,y,-z
1/2-x,1/2-y,-z
1/2+x,y,-z
1/2-x,1/2+y,z
1/2+x,-y,z
loop_
_atom_site_type_symbol
_atom_site_label
_atom_site_fract_x
_atom_site_fract_y
_atom_site_fract_z
Si Si1 0.663477 0.170204 0.373855
Si Si2 0.328711 0.067242 0.209679
Si Si3 0.664725 0.170022 0.542477
Si Si4 0.175443 0.175695 0.722464
Si Si5 0.326593 0.569226 0.891903
Si Si6 0.671754 0.171948 0.954607
O O1 0.500000 0.140819 0.380790
O O2 0.657068 0.250000 0.375997
O O3 0.764640 0.141160 0.412717
O O4 0.726686 0.149564 0.325787
O O5 0.500000 0.057089 0.218032
O O6 0.264302 0.127089 0.239523
O O7 0.295568 0.083741 0.159105
O O8 0.250000 0.000000 0.224965
O O9 0.500000 0.142594 0.539742
O O10 0.668893 0.250000 0.542910
O O11 0.750000 0.142208 0.500000
O O12 0.239070 0.250000 0.731861
O O13 0.000000 0.178687 0.722797
O O14 0.500000 0.565313 0.902413
O O15 0.250000 0.500000 0.906731
O O16 0.251599 0.630539 0.916784
O O17 0.500000 0.152929 0.957596
O O18 0.693295 0.250000 0.943532
O O19 0.750000 0.152926 0.000000
#
# Coordination Sequence:
#
# PCOD8279894 Si02
#       6
#    16  16  16  16  16  16
#     4   8  13  22  36  53  75 104 139 180 222 262
#     4   9  18  32  50  71  96 126 158 195 236 278
#     4   9  15  21  30  46  71 104 140 175 214 263
#     4   8  14  26  45  67  89 117 155 193 228 271
#     4  10  20  34  53  76 102 132 167 205 244 287
#     4  10  21  37  56  78 105 134 164 200 242 288
#
# _framework density 17.392869999999998
#
# number of rings (size 3 to 8) (size 9 to 14) (size 15 to 20)
#    0.000    3.000    0.000    2.500    0.000    4.667 
#    0.000    4.167    0.000    1.500    0.000    0.000 
#    0.000    0.667    0.000    7.667    0.000    9.333 
#
# Total GULP energy -595033.528691 kJ/mol
# GULP energy per Si atom -12396.531848 kJ/mol
# Density = 1.735328 g / cm^3
# Si number density = 17.392870 Si / 1000 Ang^3
#
#
#
# Elastic Constant Matrix: (Units=GPa)
#
#
# Indices 1 2 3 4 5 6 
#
# 1 96.6906 40.9602 60.0287 0.0000 0.0000 0.0000
# 2 40.9602 71.0318 67.1900 0.0000 0.0000 0.0000
# 3 60.0287 67.1900 127.4080 0.0000 0.0000 0.0000
# 4 0.0000 0.0000 0.0000 5.0930 0.0000 0.0000
# 5 0.0000 0.0000 0.0000 0.0000 25.8225 0.0000
# 6 0.0000 0.0000 0.0000 0.0000 0.0000 21.0376
#
#
#
# Elastic Compliance Matrix: (Units=1/GPa)
#
#
# Indices 1 2 3 4 5 6 
#
# 1 0.015157 -0.003961 -0.005052 0.000000 0.000000 0.000000
# 2 -0.003961 0.029126 -0.013494 0.000000 0.000000 0.000000
# 3 -0.005052 -0.013494 0.017345 0.000000 0.000000 0.000000
# 4 0.000000 0.000000 0.000000 0.196350 0.000000 0.000000
# 5 0.000000 0.000000 0.000000 0.000000 0.038726 0.000000
# 6 0.000000 0.000000 0.000000 0.000000 0.000000 0.047534
#
#
# Mechanical properties :
#
#
# Convention : Reuss Voigt Hill
#
# Bulk Modulus (GPa) = 60.18973 70.16536 65.17754
# Shear Modulus (GPa) = 12.66494 18.85405 15.75950
#
# Velocity S-wave (km/s) = 2.70139 3.29600 3.01340
# Velocity P-wave (km/s) = 6.66417 7.41039 7.04716
#
# Compressibility (1/GPa) = 0.01661413
#
# Stress axis : x y z
#
# Youngs Moduli (GPa) = 65.97656 34.33316 57.65242
#
# Poissons Ratio (x) = 0.13600 0.29128
# Poissons Ratio (y) = 0.26134 0.77795
# Poissons Ratio (z) = 0.33333 0.46329
#
# Static dielectric constant tensor:
#      x y z
#    x 3.235670 0.000000 0.000000 
#    y 0.000000 2.979850 0.000000 
#    z 0.000000 0.000000 3.483870 
# 
# 
# High freq. dielectric constant tensor:
#      x y z
#    x 1.663770 0.000000 0.000000 
#    y 0.000000 1.628130 0.000000 
#    z 0.000000 0.000000 1.684400 
# 
# From -- ./inp_files/43428.got.cif
#   From: 2010.03.12/outbox.cif.g09.slc.cpg/sg67_22_cif.got.tgz:43428.got - 2010.04.10 22:41:39.
