data_PCOD8279617
_publ_section_title
;
Structure prediction by ZEFSAII (Michael W. Deem and Ramdas Pophale) SiO2 
 PCOD8279617
Probable space group: C M M A
;
_chemical_formula_sum "Si O2"
_cell_formula_units_Z 80
_cell_length_a 18.540984
_cell_length_b 9.407669
_cell_length_c 25.893051
_cell_angle_alpha 90.000000
_cell_angle_beta 90.000000
_cell_angle_gamma 90.000000
_cell_volume 4516.458610
_symmetry_space_group_name_H-M "C M M A"
_symmetry_group_IT_number 67
_symmetry_cell_setting 'orthorhombic'
loop_
_space_group_symop_operation_xyz
x,y,z
-x,1/2-y,z
x,-y,-z
-x,1/2+y,-z
-x,-y,-z
x,1/2+y,-z
-x,y,z
x,1/2-y,z
1/2+x,1/2+y,z
1/2-x,-y,z
1/2+x,1/2-y,-z
1/2-x,y,-z
1/2-x,1/2-y,-z
1/2+x,y,-z
1/2-x,1/2+y,z
1/2+x,-y,z
loop_
_atom_site_type_symbol
_atom_site_label
_atom_site_fract_x
_atom_site_fract_y
_atom_site_fract_z
Si Si1 0.580361 0.419503 0.840316
Si Si2 0.176530 0.083236 0.253551
Si Si3 0.414120 0.592524 0.046459
Si Si4 0.414118 0.411064 0.451588
Si Si5 0.083506 0.913162 0.646595
O O1 0.500000 0.479127 0.828487
O O2 0.576812 0.250000 0.839863
O O3 0.635532 0.475324 0.797183
O O4 0.606969 0.470977 0.897156
O O5 0.192661 0.250000 0.249020
O O6 0.127174 0.048199 0.302428
O O7 0.250000 0.000000 0.259979
O O8 0.500000 0.597564 0.042693
O O9 0.381878 0.750000 0.040083
O O10 0.380700 0.500000 0.000000
O O11 0.383121 0.500000 0.500000
O O12 0.500000 0.410574 0.453734
O O13 0.384048 0.250000 0.453354
O O14 0.387551 0.486961 0.399312
O O15 0.095098 0.750000 0.629684
O O16 0.000000 0.942758 0.658741
#
# Coordination Sequence:
#
# PCOD8279617 Si02
#       5
#    16  16  16  16  16
#     4   8  14  27  48  70  90 118 157 193 224 267
#     4  10  20  33  49  68  92 122 155 192 233 276
#     4   8  13  22  39  64  91 115 142 181 227 271
#     4   9  16  26  43  69  99 126 151 184 227 272
#     4   9  17  30  49  71  93 120 156 193 226 266
#
# _framework density 17.712993000000001
#
# number of rings (size 3 to 8) (size 9 to 14) (size 15 to 20)
#    0.000    3.200    0.000    2.400    0.000    5.600 
#    0.000    1.000    0.000    4.200    0.000    8.400 
#    0.000    0.000    0.000    0.000    0.000    0.000 
#
# Total GULP energy -495819.182812 kJ/mol
# GULP energy per Si atom -12395.479570 kJ/mol
# Density = 1.767268 g / cm^3
# Si number density = 17.712993 Si / 1000 Ang^3
#
#
#
# Elastic Constant Matrix: (Units=GPa)
#
#
# Indices 1 2 3 4 5 6 
#
# 1 56.5060 33.3252 53.5568 0.0000 0.0000 0.0000
# 2 33.3252 81.7865 76.6420 0.0000 0.0000 0.0000
# 3 53.5568 76.6420 176.9798 0.0000 0.0000 0.0000
# 4 0.0000 0.0000 0.0000 30.2508 0.0000 0.0000
# 5 0.0000 0.0000 0.0000 0.0000 0.8830 0.0000
# 6 0.0000 0.0000 0.0000 0.0000 0.0000 17.7821
#
#
#
# Elastic Compliance Matrix: (Units=1/GPa)
#
#
# Indices 1 2 3 4 5 6 
#
# 1 0.026187 -0.005460 -0.005560 0.000000 0.000000 0.000000
# 2 -0.005460 0.021716 -0.007752 0.000000 0.000000 0.000000
# 3 -0.005560 -0.007752 0.010690 0.000000 0.000000 0.000000
# 4 0.000000 0.000000 0.000000 0.033057 0.000000 0.000000
# 5 0.000000 0.000000 0.000000 0.000000 1.132547 0.000000
# 6 0.000000 0.000000 0.000000 0.000000 0.000000 0.056236
#
#
# Mechanical properties :
#
#
# Convention : Reuss Voigt Hill
#
# Bulk Modulus (GPa) = 47.50803 71.36892 59.43847
# Shear Modulus (GPa) = 3.77360 19.89972 11.83666
#
# Velocity S-wave (km/s) = 1.46118 3.35543 2.58785
# Velocity P-wave (km/s) = 5.45215 7.44253 6.52369
#
# Compressibility (1/GPa) = 0.02104907
#
# Stress axis : x y z
#
# Youngs Moduli (GPa) = 38.18645 46.04879 93.54526
#
# Poissons Ratio (x) = 0.25142 0.52013
# Poissons Ratio (y) = 0.20850 0.72516
# Poissons Ratio (z) = 0.21232 0.35697
#
# Static dielectric constant tensor:
#      x y z
#    x 2.852000 0.000000 0.000000 
#    y 0.000000 3.217330 0.000000 
#    z 0.000000 0.000000 3.643700 
# 
# 
# High freq. dielectric constant tensor:
#      x y z
#    x 1.633780 0.000000 0.000000 
#    y 0.000000 1.663250 0.000000 
#    z 0.000000 0.000000 1.705370 
# 
# From -- ./inp_files/43204.got.cif
#   From: 2010.03.12/outbox.cif.g09.slc.cpg/sg67_22_cif.got.tgz:43204.got - 2010.04.10 22:41:39.
