data_PCOD8279204
_publ_section_title
;
Structure prediction by ZEFSAII (Michael W. Deem and Ramdas Pophale) SiO2 
 PCOD8279204
Probable space group: C M M A
;
_chemical_formula_sum "Si O2"
_cell_formula_units_Z 56
_cell_length_a 15.393291
_cell_length_b 8.667282
_cell_length_c 19.604215
_cell_angle_alpha 90.000000
_cell_angle_beta 90.000000
_cell_angle_gamma 90.000000
_cell_volume 2615.555039
_symmetry_space_group_name_H-M "C M M A"
_symmetry_group_IT_number 67
_symmetry_cell_setting 'orthorhombic'
loop_
_space_group_symop_operation_xyz
x,y,z
-x,1/2-y,z
x,-y,-z
-x,1/2+y,-z
-x,-y,-z
x,1/2+y,-z
-x,y,z
x,1/2-y,z
1/2+x,1/2+y,z
1/2-x,-y,z
1/2+x,1/2-y,-z
1/2-x,y,-z
1/2-x,1/2-y,-z
1/2+x,y,-z
1/2-x,1/2+y,z
1/2+x,-y,z
loop_
_atom_site_type_symbol
_atom_site_label
_atom_site_fract_x
_atom_site_fract_y
_atom_site_fract_z
Si Si1 0.159507 0.931383 0.156553
Si Si2 0.102639 0.572975 0.707733
Si Si3 0.500000 0.067527 0.925082
Si Si4 0.603453 0.423520 0.431401
O O1 0.156171 0.750000 0.143751
O O2 0.250000 0.000000 0.129560
O O3 0.149325 0.966891 0.236641
O O4 0.084488 0.012826 0.114488
O O5 0.128862 0.750000 0.720122
O O6 0.136149 0.521057 0.633460
O O7 0.000000 0.549023 0.714209
O O8 0.500000 0.250000 0.928485
O O9 0.500000 0.000000 0.000000
O O10 0.641702 0.500000 0.500000
O O11 0.500000 0.424627 0.434269
O O12 0.638970 0.250000 0.425412
#
# Coordination Sequence:
#
# PCOD8279204 Si02
#       4
#    16  16   8  16
#     4  12  25  43  68  99 134 174 218 266 320 380
#     4  10  19  33  56  85 121 164 212 265 322 381
#     4  12  26  48  74 104 137 172 213 260 316 380
#     4   9  16  26  43  72 111 155 207 263 321 380
#
# _framework density 21.410371000000001
#
# number of rings (size 3 to 8) (size 9 to 14) (size 15 to 20)
#    0.000    1.429    1.429    5.571    0.000    5.143 
#    0.000    2.857    0.000    0.857    0.000    6.000 
#    0.000    0.000    0.000    0.000    0.000    0.000 
#
# Total GULP energy -347339.373194 kJ/mol
# GULP energy per Si atom -12404.977614 kJ/mol
# Density = 2.136164 g / cm^3
# Si number density = 21.410371 Si / 1000 Ang^3
#
#
#
# Elastic Constant Matrix: (Units=GPa)
#
#
# Indices 1 2 3 4 5 6 
#
# 1 98.4203 51.7566 50.7454 0.0000 0.0000 0.0000
# 2 51.7566 180.4978 50.9863 0.0000 0.0000 0.0000
# 3 50.7454 50.9863 142.9587 0.0000 0.0000 0.0000
# 4 0.0000 0.0000 0.0000 45.1278 0.0000 0.0000
# 5 0.0000 0.0000 0.0000 0.0000 -13.7547 0.0000
# 6 0.0000 0.0000 0.0000 0.0000 0.0000 27.4595
#
#
#
# Elastic Compliance Matrix: (Units=1/GPa)
#
#
# Indices 1 2 3 4 5 6 
#
# 1 0.013619 -0.002824 -0.003827 0.000000 0.000000 0.000000
# 2 -0.002824 0.006747 -0.001404 0.000000 0.000000 0.000000
# 3 -0.003827 -0.001404 0.008854 0.000000 0.000000 0.000000
# 4 0.000000 0.000000 0.000000 0.022159 0.000000 0.000000
# 5 0.000000 0.000000 0.000000 0.000000 -0.072703 0.000000
# 6 0.000000 0.000000 0.000000 0.000000 0.000000 0.036417
#
#
# Mechanical properties :
#
#
# Convention : Reuss Voigt Hill
#
# Bulk Modulus (GPa) = 76.27823 80.98370 78.63097
# Shear Modulus (GPa) = 140.55616 29.65910 85.10763
#
# Velocity S-wave (km/s) = 8.11117 3.72596 6.31165
# Velocity P-wave (km/s) = 11.10971 7.51112 9.48268
#
# Compressibility (1/GPa) = 0.01310990
#
# Stress axis : x y z
#
# Youngs Moduli (GPa) = 73.42784 148.22437 112.94182
#
# Poissons Ratio (x) = 0.41860 0.43223
# Poissons Ratio (y) = 0.20737 0.15854
# Poissons Ratio (z) = 0.28101 0.20806
#
# Static dielectric constant tensor:
#      x y z
#    x 3.674350 0.000000 0.000000 
#    y 0.000000 4.049320 0.000000 
#    z 0.000000 0.000000 3.973790 
# 
# 
# High freq. dielectric constant tensor:
#      x y z
#    x 1.821900 0.000000 0.000000 
#    y 0.000000 1.856020 0.000000 
#    z 0.000000 0.000000 1.845990 
# 
# From -- ./inp_files/31612.got.cif
#   From: 2010.03.12/outbox.cif.g09.slc.cpg/sg67_16_cif.got.tgz:31612.got - 2010.04.10 22:41:39.
