data_PCOD8279489
_publ_section_title
;
Structure prediction by ZEFSAII (Michael W. Deem and Ramdas Pophale) SiO2 
 PCOD8279489
Probable space group: C M M A
;
_chemical_formula_sum "Si O2"
_cell_formula_units_Z 96
_cell_length_a 8.848713
_cell_length_b 26.744565
_cell_length_c 25.152893
_cell_angle_alpha 90.000000
_cell_angle_beta 90.000000
_cell_angle_gamma 90.000000
_cell_volume 5952.557390
_symmetry_space_group_name_H-M "C M M A"
_symmetry_group_IT_number 67
_symmetry_cell_setting 'orthorhombic'
loop_
_space_group_symop_operation_xyz
x,y,z
-x,1/2-y,z
x,-y,-z
-x,1/2+y,-z
-x,-y,-z
x,1/2+y,-z
-x,y,z
x,1/2-y,z
1/2+x,1/2+y,z
1/2-x,-y,z
1/2+x,1/2-y,-z
1/2-x,y,-z
1/2-x,1/2-y,-z
1/2+x,y,-z
1/2-x,1/2+y,z
1/2+x,-y,z
loop_
_atom_site_type_symbol
_atom_site_label
_atom_site_fract_x
_atom_site_fract_y
_atom_site_fract_z
Si Si1 0.678119 0.693253 0.765749
Si Si2 0.830937 0.690611 0.657777
Si Si3 0.676809 0.364461 0.130970
Si Si4 0.169901 0.809647 0.447134
Si Si5 0.833830 0.692503 0.950351
Si Si6 0.680719 0.947027 0.057027
O O1 0.500000 0.696115 0.760125
O O2 0.738270 0.750000 0.779017
O O3 0.745322 0.672959 0.710652
O O4 0.723138 0.650833 0.809023
O O5 0.830065 0.750000 0.654523
O O6 0.751039 0.668565 0.605291
O O7 0.000000 0.669308 0.659738
O O8 0.500000 0.376562 0.126081
O O9 0.723357 0.314406 0.099443
O O10 0.773580 0.409065 0.104538
O O11 0.174633 0.750000 0.446804
O O12 0.250000 0.830537 0.500000
O O13 0.000000 0.829776 0.447113
O O14 0.858955 0.750000 0.961873
O O15 0.000000 0.667079 0.942595
O O16 0.750000 0.666413 0.000000
O O17 0.500000 0.950836 0.052556
O O18 0.750000 0.000000 0.073883
O O19 0.750000 0.930407 0.000000
#
# Coordination Sequence:
#
# PCOD8279489 Si02
#       6
#    16  16  16  16  16  16
#     4   9  18  31  45  61  84 116 150 181 213 251
#     4   9  16  25  37  53  75 104 139 179 219 255
#     4  11  21  33  49  68  89 113 142 174 211 255
#     4   9  15  22  33  49  70  97 133 177 221 260
#     4  10  20  32  45  62  85 112 141 173 209 248
#     4  11  22  38  57  75  93 111 135 169 213 262
#
# _framework density 16.127523
#
# number of rings (size 3 to 8) (size 9 to 14) (size 15 to 20)
#    0.000    2.167    0.000    5.000    0.000    7.000 
#    0.000    1.667    0.000    0.000    0.000    0.000 
#    0.000    0.000    0.000    0.000    0.000    0.833 
#
# Total GULP energy -594783.694817 kJ/mol
# GULP energy per Si atom -12391.326975 kJ/mol
# Density = 1.609082 g / cm^3
# Si number density = 16.127523 Si / 1000 Ang^3
#
#
#
# Elastic Constant Matrix: (Units=GPa)
#
#
# Indices 1 2 3 4 5 6 
#
# 1 84.5262 28.3514 61.2511 0.0000 0.0000 0.0000
# 2 28.3514 49.5011 34.1555 0.0000 0.0000 0.0000
# 3 61.2511 34.1555 150.4930 0.0000 0.0000 0.0000
# 4 0.0000 0.0000 0.0000 11.2049 0.0000 0.0000
# 5 0.0000 0.0000 0.0000 0.0000 31.5993 0.0000
# 6 0.0000 0.0000 0.0000 0.0000 0.0000 14.8493
#
#
#
# Elastic Compliance Matrix: (Units=1/GPa)
#
#
# Indices 1 2 3 4 5 6 
#
# 1 0.018317 -0.006340 -0.006016 0.000000 0.000000 0.000000
# 2 -0.006340 0.026147 -0.003354 0.000000 0.000000 0.000000
# 3 -0.006016 -0.003354 0.009855 0.000000 0.000000 0.000000
# 4 0.000000 0.000000 0.000000 0.089247 0.000000 0.000000
# 5 0.000000 0.000000 0.000000 0.000000 0.031646 0.000000
# 6 0.000000 0.000000 0.000000 0.000000 0.000000 0.067343
#
#
# Mechanical properties :
#
#
# Convention : Reuss Voigt Hill
#
# Bulk Modulus (GPa) = 43.67080 59.11516 51.39298
# Shear Modulus (GPa) = 17.75528 22.24818 20.00173
#
# Velocity S-wave (km/s) = 3.32163 3.71821 3.52550
# Velocity P-wave (km/s) = 6.46901 7.42751 6.96477
#
# Compressibility (1/GPa) = 0.02289860
#
# Stress axis : x y z
#
# Youngs Moduli (GPa) = 54.59546 38.24568 101.47561
#
# Poissons Ratio (x) = 0.24246 0.61048
# Poissons Ratio (y) = 0.34611 0.34034
# Poissons Ratio (z) = 0.32845 0.12827
#
# Static dielectric constant tensor:
#      x y z
#    x 3.349400 0.000000 0.000000 
#    y 0.000000 2.627690 0.000000 
#    z 0.000000 0.000000 3.180670 
# 
# 
# High freq. dielectric constant tensor:
#      x y z
#    x 1.640490 0.000000 0.000000 
#    y 0.000000 1.555820 0.000000 
#    z 0.000000 0.000000 1.619650 
# 
# From -- ./inp_files/40920.got.cif
#   From: 2010.03.12/outbox.cif.g09.slc.cpg/sg67_21_cif.got.tgz:40920.got - 2010.04.10 22:41:39.
