data_PCOD8279908
_publ_section_title
;
Structure prediction by ZEFSAII (Michael W. Deem and Ramdas Pophale) SiO2 
 PCOD8279908
Probable space group: C M M A
;
_chemical_formula_sum "Si O2"
_cell_formula_units_Z 88
_cell_length_a 16.403820
_cell_length_b 8.842427
_cell_length_c 29.889825
_cell_angle_alpha 90.000000
_cell_angle_beta 90.000000
_cell_angle_gamma 90.000000
_cell_volume 4335.506589
_symmetry_space_group_name_H-M "C M M A"
_symmetry_group_IT_number 67
_symmetry_cell_setting 'orthorhombic'
loop_
_space_group_symop_operation_xyz
x,y,z
-x,1/2-y,z
x,-y,-z
-x,1/2+y,-z
-x,-y,-z
x,1/2+y,-z
-x,y,z
x,1/2-y,z
1/2+x,1/2+y,z
1/2-x,-y,z
1/2+x,1/2-y,-z
1/2-x,y,-z
1/2-x,1/2-y,-z
1/2+x,y,-z
1/2-x,1/2+y,z
1/2+x,-y,z
loop_
_atom_site_type_symbol
_atom_site_label
_atom_site_fract_x
_atom_site_fract_y
_atom_site_fract_z
Si Si1 0.908051 0.912209 0.223259
Si Si2 0.661544 0.426129 0.957561
Si Si3 0.838275 0.070088 0.405336
Si Si4 0.833473 0.926339 0.697899
Si Si5 0.500000 0.567480 0.549049
Si Si6 0.162945 0.425715 0.139896
O O1 0.859798 0.750000 0.224415
O O2 0.000000 0.868742 0.219019
O O3 0.900025 0.004627 0.269325
O O4 0.888995 0.009982 0.180015
O O5 0.669924 0.250000 0.966899
O O6 0.750000 0.500000 0.955816
O O7 0.620156 0.456087 0.908833
O O8 0.612818 0.500000 0.000000
O O9 0.837077 0.250000 0.415303
O O10 0.852915 0.033742 0.353353
O O11 0.750000 0.000000 0.420633
O O12 0.915894 0.992337 0.428882
O O13 0.828336 0.750000 0.705179
O O14 0.750000 0.000000 0.713847
O O15 0.500000 0.750000 0.549299
O O16 0.500000 0.500000 0.500000
O O17 0.174375 0.250000 0.148040
O O18 0.250000 0.500000 0.141268
#
# Coordination Sequence:
#
# PCOD8279908 Si02
#       6
#    16  16  16  16   8  16
#     4  11  24  38  53  77 109 146 187 232 281 337
#     4   9  16  26  44  71  99 128 165 212 267 323
#     4  10  22  42  67  98 132 170 216 265 320 380
#     4  10  21  38  62  88 118 153 192 239 290 347
#     4  12  26  44  68  98 134 176 220 270 321 376
#     4  10  20  34  53  76 104 139 177 221 273 332
#
# _framework density 20.297512999999999
#
# number of rings (size 3 to 8) (size 9 to 14) (size 15 to 20)
#    0.000    1.818    0.000    4.636    1.273    6.182 
#    0.000    1.818    0.000    0.545    0.000    0.000 
#    0.000    0.000    0.000    0.000    0.000    0.000 
#
# Total GULP energy -545101.282106 kJ/mol
# GULP energy per Si atom -12388.665502 kJ/mol
# Density = 2.025132 g / cm^3
# Si number density = 20.297513 Si / 1000 Ang^3
#
#
#
# Elastic Constant Matrix: (Units=GPa)
#
#
# Indices 1 2 3 4 5 6 
#
# 1 95.2118 53.4690 58.0321 0.0000 0.0000 0.0000
# 2 53.4690 151.6112 78.8348 0.0000 0.0000 0.0000
# 3 58.0321 78.8348 142.7325 0.0000 0.0000 0.0000
# 4 0.0000 0.0000 0.0000 39.1193 0.0000 0.0000
# 5 0.0000 0.0000 0.0000 0.0000 0.4406 0.0000
# 6 0.0000 0.0000 0.0000 0.0000 0.0000 25.0318
#
#
#
# Elastic Compliance Matrix: (Units=1/GPa)
#
#
# Indices 1 2 3 4 5 6 
#
# 1 0.014843 -0.002941 -0.004410 0.000000 0.000000 0.000000
# 2 -0.002941 0.009836 -0.004237 0.000000 0.000000 0.000000
# 3 -0.004410 -0.004237 0.011139 0.000000 0.000000 0.000000
# 4 0.000000 0.000000 0.000000 0.025563 0.000000 0.000000
# 5 0.000000 0.000000 0.000000 0.000000 2.269472 0.000000
# 6 0.000000 0.000000 0.000000 0.000000 0.000000 0.039949
#
#
# Mechanical properties :
#
#
# Convention : Reuss Voigt Hill
#
# Bulk Modulus (GPa) = 79.10498 85.58079 82.34289
# Shear Modulus (GPa) = 2.08490 26.19964 14.14227
#
# Velocity S-wave (km/s) = 1.01459 3.59664 2.64246
# Velocity P-wave (km/s) = 6.35845 7.71379 7.06868
#
# Compressibility (1/GPa) = 0.01264143
#
# Stress axis : x y z
#
# Youngs Moduli (GPa) = 67.37297 101.66434 89.77210
#
# Poissons Ratio (x) = 0.29904 0.39591
# Poissons Ratio (y) = 0.19817 0.38036
# Poissons Ratio (z) = 0.29712 0.43074
#
# Static dielectric constant tensor:
#      x y z
#    x 3.413270 0.000000 0.000000 
#    y 0.000000 3.945290 0.000000 
#    z 0.000000 0.000000 4.395910 
# 
# 
# High freq. dielectric constant tensor:
#      x y z
#    x 1.761210 0.000000 0.000000 
#    y 0.000000 1.817140 0.000000 
#    z 0.000000 0.000000 1.811990 
# 
# From -- ./inp_files/45218.got.cif
#   From: 2010.03.12/outbox.cif.g09.slc.cpg/sg67_23_cif.got.tgz:45218.got - 2010.04.10 22:41:39.
