data_PCOD8279346
_publ_section_title
;
Structure prediction by ZEFSAII (Michael W. Deem and Ramdas Pophale) SiO2 
 PCOD8279346
Probable space group: C M M A
;
_chemical_formula_sum "Si O2"
_cell_formula_units_Z 104
_cell_length_a 30.130149
_cell_length_b 8.857955
_cell_length_c 20.157580
_cell_angle_alpha 90.000000
_cell_angle_beta 90.000000
_cell_angle_gamma 90.000000
_cell_volume 5379.886843
_symmetry_space_group_name_H-M "C M M A"
_symmetry_group_IT_number 67
_symmetry_cell_setting 'orthorhombic'
loop_
_space_group_symop_operation_xyz
x,y,z
-x,1/2-y,z
x,-y,-z
-x,1/2+y,-z
-x,-y,-z
x,1/2+y,-z
-x,y,z
x,1/2-y,z
1/2+x,1/2+y,z
1/2-x,-y,z
1/2+x,1/2-y,-z
1/2-x,y,-z
1/2-x,1/2-y,-z
1/2+x,y,-z
1/2-x,1/2+y,z
1/2+x,-y,z
loop_
_atom_site_type_symbol
_atom_site_label
_atom_site_fract_x
_atom_site_fract_y
_atom_site_fract_z
Si Si1 0.296814 0.571467 0.568717
Si Si2 0.950780 0.080196 0.721152
Si Si3 0.500000 0.918136 0.067260
Si Si4 0.172208 0.573071 0.072231
Si Si5 0.795156 0.069866 0.202106
Si Si6 0.075930 0.916461 0.130005
Si Si7 0.858017 0.570638 0.309121
O O1 0.313848 0.500000 0.500000
O O2 0.291244 0.750000 0.560527
O O3 0.250000 0.500000 0.589559
O O4 0.332042 0.527198 0.624598
O O5 0.960935 0.250000 0.699562
O O6 0.925694 0.076764 0.791317
O O7 0.909666 0.015207 0.677346
O O8 0.000000 0.996948 0.718333
O O9 0.500000 0.750000 0.046121
O O10 0.456561 0.953240 0.108221
O O11 0.500000 0.000000 0.000000
O O12 0.184327 0.750000 0.069104
O O13 0.202521 0.489179 0.126231
O O14 0.122661 0.545988 0.097743
O O15 0.179385 0.500000 0.000000
O O16 0.793397 0.250000 0.203222
O O17 0.750000 0.000000 0.233028
O O18 0.836502 0.013124 0.245969
O O19 0.060031 0.750000 0.106384
O O20 0.856639 0.750000 0.294748
#
# Coordination Sequence:
#
# PCOD8279346 Si02
#       7
#    16  16   8  16  16  16  16
#     4  10  20  34  57  87 124 158 194 232 278 336
#     4   9  16  31  58  85 110 144 187 232 280 333
#     4  12  24  34  48  72 104 136 179 232 287 354
#     4  11  23  40  59  79 107 142 187 240 292 353
#     4  12  25  40  60  85 113 148 190 236 290 349
#     4  10  19  35  57  77 102 138 180 230 289 347
#     4  10  20  37  60  89 119 153 193 238 285 335
#
# _framework density 19.331261999999999
#
# number of rings (size 3 to 8) (size 9 to 14) (size 15 to 20)
#    0.000    1.538    2.308    4.385    0.000    5.231 
#    0.000    1.538    0.000    0.462    0.000    0.000 
#    0.000    0.000    0.000    0.000    0.000    0.615 
#
# Total GULP energy -644314.257384 kJ/mol
# GULP energy per Si atom -12390.658796 kJ/mol
# Density = 1.928726 g / cm^3
# Si number density = 19.331262 Si / 1000 Ang^3
#
#
#
# Elastic Constant Matrix: (Units=GPa)
#
#
# Indices 1 2 3 4 5 6 
#
# 1 133.6936 39.2200 53.8547 0.0000 0.0000 0.0000
# 2 39.2200 103.5377 31.5933 0.0000 0.0000 0.0000
# 3 53.8547 31.5933 97.9884 0.0000 0.0000 0.0000
# 4 0.0000 0.0000 0.0000 23.7139 0.0000 0.0000
# 5 0.0000 0.0000 0.0000 0.0000 32.3548 0.0000
# 6 0.0000 0.0000 0.0000 0.0000 0.0000 5.0786
#
#
#
# Elastic Compliance Matrix: (Units=1/GPa)
#
#
# Indices 1 2 3 4 5 6 
#
# 1 0.010103 -0.002365 -0.004790 0.000000 0.000000 0.000000
# 2 -0.002365 0.011266 -0.002332 0.000000 0.000000 0.000000
# 3 -0.004790 -0.002332 0.013590 0.000000 0.000000 0.000000
# 4 0.000000 0.000000 0.000000 0.042169 0.000000 0.000000
# 5 0.000000 0.000000 0.000000 0.000000 0.030907 0.000000
# 6 0.000000 0.000000 0.000000 0.000000 0.000000 0.196905
#
#
# Mechanical properties :
#
#
# Convention : Reuss Voigt Hill
#
# Bulk Modulus (GPa) = 62.56472 64.95062 63.75767
# Shear Modulus (GPa) = 15.18628 26.26626 20.72627
#
# Velocity S-wave (km/s) = 2.80586 3.69012 3.27794
# Velocity P-wave (km/s) = 6.55225 7.19914 6.88330
#
# Compressibility (1/GPa) = 0.01598345
#
# Stress axis : x y z
#
# Youngs Moduli (GPa) = 98.97779 88.76247 73.58392
#
# Poissons Ratio (x) = 0.20996 0.35248
# Poissons Ratio (y) = 0.23413 0.17162
# Poissons Ratio (z) = 0.47412 0.20702
#
# Static dielectric constant tensor:
#      x y z
#    x 3.947400 0.000000 0.000000 
#    y 0.000000 3.380700 0.000000 
#    z 0.000000 0.000000 -0.963210 
# 
# 
# High freq. dielectric constant tensor:
#      x y z
#    x 1.767190 0.000000 0.000000 
#    y 0.000000 1.738110 0.000000 
#    z 0.000000 0.000000 1.734810 
# 
# From -- ./inp_files/40186.got.cif
#   From: 2010.03.12/outbox.cif.g09.slc.cpg/sg67_21_cif.got.tgz:40186.got - 2010.04.10 22:41:39.
