data_PCOD8279839
_publ_section_title
;
Structure prediction by ZEFSAII (Michael W. Deem and Ramdas Pophale) SiO2 
 PCOD8279839
Probable space group: C M M A
;
_chemical_formula_sum "Si O2"
_cell_formula_units_Z 96
_cell_length_a 19.849028
_cell_length_b 8.858181
_cell_length_c 30.096412
_cell_angle_alpha 90.000000
_cell_angle_beta 90.000000
_cell_angle_gamma 90.000000
_cell_volume 5291.740245
_symmetry_space_group_name_H-M "C M M A"
_symmetry_group_IT_number 67
_symmetry_cell_setting 'orthorhombic'
loop_
_space_group_symop_operation_xyz
x,y,z
-x,1/2-y,z
x,-y,-z
-x,1/2+y,-z
-x,-y,-z
x,1/2+y,-z
-x,y,z
x,1/2-y,z
1/2+x,1/2+y,z
1/2-x,-y,z
1/2+x,1/2-y,-z
1/2-x,y,-z
1/2-x,1/2-y,-z
1/2+x,y,-z
1/2-x,1/2+y,z
1/2+x,-y,z
loop_
_atom_site_type_symbol
_atom_site_label
_atom_site_fract_x
_atom_site_fract_y
_atom_site_fract_z
Si Si1 0.921517 0.925991 0.046155
Si Si2 0.424146 0.071367 0.713689
Si Si3 0.179256 0.570382 0.453195
Si Si4 0.681067 0.927452 0.214599
Si Si5 0.320146 0.928388 0.113050
Si Si6 0.576657 0.073137 0.377143
O O1 0.904208 0.750000 0.044358
O O2 0.000000 0.955749 0.055120
O O3 0.881615 0.004576 0.085630
O O4 0.898575 0.000000 0.000000
O O5 0.500000 0.013148 0.722336
O O6 0.421587 0.250000 0.710842
O O7 0.378859 0.011126 0.754308
O O8 0.396415 0.006595 0.667362
O O9 0.156856 0.500000 0.500000
O O10 0.186251 0.750000 0.457690
O O11 0.250000 0.500000 0.437576
O O12 0.122903 0.521487 0.417924
O O13 0.688903 0.750000 0.218870
O O14 0.665793 0.974691 0.163991
O O15 0.750000 0.000000 0.231715
O O16 0.316480 0.750000 0.106344
O O17 0.250000 0.000000 0.096461
O O18 0.500000 0.023477 0.387734
O O19 0.581934 0.250000 0.369191
#
# Coordination Sequence:
#
# PCOD8279839 Si02
#       6
#    16  16  16  16  16  16
#     4  10  21  37  56  79 107 137 172 214 258 307
#     4   9  18  33  52  74 100 131 168 207 246 292
#     4  10  20  34  52  73  99 129 162 202 245 293
#     4   9  19  34  52  75 103 134 168 208 251 297
#     4  10  20  35  55  78 106 139 174 214 259 306
#     4   9  19  35  52  72  99 130 164 203 247 293
#
# _framework density 18.141479
#
# number of rings (size 3 to 8) (size 9 to 14) (size 15 to 20)
#    0.000    2.500    0.000    2.000    0.000    5.667 
#    0.000    6.667    0.000    2.000    0.000    0.000 
#    0.000    0.000    0.000    0.000    0.000    0.000 
#
# Total GULP energy -595306.904254 kJ/mol
# GULP energy per Si atom -12402.227172 kJ/mol
# Density = 1.810019 g / cm^3
# Si number density = 18.141479 Si / 1000 Ang^3
#
#
#
# Elastic Constant Matrix: (Units=GPa)
#
#
# Indices 1 2 3 4 5 6 
#
# 1 107.8067 42.7024 88.7929 0.0000 0.0000 0.0000
# 2 42.7024 62.3086 46.1006 0.0000 0.0000 0.0000
# 3 88.7929 46.1006 128.2740 0.0000 0.0000 0.0000
# 4 0.0000 0.0000 0.0000 31.4728 0.0000 0.0000
# 5 0.0000 0.0000 0.0000 0.0000 37.8693 0.0000
# 6 0.0000 0.0000 0.0000 0.0000 0.0000 29.9496
#
#
#
# Elastic Compliance Matrix: (Units=1/GPa)
#
#
# Indices 1 2 3 4 5 6 
#
# 1 0.022832 -0.005387 -0.013869 0.000000 0.000000 0.000000
# 2 -0.005387 0.023133 -0.004585 0.000000 0.000000 0.000000
# 3 -0.013869 -0.004585 0.019044 0.000000 0.000000 0.000000
# 4 0.000000 0.000000 0.000000 0.031773 0.000000 0.000000
# 5 0.000000 0.000000 0.000000 0.000000 0.026407 0.000000
# 6 0.000000 0.000000 0.000000 0.000000 0.000000 0.033389
#
#
# Mechanical properties :
#
#
# Convention : Reuss Voigt Hill
#
# Bulk Modulus (GPa) = 57.70985 72.62012 65.16499
# Shear Modulus (GPa) = 23.80533 27.91123 25.85828
#
# Velocity S-wave (km/s) = 3.62637 3.92667 3.77950
# Velocity P-wave (km/s) = 7.02952 7.78942 7.41920
#
# Compressibility (1/GPa) = 0.01732806
#
# Stress axis : x y z
#
# Youngs Moduli (GPa) = 43.79733 43.22773 52.50992
#
# Poissons Ratio (x) = 0.23285 0.72826
# Poissons Ratio (y) = 0.23592 0.24077
# Poissons Ratio (z) = 0.60743 0.19821
#
# Static dielectric constant tensor:
#      x y z
#    x 3.488960 0.000000 0.000000 
#    y 0.000000 3.340410 0.000000 
#    z 0.000000 0.000000 3.462080 
# 
# 
# High freq. dielectric constant tensor:
#      x y z
#    x 1.703890 0.000000 0.000000 
#    y 0.000000 1.706300 0.000000 
#    z 0.000000 0.000000 1.706300 
# 
# From -- ./inp_files/43471.got.cif
#   From: 2010.03.12/outbox.cif.g09.slc.cpg/sg67_22_cif.got.tgz:43471.got - 2010.04.10 22:41:39.
