data_PCOD8279579
_publ_section_title
;
Structure prediction by ZEFSAII (Michael W. Deem and Ramdas Pophale) SiO2 
 PCOD8279579
Probable space group: C M M A
;
_chemical_formula_sum "Si O2"
_cell_formula_units_Z 92
_cell_length_a 29.488222
_cell_length_b 9.832588
_cell_length_c 18.947192
_cell_angle_alpha 90.000000
_cell_angle_beta 90.000000
_cell_angle_gamma 90.000000
_cell_volume 5493.653774
_symmetry_space_group_name_H-M "C M M A"
_symmetry_group_IT_number 67
_symmetry_cell_setting 'orthorhombic'
loop_
_space_group_symop_operation_xyz
x,y,z
-x,1/2-y,z
x,-y,-z
-x,1/2+y,-z
-x,-y,-z
x,1/2+y,-z
-x,y,z
x,1/2-y,z
1/2+x,1/2+y,z
1/2-x,-y,z
1/2+x,1/2-y,-z
1/2-x,y,-z
1/2-x,1/2-y,-z
1/2+x,y,-z
1/2-x,1/2+y,z
1/2+x,-y,z
loop_
_atom_site_type_symbol
_atom_site_label
_atom_site_fract_x
_atom_site_fract_y
_atom_site_fract_z
Si Si1 0.250000 0.000000 0.500000
Si Si2 0.710695 0.408763 0.769856
Si Si3 0.184976 0.095142 0.381845
Si Si4 0.110093 0.908606 0.803124
Si Si5 0.000000 0.587062 0.569707
Si Si6 0.588794 0.088459 0.649640
Si Si7 0.947550 0.407838 0.066578
O O1 0.217082 0.913081 0.549809
O O2 0.724245 0.250000 0.773232
O O3 0.750000 0.500000 0.805924
O O4 0.706451 0.466776 0.689268
O O5 0.663822 0.436319 0.811292
O O6 0.177612 0.250000 0.361478
O O7 0.133876 0.036542 0.393620
O O8 0.100024 0.750000 0.800894
O O9 0.091717 0.970837 0.729348
O O10 0.082596 0.968465 0.869371
O O11 0.000000 0.500000 0.500000
O O12 0.043771 0.534905 0.612436
O O13 0.000000 0.750000 0.555368
O O14 0.586690 0.250000 0.651530
O O15 0.936211 0.250000 0.049652
O O16 0.000000 0.424342 0.087763
O O17 0.935031 0.500000 0.000000
#
# Coordination Sequence:
#
# PCOD8279579 Si02
#       7
#     4  16  16  16   8  16  16
#     4  12  18  24  44  60  84 120 152 180 246 286
#     4   9  16  30  47  65  89 117 150 192 230 265
#     4   9  18  29  40  60  87 114 148 187 230 278
#     4   8  15  28  49  71  93 121 158 194 223 263
#     4  10  20  32  50  68  89 120 154 194 241 278
#     4   8  16  30  46  66  88 116 157 198 227 266
#     4   9  17  29  48  75 102 126 151 184 228 277
#
# _framework density 16.746596
#
# number of rings (size 3 to 8) (size 9 to 14) (size 15 to 20)
#    0.000    3.130    0.870    2.348    2.435    0.000 
#    0.000    0.870    0.000    5.739    0.000    3.652 
#    0.000    0.000    0.000    0.000    0.000    0.000 
#
# Total GULP energy -569851.386447 kJ/mol
# GULP energy per Si atom -12388.073618 kJ/mol
# Density = 1.670848 g / cm^3
# Si number density = 16.746596 Si / 1000 Ang^3
#
#
#
# Elastic Constant Matrix: (Units=GPa)
#
#
# Indices 1 2 3 4 5 6 
#
# 1 144.7576 35.2902 73.4886 0.0000 0.0000 0.0000
# 2 35.2902 34.3565 25.3694 0.0000 0.0000 0.0000
# 3 73.4886 25.3694 105.5344 0.0000 0.0000 0.0000
# 4 0.0000 0.0000 0.0000 19.5522 0.0000 0.0000
# 5 0.0000 0.0000 0.0000 0.0000 31.6619 0.0000
# 6 0.0000 0.0000 0.0000 0.0000 0.0000 17.8637
#
#
#
# Elastic Compliance Matrix: (Units=1/GPa)
#
#
# Indices 1 2 3 4 5 6 
#
# 1 0.012108 -0.007552 -0.006616 0.000000 0.000000 0.000000
# 2 -0.007552 0.040098 -0.004381 0.000000 0.000000 0.000000
# 3 -0.006616 -0.004381 0.015136 0.000000 0.000000 0.000000
# 4 0.000000 0.000000 0.000000 0.051145 0.000000 0.000000
# 5 0.000000 0.000000 0.000000 0.000000 0.031584 0.000000
# 6 0.000000 0.000000 0.000000 0.000000 0.000000 0.055979
#
#
# Mechanical properties :
#
#
# Convention : Reuss Voigt Hill
#
# Bulk Modulus (GPa) = 33.06299 61.43832 47.25066
# Shear Modulus (GPa) = 19.74507 23.84891 21.79699
#
# Velocity S-wave (km/s) = 3.43745 3.77783 3.61165
# Velocity P-wave (km/s) = 5.96161 7.46967 6.75784
#
# Compressibility (1/GPa) = 0.03024529
#
# Stress axis : x y z
#
# Youngs Moduli (GPa) = 82.59180 24.93879 66.06931
#
# Poissons Ratio (x) = 0.18833 0.43711
# Poissons Ratio (y) = 0.62369 0.28943
# Poissons Ratio (z) = 0.54642 0.10925
#
# Static dielectric constant tensor:
#      x y z
#    x 3.493240 0.000000 0.000000 
#    y 0.000000 2.688240 0.000000 
#    z 0.000000 0.000000 3.142120 
# 
# 
# High freq. dielectric constant tensor:
#      x y z
#    x 1.662490 0.000000 0.000000 
#    y 0.000000 1.596180 0.000000 
#    z 0.000000 0.000000 1.628060 
# 
# From -- ./inp_files/35454.got.cif
#   From: 2010.03.12/outbox.cif.g09.slc.cpg/sg67_18_cif.got.tgz:35454.got - 2010.04.10 22:41:39.
