data_PCOD8279926
_publ_section_title
;
Structure prediction by ZEFSAII (Michael W. Deem and Ramdas Pophale) SiO2 
 PCOD8279926
Probable space group: C M M A
;
_chemical_formula_sum "Si O2"
_cell_formula_units_Z 80
_cell_length_a 8.691192
_cell_length_b 19.484108
_cell_length_c 25.566206
_cell_angle_alpha 90.000000
_cell_angle_beta 90.000000
_cell_angle_gamma 90.000000
_cell_volume 4329.384483
_symmetry_space_group_name_H-M "C M M A"
_symmetry_group_IT_number 67
_symmetry_cell_setting 'orthorhombic'
loop_
_space_group_symop_operation_xyz
x,y,z
-x,1/2-y,z
x,-y,-z
-x,1/2+y,-z
-x,-y,-z
x,1/2+y,-z
-x,y,z
x,1/2-y,z
1/2+x,1/2+y,z
1/2-x,-y,z
1/2+x,1/2-y,-z
1/2-x,y,-z
1/2-x,1/2-y,-z
1/2+x,y,-z
1/2-x,1/2+y,z
1/2+x,-y,z
loop_
_atom_site_type_symbol
_atom_site_label
_atom_site_fract_x
_atom_site_fract_y
_atom_site_fract_z
Si Si1 0.318345 0.672364 0.553890
Si Si2 0.817136 0.573315 0.354664
Si Si3 0.322181 0.669491 0.840279
Si Si4 0.172660 0.331518 0.052358
Si Si5 0.818814 0.073013 0.244000
O O1 0.500000 0.669124 0.549781
O O2 0.259883 0.750000 0.563065
O O3 0.250000 0.642573 0.500000
O O4 0.258879 0.627237 0.602220
O O5 0.750000 0.500000 0.370758
O O6 0.753084 0.597412 0.298800
O O7 0.000000 0.569275 0.351587
O O8 0.500000 0.650985 0.831938
O O9 0.291090 0.750000 0.832917
O O10 0.272439 0.644959 0.897956
O O11 0.218928 0.630232 0.798552
O O12 0.168681 0.250000 0.048674
O O13 0.000000 0.360826 0.057613
O O14 0.250000 0.362181 0.000000
O O15 0.000000 0.065022 0.250497
O O16 0.750000 0.000000 0.226347
#
# Coordination Sequence:
#
# PCOD8279926 Si02
#       5
#    16  16  16  16  16
#     4   9  19  35  54  76 103 135 169 206 251 302
#     4  10  20  35  54  76 102 133 171 212 255 304
#     4  10  20  34  53  78 107 138 174 217 263 310
#     4   9  16  27  45  71 103 137 173 214 260 308
#     4  11  22  37  56  77 104 138 176 216 262 314
#
# _framework density 18.478376000000001
#
# number of rings (size 3 to 8) (size 9 to 14) (size 15 to 20)
#    0.000    2.200    0.000    4.800    0.000    6.400 
#    0.000    4.000    0.000    0.600    0.000    4.200 
#    0.000    0.000    0.000    0.000    0.000    0.000 
#
# Total GULP energy -496082.417929 kJ/mol
# GULP energy per Si atom -12402.060448 kJ/mol
# Density = 1.843632 g / cm^3
# Si number density = 18.478376 Si / 1000 Ang^3
#
#
#
# Elastic Constant Matrix: (Units=GPa)
#
#
# Indices 1 2 3 4 5 6 
#
# 1 90.5112 28.6378 41.6397 0.0000 0.0000 0.0000
# 2 28.6378 59.6164 67.1585 0.0000 0.0000 0.0000
# 3 41.6397 67.1585 148.3512 0.0000 0.0000 0.0000
# 4 0.0000 0.0000 0.0000 6.0191 0.0000 0.0000
# 5 0.0000 0.0000 0.0000 0.0000 36.8168 0.0000
# 6 0.0000 0.0000 0.0000 0.0000 0.0000 25.5272
#
#
#
# Elastic Compliance Matrix: (Units=1/GPa)
#
#
# Indices 1 2 3 4 5 6 
#
# 1 0.013237 -0.004435 -0.001708 0.000000 0.000000 0.000000
# 2 -0.004435 0.035716 -0.014924 0.000000 0.000000 0.000000
# 3 -0.001708 -0.014924 0.013976 0.000000 0.000000 0.000000
# 4 0.000000 0.000000 0.000000 0.166139 0.000000 0.000000
# 5 0.000000 0.000000 0.000000 0.000000 0.027161 0.000000
# 6 0.000000 0.000000 0.000000 0.000000 0.000000 0.039174
#
#
# Mechanical properties :
#
#
# Convention : Reuss Voigt Hill
#
# Bulk Modulus (GPa) = 48.08520 63.70563 55.89542
# Shear Modulus (GPa) = 14.51507 24.40879 19.46193
#
# Velocity S-wave (km/s) = 2.80575 3.63841 3.24887
# Velocity P-wave (km/s) = 6.04774 7.22505 6.66245
#
# Compressibility (1/GPa) = 0.02079642
#
# Stress axis : x y z
#
# Youngs Moduli (GPa) = 75.54446 27.99844 71.55038
#
# Poissons Ratio (x) = 0.12417 0.12219
# Poissons Ratio (y) = 0.33503 1.06781
# Poissons Ratio (z) = 0.12901 0.41785
#
# Static dielectric constant tensor:
#      x y z
#    x 3.487600 0.000000 0.000000 
#    y 0.000000 3.211620 0.000000 
#    z 0.000000 0.000000 3.570260 
# 
# 
# High freq. dielectric constant tensor:
#      x y z
#    x 1.730090 0.000000 0.000000 
#    y 0.000000 1.686820 0.000000 
#    z 0.000000 0.000000 1.729040 
# 
# From -- ./inp_files/43248.got.cif
#   From: 2010.03.12/outbox.cif.g09.slc.cpg/sg67_22_cif.got.tgz:43248.got - 2010.04.10 22:41:39.
