data_PCOD8279738
_publ_section_title
;
Structure prediction by ZEFSAII (Michael W. Deem and Ramdas Pophale) SiO2 
 PCOD8279738
Probable space group: C M M A
;
_chemical_formula_sum "Si O2"
_cell_formula_units_Z 112
_cell_length_a 15.406092
_cell_length_b 27.005072
_cell_length_c 14.372644
_cell_angle_alpha 90.000000
_cell_angle_beta 90.000000
_cell_angle_gamma 90.000000
_cell_volume 5979.632519
_symmetry_space_group_name_H-M "C M M A"
_symmetry_group_IT_number 67
_symmetry_cell_setting 'orthorhombic'
loop_
_space_group_symop_operation_xyz
x,y,z
-x,1/2-y,z
x,-y,-z
-x,1/2+y,-z
-x,-y,-z
x,1/2+y,-z
-x,y,z
x,1/2-y,z
1/2+x,1/2+y,z
1/2-x,-y,z
1/2+x,1/2-y,-z
1/2-x,y,-z
1/2-x,1/2-y,-z
1/2+x,y,-z
1/2-x,1/2+y,z
1/2+x,-y,z
loop_
_atom_site_type_symbol
_atom_site_label
_atom_site_fract_x
_atom_site_fract_y
_atom_site_fract_z
Si Si1 0.597636 0.482974 0.597915
Si Si2 0.599397 0.693514 0.940687
Si Si3 0.903201 0.694358 0.657251
Si Si4 0.787792 0.892090 0.601324
Si Si5 0.903447 0.843482 0.856792
Si Si6 0.186868 0.546553 0.268544
Si Si7 0.229963 0.108006 0.895507
O O1 0.641805 0.500000 0.500000
O O2 0.500000 0.469586 0.577297
O O3 0.639410 0.431678 0.628676
O O4 0.601504 0.525104 0.679726
O O5 0.500000 0.680266 0.911558
O O6 0.621388 0.750000 0.911448
O O7 0.667759 0.656406 0.892095
O O8 0.610523 0.689468 0.051575
O O9 0.884417 0.750000 0.625215
O O10 0.829000 0.661966 0.609301
O O11 0.897720 0.692250 0.768809
O O12 0.000000 0.678055 0.624661
O O13 0.750000 0.899339 0.500000
O O14 0.712867 0.902951 0.676866
O O15 0.824601 0.882925 0.848583
O O16 0.000000 0.869292 0.860382
O O17 0.250000 0.500000 0.282088
O O18 0.180754 0.563510 0.160379
O O19 0.250000 0.089890 0.000000
#
# Coordination Sequence:
#
# PCOD8279738 Si02
#       7
#    16  16  16  16  16  16  16
#     4  10  20  35  58  84 107 136 180 233 286 333
#     4   9  18  32  52  76 106 144 186 233 275 317
#     4  10  20  33  52  78 109 143 180 221 271 332
#     4  11  20  35  56  79 107 137 174 225 277 325
#     4   9  17  31  51  78 108 137 181 234 278 315
#     4  10  21  36  54  79 107 138 174 227 277 321
#     4  10  20  34  53  80 109 150 186 219 272 342
#
# _framework density 18.730246999999999
#
# number of rings (size 3 to 8) (size 9 to 14) (size 15 to 20)
#    0.000    2.143    2.857    0.857    0.000    6.000 
#    0.000    0.000    0.000    0.000    0.000    8.000 
#    0.000    0.000    0.000    0.000    0.000    0.000 
#
# Total GULP energy -693808.267090 kJ/mol
# GULP energy per Si atom -12389.433341 kJ/mol
# Density = 1.868762 g / cm^3
# Si number density = 18.730247 Si / 1000 Ang^3
#
#
#
# Elastic Constant Matrix: (Units=GPa)
#
#
# Indices 1 2 3 4 5 6 
#
# 1 75.7380 29.6230 21.4824 0.0000 0.0000 0.0000
# 2 29.6230 77.5934 31.2089 0.0000 0.0000 0.0000
# 3 21.4824 31.2089 71.8611 0.0000 0.0000 0.0000
# 4 0.0000 0.0000 0.0000 24.5978 0.0000 0.0000
# 5 0.0000 0.0000 0.0000 0.0000 19.1690 0.0000
# 6 0.0000 0.0000 0.0000 0.0000 0.0000 18.4758
#
#
#
# Elastic Compliance Matrix: (Units=1/GPa)
#
#
# Indices 1 2 3 4 5 6 
#
# 1 0.015902 -0.005039 -0.002565 0.000000 0.000000 0.000000
# 2 -0.005039 0.017212 -0.005969 0.000000 0.000000 0.000000
# 3 -0.002565 -0.005969 0.017275 0.000000 0.000000 0.000000
# 4 0.000000 0.000000 0.000000 0.040654 0.000000 0.000000
# 5 0.000000 0.000000 0.000000 0.000000 0.052168 0.000000
# 6 0.000000 0.000000 0.000000 0.000000 0.000000 0.054125
#
#
# Mechanical properties :
#
#
# Convention : Reuss Voigt Hill
#
# Bulk Modulus (GPa) = 43.02451 43.31347 43.16899
# Shear Modulus (GPa) = 21.53045 21.97374 21.75210
#
# Velocity S-wave (km/s) = 3.39411 3.42887 3.41153
# Velocity P-wave (km/s) = 6.19519 6.23308 6.21417
#
# Compressibility (1/GPa) = 0.02324257
#
# Stress axis : x y z
#
# Youngs Moduli (GPa) = 62.88535 58.09836 57.88771
#
# Poissons Ratio (x) = 0.29276 0.14850
# Poissons Ratio (y) = 0.31689 0.34552
# Poissons Ratio (z) = 0.16132 0.34678
#
# Static dielectric constant tensor:
#      x y z
#    x 3.539910 0.000000 0.000000 
#    y 0.000000 3.224120 0.000000 
#    z 0.000000 0.000000 3.422620 
# 
# 
# High freq. dielectric constant tensor:
#      x y z
#    x 1.723650 0.000000 0.000000 
#    y 0.000000 1.707100 0.000000 
#    z 0.000000 0.000000 1.715690 
# 
# From -- ./inp_files/27718.got.cif
#   From: 2010.03.12/outbox.cif.g09.slc.cpg/sg67_14_cif.got.tgz:27718.got - 2010.04.10 22:41:39.
