data_PCOD8279651
_publ_section_title
;
Structure prediction by ZEFSAII (Michael W. Deem and Ramdas Pophale) SiO2 
 PCOD8279651
Probable space group: C M M A
;
_chemical_formula_sum "Si O2"
_cell_formula_units_Z 104
_cell_length_a 30.169649
_cell_length_b 8.692332
_cell_length_c 22.830400
_cell_angle_alpha 90.000000
_cell_angle_beta 90.000000
_cell_angle_gamma 90.000000
_cell_volume 5987.149240
_symmetry_space_group_name_H-M "C M M A"
_symmetry_group_IT_number 67
_symmetry_cell_setting 'orthorhombic'
loop_
_space_group_symop_operation_xyz
x,y,z
-x,1/2-y,z
x,-y,-z
-x,1/2+y,-z
-x,-y,-z
x,1/2+y,-z
-x,y,z
x,1/2-y,z
1/2+x,1/2+y,z
1/2-x,-y,z
1/2+x,1/2-y,-z
1/2-x,y,-z
1/2-x,1/2-y,-z
1/2+x,y,-z
1/2-x,1/2+y,z
1/2+x,-y,z
loop_
_atom_site_type_symbol
_atom_site_label
_atom_site_fract_x
_atom_site_fract_y
_atom_site_fract_z
Si Si1 0.551393 0.569854 0.679753
Si Si2 0.082658 0.424526 0.889321
Si Si3 0.174947 0.925235 0.060163
Si Si4 0.000000 0.576178 0.938496
Si Si5 0.203150 0.065249 0.812089
Si Si6 0.447897 0.421369 0.557846
Si Si7 0.383628 0.431855 0.772944
O O1 0.500000 0.526054 0.694560
O O2 0.559305 0.750000 0.690206
O O3 0.562933 0.528904 0.613011
O O4 0.585751 0.470510 0.717612
O O5 0.065318 0.250000 0.890274
O O6 0.121874 0.446668 0.936382
O O7 0.098563 0.464848 0.825264
O O8 0.043101 0.538209 0.901959
O O9 0.189094 0.750000 0.055914
O O10 0.195759 0.992796 0.120364
O O11 0.192925 0.000000 0.000000
O O12 0.000000 0.750000 0.954292
O O13 0.000000 0.500000 0.000000
O O14 0.200166 0.250000 0.807922
O O15 0.250000 0.000000 0.790633
O O16 0.167476 0.987756 0.767664
O O17 0.426812 0.500000 0.500000
O O18 0.500000 0.406247 0.549097
O O19 0.427650 0.250000 0.566472
O O20 0.385731 0.250000 0.785553
#
# Coordination Sequence:
#
# PCOD8279651 Si02
#       7
#    16  16  16   8  16  16  16
#     4  10  20  33  50  73 104 143 181 217 257 298
#     4  10  21  37  52  68  93 126 162 205 252 298
#     4   9  19  33  51  72  95 121 151 191 241 300
#     4  12  24  36  50  70  92 122 163 206 249 300
#     4  10  21  38  56  76 100 128 163 203 255 310
#     4   9  16  27  44  68 100 138 179 219 256 296
#     4  11  22  36  54  76 102 132 168 210 256 307
#
# _framework density 17.370538
#
# number of rings (size 3 to 8) (size 9 to 14) (size 15 to 20)
#    0.000    2.000    0.000    5.308    1.077    8.000 
#    0.000    1.538    0.000    0.000    0.000    0.000 
#    0.000    0.615    0.000    6.154    0.000    4.000 
#
# Total GULP energy -644608.265880 kJ/mol
# GULP energy per Si atom -12396.312805 kJ/mol
# Density = 1.733100 g / cm^3
# Si number density = 17.370538 Si / 1000 Ang^3
#
#
#
# Elastic Constant Matrix: (Units=GPa)
#
#
# Indices 1 2 3 4 5 6 
#
# 1 85.8267 27.7268 27.6485 0.0000 0.0000 0.0000
# 2 27.7268 86.2462 16.8763 0.0000 0.0000 0.0000
# 3 27.6485 16.8763 70.5869 0.0000 0.0000 0.0000
# 4 0.0000 0.0000 0.0000 29.8933 0.0000 0.0000
# 5 0.0000 0.0000 0.0000 0.0000 4.7890 0.0000
# 6 0.0000 0.0000 0.0000 0.0000 0.0000 24.3118
#
#
#
# Elastic Compliance Matrix: (Units=1/GPa)
#
#
# Indices 1 2 3 4 5 6 
#
# 1 0.014373 -0.003692 -0.004747 0.000000 0.000000 0.000000
# 2 -0.003692 0.013112 -0.001689 0.000000 0.000000 0.000000
# 3 -0.004747 -0.001689 0.016430 0.000000 0.000000 0.000000
# 4 0.000000 0.000000 0.000000 0.033452 0.000000 0.000000
# 5 0.000000 0.000000 0.000000 0.000000 0.208810 0.000000
# 6 0.000000 0.000000 0.000000 0.000000 0.000000 0.041132
#
#
# Mechanical properties :
#
#
# Convention : Reuss Voigt Hill
#
# Bulk Modulus (GPa) = 42.26606 43.01811 42.64209
# Shear Modulus (GPa) = 14.06655 23.15937 18.61296
#
# Velocity S-wave (km/s) = 2.84877 3.65534 3.27697
# Velocity P-wave (km/s) = 5.93343 6.52948 6.23858
#
# Compressibility (1/GPa) = 0.02365964
#
# Stress axis : x y z
#
# Youngs Moduli (GPa) = 69.57298 76.26567 60.86354
#
# Poissons Ratio (x) = 0.28156 0.28894
# Poissons Ratio (y) = 0.25686 0.10279
# Poissons Ratio (z) = 0.33028 0.12880
#
# Static dielectric constant tensor:
#      x y z
#    x 3.256230 0.000000 0.000000 
#    y 0.000000 3.287650 0.000000 
#    z 0.000000 0.000000 3.290200 
# 
# 
# High freq. dielectric constant tensor:
#      x y z
#    x 1.647170 0.000000 0.000000 
#    y 0.000000 1.686680 0.000000 
#    z 0.000000 0.000000 1.650910 
# 
# From -- ./inp_files/37487.got.cif
#   From: 2010.03.12/outbox.cif.g09.slc.cpg/sg67_19_cif.got.tgz:37487.got - 2010.04.10 22:41:39.
