data_PCOD8279471
_publ_section_title
;
Structure prediction by ZEFSAII (Michael W. Deem and Ramdas Pophale) SiO2 
 PCOD8279471
Probable space group: C M M A
;
_chemical_formula_sum "Si O2"
_cell_formula_units_Z 88
_cell_length_a 9.079644
_cell_length_b 24.910637
_cell_length_c 21.786159
_cell_angle_alpha 90.000000
_cell_angle_beta 90.000000
_cell_angle_gamma 90.000000
_cell_volume 4927.587250
_symmetry_space_group_name_H-M "C M M A"
_symmetry_group_IT_number 67
_symmetry_cell_setting 'orthorhombic'
loop_
_space_group_symop_operation_xyz
x,y,z
-x,1/2-y,z
x,-y,-z
-x,1/2+y,-z
-x,-y,-z
x,1/2+y,-z
-x,y,z
x,1/2-y,z
1/2+x,1/2+y,z
1/2-x,-y,z
1/2+x,1/2-y,-z
1/2-x,y,-z
1/2-x,1/2-y,-z
1/2+x,y,-z
1/2-x,1/2+y,z
1/2+x,-y,z
loop_
_atom_site_type_symbol
_atom_site_label
_atom_site_fract_x
_atom_site_fract_y
_atom_site_fract_z
Si Si1 0.171683 0.552775 0.656941
Si Si2 0.175300 0.643104 0.561458
Si Si3 0.170627 0.750000 0.935821
Si Si4 0.171578 0.250000 0.749328
Si Si5 0.673529 0.750000 0.605701
Si Si6 0.672736 0.168458 0.833176
Si Si7 0.328214 0.447113 0.796927
O O1 0.250000 0.500000 0.630353
O O2 0.217917 0.603652 0.616855
O O3 0.222139 0.563476 0.726923
O O4 0.000000 0.541850 0.652929
O O5 0.250000 0.619527 0.500000
O O6 0.249553 0.699565 0.575004
O O7 0.000000 0.649037 0.553606
O O8 0.215295 0.696873 0.897318
O O9 0.000000 0.750000 0.950573
O O10 0.250000 0.750000 0.000000
O O11 0.204924 0.250000 0.677726
O O12 0.242416 0.303541 0.777488
O O13 0.000000 0.250000 0.764564
O O14 0.500000 0.750000 0.590892
O O15 0.500000 0.175492 0.819206
O O16 0.716363 0.105606 0.836227
O O17 0.500000 0.458206 0.801184
O O18 0.250000 0.500000 0.824409
#
# Coordination Sequence:
#
# PCOD8279471 Si02
#       7
#    16  16   8   8   8  16  16
#     4   9  19  34  53  75  98 126 159 198 247 298
#     4  11  23  38  54  71  93 126 166 206 250 302
#     4   9  18  32  51  75 102 137 175 212 248 284
#     4  10  20  31  49  78 104 125 158 207 254 293
#     4  11  23  37  52  73 100 128 159 201 253 305
#     4   9  18  33  52  74 104 139 171 201 244 299
#     4   9  17  31  51  75 101 129 162 200 244 297
#
# _framework density 17.858639
#
# number of rings (size 3 to 8) (size 9 to 14) (size 15 to 20)
#    0.000    2.364    0.000    3.000    0.000    6.909 
#    0.000    5.455    0.000    0.545    0.000    3.818 
#    0.000    0.000    0.000    0.000    0.000    0.000 
#
# Total GULP energy -545622.710111 kJ/mol
# GULP energy per Si atom -12400.516139 kJ/mol
# Density = 1.781799 g / cm^3
# Si number density = 17.858639 Si / 1000 Ang^3
#
#
#
# Elastic Constant Matrix: (Units=GPa)
#
#
# Indices 1 2 3 4 5 6 
#
# 1 54.7088 43.2207 36.3112 0.0000 0.0000 0.0000
# 2 43.2207 151.7097 51.1298 0.0000 0.0000 0.0000
# 3 36.3112 51.1298 84.5070 0.0000 0.0000 0.0000
# 4 0.0000 0.0000 0.0000 2.8817 0.0000 0.0000
# 5 0.0000 0.0000 0.0000 0.0000 28.0153 0.0000
# 6 0.0000 0.0000 0.0000 0.0000 0.0000 33.2871
#
#
#
# Elastic Compliance Matrix: (Units=1/GPa)
#
#
# Indices 1 2 3 4 5 6 
#
# 1 0.028275 -0.004975 -0.009139 0.000000 0.000000 0.000000
# 2 -0.004975 0.009155 -0.003402 0.000000 0.000000 0.000000
# 3 -0.009139 -0.003402 0.017818 0.000000 0.000000 0.000000
# 4 0.000000 0.000000 0.000000 0.347021 0.000000 0.000000
# 5 0.000000 0.000000 0.000000 0.000000 0.035695 0.000000
# 6 0.000000 0.000000 0.000000 0.000000 0.000000 0.030042
#
#
# Mechanical properties :
#
#
# Convention : Reuss Voigt Hill
#
# Bulk Modulus (GPa) = 49.46356 61.36098 55.41227
# Shear Modulus (GPa) = 9.80822 23.52105 16.66464
#
# Velocity S-wave (km/s) = 2.34608 3.63308 3.05805
# Velocity P-wave (km/s) = 5.92420 7.21338 6.60034
#
# Compressibility (1/GPa) = 0.02021690
#
# Stress axis : x y z
#
# Youngs Moduli (GPa) = 35.36717 109.22598 56.12206
#
# Poissons Ratio (x) = 0.54342 0.51290
# Poissons Ratio (y) = 0.17596 0.19090
# Poissons Ratio (z) = 0.32322 0.37154
#
# Static dielectric constant tensor:
#      x y z
#    x 3.304610 0.000000 0.000000 
#    y 0.000000 3.514550 0.000000 
#    z 0.000000 0.000000 3.209270 
# 
# 
# High freq. dielectric constant tensor:
#      x y z
#    x 1.692570 0.000000 0.000000 
#    y 0.000000 1.699280 0.000000 
#    z 0.000000 0.000000 1.670030 
# 
# From -- ./inp_files/36973.got.cif
#   From: 2010.03.12/outbox.cif.g09.slc.cpg/sg67_19_cif.got.tgz:36973.got - 2010.04.10 22:41:39.
