data_PCOD8279530
_publ_section_title
;
Structure prediction by ZEFSAII (Michael W. Deem and Ramdas Pophale) SiO2 
 PCOD8279530
Probable space group: C M M A
;
_chemical_formula_sum "Si O2"
_cell_formula_units_Z 80
_cell_length_a 8.735399
_cell_length_b 27.933340
_cell_length_c 20.596713
_cell_angle_alpha 90.000000
_cell_angle_beta 90.000000
_cell_angle_gamma 90.000000
_cell_volume 5025.780671
_symmetry_space_group_name_H-M "C M M A"
_symmetry_group_IT_number 67
_symmetry_cell_setting 'orthorhombic'
loop_
_space_group_symop_operation_xyz
x,y,z
-x,1/2-y,z
x,-y,-z
-x,1/2+y,-z
-x,-y,-z
x,1/2+y,-z
-x,y,z
x,1/2-y,z
1/2+x,1/2+y,z
1/2-x,-y,z
1/2+x,1/2-y,-z
1/2-x,y,-z
1/2-x,1/2-y,-z
1/2+x,y,-z
1/2-x,1/2+y,z
1/2+x,-y,z
loop_
_atom_site_type_symbol
_atom_site_label
_atom_site_fract_x
_atom_site_fract_y
_atom_site_fract_z
Si Si1 0.820821 0.611716 0.809452
Si Si2 0.180503 0.949433 0.568721
Si Si3 0.826108 0.392701 0.680312
Si Si4 0.681304 0.448591 0.932567
Si Si5 0.674945 0.303406 0.245446
O O1 0.736044 0.585316 0.748725
O O2 0.768117 0.588085 0.876593
O O3 0.772389 0.668142 0.809657
O O4 0.000000 0.606269 0.798707
O O5 0.250000 0.933558 0.500000
O O6 0.221191 0.909039 0.620979
O O7 0.000000 0.954509 0.561702
O O8 0.250000 0.000000 0.591624
O O9 0.815225 0.334444 0.687374
O O10 0.000000 0.409880 0.668795
O O11 0.500000 0.453022 0.938922
O O12 0.750000 0.500000 0.915043
O O13 0.750000 0.429093 0.000000
O O14 0.500000 0.300982 0.221575
O O15 0.741340 0.250000 0.256441
#
# Coordination Sequence:
#
# PCOD8279530 Si02
#       5
#    16  16  16  16  16
#     4   9  18  31  47  73  98 125 160 200 240 285
#     4  11  21  34  51  71  99 132 166 198 237 285
#     4   9  18  32  50  73  99 127 160 199 239 283
#     4  10  20  32  48  68  96 129 164 196 236 284
#     4   8  16  31  51  73  96 124 157 195 242 290
#
# _framework density 15.917926
#
# number of rings (size 3 to 8) (size 9 to 14) (size 15 to 20)
#    1.200    1.400    0.000    4.200    0.000    4.400 
#    0.000    2.000    0.000    1.200    0.000    0.000 
#    0.000    0.000    0.000    0.000    0.000    0.000 
#
# Total GULP energy -495599.321054 kJ/mol
# GULP energy per Si atom -12389.983026 kJ/mol
# Density = 1.588170 g / cm^3
# Si number density = 15.917926 Si / 1000 Ang^3
#
#
#
# Elastic Constant Matrix: (Units=GPa)
#
#
# Indices 1 2 3 4 5 6 
#
# 1 95.7074 36.2186 45.9093 0.0000 0.0000 0.0000
# 2 36.2186 90.6173 64.7240 0.0000 0.0000 0.0000
# 3 45.9093 64.7240 108.1858 0.0000 0.0000 0.0000
# 4 0.0000 0.0000 0.0000 9.2222 0.0000 0.0000
# 5 0.0000 0.0000 0.0000 0.0000 27.5539 0.0000
# 6 0.0000 0.0000 0.0000 0.0000 0.0000 21.5488
#
#
#
# Elastic Compliance Matrix: (Units=1/GPa)
#
#
# Indices 1 2 3 4 5 6 
#
# 1 0.013378 -0.002256 -0.004327 0.000000 0.000000 0.000000
# 2 -0.002256 0.019650 -0.010799 0.000000 0.000000 0.000000
# 3 -0.004327 -0.010799 0.017540 0.000000 0.000000 0.000000
# 4 0.000000 0.000000 0.000000 0.108434 0.000000 0.000000
# 5 0.000000 0.000000 0.000000 0.000000 0.036292 0.000000
# 6 0.000000 0.000000 0.000000 0.000000 0.000000 0.046406
#
#
# Mechanical properties :
#
#
# Convention : Reuss Voigt Hill
#
# Bulk Modulus (GPa) = 63.27455 65.35716 64.31585
# Shear Modulus (GPa) = 17.74732 21.50891 19.62811
#
# Velocity S-wave (km/s) = 3.34267 3.67991 3.51534
# Velocity P-wave (km/s) = 7.39829 7.69439 7.54779
#
# Compressibility (1/GPa) = 0.01580414
#
# Stress axis : x y z
#
# Youngs Moduli (GPa) = 74.74935 50.89005 57.01240
#
# Poissons Ratio (x) = 0.11483 0.24670
# Poissons Ratio (y) = 0.16866 0.61565
# Poissons Ratio (z) = 0.32345 0.54954
#
# Static dielectric constant tensor:
#      x y z
#    x 3.089070 0.000000 0.000000 
#    y 0.000000 2.939270 0.000000 
#    z 0.000000 0.000000 2.920010 
# 
# 
# High freq. dielectric constant tensor:
#      x y z
#    x 1.627820 0.000000 0.000000 
#    y 0.000000 1.589530 0.000000 
#    z 0.000000 0.000000 1.596060 
# 
# From -- ./inp_files/37393.got.cif
#   From: 2010.03.12/outbox.cif.g09.slc.cpg/sg67_19_cif.got.tgz:37393.got - 2010.04.10 22:41:39.
