data_PCOD8279797
_publ_section_title
;
Structure prediction by ZEFSAII (Michael W. Deem and Ramdas Pophale) SiO2 
 PCOD8279797
Probable space group: C M M A
;
_chemical_formula_sum "Si O2"
_cell_formula_units_Z 104
_cell_length_a 9.034505
_cell_length_b 29.957902
_cell_length_c 23.346027
_cell_angle_alpha 90.000000
_cell_angle_beta 90.000000
_cell_angle_gamma 90.000000
_cell_volume 6318.714628
_symmetry_space_group_name_H-M "C M M A"
_symmetry_group_IT_number 67
_symmetry_cell_setting 'orthorhombic'
loop_
_space_group_symop_operation_xyz
x,y,z
-x,1/2-y,z
x,-y,-z
-x,1/2+y,-z
-x,-y,-z
x,1/2+y,-z
-x,y,z
x,1/2-y,z
1/2+x,1/2+y,z
1/2-x,-y,z
1/2+x,1/2-y,-z
1/2-x,y,-z
1/2-x,1/2-y,-z
1/2+x,y,-z
1/2-x,1/2+y,z
1/2+x,-y,z
loop_
_atom_site_type_symbol
_atom_site_label
_atom_site_fract_x
_atom_site_fract_y
_atom_site_fract_z
Si Si1 0.667666 0.169033 0.389936
Si Si2 0.824584 0.700194 0.821660
Si Si3 0.170947 0.075323 0.558883
Si Si4 0.671997 0.250000 0.559727
Si Si5 0.337462 0.197247 0.946607
Si Si6 0.170785 0.362585 0.281050
Si Si7 0.170957 0.043259 0.326750
O O1 0.500000 0.187480 0.389040
O O2 0.681428 0.128739 0.434908
O O3 0.783759 0.206581 0.405715
O O4 0.712901 0.154300 0.327042
O O5 0.767648 0.750000 0.802541
O O6 0.760743 0.687352 0.884688
O O7 0.778405 0.661050 0.777819
O O8 0.000000 0.702813 0.827454
O O9 0.250000 0.060715 0.500000
O O10 0.253129 0.052926 0.612230
O O11 0.000000 0.059764 0.557774
O O12 0.500000 0.250000 0.548631
O O13 0.750000 0.250000 0.500000
O O14 0.500000 0.175552 0.948371
O O15 0.348651 0.250000 0.954679
O O16 0.250000 0.175662 0.000000
O O17 0.187315 0.416403 0.280759
O O18 0.000000 0.349768 0.295953
O O19 0.000000 0.033058 0.338871
O O20 0.250000 0.000000 0.299222
#
# Coordination Sequence:
#
# PCOD8279797 Si02
#       7
#    16  16  16   8  16  16  16
#     4  10  21  35  49  67  92 119 148 187 232 275
#     4   8  14  25  43  67  94 124 159 191 223 264
#     4  10  20  34  52  71  92 115 140 177 226 279
#     4  12  24  36  50  66  86 116 155 194 229 270
#     4   8  13  22  37  58  87 123 158 190 219 256
#     4   9  18  32  50  71  92 119 155 191 227 273
#     4  10  20  34  51  70  92 116 147 184 227 279
#
# _framework density 16.459043999999999
#
# number of rings (size 3 to 8) (size 9 to 14) (size 15 to 20)
#    0.000    2.615    0.000    3.462    1.077    4.000 
#    0.000    2.308    0.000    0.923    0.000    0.000 
#    0.000    0.615    0.000    7.692    0.000    0.308 
#
# Total GULP energy -644450.792945 kJ/mol
# GULP energy per Si atom -12393.284480 kJ/mol
# Density = 1.642158 g / cm^3
# Si number density = 16.459044 Si / 1000 Ang^3
#
#
#
# Elastic Constant Matrix: (Units=GPa)
#
#
# Indices 1 2 3 4 5 6 
#
# 1 92.1169 36.4286 32.0570 0.0000 0.0000 0.0000
# 2 36.4286 81.9815 41.5424 0.0000 0.0000 0.0000
# 3 32.0570 41.5424 99.4254 0.0000 0.0000 0.0000
# 4 0.0000 0.0000 0.0000 12.9961 0.0000 0.0000
# 5 0.0000 0.0000 0.0000 0.0000 21.2076 0.0000
# 6 0.0000 0.0000 0.0000 0.0000 0.0000 22.4668
#
#
#
# Elastic Compliance Matrix: (Units=1/GPa)
#
#
# Indices 1 2 3 4 5 6 
#
# 1 0.013592 -0.004845 -0.002358 0.000000 0.000000 0.000000
# 2 -0.004845 0.017201 -0.005625 0.000000 0.000000 0.000000
# 3 -0.002358 -0.005625 0.013168 0.000000 0.000000 0.000000
# 4 0.000000 0.000000 0.000000 0.076946 0.000000 0.000000
# 5 0.000000 0.000000 0.000000 0.000000 0.047153 0.000000
# 6 0.000000 0.000000 0.000000 0.000000 0.000000 0.044510
#
#
# Mechanical properties :
#
#
# Convention : Reuss Voigt Hill
#
# Bulk Modulus (GPa) = 54.62739 54.84220 54.73479
# Shear Modulus (GPa) = 20.46420 22.23380 21.34900
#
# Velocity S-wave (km/s) = 3.52993 3.67939 3.60543
# Velocity P-wave (km/s) = 7.06228 7.17240 7.11755
#
# Compressibility (1/GPa) = 0.01830583
#
# Stress axis : x y z
#
# Youngs Moduli (GPa) = 73.57070 58.13621 75.93961
#
# Poissons Ratio (x) = 0.28166 0.17908
# Poissons Ratio (y) = 0.35644 0.42715
# Poissons Ratio (z) = 0.17349 0.32701
#
# Static dielectric constant tensor:
#      x y z
#    x 3.119220 0.000000 0.000000 
#    y 0.000000 3.098420 0.000000 
#    z 0.000000 0.000000 3.176970 
# 
# 
# High freq. dielectric constant tensor:
#      x y z
#    x 1.631680 0.000000 0.000000 
#    y 0.000000 1.611390 0.000000 
#    z 0.000000 0.000000 1.615390 
# 
# From -- ./inp_files/41146.got.cif
#   From: 2010.03.12/outbox.cif.g09.slc.cpg/sg67_21_cif.got.tgz:41146.got - 2010.04.10 22:41:39.
