data_PCOD8279106
_publ_section_title
;
Structure prediction by ZEFSAII (Michael W. Deem and Ramdas Pophale) SiO2 
 PCOD8279106
Probable space group: C M M A
;
_chemical_formula_sum "Si O2"
_cell_formula_units_Z 96
_cell_length_a 15.827998
_cell_length_b 17.861695
_cell_length_c 16.841858
_cell_angle_alpha 90.000000
_cell_angle_beta 90.000000
_cell_angle_gamma 90.000000
_cell_volume 4761.443741
_symmetry_space_group_name_H-M "C M M A"
_symmetry_group_IT_number 67
_symmetry_cell_setting 'orthorhombic'
loop_
_space_group_symop_operation_xyz
x,y,z
-x,1/2-y,z
x,-y,-z
-x,1/2+y,-z
-x,-y,-z
x,1/2+y,-z
-x,y,z
x,1/2-y,z
1/2+x,1/2+y,z
1/2-x,-y,z
1/2+x,1/2-y,-z
1/2-x,y,-z
1/2-x,1/2-y,-z
1/2+x,y,-z
1/2-x,1/2+y,z
1/2+x,-y,z
loop_
_atom_site_type_symbol
_atom_site_label
_atom_site_fract_x
_atom_site_fract_y
_atom_site_fract_z
Si Si1 0.600057 0.664054 0.346695
Si Si2 0.595179 0.107673 0.324486
Si Si3 0.399983 0.166067 0.161140
Si Si4 0.346367 0.021297 0.083237
Si Si5 0.600739 0.584236 0.506127
Si Si6 0.155133 0.467998 0.248600
O O1 0.500000 0.654145 0.336747
O O2 0.627384 0.750000 0.337549
O O3 0.630723 0.634569 0.432623
O O4 0.648325 0.617361 0.278158
O O5 0.500000 0.136307 0.329425
O O6 0.637930 0.151423 0.250245
O O7 0.636914 0.121182 0.411489
O O8 0.598298 0.018414 0.307230
O O9 0.500000 0.151048 0.161024
O O10 0.377601 0.250000 0.134639
O O11 0.356307 0.110134 0.098949
O O12 0.250000 0.000000 0.073140
O O13 0.382640 0.975179 0.158956
O O14 0.393120 0.000000 0.000000
O O15 0.637182 0.500000 0.500000
O O16 0.500000 0.581091 0.511844
O O17 0.250000 0.500000 0.250420
#
# Coordination Sequence:
#
# PCOD8279106 Si02
#       6
#    16  16  16  16  16  16
#     4  10  20  34  53  78 108 139 174 217 258 300
#     4   9  16  29  51  73  97 135 181 217 249 297
#     4   9  18  32  52  80 110 135 165 216 271 305
#     4   9  19  37  57  78 101 133 178 212 248 312
#     4   9  15  26  48  76 102 136 180 219 251 291
#     4  10  19  33  52  75 101 135 173 207 257 312
#
# _framework density 20.161953
#
# number of rings (size 3 to 8) (size 9 to 14) (size 15 to 20)
#    0.000    2.667    1.667    0.500    0.000    1.667 
#    0.000   15.000    0.000    3.000    0.000    0.000 
#    0.000    0.000    0.000    0.000    0.000    0.000 
#
# Total GULP energy -594740.113290 kJ/mol
# GULP energy per Si atom -12390.419027 kJ/mol
# Density = 2.011606 g / cm^3
# Si number density = 20.161953 Si / 1000 Ang^3
#
#
#
# Elastic Constant Matrix: (Units=GPa)
#
#
# Indices 1 2 3 4 5 6 
#
# 1 28.5278 26.4199 15.5869 0.0000 0.0000 0.0000
# 2 26.4199 168.2518 83.8141 0.0000 0.0000 0.0000
# 3 15.5869 83.8141 178.0311 0.0000 0.0000 0.0000
# 4 0.0000 0.0000 0.0000 18.9361 0.0000 0.0000
# 5 0.0000 0.0000 0.0000 0.0000 13.5743 0.0000
# 6 0.0000 0.0000 0.0000 0.0000 0.0000 23.5005
#
#
#
# Elastic Compliance Matrix: (Units=1/GPa)
#
#
# Indices 1 2 3 4 5 6 
#
# 1 0.041091 -0.006088 -0.000731 0.000000 0.000000 0.000000
# 2 -0.006088 0.008666 -0.003547 0.000000 0.000000 0.000000
# 3 -0.000731 -0.003547 0.007351 0.000000 0.000000 0.000000
# 4 0.000000 0.000000 0.000000 0.052809 0.000000 0.000000
# 5 0.000000 0.000000 0.000000 0.000000 0.073669 0.000000
# 6 0.000000 0.000000 0.000000 0.000000 0.000000 0.042552
#
#
# Mechanical properties :
#
#
# Convention : Reuss Voigt Hill
#
# Bulk Modulus (GPa) = 27.49091 69.60584 48.54837
# Shear Modulus (GPa) = 19.30525 27.80149 23.55337
#
# Velocity S-wave (km/s) = 3.09772 3.71739 3.42161
# Velocity P-wave (km/s) = 5.14384 7.28174 6.30408
#
# Compressibility (1/GPa) = 0.03637566
#
# Stress axis : x y z
#
# Youngs Moduli (GPa) = 24.33604 115.38869 136.03795
#
# Poissons Ratio (x) = 0.70249 0.09951
# Poissons Ratio (y) = 0.14816 0.48252
# Poissons Ratio (z) = 0.01780 0.40928
#
# Static dielectric constant tensor:
#      x y z
#    x 3.210250 0.000000 0.000000 
#    y 0.000000 3.545110 0.000000 
#    z 0.000000 0.000000 4.287300 
# 
# 
# High freq. dielectric constant tensor:
#      x y z
#    x 1.746950 0.000000 0.000000 
#    y 0.000000 1.769100 0.000000 
#    z 0.000000 0.000000 1.795410 
# 
# From -- ./inp_files/34214.got.cif
#   From: 2010.03.12/outbox.cif.g09.slc.cpg/sg67_18_cif.got.tgz:34214.got - 2010.04.10 22:41:39.
