data_PCOD8279038
_publ_section_title
;
Structure prediction by ZEFSAII (Michael W. Deem and Ramdas Pophale) SiO2 
 PCOD8279038
Probable space group: C M M A
;
_chemical_formula_sum "Si O2"
_cell_formula_units_Z 96
_cell_length_a 28.476746
_cell_length_b 8.679521
_cell_length_c 20.693311
_cell_angle_alpha 90.000000
_cell_angle_beta 90.000000
_cell_angle_gamma 90.000000
_cell_volume 5114.652175
_symmetry_space_group_name_H-M "C M M A"
_symmetry_group_IT_number 67
_symmetry_cell_setting 'orthorhombic'
loop_
_space_group_symop_operation_xyz
x,y,z
-x,1/2-y,z
x,-y,-z
-x,1/2+y,-z
-x,-y,-z
x,1/2+y,-z
-x,y,z
x,1/2-y,z
1/2+x,1/2+y,z
1/2-x,-y,z
1/2+x,1/2-y,-z
1/2-x,y,-z
1/2-x,1/2-y,-z
1/2+x,y,-z
1/2-x,1/2+y,z
1/2+x,-y,z
loop_
_atom_site_type_symbol
_atom_site_label
_atom_site_fract_x
_atom_site_fract_y
_atom_site_fract_z
Si Si1 0.445427 0.571680 0.816482
Si Si2 0.797004 0.571773 0.743359
Si Si3 0.446724 0.431575 0.566306
Si Si4 0.391884 0.068541 0.934205
Si Si5 0.700853 0.567678 0.882475
Si Si6 0.396758 0.428317 0.694735
O O1 0.500000 0.534566 0.808396
O O2 0.435890 0.750000 0.831793
O O3 0.425613 0.471625 0.874969
O O4 0.419942 0.528789 0.750360
O O5 0.788159 0.750000 0.760256
O O6 0.750000 0.500000 0.711235
O O7 0.808917 0.483626 0.809210
O O8 0.840435 0.550769 0.694641
O O9 0.425908 0.500000 0.500000
O O10 0.500000 0.490122 0.577142
O O11 0.444749 0.250000 0.560864
O O12 0.415345 0.489952 0.626055
O O13 0.387290 0.250000 0.939357
O O14 0.340426 0.996142 0.926826
O O15 0.414117 0.000000 0.000000
O O16 0.701984 0.750000 0.886653
O O17 0.750000 0.500000 0.908041
O O18 0.410676 0.250000 0.705845
#
# Coordination Sequence:
#
# PCOD8279038 Si02
#       6
#    16  16  16  16  16  16
#     4  11  24  40  59  85 113 143 185 234 282 335
#     4  10  19  32  53  82 112 146 184 228 278 332
#     4   9  18  33  53  80 114 150 187 229 278 333
#     4  12  25  42  61  82 110 147 188 232 285 339
#     4  11  21  36  58  84 114 146 183 229 281 337
#     4  10  20  35  58  84 113 149 189 229 278 335
#
# _framework density 18.769604000000001
#
# number of rings (size 3 to 8) (size 9 to 14) (size 15 to 20)
#    0.000    1.500    1.667    5.500    0.000    4.000 
#    0.000    3.333    0.000    0.500    0.000    3.500 
#    0.000    0.000    0.000    0.000    0.000    0.000 
#
# Total GULP energy -595374.361585 kJ/mol
# GULP energy per Si atom -12403.632533 kJ/mol
# Density = 1.872688 g / cm^3
# Si number density = 18.769604 Si / 1000 Ang^3
#
#
#
# Elastic Constant Matrix: (Units=GPa)
#
#
# Indices 1 2 3 4 5 6 
#
# 1 100.5009 45.0280 53.3410 0.0000 0.0000 0.0000
# 2 45.0280 120.7319 39.5892 0.0000 0.0000 0.0000
# 3 53.3410 39.5892 123.6675 0.0000 0.0000 0.0000
# 4 0.0000 0.0000 0.0000 29.7756 0.0000 0.0000
# 5 0.0000 0.0000 0.0000 0.0000 24.4071 0.0000
# 6 0.0000 0.0000 0.0000 0.0000 0.0000 28.0286
#
#
#
# Elastic Compliance Matrix: (Units=1/GPa)
#
#
# Indices 1 2 3 4 5 6 
#
# 1 0.014232 -0.003682 -0.004960 0.000000 0.000000 0.000000
# 2 -0.003682 0.010207 -0.001679 0.000000 0.000000 0.000000
# 3 -0.004960 -0.001679 0.010763 0.000000 0.000000 0.000000
# 4 0.000000 0.000000 0.000000 0.033585 0.000000 0.000000
# 5 0.000000 0.000000 0.000000 0.000000 0.040972 0.000000
# 6 0.000000 0.000000 0.000000 0.000000 0.000000 0.035678
#
#
# Mechanical properties :
#
#
# Convention : Reuss Voigt Hill
#
# Bulk Modulus (GPa) = 68.68239 68.97964 68.83101
# Shear Modulus (GPa) = 29.25140 30.23837 29.74489
#
# Velocity S-wave (km/s) = 3.95200 4.01812 3.98519
# Velocity P-wave (km/s) = 7.58262 7.63921 7.61097
#
# Compressibility (1/GPa) = 0.01455977
#
# Stress axis : x y z
#
# Youngs Moduli (GPa) = 70.26289 97.97588 92.90838
#
# Poissons Ratio (x) = 0.36070 0.46084
# Poissons Ratio (y) = 0.25868 0.15603
# Poissons Ratio (z) = 0.34852 0.16455
#
# Static dielectric constant tensor:
#      x y z
#    x 3.714050 0.000000 0.000000 
#    y 0.000000 3.521800 0.000000 
#    z 0.000000 0.000000 3.378780 
# 
# 
# High freq. dielectric constant tensor:
#      x y z
#    x 1.732530 0.000000 0.000000 
#    y 0.000000 1.739680 0.000000 
#    z 0.000000 0.000000 1.712440 
# 
# From -- ./inp_files/39891.got.cif
#   From: 2010.03.12/outbox.cif.g09.slc.cpg/sg67_20_cif.got.tgz:39891.got - 2010.04.10 22:41:39.
