data_PCOD8279572
_publ_section_title
;
Structure prediction by ZEFSAII (Michael W. Deem and Ramdas Pophale) SiO2 
 PCOD8279572
Probable space group: C M M A
;
_chemical_formula_sum "Si O2"
_cell_formula_units_Z 80
_cell_length_a 27.084132
_cell_length_b 8.864811
_cell_length_c 18.524310
_cell_angle_alpha 90.000000
_cell_angle_beta 90.000000
_cell_angle_gamma 90.000000
_cell_volume 4447.607385
_symmetry_space_group_name_H-M "C M M A"
_symmetry_group_IT_number 67
_symmetry_cell_setting 'orthorhombic'
loop_
_space_group_symop_operation_xyz
x,y,z
-x,1/2-y,z
x,-y,-z
-x,1/2+y,-z
-x,-y,-z
x,1/2+y,-z
-x,y,z
x,1/2-y,z
1/2+x,1/2+y,z
1/2-x,-y,z
1/2+x,1/2-y,-z
1/2-x,y,-z
1/2-x,1/2-y,-z
1/2+x,y,-z
1/2-x,1/2+y,z
1/2+x,-y,z
loop_
_atom_site_type_symbol
_atom_site_label
_atom_site_fract_x
_atom_site_fract_y
_atom_site_fract_z
Si Si1 0.943475 0.425339 0.644128
Si Si2 0.699719 0.925517 0.708309
Si Si3 0.443994 0.426770 0.926486
Si Si4 0.102768 0.422157 0.793464
Si Si5 0.146626 0.428639 0.424815
O O1 0.930026 0.250000 0.631737
O O2 0.932743 0.467960 0.727126
O O3 0.909921 0.524622 0.591373
O O4 0.000000 0.461118 0.625686
O O5 0.707205 0.750000 0.690798
O O6 0.659439 0.948461 0.770995
O O7 0.750000 0.000000 0.736814
O O8 0.683151 0.008534 0.635679
O O9 0.500000 0.481944 0.911052
O O10 0.441542 0.250000 0.936436
O O11 0.408927 0.472825 0.860876
O O12 0.423768 0.500000 0.000000
O O13 0.093083 0.250000 0.816098
O O14 0.163733 0.500000 0.500000
O O15 0.150741 0.250000 0.428514
#
# Coordination Sequence:
#
# PCOD8279572 Si02
#       5
#    16  16  16  16  16
#     4   9  18  33  52  74 102 137 174 211 254 305
#     4  10  21  38  58  80 103 130 167 210 259 310
#     4  10  20  32  49  76 109 143 177 210 246 292
#     4   9  18  33  53  76 104 135 167 207 253 301
#     4  11  22  36  53  74 102 134 170 213 259 308
#
# _framework density 17.987200000000001
#
# number of rings (size 3 to 8) (size 9 to 14) (size 15 to 20)
#    0.000    2.200    0.000    4.800    0.000    7.200 
#    0.000    2.000    0.000    0.600    0.000    4.200 
#    0.000    0.000    0.000    0.000    0.000    0.000 
#
# Total GULP energy -496145.257093 kJ/mol
# GULP energy per Si atom -12403.631427 kJ/mol
# Density = 1.794626 g / cm^3
# Si number density = 17.987200 Si / 1000 Ang^3
#
#
#
# Elastic Constant Matrix: (Units=GPa)
#
#
# Indices 1 2 3 4 5 6 
#
# 1 77.9260 36.5910 24.0757 0.0000 0.0000 0.0000
# 2 36.5910 111.9872 47.8547 0.0000 0.0000 0.0000
# 3 24.0757 47.8547 94.4943 0.0000 0.0000 0.0000
# 4 0.0000 0.0000 0.0000 34.8186 0.0000 0.0000
# 5 0.0000 0.0000 0.0000 0.0000 -1.2649 0.0000
# 6 0.0000 0.0000 0.0000 0.0000 0.0000 32.1050
#
#
#
# Elastic Compliance Matrix: (Units=1/GPa)
#
#
# Indices 1 2 3 4 5 6 
#
# 1 0.015383 -0.004277 -0.001753 0.000000 0.000000 0.000000
# 2 -0.004277 0.012585 -0.005284 0.000000 0.000000 0.000000
# 3 -0.001753 -0.005284 0.013705 0.000000 0.000000 0.000000
# 4 0.000000 0.000000 0.000000 0.028720 0.000000 0.000000
# 5 0.000000 0.000000 0.000000 0.000000 -0.790600 0.000000
# 6 0.000000 0.000000 0.000000 0.000000 0.000000 0.031148
#
#
# Mechanical properties :
#
#
# Convention : Reuss Voigt Hill
#
# Bulk Modulus (GPa) = 52.50745 55.71669 54.11207
# Shear Modulus (GPa) = -7.57480 24.85749 8.64134
#
# Velocity S-wave (km/s) = -2.05435 3.72150 2.19422
# Velocity P-wave (km/s) = 4.86084 7.03627 6.04718
#
# Compressibility (1/GPa) = 0.01904491
#
# Stress axis : x y z
#
# Youngs Moduli (GPa) = 65.00824 79.46043 72.96523
#
# Poissons Ratio (x) = 0.33985 0.12793
# Poissons Ratio (y) = 0.27804 0.38552
# Poissons Ratio (z) = 0.11398 0.41984
#
# Static dielectric constant tensor:
#      x y z
#    x 3.319930 0.000000 0.000000 
#    y 0.000000 3.319060 0.000000 
#    z 0.000000 0.000000 3.172520 
# 
# 
# High freq. dielectric constant tensor:
#      x y z
#    x 1.688360 0.000000 0.000000 
#    y 0.000000 1.704030 0.000000 
#    z 0.000000 0.000000 1.686020 
# 
# From -- ./inp_files/32121.got.cif
#   From: 2010.03.12/outbox.cif.g09.slc.cpg/sg67_17_cif.got.tgz:32121.got - 2010.04.10 22:41:39.
