data_PCOD8279006
_publ_section_title
;
Structure prediction by ZEFSAII (Michael W. Deem and Ramdas Pophale) SiO2 
 PCOD8279006
Probable space group: C M M A
;
_chemical_formula_sum "Si O2"
_cell_formula_units_Z 72
_cell_length_a 8.353757
_cell_length_b 25.082003
_cell_length_c 16.801521
_cell_angle_alpha 90.000000
_cell_angle_beta 90.000000
_cell_angle_gamma 90.000000
_cell_volume 3520.405190
_symmetry_space_group_name_H-M "C M M A"
_symmetry_group_IT_number 67
_symmetry_cell_setting 'orthorhombic'
loop_
_space_group_symop_operation_xyz
x,y,z
-x,1/2-y,z
x,-y,-z
-x,1/2+y,-z
-x,-y,-z
x,1/2+y,-z
-x,y,z
x,1/2-y,z
1/2+x,1/2+y,z
1/2-x,-y,z
1/2+x,1/2-y,-z
1/2-x,y,-z
1/2-x,1/2-y,-z
1/2+x,y,-z
1/2-x,1/2+y,z
1/2+x,-y,z
loop_
_atom_site_type_symbol
_atom_site_label
_atom_site_fract_x
_atom_site_fract_y
_atom_site_fract_z
Si Si1 0.186958 0.334041 0.708117
Si Si2 0.184190 0.690950 0.875484
Si Si3 0.683917 0.084001 0.082455
Si Si4 0.186234 0.943683 0.749659
Si Si5 0.689720 0.250000 0.589121
O O1 0.285465 0.309652 0.781199
O O2 0.222365 0.397218 0.701565
O O3 0.242037 0.303618 0.629245
O O4 0.000000 0.324986 0.723171
O O5 0.222899 0.750000 0.908491
O O6 0.296874 0.648327 0.919639
O O7 0.000000 0.675370 0.890856
O O8 0.500000 0.068438 0.093843
O O9 0.783720 0.060173 0.155519
O O10 0.750000 0.059575 0.000000
O O11 0.000000 0.938421 0.732264
O O12 0.250000 0.000000 0.717282
O O13 0.500000 0.250000 0.593293
O O14 0.750000 0.250000 0.500000
#
# Coordination Sequence:
#
# PCOD8279006 Si02
#       5
#    16  16  16  16   8
#     4  11  21  36  59  88 120 155 193 236 285 341
#     4  10  19  32  52  76 106 146 190 235 287 344
#     4  11  22  36  52  74 106 144 190 243 300 353
#     4  11  22  39  61  86 114 150 197 245 292 344
#     4  12  24  40  62  94 129 162 193 232 282 338
#
# _framework density 20.452193000000001
#
# number of rings (size 3 to 8) (size 9 to 14) (size 15 to 20)
#    0.000    1.111    1.111   10.333    0.000    2.222 
#    0.000    2.222    0.000    0.667    0.000    4.667 
#    0.000    0.000    0.000    0.000    0.000    0.000 
#
# Total GULP energy -446516.441184 kJ/mol
# GULP energy per Si atom -12403.234477 kJ/mol
# Density = 2.040564 g / cm^3
# Si number density = 20.452193 Si / 1000 Ang^3
#
#
#
# Elastic Constant Matrix: (Units=GPa)
#
#
# Indices 1 2 3 4 5 6 
#
# 1 99.4594 18.3981 3.8626 0.0000 0.0000 0.0000
# 2 18.3981 119.0966 21.2828 0.0000 0.0000 0.0000
# 3 3.8626 21.2828 83.6429 0.0000 0.0000 0.0000
# 4 0.0000 0.0000 0.0000 6.5246 0.0000 0.0000
# 5 0.0000 0.0000 0.0000 0.0000 28.4619 0.0000
# 6 0.0000 0.0000 0.0000 0.0000 0.0000 34.3038
#
#
#
# Elastic Compliance Matrix: (Units=1/GPa)
#
#
# Indices 1 2 3 4 5 6 
#
# 1 0.010351 -0.001586 -0.000075 0.000000 0.000000 0.000000
# 2 -0.001586 0.009039 -0.002227 0.000000 0.000000 0.000000
# 3 -0.000075 -0.002227 0.012526 0.000000 0.000000 0.000000
# 4 0.000000 0.000000 0.000000 0.153266 0.000000 0.000000
# 5 0.000000 0.000000 0.000000 0.000000 0.035135 0.000000
# 6 0.000000 0.000000 0.000000 0.000000 0.000000 0.029151
#
#
# Mechanical properties :
#
#
# Convention : Reuss Voigt Hill
#
# Bulk Modulus (GPa) = 41.42222 43.25398 42.33810
# Shear Modulus (GPa) = 18.84734 31.10174 24.97454
#
# Velocity S-wave (km/s) = 3.03897 3.90385 3.49824
# Velocity P-wave (km/s) = 5.71060 6.44320 6.08793
#
# Compressibility (1/GPa) = 0.02414163
#
# Stress axis : x y z
#
# Youngs Moduli (GPa) = 96.61309 110.62632 79.83620
#
# Poissons Ratio (x) = 0.17541 0.00595
# Poissons Ratio (y) = 0.15319 0.17778
# Poissons Ratio (z) = 0.00720 0.24635
#
# Static dielectric constant tensor:
#      x y z
#    x 3.774070 0.000000 0.000000 
#    y 0.000000 4.072530 0.000000 
#    z 0.000000 0.000000 3.324490 
# 
# 
# High freq. dielectric constant tensor:
#      x y z
#    x 1.816210 0.000000 0.000000 
#    y 0.000000 1.811820 0.000000 
#    z 0.000000 0.000000 1.754200 
# 
# From -- ./inp_files/25095.got.cif
#   From: 2010.03.12/outbox.cif.g09.slc.cpg/sg67_13_cif.got.tgz:25095.got - 2010.04.10 22:41:39.
