data_PCOD8279170
_publ_section_title
;
Structure prediction by ZEFSAII (Michael W. Deem and Ramdas Pophale) SiO2 
 PCOD8279170
Probable space group: C M M A
;
_chemical_formula_sum "Si O2"
_cell_formula_units_Z 48
_cell_length_a 14.221210
_cell_length_b 10.352119
_cell_length_c 13.292658
_cell_angle_alpha 90.000000
_cell_angle_beta 90.000000
_cell_angle_gamma 90.000000
_cell_volume 1956.940568
_symmetry_space_group_name_H-M "C M M A"
_symmetry_group_IT_number 67
_symmetry_cell_setting 'orthorhombic'
loop_
_space_group_symop_operation_xyz
x,y,z
-x,1/2-y,z
x,-y,-z
-x,1/2+y,-z
-x,-y,-z
x,1/2+y,-z
-x,y,z
x,1/2-y,z
1/2+x,1/2+y,z
1/2-x,-y,z
1/2+x,1/2-y,-z
1/2-x,y,-z
1/2-x,1/2-y,-z
1/2+x,y,-z
1/2-x,1/2+y,z
1/2+x,-y,z
loop_
_atom_site_type_symbol
_atom_site_label
_atom_site_fract_x
_atom_site_fract_y
_atom_site_fract_z
Si Si1 0.111231 0.250000 0.579352
Si Si2 0.848707 0.889069 0.058341
Si Si3 0.888611 0.750000 0.644756
Si Si4 0.611547 0.524959 0.726797
O O1 0.155595 0.250000 0.467427
O O2 0.143603 0.120603 0.637328
O O3 0.000000 0.250000 0.569679
O O4 0.900345 0.750000 0.052848
O O5 0.834561 0.929242 0.173747
O O6 0.750000 0.878859 0.000000
O O7 0.909006 0.000000 0.000000
O O8 0.855018 0.620840 0.702204
O O9 0.000000 0.750000 0.636876
O O10 0.500000 0.533471 0.744927
#
# Coordination Sequence:
#
# PCOD8279170 Si02
#       4
#     8  16   8  16
#     4   9  16  30  52  80 118 156 185 220 273 333
#     4  10  22  39  57  79 105 145 193 237 287 336
#     4   9  18  30  50  84 122 154 183 220 273 339
#     4  10  19  33  54  84 119 150 186 232 276 326
#
# _framework density 24.528082000000001
#
# number of rings (size 3 to 8) (size 9 to 14) (size 15 to 20)
#    0.000    2.333    1.667    1.000    2.333    4.667 
#    0.000    0.000    0.000    0.000    0.000   28.000 
#    0.000    0.000    0.000    0.000    0.000    2.000 
#
# Total GULP energy -297382.080565 kJ/mol
# GULP energy per Si atom -12390.920024 kJ/mol
# Density = 2.447225 g / cm^3
# Si number density = 24.528082 Si / 1000 Ang^3
#
#
#
# Elastic Constant Matrix: (Units=GPa)
#
#
# Indices 1 2 3 4 5 6 
#
# 1 46.8186 -5.5585 12.2820 0.0000 0.0000 0.0000
# 2 -5.5585 306.5008 112.4576 0.0000 0.0000 0.0000
# 3 12.2820 112.4576 199.4956 0.0000 0.0000 0.0000
# 4 0.0000 0.0000 0.0000 49.0596 0.0000 0.0000
# 5 0.0000 0.0000 0.0000 0.0000 31.2694 0.0000
# 6 0.0000 0.0000 0.0000 0.0000 0.0000 -4.5886
#
#
#
# Elastic Compliance Matrix: (Units=1/GPa)
#
#
# Indices 1 2 3 4 5 6 
#
# 1 0.022016 0.001130 -0.001993 0.000000 0.000000 0.000000
# 2 0.001130 0.004171 -0.002421 0.000000 0.000000 0.000000
# 3 -0.001993 -0.002421 0.006500 0.000000 0.000000 0.000000
# 4 0.000000 0.000000 0.000000 0.020383 0.000000 0.000000
# 5 0.000000 0.000000 0.000000 0.000000 0.031980 0.000000
# 6 0.000000 0.000000 0.000000 0.000000 0.000000 -0.217931
#
#
# Mechanical properties :
#
#
# Convention : Reuss Voigt Hill
#
# Bulk Modulus (GPa) = 38.28357 87.90858 63.09607
# Shear Modulus (GPa) = -42.51455 44.05699 0.77122
#
# Velocity S-wave (km/s) = -4.16781 4.24274 0.56134
# Velocity P-wave (km/s) = 2.74206 7.74073 5.11859
#
# Compressibility (1/GPa) = 0.02612087
#
# Stress axis : x y z
#
# Youngs Moduli (GPa) = 45.42158 239.72495 153.84369
#
# Poissons Ratio (x) = -0.27098 0.30655
# Poissons Ratio (y) = -0.05134 0.37247
# Poissons Ratio (z) = 0.09051 0.58039
#
# Static dielectric constant tensor:
#      x y z
#    x 3.811360 0.000000 0.000000 
#    y 0.000000 6.611430 0.000000 
#    z 0.000000 0.000000 4.506330 
# 
# 
# High freq. dielectric constant tensor:
#      x y z
#    x 1.940400 0.000000 0.000000 
#    y 0.000000 2.003290 0.000000 
#    z 0.000000 0.000000 1.982160 
# 
# From -- ./inp_files/16141.got.cif
#   From: 2010.03.12/outbox.cif.g09.slc.cpg/sg67_9_cif.got.tgz:16141.got - 2010.04.10 22:41:39.
