data_PCOD8279371
_publ_section_title
;
Structure prediction by ZEFSAII (Michael W. Deem and Ramdas Pophale) SiO2 
 PCOD8279371
Probable space group: C M M A
;
_chemical_formula_sum "Si O2"
_cell_formula_units_Z 80
_cell_length_a 14.922544
_cell_length_b 10.377256
_cell_length_c 27.020090
_cell_angle_alpha 90.000000
_cell_angle_beta 90.000000
_cell_angle_gamma 90.000000
_cell_volume 4184.197638
_symmetry_space_group_name_H-M "C M M A"
_symmetry_group_IT_number 67
_symmetry_cell_setting 'orthorhombic'
loop_
_space_group_symop_operation_xyz
x,y,z
-x,1/2-y,z
x,-y,-z
-x,1/2+y,-z
-x,-y,-z
x,1/2+y,-z
-x,y,z
x,1/2-y,z
1/2+x,1/2+y,z
1/2-x,-y,z
1/2+x,1/2-y,-z
1/2-x,y,-z
1/2-x,1/2-y,-z
1/2+x,y,-z
1/2-x,1/2+y,z
1/2+x,-y,z
loop_
_atom_site_type_symbol
_atom_site_label
_atom_site_fract_x
_atom_site_fract_y
_atom_site_fract_z
Si Si1 0.000000 0.401468 0.800627
Si Si2 0.823645 0.900167 0.142942
Si Si3 0.143956 0.492709 0.614790
Si Si4 0.853584 0.250000 0.550324
Si Si5 0.345065 0.612764 0.972254
Si Si6 0.357562 0.250000 0.559514
Si Si7 0.000000 0.904933 0.311551
O O1 0.913161 0.448065 0.830157
O O2 0.000000 0.250000 0.798738
O O3 0.000000 0.454088 0.744807
O O4 0.799591 0.750000 0.154823
O O5 0.834083 0.921611 0.084751
O O6 0.750000 0.000000 0.163264
O O7 0.250000 0.500000 0.626676
O O8 0.115111 0.378727 0.577869
O O9 0.111008 0.625184 0.589892
O O10 0.089818 0.466311 0.664996
O O11 0.747306 0.250000 0.550140
O O12 0.898531 0.250000 0.495850
O O13 0.395587 0.750000 0.977303
O O14 0.401402 0.500000 0.000000
O O15 0.250000 0.622126 0.000000
O O16 0.000000 0.750000 0.316570
#
# Coordination Sequence:
#
# PCOD8279371 Si02
#       7
#     8  16  16   8  16   8   8
#     4   9  22  40  59  82 107 149 194 246 285 338
#     4  10  19  35  60  84 114 147 190 230 282 341
#     4  10  20  35  59  86 112 153 191 229 279 342
#     4   9  16  33  55  87 120 155 185 218 277 346
#     4   9  15  25  47  80 110 146 177 214 267 329
#     4   9  18  31  55  87 126 149 177 230 285 336
#     4  11  22  41  62  80 110 147 199 245 288 331
#
# _framework density 19.119554999999998
#
# number of rings (size 3 to 8) (size 9 to 14) (size 15 to 20)
#    0.000    2.400    3.000    0.600    0.000    3.600 
#    0.000    4.000    4.400    0.000    0.000    0.000 
#    0.000    0.000    0.000    0.000    0.000    0.000 
#
# Total GULP energy -495657.255487 kJ/mol
# GULP energy per Si atom -12391.431387 kJ/mol
# Density = 1.907604 g / cm^3
# Si number density = 19.119555 Si / 1000 Ang^3
#
#
#
# Elastic Constant Matrix: (Units=GPa)
#
#
# Indices 1 2 3 4 5 6 
#
# 1 95.4065 45.1557 65.6175 0.0000 0.0000 0.0000
# 2 45.1557 148.0873 53.4971 0.0000 0.0000 0.0000
# 3 65.6175 53.4971 151.0395 0.0000 0.0000 0.0000
# 4 0.0000 0.0000 0.0000 33.5431 0.0000 0.0000
# 5 0.0000 0.0000 0.0000 0.0000 23.1172 0.0000
# 6 0.0000 0.0000 0.0000 0.0000 0.0000 15.5086
#
#
#
# Elastic Compliance Matrix: (Units=1/GPa)
#
#
# Indices 1 2 3 4 5 6 
#
# 1 0.015828 -0.002686 -0.005925 0.000000 0.000000 0.000000
# 2 -0.002686 0.008199 -0.001737 0.000000 0.000000 0.000000
# 3 -0.005925 -0.001737 0.009810 0.000000 0.000000 0.000000
# 4 0.000000 0.000000 0.000000 0.029812 0.000000 0.000000
# 5 0.000000 0.000000 0.000000 0.000000 0.043258 0.000000
# 6 0.000000 0.000000 0.000000 0.000000 0.000000 0.064480
#
#
# Mechanical properties :
#
#
# Convention : Reuss Voigt Hill
#
# Bulk Modulus (GPa) = 76.09737 80.34155 78.21946
# Shear Modulus (GPa) = 25.44999 29.78467 27.61733
#
# Velocity S-wave (km/s) = 3.65238 3.95119 3.80472
# Velocity P-wave (km/s) = 7.59432 7.93270 7.76535
#
# Compressibility (1/GPa) = 0.01314106
#
# Stress axis : x y z
#
# Youngs Moduli (GPa) = 63.18088 121.96050 101.93581
#
# Poissons Ratio (x) = 0.32757 0.60395
# Poissons Ratio (y) = 0.16970 0.17709
# Poissons Ratio (z) = 0.37433 0.21188
#
# Static dielectric constant tensor:
#      x y z
#    x 3.206730 0.000000 0.000000 
#    y 0.000000 4.554940 0.000000 
#    z 0.000000 0.000000 3.579120 
# 
# 
# High freq. dielectric constant tensor:
#      x y z
#    x 1.722410 0.000000 0.000000 
#    y 0.000000 1.751730 0.000000 
#    z 0.000000 0.000000 1.736730 
# 
# From -- ./inp_files/41807.got.cif
#   From: 2010.03.12/outbox.cif.g09.slc.cpg/sg67_21_cif.got.tgz:41807.got - 2010.04.10 22:41:39.
