data_PCOD8279874
_publ_section_title
;
Structure prediction by ZEFSAII (Michael W. Deem and Ramdas Pophale) SiO2 
 PCOD8279874
Probable space group: C M M A
;
_chemical_formula_sum "Si O2"
_cell_formula_units_Z 104
_cell_length_a 26.614136
_cell_length_b 8.730320
_cell_length_c 24.081750
_cell_angle_alpha 90.000000
_cell_angle_beta 90.000000
_cell_angle_gamma 90.000000
_cell_volume 5595.392778
_symmetry_space_group_name_H-M "C M M A"
_symmetry_group_IT_number 67
_symmetry_cell_setting 'orthorhombic'
loop_
_space_group_symop_operation_xyz
x,y,z
-x,1/2-y,z
x,-y,-z
-x,1/2+y,-z
-x,-y,-z
x,1/2+y,-z
-x,y,z
x,1/2-y,z
1/2+x,1/2+y,z
1/2-x,-y,z
1/2+x,1/2-y,-z
1/2-x,y,-z
1/2-x,1/2-y,-z
1/2+x,y,-z
1/2-x,1/2+y,z
1/2+x,-y,z
loop_
_atom_site_type_symbol
_atom_site_label
_atom_site_fract_x
_atom_site_fract_y
_atom_site_fract_z
Si Si1 0.802181 0.570405 0.722837
Si Si2 0.942837 0.421915 0.233747
Si Si3 0.302348 0.427917 0.852438
Si Si4 0.441924 0.070217 0.558821
Si Si5 0.602651 0.068757 0.334353
Si Si6 0.500000 0.432437 0.060787
Si Si7 0.097163 0.570526 0.128216
O O1 0.803226 0.750000 0.710588
O O2 0.750000 0.500000 0.702846
O O3 0.811091 0.534503 0.787669
O O4 0.843303 0.485219 0.686295
O O5 0.919297 0.250000 0.232752
O O6 0.939339 0.492120 0.295009
O O7 0.912824 0.529958 0.192117
O O8 0.000000 0.415269 0.214871
O O9 0.299137 0.250000 0.864460
O O10 0.250000 0.500000 0.873353
O O11 0.349305 0.495074 0.888007
O O12 0.500000 0.034231 0.572294
O O13 0.431193 0.250000 0.558530
O O14 0.426504 0.000000 0.500000
O O15 0.406680 0.988758 0.603612
O O16 0.598048 0.250000 0.331747
O O17 0.500000 0.250000 0.059523
O O18 0.449316 0.492545 0.091244
O O19 0.500000 0.500000 0.000000
O O20 0.102511 0.750000 0.121011
#
# Coordination Sequence:
#
# PCOD8279874 Si02
#       7
#    16  16  16  16  16   8  16
#     4  10  20  34  52  77 111 146 185 226 276 334
#     4  11  22  34  50  77 112 149 185 226 281 338
#     4  10  20  34  55  83 116 155 193 234 287 345
#     4  10  21  38  58  79 106 141 184 232 279 332
#     4  12  23  34  53  79 110 147 185 227 279 335
#     4  10  24  42  62  88 118 158 201 240 285 338
#     4  11  21  36  57  84 117 151 190 237 285 338
#
# _framework density 18.586721000000001
#
# number of rings (size 3 to 8) (size 9 to 14) (size 15 to 20)
#    0.000    1.385    2.308    4.154    0.000    6.154 
#    0.000    0.000    0.000    0.923    0.000    6.462 
#    0.000    0.000    0.000    0.000    0.000    0.000 
#
# Total GULP energy -644907.234310 kJ/mol
# GULP energy per Si atom -12402.062198 kJ/mol
# Density = 1.854442 g / cm^3
# Si number density = 18.586721 Si / 1000 Ang^3
#
#
#
# Elastic Constant Matrix: (Units=GPa)
#
#
# Indices 1 2 3 4 5 6 
#
# 1 145.1985 54.7676 45.6263 0.0000 0.0000 0.0000
# 2 54.7676 98.5432 30.8815 0.0000 0.0000 0.0000
# 3 45.6263 30.8815 73.0536 0.0000 0.0000 0.0000
# 4 0.0000 0.0000 0.0000 28.0457 0.0000 0.0000
# 5 0.0000 0.0000 0.0000 0.0000 -539.6813 0.0000
# 6 0.0000 0.0000 0.0000 0.0000 0.0000 33.6496
#
#
#
# Elastic Compliance Matrix: (Units=1/GPa)
#
#
# Indices 1 2 3 4 5 6 
#
# 1 0.009806 -0.004070 -0.004404 0.000000 0.000000 0.000000
# 2 -0.004070 0.013387 -0.003117 0.000000 0.000000 0.000000
# 3 -0.004404 -0.003117 0.017757 0.000000 0.000000 0.000000
# 4 0.000000 0.000000 0.000000 0.035656 0.000000 0.000000
# 5 0.000000 0.000000 0.000000 0.000000 -0.001853 0.000000
# 6 0.000000 0.000000 0.000000 0.000000 0.000000 0.029718
#
#
# Mechanical properties :
#
#
# Convention : Reuss Voigt Hill
#
# Bulk Modulus (GPa) = 56.28185 64.37176 60.32681
# Shear Modulus (GPa) = 37.43216 -83.22921 -22.89853
#
# Velocity S-wave (km/s) = 4.49254 -6.69896 -3.51377
# Velocity P-wave (km/s) = 7.56683 5.01262 4.00815
#
# Compressibility (1/GPa) = 0.01776772
#
# Stress axis : x y z
#
# Youngs Moduli (GPa) = 101.97688 74.70201 56.31645
#
# Poissons Ratio (x) = 0.30402 0.24802
# Poissons Ratio (y) = 0.41503 0.17554
# Poissons Ratio (z) = 0.44912 0.23284
#
# Static dielectric constant tensor:
#      x y z
#    x 3.634860 0.000000 0.000000 
#    y 0.000000 3.491860 0.000000 
#    z 0.000000 0.000000 3.179450 
# 
# 
# High freq. dielectric constant tensor:
#      x y z
#    x 1.731020 0.000000 0.000000 
#    y 0.000000 1.736210 0.000000 
#    z 0.000000 0.000000 1.688210 
# 
# From -- ./inp_files/37271.got.cif
#   From: 2010.03.12/outbox.cif.g09.slc.cpg/sg67_19_cif.got.tgz:37271.got - 2010.04.10 22:41:39.
