data_PCOD8279659
_publ_section_title
;
Structure prediction by ZEFSAII (Michael W. Deem and Ramdas Pophale) SiO2 
 PCOD8279659
Probable space group: C M M A
;
_chemical_formula_sum "Si O2"
_cell_formula_units_Z 80
_cell_length_a 18.977363
_cell_length_b 8.799051
_cell_length_c 25.598404
_cell_angle_alpha 90.000000
_cell_angle_beta 90.000000
_cell_angle_gamma 90.000000
_cell_volume 4274.492788
_symmetry_space_group_name_H-M "C M M A"
_symmetry_group_IT_number 67
_symmetry_cell_setting 'orthorhombic'
loop_
_space_group_symop_operation_xyz
x,y,z
-x,1/2-y,z
x,-y,-z
-x,1/2+y,-z
-x,-y,-z
x,1/2+y,-z
-x,y,z
x,1/2-y,z
1/2+x,1/2+y,z
1/2-x,-y,z
1/2+x,1/2-y,-z
1/2-x,y,-z
1/2-x,1/2-y,-z
1/2+x,y,-z
1/2-x,1/2+y,z
1/2+x,-y,z
loop_
_atom_site_type_symbol
_atom_site_label
_atom_site_fract_x
_atom_site_fract_y
_atom_site_fract_z
Si Si1 0.416972 0.422713 0.861104
Si Si2 0.580043 0.429355 0.553801
Si Si3 0.078183 0.430250 0.255764
Si Si4 0.826755 0.930637 0.650518
Si Si5 0.175513 0.428706 0.945775
O O1 0.500000 0.433984 0.869341
O O2 0.391305 0.250000 0.871141
O O3 0.396830 0.475727 0.802435
O O4 0.380306 0.536980 0.900802
O O5 0.608551 0.500000 0.500000
O O6 0.500000 0.483255 0.564998
O O7 0.583687 0.250000 0.548807
O O8 0.629364 0.487858 0.600489
O O9 0.073367 0.250000 0.259870
O O10 0.133647 0.493739 0.297879
O O11 0.000000 0.497069 0.267278
O O12 0.821303 0.750000 0.651650
O O13 0.750000 0.000000 0.648108
O O14 0.184014 0.250000 0.953023
O O15 0.250000 0.500000 0.929567
O O16 0.148143 0.500000 0.000000
#
# Coordination Sequence:
#
# PCOD8279659 Si02
#       5
#    16  16  16  16  16
#     4   9  18  34  56  81 107 135 170 212 258 307
#     4   9  18  33  53  74  96 127 168 210 250 296
#     4   8  15  31  55  77  98 130 171 210 247 294
#     4  10  20  33  50  74 103 133 167 206 250 299
#     4  11  22  37  56  77 105 139 176 215 257 307
#
# _framework density 18.715671
#
# number of rings (size 3 to 8) (size 9 to 14) (size 15 to 20)
#    0.000    2.600    0.000    4.200    0.000    5.200 
#    0.000    5.000    0.000    3.000    0.000    0.000 
#    0.000    0.000    0.000    0.000    0.000    0.000 
#
# Total GULP energy -495983.545022 kJ/mol
# GULP energy per Si atom -12399.588626 kJ/mol
# Density = 1.867307 g / cm^3
# Si number density = 18.715671 Si / 1000 Ang^3
#
#
#
# Elastic Constant Matrix: (Units=GPa)
#
#
# Indices 1 2 3 4 5 6 
#
# 1 105.1326 32.5983 89.8026 0.0000 0.0000 0.0000
# 2 32.5983 62.6637 43.5359 0.0000 0.0000 0.0000
# 3 89.8026 43.5359 165.7052 0.0000 0.0000 0.0000
# 4 0.0000 0.0000 0.0000 25.2298 0.0000 0.0000
# 5 0.0000 0.0000 0.0000 0.0000 23.8195 0.0000
# 6 0.0000 0.0000 0.0000 0.0000 0.0000 28.0523
#
#
#
# Elastic Compliance Matrix: (Units=1/GPa)
#
#
# Indices 1 2 3 4 5 6 
#
# 1 0.018221 -0.003203 -0.009033 0.000000 0.000000 0.000000
# 2 -0.003203 0.020085 -0.003541 0.000000 0.000000 0.000000
# 3 -0.009033 -0.003541 0.011861 0.000000 0.000000 0.000000
# 4 0.000000 0.000000 0.000000 0.039636 0.000000 0.000000
# 5 0.000000 0.000000 0.000000 0.000000 0.041982 0.000000
# 6 0.000000 0.000000 0.000000 0.000000 0.000000 0.035648
#
#
# Mechanical properties :
#
#
# Convention : Reuss Voigt Hill
#
# Bulk Modulus (GPa) = 53.72923 73.93058 63.82991
# Shear Modulus (GPa) = 24.36766 26.59130 25.47948
#
# Velocity S-wave (km/s) = 3.61223 3.77344 3.69372
# Velocity P-wave (km/s) = 6.79471 7.65329 7.23675
#
# Compressibility (1/GPa) = 0.01861184
#
# Stress axis : x y z
#
# Youngs Moduli (GPa) = 54.88210 49.78956 84.31269
#
# Poissons Ratio (x) = 0.15947 0.76161
# Poissons Ratio (y) = 0.17578 0.29856
# Poissons Ratio (z) = 0.49576 0.17631
#
# Static dielectric constant tensor:
#      x y z
#    x 3.435490 0.000000 0.000000 
#    y 0.000000 3.150760 0.000000 
#    z 0.000000 0.000000 3.705230 
# 
# 
# High freq. dielectric constant tensor:
#      x y z
#    x 1.722610 0.000000 0.000000 
#    y 0.000000 1.698910 0.000000 
#    z 0.000000 0.000000 1.741000 
# 
# From -- ./inp_files/43207.got.cif
#   From: 2010.03.12/outbox.cif.g09.slc.cpg/sg67_22_cif.got.tgz:43207.got - 2010.04.10 22:41:39.
