data_PCOD8279520
_publ_section_title
;
Structure prediction by ZEFSAII (Michael W. Deem and Ramdas Pophale) SiO2 
 PCOD8279520
Probable space group: C M M A
;
_chemical_formula_sum "Si O2"
_cell_formula_units_Z 112
_cell_length_a 22.481114
_cell_length_b 18.011488
_cell_length_c 16.223753
_cell_angle_alpha 90.000000
_cell_angle_beta 90.000000
_cell_angle_gamma 90.000000
_cell_volume 6569.294728
_symmetry_space_group_name_H-M "C M M A"
_symmetry_group_IT_number 67
_symmetry_cell_setting 'orthorhombic'
loop_
_space_group_symop_operation_xyz
x,y,z
-x,1/2-y,z
x,-y,-z
-x,1/2+y,-z
-x,-y,-z
x,1/2+y,-z
-x,y,z
x,1/2-y,z
1/2+x,1/2+y,z
1/2-x,-y,z
1/2+x,1/2-y,-z
1/2-x,y,-z
1/2-x,1/2-y,-z
1/2+x,y,-z
1/2-x,1/2+y,z
1/2+x,-y,z
loop_
_atom_site_type_symbol
_atom_site_label
_atom_site_fract_x
_atom_site_fract_y
_atom_site_fract_z
Si Si1 0.614351 0.596986 0.838654
Si Si2 0.930463 0.473358 0.585629
Si Si3 0.569588 0.166896 0.320725
Si Si4 0.429717 0.950885 0.246225
Si Si5 0.433369 0.665863 0.994837
Si Si6 0.243968 0.412441 0.905338
Si Si7 0.141217 0.162239 0.151986
O O1 0.602571 0.654936 0.765531
O O2 0.600409 0.513568 0.810592
O O3 0.571957 0.613572 0.915743
O O4 0.681217 0.610557 0.867944
O O5 0.899720 0.500000 0.500000
O O6 0.906071 0.391778 0.611641
O O7 0.916917 0.532149 0.657835
O O8 0.000000 0.465665 0.570241
O O9 0.500000 0.152010 0.304108
O O10 0.581640 0.250000 0.353301
O O11 0.500000 0.946860 0.228736
O O12 0.397577 0.873370 0.225792
O O13 0.500000 0.659569 0.030070
O O14 0.418314 0.750000 0.968539
O O15 0.389215 0.639173 0.066082
O O16 0.250000 0.500000 0.898522
O O17 0.292661 0.371022 0.849280
O O18 0.250000 0.385649 0.000000
O O19 0.142567 0.250000 0.166678
#
# Coordination Sequence:
#
# PCOD8279520 Si02
#       7
#    16  16  16  16  16  16  16
#     4  11  19  32  53  73  99 132 177 219 261 304
#     4   8  15  30  52  77 106 139 169 198 247 318
#     4   9  17  29  48  79 112 134 162 212 263 306
#     4  10  20  34  53  78 105 135 169 213 260 308
#     4  10  20  32  47  70 102 137 172 211 257 307
#     4  11  22  38  53  69  97 135 179 230 265 295
#     4  11  23  37  50  70 101 140 180 216 255 301
#
# _framework density 17.049014
#
# number of rings (size 3 to 8) (size 9 to 14) (size 15 to 20)
#    0.000    2.000    2.857    3.000    0.000    4.000 
#    0.000    2.143    0.000    2.571    0.000    8.000 
#    0.000    5.714    0.000    0.000    0.000    0.000 
#
# Total GULP energy -694385.431854 kJ/mol
# GULP energy per Si atom -12399.739855 kJ/mol
# Density = 1.701021 g / cm^3
# Si number density = 17.049014 Si / 1000 Ang^3
#
#
#
# Elastic Constant Matrix: (Units=GPa)
#
#
# Indices 1 2 3 4 5 6 
#
# 1 89.8772 33.4487 38.5966 0.0000 0.0000 0.0000
# 2 33.4487 94.4534 52.6104 0.0000 0.0000 0.0000
# 3 38.5966 52.6104 102.9687 0.0000 0.0000 0.0000
# 4 0.0000 0.0000 0.0000 19.5808 0.0000 0.0000
# 5 0.0000 0.0000 0.0000 0.0000 8.9292 0.0000
# 6 0.0000 0.0000 0.0000 0.0000 0.0000 24.6219
#
#
#
# Elastic Compliance Matrix: (Units=1/GPa)
#
#
# Indices 1 2 3 4 5 6 
#
# 1 0.013770 -0.002798 -0.003732 0.000000 0.000000 0.000000
# 2 -0.002798 0.015367 -0.006803 0.000000 0.000000 0.000000
# 3 -0.003732 -0.006803 0.014587 0.000000 0.000000 0.000000
# 4 0.000000 0.000000 0.000000 0.051070 0.000000 0.000000
# 5 0.000000 0.000000 0.000000 0.000000 0.111992 0.000000
# 6 0.000000 0.000000 0.000000 0.000000 0.000000 0.040614
#
#
# Mechanical properties :
#
#
# Convention : Reuss Voigt Hill
#
# Bulk Modulus (GPa) = 58.62235 59.62343 59.12289
# Shear Modulus (GPa) = 17.87292 21.46929 19.67110
#
# Velocity S-wave (km/s) = 3.24130 3.55247 3.40044
# Velocity P-wave (km/s) = 6.96184 7.20239 7.08314
#
# Compressibility (1/GPa) = 0.01705834
#
# Stress axis : x y z
#
# Youngs Moduli (GPa) = 72.62067 65.07360 68.55620
#
# Poissons Ratio (x) = 0.18205 0.25587
# Poissons Ratio (y) = 0.20316 0.46639
# Poissons Ratio (z) = 0.27103 0.44270
#
# Static dielectric constant tensor:
#      x y z
#    x 3.081440 0.000000 0.000000 
#    y 0.000000 3.238260 0.000000 
#    z 0.000000 0.000000 3.203360 
# 
# 
# High freq. dielectric constant tensor:
#      x y z
#    x 1.642010 0.000000 0.000000 
#    y 0.000000 1.661560 0.000000 
#    z 0.000000 0.000000 1.637460 
# 
# From -- ./inp_files/35107.got.cif
#   From: 2010.03.12/outbox.cif.g09.slc.cpg/sg67_18_cif.got.tgz:35107.got - 2010.04.10 22:41:39.
