data_PCOD8279128
_publ_section_title
;
Structure prediction by ZEFSAII (Michael W. Deem and Ramdas Pophale) SiO2 
 PCOD8279128
Probable space group: C M M A
;
_chemical_formula_sum "Si O2"
_cell_formula_units_Z 104
_cell_length_a 24.763869
_cell_length_b 8.583572
_cell_length_c 27.424950
_cell_angle_alpha 90.000000
_cell_angle_beta 90.000000
_cell_angle_gamma 90.000000
_cell_volume 5829.514633
_symmetry_space_group_name_H-M "C M M A"
_symmetry_group_IT_number 67
_symmetry_cell_setting 'orthorhombic'
loop_
_space_group_symop_operation_xyz
x,y,z
-x,1/2-y,z
x,-y,-z
-x,1/2+y,-z
-x,-y,-z
x,1/2+y,-z
-x,y,z
x,1/2-y,z
1/2+x,1/2+y,z
1/2-x,-y,z
1/2+x,1/2-y,-z
1/2-x,y,-z
1/2-x,1/2-y,-z
1/2+x,y,-z
1/2-x,1/2+y,z
1/2+x,-y,z
loop_
_atom_site_type_symbol
_atom_site_label
_atom_site_fract_x
_atom_site_fract_y
_atom_site_fract_z
Si Si1 0.915497 0.565744 0.367313
Si Si2 0.500000 0.930654 0.553073
Si Si3 0.500000 0.568930 0.296708
Si Si4 0.896457 0.566688 0.853736
Si Si5 0.808431 0.435014 0.331158
Si Si6 0.000000 0.931159 0.194774
Si Si7 0.306993 0.565997 0.220172
Si Si8 0.438435 0.566758 0.948476
O O1 0.920654 0.750000 0.357402
O O2 0.853111 0.511905 0.366876
O O3 0.945361 0.520541 0.417948
O O4 0.945644 0.467760 0.325851
O O5 0.500000 0.750000 0.545427
O O6 0.500000 0.000000 0.500000
O O7 0.500000 0.750000 0.280605
O O8 0.500000 0.450193 0.252234
O O9 0.891594 0.750000 0.859485
O O10 0.848622 0.499547 0.819751
O O11 0.896699 0.492766 0.907606
O O12 0.949828 0.520368 0.826408
O O13 0.808931 0.250000 0.337436
O O14 0.750000 0.500000 0.346978
O O15 0.821478 0.487327 0.275399
O O16 0.000000 0.750000 0.179328
O O17 0.305434 0.750000 0.218775
O O18 0.250000 0.500000 0.203810
O O19 0.500000 0.511205 0.936713
O O20 0.435684 0.750000 0.951035
O O21 0.418954 0.500000 0.000000
#
# Coordination Sequence:
#
# PCOD8279128 Si02
#       8
#    16   8   8  16  16   8  16  16
#     4  10  20  35  53  78 108 140 178 222 266 314
#     4   9  20  36  56  81 110 141 178 221 269 322
#     4  11  21  33  49  72 103 140 176 213 259 314
#     4  11  21  34  52  75 104 134 167 210 257 310
#     4  10  19  33  53  78 108 144 184 222 261 310
#     4  12  23  33  47  73 105 139 171 206 257 310
#     4   9  20  35  52  75 103 138 177 212 251 299
#     4  10  20  34  52  74 100 130 167 207 257 315
#
# _framework density 17.840250999999999
#
# number of rings (size 3 to 8) (size 9 to 14) (size 15 to 20)
#    0.000    1.846    0.769    4.615    0.000    5.538 
#    0.000    0.000    0.000    0.923    0.000    6.462 
#    0.000    0.000    0.000    0.000    0.000    0.000 
#
# Total GULP energy -644743.833416 kJ/mol
# GULP energy per Si atom -12398.919873 kJ/mol
# Density = 1.779965 g / cm^3
# Si number density = 17.840251 Si / 1000 Ang^3
#
#
#
# Elastic Constant Matrix: (Units=GPa)
#
#
# Indices 1 2 3 4 5 6 
#
# 1 133.1519 27.7161 64.7486 0.0000 0.0000 0.0000
# 2 27.7161 49.8714 26.2852 0.0000 0.0000 0.0000
# 3 64.7486 26.2852 119.9033 0.0000 0.0000 0.0000
# 4 0.0000 0.0000 0.0000 30.1945 0.0000 0.0000
# 5 0.0000 0.0000 0.0000 0.0000 23.2992 0.0000
# 6 0.0000 0.0000 0.0000 0.0000 0.0000 30.4110
#
#
#
# Elastic Compliance Matrix: (Units=1/GPa)
#
#
# Indices 1 2 3 4 5 6 
#
# 1 0.010634 -0.003260 -0.005028 0.000000 0.000000 0.000000
# 2 -0.003260 0.023670 -0.003429 0.000000 0.000000 0.000000
# 3 -0.005028 -0.003429 0.011807 0.000000 0.000000 0.000000
# 4 0.000000 0.000000 0.000000 0.033119 0.000000 0.000000
# 5 0.000000 0.000000 0.000000 0.000000 0.042920 0.000000
# 6 0.000000 0.000000 0.000000 0.000000 0.000000 0.032883
#
#
# Mechanical properties :
#
#
# Convention : Reuss Voigt Hill
#
# Bulk Modulus (GPa) = 44.09490 60.04739 52.07114
# Shear Modulus (GPa) = 26.87833 29.05938 27.96885
#
# Velocity S-wave (km/s) = 3.88572 4.04030 3.96376
# Velocity P-wave (km/s) = 6.70089 7.44962 7.08515
#
# Compressibility (1/GPa) = 0.02267836
#
# Stress axis : x y z
#
# Youngs Moduli (GPa) = 94.04203 42.24699 84.69819
#
# Poissons Ratio (x) = 0.13772 0.42583
# Poissons Ratio (y) = 0.30656 0.29041
# Poissons Ratio (z) = 0.47280 0.14485
#
# Static dielectric constant tensor:
#      x y z
#    x 3.355780 0.000000 0.000000 
#    y 0.000000 3.323560 0.000000 
#    z 0.000000 0.000000 3.165670 
# 
# 
# High freq. dielectric constant tensor:
#      x y z
#    x 1.680520 0.000000 0.000000 
#    y 0.000000 1.700190 0.000000 
#    z 0.000000 0.000000 1.677930 
# 
# From -- ./inp_files/44853.got.cif
#   From: 2010.03.12/outbox.cif.g09.slc.cpg/sg67_23_cif.got.tgz:44853.got - 2010.04.10 22:41:39.
