data_PCOD8279847
_publ_section_title
;
Structure prediction by ZEFSAII (Michael W. Deem and Ramdas Pophale) SiO2 
 PCOD8279847
Probable space group: C M M A
;
_chemical_formula_sum "Si O2"
_cell_formula_units_Z 80
_cell_length_a 18.877326
_cell_length_b 8.744036
_cell_length_c 25.715006
_cell_angle_alpha 90.000000
_cell_angle_beta 90.000000
_cell_angle_gamma 90.000000
_cell_volume 4244.622217
_symmetry_space_group_name_H-M "C M M A"
_symmetry_group_IT_number 67
_symmetry_cell_setting 'orthorhombic'
loop_
_space_group_symop_operation_xyz
x,y,z
-x,1/2-y,z
x,-y,-z
-x,1/2+y,-z
-x,-y,-z
x,1/2+y,-z
-x,y,z
x,1/2-y,z
1/2+x,1/2+y,z
1/2-x,-y,z
1/2+x,1/2-y,-z
1/2-x,y,-z
1/2-x,1/2-y,-z
1/2+x,y,-z
1/2-x,1/2+y,z
1/2+x,-y,z
loop_
_atom_site_type_symbol
_atom_site_label
_atom_site_fract_x
_atom_site_fract_y
_atom_site_fract_z
Si Si1 0.919827 0.569206 0.243372
Si Si2 0.826760 0.931865 0.553450
Si Si3 0.419380 0.570283 0.349876
Si Si4 0.327705 0.431573 0.146647
Si Si5 0.081423 0.429061 0.055611
O O1 0.919132 0.750000 0.245440
O O2 0.888785 0.506201 0.297607
O O3 0.870601 0.508576 0.196920
O O4 0.000000 0.507975 0.234465
O O5 0.822702 0.750000 0.549055
O O6 0.875885 0.987712 0.600524
O O7 0.858508 0.000000 0.500000
O O8 0.750000 0.000000 0.564121
O O9 0.500000 0.518467 0.358810
O O10 0.412275 0.750000 0.343090
O O11 0.323218 0.250000 0.145247
O O12 0.250000 0.500000 0.148790
O O13 0.367849 0.488660 0.095953
O O14 0.098064 0.250000 0.054242
O O15 0.000000 0.461388 0.071084
O O16 0.099008 0.500000 0.000000
#
# Coordination Sequence:
#
# PCOD8279847 Si02
#       5
#    16  16  16  16  16
#     4   9  19  36  57  79 104 138 178 219 265 317
#     4  10  20  34  52  74 102 136 173 212 257 310
#     4   9  19  35  54  77 104 134 171 216 263 311
#     4  11  23  38  56  81 114 147 183 226 271 320
#     4  10  21  38  61  87 113 144 183 224 269 322
#
# _framework density 18.847379
#
# number of rings (size 3 to 8) (size 9 to 14) (size 15 to 20)
#    0.000    2.200    0.000    3.000    0.000    6.800 
#    0.000    8.000    0.000    0.000    0.000    0.000 
#    0.000    0.000    0.000    0.000    0.000    0.000 
#
# Total GULP energy -496096.194225 kJ/mol
# GULP energy per Si atom -12402.404856 kJ/mol
# Density = 1.880448 g / cm^3
# Si number density = 18.847379 Si / 1000 Ang^3
#
#
#
# Elastic Constant Matrix: (Units=GPa)
#
#
# Indices 1 2 3 4 5 6 
#
# 1 110.6742 41.2744 99.8727 0.0000 0.0000 0.0000
# 2 41.2744 63.5050 51.8131 0.0000 0.0000 0.0000
# 3 99.8727 51.8131 177.3564 0.0000 0.0000 0.0000
# 4 0.0000 0.0000 0.0000 36.0352 0.0000 0.0000
# 5 0.0000 0.0000 0.0000 0.0000 19.2494 0.0000
# 6 0.0000 0.0000 0.0000 0.0000 0.0000 25.5550
#
#
#
# Elastic Compliance Matrix: (Units=1/GPa)
#
#
# Indices 1 2 3 4 5 6 
#
# 1 0.019452 -0.004865 -0.009533 0.000000 0.000000 0.000000
# 2 -0.004865 0.021892 -0.003656 0.000000 0.000000 0.000000
# 3 -0.009533 -0.003656 0.012074 0.000000 0.000000 0.000000
# 4 0.000000 0.000000 0.000000 0.027751 0.000000 0.000000
# 5 0.000000 0.000000 0.000000 0.000000 0.051950 0.000000
# 6 0.000000 0.000000 0.000000 0.000000 0.000000 0.039131
#
#
# Mechanical properties :
#
#
# Convention : Reuss Voigt Hill
#
# Bulk Modulus (GPa) = 57.76658 81.93957 69.85307
# Shear Modulus (GPa) = 23.35063 26.73961 25.04512
#
# Velocity S-wave (km/s) = 3.52367 3.77071 3.64928
# Velocity P-wave (km/s) = 6.87540 7.90742 7.40940
#
# Compressibility (1/GPa) = 0.01731105
#
# Stress axis : x y z
#
# Youngs Moduli (GPa) = 51.40827 45.67966 82.82050
#
# Poissons Ratio (x) = 0.22224 0.78949
# Poissons Ratio (y) = 0.25011 0.30277
# Poissons Ratio (z) = 0.49005 0.16699
#
# Static dielectric constant tensor:
#      x y z
#    x 3.521670 0.000000 0.000000 
#    y 0.000000 3.439890 0.000000 
#    z 0.000000 0.000000 3.684790 
# 
# 
# High freq. dielectric constant tensor:
#      x y z
#    x 1.726920 0.000000 0.000000 
#    y 0.000000 1.736000 0.000000 
#    z 0.000000 0.000000 1.747650 
# 
# From -- ./inp_files/43230.got.cif
#   From: 2010.03.12/outbox.cif.g09.slc.cpg/sg67_22_cif.got.tgz:43230.got - 2010.04.10 22:41:39.
