data_PCOD8279515
_publ_section_title
;
Structure prediction by ZEFSAII (Michael W. Deem and Ramdas Pophale) SiO2 
 PCOD8279515
Probable space group: C M M A
;
_chemical_formula_sum "Si O2"
_cell_formula_units_Z 112
_cell_length_a 28.589899
_cell_length_b 13.747448
_cell_length_c 11.378043
_cell_angle_alpha 90.000000
_cell_angle_beta 90.000000
_cell_angle_gamma 90.000000
_cell_volume 4472.004969
_symmetry_space_group_name_H-M "C M M A"
_symmetry_group_IT_number 67
_symmetry_cell_setting 'orthorhombic'
loop_
_space_group_symop_operation_xyz
x,y,z
-x,1/2-y,z
x,-y,-z
-x,1/2+y,-z
-x,-y,-z
x,1/2+y,-z
-x,y,z
x,1/2-y,z
1/2+x,1/2+y,z
1/2-x,-y,z
1/2+x,1/2-y,-z
1/2-x,y,-z
1/2-x,1/2-y,-z
1/2+x,y,-z
1/2-x,1/2+y,z
1/2+x,-y,z
loop_
_atom_site_type_symbol
_atom_site_label
_atom_site_fract_x
_atom_site_fract_y
_atom_site_fract_z
Si Si1 0.084679 0.633847 0.187043
Si Si2 0.051020 0.599493 0.431498
Si Si3 0.317459 0.366234 0.284772
Si Si4 0.734627 0.365355 0.874179
Si Si5 0.863416 0.866181 0.777479
Si Si6 0.447330 0.634009 0.065685
Si Si7 0.145829 0.855045 0.522467
O O1 0.079074 0.750000 0.191816
O O2 0.053987 0.586209 0.290634
O O3 0.138997 0.602198 0.202480
O O4 0.065592 0.592170 0.063212
O O5 0.057867 0.500000 0.500000
O O6 0.093440 0.666836 0.474131
O O7 0.000000 0.644528 0.462305
O O8 0.316707 0.250000 0.294586
O O9 0.269990 0.406947 0.225685
O O10 0.324215 0.408040 0.418933
O O11 0.738332 0.250000 0.874258
O O12 0.681926 0.399592 0.850184
O O13 0.750000 0.407511 0.000000
O O14 0.867431 0.750000 0.769632
O O15 0.910355 0.908308 0.838657
O O16 0.857091 0.912665 0.646544
O O17 0.500000 0.602544 0.100180
O O18 0.442622 0.750000 0.061781
O O19 0.168932 0.750000 0.548857
#
# Coordination Sequence:
#
# PCOD8279515 Si02
#       7
#    16  16  16  16  16  16  16
#     4   9  16  28  47  70  94 121 159 201 238 280
#     4  10  20  32  47  68  93 121 155 196 239 281
#     4   8  14  24  39  61  88 118 151 186 228 278
#     4   9  15  23  38  62  94 126 150 184 238 285
#     4   9  17  27  40  64  96 125 155 191 234 284
#     4   9  16  25  39  61  90 123 158 198 239 277
#     4   9  18  31  46  66  93 124 156 190 230 282
#
# _framework density 25.044694
#
# number of rings (size 3 to 8) (size 9 to 14) (size 15 to 20)
#    0.000    3.000    0.000    2.571    0.000    6.286 
#    0.000    4.286    0.000    0.857    0.000   11.000 
#    0.000    4.571    0.000    0.000    0.000    0.000 
#
# Total GULP energy -693978.483303 kJ/mol
# GULP energy per Si atom -12392.472916 kJ/mol
# Density = 2.498769 g / cm^3
# Si number density = 25.044694 Si / 1000 Ang^3
#
#
#
# Elastic Constant Matrix: (Units=GPa)
#
#
# Indices 1 2 3 4 5 6 
#
# 1 189.3460 4.7922 113.0208 0.0000 0.0000 0.0000
# 2 4.7922 15.9908 7.9528 0.0000 0.0000 0.0000
# 3 113.0208 7.9528 239.3838 0.0000 0.0000 0.0000
# 4 0.0000 0.0000 0.0000 -0.4569 0.0000 0.0000
# 5 0.0000 0.0000 0.0000 0.0000 35.5976 0.0000
# 6 0.0000 0.0000 0.0000 0.0000 0.0000 8.7750
#
#
#
# Elastic Compliance Matrix: (Units=1/GPa)
#
#
# Indices 1 2 3 4 5 6 
#
# 1 0.007357 -0.000485 -0.003458 0.000000 0.000000 0.000000
# 2 -0.000485 0.063619 -0.001884 0.000000 0.000000 0.000000
# 3 -0.003458 -0.001884 0.005872 0.000000 0.000000 0.000000
# 4 0.000000 0.000000 0.000000 -2.188522 0.000000 0.000000
# 5 0.000000 0.000000 0.000000 0.000000 0.028092 0.000000
# 6 0.000000 0.000000 0.000000 0.000000 0.000000 0.113960
#
#
# Mechanical properties :
#
#
# Convention : Reuss Voigt Hill
#
# Bulk Modulus (GPa) = 15.33885 77.36136 46.35010
# Shear Modulus (GPa) = -2.58233 30.04679 13.73223
#
# Velocity S-wave (km/s) = -1.01653 3.46746 2.34414
# Velocity P-wave (km/s) = 2.18177 6.85474 5.08663
#
# Compressibility (1/GPa) = 0.06519394
#
# Stress axis : x y z
#
# Youngs Moduli (GPa) = 135.91683 15.71865 170.28754
#
# Poissons Ratio (x) = 0.00763 0.58878
# Poissons Ratio (y) = 0.06597 0.32089
# Poissons Ratio (z) = 0.46994 0.02962
#
# Static dielectric constant tensor:
#      x y z
#    x 4.598800 0.000000 0.000000 
#    y 0.000000 3.926690 0.000000 
#    z 0.000000 0.000000 4.797140 
# 
# 
# High freq. dielectric constant tensor:
#      x y z
#    x 1.989230 0.000000 0.000000 
#    y 0.000000 1.980570 0.000000 
#    z 0.000000 0.000000 2.002620 
# 
# From -- ./inp_files/23152.got.cif
#   From: 2010.03.12/outbox.cif.g09.slc.cpg/sg67_12_cif.got.tgz:23152.got - 2010.04.10 22:41:39.
