data_PCOD8279144
_publ_section_title
;
Structure prediction by ZEFSAII (Michael W. Deem and Ramdas Pophale) SiO2 
 PCOD8279144
Probable space group: C M M A
;
_chemical_formula_sum "Si O2"
_cell_formula_units_Z 96
_cell_length_a 18.711842
_cell_length_b 8.655266
_cell_length_c 30.935657
_cell_angle_alpha 90.000000
_cell_angle_beta 90.000000
_cell_angle_gamma 90.000000
_cell_volume 5010.214333
_symmetry_space_group_name_H-M "C M M A"
_symmetry_group_IT_number 67
_symmetry_cell_setting 'orthorhombic'
loop_
_space_group_symop_operation_xyz
x,y,z
-x,1/2-y,z
x,-y,-z
-x,1/2+y,-z
-x,-y,-z
x,1/2+y,-z
-x,y,z
x,1/2-y,z
1/2+x,1/2+y,z
1/2-x,-y,z
1/2+x,1/2-y,-z
1/2-x,y,-z
1/2-x,1/2-y,-z
1/2+x,y,-z
1/2-x,1/2+y,z
1/2+x,-y,z
loop_
_atom_site_type_symbol
_atom_site_label
_atom_site_fract_x
_atom_site_fract_y
_atom_site_fract_z
Si Si1 0.672092 0.433462 0.785376
Si Si2 0.918118 0.568651 0.453523
Si Si3 0.080882 0.432379 0.955926
Si Si4 0.671303 0.566888 0.376604
Si Si5 0.827587 0.066351 0.875368
Si Si6 0.080293 0.933521 0.704421
O O1 0.677523 0.250000 0.787977
O O2 0.750000 0.500000 0.775025
O O3 0.641792 0.499240 0.830500
O O4 0.618414 0.490239 0.748167
O O5 0.899579 0.500000 0.500000
O O6 0.903521 0.750000 0.454088
O O7 0.865405 0.487853 0.420345
O O8 0.000000 0.530890 0.440846
O O9 0.084961 0.250000 0.958563
O O10 0.123209 0.493618 0.914340
O O11 0.000000 0.492353 0.951031
O O12 0.114958 0.500000 0.000000
O O13 0.675934 0.750000 0.376304
O O14 0.750000 0.500000 0.372493
O O15 0.624555 0.503637 0.336513
O O16 0.824862 0.250000 0.872333
O O17 0.750000 0.000000 0.884554
O O18 0.077661 0.750000 0.703159
O O19 0.000000 0.001946 0.702864
#
# Coordination Sequence:
#
# PCOD8279144 Si02
#       6
#    16  16  16  16  16  16
#     4  10  19  33  54  77 104 137 173 213 257 309
#     4  10  21  38  60  86 115 146 183 226 272 324
#     4   9  19  35  53  73  99 132 169 210 256 305
#     4  11  22  37  58  82 112 148 185 226 273 322
#     4  10  20  34  52  75 104 135 169 210 256 307
#     4   9  19  35  55  80 108 139 177 220 266 317
#
# _framework density 19.160857
#
# number of rings (size 3 to 8) (size 9 to 14) (size 15 to 20)
#    0.000    2.167    0.000    4.000    0.000    4.333 
#    0.000    5.833    0.000    5.500    0.000    0.000 
#    0.000    0.000    0.000    0.000    0.000    0.000 
#
# Total GULP energy -595286.844409 kJ/mol
# GULP energy per Si atom -12401.809259 kJ/mol
# Density = 1.911725 g / cm^3
# Si number density = 19.160857 Si / 1000 Ang^3
#
#
#
# Elastic Constant Matrix: (Units=GPa)
#
#
# Indices 1 2 3 4 5 6 
#
# 1 135.2140 37.2888 107.8412 0.0000 0.0000 0.0000
# 2 37.2888 65.3700 45.8405 0.0000 0.0000 0.0000
# 3 107.8412 45.8405 181.5388 0.0000 0.0000 0.0000
# 4 0.0000 0.0000 0.0000 25.4752 0.0000 0.0000
# 5 0.0000 0.0000 0.0000 0.0000 45.3295 0.0000
# 6 0.0000 0.0000 0.0000 0.0000 0.0000 20.3108
#
#
#
# Elastic Compliance Matrix: (Units=1/GPa)
#
#
# Indices 1 2 3 4 5 6 
#
# 1 0.014436 -0.002699 -0.007894 0.000000 0.000000 0.000000
# 2 -0.002699 0.019094 -0.003218 0.000000 0.000000 0.000000
# 3 -0.007894 -0.003218 0.011010 0.000000 0.000000 0.000000
# 4 0.000000 0.000000 0.000000 0.039254 0.000000 0.000000
# 5 0.000000 0.000000 0.000000 0.000000 0.022061 0.000000
# 6 0.000000 0.000000 0.000000 0.000000 0.000000 0.049235
#
#
# Mechanical properties :
#
#
# Convention : Reuss Voigt Hill
#
# Bulk Modulus (GPa) = 59.10863 84.89595 72.00229
# Shear Modulus (GPa) = 26.54619 30.96660 28.75639
#
# Velocity S-wave (km/s) = 3.72619 4.02448 3.87820
# Velocity P-wave (km/s) = 7.03052 8.12394 7.59693
#
# Compressibility (1/GPa) = 0.01691800
#
# Stress axis : x y z
#
# Youngs Moduli (GPa) = 69.27166 52.37303 90.82324
#
# Poissons Ratio (x) = 0.14135 0.71696
# Poissons Ratio (y) = 0.18696 0.29228
# Poissons Ratio (z) = 0.54683 0.16854
#
# Static dielectric constant tensor:
#      x y z
#    x 3.613080 0.000000 0.000000 
#    y 0.000000 3.387360 0.000000 
#    z 0.000000 0.000000 3.783920 
# 
# 
# High freq. dielectric constant tensor:
#      x y z
#    x 1.743700 0.000000 0.000000 
#    y 0.000000 1.738350 0.000000 
#    z 0.000000 0.000000 1.762690 
# 
# From -- ./inp_files/44589.got.cif
#   From: 2010.03.12/outbox.cif.g09.slc.cpg/sg67_23_cif.got.tgz:44589.got - 2010.04.10 22:41:39.
