data_PCOD8279506
_publ_section_title
;
Structure prediction by ZEFSAII (Michael W. Deem and Ramdas Pophale) SiO2 
 PCOD8279506
Probable space group: C M M A
;
_chemical_formula_sum "Si O2"
_cell_formula_units_Z 96
_cell_length_a 26.935842
_cell_length_b 9.113778
_cell_length_c 24.088953
_cell_angle_alpha 90.000000
_cell_angle_beta 90.000000
_cell_angle_gamma 90.000000
_cell_volume 5913.531652
_symmetry_space_group_name_H-M "C M M A"
_symmetry_group_IT_number 67
_symmetry_cell_setting 'orthorhombic'
loop_
_space_group_symop_operation_xyz
x,y,z
-x,1/2-y,z
x,-y,-z
-x,1/2+y,-z
-x,-y,-z
x,1/2+y,-z
-x,y,z
x,1/2-y,z
1/2+x,1/2+y,z
1/2-x,-y,z
1/2+x,1/2-y,-z
1/2-x,y,-z
1/2-x,1/2-y,-z
1/2+x,y,-z
1/2-x,1/2+y,z
1/2+x,-y,z
loop_
_atom_site_type_symbol
_atom_site_label
_atom_site_fract_x
_atom_site_fract_y
_atom_site_fract_z
Si Si1 0.441147 0.911250 0.551303
Si Si2 0.899410 0.077475 0.223496
Si Si3 0.200199 0.581677 0.836422
Si Si4 0.442756 0.919276 0.878798
Si Si5 0.360002 0.075893 0.943626
Si Si6 0.557507 0.577334 0.674347
O O1 0.500000 0.903199 0.544925
O O2 0.417993 0.750000 0.547215
O O3 0.428543 0.976946 0.612037
O O4 0.417380 0.000000 0.500000
O O5 0.911235 0.250000 0.219351
O O6 0.842249 0.045007 0.208404
O O7 0.935236 0.991884 0.181371
O O8 0.908517 0.017787 0.285024
O O9 0.214172 0.750000 0.835608
O O10 0.250000 0.500000 0.819648
O O11 0.181048 0.536608 0.897495
O O12 0.500000 0.930484 0.895537
O O13 0.425215 0.750000 0.876636
O O14 0.412531 0.007317 0.925517
O O15 0.366521 0.250000 0.951024
O O16 0.341737 0.000000 0.000000
O O17 0.500000 0.544929 0.687193
O O18 0.568387 0.750000 0.681205
#
# Coordination Sequence:
#
# PCOD8279506 Si02
#       6
#    16  16  16  16  16  16
#     4   8  14  24  37  55  83 119 158 195 225 255
#     4  10  20  32  46  68  94 117 148 188 226 267
#     4   9  20  36  52  70  90 113 142 179 224 272
#     4  10  20  33  49  68  91 122 155 184 219 261
#     4  10  21  36  52  72  95 117 146 181 217 262
#     4   9  17  28  42  63  92 126 161 192 222 260
#
# _framework density 16.233953
#
# number of rings (size 3 to 8) (size 9 to 14) (size 15 to 20)
#    0.000    2.667    0.000    4.000    0.000    9.000 
#    0.000    3.333    0.000    0.000    0.000    0.000 
#    0.000    0.667    0.000    7.333    0.000    5.667 
#
# Total GULP energy -595095.885620 kJ/mol
# GULP energy per Si atom -12397.830950 kJ/mol
# Density = 1.619700 g / cm^3
# Si number density = 16.233953 Si / 1000 Ang^3
#
#
#
# Elastic Constant Matrix: (Units=GPa)
#
#
# Indices 1 2 3 4 5 6 
#
# 1 66.9472 38.0950 33.4904 0.0000 0.0000 0.0000
# 2 38.0950 84.6005 49.6059 0.0000 0.0000 0.0000
# 3 33.4904 49.6059 118.4390 0.0000 0.0000 0.0000
# 4 0.0000 0.0000 0.0000 33.1601 0.0000 0.0000
# 5 0.0000 0.0000 0.0000 0.0000 10.5868 0.0000
# 6 0.0000 0.0000 0.0000 0.0000 0.0000 24.3900
#
#
#
# Elastic Compliance Matrix: (Units=1/GPa)
#
#
# Indices 1 2 3 4 5 6 
#
# 1 0.020661 -0.007791 -0.002579 0.000000 0.000000 0.000000
# 2 -0.007791 0.018606 -0.005590 0.000000 0.000000 0.000000
# 3 -0.002579 -0.005590 0.011514 0.000000 0.000000 0.000000
# 4 0.000000 0.000000 0.000000 0.030157 0.000000 0.000000
# 5 0.000000 0.000000 0.000000 0.000000 0.094457 0.000000
# 6 0.000000 0.000000 0.000000 0.000000 0.000000 0.041000
#
#
# Mechanical properties :
#
#
# Convention : Reuss Voigt Hill
#
# Bulk Modulus (GPa) = 53.02046 56.92993 54.97519
# Shear Modulus (GPa) = 19.63853 23.54707 21.59280
#
# Velocity S-wave (km/s) = 3.48188 3.81265 3.65101
# Velocity P-wave (km/s) = 6.99255 7.38419 7.19104
#
# Compressibility (1/GPa) = 0.01886065
#
# Stress axis : x y z
#
# Youngs Moduli (GPa) = 48.40113 53.74558 86.85406
#
# Poissons Ratio (x) = 0.41874 0.22399
# Poissons Ratio (y) = 0.37710 0.48549
# Poissons Ratio (z) = 0.12482 0.30043
#
# Static dielectric constant tensor:
#      x y z
#    x 2.734580 0.000000 0.000000 
#    y 0.000000 3.208800 0.000000 
#    z 0.000000 0.000000 3.169760 
# 
# 
# High freq. dielectric constant tensor:
#      x y z
#    x 1.585210 0.000000 0.000000 
#    y 0.000000 1.634420 0.000000 
#    z 0.000000 0.000000 1.624490 
# 
# From -- ./inp_files/40899.got.cif
#   From: 2010.03.12/outbox.cif.g09.slc.cpg/sg67_21_cif.got.tgz:40899.got - 2010.04.10 22:41:39.
