data_PCOD8279294
_publ_section_title
;
Structure prediction by ZEFSAII (Michael W. Deem and Ramdas Pophale) SiO2 
 PCOD8279294
Probable space group: C M M A
;
_chemical_formula_sum "Si O2"
_cell_formula_units_Z 80
_cell_length_a 9.709413
_cell_length_b 17.899845
_cell_length_c 24.017139
_cell_angle_alpha 90.000000
_cell_angle_beta 90.000000
_cell_angle_gamma 90.000000
_cell_volume 4174.106412
_symmetry_space_group_name_H-M "C M M A"
_symmetry_group_IT_number 67
_symmetry_cell_setting 'orthorhombic'
loop_
_space_group_symop_operation_xyz
x,y,z
-x,1/2-y,z
x,-y,-z
-x,1/2+y,-z
-x,-y,-z
x,1/2+y,-z
-x,y,z
x,1/2-y,z
1/2+x,1/2+y,z
1/2-x,-y,z
1/2+x,1/2-y,-z
1/2-x,y,-z
1/2-x,1/2-y,-z
1/2+x,y,-z
1/2-x,1/2+y,z
1/2+x,-y,z
loop_
_atom_site_type_symbol
_atom_site_label
_atom_site_fract_x
_atom_site_fract_y
_atom_site_fract_z
Si Si1 0.500000 0.161872 0.540723
Si Si2 0.657870 0.661242 0.949122
Si Si3 0.340877 0.662968 0.154549
Si Si4 0.845319 0.070532 0.262254
Si Si5 0.283697 0.161771 0.629948
Si Si6 0.500000 0.838639 0.582883
O O1 0.500000 0.250000 0.533317
O O2 0.366477 0.136351 0.575118
O O3 0.500000 0.125259 0.479137
O O4 0.500000 0.629885 0.950457
O O5 0.652308 0.750000 0.952829
O O6 0.736975 0.635477 0.893465
O O7 0.750000 0.629479 0.000000
O O8 0.500000 0.647892 0.137056
O O9 0.319342 0.750000 0.167344
O O10 0.296454 0.617917 0.209155
O O11 0.842374 0.123101 0.315749
O O12 0.000000 0.041693 0.253097
O O13 0.750000 0.000000 0.271254
O O14 0.296871 0.250000 0.639449
O O15 0.129220 0.134385 0.618809
O O16 0.500000 0.750000 0.576495
#
# Coordination Sequence:
#
# PCOD8279294 Si02
#       6
#     8  16  16  16  16   8
#     4   9  16  30  55  83 111 137 172 217 266 323
#     4   9  16  27  47  79 115 146 175 213 264 315
#     4   9  18  34  56  80 106 139 182 225 265 315
#     4  11  24  39  56  76 105 145 184 226 275 324
#     4  10  19  34  57  83 109 139 178 221 267 321
#     4   9  18  30  51  87 115 135 166 219 276 317
#
# _framework density 19.165779000000001
#
# number of rings (size 3 to 8) (size 9 to 14) (size 15 to 20)
#    0.000    2.400    1.000    1.800    1.400    6.400 
#    0.000    0.000    0.000    4.200    0.000    4.200 
#    0.000    0.000    0.000    0.000    0.000    0.000 
#
# Total GULP energy -495914.534170 kJ/mol
# GULP energy per Si atom -12397.863354 kJ/mol
# Density = 1.912216 g / cm^3
# Si number density = 19.165779 Si / 1000 Ang^3
#
#
#
# Elastic Constant Matrix: (Units=GPa)
#
#
# Indices 1 2 3 4 5 6 
#
# 1 115.1418 21.2409 35.9136 0.0000 0.0000 0.0000
# 2 21.2409 37.9357 25.6697 0.0000 0.0000 0.0000
# 3 35.9136 25.6697 112.9451 0.0000 0.0000 0.0000
# 4 0.0000 0.0000 0.0000 -1.0119 0.0000 0.0000
# 5 0.0000 0.0000 0.0000 0.0000 40.9818 0.0000
# 6 0.0000 0.0000 0.0000 0.0000 0.0000 18.4566
#
#
#
# Elastic Compliance Matrix: (Units=1/GPa)
#
#
# Indices 1 2 3 4 5 6 
#
# 1 0.010163 -0.004141 -0.002291 0.000000 0.000000 0.000000
# 2 -0.004141 0.032838 -0.006147 0.000000 0.000000 0.000000
# 3 -0.002291 -0.006147 0.010979 0.000000 0.000000 0.000000
# 4 0.000000 0.000000 0.000000 -0.988286 0.000000 0.000000
# 5 0.000000 0.000000 0.000000 0.000000 0.024401 0.000000
# 6 0.000000 0.000000 0.000000 0.000000 0.000000 0.054181
#
#
# Mechanical properties :
#
#
# Convention : Reuss Voigt Hill
#
# Bulk Modulus (GPa) = 34.69249 47.96347 41.32798
# Shear Modulus (GPa) = -6.09044 23.89853 8.90405
#
# Velocity S-wave (km/s) = -1.78456 3.53503 2.15775
# Velocity P-wave (km/s) = 3.72751 6.46079 5.27429
#
# Compressibility (1/GPa) = 0.02882468
#
# Stress axis : x y z
#
# Youngs Moduli (GPa) = 98.39378 30.45249 91.08141
#
# Poissons Ratio (x) = 0.12609 0.20863
# Poissons Ratio (y) = 0.40741 0.55985
# Poissons Ratio (z) = 0.22538 0.18718
#
# Static dielectric constant tensor:
#      x y z
#    x 3.742650 0.000000 0.000000 
#    y 0.000000 2.963790 0.000000 
#    z 0.000000 0.000000 3.617160 
# 
# 
# High freq. dielectric constant tensor:
#      x y z
#    x 1.760720 0.000000 0.000000 
#    y 0.000000 1.689300 0.000000 
#    z 0.000000 0.000000 1.757850 
# 
# From -- ./inp_files/43369.got.cif
#   From: 2010.03.12/outbox.cif.g09.slc.cpg/sg67_22_cif.got.tgz:43369.got - 2010.04.10 22:41:39.
