data_PCOD8279199
_publ_section_title
;
Structure prediction by ZEFSAII (Michael W. Deem and Ramdas Pophale) SiO2 
 PCOD8279199
Probable space group: C M M A
;
_chemical_formula_sum "Si O2"
_cell_formula_units_Z 112
_cell_length_a 19.574894
_cell_length_b 17.841713
_cell_length_c 17.463647
_cell_angle_alpha 90.000000
_cell_angle_beta 90.000000
_cell_angle_gamma 90.000000
_cell_volume 6099.172441
_symmetry_space_group_name_H-M "C M M A"
_symmetry_group_IT_number 67
_symmetry_cell_setting 'orthorhombic'
loop_
_space_group_symop_operation_xyz
x,y,z
-x,1/2-y,z
x,-y,-z
-x,1/2+y,-z
-x,-y,-z
x,1/2+y,-z
-x,y,z
x,1/2-y,z
1/2+x,1/2+y,z
1/2-x,-y,z
1/2+x,1/2-y,-z
1/2-x,y,-z
1/2-x,1/2-y,-z
1/2+x,y,-z
1/2-x,1/2+y,z
1/2+x,-y,z
loop_
_atom_site_type_symbol
_atom_site_label
_atom_site_fract_x
_atom_site_fract_y
_atom_site_fract_z
Si Si1 0.183881 0.162207 0.729631
Si Si2 0.317951 0.834869 0.174904
Si Si3 0.923067 0.836776 0.547070
Si Si4 0.079429 0.548504 0.210045
Si Si5 0.804079 0.338049 0.559269
Si Si6 0.921575 0.604199 0.708130
Si Si7 0.825366 0.020808 0.087844
O O1 0.167577 0.250000 0.726056
O O2 0.245795 0.143952 0.786570
O O3 0.114814 0.123023 0.758255
O O4 0.203196 0.130178 0.645269
O O5 0.317405 0.750000 0.143532
O O6 0.376749 0.842688 0.238068
O O7 0.333056 0.889905 0.103354
O O8 0.914154 0.750000 0.569600
O O9 0.878962 0.857693 0.472895
O O10 0.898705 0.884362 0.620437
O O11 0.000000 0.856596 0.523884
O O12 0.088932 0.482802 0.272088
O O13 0.116068 0.524383 0.131691
O O14 0.000000 0.565124 0.193108
O O15 0.790470 0.250000 0.563149
O O16 0.750000 0.374665 0.500000
O O17 0.000000 0.629319 0.719242
O O18 0.750000 0.000000 0.117697
O O19 0.834820 0.000000 0.000000
#
# Coordination Sequence:
#
# PCOD8279199 Si02
#       7
#    16  16  16  16  16  16  16
#     4  10  20  34  53  77 104 140 186 229 268 313
#     4  10  19  33  56  84 110 138 175 220 265 314
#     4   9  16  27  44  68  98 133 172 214 264 316
#     4  10  21  37  56  79 107 143 181 217 264 325
#     4   9  17  29  46  70 100 134 176 227 274 315
#     4   9  18  31  51  77 106 140 177 221 273 321
#     4  10  20  38  61  83 111 142 173 212 265 324
#
# _framework density 18.363147000000001
#
# number of rings (size 3 to 8) (size 9 to 14) (size 15 to 20)
#    0.000    2.429    1.429    1.286    0.000    4.286 
#    0.000    4.286    0.000    3.429    0.000    0.000 
#    0.000    0.000    0.000    0.000    0.000    0.000 
#
# Total GULP energy -694323.301254 kJ/mol
# GULP energy per Si atom -12398.630380 kJ/mol
# Density = 1.832135 g / cm^3
# Si number density = 18.363147 Si / 1000 Ang^3
#
#
#
# Elastic Constant Matrix: (Units=GPa)
#
#
# Indices 1 2 3 4 5 6 
#
# 1 99.2977 37.5016 44.0822 0.0000 0.0000 0.0000
# 2 37.5016 69.1187 52.4387 0.0000 0.0000 0.0000
# 3 44.0822 52.4387 105.8894 0.0000 0.0000 0.0000
# 4 0.0000 0.0000 0.0000 22.7352 0.0000 0.0000
# 5 0.0000 0.0000 0.0000 0.0000 25.6122 0.0000
# 6 0.0000 0.0000 0.0000 0.0000 0.0000 22.2830
#
#
#
# Elastic Compliance Matrix: (Units=1/GPa)
#
#
# Indices 1 2 3 4 5 6 
#
# 1 0.013288 -0.004826 -0.003142 0.000000 0.000000 0.000000
# 2 -0.004826 0.024928 -0.010336 0.000000 0.000000 0.000000
# 3 -0.003142 -0.010336 0.015870 0.000000 0.000000 0.000000
# 4 0.000000 0.000000 0.000000 0.043985 0.000000 0.000000
# 5 0.000000 0.000000 0.000000 0.000000 0.039044 0.000000
# 6 0.000000 0.000000 0.000000 0.000000 0.000000 0.044877
#
#
# Mechanical properties :
#
#
# Convention : Reuss Voigt Hill
#
# Bulk Modulus (GPa) = 57.21185 60.26121 58.73653
# Shear Modulus (GPa) = 22.27909 23.47829 22.87869
#
# Velocity S-wave (km/s) = 3.48695 3.57957 3.53356
# Velocity P-wave (km/s) = 6.88732 7.06909 6.97880
#
# Compressibility (1/GPa) = 0.01747890
#
# Stress axis : x y z
#
# Youngs Moduli (GPa) = 75.25461 40.11601 63.01085
#
# Poissons Ratio (x) = 0.19360 0.19798
# Poissons Ratio (y) = 0.36318 0.65126
# Poissons Ratio (z) = 0.23645 0.41462
#
# Static dielectric constant tensor:
#      x y z
#    x 3.516310 0.000000 0.000000 
#    y 0.000000 3.187580 0.000000 
#    z 0.000000 0.000000 3.266680 
# 
# 
# High freq. dielectric constant tensor:
#      x y z
#    x 1.721100 0.000000 0.000000 
#    y 0.000000 1.692880 0.000000 
#    z 0.000000 0.000000 1.699590 
# 
# From -- ./inp_files/35109.got.cif
#   From: 2010.03.12/outbox.cif.g09.slc.cpg/sg67_18_cif.got.tgz:35109.got - 2010.04.10 22:41:39.
