data_PCOD8279135
_publ_section_title
;
Structure prediction by ZEFSAII (Michael W. Deem and Ramdas Pophale) SiO2 
 PCOD8279135
Probable space group: C M M A
;
_chemical_formula_sum "Si O2"
_cell_formula_units_Z 80
_cell_length_a 25.975350
_cell_length_b 8.857733
_cell_length_c 18.704417
_cell_angle_alpha 90.000000
_cell_angle_beta 90.000000
_cell_angle_gamma 90.000000
_cell_volume 4303.563044
_symmetry_space_group_name_H-M "C M M A"
_symmetry_group_IT_number 67
_symmetry_cell_setting 'orthorhombic'
loop_
_space_group_symop_operation_xyz
x,y,z
-x,1/2-y,z
x,-y,-z
-x,1/2+y,-z
-x,-y,-z
x,1/2+y,-z
-x,y,z
x,1/2-y,z
1/2+x,1/2+y,z
1/2-x,-y,z
1/2+x,1/2-y,-z
1/2-x,y,-z
1/2-x,1/2-y,-z
1/2+x,y,-z
1/2-x,1/2+y,z
1/2+x,-y,z
loop_
_atom_site_type_symbol
_atom_site_label
_atom_site_fract_x
_atom_site_fract_y
_atom_site_fract_z
Si Si1 0.500000 0.926221 0.576580
Si Si2 0.500000 0.569946 0.922205
Si Si3 0.588548 0.931260 0.171208
Si Si4 0.093954 0.428790 0.676104
Si Si5 0.300544 0.419247 0.665307
Si Si6 0.201288 0.084946 0.165135
O O1 0.500000 0.750000 0.564761
O O2 0.550918 0.975853 0.619123
O O3 0.500000 0.000000 0.500000
O O4 0.500000 0.750000 0.925756
O O5 0.449876 0.511546 0.882077
O O6 0.500000 0.500000 0.000000
O O7 0.582880 0.750000 0.169489
O O8 0.645607 0.985004 0.145874
O O9 0.578152 0.987402 0.251191
O O10 0.095993 0.250000 0.690078
O O11 0.148758 0.485019 0.645594
O O12 0.305394 0.250000 0.633562
O O13 0.250000 0.500000 0.632096
O O14 0.294095 0.409811 0.749891
O O15 0.204214 0.250000 0.131652
O O16 0.250000 0.000000 0.130909
#
# Coordination Sequence:
#
# PCOD8279135 Si02
#       6
#     8   8  16  16  16  16
#     4  10  23  38  53  73 101 137 177 218 265 316
#     4  12  25  40  57  77 103 139 177 220 269 316
#     4  10  20  35  55  81 109 140 176 215 258 310
#     4  10  19  33  53  80 109 138 174 217 261 312
#     4   9  16  27  45  73 105 138 171 210 259 309
#     4   8  15  26  44  72 105 135 166 203 248 297
#
# _framework density 18.589248000000001
#
# number of rings (size 3 to 8) (size 9 to 14) (size 15 to 20)
#    0.000    2.400    0.000    4.500    0.000    8.000 
#    0.000    0.000    0.000    1.200    0.000    8.400 
#    0.000    0.000    0.000    0.000    0.000    0.000 
#
# Total GULP energy -495826.708716 kJ/mol
# GULP energy per Si atom -12395.667718 kJ/mol
# Density = 1.854694 g / cm^3
# Si number density = 18.589248 Si / 1000 Ang^3
#
#
#
# Elastic Constant Matrix: (Units=GPa)
#
#
# Indices 1 2 3 4 5 6 
#
# 1 188.5101 73.2701 72.6814 0.0000 0.0000 0.0000
# 2 73.2701 115.3616 45.1371 0.0000 0.0000 0.0000
# 3 72.6814 45.1371 79.8981 0.0000 0.0000 0.0000
# 4 0.0000 0.0000 0.0000 24.1565 0.0000 0.0000
# 5 0.0000 0.0000 0.0000 0.0000 -9.2280 0.0000
# 6 0.0000 0.0000 0.0000 0.0000 0.0000 37.6479
#
#
#
# Elastic Compliance Matrix: (Units=1/GPa)
#
#
# Indices 1 2 3 4 5 6 
#
# 1 0.009021 -0.003234 -0.006380 0.000000 0.000000 0.000000
# 2 -0.003234 0.012287 -0.004000 0.000000 0.000000 0.000000
# 3 -0.006380 -0.004000 0.020579 0.000000 0.000000 0.000000
# 4 0.000000 0.000000 0.000000 0.041397 0.000000 0.000000
# 5 0.000000 0.000000 0.000000 0.000000 -0.108366 0.000000
# 6 0.000000 0.000000 0.000000 0.000000 0.000000 0.026562
#
#
# Mechanical properties :
#
#
# Convention : Reuss Voigt Hill
#
# Bulk Modulus (GPa) = 68.20742 85.10522 76.65632
# Shear Modulus (GPa) = 148.83449 23.36069 86.09759
#
# Velocity S-wave (km/s) = 8.95760 3.54881 6.81295
# Velocity P-wave (km/s) = 11.98984 7.91665 10.15947
#
# Compressibility (1/GPa) = 0.01466116
#
# Stress axis : x y z
#
# Youngs Moduli (GPa) = 110.84832 81.38552 48.59288
#
# Poissons Ratio (x) = 0.26317 0.31001
# Poissons Ratio (y) = 0.35844 0.19437
# Poissons Ratio (z) = 0.70718 0.32554
#
# Static dielectric constant tensor:
#      x y z
#    x 3.843640 0.000000 0.000000 
#    y 0.000000 3.649820 0.000000 
#    z 0.000000 0.000000 2.949560 
# 
# 
# High freq. dielectric constant tensor:
#      x y z
#    x 1.746590 0.000000 0.000000 
#    y 0.000000 1.732960 0.000000 
#    z 0.000000 0.000000 1.664160 
# 
# From -- ./inp_files/35806.got.cif
#   From: 2010.03.12/outbox.cif.g09.slc.cpg/sg67_18_cif.got.tgz:35806.got - 2010.04.10 22:41:39.
