data_PCOD8279478
_publ_section_title
;
Structure prediction by ZEFSAII (Michael W. Deem and Ramdas Pophale) SiO2 
 PCOD8279478
Probable space group: C M M A
;
_chemical_formula_sum "Si O2"
_cell_formula_units_Z 80
_cell_length_a 8.995550
_cell_length_b 29.830202
_cell_length_c 20.538152
_cell_angle_alpha 90.000000
_cell_angle_beta 90.000000
_cell_angle_gamma 90.000000
_cell_volume 5511.188681
_symmetry_space_group_name_H-M "C M M A"
_symmetry_group_IT_number 67
_symmetry_cell_setting 'orthorhombic'
loop_
_space_group_symop_operation_xyz
x,y,z
-x,1/2-y,z
x,-y,-z
-x,1/2+y,-z
-x,-y,-z
x,1/2+y,-z
-x,y,z
x,1/2-y,z
1/2+x,1/2+y,z
1/2-x,-y,z
1/2+x,1/2-y,-z
1/2-x,y,-z
1/2-x,1/2-y,-z
1/2+x,y,-z
1/2-x,1/2+y,z
1/2+x,-y,z
loop_
_atom_site_type_symbol
_atom_site_label
_atom_site_fract_x
_atom_site_fract_y
_atom_site_fract_z
Si Si1 0.326631 0.859363 0.569671
Si Si2 0.170335 0.303098 0.321788
Si Si3 0.167681 0.196638 0.807859
Si Si4 0.672330 0.458474 0.430501
Si Si5 0.167877 0.696540 0.935811
O O1 0.500000 0.848679 0.560694
O O2 0.250000 0.854661 0.500000
O O3 0.255670 0.823536 0.617436
O O4 0.303932 0.909255 0.600872
O O5 0.184177 0.250000 0.327335
O O6 0.244349 0.320754 0.255233
O O7 0.000000 0.318824 0.322297
O O8 0.167408 0.250000 0.809657
O O9 0.247854 0.177743 0.872316
O O10 0.000000 0.177933 0.805501
O O11 0.500000 0.469622 0.438371
O O12 0.750000 0.500000 0.390766
O O13 0.750000 0.456454 0.500000
O O14 0.168655 0.750000 0.935542
O O15 0.000000 0.678209 0.935425
O O16 0.250000 0.678139 0.000000
#
# Coordination Sequence:
#
# PCOD8279478 Si02
#       5
#    16  16  16  16  16
#     4  10  20  32  45  61  79 100 128 162 199 238
#     4  10  20  32  44  57  74 100 134 169 203 237
#     4   9  16  26  39  53  70  94 124 158 195 233
#     4   9  16  26  42  62  81  99 119 146 185 233
#     4   9  15  22  33  50  71  93 119 153 191 229
#
# _framework density 14.515924
#
# number of rings (size 3 to 8) (size 9 to 14) (size 15 to 20)
#    0.000    2.600    0.000    3.600    0.000    8.800 
#    0.000    0.000    0.000    0.000    0.000    0.000 
#    0.000    0.000    0.000    0.000    0.000    1.000 
#
# Total GULP energy -495771.401419 kJ/mol
# GULP energy per Si atom -12394.285035 kJ/mol
# Density = 1.448289 g / cm^3
# Si number density = 14.515924 Si / 1000 Ang^3
#
#
#
# Elastic Constant Matrix: (Units=GPa)
#
#
# Indices 1 2 3 4 5 6 
#
# 1 142.3988 27.2844 60.7376 0.0000 0.0000 0.0000
# 2 27.2844 22.6910 23.5469 0.0000 0.0000 0.0000
# 3 60.7376 23.5469 103.4369 0.0000 0.0000 0.0000
# 4 0.0000 0.0000 0.0000 0.0436 0.0000 0.0000
# 5 0.0000 0.0000 0.0000 0.0000 28.3339 0.0000
# 6 0.0000 0.0000 0.0000 0.0000 0.0000 17.0240
#
#
#
# Elastic Compliance Matrix: (Units=1/GPa)
#
#
# Indices 1 2 3 4 5 6 
#
# 1 0.010386 -0.008065 -0.004263 0.000000 0.000000 0.000000
# 2 -0.008065 0.063964 -0.009825 0.000000 0.000000 0.000000
# 3 -0.004263 -0.009825 0.014407 0.000000 0.000000 0.000000
# 4 0.000000 0.000000 0.000000 22.926650 0.000000 0.000000
# 5 0.000000 0.000000 0.000000 0.000000 0.035293 0.000000
# 6 0.000000 0.000000 0.000000 0.000000 0.000000 0.058741
#
#
# Mechanical properties :
#
#
# Convention : Reuss Voigt Hill
#
# Bulk Modulus (GPa) = 22.49651 54.62941 38.56296
# Shear Modulus (GPa) = 0.21581 19.54416 9.87999
#
# Velocity S-wave (km/s) = 0.38600 3.67331 2.61172
# Velocity P-wave (km/s) = 3.96612 7.46369 5.97649
#
# Compressibility (1/GPa) = 0.04445134
#
# Stress axis : x y z
#
# Youngs Moduli (GPa) = 96.28362 15.63381 69.40871
#
# Poissons Ratio (x) = 0.12609 0.29586
# Poissons Ratio (y) = 0.77653 0.68196
# Poissons Ratio (z) = 0.41042 0.15361
#
# Static dielectric constant tensor:
#      x y z
#    x 3.102920 0.000000 0.000000 
#    y 0.000000 2.874400 0.000000 
#    z 0.000000 0.000000 2.761080 
# 
# 
# High freq. dielectric constant tensor:
#      x y z
#    x 1.582100 0.000000 0.000000 
#    y 0.000000 1.500950 0.000000 
#    z 0.000000 0.000000 1.536470 
# 
# From -- ./inp_files/32131.got.cif
#   From: 2010.03.12/outbox.cif.g09.slc.cpg/sg67_17_cif.got.tgz:32131.got - 2010.04.10 22:41:39.
