data_PCOD8279597
_publ_section_title
;
Structure prediction by ZEFSAII (Michael W. Deem and Ramdas Pophale) SiO2 
 PCOD8279597
Probable space group: C M M A
;
_chemical_formula_sum "Si O2"
_cell_formula_units_Z 112
_cell_length_a 28.848623
_cell_length_b 9.780764
_cell_length_c 25.918168
_cell_angle_alpha 90.000000
_cell_angle_beta 90.000000
_cell_angle_gamma 90.000000
_cell_volume 7313.111060
_symmetry_space_group_name_H-M "C M M A"
_symmetry_group_IT_number 67
_symmetry_cell_setting 'orthorhombic'
loop_
_space_group_symop_operation_xyz
x,y,z
-x,1/2-y,z
x,-y,-z
-x,1/2+y,-z
-x,-y,-z
x,1/2+y,-z
-x,y,z
x,1/2-y,z
1/2+x,1/2+y,z
1/2-x,-y,z
1/2+x,1/2-y,-z
1/2-x,y,-z
1/2-x,1/2-y,-z
1/2+x,y,-z
1/2-x,1/2+y,z
1/2+x,-y,z
loop_
_atom_site_type_symbol
_atom_site_label
_atom_site_fract_x
_atom_site_fract_y
_atom_site_fract_z
Si Si1 0.948219 0.912920 0.657683
Si Si2 0.555223 0.402270 0.544151
Si Si3 0.291406 0.905393 0.091975
Si Si4 0.390874 0.589927 0.048394
Si Si5 0.552271 0.587430 0.147721
Si Si6 0.707676 0.592155 0.212283
Si Si7 0.608024 0.912589 0.245581
O O1 0.949837 0.750000 0.658988
O O2 0.930520 0.958904 0.600876
O O3 0.913567 0.970849 0.701273
O O4 0.000000 0.969766 0.668629
O O5 0.576319 0.500000 0.500000
O O6 0.500000 0.397904 0.541033
O O7 0.575251 0.250000 0.535184
O O8 0.275863 0.750000 0.082782
O O9 0.337358 0.940954 0.060501
O O10 0.301796 0.931814 0.151966
O O11 0.250000 0.000000 0.071312
O O12 0.398777 0.750000 0.036703
O O13 0.422016 0.539386 0.096029
O O14 0.406684 0.500000 0.000000
O O15 0.500000 0.529930 0.147626
O O16 0.552452 0.750000 0.150480
O O17 0.579099 0.527016 0.197383
O O18 0.719426 0.750000 0.223783
O O19 0.750000 0.500000 0.232375
O O20 0.661655 0.543005 0.242263
O O21 0.604684 0.750000 0.243794
#
# Coordination Sequence:
#
# PCOD8279597 Si02
#       7
#    16  16  16  16  16  16  16
#     4   8  13  20  33  58  87 110 137 174 208 235
#     4   8  13  21  33  51  78 111 143 171 198 231
#     4   9  17  30  46  63  84 105 129 161 198 243
#     4  10  20  33  46  63  85 106 132 167 202 240
#     4   9  16  27  44  63  82 106 135 166 202 242
#     4   9  16  27  44  64  84 106 131 160 198 245
#     4   9  14  23  41  63  85 107 133 168 207 242
#
# _framework density 15.314959999999999
#
# number of rings (size 3 to 8) (size 9 to 14) (size 15 to 20)
#    0.000    3.143    1.429    1.286    0.000    2.857 
#    0.000    1.429    0.000    0.857    0.000    0.000 
#    0.000    4.000    0.000    7.143    0.000    0.286 
#
# Total GULP energy -694159.891924 kJ/mol
# GULP energy per Si atom -12395.712356 kJ/mol
# Density = 1.528010 g / cm^3
# Si number density = 15.314960 Si / 1000 Ang^3
#
#
#
# Elastic Constant Matrix: (Units=GPa)
#
#
# Indices 1 2 3 4 5 6 
#
# 1 90.7204 31.5690 59.1213 0.0000 0.0000 0.0000
# 2 31.5690 35.3000 36.6049 0.0000 0.0000 0.0000
# 3 59.1213 36.6049 125.3121 0.0000 0.0000 0.0000
# 4 0.0000 0.0000 0.0000 18.0414 0.0000 0.0000
# 5 0.0000 0.0000 0.0000 0.0000 15.2210 0.0000
# 6 0.0000 0.0000 0.0000 0.0000 0.0000 13.6660
#
#
#
# Elastic Compliance Matrix: (Units=1/GPa)
#
#
# Indices 1 2 3 4 5 6 
#
# 1 0.018342 -0.010659 -0.005540 0.000000 0.000000 0.000000
# 2 -0.010659 0.046832 -0.008651 0.000000 0.000000 0.000000
# 3 -0.005540 -0.008651 0.013121 0.000000 0.000000 0.000000
# 4 0.000000 0.000000 0.000000 0.055428 0.000000 0.000000
# 5 0.000000 0.000000 0.000000 0.000000 0.065699 0.000000
# 6 0.000000 0.000000 0.000000 0.000000 0.000000 0.073174
#
#
# Mechanical properties :
#
#
# Convention : Reuss Voigt Hill
#
# Bulk Modulus (GPa) = 34.97148 56.21367 45.59258
# Shear Modulus (GPa) = 15.06801 17.65483 16.36142
#
# Velocity S-wave (km/s) = 3.14008 3.39895 3.27208
# Velocity P-wave (km/s) = 6.00260 7.22417 6.64153
#
# Compressibility (1/GPa) = 0.02859473
#
# Stress axis : x y z
#
# Youngs Moduli (GPa) = 54.51835 21.35296 76.21296
#
# Poissons Ratio (x) = 0.22759 0.42225
# Poissons Ratio (y) = 0.58109 0.65935
# Poissons Ratio (z) = 0.30205 0.18473
#
# Static dielectric constant tensor:
#      x y z
#    x 2.928880 0.000000 0.000000 
#    y 0.000000 2.632160 0.000000 
#    z 0.000000 0.000000 3.090950 
# 
# 
# High freq. dielectric constant tensor:
#      x y z
#    x 1.570530 0.000000 0.000000 
#    y 0.000000 1.543310 0.000000 
#    z 0.000000 0.000000 1.582090 
# 
# From -- ./inp_files/40048.got.cif
#   From: 2010.03.12/outbox.cif.g09.slc.cpg/sg67_21_cif.got.tgz:40048.got - 2010.04.10 22:41:39.
