data_PCOD8279418
_publ_section_title
;
Structure prediction by ZEFSAII (Michael W. Deem and Ramdas Pophale) SiO2 
 PCOD8279418
Probable space group: C M M A
;
_chemical_formula_sum "Si O2"
_cell_formula_units_Z 80
_cell_length_a 8.985147
_cell_length_b 23.597516
_cell_length_c 20.252133
_cell_angle_alpha 90.000000
_cell_angle_beta 90.000000
_cell_angle_gamma 90.000000
_cell_volume 4294.002043
_symmetry_space_group_name_H-M "C M M A"
_symmetry_group_IT_number 67
_symmetry_cell_setting 'orthorhombic'
loop_
_space_group_symop_operation_xyz
x,y,z
-x,1/2-y,z
x,-y,-z
-x,1/2+y,-z
-x,-y,-z
x,1/2+y,-z
-x,y,z
x,1/2-y,z
1/2+x,1/2+y,z
1/2-x,-y,z
1/2+x,1/2-y,-z
1/2-x,y,-z
1/2-x,1/2-y,-z
1/2+x,y,-z
1/2-x,1/2+y,z
1/2+x,-y,z
loop_
_atom_site_type_symbol
_atom_site_label
_atom_site_fract_x
_atom_site_fract_y
_atom_site_fract_z
Si Si1 0.174331 0.250000 0.238071
Si Si2 0.830315 0.626049 0.064550
Si Si3 0.332172 0.750000 0.893029
Si Si4 0.825562 0.060247 0.807158
Si Si5 0.826407 0.184416 0.430739
Si Si6 0.824611 0.644795 0.305755
O O1 0.201720 0.250000 0.160396
O O2 0.252268 0.195511 0.266622
O O3 0.000000 0.250000 0.255327
O O4 0.811153 0.693937 0.063475
O O5 0.765129 0.599314 0.132445
O O6 0.000000 0.607897 0.057958
O O7 0.750000 0.600787 0.000000
O O8 0.500000 0.750000 0.861298
O O9 0.788539 0.088512 0.736322
O O10 0.000000 0.051978 0.814549
O O11 0.750000 0.000000 0.810366
O O12 0.800396 0.250000 0.409597
O O13 0.750000 0.171528 0.500000
O O14 0.751094 0.142314 0.377792
O O15 0.000000 0.170514 0.436353
O O16 0.000000 0.654670 0.313614
#
# Coordination Sequence:
#
# PCOD8279418 Si02
#       6
#     8  16   8  16  16  16
#     4  12  22  31  52  87 115 143 186 231 279 335
#     4  10  21  37  57  82 111 147 184 227 282 341
#     4  10  19  37  57  77 115 149 180 223 279 349
#     4  10  23  41  60  81 107 145 192 238 288 335
#     4  10  20  33  52  85 123 156 190 223 269 330
#     4  11  21  37  59  81 114 154 187 229 285 336
#
# _framework density 18.630638000000001
#
# number of rings (size 3 to 8) (size 9 to 14) (size 15 to 20)
#    0.000    1.600    3.000    2.400    0.000    4.400 
#    0.000    2.000    0.000    0.600    0.000    4.200 
#    0.000    0.000    0.000    0.000    0.000    0.000 
#
# Total GULP energy -495969.582038 kJ/mol
# GULP energy per Si atom -12399.239551 kJ/mol
# Density = 1.858823 g / cm^3
# Si number density = 18.630638 Si / 1000 Ang^3
#
#
#
# Elastic Constant Matrix: (Units=GPa)
#
#
# Indices 1 2 3 4 5 6 
#
# 1 88.9623 44.1723 67.1460 0.0000 0.0000 0.0000
# 2 44.1723 98.6136 49.4906 0.0000 0.0000 0.0000
# 3 67.1460 49.4906 146.5089 0.0000 0.0000 0.0000
# 4 0.0000 0.0000 0.0000 16.0171 0.0000 0.0000
# 5 0.0000 0.0000 0.0000 0.0000 38.2192 0.0000
# 6 0.0000 0.0000 0.0000 0.0000 0.0000 37.1602
#
#
#
# Elastic Compliance Matrix: (Units=1/GPa)
#
#
# Indices 1 2 3 4 5 6 
#
# 1 0.019030 -0.004994 -0.007035 0.000000 0.000000 0.000000
# 2 -0.004994 0.013521 -0.002279 0.000000 0.000000 0.000000
# 3 -0.007035 -0.002279 0.010819 0.000000 0.000000 0.000000
# 4 0.000000 0.000000 0.000000 0.062433 0.000000 0.000000
# 5 0.000000 0.000000 0.000000 0.000000 0.026165 0.000000
# 6 0.000000 0.000000 0.000000 0.000000 0.000000 0.026910
#
#
# Mechanical properties :
#
#
# Convention : Reuss Voigt Hill
#
# Bulk Modulus (GPa) = 67.76895 72.85586 70.31241
# Shear Modulus (GPa) = 25.98598 29.83103 27.90850
#
# Velocity S-wave (km/s) = 3.73875 4.00582 3.87459
# Velocity P-wave (km/s) = 7.42238 7.78368 7.60518
#
# Compressibility (1/GPa) = 0.01475602
#
# Stress axis : x y z
#
# Youngs Moduli (GPa) = 52.54953 73.95881 92.42753
#
# Poissons Ratio (x) = 0.36932 0.65019
# Poissons Ratio (y) = 0.26241 0.21062
# Poissons Ratio (z) = 0.36966 0.16854
#
# Static dielectric constant tensor:
#      x y z
#    x 3.558550 0.000000 0.000000 
#    y 0.000000 3.068140 0.000000 
#    z 0.000000 0.000000 3.612350 
# 
# 
# High freq. dielectric constant tensor:
#      x y z
#    x 1.726490 0.000000 0.000000 
#    y 0.000000 1.693950 0.000000 
#    z 0.000000 0.000000 1.733460 
# 
# From -- ./inp_files/36870.got.cif
#   From: 2010.03.12/outbox.cif.g09.slc.cpg/sg67_19_cif.got.tgz:36870.got - 2010.04.10 22:41:39.
