data_PCOD8279549
_publ_section_title
;
Structure prediction by ZEFSAII (Michael W. Deem and Ramdas Pophale) SiO2 
 PCOD8279549
Probable space group: C M M A
;
_chemical_formula_sum "Si O2"
_cell_formula_units_Z 104
_cell_length_a 8.856739
_cell_length_b 30.170521
_cell_length_c 22.589484
_cell_angle_alpha 90.000000
_cell_angle_beta 90.000000
_cell_angle_gamma 90.000000
_cell_volume 6036.190912
_symmetry_space_group_name_H-M "C M M A"
_symmetry_group_IT_number 67
_symmetry_cell_setting 'orthorhombic'
loop_
_space_group_symop_operation_xyz
x,y,z
-x,1/2-y,z
x,-y,-z
-x,1/2+y,-z
-x,-y,-z
x,1/2+y,-z
-x,y,z
x,1/2-y,z
1/2+x,1/2+y,z
1/2-x,-y,z
1/2+x,1/2-y,-z
1/2-x,y,-z
1/2-x,1/2-y,-z
1/2+x,y,-z
1/2-x,1/2+y,z
1/2+x,-y,z
loop_
_atom_site_type_symbol
_atom_site_label
_atom_site_fract_x
_atom_site_fract_y
_atom_site_fract_z
Si Si1 0.330685 0.130538 0.267179
Si Si2 0.178341 0.454084 0.312688
Si Si3 0.678190 0.921329 0.441569
Si Si4 0.677844 0.750000 0.436123
Si Si5 0.669187 0.302559 0.058141
Si Si6 0.678539 0.199109 0.820577
Si Si7 0.669248 0.163772 0.399395
O O1 0.500000 0.122848 0.242459
O O2 0.242047 0.083975 0.269398
O O3 0.245385 0.166517 0.228016
O O4 0.338295 0.149108 0.332442
O O5 0.250000 0.500000 0.291263
O O6 0.224123 0.446936 0.381582
O O7 0.000000 0.455361 0.305165
O O8 0.500000 0.918553 0.448789
O O9 0.750000 0.945049 0.500000
O O10 0.748086 0.872315 0.439769
O O11 0.500000 0.750000 0.441174
O O12 0.750000 0.750000 0.500000
O O13 0.732415 0.792222 0.399913
O O14 0.500000 0.321944 0.062360
O O15 0.663925 0.250000 0.052991
O O16 0.762296 0.316987 0.115768
O O17 0.750000 0.322636 0.000000
O O18 0.500000 0.195223 0.820073
O O19 0.729275 0.250000 0.807582
O O20 0.500000 0.171621 0.424445
#
# Coordination Sequence:
#
# PCOD8279549 Si02
#       7
#    16  16  16   8  16  16  16
#     4  10  21  36  54  74  99 130 165 206 250 297
#     4  10  21  37  56  76  99 126 159 199 249 304
#     4  10  20  34  52  73  96 122 151 190 240 298
#     4  12  24  36  50  66  88 118 157 200 243 292
#     4   9  16  27  44  67  98 137 178 217 254 292
#     4  10  20  32  48  73 105 141 178 214 251 294
#     4  10  21  36  51  68  91 121 157 199 245 293
#
# _framework density 17.229410000000001
#
# number of rings (size 3 to 8) (size 9 to 14) (size 15 to 20)
#    0.000    2.000    0.000    3.923    1.077    6.769 
#    0.000    1.538    0.000    0.000    0.000    0.000 
#    0.000    0.615    0.000    6.154    0.000    4.000 
#
# Total GULP energy -644810.019659 kJ/mol
# GULP energy per Si atom -12400.192686 kJ/mol
# Density = 1.719020 g / cm^3
# Si number density = 17.229410 Si / 1000 Ang^3
#
#
#
# Elastic Constant Matrix: (Units=GPa)
#
#
# Indices 1 2 3 4 5 6 
#
# 1 121.1081 45.8907 35.1891 0.0000 0.0000 0.0000
# 2 45.8907 92.0985 25.8572 0.0000 0.0000 0.0000
# 3 35.1891 25.8572 69.6848 0.0000 0.0000 0.0000
# 4 0.0000 0.0000 0.0000 7.6949 0.0000 0.0000
# 5 0.0000 0.0000 0.0000 0.0000 31.8263 0.0000
# 6 0.0000 0.0000 0.0000 0.0000 0.0000 26.6740
#
#
#
# Elastic Compliance Matrix: (Units=1/GPa)
#
#
# Indices 1 2 3 4 5 6 
#
# 1 0.011078 -0.004408 -0.003958 0.000000 0.000000 0.000000
# 2 -0.004408 0.013875 -0.002922 0.000000 0.000000 0.000000
# 3 -0.003958 -0.002922 0.017433 0.000000 0.000000 0.000000
# 4 0.000000 0.000000 0.000000 0.129956 0.000000 0.000000
# 5 0.000000 0.000000 0.000000 0.000000 0.031421 0.000000
# 6 0.000000 0.000000 0.000000 0.000000 0.000000 0.037490
#
#
# Mechanical properties :
#
#
# Convention : Reuss Voigt Hill
#
# Bulk Modulus (GPa) = 50.48382 55.19613 52.83998
# Shear Modulus (GPa) = 18.48887 24.96933 21.72910
#
# Velocity S-wave (km/s) = 3.27937 3.81100 3.55514
# Velocity P-wave (km/s) = 6.61087 7.17430 6.89834
#
# Compressibility (1/GPa) = 0.01980833
#
# Stress axis : x y z
#
# Youngs Moduli (GPa) = 90.27197 72.07187 57.36103
#
# Poissons Ratio (x) = 0.31773 0.22704
# Poissons Ratio (y) = 0.39796 0.16763
# Poissons Ratio (z) = 0.35731 0.21061
#
# Static dielectric constant tensor:
#      x y z
#    x 3.578360 0.000000 0.000000 
#    y 0.000000 2.975970 0.000000 
#    z 0.000000 0.000000 3.173820 
# 
# 
# High freq. dielectric constant tensor:
#      x y z
#    x 1.688540 0.000000 0.000000 
#    y 0.000000 1.637820 0.000000 
#    z 0.000000 0.000000 1.647200 
# 
# From -- ./inp_files/37496.got.cif
#   From: 2010.03.12/outbox.cif.g09.slc.cpg/sg67_19_cif.got.tgz:37496.got - 2010.04.10 22:41:39.
