data_PCOD8279210
_publ_section_title
;
Structure prediction by ZEFSAII (Michael W. Deem and Ramdas Pophale) SiO2 
 PCOD8279210
Probable space group: C M M A
;
_chemical_formula_sum "Si O2"
_cell_formula_units_Z 96
_cell_length_a 17.309899
_cell_length_b 19.171464
_cell_length_c 14.746132
_cell_angle_alpha 90.000000
_cell_angle_beta 90.000000
_cell_angle_gamma 90.000000
_cell_volume 4893.593937
_symmetry_space_group_name_H-M "C M M A"
_symmetry_group_IT_number 67
_symmetry_cell_setting 'orthorhombic'
loop_
_space_group_symop_operation_xyz
x,y,z
-x,1/2-y,z
x,-y,-z
-x,1/2+y,-z
-x,-y,-z
x,1/2+y,-z
-x,y,z
x,1/2-y,z
1/2+x,1/2+y,z
1/2-x,-y,z
1/2+x,1/2-y,-z
1/2-x,y,-z
1/2-x,1/2-y,-z
1/2+x,y,-z
1/2-x,1/2+y,z
1/2+x,-y,z
loop_
_atom_site_type_symbol
_atom_site_label
_atom_site_fract_x
_atom_site_fract_y
_atom_site_fract_z
Si Si1 0.167590 0.086059 0.135066
Si Si2 0.909743 0.326782 0.284289
Si Si3 0.088793 0.669210 0.024061
Si Si4 0.408447 0.450419 0.360965
Si Si5 0.346292 0.429583 0.165256
Si Si6 0.089529 0.592086 0.549690
O O1 0.133596 0.115642 0.227341
O O2 0.259083 0.090399 0.142475
O O3 0.137101 0.006766 0.124991
O O4 0.141668 0.132530 0.050774
O O5 0.879846 0.250000 0.258376
O O6 0.893146 0.338886 0.391566
O O7 0.000000 0.334158 0.263558
O O8 0.113772 0.750000 0.035987
O O9 0.098989 0.627673 0.118197
O O10 0.000000 0.664847 0.992958
O O11 0.500000 0.447436 0.338707
O O12 0.361286 0.426883 0.272666
O O13 0.381846 0.400288 0.445459
O O14 0.378482 0.526362 0.392942
O O15 0.000000 0.575444 0.539948
#
# Coordination Sequence:
#
# PCOD8279210 Si02
#       6
#    16  16  16  16  16  16
#     4  11  23  38  57  85 119 150 190 234 286 346
#     4  10  19  33  57  86 115 150 193 242 291 340
#     4  11  25  43  62  85 111 146 194 243 294 349
#     4   9  16  31  57  84 112 149 191 239 287 331
#     4  11  23  38  59  86 118 152 190 234 286 347
#     4   8  15  29  53  84 114 147 190 237 284 333
#
# _framework density 19.617484000000001
#
# number of rings (size 3 to 8) (size 9 to 14) (size 15 to 20)
#    0.000    2.000    1.667    3.500    0.000    7.333 
#    0.000    1.667    0.000    4.000    0.000    0.000 
#    0.000    0.000    0.000    0.000    0.000    0.000 
#
# Total GULP energy -594936.665984 kJ/mol
# GULP energy per Si atom -12394.513875 kJ/mol
# Density = 1.957283 g / cm^3
# Si number density = 19.617484 Si / 1000 Ang^3
#
#
#
# Elastic Constant Matrix: (Units=GPa)
#
#
# Indices 1 2 3 4 5 6 
#
# 1 56.2460 49.7690 36.5018 0.0000 0.0000 0.0000
# 2 49.7690 124.3556 58.8800 0.0000 0.0000 0.0000
# 3 36.5018 58.8800 138.3871 0.0000 0.0000 0.0000
# 4 0.0000 0.0000 0.0000 23.2664 0.0000 0.0000
# 5 0.0000 0.0000 0.0000 0.0000 126.5564 0.0000
# 6 0.0000 0.0000 0.0000 0.0000 0.0000 25.1057
#
#
#
# Elastic Compliance Matrix: (Units=1/GPa)
#
#
# Indices 1 2 3 4 5 6 
#
# 1 0.028725 -0.009904 -0.003363 0.000000 0.000000 0.000000
# 2 -0.009904 0.013485 -0.003125 0.000000 0.000000 0.000000
# 3 -0.003363 -0.003125 0.009443 0.000000 0.000000 0.000000
# 4 0.000000 0.000000 0.000000 0.042980 0.000000 0.000000
# 5 0.000000 0.000000 0.000000 0.000000 0.007902 0.000000
# 6 0.000000 0.000000 0.000000 0.000000 0.000000 0.039832
#
#
# Mechanical properties :
#
#
# Convention : Reuss Voigt Hill
#
# Bulk Modulus (GPa) = 52.99756 67.69893 60.34824
# Shear Modulus (GPa) = 27.55745 46.57490 37.06618
#
# Velocity S-wave (km/s) = 3.75205 4.87781 4.35149
# Velocity P-wave (km/s) = 6.77087 8.14300 7.48843
#
# Compressibility (1/GPa) = 0.01886879
#
# Stress axis : x y z
#
# Youngs Moduli (GPa) = 34.81311 74.15741 105.90138
#
# Poissons Ratio (x) = 0.73445 0.35612
# Poissons Ratio (y) = 0.34479 0.33096
# Poissons Ratio (z) = 0.11707 0.23175
#
# Static dielectric constant tensor:
#      x y z
#    x 3.324300 0.000000 0.000000 
#    y 0.000000 3.593700 0.000000 
#    z 0.000000 0.000000 3.776270 
# 
# 
# High freq. dielectric constant tensor:
#      x y z
#    x 1.739000 0.000000 0.000000 
#    y 0.000000 1.754320 0.000000 
#    z 0.000000 0.000000 1.779560 
# 
# From -- ./inp_files/27239.got.cif
#   From: 2010.03.12/outbox.cif.g09.slc.cpg/sg67_14_cif.got.tgz:27239.got - 2010.04.10 22:41:39.
