data_PCOD8279149
_publ_section_title
;
Structure prediction by ZEFSAII (Michael W. Deem and Ramdas Pophale) SiO2 
 PCOD8279149
Probable space group: C M M A
;
_chemical_formula_sum "Si O2"
_cell_formula_units_Z 128
_cell_length_a 19.633192
_cell_length_b 19.437958
_cell_length_c 19.364340
_cell_angle_alpha 90.000000
_cell_angle_beta 90.000000
_cell_angle_gamma 90.000000
_cell_volume 7389.996837
_symmetry_space_group_name_H-M "C M M A"
_symmetry_group_IT_number 67
_symmetry_cell_setting 'orthorhombic'
loop_
_space_group_symop_operation_xyz
x,y,z
-x,1/2-y,z
x,-y,-z
-x,1/2+y,-z
-x,-y,-z
x,1/2+y,-z
-x,y,z
x,1/2-y,z
1/2+x,1/2+y,z
1/2-x,-y,z
1/2+x,1/2-y,-z
1/2-x,y,-z
1/2-x,1/2-y,-z
1/2+x,y,-z
1/2-x,1/2+y,z
1/2+x,-y,z
loop_
_atom_site_type_symbol
_atom_site_label
_atom_site_fract_x
_atom_site_fract_y
_atom_site_fract_z
Si Si1 0.920476 0.671648 0.418562
Si Si2 0.319095 0.670121 0.036498
Si Si3 0.309994 0.089455 0.671375
Si Si4 0.700220 0.899616 0.174270
Si Si5 0.849056 0.560887 0.323465
Si Si6 0.151623 0.448145 0.829806
Si Si7 0.420675 0.428522 0.033597
Si Si8 0.816472 0.671218 0.537162
O O1 0.905490 0.750000 0.391363
O O2 0.895181 0.613231 0.366404
O O3 0.883004 0.659856 0.491019
O O4 0.000000 0.661111 0.431678
O O5 0.326578 0.750000 0.021772
O O6 0.322810 0.656897 0.118806
O O7 0.250000 0.641700 0.000000
O O8 0.383485 0.633851 0.003156
O O9 0.326998 0.118332 0.748337
O O10 0.229032 0.082301 0.671352
O O11 0.332738 0.141140 0.612123
O O12 0.350315 0.018966 0.653197
O O13 0.781642 0.900785 0.168148
O O14 0.670593 0.973455 0.154095
O O15 0.879451 0.562418 0.246233
O O16 0.095966 0.425083 0.885186
O O17 0.500000 0.417674 0.022107
O O18 0.395629 0.500000 0.000000
O O19 0.798973 0.750000 0.550098
O O20 0.750000 0.636802 0.500000
#
# Coordination Sequence:
#
# PCOD8279149 Si02
#       8
#    16  16  16  16  16  16  16  16
#     4  10  21  37  55  77 110 150 186 220 267 328
#     4  11  22  35  54  82 110 141 182 225 271 321
#     4   9  18  32  53  83 111 135 176 228 276 316
#     4   9  17  32  55  79 106 139 176 223 274 317
#     4   9  18  33  52  81 111 140 177 222 271 324
#     4   9  17  32  55  79 106 139 179 223 266 317
#     4  11  22  35  56  82 105 142 187 223 268 322
#     4  10  19  33  54  78 105 143 187 226 266 320
#
# _framework density 17.320710999999999
#
# number of rings (size 3 to 8) (size 9 to 14) (size 15 to 20)
#    0.000    2.250    3.750    1.500    0.000    2.000 
#    0.000    3.750    0.000    1.500    0.000    1.750 
#    0.000    0.000    0.000    0.000    0.000    0.000 
#
# Total GULP energy -793247.878361 kJ/mol
# GULP energy per Si atom -12394.498099 kJ/mol
# Density = 1.728129 g / cm^3
# Si number density = 17.320711 Si / 1000 Ang^3
#
#
#
# Elastic Constant Matrix: (Units=GPa)
#
#
# Indices 1 2 3 4 5 6 
#
# 1 76.3865 41.3185 45.9777 0.0000 0.0000 0.0000
# 2 41.3185 73.6729 59.8257 0.0000 0.0000 0.0000
# 3 45.9777 59.8257 131.5983 0.0000 0.0000 0.0000
# 4 0.0000 0.0000 0.0000 29.7738 0.0000 0.0000
# 5 0.0000 0.0000 0.0000 0.0000 22.4975 0.0000
# 6 0.0000 0.0000 0.0000 0.0000 0.0000 23.9947
#
#
#
# Elastic Compliance Matrix: (Units=1/GPa)
#
#
# Indices 1 2 3 4 5 6 
#
# 1 0.019473 -0.008554 -0.002914 0.000000 0.000000 0.000000
# 2 -0.008554 0.025275 -0.008501 0.000000 0.000000 0.000000
# 3 -0.002914 -0.008501 0.012482 0.000000 0.000000 0.000000
# 4 0.000000 0.000000 0.000000 0.033587 0.000000 0.000000
# 5 0.000000 0.000000 0.000000 0.000000 0.044449 0.000000
# 6 0.000000 0.000000 0.000000 0.000000 0.000000 0.041676
#
#
# Mechanical properties :
#
#
# Convention : Reuss Voigt Hill
#
# Bulk Modulus (GPa) = 57.84056 63.98905 60.91481
# Shear Modulus (GPa) = 22.45735 24.22225 23.33980
#
# Velocity S-wave (km/s) = 3.60468 3.74365 3.67482
# Velocity P-wave (km/s) = 7.12681 7.46394 7.29732
#
# Compressibility (1/GPa) = 0.01728891
#
# Stress axis : x y z
#
# Youngs Moduli (GPa) = 51.35385 39.56554 80.11602
#
# Poissons Ratio (x) = 0.33846 0.23350
# Poissons Ratio (y) = 0.43930 0.68109
# Poissons Ratio (z) = 0.14967 0.33636
#
# Static dielectric constant tensor:
#      x y z
#    x 2.991740 0.000000 0.000000 
#    y 0.000000 3.138790 0.000000 
#    z 0.000000 0.000000 3.451590 
# 
# 
# High freq. dielectric constant tensor:
#      x y z
#    x 1.644710 0.000000 0.000000 
#    y 0.000000 1.656840 0.000000 
#    z 0.000000 0.000000 1.679460 
# 
# From -- ./inp_files/35239.got.cif
#   From: 2010.03.12/outbox.cif.g09.slc.cpg/sg67_18_cif.got.tgz:35239.got - 2010.04.10 22:41:39.
