data_PCOD8279699
_publ_section_title
;
Structure prediction by ZEFSAII (Michael W. Deem and Ramdas Pophale) SiO2 
 PCOD8279699
Probable space group: C M M A
;
_chemical_formula_sum "Si O2"
_cell_formula_units_Z 80
_cell_length_a 9.021204
_cell_length_b 18.760623
_cell_length_c 26.139202
_cell_angle_alpha 90.000000
_cell_angle_beta 90.000000
_cell_angle_gamma 90.000000
_cell_volume 4423.887609
_symmetry_space_group_name_H-M "C M M A"
_symmetry_group_IT_number 67
_symmetry_cell_setting 'orthorhombic'
loop_
_space_group_symop_operation_xyz
x,y,z
-x,1/2-y,z
x,-y,-z
-x,1/2+y,-z
-x,-y,-z
x,1/2+y,-z
-x,y,z
x,1/2-y,z
1/2+x,1/2+y,z
1/2-x,-y,z
1/2+x,1/2-y,-z
1/2-x,y,-z
1/2-x,1/2-y,-z
1/2+x,y,-z
1/2-x,1/2+y,z
1/2+x,-y,z
loop_
_atom_site_type_symbol
_atom_site_label
_atom_site_fract_x
_atom_site_fract_y
_atom_site_fract_z
Si Si1 0.673355 0.576419 0.952376
Si Si2 0.672477 0.576071 0.339377
Si Si3 0.171760 0.575856 0.547155
Si Si4 0.174164 0.332078 0.745195
Si Si5 0.327756 0.924894 0.839983
O O1 0.500000 0.569503 0.963685
O O2 0.750000 0.500000 0.950730
O O3 0.703520 0.610081 0.896210
O O4 0.750000 0.619677 0.000000
O O5 0.500000 0.564436 0.327451
O O6 0.750000 0.500000 0.331890
O O7 0.695002 0.609272 0.396500
O O8 0.740010 0.633914 0.301878
O O9 0.250000 0.500000 0.549280
O O10 0.250000 0.619651 0.500000
O O11 0.000000 0.567484 0.534066
O O12 0.219395 0.250000 0.749023
O O13 0.227148 0.368932 0.797787
O O14 0.000000 0.342035 0.736235
O O15 0.500000 0.941170 0.834001
O O16 0.250000 0.000000 0.831076
#
# Coordination Sequence:
#
# PCOD8279699 Si02
#       5
#    16  16  16  16  16
#     4   9  15  24  40  64  93 120 148 186 232 280
#     4  10  20  33  51  76 103 130 162 201 243 287
#     4   9  16  26  43  69  99 127 155 191 235 282
#     4  10  21  36  52  70  95 129 167 205 247 294
#     4   9  18  31  48  71  96 123 157 197 239 284
#
# _framework density 18.083641
#
# number of rings (size 3 to 8) (size 9 to 14) (size 15 to 20)
#    0.000    2.600    0.000    3.600    0.000    6.000 
#    0.000    0.000    0.000    1.200    0.000    0.000 
#    0.000    0.000    0.000    0.000    0.000    5.400 
#
# Total GULP energy -495566.302127 kJ/mol
# GULP energy per Si atom -12389.157553 kJ/mol
# Density = 1.804248 g / cm^3
# Si number density = 18.083641 Si / 1000 Ang^3
#
#
#
# Elastic Constant Matrix: (Units=GPa)
#
#
# Indices 1 2 3 4 5 6 
#
# 1 96.9946 39.4712 77.9293 0.0000 0.0000 0.0000
# 2 39.4712 75.1230 67.2419 0.0000 0.0000 0.0000
# 3 77.9293 67.2419 195.3272 0.0000 0.0000 0.0000
# 4 0.0000 0.0000 0.0000 1.2577 0.0000 0.0000
# 5 0.0000 0.0000 0.0000 0.0000 40.1675 0.0000
# 6 0.0000 0.0000 0.0000 0.0000 0.0000 16.9925
#
#
#
# Elastic Compliance Matrix: (Units=1/GPa)
#
#
# Indices 1 2 3 4 5 6 
#
# 1 0.015917 -0.003872 -0.005017 0.000000 0.000000 0.000000
# 2 -0.003872 0.020182 -0.005403 0.000000 0.000000 0.000000
# 3 -0.005017 -0.005403 0.008981 0.000000 0.000000 0.000000
# 4 0.000000 0.000000 0.000000 0.795087 0.000000 0.000000
# 5 0.000000 0.000000 0.000000 0.000000 0.024896 0.000000
# 6 0.000000 0.000000 0.000000 0.000000 0.000000 0.058849
#
#
# Mechanical properties :
#
#
# Convention : Reuss Voigt Hill
#
# Bulk Modulus (GPa) = 60.62229 81.85886 71.24057
# Shear Modulus (GPa) = 5.21923 23.87037 14.54480
#
# Velocity S-wave (km/s) = 1.70071 3.63712 2.83911
# Velocity P-wave (km/s) = 6.11985 7.93746 7.08717
#
# Compressibility (1/GPa) = 0.01649558
#
# Stress axis : x y z
#
# Youngs Moduli (GPa) = 62.82749 49.54897 111.34224
#
# Poissons Ratio (x) = 0.19185 0.55863
# Poissons Ratio (y) = 0.24327 0.60157
# Poissons Ratio (z) = 0.31522 0.26771
#
# Static dielectric constant tensor:
#      x y z
#    x 3.524420 0.000000 0.000000 
#    y 0.000000 2.797670 0.000000 
#    z 0.000000 0.000000 4.903550 
# 
# 
# High freq. dielectric constant tensor:
#      x y z
#    x 1.710470 0.000000 0.000000 
#    y 0.000000 1.630960 0.000000 
#    z 0.000000 0.000000 1.736090 
# 
# From -- ./inp_files/43338.got.cif
#   From: 2010.03.12/outbox.cif.g09.slc.cpg/sg67_22_cif.got.tgz:43338.got - 2010.04.10 22:41:39.
