data_PCOD8279324
_publ_section_title
;
Structure prediction by ZEFSAII (Michael W. Deem and Ramdas Pophale) SiO2 
 PCOD8279324
Probable space group: C M M A
;
_chemical_formula_sum "Si O2"
_cell_formula_units_Z 64
_cell_length_a 33.723318
_cell_length_b 16.027614
_cell_length_c 5.215127
_cell_angle_alpha 90.000000
_cell_angle_beta 90.000000
_cell_angle_gamma 90.000000
_cell_volume 2818.798692
_symmetry_space_group_name_H-M "C M M A"
_symmetry_group_IT_number 67
_symmetry_cell_setting 'orthorhombic'
loop_
_space_group_symop_operation_xyz
x,y,z
-x,1/2-y,z
x,-y,-z
-x,1/2+y,-z
-x,-y,-z
x,1/2+y,-z
-x,y,z
x,1/2-y,z
1/2+x,1/2+y,z
1/2-x,-y,z
1/2+x,1/2-y,-z
1/2-x,y,-z
1/2-x,1/2-y,-z
1/2+x,y,-z
1/2-x,1/2+y,z
1/2+x,-y,z
loop_
_atom_site_type_symbol
_atom_site_label
_atom_site_fract_x
_atom_site_fract_y
_atom_site_fract_z
Si Si1 0.954199 0.090852 0.701844
Si Si2 0.703389 0.905963 0.540561
Si Si3 0.078713 0.905828 0.802125
Si Si4 0.162564 0.155270 0.056727
O O1 0.930693 0.138814 0.471325
O O2 0.000000 0.083202 0.626937
O O3 0.934516 0.000739 0.751242
O O4 0.947801 0.137756 0.973106
O O5 0.750000 0.900619 0.500000
O O6 0.686409 0.845917 0.322126
O O7 0.688071 0.000000 0.500000
O O8 0.689455 0.878694 0.823829
O O9 0.123892 0.901047 0.895212
O O10 0.149995 0.250000 0.997010
#
# Coordination Sequence:
#
# PCOD8279324 Si02
#       4
#    16  16  16  16
#     4  10  19  34  60  90 120 167 221 267 316 376
#     4  11  26  46  70  97 128 168 223 279 323 386
#     4  10  20  33  56  89 124 160 206 271 311 374
#     4  12  26  42  66  98 137 176 214 264 339 407
#
# _framework density 22.704706999999999
#
# number of rings (size 3 to 8) (size 9 to 14) (size 15 to 20)
#    0.000    1.250    0.000    7.500   10.500    5.000 
#    0.000    0.000    0.000    8.250    0.000    0.000 
#    0.000    0.000    0.000    0.000    0.000    0.000 
#
# Total GULP energy -396455.617424 kJ/mol
# GULP energy per Si atom -12389.238044 kJ/mol
# Density = 2.265303 g / cm^3
# Si number density = 22.704707 Si / 1000 Ang^3
#
#
#
# Elastic Constant Matrix: (Units=GPa)
#
#
# Indices 1 2 3 4 5 6 
#
# 1 142.9568 26.3935 66.2084 0.0000 0.0000 0.0000
# 2 26.3935 54.1571 13.0139 0.0000 0.0000 0.0000
# 3 66.2084 13.0139 231.8263 0.0000 0.0000 0.0000
# 4 0.0000 0.0000 0.0000 16.5830 0.0000 0.0000
# 5 0.0000 0.0000 0.0000 0.0000 53.6458 0.0000
# 6 0.0000 0.0000 0.0000 0.0000 0.0000 3.7190
#
#
#
# Elastic Compliance Matrix: (Units=1/GPa)
#
#
# Indices 1 2 3 4 5 6 
#
# 1 0.008740 -0.003709 -0.002288 0.000000 0.000000 0.000000
# 2 -0.003709 0.020292 -0.000080 0.000000 0.000000 0.000000
# 3 -0.002288 -0.000080 0.004971 0.000000 0.000000 0.000000
# 4 0.000000 0.000000 0.000000 0.060303 0.000000 0.000000
# 5 0.000000 0.000000 0.000000 0.000000 0.018641 0.000000
# 6 0.000000 0.000000 0.000000 0.000000 0.000000 0.268892
#
#
# Mechanical properties :
#
#
# Convention : Reuss Voigt Hill
#
# Bulk Modulus (GPa) = 45.76891 71.13020 58.44956
# Shear Modulus (GPa) = 12.46029 36.34452 24.40240
#
# Velocity S-wave (km/s) = 2.34518 4.00528 3.28193
# Velocity P-wave (km/s) = 5.24741 7.26540 6.33724
#
# Compressibility (1/GPa) = 0.02184889
#
# Stress axis : x y z
#
# Youngs Moduli (GPa) = 114.42288 49.28113 201.15007
#
# Poissons Ratio (x) = 0.18281 0.46018
# Poissons Ratio (y) = 0.42445 0.01603
# Poissons Ratio (z) = 0.26177 0.00393
#
# Static dielectric constant tensor:
#      x y z
#    x 4.106140 0.000000 0.000000 
#    y 0.000000 3.155890 0.000000 
#    z 0.000000 0.000000 -5.918010 
# 
# 
# High freq. dielectric constant tensor:
#      x y z
#    x 1.901600 0.000000 0.000000 
#    y 0.000000 1.845320 0.000000 
#    z 0.000000 0.000000 1.941370 
# 
# From -- ./inp_files/4571.got.cif
#   From: 2010.03.12/outbox.cif.g09.slc.cpg/sg67_3_cif.got.tgz:4571.got - 2010.04.10 22:41:39.
