data_PCOD8279705
_publ_section_title
;
Structure prediction by ZEFSAII (Michael W. Deem and Ramdas Pophale) SiO2 
 PCOD8279705
Probable space group: C M M A
;
_chemical_formula_sum "Si O2"
_cell_formula_units_Z 112
_cell_length_a 10.405013
_cell_length_b 16.824096
_cell_length_c 34.471737
_cell_angle_alpha 90.000000
_cell_angle_beta 90.000000
_cell_angle_gamma 90.000000
_cell_volume 6034.447769
_symmetry_space_group_name_H-M "C M M A"
_symmetry_group_IT_number 67
_symmetry_cell_setting 'orthorhombic'
loop_
_space_group_symop_operation_xyz
x,y,z
-x,1/2-y,z
x,-y,-z
-x,1/2+y,-z
-x,-y,-z
x,1/2+y,-z
-x,y,z
x,1/2-y,z
1/2+x,1/2+y,z
1/2-x,-y,z
1/2+x,1/2-y,-z
1/2-x,y,-z
1/2-x,1/2-y,-z
1/2+x,y,-z
1/2-x,1/2+y,z
1/2+x,-y,z
loop_
_atom_site_type_symbol
_atom_site_label
_atom_site_fract_x
_atom_site_fract_y
_atom_site_fract_z
Si Si1 0.352046 0.930834 0.756839
Si Si2 0.851105 0.932420 0.393581
Si Si3 0.358284 0.156241 0.471795
Si Si4 0.650539 0.837064 0.680427
Si Si5 0.644598 0.657920 0.836819
Si Si6 0.644510 0.657996 0.100962
Si Si7 0.864362 0.912102 0.980191
O O1 0.500000 0.961191 0.752898
O O2 0.316409 0.870749 0.722604
O O3 0.330371 0.888194 0.797475
O O4 0.250000 0.000000 0.753710
O O5 0.838149 0.868395 0.427510
O O6 0.799072 0.894047 0.353627
O O7 0.000000 0.962681 0.389967
O O8 0.750000 0.000000 0.404193
O O9 0.500000 0.128705 0.486405
O O10 0.346881 0.250000 0.472838
O O11 0.250000 0.118022 0.500000
O O12 0.500000 0.827991 0.674696
O O13 0.715492 0.750000 0.677072
O O14 0.500000 0.641218 0.852735
O O15 0.663178 0.750000 0.827375
O O16 0.750223 0.629765 0.867957
O O17 0.500000 0.651387 0.118477
O O18 0.669714 0.750000 0.087810
O O19 0.657657 0.594157 0.065936
O O20 0.000000 0.870756 0.989928
O O21 0.750000 0.862177 0.000000
O O22 0.864374 0.000000 0.000000
#
# Coordination Sequence:
#
# PCOD8279705 Si02
#       7
#    16  16  16  16  16  16  16
#     4  10  20  34  53  79 109 139 171 209 254 304
#     4  10  20  33  51  76 105 136 171 215 266 319
#     4   9  18  33  52  73  98 132 176 222 265 313
#     4   9  17  32  56  80 101 133 177 220 259 303
#     4   9  18  34  55  78 103 133 172 213 249 292
#     4   9  18  33  53  76 101 130 165 206 252 298
#     4   9  18  33  50  70  97 128 161 200 245 293
#
# _framework density 18.560108
#
# number of rings (size 3 to 8) (size 9 to 14) (size 15 to 20)
#    0.000    2.714    0.000    1.286    0.000    5.714 
#    2.571    1.429    0.000    3.429    0.000    0.000 
#    0.000    0.000    0.000    0.000    0.000    0.000 
#
# Total GULP energy -693775.791537 kJ/mol
# GULP energy per Si atom -12388.853420 kJ/mol
# Density = 1.851786 g / cm^3
# Si number density = 18.560108 Si / 1000 Ang^3
#
#
#
# Elastic Constant Matrix: (Units=GPa)
#
#
# Indices 1 2 3 4 5 6 
#
# 1 124.0799 27.9361 59.2825 0.0000 0.0000 0.0000
# 2 27.9361 43.0534 24.8228 0.0000 0.0000 0.0000
# 3 59.2825 24.8228 99.7211 0.0000 0.0000 0.0000
# 4 0.0000 0.0000 0.0000 9.7533 0.0000 0.0000
# 5 0.0000 0.0000 0.0000 0.0000 27.1755 0.0000
# 6 0.0000 0.0000 0.0000 0.0000 0.0000 17.1242
#
#
#
# Elastic Compliance Matrix: (Units=1/GPa)
#
#
# Indices 1 2 3 4 5 6 
#
# 1 0.011887 -0.004248 -0.006009 0.000000 0.000000 0.000000
# 2 -0.004248 0.028637 -0.004603 0.000000 0.000000 0.000000
# 3 -0.006009 -0.004603 0.014746 0.000000 0.000000 0.000000
# 4 0.000000 0.000000 0.000000 0.102530 0.000000 0.000000
# 5 0.000000 0.000000 0.000000 0.000000 0.036798 0.000000
# 6 0.000000 0.000000 0.000000 0.000000 0.000000 0.058397
#
#
# Mechanical properties :
#
#
# Convention : Reuss Voigt Hill
#
# Bulk Modulus (GPa) = 39.13950 54.54857 46.84404
# Shear Modulus (GPa) = 17.16845 21.13146 19.14995
#
# Velocity S-wave (km/s) = 3.04471 3.37789 3.21562
# Velocity P-wave (km/s) = 5.78741 6.68338 6.25147
#
# Compressibility (1/GPa) = 0.02554964
#
# Stress axis : x y z
#
# Youngs Moduli (GPa) = 84.12700 34.91932 67.81526
#
# Poissons Ratio (x) = 0.14835 0.40750
# Poissons Ratio (y) = 0.35741 0.31214
# Poissons Ratio (z) = 0.50552 0.16073
#
# Static dielectric constant tensor:
#      x y z
#    x 3.954880 0.000000 0.000000 
#    y 0.000000 3.287870 0.000000 
#    z 0.000000 0.000000 3.514650 
# 
# 
# High freq. dielectric constant tensor:
#      x y z
#    x 1.723400 0.000000 0.000000 
#    y 0.000000 1.700640 0.000000 
#    z 0.000000 0.000000 1.723770 
# 
# From -- ./inp_files/45574.got.cif
#   From: 2010.03.12/outbox.cif.g09.slc.cpg/sg67_23_cif.got.tgz:45574.got - 2010.04.10 22:41:39.
