data_PCOD8279438
_publ_section_title
;
Structure prediction by ZEFSAII (Michael W. Deem and Ramdas Pophale) SiO2 
 PCOD8279438
Probable space group: C M M A
;
_chemical_formula_sum "Si O2"
_cell_formula_units_Z 128
_cell_length_a 24.213020
_cell_length_b 26.967838
_cell_length_c 11.438243
_cell_angle_alpha 90.000000
_cell_angle_beta 90.000000
_cell_angle_gamma 90.000000
_cell_volume 7468.861569
_symmetry_space_group_name_H-M "C M M A"
_symmetry_group_IT_number 67
_symmetry_cell_setting 'orthorhombic'
loop_
_space_group_symop_operation_xyz
x,y,z
-x,1/2-y,z
x,-y,-z
-x,1/2+y,-z
-x,-y,-z
x,1/2+y,-z
-x,y,z
x,1/2-y,z
1/2+x,1/2+y,z
1/2-x,-y,z
1/2+x,1/2-y,-z
1/2-x,y,-z
1/2-x,1/2-y,-z
1/2+x,y,-z
1/2-x,1/2+y,z
1/2+x,-y,z
loop_
_atom_site_type_symbol
_atom_site_label
_atom_site_fract_x
_atom_site_fract_y
_atom_site_fract_z
Si Si1 0.250352 0.806937 0.138347
Si Si2 0.684209 0.058405 0.999965
Si Si3 0.937815 0.607530 0.637190
Si Si4 0.249938 0.943646 0.637673
Si Si5 0.836138 0.617489 0.775036
Si Si6 0.063587 0.001837 0.624263
Si Si7 0.563058 0.607681 0.641751
Si Si8 0.835893 0.881924 0.224289
O O1 0.250987 0.750000 0.176952
O O2 0.304494 0.832539 0.191354
O O3 0.196017 0.831997 0.190994
O O4 0.250000 0.813405 0.000000
O O5 0.655563 0.083677 0.111064
O O6 0.750000 0.069934 0.000000
O O7 0.655364 0.083009 0.888022
O O8 0.672494 0.000000 0.000000
O O9 0.893263 0.636912 0.715043
O O10 0.929039 0.550966 0.686309
O O11 0.927986 0.612313 0.498022
O O12 0.000000 0.625603 0.666379
O O13 0.250000 0.944395 0.500000
O O14 0.195310 0.915743 0.679946
O O15 0.303457 0.914534 0.680884
O O16 0.250000 0.000000 0.688092
O O17 0.000000 0.012806 0.595447
O O18 0.095707 0.000000 0.500000
O O19 0.081219 0.052252 0.689555
O O20 0.500000 0.622344 0.674189
O O21 0.606980 0.639028 0.717431
#
# Coordination Sequence:
#
# PCOD8279438 Si02
#       8
#    16  16  16  16  16  16  16  16
#     4  10  20  38  59  77  96 123 168 221 269 313
#     4  11  20  32  47  71 107 144 169 200 253 313
#     4   9  18  31  49  73 104 141 175 206 243 291
#     4  10  20  29  44  74 105 135 171 211 249 293
#     4  11  19  33  52  75 101 134 173 211 255 309
#     4   7  12  24  40  62  93 134 178 204 222 259
#     4   9  18  31  49  73 104 141 175 206 243 291
#     4  11  19  33  52  75 101 134 173 211 255 309
#
# _framework density 17.137819
#
# number of rings (size 3 to 8) (size 9 to 14) (size 15 to 20)
#    0.000    2.250    3.750    3.000    3.500    0.000 
#    0.000    0.625    0.000   15.000    0.000    3.500 
#    0.000    0.000    0.000    0.000    0.000    0.000 
#
# Total GULP energy -792895.622746 kJ/mol
# GULP energy per Si atom -12388.994105 kJ/mol
# Density = 1.709881 g / cm^3
# Si number density = 17.137819 Si / 1000 Ang^3
#
#
#
# Elastic Constant Matrix: (Units=GPa)
#
#
# Indices 1 2 3 4 5 6 
#
# 1 124.2958 38.8423 60.7203 0.0000 0.0000 0.0000
# 2 38.8423 94.9172 35.8610 0.0000 0.0000 0.0000
# 3 60.7203 35.8610 84.1670 0.0000 0.0000 0.0000
# 4 0.0000 0.0000 0.0000 15.3286 0.0000 0.0000
# 5 0.0000 0.0000 0.0000 0.0000 16.9952 0.0000
# 6 0.0000 0.0000 0.0000 0.0000 0.0000 13.2031
#
#
#
# Elastic Compliance Matrix: (Units=1/GPa)
#
#
# Indices 1 2 3 4 5 6 
#
# 1 0.012759 -0.002078 -0.008319 0.000000 0.000000 0.000000
# 2 -0.002078 0.012895 -0.003995 0.000000 0.000000 0.000000
# 3 -0.008319 -0.003995 0.019585 0.000000 0.000000 0.000000
# 4 0.000000 0.000000 0.000000 0.065238 0.000000 0.000000
# 5 0.000000 0.000000 0.000000 0.000000 0.058840 0.000000
# 6 0.000000 0.000000 0.000000 0.000000 0.000000 0.075740
#
#
# Mechanical properties :
#
#
# Convention : Reuss Voigt Hill
#
# Bulk Modulus (GPa) = 60.77394 63.80302 62.28848
# Shear Modulus (GPa) = 17.90024 20.30247 19.10135
#
# Velocity S-wave (km/s) = 3.23536 3.44562 3.34214
# Velocity P-wave (km/s) = 7.03531 7.28971 7.16364
#
# Compressibility (1/GPa) = 0.01645442
#
# Stress axis : x y z
#
# Youngs Moduli (GPa) = 78.37781 77.54762 51.05973
#
# Poissons Ratio (x) = 0.16115 0.42477
# Poissons Ratio (y) = 0.16288 0.20399
# Poissons Ratio (z) = 0.65203 0.30981
#
# Static dielectric constant tensor:
#      x y z
#    x 3.178470 0.000000 0.000000 
#    y 0.000000 3.012360 0.000000 
#    z 0.000000 0.000000 3.102040 
# 
# 
# High freq. dielectric constant tensor:
#      x y z
#    x 1.654610 0.000000 0.000000 
#    y 0.000000 1.625140 0.000000 
#    z 0.000000 0.000000 1.655650 
# 
# From -- ./inp_files/22435.got.cif
#   From: 2010.03.12/outbox.cif.g09.slc.cpg/sg67_12_cif.got.tgz:22435.got - 2010.04.10 22:41:39.
