data_PCOD8279701
_publ_section_title
;
Structure prediction by ZEFSAII (Michael W. Deem and Ramdas Pophale) SiO2 
 PCOD8279701
Probable space group: C M M A
;
_chemical_formula_sum "Si O2"
_cell_formula_units_Z 96
_cell_length_a 19.375451
_cell_length_b 8.960296
_cell_length_c 31.243933
_cell_angle_alpha 90.000000
_cell_angle_beta 90.000000
_cell_angle_gamma 90.000000
_cell_volume 5424.252212
_symmetry_space_group_name_H-M "C M M A"
_symmetry_group_IT_number 67
_symmetry_cell_setting 'orthorhombic'
loop_
_space_group_symop_operation_xyz
x,y,z
-x,1/2-y,z
x,-y,-z
-x,1/2+y,-z
-x,-y,-z
x,1/2+y,-z
-x,y,z
x,1/2-y,z
1/2+x,1/2+y,z
1/2-x,-y,z
1/2+x,1/2-y,-z
1/2-x,y,-z
1/2-x,1/2-y,-z
1/2+x,y,-z
1/2-x,1/2+y,z
1/2+x,-y,z
loop_
_atom_site_type_symbol
_atom_site_label
_atom_site_fract_x
_atom_site_fract_y
_atom_site_fract_z
Si Si1 0.676574 0.575603 0.118220
Si Si2 0.921437 0.426250 0.043341
Si Si3 0.919532 0.423994 0.456028
Si Si4 0.175686 0.075712 0.212344
Si Si5 0.824324 0.575909 0.386989
Si Si6 0.323502 0.422293 0.292052
O O1 0.689085 0.750000 0.112168
O O2 0.750000 0.500000 0.111616
O O3 0.623377 0.513525 0.083087
O O4 0.643202 0.544234 0.165394
O O5 0.915521 0.250000 0.038572
O O6 0.000000 0.476818 0.051598
O O7 0.892607 0.500000 0.000000
O O8 0.895467 0.500000 0.500000
O O9 0.901821 0.250000 0.458538
O O10 0.878605 0.498753 0.417697
O O11 0.000000 0.452838 0.447706
O O12 0.182006 0.250000 0.221340
O O13 0.250000 0.000000 0.211559
O O14 0.134021 0.000605 0.252570
O O15 0.816147 0.750000 0.398294
O O16 0.750000 0.500000 0.392126
O O17 0.856469 0.555900 0.339088
O O18 0.314790 0.250000 0.280704
O O19 0.250000 0.500000 0.294475
#
# Coordination Sequence:
#
# PCOD8279701 Si02
#       6
#    16  16  16  16  16  16
#     4   9  18  30  45  68  94 120 150 188 232 272
#     4   9  18  33  50  66  87 117 153 189 227 275
#     4  10  21  37  56  76  99 129 165 203 244 293
#     4   9  15  24  40  62  89 120 152 186 226 273
#     4  10  20  33  51  76 104 132 164 203 245 287
#     4   9  16  26  42  66  95 126 157 191 232 275
#
# _framework density 17.698293
#
# number of rings (size 3 to 8) (size 9 to 14) (size 15 to 20)
#    0.000    2.667    0.000    3.000    0.000    5.000 
#    0.000    3.333    0.000    1.000    0.000    2.333 
#    0.000    0.000    0.000    0.000    0.000    0.000 
#
# Total GULP energy -594772.142339 kJ/mol
# GULP energy per Si atom -12391.086299 kJ/mol
# Density = 1.765801 g / cm^3
# Si number density = 17.698293 Si / 1000 Ang^3
#
#
#
# Elastic Constant Matrix: (Units=GPa)
#
#
# Indices 1 2 3 4 5 6 
#
# 1 47.2463 34.6000 61.0146 0.0000 0.0000 0.0000
# 2 34.6000 104.9606 78.4352 0.0000 0.0000 0.0000
# 3 61.0146 78.4352 189.4640 0.0000 0.0000 0.0000
# 4 0.0000 0.0000 0.0000 35.1091 0.0000 0.0000
# 5 0.0000 0.0000 0.0000 0.0000 1.0775 0.0000
# 6 0.0000 0.0000 0.0000 0.0000 0.0000 20.4963
#
#
#
# Elastic Compliance Matrix: (Units=1/GPa)
#
#
# Indices 1 2 3 4 5 6 
#
# 1 0.037888 -0.004882 -0.010180 0.000000 0.000000 0.000000
# 2 -0.004882 0.014424 -0.004399 0.000000 0.000000 0.000000
# 3 -0.010180 -0.004399 0.010378 0.000000 0.000000 0.000000
# 4 0.000000 0.000000 0.000000 0.028483 0.000000 0.000000
# 5 0.000000 0.000000 0.000000 0.000000 0.928046 0.000000
# 6 0.000000 0.000000 0.000000 0.000000 0.000000 0.048789
#
#
# Mechanical properties :
#
#
# Convention : Reuss Voigt Hill
#
# Bulk Modulus (GPa) = 42.07573 76.64116 59.35845
# Shear Modulus (GPa) = 4.48490 22.51133 13.49811
#
# Velocity S-wave (km/s) = 1.59361 3.57031 2.76466
# Velocity P-wave (km/s) = 5.21648 7.77138 6.61838
#
# Compressibility (1/GPa) = 0.02376667
#
# Stress axis : x y z
#
# Youngs Moduli (GPa) = 26.39366 69.32796 96.36112
#
# Poissons Ratio (x) = 0.33847 0.98097
# Poissons Ratio (y) = 0.12886 0.42391
# Poissons Ratio (z) = 0.26869 0.30498
#
# Static dielectric constant tensor:
#      x y z
#    x 2.871890 0.000000 0.000000 
#    y 0.000000 3.491810 0.000000 
#    z 0.000000 0.000000 4.434590 
# 
# 
# High freq. dielectric constant tensor:
#      x y z
#    x 1.627750 0.000000 0.000000 
#    y 0.000000 1.696850 0.000000 
#    z 0.000000 0.000000 1.712990 
# 
# From -- ./inp_files/44586.got.cif
#   From: 2010.03.12/outbox.cif.g09.slc.cpg/sg67_23_cif.got.tgz:44586.got - 2010.04.10 22:41:39.
