data_PCOD8279761
_publ_section_title
;
Structure prediction by ZEFSAII (Michael W. Deem and Ramdas Pophale) SiO2 
 PCOD8279761
Probable space group: C M M A
;
_chemical_formula_sum "Si O2"
_cell_formula_units_Z 80
_cell_length_a 23.480227
_cell_length_b 8.784921
_cell_length_c 20.397542
_cell_angle_alpha 90.000000
_cell_angle_beta 90.000000
_cell_angle_gamma 90.000000
_cell_volume 4207.440544
_symmetry_space_group_name_H-M "C M M A"
_symmetry_group_IT_number 67
_symmetry_cell_setting 'orthorhombic'
loop_
_space_group_symop_operation_xyz
x,y,z
-x,1/2-y,z
x,-y,-z
-x,1/2+y,-z
-x,-y,-z
x,1/2+y,-z
-x,y,z
x,1/2-y,z
1/2+x,1/2+y,z
1/2-x,-y,z
1/2+x,1/2-y,-z
1/2-x,y,-z
1/2-x,1/2-y,-z
1/2+x,y,-z
1/2-x,1/2+y,z
1/2+x,-y,z
loop_
_atom_site_type_symbol
_atom_site_label
_atom_site_fract_x
_atom_site_fract_y
_atom_site_fract_z
Si Si1 0.500000 0.930028 0.259304
Si Si2 0.188263 0.428435 0.688830
Si Si3 0.375773 0.569670 0.434260
Si Si4 0.500000 0.570765 0.403144
Si Si5 0.934130 0.428495 0.069904
Si Si6 0.607455 0.072304 0.193611
O O1 0.500000 0.750000 0.258954
O O2 0.500000 0.002644 0.331309
O O3 0.555560 0.985211 0.224360
O O4 0.191834 0.250000 0.674617
O O5 0.250000 0.500000 0.687270
O O6 0.150833 0.503011 0.631699
O O7 0.162355 0.461537 0.761020
O O8 0.346650 0.500000 0.500000
O O9 0.367282 0.750000 0.433459
O O10 0.442208 0.518890 0.438851
O O11 0.500000 0.750000 0.395266
O O12 0.922706 0.250000 0.066948
O O13 0.888730 0.504325 0.120222
O O14 0.000000 0.462667 0.090224
O O15 0.920476 0.500000 0.000000
O O16 0.594753 0.250000 0.189636
#
# Coordination Sequence:
#
# PCOD8279761 Si02
#       6
#     8  16  16   8  16  16
#     4  11  19  32  55  85 115 151 192 227 282 343
#     4  11  25  43  62  85 110 147 195 244 292 339
#     4  11  22  39  60  86 118 152 189 234 286 345
#     4   9  19  34  56  85 118 152 185 226 280 343
#     4  10  20  33  53  84 122 161 194 227 276 336
#     4  11  22  36  57  86 119 151 189 237 287 338
#
# _framework density 19.013935
#
# number of rings (size 3 to 8) (size 9 to 14) (size 15 to 20)
#    0.000    1.400    3.000    3.000    0.000    3.600 
#    0.000    3.500    0.000    0.600    0.000    4.200 
#    0.000    0.000    0.000    0.000    0.000    0.000 
#
# Total GULP energy -495864.953794 kJ/mol
# GULP energy per Si atom -12396.623845 kJ/mol
# Density = 1.897066 g / cm^3
# Si number density = 19.013935 Si / 1000 Ang^3
#
#
#
# Elastic Constant Matrix: (Units=GPa)
#
#
# Indices 1 2 3 4 5 6 
#
# 1 88.8036 47.3871 42.1056 0.0000 0.0000 0.0000
# 2 47.3871 113.5847 66.5844 0.0000 0.0000 0.0000
# 3 42.1056 66.5844 148.5426 0.0000 0.0000 0.0000
# 4 0.0000 0.0000 0.0000 37.2932 0.0000 0.0000
# 5 0.0000 0.0000 0.0000 0.0000 10.4906 0.0000
# 6 0.0000 0.0000 0.0000 0.0000 0.0000 25.5703
#
#
#
# Elastic Compliance Matrix: (Units=1/GPa)
#
#
# Indices 1 2 3 4 5 6 
#
# 1 0.014890 -0.005070 -0.001948 0.000000 0.000000 0.000000
# 2 -0.005070 0.013668 -0.004690 0.000000 0.000000 0.000000
# 3 -0.001948 -0.004690 0.009386 0.000000 0.000000 0.000000
# 4 0.000000 0.000000 0.000000 0.026815 0.000000 0.000000
# 5 0.000000 0.000000 0.000000 0.000000 0.095323 0.000000
# 6 0.000000 0.000000 0.000000 0.000000 0.000000 0.039108
#
#
# Mechanical properties :
#
#
# Convention : Reuss Voigt Hill
#
# Bulk Modulus (GPa) = 68.82723 73.67611 71.25167
# Shear Modulus (GPa) = 21.98297 27.66109 24.82203
#
# Velocity S-wave (km/s) = 3.40391 3.81830 3.61704
# Velocity P-wave (km/s) = 7.19206 7.63360 7.41611
#
# Compressibility (1/GPa) = 0.01452913
#
# Stress axis : x y z
#
# Youngs Moduli (GPa) = 67.15958 73.16171 106.53692
#
# Poissons Ratio (x) = 0.37093 0.20753
# Poissons Ratio (y) = 0.34050 0.49963
# Poissons Ratio (z) = 0.13083 0.34311
#
# Static dielectric constant tensor:
#      x y z
#    x 3.090490 0.000000 0.000000 
#    y 0.000000 3.572630 0.000000 
#    z 0.000000 0.000000 3.836170 
# 
# 
# High freq. dielectric constant tensor:
#      x y z
#    x 1.707950 0.000000 0.000000 
#    y 0.000000 1.749410 0.000000 
#    z 0.000000 0.000000 1.759010 
# 
# From -- ./inp_files/39541.got.cif
#   From: 2010.03.12/outbox.cif.g09.slc.cpg/sg67_20_cif.got.tgz:39541.got - 2010.04.10 22:41:39.
