data_PCOD8279638
_publ_section_title
;
Structure prediction by ZEFSAII (Michael W. Deem and Ramdas Pophale) SiO2 
 PCOD8279638
Probable space group: C M M A
;
_chemical_formula_sum "Si O2"
_cell_formula_units_Z 112
_cell_length_a 9.784330
_cell_length_b 17.932071
_cell_length_c 36.134872
_cell_angle_alpha 90.000000
_cell_angle_beta 90.000000
_cell_angle_gamma 90.000000
_cell_volume 6339.982546
_symmetry_space_group_name_H-M "C M M A"
_symmetry_group_IT_number 67
_symmetry_cell_setting 'orthorhombic'
loop_
_space_group_symop_operation_xyz
x,y,z
-x,1/2-y,z
x,-y,-z
-x,1/2+y,-z
-x,-y,-z
x,1/2+y,-z
-x,y,z
x,1/2-y,z
1/2+x,1/2+y,z
1/2-x,-y,z
1/2+x,1/2-y,-z
1/2-x,y,-z
1/2-x,1/2-y,-z
1/2+x,y,-z
1/2-x,1/2+y,z
1/2+x,-y,z
loop_
_atom_site_type_symbol
_atom_site_label
_atom_site_fract_x
_atom_site_fract_y
_atom_site_fract_z
Si Si1 0.339652 0.926606 0.748127
Si Si2 0.843344 0.336015 0.533524
Si Si3 0.161640 0.833081 0.322408
Si Si4 0.346555 0.661355 0.113454
Si Si5 0.160255 0.573369 0.393052
Si Si6 0.346630 0.661214 0.031620
Si Si7 0.656659 0.163656 0.178286
O O1 0.500000 0.946793 0.744954
O O2 0.288433 0.878044 0.713446
O O3 0.307295 0.879988 0.784686
O O4 0.250000 0.000000 0.749150
O O5 0.812138 0.250000 0.542704
O O6 0.750000 0.365166 0.500000
O O7 0.806784 0.383041 0.569502
O O8 0.000000 0.347327 0.521631
O O9 0.226202 0.750000 0.321958
O O10 0.209839 0.875372 0.359210
O O11 0.000000 0.826096 0.321875
O O12 0.500000 0.633317 0.121994
O O13 0.341760 0.750000 0.114090
O O14 0.300243 0.633738 0.072551
O O15 0.245717 0.629340 0.144738
O O16 0.250000 0.500000 0.392292
O O17 0.000000 0.553186 0.389796
O O18 0.500000 0.633751 0.023535
O O19 0.340200 0.750000 0.030265
O O20 0.250000 0.625978 0.000000
O O21 0.500000 0.153165 0.166776
O O22 0.691249 0.250000 0.185597
#
# Coordination Sequence:
#
# PCOD8279638 Si02
#       7
#    16  16  16  16  16  16  16
#     4  10  20  33  50  72  97 123 152 189 233 279
#     4   9  18  33  52  73  97 128 168 209 246 287
#     4   9  17  32  55  77  96 124 162 199 234 276
#     4   8  14  24  37  55  81 113 148 186 228 272
#     4  10  20  33  51  75 102 131 163 200 242 289
#     4   8  13  20  30  47  74 108 144 180 220 267
#     4   9  17  29  45  65  88 116 153 192 226 266
#
# _framework density 17.665664
#
# number of rings (size 3 to 8) (size 9 to 14) (size 15 to 20)
#    0.000    3.000    0.000    2.143    0.000    5.429 
#    0.000    4.286    0.000    3.429    0.000    0.000 
#    0.000    0.571    0.000    6.286    0.000   10.286 
#
# Total GULP energy -694245.665103 kJ/mol
# GULP energy per Si atom -12397.244020 kJ/mol
# Density = 1.762546 g / cm^3
# Si number density = 17.665664 Si / 1000 Ang^3
#
#
#
# Elastic Constant Matrix: (Units=GPa)
#
#
# Indices 1 2 3 4 5 6 
#
# 1 74.3116 50.7046 84.2347 0.0000 0.0000 0.0000
# 2 50.7046 84.6019 67.8725 0.0000 0.0000 0.0000
# 3 84.2347 67.8725 185.2244 0.0000 0.0000 0.0000
# 4 0.0000 0.0000 0.0000 -1.7520 0.0000 0.0000
# 5 0.0000 0.0000 0.0000 0.0000 27.8744 0.0000
# 6 0.0000 0.0000 0.0000 0.0000 0.0000 24.0447
#
#
#
# Elastic Compliance Matrix: (Units=1/GPa)
#
#
# Indices 1 2 3 4 5 6 
#
# 1 0.033996 -0.011291 -0.011323 0.000000 0.000000 0.000000
# 2 -0.011291 0.020492 -0.002374 0.000000 0.000000 0.000000
# 3 -0.011323 -0.002374 0.011418 0.000000 0.000000 0.000000
# 4 0.000000 0.000000 0.000000 -0.570792 0.000000 0.000000
# 5 0.000000 0.000000 0.000000 0.000000 0.035875 0.000000
# 6 0.000000 0.000000 0.000000 0.000000 0.000000 0.041589
#
#
# Mechanical properties :
#
#
# Convention : Reuss Voigt Hill
#
# Bulk Modulus (GPa) = 62.77521 83.30684 73.04102
# Shear Modulus (GPa) = -13.43595 19.45516 3.00960
#
# Velocity S-wave (km/s) = -2.76083 3.32218 1.30665
# Velocity P-wave (km/s) = 5.04474 7.87247 6.61155
#
# Compressibility (1/GPa) = 0.01592986
#
# Stress axis : x y z
#
# Youngs Moduli (GPa) = 29.41534 48.80037 87.57956
#
# Poissons Ratio (x) = 0.55100 0.99166
# Poissons Ratio (y) = 0.33212 0.20792
# Poissons Ratio (z) = 0.33307 0.11586
#
# Static dielectric constant tensor:
#      x y z
#    x 3.227070 0.000000 0.000000 
#    y 0.000000 3.021460 0.000000 
#    z 0.000000 0.000000 3.622210 
# 
# 
# High freq. dielectric constant tensor:
#      x y z
#    x 1.665580 0.000000 0.000000 
#    y 0.000000 1.652590 0.000000 
#    z 0.000000 0.000000 1.701280 
# 
# From -- ./inp_files/45587.got.cif
#   From: 2010.03.12/outbox.cif.g09.slc.cpg/sg67_23_cif.got.tgz:45587.got - 2010.04.10 22:41:39.
