data_PCOD8279557
_publ_section_title
;
Structure prediction by ZEFSAII (Michael W. Deem and Ramdas Pophale) SiO2 
 PCOD8279557
Probable space group: C M M A
;
_chemical_formula_sum "Si O2"
_cell_formula_units_Z 96
_cell_length_a 8.910172
_cell_length_b 23.673902
_cell_length_c 25.772611
_cell_angle_alpha 90.000000
_cell_angle_beta 90.000000
_cell_angle_gamma 90.000000
_cell_volume 5436.436904
_symmetry_space_group_name_H-M "C M M A"
_symmetry_group_IT_number 67
_symmetry_cell_setting 'orthorhombic'
loop_
_space_group_symop_operation_xyz
x,y,z
-x,1/2-y,z
x,-y,-z
-x,1/2+y,-z
-x,-y,-z
x,1/2+y,-z
-x,y,z
x,1/2-y,z
1/2+x,1/2+y,z
1/2-x,-y,z
1/2+x,1/2-y,-z
1/2-x,y,-z
1/2-x,1/2-y,-z
1/2+x,y,-z
1/2-x,1/2+y,z
1/2+x,-y,z
loop_
_atom_site_type_symbol
_atom_site_label
_atom_site_fract_x
_atom_site_fract_y
_atom_site_fract_z
Si Si1 0.325729 0.870869 0.251580
Si Si2 0.827075 0.250000 0.292987
Si Si3 0.674553 0.060648 0.163370
Si Si4 0.675868 0.939668 0.351359
Si Si5 0.821719 0.250000 0.597168
Si Si6 0.178334 0.637878 0.553465
Si Si7 0.825650 0.560666 0.048572
O O1 0.500000 0.883116 0.242079
O O2 0.293887 0.804394 0.257754
O O3 0.235096 0.892601 0.202365
O O4 0.267500 0.902324 0.303108
O O5 0.720355 0.250000 0.342539
O O6 0.000000 0.250000 0.312820
O O7 0.500000 0.050826 0.173184
O O8 0.703844 0.086654 0.105658
O O9 0.750000 0.000000 0.172551
O O10 0.500000 0.948164 0.348350
O O11 0.722765 0.908588 0.404015
O O12 0.750000 0.000000 0.348755
O O13 0.752796 0.196574 0.568541
O O14 0.000000 0.250000 0.590935
O O15 0.250000 0.616106 0.500000
O O16 0.000000 0.645543 0.548836
O O17 0.750000 0.500000 0.049910
O O18 0.000000 0.554983 0.036790
O O19 0.750000 0.595158 0.000000
#
# Coordination Sequence:
#
# PCOD8279557 Si02
#       7
#    16   8  16  16   8  16  16
#     4  10  20  36  57  79 103 138 174 213 264 313
#     4  10  20  39  61  80 107 137 171 215 263 313
#     4  10  20  32  48  75 110 144 178 219 260 308
#     4  10  22  38  57  78 106 140 173 212 257 307
#     4  12  23  37  60  88 109 135 171 213 264 315
#     4  11  23  41  60  81 109 140 174 216 262 312
#     4   9  16  26  42  66  99 138 177 216 259 301
#
# _framework density 17.658625000000001
#
# number of rings (size 3 to 8) (size 9 to 14) (size 15 to 20)
#    0.000    1.833    1.667    3.500    0.000    6.333 
#    0.000    1.667    0.000    0.000    0.000    0.583 
#    0.000    0.000    0.000    0.000    0.000    0.000 
#
# Total GULP energy -595127.057796 kJ/mol
# GULP energy per Si atom -12398.480371 kJ/mol
# Density = 1.761843 g / cm^3
# Si number density = 17.658625 Si / 1000 Ang^3
#
#
#
# Elastic Constant Matrix: (Units=GPa)
#
#
# Indices 1 2 3 4 5 6 
#
# 1 89.4719 42.3243 68.7586 0.0000 0.0000 0.0000
# 2 42.3243 114.3625 63.7070 0.0000 0.0000 0.0000
# 3 68.7586 63.7070 163.6005 0.0000 0.0000 0.0000
# 4 0.0000 0.0000 0.0000 34.7416 0.0000 0.0000
# 5 0.0000 0.0000 0.0000 0.0000 33.2710 0.0000
# 6 0.0000 0.0000 0.0000 0.0000 0.0000 17.3527
#
#
#
# Elastic Compliance Matrix: (Units=1/GPa)
#
#
# Indices 1 2 3 4 5 6 
#
# 1 0.017279 -0.003000 -0.006094 0.000000 0.000000 0.000000
# 2 -0.003000 0.011687 -0.003290 0.000000 0.000000 0.000000
# 3 -0.006094 -0.003290 0.009955 0.000000 0.000000 0.000000
# 4 0.000000 0.000000 0.000000 0.028784 0.000000 0.000000
# 5 0.000000 0.000000 0.000000 0.000000 0.030056 0.000000
# 6 0.000000 0.000000 0.000000 0.000000 0.000000 0.057628
#
#
# Mechanical properties :
#
#
# Convention : Reuss Voigt Hill
#
# Bulk Modulus (GPa) = 70.65743 79.66829 75.16286
# Shear Modulus (GPa) = 27.04531 29.91605 28.48068
#
# Velocity S-wave (km/s) = 3.91777 4.12045 4.02038
# Velocity P-wave (km/s) = 7.78235 8.23718 8.01300
#
# Compressibility (1/GPa) = 0.01415279
#
# Stress axis : x y z
#
# Youngs Moduli (GPa) = 57.87395 85.56306 100.45413
#
# Poissons Ratio (x) = 0.25670 0.61215
# Poissons Ratio (y) = 0.17363 0.33051
# Poissons Ratio (z) = 0.35267 0.28152
#
# Static dielectric constant tensor:
#      x y z
#    x 3.343930 0.000000 0.000000 
#    y 0.000000 3.044850 0.000000 
#    z 0.000000 0.000000 4.108310 
# 
# 
# High freq. dielectric constant tensor:
#      x y z
#    x 1.691320 0.000000 0.000000 
#    y 0.000000 1.653900 0.000000 
#    z 0.000000 0.000000 1.698630 
# 
# From -- ./inp_files/40832.got.cif
#   From: 2010.03.12/outbox.cif.g09.slc.cpg/sg67_21_cif.got.tgz:40832.got - 2010.04.10 22:41:39.
