data_PCOD8279748
_publ_section_title
;
Structure prediction by ZEFSAII (Michael W. Deem and Ramdas Pophale) SiO2 
 PCOD8279748
Probable space group: C M M A
;
_chemical_formula_sum "Si O2"
_cell_formula_units_Z 104
_cell_length_a 20.222858
_cell_length_b 8.927794
_cell_length_c 29.986716
_cell_angle_alpha 90.000000
_cell_angle_beta 90.000000
_cell_angle_gamma 90.000000
_cell_volume 5413.966943
_symmetry_space_group_name_H-M "C M M A"
_symmetry_group_IT_number 67
_symmetry_cell_setting 'orthorhombic'
loop_
_space_group_symop_operation_xyz
x,y,z
-x,1/2-y,z
x,-y,-z
-x,1/2+y,-z
-x,-y,-z
x,1/2+y,-z
-x,y,z
x,1/2-y,z
1/2+x,1/2+y,z
1/2-x,-y,z
1/2+x,1/2-y,-z
1/2-x,y,-z
1/2-x,1/2-y,-z
1/2+x,y,-z
1/2-x,1/2+y,z
1/2+x,-y,z
loop_
_atom_site_type_symbol
_atom_site_label
_atom_site_fract_x
_atom_site_fract_y
_atom_site_fract_z
Si Si1 0.321783 0.425189 0.859359
Si Si2 0.923875 0.075004 0.301044
Si Si3 0.000000 0.574955 0.453278
Si Si4 0.923905 0.926168 0.207398
Si Si5 0.820624 0.423000 0.041422
Si Si6 0.857894 0.576927 0.453462
Si Si7 0.815216 0.574444 0.359034
O O1 0.314346 0.250000 0.847980
O O2 0.250000 0.500000 0.852779
O O3 0.375920 0.500836 0.828426
O O4 0.351272 0.447479 0.909478
O O5 0.908491 0.250000 0.296337
O O6 0.000000 0.045608 0.314058
O O7 0.905720 0.995640 0.254892
O O8 0.879982 0.003243 0.339568
O O9 0.000000 0.500000 0.500000
O O10 0.929674 0.525299 0.432434
O O11 0.000000 0.750000 0.458901
O O12 0.911051 0.750000 0.209401
O O13 0.000000 0.962484 0.194778
O O14 0.813094 0.250000 0.030114
O O15 0.750000 0.500000 0.042977
O O16 0.861308 0.500000 0.000000
O O17 0.836623 0.500000 0.500000
O O18 0.859004 0.750000 0.466035
O O19 0.809436 0.543809 0.412362
O O20 0.817637 0.750000 0.348077
O O21 0.750000 0.500000 0.337310
#
# Coordination Sequence:
#
# PCOD8279748 Si02
#       7
#    16  16   8  16  16  16  16
#     4  10  20  33  52  81 114 148 188 234 282 332
#     4  10  22  41  64  88 112 141 180 226 275 331
#     4   8  14  28  48  74 102 130 170 214 258 302
#     4  10  21  38  60  85 112 144 182 225 277 336
#     4   9  16  26  43  69 103 143 185 230 278 326
#     4   9  19  34  55  80 109 145 182 223 267 317
#     4  11  24  40  59  84 116 151 186 227 273 325
#
# _framework density 19.209574
#
# number of rings (size 3 to 8) (size 9 to 14) (size 15 to 20)
#    0.000    2.308    0.000    2.769    1.077    5.846 
#    0.000    4.615    0.000    0.462    0.000    0.000 
#    0.000    0.000    0.000    0.000    0.000    0.000 
#
# Total GULP energy -644213.254913 kJ/mol
# GULP energy per Si atom -12388.716441 kJ/mol
# Density = 1.916585 g / cm^3
# Si number density = 19.209574 Si / 1000 Ang^3
#
#
#
# Elastic Constant Matrix: (Units=GPa)
#
#
# Indices 1 2 3 4 5 6 
#
# 1 77.8392 49.9594 47.5924 0.0000 0.0000 0.0000
# 2 49.9594 118.1030 62.7225 0.0000 0.0000 0.0000
# 3 47.5924 62.7225 110.9509 0.0000 0.0000 0.0000
# 4 0.0000 0.0000 0.0000 35.3887 0.0000 0.0000
# 5 0.0000 0.0000 0.0000 0.0000 24.4633 0.0000
# 6 0.0000 0.0000 0.0000 0.0000 0.0000 28.6197
#
#
#
# Elastic Compliance Matrix: (Units=1/GPa)
#
#
# Indices 1 2 3 4 5 6 
#
# 1 0.019610 -0.005471 -0.005319 0.000000 0.000000 0.000000
# 2 -0.005471 0.013626 -0.005356 0.000000 0.000000 0.000000
# 3 -0.005319 -0.005356 0.014323 0.000000 0.000000 0.000000
# 4 0.000000 0.000000 0.000000 0.028258 0.000000 0.000000
# 5 0.000000 0.000000 0.000000 0.000000 0.040878 0.000000
# 6 0.000000 0.000000 0.000000 0.000000 0.000000 0.034941
#
#
# Mechanical properties :
#
#
# Convention : Reuss Voigt Hill
#
# Bulk Modulus (GPa) = 65.50202 69.71573 67.60887
# Shear Modulus (GPa) = 26.45266 27.46894 26.96080
#
# Velocity S-wave (km/s) = 3.71490 3.78558 3.75041
# Velocity P-wave (km/s) = 7.25074 7.44839 7.35023
#
# Compressibility (1/GPa) = 0.01526671
#
# Stress axis : x y z
#
# Youngs Moduli (GPa) = 50.99319 73.38897 69.81873
#
# Poissons Ratio (x) = 0.40148 0.37139
# Poissons Ratio (y) = 0.27896 0.37398
# Poissons Ratio (z) = 0.27125 0.39310
#
# Static dielectric constant tensor:
#      x y z
#    x 3.418320 0.000000 0.000000 
#    y 0.000000 3.608960 0.000000 
#    z 0.000000 0.000000 3.894750 
# 
# 
# High freq. dielectric constant tensor:
#      x y z
#    x 1.729940 0.000000 0.000000 
#    y 0.000000 1.760800 0.000000 
#    z 0.000000 0.000000 1.748980 
# 
# From -- ./inp_files/45863.got.cif
#   From: 2010.03.12/outbox.cif.g09.slc.cpg/sg67_23_cif.got.tgz:45863.got - 2010.04.10 22:41:39.
