data_PCOD8279592
_publ_section_title
;
Structure prediction by ZEFSAII (Michael W. Deem and Ramdas Pophale) SiO2 
 PCOD8279592
Probable space group: C M M A
;
_chemical_formula_sum "Si O2"
_cell_formula_units_Z 96
_cell_length_a 27.529478
_cell_length_b 16.860798
_cell_length_c 10.298735
_cell_angle_alpha 90.000000
_cell_angle_beta 90.000000
_cell_angle_gamma 90.000000
_cell_volume 4780.353193
_symmetry_space_group_name_H-M "C M M A"
_symmetry_group_IT_number 67
_symmetry_cell_setting 'orthorhombic'
loop_
_space_group_symop_operation_xyz
x,y,z
-x,1/2-y,z
x,-y,-z
-x,1/2+y,-z
-x,-y,-z
x,1/2+y,-z
-x,y,z
x,1/2-y,z
1/2+x,1/2+y,z
1/2-x,-y,z
1/2+x,1/2-y,-z
1/2-x,y,-z
1/2-x,1/2-y,-z
1/2+x,y,-z
1/2-x,1/2+y,z
1/2+x,-y,z
loop_
_atom_site_type_symbol
_atom_site_label
_atom_site_fract_x
_atom_site_fract_y
_atom_site_fract_z
Si Si1 0.624667 0.043185 0.627673
Si Si2 0.193794 0.093782 0.006275
Si Si3 0.446337 0.342826 0.095258
Si Si4 0.609613 0.156151 0.839604
Si Si5 0.193463 0.837126 0.501355
Si Si6 0.642581 0.615978 0.751987
O O1 0.591777 0.105306 0.711872
O O2 0.670967 0.093262 0.584574
O O3 0.599537 0.000000 0.500000
O O4 0.645554 0.977134 0.722963
O O5 0.171518 0.136692 0.881201
O O6 0.250000 0.116494 0.000000
O O7 0.166031 0.132415 0.130265
O O8 0.185499 0.000000 0.000000
O O9 0.500000 0.380981 0.112883
O O10 0.451141 0.250000 0.081994
O O11 0.414108 0.362886 0.222305
O O12 0.422702 0.374181 0.960840
O O13 0.604235 0.250000 0.811975
O O14 0.185170 0.750000 0.564336
O O15 0.250000 0.857046 0.500000
O O16 0.167334 0.833667 0.361394
#
# Coordination Sequence:
#
# PCOD8279592 Si02
#       6
#    16  16  16  16  16  16
#     4  10  21  36  54  76 111 154 193 234 285 338
#     4  10  20  32  52  80 113 153 186 229 295 355
#     4   9  19  37  63  91 115 145 185 237 302 357
#     4  10  20  36  57  82 113 148 190 239 290 351
#     4  10  22  36  54  81 114 157 205 245 284 337
#     4  10  20  35  56  81 116 147 192 239 286 347
#
# _framework density 20.082198000000002
#
# number of rings (size 3 to 8) (size 9 to 14) (size 15 to 20)
#    0.000    2.167    1.667    1.000    2.333    4.000 
#    0.000    1.667    0.000    9.000    0.000    9.333 
#    0.000    0.000    0.000    0.000    0.000    0.000 
#
# Total GULP energy -594745.581954 kJ/mol
# GULP energy per Si atom -12390.532957 kJ/mol
# Density = 2.003649 g / cm^3
# Si number density = 20.082198 Si / 1000 Ang^3
#
#
#
# Elastic Constant Matrix: (Units=GPa)
#
#
# Indices 1 2 3 4 5 6 
#
# 1 126.9617 20.8156 47.2539 0.0000 0.0000 0.0000
# 2 20.8156 77.2364 26.6126 0.0000 0.0000 0.0000
# 3 47.2539 26.6126 102.4409 0.0000 0.0000 0.0000
# 4 0.0000 0.0000 0.0000 38.4957 0.0000 0.0000
# 5 0.0000 0.0000 0.0000 0.0000 18.9189 0.0000
# 6 0.0000 0.0000 0.0000 0.0000 0.0000 -53.7058
#
#
#
# Elastic Compliance Matrix: (Units=1/GPa)
#
#
# Indices 1 2 3 4 5 6 
#
# 1 0.009604 -0.001166 -0.004127 0.000000 0.000000 0.000000
# 2 -0.001166 0.014362 -0.003193 0.000000 0.000000 0.000000
# 3 -0.004127 -0.003193 0.012495 0.000000 0.000000 0.000000
# 4 0.000000 0.000000 0.000000 0.025977 0.000000 0.000000
# 5 0.000000 0.000000 0.000000 0.000000 0.052857 0.000000
# 6 0.000000 0.000000 0.000000 0.000000 0.000000 -0.018620
#
#
# Mechanical properties :
#
#
# Convention : Reuss Voigt Hill
#
# Bulk Modulus (GPa) = 51.31404 55.11146 53.21275
# Shear Modulus (GPa) = 41.61708 14.87221 28.24465
#
# Velocity S-wave (km/s) = 4.55723 2.72429 3.75434
# Velocity P-wave (km/s) = 7.30059 6.11541 6.73412
#
# Compressibility (1/GPa) = 0.01948784
#
# Stress axis : x y z
#
# Youngs Moduli (GPa) = 104.12737 69.62941 80.03260
#
# Poissons Ratio (x) = 0.08120 0.33029
# Poissons Ratio (y) = 0.12144 0.25554
# Poissons Ratio (z) = 0.42973 0.22233
#
# Static dielectric constant tensor:
#      x y z
#    x 3.638990 0.000000 0.000000 
#    y 0.000000 3.661550 0.000000 
#    z 0.000000 0.000000 3.913750 
# 
# 
# High freq. dielectric constant tensor:
#      x y z
#    x 1.748430 0.000000 0.000000 
#    y 0.000000 1.791960 0.000000 
#    z 0.000000 0.000000 1.787130 
# 
# From -- ./inp_files/22942.got.cif
#   From: 2010.03.12/outbox.cif.g09.slc.cpg/sg67_12_cif.got.tgz:22942.got - 2010.04.10 22:41:39.
