data_PCOD8279665
_publ_section_title
;
Structure prediction by ZEFSAII (Michael W. Deem and Ramdas Pophale) SiO2 
 PCOD8279665
Probable space group: C M M A
;
_chemical_formula_sum "Si O2"
_cell_formula_units_Z 104
_cell_length_a 27.302433
_cell_length_b 19.535879
_cell_length_c 10.756418
_cell_angle_alpha 90.000000
_cell_angle_beta 90.000000
_cell_angle_gamma 90.000000
_cell_volume 5737.226259
_symmetry_space_group_name_H-M "C M M A"
_symmetry_group_IT_number 67
_symmetry_cell_setting 'orthorhombic'
loop_
_space_group_symop_operation_xyz
x,y,z
-x,1/2-y,z
x,-y,-z
-x,1/2+y,-z
-x,-y,-z
x,1/2+y,-z
-x,y,z
x,1/2-y,z
1/2+x,1/2+y,z
1/2-x,-y,z
1/2+x,1/2-y,-z
1/2-x,y,-z
1/2-x,1/2-y,-z
1/2+x,y,-z
1/2-x,1/2+y,z
1/2+x,-y,z
loop_
_atom_site_type_symbol
_atom_site_label
_atom_site_fract_x
_atom_site_fract_y
_atom_site_fract_z
Si Si1 0.126131 0.827855 0.402661
Si Si2 0.846116 0.823935 0.124825
Si Si3 0.297507 0.959621 0.192296
Si Si4 0.108097 0.038157 0.879385
Si Si5 0.557824 0.048944 0.383189
Si Si6 0.194726 0.925103 0.542740
Si Si7 0.250000 0.864734 0.000000
O O1 0.112639 0.750000 0.441739
O O2 0.154383 0.830086 0.272850
O O3 0.077050 0.873954 0.404562
O O4 0.164113 0.861460 0.495546
O O5 0.868042 0.750000 0.083733
O O6 0.883690 0.882721 0.077884
O O7 0.788929 0.823144 0.082430
O O8 0.314380 0.916908 0.310800
O O9 0.250000 0.000000 0.238267
O O10 0.337174 0.013307 0.146516
O O11 0.286437 0.910099 0.080194
O O12 0.076950 0.024442 0.753558
O O13 0.084452 0.000000 0.000000
O O14 0.500000 0.051620 0.375278
O O15 0.573975 0.000000 0.500000
O O16 0.250000 0.915346 0.500000
O O17 0.174739 0.000000 0.500000
#
# Coordination Sequence:
#
# PCOD8279665 Si02
#       7
#    16  16  16  16  16  16   8
#     4  10  21  38  57  81 114 146 183 233 284 337
#     4  10  20  33  50  74 108 148 186 227 268 316
#     4  12  19  31  52  78 108 150 195 225 268 324
#     4  11  20  35  58  82 112 145 181 237 284 336
#     4  10  22  40  64  88 109 140 184 237 293 346
#     4  11  20  32  52  79 112 154 192 232 275 324
#     4  12  20  32  48  76 106 152 198 224 254 322
#
# _framework density 18.127226
#
# number of rings (size 3 to 8) (size 9 to 14) (size 15 to 20)
#    0.000    1.231    4.615    4.615    0.000    0.923 
#    0.000    1.538    0.000    0.000    0.000    0.000 
#    0.000    0.000    0.000    0.000    0.000    0.000 
#
# Total GULP energy -644352.958246 kJ/mol
# GULP energy per Si atom -12391.403043 kJ/mol
# Density = 1.808597 g / cm^3
# Si number density = 18.127226 Si / 1000 Ang^3
#
#
#
# Elastic Constant Matrix: (Units=GPa)
#
#
# Indices 1 2 3 4 5 6 
#
# 1 75.6913 43.7410 40.8617 0.0000 0.0000 0.0000
# 2 43.7410 137.4806 62.4760 0.0000 0.0000 0.0000
# 3 40.8617 62.4760 116.7923 0.0000 0.0000 0.0000
# 4 0.0000 0.0000 0.0000 23.6838 0.0000 0.0000
# 5 0.0000 0.0000 0.0000 0.0000 22.3041 0.0000
# 6 0.0000 0.0000 0.0000 0.0000 0.0000 11.8334
#
#
#
# Elastic Compliance Matrix: (Units=1/GPa)
#
#
# Indices 1 2 3 4 5 6 
#
# 1 0.017608 -0.003703 -0.004180 0.000000 0.000000 0.000000
# 2 -0.003703 0.010388 -0.004262 0.000000 0.000000 0.000000
# 3 -0.004180 -0.004262 0.012304 0.000000 0.000000 0.000000
# 4 0.000000 0.000000 0.000000 0.042223 0.000000 0.000000
# 5 0.000000 0.000000 0.000000 0.000000 0.044835 0.000000
# 6 0.000000 0.000000 0.000000 0.000000 0.000000 0.084506
#
#
# Mechanical properties :
#
#
# Convention : Reuss Voigt Hill
#
# Bulk Modulus (GPa) = 62.45186 69.34685 65.89936
# Shear Modulus (GPa) = 20.70481 23.75664 22.23072
#
# Velocity S-wave (km/s) = 3.38330 3.62408 3.50576
# Velocity P-wave (km/s) = 7.05614 7.47333 7.26773
#
# Compressibility (1/GPa) = 0.01601233
#
# Stress axis : x y z
#
# Youngs Moduli (GPa) = 56.79342 96.26056 81.27284
#
# Poissons Ratio (x) = 0.35642 0.33969
# Poissons Ratio (y) = 0.21029 0.34636
# Poissons Ratio (z) = 0.23738 0.41023
#
# Static dielectric constant tensor:
#      x y z
#    x 3.131880 0.000000 0.000000 
#    y 0.000000 3.572230 0.000000 
#    z 0.000000 0.000000 3.591170 
# 
# 
# High freq. dielectric constant tensor:
#      x y z
#    x 1.676720 0.000000 0.000000 
#    y 0.000000 1.697720 0.000000 
#    z 0.000000 0.000000 1.712340 
# 
# From -- ./inp_files/22985.got.cif
#   From: 2010.03.12/outbox.cif.g09.slc.cpg/sg67_12_cif.got.tgz:22985.got - 2010.04.10 22:41:39.
