data_PCOD8279913
_publ_section_title
;
Structure prediction by ZEFSAII (Michael W. Deem and Ramdas Pophale) SiO2 
 PCOD8279913
Probable space group: C M M A
;
_chemical_formula_sum "Si O2"
_cell_formula_units_Z 96
_cell_length_a 27.274374
_cell_length_b 17.133916
_cell_length_c 10.541392
_cell_angle_alpha 90.000000
_cell_angle_beta 90.000000
_cell_angle_gamma 90.000000
_cell_volume 4926.169926
_symmetry_space_group_name_H-M "C M M A"
_symmetry_group_IT_number 67
_symmetry_cell_setting 'orthorhombic'
loop_
_space_group_symop_operation_xyz
x,y,z
-x,1/2-y,z
x,-y,-z
-x,1/2+y,-z
-x,-y,-z
x,1/2+y,-z
-x,y,z
x,1/2-y,z
1/2+x,1/2+y,z
1/2-x,-y,z
1/2+x,1/2-y,-z
1/2-x,y,-z
1/2-x,1/2-y,-z
1/2+x,y,-z
1/2-x,1/2+y,z
1/2+x,-y,z
loop_
_atom_site_type_symbol
_atom_site_label
_atom_site_fract_x
_atom_site_fract_y
_atom_site_fract_z
Si Si1 0.387168 0.455189 0.124123
Si Si2 0.328097 0.161812 0.285783
Si Si3 0.361575 0.841924 0.429596
Si Si4 0.442763 0.583258 0.277198
Si Si5 0.264097 0.584617 0.355330
Si Si6 0.055500 0.332440 0.020958
O O1 0.345348 0.402474 0.185598
O O2 0.413805 0.506790 0.230592
O O3 0.365191 0.500000 0.000000
O O4 0.428858 0.399147 0.073245
O O5 0.339916 0.250000 0.241337
O O6 0.352956 0.144619 0.421558
O O7 0.269343 0.151623 0.292113
O O8 0.359169 0.750000 0.396711
O O9 0.414644 0.879328 0.397886
O O10 0.320983 0.889030 0.344466
O O11 0.500000 0.565328 0.311269
O O12 0.438354 0.646678 0.167526
O O13 0.250000 0.500000 0.293664
O O14 0.250000 0.579966 0.500000
O O15 0.083749 0.250000 0.998411
O O16 0.000000 0.319231 0.986603
#
# Coordination Sequence:
#
# PCOD8279913 Si02
#       6
#    16  16  16  16  16  16
#     4  10  20  34  53  77 104 141 184 227 267 311
#     4  10  20  35  56  82 111 140 174 219 270 322
#     4  10  20  34  54  81 111 141 176 219 268 323
#     4  10  20  34  53  77 107 143 181 221 268 322
#     4   9  17  31  54  82 109 138 173 211 254 310
#     4   9  17  31  52  74  98 135 184 231 270 314
#
# _framework density 19.487756000000001
#
# number of rings (size 3 to 8) (size 9 to 14) (size 15 to 20)
#    0.000    2.333    0.000    3.000    0.000    7.000 
#    0.000    2.500    0.000   13.500    0.000   16.333 
#    0.000    0.000    0.000    0.000    0.000    0.000 
#
# Total GULP energy -594740.253200 kJ/mol
# GULP energy per Si atom -12390.421942 kJ/mol
# Density = 1.944340 g / cm^3
# Si number density = 19.487756 Si / 1000 Ang^3
#
#
#
# Elastic Constant Matrix: (Units=GPa)
#
#
# Indices 1 2 3 4 5 6 
#
# 1 101.4211 41.4091 36.1989 0.0000 0.0000 0.0000
# 2 41.4091 130.3338 41.6134 0.0000 0.0000 0.0000
# 3 36.1989 41.6134 54.1097 0.0000 0.0000 0.0000
# 4 0.0000 0.0000 0.0000 7.5663 0.0000 0.0000
# 5 0.0000 0.0000 0.0000 0.0000 18.7679 0.0000
# 6 0.0000 0.0000 0.0000 0.0000 0.0000 28.1760
#
#
#
# Elastic Compliance Matrix: (Units=1/GPa)
#
#
# Indices 1 2 3 4 5 6 
#
# 1 0.013275 -0.001832 -0.007472 0.000000 0.000000 0.000000
# 2 -0.001832 0.010423 -0.006790 0.000000 0.000000 0.000000
# 3 -0.007472 -0.006790 0.028701 0.000000 0.000000 0.000000
# 4 0.000000 0.000000 0.000000 0.132164 0.000000 0.000000
# 5 0.000000 0.000000 0.000000 0.000000 0.053282 0.000000
# 6 0.000000 0.000000 0.000000 0.000000 0.000000 0.035491
#
#
# Mechanical properties :
#
#
# Convention : Reuss Voigt Hill
#
# Bulk Modulus (GPa) = 49.47745 58.25640 53.86692
# Shear Modulus (GPa) = 16.01226 22.01160 19.01193
#
# Velocity S-wave (km/s) = 2.86957 3.36446 3.12682
# Velocity P-wave (km/s) = 6.03517 6.71205 6.38259
#
# Compressibility (1/GPa) = 0.02021123
#
# Stress axis : x y z
#
# Youngs Moduli (GPa) = 75.33158 95.94558 34.84154
#
# Poissons Ratio (x) = 0.17577 0.26033
# Poissons Ratio (y) = 0.13800 0.23657
# Poissons Ratio (z) = 0.56286 0.65147
#
# Static dielectric constant tensor:
#      x y z
#    x 3.565620 0.000000 0.000000 
#    y 0.000000 3.651680 0.000000 
#    z 0.000000 0.000000 3.389490 
# 
# 
# High freq. dielectric constant tensor:
#      x y z
#    x 1.747960 0.000000 0.000000 
#    y 0.000000 1.781030 0.000000 
#    z 0.000000 0.000000 1.725980 
# 
# From -- ./inp_files/21910.got.cif
#   From: 2010.03.12/outbox.cif.g09.slc.cpg/sg67_11_cif.got.tgz:21910.got - 2010.04.10 22:41:39.
