data_PCOD8279060
_publ_section_title
;
Structure prediction by ZEFSAII (Michael W. Deem and Ramdas Pophale) SiO2 
 PCOD8279060
Probable space group: C M M A
;
_chemical_formula_sum "Si O2"
_cell_formula_units_Z 80
_cell_length_a 18.924767
_cell_length_b 16.391034
_cell_length_c 12.444491
_cell_angle_alpha 90.000000
_cell_angle_beta 90.000000
_cell_angle_gamma 90.000000
_cell_volume 3860.237544
_symmetry_space_group_name_H-M "C M M A"
_symmetry_group_IT_number 67
_symmetry_cell_setting 'orthorhombic'
loop_
_space_group_symop_operation_xyz
x,y,z
-x,1/2-y,z
x,-y,-z
-x,1/2+y,-z
-x,-y,-z
x,1/2+y,-z
-x,y,z
x,1/2-y,z
1/2+x,1/2+y,z
1/2-x,-y,z
1/2+x,1/2-y,-z
1/2-x,y,-z
1/2-x,1/2-y,-z
1/2+x,y,-z
1/2-x,1/2+y,z
1/2+x,-y,z
loop_
_atom_site_type_symbol
_atom_site_label
_atom_site_fract_x
_atom_site_fract_y
_atom_site_fract_z
Si Si1 0.079738 0.153297 0.463883
Si Si2 0.165082 0.153112 0.667179
Si Si3 0.675074 0.592568 0.037758
Si Si4 0.922358 0.655208 0.133837
Si Si5 0.679493 0.346295 0.727669
O O1 0.077253 0.250000 0.475045
O O2 0.126264 0.116731 0.561893
O O3 0.116329 0.129132 0.351960
O O4 0.000000 0.117556 0.467333
O O5 0.160283 0.250000 0.664681
O O6 0.125967 0.116621 0.772215
O O7 0.247016 0.126963 0.671509
O O8 0.667276 0.601506 0.165179
O O9 0.668852 0.500000 0.000000
O O10 0.750000 0.629929 0.000000
O O11 0.612463 0.642527 0.982188
O O12 0.930619 0.750000 0.156158
O O13 0.000000 0.614041 0.135837
O O14 0.679940 0.250000 0.755074
#
# Coordination Sequence:
#
# PCOD8279060 Si02
#       5
#    16  16  16  16  16
#     4   9  17  29  48  80 118 146 173 219 278 334
#     4   9  16  29  51  80 112 142 177 221 271 329
#     4  11  23  38  55  77 109 149 193 234 279 331
#     4  10  20  34  56  84 110 142 185 232 282 332
#     4  10  19  32  55  82 110 146 187 229 277 330
#
# _framework density 20.724114
#
# number of rings (size 3 to 8) (size 9 to 14) (size 15 to 20)
#    0.000    2.200    2.000    1.800    0.000    6.800 
#    0.000    2.000    0.000    1.200    0.000    2.800 
#    0.000    0.000    0.000    0.000    0.000    0.000 
#
# Total GULP energy -495967.631838 kJ/mol
# GULP energy per Si atom -12399.190796 kJ/mol
# Density = 2.067694 g / cm^3
# Si number density = 20.724114 Si / 1000 Ang^3
#
#
#
# Elastic Constant Matrix: (Units=GPa)
#
#
# Indices 1 2 3 4 5 6 
#
# 1 151.9946 19.0348 81.3314 0.0000 0.0000 0.0000
# 2 19.0348 23.3605 23.5508 0.0000 0.0000 0.0000
# 3 81.3314 23.5508 178.8811 0.0000 0.0000 0.0000
# 4 0.0000 0.0000 0.0000 17.6249 0.0000 0.0000
# 5 0.0000 0.0000 0.0000 0.0000 27.6678 0.0000
# 6 0.0000 0.0000 0.0000 0.0000 0.0000 9.0561
#
#
#
# Elastic Compliance Matrix: (Units=1/GPa)
#
#
# Indices 1 2 3 4 5 6 
#
# 1 0.008961 -0.003683 -0.003589 0.000000 0.000000 0.000000
# 2 -0.003683 0.050872 -0.005023 0.000000 0.000000 0.000000
# 3 -0.003589 -0.005023 0.007884 0.000000 0.000000 0.000000
# 4 0.000000 0.000000 0.000000 0.056738 0.000000 0.000000
# 5 0.000000 0.000000 0.000000 0.000000 0.036143 0.000000
# 6 0.000000 0.000000 0.000000 0.000000 0.000000 0.110423
#
#
# Mechanical properties :
#
#
# Convention : Reuss Voigt Hill
#
# Bulk Modulus (GPa) = 23.18787 66.89669 45.04228
# Shear Modulus (GPa) = 16.12969 26.22438 21.17703
#
# Velocity S-wave (km/s) = 2.79284 3.56111 3.20011
# Velocity P-wave (km/s) = 4.64898 7.01843 5.95279
#
# Compressibility (1/GPa) = 0.04312599
#
# Stress axis : x y z
#
# Youngs Moduli (GPa) = 111.59340 19.65699 126.84528
#
# Poissons Ratio (x) = 0.07240 0.45530
# Poissons Ratio (y) = 0.41101 0.63716
# Poissons Ratio (z) = 0.40056 0.09874
#
# Static dielectric constant tensor:
#      x y z
#    x 4.103830 0.000000 0.000000 
#    y 0.000000 3.102780 0.000000 
#    z 0.000000 0.000000 3.794800 
# 
# 
# High freq. dielectric constant tensor:
#      x y z
#    x 1.824290 0.000000 0.000000 
#    y 0.000000 1.751830 0.000000 
#    z 0.000000 0.000000 1.819720 
# 
# From -- ./inp_files/17927.got.cif
#   From: 2010.03.12/outbox.cif.g09.slc.cpg/sg67_9_cif.got.tgz:17927.got - 2010.04.10 22:41:39.
