data_PCOD8279643
_publ_section_title
;
Structure prediction by ZEFSAII (Michael W. Deem and Ramdas Pophale) SiO2 
 PCOD8279643
Probable space group: C M M A
;
_chemical_formula_sum "Si O2"
_cell_formula_units_Z 96
_cell_length_a 19.197904
_cell_length_b 8.926706
_cell_length_c 30.915844
_cell_angle_alpha 90.000000
_cell_angle_beta 90.000000
_cell_angle_gamma 90.000000
_cell_volume 5298.173235
_symmetry_space_group_name_H-M "C M M A"
_symmetry_group_IT_number 67
_symmetry_cell_setting 'orthorhombic'
loop_
_space_group_symop_operation_xyz
x,y,z
-x,1/2-y,z
x,-y,-z
-x,1/2+y,-z
-x,-y,-z
x,1/2+y,-z
-x,y,z
x,1/2-y,z
1/2+x,1/2+y,z
1/2-x,-y,z
1/2+x,1/2-y,-z
1/2-x,y,-z
1/2-x,1/2-y,-z
1/2+x,y,-z
1/2-x,1/2+y,z
1/2+x,-y,z
loop_
_atom_site_type_symbol
_atom_site_label
_atom_site_fract_x
_atom_site_fract_y
_atom_site_fract_z
Si Si1 0.417362 0.915662 0.209678
Si Si2 0.323120 0.072072 0.045066
Si Si3 0.918446 0.576327 0.886561
Si Si4 0.581968 0.421701 0.294099
Si Si5 0.675196 0.075795 0.540464
Si Si6 0.324537 0.075773 0.636015
O O1 0.500000 0.909747 0.208896
O O2 0.388161 0.750000 0.220375
O O3 0.392510 0.966013 0.161950
O O4 0.390773 0.028758 0.246641
O O5 0.315407 0.250000 0.039952
O O6 0.250000 0.000000 0.059228
O O7 0.379714 0.034245 0.081095
O O8 0.348204 0.000000 0.000000
O O9 0.901152 0.750000 0.896494
O O10 0.000000 0.546090 0.891867
O O11 0.500000 0.450811 0.298410
O O12 0.601824 0.250000 0.300545
O O13 0.619140 0.516907 0.330638
O O14 0.682187 0.250000 0.530656
O O15 0.642765 0.046375 0.587983
O O16 0.632692 0.000000 0.500000
O O17 0.750000 0.000000 0.541625
O O18 0.312412 0.250000 0.643800
O O19 0.250000 0.000000 0.642928
#
# Coordination Sequence:
#
# PCOD8279643 Si02
#       6
#    16  16  16  16  16  16
#     4   8  15  30  52  75 100 132 167 204 247 295
#     4  11  22  37  56  76 103 138 174 210 250 299
#     4   9  18  34  56  81 107 133 165 207 252 296
#     4  10  20  33  51  75 102 133 169 207 247 296
#     4   9  16  26  43  67  93 123 158 197 242 292
#     4  10  20  33  50  73 101 131 164 205 251 297
#
# _framework density 18.119454000000001
#
# number of rings (size 3 to 8) (size 9 to 14) (size 15 to 20)
#    0.000    2.500    0.000    5.000    0.000    4.333 
#    0.000    2.500    0.000    4.500    0.000    0.000 
#    0.000    0.000    0.000    0.000    0.000    0.000 
#
# Total GULP energy -594913.622851 kJ/mol
# GULP energy per Si atom -12394.033809 kJ/mol
# Density = 1.807821 g / cm^3
# Si number density = 18.119454 Si / 1000 Ang^3
#
#
#
# Elastic Constant Matrix: (Units=GPa)
#
#
# Indices 1 2 3 4 5 6 
#
# 1 37.5396 38.1007 46.7544 0.0000 0.0000 0.0000
# 2 38.1007 127.9451 74.7741 0.0000 0.0000 0.0000
# 3 46.7544 74.7741 147.7650 0.0000 0.0000 0.0000
# 4 0.0000 0.0000 0.0000 30.8953 0.0000 0.0000
# 5 0.0000 0.0000 0.0000 0.0000 25.3859 0.0000
# 6 0.0000 0.0000 0.0000 0.0000 0.0000 24.6682
#
#
#
# Elastic Compliance Matrix: (Units=1/GPa)
#
#
# Indices 1 2 3 4 5 6 
#
# 1 0.048944 -0.007844 -0.011517 0.000000 0.000000 0.000000
# 2 -0.007844 0.012355 -0.003770 0.000000 0.000000 0.000000
# 3 -0.011517 -0.003770 0.012319 0.000000 0.000000 0.000000
# 4 0.000000 0.000000 0.000000 0.032367 0.000000 0.000000
# 5 0.000000 0.000000 0.000000 0.000000 0.039392 0.000000
# 6 0.000000 0.000000 0.000000 0.000000 0.000000 0.040538
#
#
# Mechanical properties :
#
#
# Convention : Reuss Voigt Hill
#
# Bulk Modulus (GPa) = 36.55513 70.27869 53.41691
# Shear Modulus (GPa) = 20.72133 26.43124 23.57629
#
# Velocity S-wave (km/s) = 3.38538 3.82347 3.61107
# Velocity P-wave (km/s) = 5.95813 7.63953 6.85061
#
# Compressibility (1/GPa) = 0.02735594
#
# Stress axis : x y z
#
# Youngs Moduli (GPa) = 20.43150 80.93813 81.17281
#
# Poissons Ratio (x) = 0.63490 0.93486
# Poissons Ratio (y) = 0.16027 0.30603
# Poissons Ratio (z) = 0.23531 0.30515
#
# Static dielectric constant tensor:
#      x y z
#    x 2.890250 0.000000 0.000000 
#    y 0.000000 3.460910 0.000000 
#    z 0.000000 0.000000 4.056160 
# 
# 
# High freq. dielectric constant tensor:
#      x y z
#    x 1.652320 0.000000 0.000000 
#    y 0.000000 1.712450 0.000000 
#    z 0.000000 0.000000 1.723740 
# 
# From -- ./inp_files/44584.got.cif
#   From: 2010.03.12/outbox.cif.g09.slc.cpg/sg67_23_cif.got.tgz:44584.got - 2010.04.10 22:41:39.
