data_PCOD8279480
_publ_section_title
;
Structure prediction by ZEFSAII (Michael W. Deem and Ramdas Pophale) SiO2 
 PCOD8279480
Probable space group: C M M A
;
_chemical_formula_sum "Si O2"
_cell_formula_units_Z 104
_cell_length_a 25.455746
_cell_length_b 9.132571
_cell_length_c 30.552291
_cell_angle_alpha 90.000000
_cell_angle_beta 90.000000
_cell_angle_gamma 90.000000
_cell_volume 7102.686859
_symmetry_space_group_name_H-M "C M M A"
_symmetry_group_IT_number 67
_symmetry_cell_setting 'orthorhombic'
loop_
_space_group_symop_operation_xyz
x,y,z
-x,1/2-y,z
x,-y,-z
-x,1/2+y,-z
-x,-y,-z
x,1/2+y,-z
-x,y,z
x,1/2-y,z
1/2+x,1/2+y,z
1/2-x,-y,z
1/2+x,1/2-y,-z
1/2-x,y,-z
1/2-x,1/2-y,-z
1/2+x,y,-z
1/2-x,1/2+y,z
1/2+x,-y,z
loop_
_atom_site_type_symbol
_atom_site_label
_atom_site_fract_x
_atom_site_fract_y
_atom_site_fract_z
Si Si1 0.597920 0.580207 0.396030
Si Si2 0.562288 0.087594 0.219919
Si Si3 0.059985 0.924631 0.314033
Si Si4 0.696650 0.923070 0.455143
Si Si5 0.500000 0.922558 0.453814
Si Si6 0.937567 0.916400 0.125841
Si Si7 0.062691 0.585460 0.957666
O O1 0.590326 0.750000 0.385222
O O2 0.597439 0.492399 0.350676
O O3 0.653214 0.547408 0.418624
O O4 0.551337 0.525420 0.427505
O O5 0.500000 0.098274 0.222069
O O6 0.586170 0.250000 0.218152
O O7 0.579816 0.013964 0.266132
O O8 0.579201 0.013011 0.173472
O O9 0.064235 0.750000 0.314648
O O10 0.000000 0.974295 0.323137
O O11 0.705202 0.750000 0.463139
O O12 0.678156 0.000000 0.500000
O O13 0.750000 0.000000 0.438658
O O14 0.500000 0.750000 0.461937
O O15 0.500000 0.000000 0.500000
O O16 0.916910 0.750000 0.121342
O O17 0.000000 0.916201 0.122285
O O18 0.913889 0.012198 0.086394
O O19 0.084107 0.750000 0.960057
O O20 0.000000 0.582487 0.957001
O O21 0.084131 0.500000 0.000000
#
# Coordination Sequence:
#
# PCOD8279480 Si02
#       7
#    16  16  16  16   8  16  16
#     4  10  20  32  45  62  86 110 129 155 194 233
#     4   7  11  20  33  48  65  85 112 144 175 211
#     4   9  16  26  41  60  79 102 131 157 183 223
#     4  10  20  34  51  68  84 105 132 162 194 229
#     4  10  20  32  44  60  84 108 130 154 183 224
#     4   8  12  19  30  40  52  73 100 132 171 211
#     4   9  15  20  25  34  49  68  94 130 172 218
#
# _framework density 14.642346
#
# number of rings (size 3 to 8) (size 9 to 14) (size 15 to 20)
#    0.000    3.077    0.769    3.692    0.000    3.692 
#    0.000    0.769    0.000    2.769    0.000    0.000 
#    0.000    0.000    0.000    0.000    0.000    0.000 
#
# Total GULP energy -644184.555280 kJ/mol
# GULP energy per Si atom -12388.164525 kJ/mol
# Density = 1.460902 g / cm^3
# Si number density = 14.642346 Si / 1000 Ang^3
#
#
#
# Elastic Constant Matrix: (Units=GPa)
#
#
# Indices 1 2 3 4 5 6 
#
# 1 35.9366 20.6890 36.0967 0.0000 0.0000 0.0000
# 2 20.6890 66.9053 59.5097 0.0000 0.0000 0.0000
# 3 36.0967 59.5097 167.0272 0.0000 0.0000 0.0000
# 4 0.0000 0.0000 0.0000 24.0520 0.0000 0.0000
# 5 0.0000 0.0000 0.0000 0.0000 7.4035 0.0000
# 6 0.0000 0.0000 0.0000 0.0000 0.0000 12.4614
#
#
#
# Elastic Compliance Matrix: (Units=1/GPa)
#
#
# Indices 1 2 3 4 5 6 
#
# 1 0.037321 -0.006392 -0.005788 0.000000 0.000000 0.000000
# 2 -0.006392 0.022975 -0.006804 0.000000 0.000000 0.000000
# 3 -0.005788 -0.006804 0.009662 0.000000 0.000000 0.000000
# 4 0.000000 0.000000 0.000000 0.041577 0.000000 0.000000
# 5 0.000000 0.000000 0.000000 0.000000 0.135071 0.000000
# 6 0.000000 0.000000 0.000000 0.000000 0.000000 0.080248
#
#
# Mechanical properties :
#
#
# Convention : Reuss Voigt Hill
#
# Bulk Modulus (GPa) = 31.26092 55.82887 43.54489
# Shear Modulus (GPa) = 13.31605 19.02162 16.16883
#
# Velocity S-wave (km/s) = 3.01893 3.60819 3.32663
# Velocity P-wave (km/s) = 5.79206 7.45452 6.67524
#
# Compressibility (1/GPa) = 0.03198883
#
# Stress axis : x y z
#
# Youngs Moduli (GPa) = 26.79477 43.52476 103.49615
#
# Poissons Ratio (x) = 0.27823 0.59903
# Poissons Ratio (y) = 0.17129 0.70422
# Poissons Ratio (z) = 0.15509 0.29616
#
# Static dielectric constant tensor:
#      x y z
#    x 2.318530 0.000000 0.000000 
#    y 0.000000 2.789150 0.000000 
#    z 0.000000 0.000000 3.256620 
# 
# 
# High freq. dielectric constant tensor:
#      x y z
#    x 1.481620 0.000000 0.000000 
#    y 0.000000 1.550880 0.000000 
#    z 0.000000 0.000000 1.580700 
# 
# From -- ./inp_files/46033.got.cif
#   From: 2010.03.12/outbox.cif.g09.slc.cpg/sg67_24_cif.got.tgz:46033.got - 2010.04.10 22:41:39.
