data_PCOD8279583
_publ_section_title
;
Structure prediction by ZEFSAII (Michael W. Deem and Ramdas Pophale) SiO2 
 PCOD8279583
Probable space group: C M M A
;
_chemical_formula_sum "Si O2"
_cell_formula_units_Z 80
_cell_length_a 8.559505
_cell_length_b 27.371177
_cell_length_c 18.761649
_cell_angle_alpha 90.000000
_cell_angle_beta 90.000000
_cell_angle_gamma 90.000000
_cell_volume 4395.549041
_symmetry_space_group_name_H-M "C M M A"
_symmetry_group_IT_number 67
_symmetry_cell_setting 'orthorhombic'
loop_
_space_group_symop_operation_xyz
x,y,z
-x,1/2-y,z
x,-y,-z
-x,1/2+y,-z
-x,-y,-z
x,1/2+y,-z
-x,y,z
x,1/2-y,z
1/2+x,1/2+y,z
1/2-x,-y,z
1/2+x,1/2-y,-z
1/2-x,y,-z
1/2-x,1/2-y,-z
1/2+x,y,-z
1/2-x,1/2+y,z
1/2+x,-y,z
loop_
_atom_site_type_symbol
_atom_site_label
_atom_site_fract_x
_atom_site_fract_y
_atom_site_fract_z
Si Si1 0.683799 0.641528 0.425135
Si Si2 0.815375 0.947810 0.345854
Si Si3 0.184125 0.607943 0.785062
Si Si4 0.183583 0.447069 0.074635
Si Si5 0.681349 0.694393 0.705356
O O1 0.500000 0.633403 0.429363
O O2 0.750000 0.660794 0.500000
O O3 0.766729 0.590469 0.406502
O O4 0.722194 0.681951 0.365677
O O5 0.742448 0.932675 0.270271
O O6 0.000000 0.949714 0.338404
O O7 0.750000 0.000000 0.369226
O O8 0.231655 0.591089 0.864141
O O9 0.264963 0.660062 0.770502
O O10 0.000000 0.613876 0.775939
O O11 0.250000 0.500000 0.093976
O O12 0.000000 0.452407 0.068178
O O13 0.250000 0.427103 0.000000
O O14 0.500000 0.684941 0.689103
O O15 0.714509 0.750000 0.727753
#
# Coordination Sequence:
#
# PCOD8279583 Si02
#       5
#    16  16  16  16  16
#     4  11  22  37  55  76 103 134 169 211 259 308
#     4  11  21  34  52  75 103 137 175 212 253 303
#     4  10  20  34  53  78 105 136 173 213 258 304
#     4  10  20  32  50  77 109 143 176 209 248 297
#     4  10  21  37  57  80 103 131 169 212 260 310
#
# _framework density 18.200229
#
# number of rings (size 3 to 8) (size 9 to 14) (size 15 to 20)
#    0.000    1.600    0.000    9.000    0.000    7.200 
#    0.000    2.000    0.000    0.600    0.000    0.000 
#    0.000    0.000    0.000    0.000    0.000    0.000 
#
# Total GULP energy -496151.181643 kJ/mol
# GULP energy per Si atom -12403.779541 kJ/mol
# Density = 1.815880 g / cm^3
# Si number density = 18.200229 Si / 1000 Ang^3
#
#
#
# Elastic Constant Matrix: (Units=GPa)
#
#
# Indices 1 2 3 4 5 6 
#
# 1 47.6555 33.0796 32.3939 0.0000 0.0000 0.0000
# 2 33.0796 106.5719 48.5207 0.0000 0.0000 0.0000
# 3 32.3939 48.5207 122.8612 0.0000 0.0000 0.0000
# 4 0.0000 0.0000 0.0000 15.3210 0.0000 0.0000
# 5 0.0000 0.0000 0.0000 0.0000 31.1326 0.0000
# 6 0.0000 0.0000 0.0000 0.0000 0.0000 29.5157
#
#
#
# Elastic Compliance Matrix: (Units=1/GPa)
#
#
# Indices 1 2 3 4 5 6 
#
# 1 0.029065 -0.006745 -0.004999 0.000000 0.000000 0.000000
# 2 -0.006745 0.013006 -0.003358 0.000000 0.000000 0.000000
# 3 -0.004999 -0.003358 0.010783 0.000000 0.000000 0.000000
# 4 0.000000 0.000000 0.000000 0.065270 0.000000 0.000000
# 5 0.000000 0.000000 0.000000 0.000000 0.032121 0.000000
# 6 0.000000 0.000000 0.000000 0.000000 0.000000 0.033880
#
#
# Mechanical properties :
#
#
# Convention : Reuss Voigt Hill
#
# Bulk Modulus (GPa) = 44.15246 56.11966 50.13606
# Shear Modulus (GPa) = 22.53477 26.06680 24.30079
#
# Velocity S-wave (km/s) = 3.52256 3.78858 3.65799
# Velocity P-wave (km/s) = 6.39191 7.07385 6.74151
#
# Compressibility (1/GPa) = 0.02264880
#
# Stress axis : x y z
#
# Youngs Moduli (GPa) = 34.40623 76.88839 92.73461
#
# Poissons Ratio (x) = 0.51865 0.46361
# Poissons Ratio (y) = 0.23208 0.31138
# Poissons Ratio (z) = 0.17201 0.25818
#
# Static dielectric constant tensor:
#      x y z
#    x 3.541650 0.000000 0.000000 
#    y 0.000000 3.263680 0.000000 
#    z 0.000000 0.000000 3.476580 
# 
# 
# High freq. dielectric constant tensor:
#      x y z
#    x 1.728960 0.000000 0.000000 
#    y 0.000000 1.694210 0.000000 
#    z 0.000000 0.000000 1.697360 
# 
# From -- ./inp_files/32137.got.cif
#   From: 2010.03.12/outbox.cif.g09.slc.cpg/sg67_17_cif.got.tgz:32137.got - 2010.04.10 22:41:39.
