data_PCOD8279864
_publ_section_title
;
Structure prediction by ZEFSAII (Michael W. Deem and Ramdas Pophale) SiO2 
 PCOD8279864
Probable space group: C M M A
;
_chemical_formula_sum "Si O2"
_cell_formula_units_Z 112
_cell_length_a 27.535455
_cell_length_b 13.989535
_cell_length_c 15.815029
_cell_angle_alpha 90.000000
_cell_angle_beta 90.000000
_cell_angle_gamma 90.000000
_cell_volume 6092.079035
_symmetry_space_group_name_H-M "C M M A"
_symmetry_group_IT_number 67
_symmetry_cell_setting 'orthorhombic'
loop_
_space_group_symop_operation_xyz
x,y,z
-x,1/2-y,z
x,-y,-z
-x,1/2+y,-z
-x,-y,-z
x,1/2+y,-z
-x,y,z
x,1/2-y,z
1/2+x,1/2+y,z
1/2-x,-y,z
1/2+x,1/2-y,-z
1/2-x,y,-z
1/2-x,1/2-y,-z
1/2+x,y,-z
1/2-x,1/2+y,z
1/2+x,-y,z
loop_
_atom_site_type_symbol
_atom_site_label
_atom_site_fract_x
_atom_site_fract_y
_atom_site_fract_z
Si Si1 0.946685 0.362342 0.650042
Si Si2 0.555126 0.642127 0.230982
Si Si3 0.305384 0.472165 0.303450
Si Si4 0.121348 0.637491 0.198868
Si Si5 0.855911 0.862980 0.450890
Si Si6 0.362542 0.140655 0.644170
Si Si7 0.055123 0.019683 0.901727
O O1 0.953746 0.250000 0.652999
O O2 0.919978 0.396452 0.734816
O O3 0.910915 0.391290 0.574250
O O4 0.000000 0.411193 0.641202
O O5 0.500000 0.626473 0.257694
O O6 0.565047 0.750000 0.198497
O O7 0.583485 0.623859 0.319320
O O8 0.569615 0.573504 0.153291
O O9 0.250000 0.500000 0.290826
O O10 0.327072 0.409405 0.225722
O O11 0.316354 0.417803 0.392680
O O12 0.328859 0.576357 0.297875
O O13 0.129853 0.750000 0.194991
O O14 0.097175 0.599572 0.112636
O O15 0.846552 0.750000 0.438176
O O16 0.854115 0.894594 0.548070
O O17 0.346118 0.250000 0.652458
O O18 0.000000 0.054207 0.878932
O O19 0.057826 0.000000 0.000000
#
# Coordination Sequence:
#
# PCOD8279864 Si02
#       7
#    16  16  16  16  16  16  16
#     4   8  14  26  46  71 102 139 172 208 256 311
#     4   9  18  34  54  77 112 153 186 219 262 323
#     4  11  22  37  56  76 103 141 186 237 292 332
#     4  10  20  36  57  82 113 145 182 229 280 334
#     4   9  19  33  49  75 109 140 181 232 276 326
#     4  10  20  34  52  75 104 144 189 227 272 330
#     4  10  20  34  57  90 122 149 179 216 264 330
#
# _framework density 18.384529000000001
#
# number of rings (size 3 to 8) (size 9 to 14) (size 15 to 20)
#    0.000    2.429    1.429    2.143    0.000    4.286 
#    0.000    5.714    0.000    3.000    0.000    1.000 
#    0.000    0.000    0.000    0.000    0.000    0.000 
#
# Total GULP energy -693859.682836 kJ/mol
# GULP energy per Si atom -12390.351479 kJ/mol
# Density = 1.834268 g / cm^3
# Si number density = 18.384529 Si / 1000 Ang^3
#
#
#
# Elastic Constant Matrix: (Units=GPa)
#
#
# Indices 1 2 3 4 5 6 
#
# 1 128.0480 49.9194 34.7557 0.0000 0.0000 0.0000
# 2 49.9194 67.4028 36.5139 0.0000 0.0000 0.0000
# 3 34.7557 36.5139 69.0441 0.0000 0.0000 0.0000
# 4 0.0000 0.0000 0.0000 21.0667 0.0000 0.0000
# 5 0.0000 0.0000 0.0000 0.0000 19.4267 0.0000
# 6 0.0000 0.0000 0.0000 0.0000 0.0000 24.2035
#
#
#
# Elastic Compliance Matrix: (Units=1/GPa)
#
#
# Indices 1 2 3 4 5 6 
#
# 1 0.011127 -0.007297 -0.001742 0.000000 0.000000 0.000000
# 2 -0.007297 0.025579 -0.009854 0.000000 0.000000 0.000000
# 3 -0.001742 -0.009854 0.020572 0.000000 0.000000 0.000000
# 4 0.000000 0.000000 0.000000 0.047468 0.000000 0.000000
# 5 0.000000 0.000000 0.000000 0.000000 0.051476 0.000000
# 6 0.000000 0.000000 0.000000 0.000000 0.000000 0.041316
#
#
# Mechanical properties :
#
#
# Convention : Reuss Voigt Hill
#
# Bulk Modulus (GPa) = 51.30571 56.31924 53.81247
# Shear Modulus (GPa) = 20.67637 22.49309 21.58473
#
# Velocity S-wave (km/s) = 3.35724 3.50162 3.43019
# Velocity P-wave (km/s) = 6.55710 6.85923 6.70987
#
# Compressibility (1/GPa) = 0.01949101
#
# Stress axis : x y z
#
# Youngs Moduli (GPa) = 89.86941 39.09486 48.61032
#
# Poissons Ratio (x) = 0.28528 0.08469
# Poissons Ratio (y) = 0.65580 0.47901
# Poissons Ratio (z) = 0.15657 0.38524
#
# Static dielectric constant tensor:
#      x y z
#    x 3.358420 0.000000 0.000000 
#    y 0.000000 3.550760 0.000000 
#    z 0.000000 0.000000 3.287740 
# 
# 
# High freq. dielectric constant tensor:
#      x y z
#    x 1.693580 0.000000 0.000000 
#    y 0.000000 1.727830 0.000000 
#    z 0.000000 0.000000 1.684540 
# 
# From -- ./inp_files/30783.got.cif
#   From: 2010.03.12/outbox.cif.g09.slc.cpg/sg67_16_cif.got.tgz:30783.got - 2010.04.10 22:41:39.
