data_PCOD8279350
_publ_section_title
;
Structure prediction by ZEFSAII (Michael W. Deem and Ramdas Pophale) SiO2 
 PCOD8279350
Probable space group: C M M A
;
_chemical_formula_sum "Si O2"
_cell_formula_units_Z 96
_cell_length_a 28.689233
_cell_length_b 17.820149
_cell_length_c 9.984163
_cell_angle_alpha 90.000000
_cell_angle_beta 90.000000
_cell_angle_gamma 90.000000
_cell_volume 5104.367458
_symmetry_space_group_name_H-M "C M M A"
_symmetry_group_IT_number 67
_symmetry_cell_setting 'orthorhombic'
loop_
_space_group_symop_operation_xyz
x,y,z
-x,1/2-y,z
x,-y,-z
-x,1/2+y,-z
-x,-y,-z
x,1/2+y,-z
-x,y,z
x,1/2-y,z
1/2+x,1/2+y,z
1/2-x,-y,z
1/2+x,1/2-y,-z
1/2-x,y,-z
1/2-x,1/2-y,-z
1/2+x,y,-z
1/2-x,1/2+y,z
1/2+x,-y,z
loop_
_atom_site_type_symbol
_atom_site_label
_atom_site_fract_x
_atom_site_fract_y
_atom_site_fract_z
Si Si1 0.878562 0.911646 0.008428
Si Si2 0.051808 0.339207 0.491173
Si Si3 0.372240 0.160423 0.720877
Si Si4 0.788452 0.165109 0.886614
Si Si5 0.770188 0.339270 0.361729
Si Si6 0.554730 0.164932 0.209558
O O1 0.883951 0.874729 0.863496
O O2 0.830623 0.888320 0.077553
O O3 0.921328 0.887053 0.100357
O O4 0.879560 0.000000 0.000000
O O5 0.050460 0.250000 0.490265
O O6 0.088980 0.369129 0.383593
O O7 0.066510 0.365130 0.640667
O O8 0.000000 0.369998 0.455069
O O9 0.372766 0.250000 0.735812
O O10 0.322259 0.131158 0.667824
O O11 0.807119 0.250000 0.867128
O O12 0.765117 0.133036 0.752332
O O13 0.750000 0.163528 0.000000
O O14 0.771757 0.250000 0.365251
O O15 0.750000 0.372321 0.500000
O O16 0.500000 0.161416 0.184112
O O17 0.573033 0.250000 0.192725
#
# Coordination Sequence:
#
# PCOD8279350 Si02
#       6
#    16  16  16  16  16  16
#     4  12  25  37  53  81 118 158 190 228 275 334
#     4   8  16  32  58  89 113 136 176 235 292 336
#     4  10  19  35  57  83 112 141 186 237 280 334
#     4  10  19  36  59  80 107 143 187 234 279 329
#     4   9  18  31  53  85 108 132 177 237 293 333
#     4   9  19  38  63  88 111 142 189 237 283 337
#
# _framework density 18.807424000000001
#
# number of rings (size 3 to 8) (size 9 to 14) (size 15 to 20)
#    0.000    2.333    1.667    2.500    2.333    1.333 
#    0.000    2.500    0.000    3.000    0.000    0.000 
#    0.000    0.000    0.000    0.000    0.000    0.000 
#
# Total GULP energy -595170.530954 kJ/mol
# GULP energy per Si atom -12399.386062 kJ/mol
# Density = 1.876462 g / cm^3
# Si number density = 18.807424 Si / 1000 Ang^3
#
#
#
# Elastic Constant Matrix: (Units=GPa)
#
#
# Indices 1 2 3 4 5 6 
#
# 1 119.2052 43.8020 92.4579 0.0000 0.0000 0.0000
# 2 43.8020 62.6772 43.1902 0.0000 0.0000 0.0000
# 3 92.4579 43.1902 181.4124 0.0000 0.0000 0.0000
# 4 0.0000 0.0000 0.0000 0.8644 0.0000 0.0000
# 5 0.0000 0.0000 0.0000 0.0000 42.7628 0.0000
# 6 0.0000 0.0000 0.0000 0.0000 0.0000 10.9357
#
#
#
# Elastic Compliance Matrix: (Units=1/GPa)
#
#
# Indices 1 2 3 4 5 6 
#
# 1 0.015868 -0.006599 -0.006516 0.000000 0.000000 0.000000
# 2 -0.006599 0.021830 -0.001834 0.000000 0.000000 0.000000
# 3 -0.006516 -0.001834 0.009270 0.000000 0.000000 0.000000
# 4 0.000000 0.000000 0.000000 1.156847 0.000000 0.000000
# 5 0.000000 0.000000 0.000000 0.000000 0.023385 0.000000
# 6 0.000000 0.000000 0.000000 0.000000 0.000000 0.091444
#
#
# Mechanical properties :
#
#
# Convention : Reuss Voigt Hill
#
# Bulk Modulus (GPa) = 58.58331 80.24388 69.41360
# Shear Modulus (GPa) = 3.69213 23.16890 13.43052
#
# Velocity S-wave (km/s) = 1.40264 3.51365 2.67518
# Velocity P-wave (km/s) = 5.81720 7.69543 6.82127
#
# Compressibility (1/GPa) = 0.01706971
#
# Stress axis : x y z
#
# Youngs Moduli (GPa) = 63.02150 45.80782 107.87662
#
# Poissons Ratio (x) = 0.30229 0.70292
# Poissons Ratio (y) = 0.41588 0.19786
# Poissons Ratio (z) = 0.41064 0.08402
#
# Static dielectric constant tensor:
#      x y z
#    x 3.576060 0.000000 0.000000 
#    y 0.000000 3.264380 0.000000 
#    z 0.000000 0.000000 3.725460 
# 
# 
# High freq. dielectric constant tensor:
#      x y z
#    x 1.741300 0.000000 0.000000 
#    y 0.000000 1.678170 0.000000 
#    z 0.000000 0.000000 1.746530 
# 
# From -- ./inp_files/11506.got.cif
#   From: 2010.03.12/outbox.cif.g09.slc.cpg/sg67_6_cif.got.tgz:11506.got - 2010.04.10 22:41:39.
