data_PCOD8279286
_publ_section_title
;
Structure prediction by ZEFSAII (Michael W. Deem and Ramdas Pophale) SiO2 
 PCOD8279286
Probable space group: C M M A
;
_chemical_formula_sum "Si O2"
_cell_formula_units_Z 96
_cell_length_a 22.620915
_cell_length_b 14.064433
_cell_length_c 15.454051
_cell_angle_alpha 90.000000
_cell_angle_beta 90.000000
_cell_angle_gamma 90.000000
_cell_volume 4916.711633
_symmetry_space_group_name_H-M "C M M A"
_symmetry_group_IT_number 67
_symmetry_cell_setting 'orthorhombic'
loop_
_space_group_symop_operation_xyz
x,y,z
-x,1/2-y,z
x,-y,-z
-x,1/2+y,-z
-x,-y,-z
x,1/2+y,-z
-x,y,z
x,1/2-y,z
1/2+x,1/2+y,z
1/2-x,-y,z
1/2+x,1/2-y,-z
1/2-x,y,-z
1/2-x,1/2-y,-z
1/2+x,y,-z
1/2-x,1/2+y,z
1/2+x,-y,z
loop_
_atom_site_type_symbol
_atom_site_label
_atom_site_fract_x
_atom_site_fract_y
_atom_site_fract_z
Si Si1 0.859734 0.569895 0.079733
Si Si2 0.431241 0.250000 0.813997
Si Si3 0.250650 0.356996 0.816576
Si Si4 0.242110 0.644721 0.378020
Si Si5 0.154117 0.012722 0.409142
Si Si6 0.570075 0.750000 0.985702
Si Si7 0.373533 0.557200 0.226819
O O1 0.796387 0.607936 0.112999
O O2 0.901430 0.656775 0.054860
O O3 0.897689 0.514639 0.153836
O O4 0.847525 0.500000 0.000000
O O5 0.500000 0.250000 0.798952
O O6 0.406476 0.343049 0.767173
O O7 0.413682 0.250000 0.913711
O O8 0.272180 0.250000 0.841557
O O9 0.221447 0.355793 0.721858
O O10 0.306075 0.428077 0.807446
O O11 0.236649 0.750000 0.417190
O O12 0.198546 0.574629 0.426991
O O13 0.309601 0.610450 0.392264
O O14 0.117098 0.004855 0.320224
O O15 0.116815 0.000000 0.500000
O O16 0.500000 0.750000 0.969509
#
# Coordination Sequence:
#
# PCOD8279286 Si02
#       7
#    16   8  16  16  16   8  16
#     4  12  23  38  61  88 122 166 196 244 306 368
#     4  11  24  45  67  88 113 150 208 265 308 355
#     4  10  19  34  56  83 126 161 188 237 288 366
#     4   9  17  30  49  76 117 164 196 230 280 345
#     4  10  20  32  50  81 120 158 200 240 284 353
#     4  11  26  45  63  88 116 153 212 267 303 355
#     4  11  22  40  60  90 123 159 202 242 306 366
#
# _framework density 19.525245000000002
#
# number of rings (size 3 to 8) (size 9 to 14) (size 15 to 20)
#    0.000    1.500    5.000    1.500    1.167    3.667 
#    0.000    1.667    0.000    0.500    0.000    1.167 
#    0.000    0.000    0.000    0.000    0.000    0.000 
#
# Total GULP energy -594752.357464 kJ/mol
# GULP energy per Si atom -12390.674114 kJ/mol
# Density = 1.948080 g / cm^3
# Si number density = 19.525245 Si / 1000 Ang^3
#
#
#
# Elastic Constant Matrix: (Units=GPa)
#
#
# Indices 1 2 3 4 5 6 
#
# 1 42.0970 15.1245 32.7270 0.0000 0.0000 0.0000
# 2 15.1245 110.7855 41.0135 0.0000 0.0000 0.0000
# 3 32.7270 41.0135 159.6160 0.0000 0.0000 0.0000
# 4 0.0000 0.0000 0.0000 3.1823 0.0000 0.0000
# 5 0.0000 0.0000 0.0000 0.0000 11.4994 0.0000
# 6 0.0000 0.0000 0.0000 0.0000 0.0000 4.0598
#
#
#
# Elastic Compliance Matrix: (Units=1/GPa)
#
#
# Indices 1 2 3 4 5 6 
#
# 1 0.028623 -0.001917 -0.005376 0.000000 0.000000 0.000000
# 2 -0.001917 0.010104 -0.002203 0.000000 0.000000 0.000000
# 3 -0.005376 -0.002203 0.007933 0.000000 0.000000 0.000000
# 4 0.000000 0.000000 0.000000 0.314241 0.000000 0.000000
# 5 0.000000 0.000000 0.000000 0.000000 0.086961 0.000000
# 6 0.000000 0.000000 0.000000 0.000000 0.000000 0.246320
#
#
# Mechanical properties :
#
#
# Convention : Reuss Voigt Hill
#
# Bulk Modulus (GPa) = 36.14390 54.46982 45.30686
# Shear Modulus (GPa) = 6.92140 18.65721 12.78930
#
# Velocity S-wave (km/s) = 1.88482 3.09454 2.56210
# Velocity P-wave (km/s) = 4.82579 6.38169 5.65748
#
# Compressibility (1/GPa) = 0.02766719
#
# Stress axis : x y z
#
# Youngs Moduli (GPa) = 34.93701 98.97273 126.04949
#
# Poissons Ratio (x) = 0.18977 0.67765
# Poissons Ratio (y) = 0.06699 0.27769
# Poissons Ratio (z) = 0.18782 0.21804
#
# Static dielectric constant tensor:
#      x y z
#    x 3.018580 0.000000 0.000000 
#    y 0.000000 3.817650 0.000000 
#    z 0.000000 0.000000 3.830430 
# 
# 
# High freq. dielectric constant tensor:
#      x y z
#    x 1.690040 0.000000 0.000000 
#    y 0.000000 1.781660 0.000000 
#    z 0.000000 0.000000 1.779230 
# 
# From -- ./inp_files/30086.got.cif
#   From: 2010.03.12/outbox.cif.g09.slc.cpg/sg67_16_cif.got.tgz:30086.got - 2010.04.10 22:41:39.
