data_PCOD8279405
_publ_section_title
;
Structure prediction by ZEFSAII (Michael W. Deem and Ramdas Pophale) SiO2 
 PCOD8279405
Probable space group: C M M A
;
_chemical_formula_sum "Si O2"
_cell_formula_units_Z 88
_cell_length_a 9.231836
_cell_length_b 26.698671
_cell_length_c 18.884030
_cell_angle_alpha 90.000000
_cell_angle_beta 90.000000
_cell_angle_gamma 90.000000
_cell_volume 4654.493265
_symmetry_space_group_name_H-M "C M M A"
_symmetry_group_IT_number 67
_symmetry_cell_setting 'orthorhombic'
loop_
_space_group_symop_operation_xyz
x,y,z
-x,1/2-y,z
x,-y,-z
-x,1/2+y,-z
-x,-y,-z
x,1/2+y,-z
-x,y,z
x,1/2-y,z
1/2+x,1/2+y,z
1/2-x,-y,z
1/2+x,1/2-y,-z
1/2-x,y,-z
1/2-x,1/2-y,-z
1/2+x,y,-z
1/2-x,1/2+y,z
1/2+x,-y,z
loop_
_atom_site_type_symbol
_atom_site_label
_atom_site_fract_x
_atom_site_fract_y
_atom_site_fract_z
Si Si1 0.668709 0.342668 0.828971
Si Si2 0.330138 0.750000 0.073685
Si Si3 0.833841 0.452428 0.182503
Si Si4 0.167709 0.952445 0.654890
Si Si5 0.664244 0.807013 0.696872
Si Si6 0.171734 0.148134 0.425691
O O1 0.500000 0.335681 0.808316
O O2 0.716835 0.300478 0.885028
O O3 0.695335 0.399478 0.858474
O O4 0.761906 0.338964 0.758297
O O5 0.500000 0.750000 0.059345
O O6 0.250000 0.750000 0.000000
O O7 0.750000 0.500000 0.148643
O O8 0.785699 0.443599 0.263776
O O9 0.000000 0.467450 0.177235
O O10 0.211314 0.905212 0.607977
O O11 0.000000 0.964032 0.649200
O O12 0.250000 0.000000 0.622488
O O13 0.500000 0.826290 0.684165
O O14 0.663766 0.750000 0.722153
O O15 0.758511 0.810468 0.625502
O O16 0.250000 0.153275 0.500000
O O17 0.000000 0.156853 0.433210
#
# Coordination Sequence:
#
# PCOD8279405 Si02
#       6
#    16   8  16  16  16  16
#     4  10  19  36  61  86 115 155 193 227 278 337
#     4  10  22  38  62  92 125 158 187 228 278 330
#     4   9  17  31  52  82 113 144 188 233 280 335
#     4   9  18  32  51  74 103 138 177 228 281 335
#     4  11  23  37  56  83 109 138 182 234 284 339
#     4  11  23  39  55  74 103 143 188 235 287 343
#
# _framework density 18.906462999999999
#
# number of rings (size 3 to 8) (size 9 to 14) (size 15 to 20)
#    0.000    2.000    2.727    1.091    0.000    4.727 
#    0.000    1.818    0.000    0.545    0.000    3.818 
#    0.000    0.000    0.000    0.000    0.000    0.000 
#
# Total GULP energy -545508.412221 kJ/mol
# GULP energy per Si atom -12397.918460 kJ/mol
# Density = 1.886343 g / cm^3
# Si number density = 18.906463 Si / 1000 Ang^3
#
#
#
# Elastic Constant Matrix: (Units=GPa)
#
#
# Indices 1 2 3 4 5 6 
#
# 1 74.7982 49.5873 35.2496 0.0000 0.0000 0.0000
# 2 49.5873 129.5585 42.1397 0.0000 0.0000 0.0000
# 3 35.2496 42.1397 71.4709 0.0000 0.0000 0.0000
# 4 0.0000 0.0000 0.0000 18.0178 0.0000 0.0000
# 5 0.0000 0.0000 0.0000 0.0000 29.1234 0.0000
# 6 0.0000 0.0000 0.0000 0.0000 0.0000 32.0643
#
#
#
# Elastic Compliance Matrix: (Units=1/GPa)
#
#
# Indices 1 2 3 4 5 6 
#
# 1 0.020206 -0.005558 -0.006689 0.000000 0.000000 0.000000
# 2 -0.005558 0.011079 -0.003791 0.000000 0.000000 0.000000
# 3 -0.006689 -0.003791 0.019526 0.000000 0.000000 0.000000
# 4 0.000000 0.000000 0.000000 0.055501 0.000000 0.000000
# 5 0.000000 0.000000 0.000000 0.000000 0.034337 0.000000
# 6 0.000000 0.000000 0.000000 0.000000 0.000000 0.031187
#
#
# Mechanical properties :
#
#
# Convention : Reuss Voigt Hill
#
# Bulk Modulus (GPa) = 53.37487 58.86454 56.11970
# Shear Modulus (GPa) = 23.79186 25.76449 24.77817
#
# Velocity S-wave (km/s) = 3.55124 3.69553 3.62410
# Velocity P-wave (km/s) = 6.71620 7.02933 6.87455
#
# Compressibility (1/GPa) = 0.01873541
#
# Stress axis : x y z
#
# Youngs Moduli (GPa) = 49.48980 90.26186 51.21469
#
# Poissons Ratio (x) = 0.50170 0.34255
# Poissons Ratio (y) = 0.27508 0.19415
# Poissons Ratio (z) = 0.33102 0.34217
#
# Static dielectric constant tensor:
#      x y z
#    x 3.506910 0.000000 0.000000 
#    y 0.000000 3.754600 0.000000 
#    z 0.000000 0.000000 3.110150 
# 
# 
# High freq. dielectric constant tensor:
#      x y z
#    x 1.736920 0.000000 0.000000 
#    y 0.000000 1.750320 0.000000 
#    z 0.000000 0.000000 1.692840 
# 
# From -- ./inp_files/32454.got.cif
#   From: 2010.03.12/outbox.cif.g09.slc.cpg/sg67_17_cif.got.tgz:32454.got - 2010.04.10 22:41:39.
