data_PCOD8279353
_publ_section_title
;
Structure prediction by ZEFSAII (Michael W. Deem and Ramdas Pophale) SiO2 
 PCOD8279353
Probable space group: C M M A
;
_chemical_formula_sum "Si O2"
_cell_formula_units_Z 64
_cell_length_a 15.492780
_cell_length_b 8.597466
_cell_length_c 23.853974
_cell_angle_alpha 90.000000
_cell_angle_beta 90.000000
_cell_angle_gamma 90.000000
_cell_volume 3177.317117
_symmetry_space_group_name_H-M "C M M A"
_symmetry_group_IT_number 67
_symmetry_cell_setting 'orthorhombic'
loop_
_space_group_symop_operation_xyz
x,y,z
-x,1/2-y,z
x,-y,-z
-x,1/2+y,-z
-x,-y,-z
x,1/2+y,-z
-x,y,z
x,1/2-y,z
1/2+x,1/2+y,z
1/2-x,-y,z
1/2+x,1/2-y,-z
1/2-x,y,-z
1/2-x,1/2-y,-z
1/2+x,y,-z
1/2-x,1/2+y,z
1/2+x,-y,z
loop_
_atom_site_type_symbol
_atom_site_label
_atom_site_fract_x
_atom_site_fract_y
_atom_site_fract_z
Si Si1 0.000000 0.565491 0.365082
Si Si2 0.339908 0.932981 0.171958
Si Si3 0.500000 0.934310 0.761360
Si Si4 0.601421 0.430369 0.058953
Si Si5 0.158834 0.434832 0.561011
O O1 0.000000 0.500420 0.301964
O O2 0.085378 0.504812 0.396653
O O3 0.000000 0.750000 0.364796
O O4 0.342120 0.750000 0.179384
O O5 0.250000 0.000000 0.195229
O O6 0.415470 0.007113 0.207856
O O7 0.348953 0.976685 0.106864
O O8 0.500000 0.750000 0.763127
O O9 0.500000 0.456227 0.067415
O O10 0.626445 0.250000 0.062235
O O11 0.632416 0.500000 0.000000
O O12 0.136359 0.500000 0.500000
O O13 0.163214 0.250000 0.557796
O O14 0.250000 0.500000 0.582994
#
# Coordination Sequence:
#
# PCOD8279353 Si02
#       5
#     8  16   8  16  16
#     4   9  21  38  60  85 117 156 197 242 293 349
#     4  12  25  42  64  90 120 158 203 250 302 362
#     4  11  23  44  65  87 120 158 201 254 306 357
#     4  10  20  36  61  91 124 158 194 242 300 360
#     4  10  19  35  57  87 121 157 194 238 290 345
#
# _framework density 20.142779000000001
#
# number of rings (size 3 to 8) (size 9 to 14) (size 15 to 20)
#    0.000    1.500    1.250    5.250    0.000    2.500 
#    0.000   11.875    0.000    0.000    0.000    0.000 
#    0.000    0.000    0.000    0.000    0.000    0.000 
#
# Total GULP energy -396953.184439 kJ/mol
# GULP energy per Si atom -12404.787014 kJ/mol
# Density = 2.009693 g / cm^3
# Si number density = 20.142779 Si / 1000 Ang^3
#
#
#
# Elastic Constant Matrix: (Units=GPa)
#
#
# Indices 1 2 3 4 5 6 
#
# 1 163.1090 48.5705 91.9539 0.0000 0.0000 0.0000
# 2 48.5705 111.0529 40.0520 0.0000 0.0000 0.0000
# 3 91.9539 40.0520 142.7640 0.0000 0.0000 0.0000
# 4 0.0000 0.0000 0.0000 25.8440 0.0000 0.0000
# 5 0.0000 0.0000 0.0000 0.0000 -19.7749 0.0000
# 6 0.0000 0.0000 0.0000 0.0000 0.0000 23.4504
#
#
#
# Elastic Compliance Matrix: (Units=1/GPa)
#
#
# Indices 1 2 3 4 5 6 
#
# 1 0.010133 -0.002312 -0.005878 0.000000 0.000000 0.000000
# 2 -0.002312 0.010546 -0.001470 0.000000 0.000000 0.000000
# 3 -0.005878 -0.001470 0.011203 0.000000 0.000000 0.000000
# 4 0.000000 0.000000 0.000000 0.038694 0.000000 0.000000
# 5 0.000000 0.000000 0.000000 0.000000 -0.050569 0.000000
# 6 0.000000 0.000000 0.000000 0.000000 0.000000 0.042643
#
#
# Mechanical properties :
#
#
# Convention : Reuss Voigt Hill
#
# Bulk Modulus (GPa) = 79.59991 86.45318 83.02655
# Shear Modulus (GPa) = 58.03409 21.66054 39.84732
#
# Velocity S-wave (km/s) = 5.37344 3.28281 4.45257
# Velocity P-wave (km/s) = 8.83754 7.57512 8.23057
#
# Compressibility (1/GPa) = 0.01256283
#
# Stress axis : x y z
#
# Youngs Moduli (GPa) = 98.68610 94.82407 89.26237
#
# Poissons Ratio (x) = 0.21922 0.52470
# Poissons Ratio (y) = 0.22815 0.13117
# Poissons Ratio (z) = 0.58009 0.13935
#
# Static dielectric constant tensor:
#      x y z
#    x 3.858080 0.000000 0.000000 
#    y 0.000000 3.653510 0.000000 
#    z 0.000000 0.000000 3.825070 
# 
# 
# High freq. dielectric constant tensor:
#      x y z
#    x 1.798900 0.000000 0.000000 
#    y 0.000000 1.789790 0.000000 
#    z 0.000000 0.000000 1.784540 
# 
# From -- ./inp_files/40424.got.cif
#   From: 2010.03.12/outbox.cif.g09.slc.cpg/sg67_21_cif.got.tgz:40424.got - 2010.04.10 22:41:39.
