data_PCOD8279508
_publ_section_title
;
Structure prediction by ZEFSAII (Michael W. Deem and Ramdas Pophale) SiO2 
 PCOD8279508
Probable space group: C M M A
;
_chemical_formula_sum "Si O2"
_cell_formula_units_Z 88
_cell_length_a 29.877434
_cell_length_b 8.898119
_cell_length_c 17.179242
_cell_angle_alpha 90.000000
_cell_angle_beta 90.000000
_cell_angle_gamma 90.000000
_cell_volume 4567.152390
_symmetry_space_group_name_H-M "C M M A"
_symmetry_group_IT_number 67
_symmetry_cell_setting 'orthorhombic'
loop_
_space_group_symop_operation_xyz
x,y,z
-x,1/2-y,z
x,-y,-z
-x,1/2+y,-z
-x,-y,-z
x,1/2+y,-z
-x,y,z
x,1/2-y,z
1/2+x,1/2+y,z
1/2-x,-y,z
1/2+x,1/2-y,-z
1/2-x,y,-z
1/2-x,1/2-y,-z
1/2+x,y,-z
1/2-x,1/2+y,z
1/2+x,-y,z
loop_
_atom_site_type_symbol
_atom_site_label
_atom_site_fract_x
_atom_site_fract_y
_atom_site_fract_z
Si Si1 0.796444 0.569120 0.584772
Si Si2 0.790399 0.913009 0.176133
Si Si3 0.924928 0.417678 0.190771
Si Si4 0.347585 0.412735 0.929231
Si Si5 0.634725 0.581640 0.697168
Si Si6 0.500000 0.430092 0.087438
O O1 0.803464 0.500000 0.500000
O O2 0.792987 0.750000 0.582588
O O3 0.750000 0.500000 0.619570
O O4 0.840201 0.520032 0.633235
O O5 0.772389 0.750000 0.153300
O O6 0.832786 0.899863 0.230656
O O7 0.750000 0.000000 0.218985
O O8 0.803198 0.999340 0.097042
O O9 0.944859 0.250000 0.208624
O O10 0.880192 0.396033 0.142788
O O11 0.911145 0.501214 0.271988
O O12 0.957791 0.517409 0.138259
O O13 0.333377 0.250000 0.960133
O O14 0.371553 0.500000 0.000000
O O15 0.623368 0.750000 0.664862
O O16 0.500000 0.250000 0.078825
O O17 0.500000 0.500000 0.000000
#
# Coordination Sequence:
#
# PCOD8279508 Si02
#       6
#    16  16  16  16  16   8
#     4  11  21  34  53  80 114 151 190 232 276 323
#     4  10  20  32  47  66  91 124 165 208 251 299
#     4  10  21  37  56  79 105 136 173 215 266 326
#     4  10  20  33  49  67  91 122 160 205 254 305
#     4  10  20  35  54  77 106 140 176 217 265 321
#     4  12  24  38  58  84 113 144 179 226 280 336
#
# _framework density 19.268025000000002
#
# number of rings (size 3 to 8) (size 9 to 14) (size 15 to 20)
#    0.000    1.636    0.000    6.273    0.000    7.636 
#    0.000    1.818    0.000    0.000    0.000    0.636 
#    0.000    0.000    0.000    0.000    0.000    0.000 
#
# Total GULP energy -545211.991823 kJ/mol
# GULP energy per Si atom -12391.181632 kJ/mol
# Density = 1.922417 g / cm^3
# Si number density = 19.268025 Si / 1000 Ang^3
#
#
#
# Elastic Constant Matrix: (Units=GPa)
#
#
# Indices 1 2 3 4 5 6 
#
# 1 66.9628 44.1731 28.4220 0.0000 0.0000 0.0000
# 2 44.1731 203.4324 47.5192 0.0000 0.0000 0.0000
# 3 28.4220 47.5192 71.9628 0.0000 0.0000 0.0000
# 4 0.0000 0.0000 0.0000 27.4755 0.0000 0.0000
# 5 0.0000 0.0000 0.0000 0.0000 30.0384 0.0000
# 6 0.0000 0.0000 0.0000 0.0000 0.0000 5.0677
#
#
#
# Elastic Compliance Matrix: (Units=1/GPa)
#
#
# Indices 1 2 3 4 5 6 
#
# 1 0.019236 -0.002840 -0.005722 0.000000 0.000000 0.000000
# 2 -0.002840 0.006232 -0.002993 0.000000 0.000000 0.000000
# 3 -0.005722 -0.002993 0.018132 0.000000 0.000000 0.000000
# 4 0.000000 0.000000 0.000000 0.036396 0.000000 0.000000
# 5 0.000000 0.000000 0.000000 0.000000 0.033291 0.000000
# 6 0.000000 0.000000 0.000000 0.000000 0.000000 0.197330
#
#
# Mechanical properties :
#
#
# Convention : Reuss Voigt Hill
#
# Bulk Modulus (GPa) = 48.80560 64.73186 56.76873
# Shear Modulus (GPa) = 14.68186 27.33254 21.00720
#
# Velocity S-wave (km/s) = 2.76339 3.77044 3.30549
# Velocity P-wave (km/s) = 5.96378 7.25420 6.64041
#
# Compressibility (1/GPa) = 0.02048945
#
# Stress axis : x y z
#
# Youngs Moduli (GPa) = 51.98611 160.47433 55.15015
#
# Poissons Ratio (x) = 0.45580 0.31556
# Poissons Ratio (y) = 0.14766 0.16507
# Poissons Ratio (z) = 0.29745 0.48031
#
# Static dielectric constant tensor:
#      x y z
#    x 3.396840 0.000000 0.000000 
#    y 0.000000 4.198290 0.000000 
#    z 0.000000 0.000000 3.330520 
# 
# 
# High freq. dielectric constant tensor:
#      x y z
#    x 1.719370 0.000000 0.000000 
#    y 0.000000 1.780200 0.000000 
#    z 0.000000 0.000000 1.724390 
# 
# From -- ./inp_files/36198.got.cif
#   From: 2010.03.12/outbox.cif.g09.slc.cpg/sg67_19_cif.got.tgz:36198.got - 2010.04.10 22:41:39.
