data_PCOD8279268
_publ_section_title
;
Structure prediction by ZEFSAII (Michael W. Deem and Ramdas Pophale) SiO2 
 PCOD8279268
Probable space group: C M M A
;
_chemical_formula_sum "Si O2"
_cell_formula_units_Z 88
_cell_length_a 32.039712
_cell_length_b 25.352616
_cell_length_c 5.111000
_cell_angle_alpha 90.000000
_cell_angle_beta 90.000000
_cell_angle_gamma 90.000000
_cell_volume 4151.616823
_symmetry_space_group_name_H-M "C M M A"
_symmetry_group_IT_number 67
_symmetry_cell_setting 'orthorhombic'
loop_
_space_group_symop_operation_xyz
x,y,z
-x,1/2-y,z
x,-y,-z
-x,1/2+y,-z
-x,-y,-z
x,1/2+y,-z
-x,y,z
x,1/2-y,z
1/2+x,1/2+y,z
1/2-x,-y,z
1/2+x,1/2-y,-z
1/2-x,y,-z
1/2-x,1/2-y,-z
1/2+x,y,-z
1/2-x,1/2+y,z
1/2+x,-y,z
loop_
_atom_site_type_symbol
_atom_site_label
_atom_site_fract_x
_atom_site_fract_y
_atom_site_fract_z
Si Si1 0.322325 0.809953 0.430391
Si Si2 0.296337 0.872259 0.923010
Si Si3 0.649046 0.953613 0.652969
Si Si4 0.597529 0.139210 0.491217
Si Si5 0.080007 0.500000 0.000000
Si Si6 0.047622 0.612525 0.976260
O O1 0.306879 0.750000 0.407726
O O2 0.295152 0.838262 0.656084
O O3 0.371964 0.810081 0.502906
O O4 0.316818 0.838099 0.151401
O O5 0.322490 0.926280 0.875342
O O6 0.250000 0.889462 0.000000
O O7 0.630552 0.908813 0.459687
O O8 0.674654 0.000000 0.500000
O O9 0.608934 0.984215 0.760508
O O10 0.562729 0.141949 0.714571
O O11 0.575959 0.133789 0.210724
O O12 0.050691 0.450308 0.069791
O O13 0.000000 0.628186 0.030745
#
# Coordination Sequence:
#
# PCOD8279268 Si02
#       6
#    16  16  16  16   8  16
#     4  11  23  43  70  93 118 163 212 263 327 385
#     4  11  25  41  64  96 132 158 207 271 320 375
#     4  10  20  37  63  82 123 173 212 246 302 362
#     4  10  21  38  58  87 118 160 205 253 297 380
#     4  10  19  34  55  84 116 160 218 246 279 364
#     4  11  21  34  56  87 125 158 196 255 314 353
#
# _framework density 21.196559000000001
#
# number of rings (size 3 to 8) (size 9 to 14) (size 15 to 20)
#    0.000    1.455    1.818    5.182    2.545    2.182 
#    0.000    3.182    8.000    3.273    0.000    0.000 
#    0.000    0.000    0.000    0.000    0.000    0.000 
#
# Total GULP energy -545465.425466 kJ/mol
# GULP energy per Si atom -12396.941488 kJ/mol
# Density = 2.114831 g / cm^3
# Si number density = 21.196559 Si / 1000 Ang^3
#
#
#
# Elastic Constant Matrix: (Units=GPa)
#
#
# Indices 1 2 3 4 5 6 
#
# 1 105.4953 23.4908 22.9331 0.0000 0.0000 0.0000
# 2 23.4908 65.1340 33.8226 0.0000 0.0000 0.0000
# 3 22.9331 33.8226 117.2859 0.0000 0.0000 0.0000
# 4 0.0000 0.0000 0.0000 28.3441 0.0000 0.0000
# 5 0.0000 0.0000 0.0000 0.0000 36.1667 0.0000
# 6 0.0000 0.0000 0.0000 0.0000 0.0000 17.9205
#
#
#
# Elastic Compliance Matrix: (Units=1/GPa)
#
#
# Indices 1 2 3 4 5 6 
#
# 1 0.010431 -0.003179 -0.001123 0.000000 0.000000 0.000000
# 2 -0.003179 0.019026 -0.004865 0.000000 0.000000 0.000000
# 3 -0.001123 -0.004865 0.010149 0.000000 0.000000 0.000000
# 4 0.000000 0.000000 0.000000 0.035281 0.000000 0.000000
# 5 0.000000 0.000000 0.000000 0.000000 0.027650 0.000000
# 6 0.000000 0.000000 0.000000 0.000000 0.000000 0.055802
#
#
# Mechanical properties :
#
#
# Convention : Reuss Voigt Hill
#
# Bulk Modulus (GPa) = 47.01040 49.82313 48.41676
# Shear Modulus (GPa) = 27.20909 30.33083 28.76996
#
# Velocity S-wave (km/s) = 3.58670 3.78687 3.68814
# Velocity P-wave (km/s) = 6.27527 6.53275 6.40530
#
# Compressibility (1/GPa) = 0.02127189
#
# Stress axis : x y z
#
# Youngs Moduli (GPa) = 95.86767 52.56036 98.53487
#
# Poissons Ratio (x) = 0.16708 0.11064
# Poissons Ratio (y) = 0.30475 0.47937
# Poissons Ratio (z) = 0.10765 0.25571
#
# Static dielectric constant tensor:
#      x y z
#    x 3.711540 0.000000 0.000000 
#    y 0.000000 4.049720 0.000000 
#    z 0.000000 0.000000 3.811820 
# 
# 
# High freq. dielectric constant tensor:
#      x y z
#    x 1.820250 0.000000 0.000000 
#    y 0.000000 1.810300 0.000000 
#    z 0.000000 0.000000 1.842070 
# 
# From -- ./inp_files/4835.got.cif
#   From: 2010.03.12/outbox.cif.g09.slc.cpg/sg67_3_cif.got.tgz:4835.got - 2010.04.10 22:41:39.
