data_PCOD8279591
_publ_section_title
;
Structure prediction by ZEFSAII (Michael W. Deem and Ramdas Pophale) SiO2 
 PCOD8279591
Probable space group: C M M A
;
_chemical_formula_sum "Si O2"
_cell_formula_units_Z 96
_cell_length_a 9.121231
_cell_length_b 28.566569
_cell_length_c 20.616693
_cell_angle_alpha 90.000000
_cell_angle_beta 90.000000
_cell_angle_gamma 90.000000
_cell_volume 5371.932425
_symmetry_space_group_name_H-M "C M M A"
_symmetry_group_IT_number 67
_symmetry_cell_setting 'orthorhombic'
loop_
_space_group_symop_operation_xyz
x,y,z
-x,1/2-y,z
x,-y,-z
-x,1/2+y,-z
-x,-y,-z
x,1/2+y,-z
-x,y,z
x,1/2-y,z
1/2+x,1/2+y,z
1/2-x,-y,z
1/2+x,1/2-y,-z
1/2-x,y,-z
1/2-x,1/2-y,-z
1/2+x,y,-z
1/2-x,1/2+y,z
1/2+x,-y,z
loop_
_atom_site_type_symbol
_atom_site_label
_atom_site_fract_x
_atom_site_fract_y
_atom_site_fract_z
Si Si1 0.828758 0.302774 0.234964
Si Si2 0.826792 0.049430 0.691661
Si Si3 0.329583 0.111875 0.187412
Si Si4 0.329653 0.104999 0.435420
Si Si5 0.326256 0.548425 0.934420
Si Si6 0.668306 0.302247 0.368351
O O1 0.792544 0.250000 0.211823
O O2 0.755057 0.338822 0.185166
O O3 0.767955 0.311662 0.306575
O O4 0.000000 0.312220 0.236889
O O5 0.774664 0.081047 0.751912
O O6 0.775698 0.074332 0.625397
O O7 0.000000 0.041851 0.693709
O O8 0.750000 0.000000 0.697693
O O9 0.500000 0.122853 0.194530
O O10 0.293061 0.085795 0.120953
O O11 0.500000 0.097458 0.447102
O O12 0.250000 0.087446 0.500000
O O13 0.291525 0.159701 0.422940
O O14 0.500000 0.540706 0.944613
O O15 0.250000 0.500000 0.913642
O O16 0.250000 0.567150 0.000000
O O17 0.500000 0.309293 0.346052
O O18 0.694372 0.250000 0.396669
#
# Coordination Sequence:
#
# PCOD8279591 Si02
#       6
#    16  16  16  16  16  16
#     4  10  20  32  51  82 112 136 169 217 266 310
#     4  10  21  37  54  75 101 131 174 220 262 310
#     4  10  20  36  57  80 107 142 180 215 257 313
#     4  10  21  36  52  72 101 134 173 217 262 316
#     4  10  20  34  55  82 115 149 182 218 260 312
#     4   9  17  33  55  74  99 136 171 209 262 320
#
# _framework density 17.870664000000001
#
# number of rings (size 3 to 8) (size 9 to 14) (size 15 to 20)
#    0.000    2.167    1.667    2.000    0.000    5.000 
#    0.000    1.667    0.000    0.500    0.000    0.000 
#    0.000    0.000    0.000    0.000    0.000    0.000 
#
# Total GULP energy -595237.578482 kJ/mol
# GULP energy per Si atom -12400.782885 kJ/mol
# Density = 1.782999 g / cm^3
# Si number density = 17.870664 Si / 1000 Ang^3
#
#
#
# Elastic Constant Matrix: (Units=GPa)
#
#
# Indices 1 2 3 4 5 6 
#
# 1 70.3423 55.1408 51.4608 0.0000 0.0000 0.0000
# 2 55.1408 117.3973 63.5908 0.0000 0.0000 0.0000
# 3 51.4608 63.5908 112.6522 0.0000 0.0000 0.0000
# 4 0.0000 0.0000 0.0000 26.4954 0.0000 0.0000
# 5 0.0000 0.0000 0.0000 0.0000 22.2011 0.0000
# 6 0.0000 0.0000 0.0000 0.0000 0.0000 32.4325
#
#
#
# Elastic Compliance Matrix: (Units=1/GPa)
#
#
# Indices 1 2 3 4 5 6 
#
# 1 0.025987 -0.008319 -0.007175 0.000000 0.000000 0.000000
# 2 -0.008319 0.014933 -0.004629 0.000000 0.000000 0.000000
# 3 -0.007175 -0.004629 0.014768 0.000000 0.000000 0.000000
# 4 0.000000 0.000000 0.000000 0.037742 0.000000 0.000000
# 5 0.000000 0.000000 0.000000 0.000000 0.045043 0.000000
# 6 0.000000 0.000000 0.000000 0.000000 0.000000 0.030833
#
#
# Mechanical properties :
#
#
# Convention : Reuss Voigt Hill
#
# Bulk Modulus (GPa) = 64.76449 71.19741 67.98095
# Shear Modulus (GPa) = 23.28838 24.90575 24.09706
#
# Velocity S-wave (km/s) = 3.61385 3.73723 3.67606
# Velocity P-wave (km/s) = 7.33025 7.65176 7.49273
#
# Compressibility (1/GPa) = 0.01544056
#
# Stress axis : x y z
#
# Youngs Moduli (GPa) = 38.48138 66.96507 67.71609
#
# Poissons Ratio (x) = 0.55711 0.48585
# Poissons Ratio (y) = 0.32014 0.31347
# Poissons Ratio (z) = 0.27610 0.31000
#
# Static dielectric constant tensor:
#      x y z
#    x 3.295120 0.000000 0.000000 
#    y 0.000000 3.458380 0.000000 
#    z 0.000000 0.000000 3.184110 
# 
# 
# High freq. dielectric constant tensor:
#      x y z
#    x 1.692120 0.000000 0.000000 
#    y 0.000000 1.697790 0.000000 
#    z 0.000000 0.000000 1.675300 
# 
# From -- ./inp_files/37186.got.cif
#   From: 2010.03.12/outbox.cif.g09.slc.cpg/sg67_19_cif.got.tgz:37186.got - 2010.04.10 22:41:39.
