data_PCOD8279391
_publ_section_title
;
Structure prediction by ZEFSAII (Michael W. Deem and Ramdas Pophale) SiO2 
 PCOD8279391
Probable space group: C M M A
;
_chemical_formula_sum "Si O2"
_cell_formula_units_Z 128
_cell_length_a 20.396303
_cell_length_b 17.710769
_cell_length_c 19.600254
_cell_angle_alpha 90.000000
_cell_angle_beta 90.000000
_cell_angle_gamma 90.000000
_cell_volume 7080.282287
_symmetry_space_group_name_H-M "C M M A"
_symmetry_group_IT_number 67
_symmetry_cell_setting 'orthorhombic'
loop_
_space_group_symop_operation_xyz
x,y,z
-x,1/2-y,z
x,-y,-z
-x,1/2+y,-z
-x,-y,-z
x,1/2+y,-z
-x,y,z
x,1/2-y,z
1/2+x,1/2+y,z
1/2-x,-y,z
1/2+x,1/2-y,-z
1/2-x,y,-z
1/2-x,1/2-y,-z
1/2+x,y,-z
1/2-x,1/2+y,z
1/2+x,-y,z
loop_
_atom_site_type_symbol
_atom_site_label
_atom_site_fract_x
_atom_site_fract_y
_atom_site_fract_z
Si Si1 0.572620 0.839593 0.539030
Si Si2 0.121711 0.160524 0.684561
Si Si3 0.314291 0.549448 0.178542
Si Si4 0.820807 0.584540 0.973456
Si Si5 0.574169 0.569063 0.807756
Si Si6 0.737609 0.089036 0.686231
Si Si7 0.308415 0.839049 0.448795
Si Si8 0.925243 0.337166 0.939920
O O1 0.500000 0.870124 0.520941
O O2 0.573527 0.750000 0.541805
O O3 0.594515 0.870074 0.612666
O O4 0.623481 0.867073 0.481751
O O5 0.115747 0.250000 0.690743
O O6 0.077891 0.123218 0.742660
O O7 0.196585 0.136619 0.691279
O O8 0.250000 0.500000 0.165801
O O9 0.326026 0.593278 0.108175
O O10 0.377292 0.500756 0.199192
O O11 0.301846 0.604751 0.243103
O O12 0.834864 0.500000 0.000000
O O13 0.750000 0.612203 0.000000
O O14 0.877297 0.639777 0.999315
O O15 0.500000 0.538746 0.814546
O O16 0.595460 0.616471 0.873507
O O17 0.695930 0.117084 0.622145
O O18 0.750000 0.000000 0.678847
O O19 0.306660 0.750000 0.434394
O O20 0.250000 0.861722 0.500000
O O21 0.915817 0.250000 0.922191
O O22 0.000000 0.354586 0.961971
#
# Coordination Sequence:
#
# PCOD8279391 Si02
#       8
#    16  16  16  16  16  16  16  16
#     4   9  18  33  55  82 111 141 177 227 282 332
#     4  11  20  34  57  85 114 147 183 227 284 341
#     4  11  20  38  56  80 114 150 189 228 277 336
#     4  11  20  35  61  83 109 147 190 234 275 332
#     4  11  21  35  56  83 115 150 184 228 286 344
#     4  11  22  36  57  80 115 150 187 229 280 333
#     4  10  19  36  59  82 106 140 193 237 271 328
#     4  10  22  38  56  83 116 146 184 236 288 338
#
# _framework density 18.078375000000001
#
# number of rings (size 3 to 8) (size 9 to 14) (size 15 to 20)
#    0.000    1.500    6.250    1.125    0.000    2.500 
#    0.000    1.875    0.000    0.750    0.000    1.750 
#    0.000    0.000    0.000    0.000    0.000    0.000 
#
# Total GULP energy -793648.414321 kJ/mol
# GULP energy per Si atom -12400.756474 kJ/mol
# Density = 1.803723 g / cm^3
# Si number density = 18.078375 Si / 1000 Ang^3
#
#
#
# Elastic Constant Matrix: (Units=GPa)
#
#
# Indices 1 2 3 4 5 6 
#
# 1 119.7824 23.0148 52.4802 0.0000 0.0000 0.0000
# 2 23.0148 20.2406 20.6871 0.0000 0.0000 0.0000
# 3 52.4802 20.6871 152.5487 0.0000 0.0000 0.0000
# 4 0.0000 0.0000 0.0000 21.6946 0.0000 0.0000
# 5 0.0000 0.0000 0.0000 0.0000 17.5374 0.0000
# 6 0.0000 0.0000 0.0000 0.0000 0.0000 24.3154
#
#
#
# Elastic Compliance Matrix: (Units=1/GPa)
#
#
# Indices 1 2 3 4 5 6 
#
# 1 0.011464 -0.010453 -0.002526 0.000000 0.000000 0.000000
# 2 -0.010453 0.066886 -0.005474 0.000000 0.000000 0.000000
# 3 -0.002526 -0.005474 0.008167 0.000000 0.000000 0.000000
# 4 0.000000 0.000000 0.000000 0.046094 0.000000 0.000000
# 5 0.000000 0.000000 0.000000 0.000000 0.057021 0.000000
# 6 0.000000 0.000000 0.000000 0.000000 0.000000 0.041126
#
#
# Mechanical properties :
#
#
# Convention : Reuss Voigt Hill
#
# Bulk Modulus (GPa) = 20.15736 53.88178 37.01957
# Shear Modulus (GPa) = 17.59309 25.80211 21.69760
#
# Velocity S-wave (km/s) = 3.12293 3.78198 3.46814
# Velocity P-wave (km/s) = 4.91709 6.99574 6.04641
#
# Compressibility (1/GPa) = 0.04960966
#
# Stress axis : x y z
#
# Youngs Moduli (GPa) = 87.23177 14.95071 122.44768
#
# Poissons Ratio (x) = 0.15628 0.30933
# Poissons Ratio (y) = 0.91183 0.67033
# Poissons Ratio (z) = 0.22037 0.08185
#
# Static dielectric constant tensor:
#      x y z
#    x 3.426480 0.000000 0.000000 
#    y 0.000000 3.059250 0.000000 
#    z 0.000000 0.000000 3.624380 
# 
# 
# High freq. dielectric constant tensor:
#      x y z
#    x 1.708510 0.000000 0.000000 
#    y 0.000000 1.665010 0.000000 
#    z 0.000000 0.000000 1.712900 
# 
# From -- ./inp_files/35231.got.cif
#   From: 2010.03.12/outbox.cif.g09.slc.cpg/sg67_18_cif.got.tgz:35231.got - 2010.04.10 22:41:39.
