data_PCOD8279315
_publ_section_title
;
Structure prediction by ZEFSAII (Michael W. Deem and Ramdas Pophale) SiO2 
 PCOD8279315
Probable space group: C M M A
;
_chemical_formula_sum "Si O2"
_cell_formula_units_Z 88
_cell_length_a 14.654129
_cell_length_b 28.272975
_cell_length_c 11.475449
_cell_angle_alpha 90.000000
_cell_angle_beta 90.000000
_cell_angle_gamma 90.000000
_cell_volume 4754.460095
_symmetry_space_group_name_H-M "C M M A"
_symmetry_group_IT_number 67
_symmetry_cell_setting 'orthorhombic'
loop_
_space_group_symop_operation_xyz
x,y,z
-x,1/2-y,z
x,-y,-z
-x,1/2+y,-z
-x,-y,-z
x,1/2+y,-z
-x,y,z
x,1/2-y,z
1/2+x,1/2+y,z
1/2-x,-y,z
1/2+x,1/2-y,-z
1/2-x,y,-z
1/2-x,1/2-y,-z
1/2+x,y,-z
1/2-x,1/2+y,z
1/2+x,-y,z
loop_
_atom_site_type_symbol
_atom_site_label
_atom_site_fract_x
_atom_site_fract_y
_atom_site_fract_z
Si Si1 0.750000 0.621678 0.000000
Si Si2 0.749854 0.052555 0.781176
Si Si3 0.103440 0.542084 0.415999
Si Si4 0.896798 0.697589 0.971123
Si Si5 0.395704 0.800251 0.303890
Si Si6 0.895990 0.399491 0.369079
O O1 0.749209 0.589781 0.114686
O O2 0.663566 0.655415 0.978177
O O3 0.837616 0.054373 0.697034
O O4 0.659342 0.061524 0.704682
O O5 0.750000 0.000000 0.835558
O O6 0.141374 0.500000 0.500000
O O7 0.105940 0.589141 0.494442
O O8 0.000000 0.529574 0.376335
O O9 0.865493 0.750000 0.015417
O O10 0.889165 0.695963 0.833516
O O11 0.000000 0.688160 0.012252
O O12 0.500000 0.799223 0.345368
O O13 0.349848 0.750000 0.344296
O O14 0.349535 0.847369 0.356933
O O15 0.000000 0.399926 0.320427
#
# Coordination Sequence:
#
# PCOD8279315 Si02
#       6
#     8  16  16  16  16  16
#     4  12  24  36  54  84 118 156 184 226 290 340
#     4  12  24  37  54  79 116 153 190 230 279 336
#     4  10  21  38  61  82 103 145 198 240 278 327
#     4   9  18  35  58  81 107 145 193 238 278 332
#     4   8  14  28  53  82 108 137 178 227 279 336
#     4  10  19  34  59  85 109 140 186 238 287 329
#
# _framework density 18.508937
#
# number of rings (size 3 to 8) (size 9 to 14) (size 15 to 20)
#    0.000    2.000    3.636    2.182    0.000    0.727 
#    0.000    0.000    0.000    7.636    0.000    2.545 
#    0.000    0.000    0.000    0.000    0.000    0.000 
#
# Total GULP energy -545145.017983 kJ/mol
# GULP energy per Si atom -12389.659500 kJ/mol
# Density = 1.846681 g / cm^3
# Si number density = 18.508937 Si / 1000 Ang^3
#
#
#
# Elastic Constant Matrix: (Units=GPa)
#
#
# Indices 1 2 3 4 5 6 
#
# 1 83.0169 44.0361 35.4558 0.0000 0.0000 0.0000
# 2 44.0361 131.1962 27.3077 0.0000 0.0000 0.0000
# 3 35.4558 27.3077 64.4795 0.0000 0.0000 0.0000
# 4 0.0000 0.0000 0.0000 17.1215 0.0000 0.0000
# 5 0.0000 0.0000 0.0000 0.0000 20.9088 0.0000
# 6 0.0000 0.0000 0.0000 0.0000 0.0000 26.7774
#
#
#
# Elastic Compliance Matrix: (Units=1/GPa)
#
#
# Indices 1 2 3 4 5 6 
#
# 1 0.017705 -0.004295 -0.007917 0.000000 0.000000 0.000000
# 2 -0.004295 0.009401 -0.001620 0.000000 0.000000 0.000000
# 3 -0.007917 -0.001620 0.020548 0.000000 0.000000 0.000000
# 4 0.000000 0.000000 0.000000 0.058406 0.000000 0.000000
# 5 0.000000 0.000000 0.000000 0.000000 0.047827 0.000000
# 6 0.000000 0.000000 0.000000 0.000000 0.000000 0.037345
#
#
# Mechanical properties :
#
#
# Convention : Reuss Voigt Hill
#
# Bulk Modulus (GPa) = 50.02162 54.69909 52.36035
# Shear Modulus (GPa) = 22.16723 24.42107 23.29415
#
# Velocity S-wave (km/s) = 3.46446 3.63632 3.55143
# Velocity P-wave (km/s) = 6.56412 6.87368 6.72068
#
# Compressibility (1/GPa) = 0.01999136
#
# Stress axis : x y z
#
# Youngs Moduli (GPa) = 56.48083 106.37285 48.66662
#
# Poissons Ratio (x) = 0.45686 0.38528
# Poissons Ratio (y) = 0.24258 0.07882
# Poissons Ratio (z) = 0.44714 0.17229
#
# Static dielectric constant tensor:
#      x y z
#    x 3.370250 0.000000 0.000000 
#    y 0.000000 3.920390 0.000000 
#    z 0.000000 0.000000 3.094580 
# 
# 
# High freq. dielectric constant tensor:
#      x y z
#    x 1.702490 0.000000 0.000000 
#    y 0.000000 1.742530 0.000000 
#    z 0.000000 0.000000 1.681100 
# 
# From -- ./inp_files/18440.got.cif
#   From: 2010.03.12/outbox.cif.g09.slc.cpg/sg67_10_cif.got.tgz:18440.got - 2010.04.10 22:41:39.
