data_PCOD8279459
_publ_section_title
;
Structure prediction by ZEFSAII (Michael W. Deem and Ramdas Pophale) SiO2 
 PCOD8279459
Probable space group: C M M A
;
_chemical_formula_sum "Si O2"
_cell_formula_units_Z 104
_cell_length_a 26.703318
_cell_length_b 8.902385
_cell_length_c 24.627734
_cell_angle_alpha 90.000000
_cell_angle_beta 90.000000
_cell_angle_gamma 90.000000
_cell_volume 5854.584169
_symmetry_space_group_name_H-M "C M M A"
_symmetry_group_IT_number 67
_symmetry_cell_setting 'orthorhombic'
loop_
_space_group_symop_operation_xyz
x,y,z
-x,1/2-y,z
x,-y,-z
-x,1/2+y,-z
-x,-y,-z
x,1/2+y,-z
-x,y,z
x,1/2-y,z
1/2+x,1/2+y,z
1/2-x,-y,z
1/2+x,1/2-y,-z
1/2-x,y,-z
1/2-x,1/2-y,-z
1/2+x,y,-z
1/2-x,1/2+y,z
1/2+x,-y,z
loop_
_atom_site_type_symbol
_atom_site_label
_atom_site_fract_x
_atom_site_fract_y
_atom_site_fract_z
Si Si1 0.000000 0.570885 0.558885
Si Si2 0.094253 0.422683 0.260494
Si Si3 0.298092 0.074878 0.381134
Si Si4 0.440214 0.081579 0.946118
Si Si5 0.409468 0.072606 0.376905
Si Si6 0.704788 0.078661 0.734620
Si Si7 0.442437 0.414851 0.158543
O O1 0.000000 0.500000 0.500000
O O2 0.049866 0.516705 0.588891
O O3 0.000000 0.750000 0.555358
O O4 0.079579 0.250000 0.272528
O O5 0.086844 0.517395 0.315014
O O6 0.150969 0.433874 0.236927
O O7 0.060105 0.488784 0.213393
O O8 0.288236 0.250000 0.382144
O O9 0.354272 0.038657 0.403434
O O10 0.250000 0.000000 0.412777
O O11 0.298399 0.014375 0.320519
O O12 0.500000 0.082679 0.945157
O O13 0.419050 0.250000 0.946100
O O14 0.417714 0.999232 0.892848
O O15 0.420098 0.000000 0.000000
O O16 0.420870 0.250000 0.377988
O O17 0.718635 0.250000 0.721973
O O18 0.750000 0.000000 0.769299
O O19 0.500000 0.392835 0.144337
O O20 0.417336 0.250000 0.166174
#
# Coordination Sequence:
#
# PCOD8279459 Si02
#       7
#     8  16  16  16  16  16  16
#     4  12  26  44  64  82 102 134 173 216 255 294
#     4  10  20  32  47  71 101 132 165 201 245 295
#     4   9  16  27  48  76 105 134 163 200 245 295
#     4   9  16  27  43  61  83 115 157 202 244 289
#     4  10  21  37  56  79 106 137 172 209 252 302
#     4   9  16  26  42  64  92 125 160 196 236 287
#     4  10  20  31  43  62  91 128 165 203 246 289
#
# _framework density 17.763857000000002
#
# number of rings (size 3 to 8) (size 9 to 14) (size 15 to 20)
#    0.000    2.308    0.000    4.385    1.077    6.462 
#    0.000    0.000    0.000    0.462    0.000    3.231 
#    0.000    0.615    0.000    6.462    0.000    3.846 
#
# Total GULP energy -644272.621211 kJ/mol
# GULP energy per Si atom -12389.858100 kJ/mol
# Density = 1.772343 g / cm^3
# Si number density = 17.763857 Si / 1000 Ang^3
#
#
#
# Elastic Constant Matrix: (Units=GPa)
#
#
# Indices 1 2 3 4 5 6 
#
# 1 80.6781 53.9736 32.2214 0.0000 0.0000 0.0000
# 2 53.9736 142.9670 44.9722 0.0000 0.0000 0.0000
# 3 32.2214 44.9722 82.5948 0.0000 0.0000 0.0000
# 4 0.0000 0.0000 0.0000 26.1948 0.0000 0.0000
# 5 0.0000 0.0000 0.0000 0.0000 -0.8545 0.0000
# 6 0.0000 0.0000 0.0000 0.0000 0.0000 26.8998
#
#
#
# Elastic Compliance Matrix: (Units=1/GPa)
#
#
# Indices 1 2 3 4 5 6 
#
# 1 0.017573 -0.005403 -0.003913 0.000000 0.000000 0.000000
# 2 -0.005403 0.010102 -0.003392 0.000000 0.000000 0.000000
# 3 -0.003913 -0.003392 0.015481 0.000000 0.000000 0.000000
# 4 0.000000 0.000000 0.000000 0.038176 0.000000 0.000000
# 5 0.000000 0.000000 0.000000 0.000000 -1.170210 0.000000
# 6 0.000000 0.000000 0.000000 0.000000 0.000000 0.037175
#
#
# Mechanical properties :
#
#
# Convention : Reuss Voigt Hill
#
# Bulk Modulus (GPa) = 56.37771 63.17489 59.77630
# Shear Modulus (GPa) = -4.90016 22.11952 8.60968
#
# Velocity S-wave (km/s) = -1.66268 3.53256 2.20392
# Velocity P-wave (km/s) = 5.30285 7.23046 6.34034
#
# Compressibility (1/GPa) = 0.01773751
#
# Stress axis : x y z
#
# Youngs Moduli (GPa) = 56.90704 98.99490 64.59492
#
# Poissons Ratio (x) = 0.53487 0.25278
# Poissons Ratio (y) = 0.30747 0.21913
# Poissons Ratio (z) = 0.22270 0.33583
#
# Static dielectric constant tensor:
#      x y z
#    x 4.034750 0.000000 0.000000 
#    y 0.000000 3.600430 0.000000 
#    z 0.000000 0.000000 2.988650 
# 
# 
# High freq. dielectric constant tensor:
#      x y z
#    x 1.670750 0.000000 0.000000 
#    y 0.000000 1.713150 0.000000 
#    z 0.000000 0.000000 1.644340 
# 
# From -- ./inp_files/42774.got.cif
#   From: 2010.03.12/outbox.cif.g09.slc.cpg/sg67_22_cif.got.tgz:42774.got - 2010.04.10 22:41:39.
