data_PCOD8279822
_publ_section_title
;
Structure prediction by ZEFSAII (Michael W. Deem and Ramdas Pophale) SiO2 
 PCOD8279822
Probable space group: C M M A
;
_chemical_formula_sum "Si O2"
_cell_formula_units_Z 96
_cell_length_a 19.567525
_cell_length_b 8.964142
_cell_length_c 30.858166
_cell_angle_alpha 90.000000
_cell_angle_beta 90.000000
_cell_angle_gamma 90.000000
_cell_volume 5412.709708
_symmetry_space_group_name_H-M "C M M A"
_symmetry_group_IT_number 67
_symmetry_cell_setting 'orthorhombic'
loop_
_space_group_symop_operation_xyz
x,y,z
-x,1/2-y,z
x,-y,-z
-x,1/2+y,-z
-x,-y,-z
x,1/2+y,-z
-x,y,z
x,1/2-y,z
1/2+x,1/2+y,z
1/2-x,-y,z
1/2+x,1/2-y,-z
1/2-x,y,-z
1/2-x,1/2-y,-z
1/2+x,y,-z
1/2-x,1/2+y,z
1/2+x,-y,z
loop_
_atom_site_type_symbol
_atom_site_label
_atom_site_fract_x
_atom_site_fract_y
_atom_site_fract_z
Si Si1 0.422449 0.424887 0.043654
Si Si2 0.321654 0.072048 0.119615
Si Si3 0.418617 0.917869 0.627569
Si Si4 0.678626 0.927297 0.209556
Si Si5 0.577860 0.075999 0.713714
Si Si6 0.418474 0.917988 0.457336
O O1 0.500000 0.477022 0.052958
O O2 0.417932 0.250000 0.036590
O O3 0.376879 0.475795 0.084003
O O4 0.393973 0.500000 0.000000
O O5 0.314370 0.250000 0.124215
O O6 0.250000 0.000000 0.105519
O O7 0.346299 0.001113 0.164813
O O8 0.500000 0.923762 0.626676
O O9 0.390981 0.750000 0.626192
O O10 0.391920 0.993880 0.671551
O O11 0.389124 0.002589 0.585597
O O12 0.687253 0.750000 0.203807
O O13 0.622387 0.969571 0.245026
O O14 0.750000 0.000000 0.224182
O O15 0.500000 0.026860 0.723315
O O16 0.582279 0.250000 0.703792
O O17 0.500000 0.922090 0.457104
O O18 0.390934 0.750000 0.457916
O O19 0.390026 0.000000 0.500000
#
# Coordination Sequence:
#
# PCOD8279822 Si02
#       6
#    16  16  16  16  16  16
#     4   9  19  35  53  74 100 130 162 196 235 278
#     4  10  20  34  52  73  98 126 158 196 236 280
#     4   9  16  25  38  58  84 114 149 189 233 280
#     4  10  20  34  52  72  96 126 159 196 238 283
#     4   9  18  32  48  67  92 122 156 193 234 281
#     4   9  15  22  33  50  76 112 151 189 230 278
#
# _framework density 17.736032999999999
#
# number of rings (size 3 to 8) (size 9 to 14) (size 15 to 20)
#    0.000    2.667    0.000    3.000    0.000    7.667 
#    0.000    1.667    0.000    0.000    0.000    0.000 
#    0.000    0.667    0.000    7.000    0.000   10.500 
#
# Total GULP energy -595181.608967 kJ/mol
# GULP energy per Si atom -12399.616853 kJ/mol
# Density = 1.769567 g / cm^3
# Si number density = 17.736033 Si / 1000 Ang^3
#
#
#
# Elastic Constant Matrix: (Units=GPa)
#
#
# Indices 1 2 3 4 5 6 
#
# 1 56.8046 38.4981 75.0181 0.0000 0.0000 0.0000
# 2 38.4981 105.7861 81.5638 0.0000 0.0000 0.0000
# 3 75.0181 81.5638 180.9929 0.0000 0.0000 0.0000
# 4 0.0000 0.0000 0.0000 37.3384 0.0000 0.0000
# 5 0.0000 0.0000 0.0000 0.0000 3.1072 0.0000
# 6 0.0000 0.0000 0.0000 0.0000 0.0000 17.2303
#
#
#
# Elastic Compliance Matrix: (Units=1/GPa)
#
#
# Indices 1 2 3 4 5 6 
#
# 1 0.039382 -0.002677 -0.015117 0.000000 0.000000 0.000000
# 2 -0.002677 0.014668 -0.005501 0.000000 0.000000 0.000000
# 3 -0.015117 -0.005501 0.014270 0.000000 0.000000 0.000000
# 4 0.000000 0.000000 0.000000 0.026782 0.000000 0.000000
# 5 0.000000 0.000000 0.000000 0.000000 0.321828 0.000000
# 6 0.000000 0.000000 0.000000 0.000000 0.000000 0.058037
#
#
# Mechanical properties :
#
#
# Convention : Reuss Voigt Hill
#
# Bulk Modulus (GPa) = 46.01617 81.52708 63.77163
# Shear Modulus (GPa) = 9.45536 21.43544 15.44540
#
# Velocity S-wave (km/s) = 2.31144 3.48024 2.95422
# Velocity P-wave (km/s) = 5.75543 7.88772 6.90439
#
# Compressibility (1/GPa) = 0.02173149
#
# Stress axis : x y z
#
# Youngs Moduli (GPa) = 25.39219 68.17363 70.07837
#
# Poissons Ratio (x) = 0.18247 1.05937
# Poissons Ratio (y) = 0.06796 0.38549
# Poissons Ratio (z) = 0.38385 0.37502
#
# Static dielectric constant tensor:
#      x y z
#    x 2.958470 0.000000 0.000000 
#    y 0.000000 3.389350 0.000000 
#    z 0.000000 0.000000 3.451430 
# 
# 
# High freq. dielectric constant tensor:
#      x y z
#    x 1.638440 0.000000 0.000000 
#    y 0.000000 1.697710 0.000000 
#    z 0.000000 0.000000 1.700100 
# 
# From -- ./inp_files/44797.got.cif
#   From: 2010.03.12/outbox.cif.g09.slc.cpg/sg67_23_cif.got.tgz:44797.got - 2010.04.10 22:41:39.
