data_PCOD8279816
_publ_section_title
;
Structure prediction by ZEFSAII (Michael W. Deem and Ramdas Pophale) SiO2 
 PCOD8279816
Probable space group: C M M A
;
_chemical_formula_sum "Si O2"
_cell_formula_units_Z 96
_cell_length_a 9.048871
_cell_length_b 19.366402
_cell_length_c 31.139666
_cell_angle_alpha 90.000000
_cell_angle_beta 90.000000
_cell_angle_gamma 90.000000
_cell_volume 5457.041915
_symmetry_space_group_name_H-M "C M M A"
_symmetry_group_IT_number 67
_symmetry_cell_setting 'orthorhombic'
loop_
_space_group_symop_operation_xyz
x,y,z
-x,1/2-y,z
x,-y,-z
-x,1/2+y,-z
-x,-y,-z
x,1/2+y,-z
-x,y,z
x,1/2-y,z
1/2+x,1/2+y,z
1/2-x,-y,z
1/2+x,1/2-y,-z
1/2-x,y,-z
1/2-x,1/2-y,-z
1/2+x,y,-z
1/2-x,1/2+y,z
1/2+x,-y,z
loop_
_atom_site_type_symbol
_atom_site_label
_atom_site_fract_x
_atom_site_fract_y
_atom_site_fract_z
Si Si1 0.333165 0.167669 0.626178
Si Si2 0.333224 0.667627 0.710284
Si Si3 0.175571 0.428261 0.955989
Si Si4 0.166569 0.667752 0.793922
Si Si5 0.833121 0.167664 0.542068
Si Si6 0.671545 0.671004 0.878471
O O1 0.500000 0.139391 0.625776
O O2 0.332283 0.250000 0.626135
O O3 0.251946 0.139207 0.668556
O O4 0.249238 0.139149 0.584256
O O5 0.500000 0.639556 0.709154
O O6 0.331242 0.750000 0.710482
O O7 0.254341 0.638299 0.752900
O O8 0.250000 0.500000 0.941911
O O9 0.214774 0.372227 0.920195
O O10 0.000000 0.437707 0.962136
O O11 0.250000 0.402031 0.000000
O O12 0.171298 0.750000 0.793109
O O13 0.240597 0.640755 0.837722
O O14 0.000000 0.639777 0.791778
O O15 0.832359 0.250000 0.542077
O O16 0.750000 0.139186 0.500000
O O17 0.000000 0.139390 0.541947
O O18 0.500000 0.664432 0.867181
O O19 0.715867 0.750000 0.887936
#
# Coordination Sequence:
#
# PCOD8279816 Si02
#       6
#    16  16  16  16  16  16
#     4   9  15  21  28  38  52  71  99 136 177 224
#     4   9  15  22  32  45  63  88 115 144 182 231
#     4  10  20  34  52  71  93 121 151 183 218 258
#     4   9  16  25  38  57  79 102 128 160 199 242
#     4   9  15  21  27  34  45  63  90 127 174 226
#     4   9  18  32  48  67  91 118 147 179 217 260
#
# _framework density 17.591947999999999
#
# number of rings (size 3 to 8) (size 9 to 14) (size 15 to 20)
#    0.000    2.833    0.000    3.000    0.000    9.667 
#    0.000    0.000    0.000    0.000    0.000    0.000 
#    0.000    0.000    0.000    0.000    0.000    0.000 
#
# Total GULP energy -595131.484404 kJ/mol
# GULP energy per Si atom -12398.572592 kJ/mol
# Density = 1.755191 g / cm^3
# Si number density = 17.591948 Si / 1000 Ang^3
#
#
#
# Elastic Constant Matrix: (Units=GPa)
#
#
# Indices 1 2 3 4 5 6 
#
# 1 163.9438 22.9535 103.9447 0.0000 0.0000 0.0000
# 2 22.9535 18.8824 37.2982 0.0000 0.0000 0.0000
# 3 103.9447 37.2982 190.5539 0.0000 0.0000 0.0000
# 4 0.0000 0.0000 0.0000 0.0688 0.0000 0.0000
# 5 0.0000 0.0000 0.0000 0.0000 41.1948 0.0000
# 6 0.0000 0.0000 0.0000 0.0000 0.0000 9.1929
#
#
#
# Elastic Compliance Matrix: (Units=1/GPa)
#
#
# Indices 1 2 3 4 5 6 
#
# 1 0.009376 -0.002111 -0.004701 0.000000 0.000000 0.000000
# 2 -0.002111 0.086817 -0.015842 0.000000 0.000000 0.000000
# 3 -0.004701 -0.015842 0.010913 0.000000 0.000000 0.000000
# 4 0.000000 0.000000 0.000000 14.535015 0.000000 0.000000
# 5 0.000000 0.000000 0.000000 0.000000 0.024275 0.000000
# 6 0.000000 0.000000 0.000000 0.000000 0.000000 0.108779
#
#
# Mechanical properties :
#
#
# Convention : Reuss Voigt Hill
#
# Bulk Modulus (GPa) = 16.18166 77.97476 47.07821
# Shear Modulus (GPa) = 0.33690 24.03688 12.18689
#
# Velocity S-wave (km/s) = 0.43809 3.70044 2.63488
# Velocity P-wave (km/s) = 3.07802 7.91694 6.00634
#
# Compressibility (1/GPa) = 0.06179836
#
# Stress axis : x y z
#
# Youngs Moduli (GPa) = 106.65606 11.51843 91.63308
#
# Poissons Ratio (x) = 0.02432 0.43079
# Poissons Ratio (y) = 0.22517 1.45162
# Poissons Ratio (z) = 0.50141 0.18247
#
# Static dielectric constant tensor:
#      x y z
#    x 3.483840 0.000000 0.000000 
#    y 0.000000 2.491390 0.000000 
#    z 0.000000 0.000000 3.488580 
# 
# 
# High freq. dielectric constant tensor:
#      x y z
#    x 1.699090 0.000000 0.000000 
#    y 0.000000 1.586220 0.000000 
#    z 0.000000 0.000000 1.700220 
# 
# From -- ./inp_files/43672.got.cif
#   From: 2010.03.12/outbox.cif.g09.slc.cpg/sg67_22_cif.got.tgz:43672.got - 2010.04.10 22:41:39.
