data_PCOD8279484
_publ_section_title
;
Structure prediction by ZEFSAII (Michael W. Deem and Ramdas Pophale) SiO2 
 PCOD8279484
Probable space group: C M M A
;
_chemical_formula_sum "Si O2"
_cell_formula_units_Z 120
_cell_length_a 26.474935
_cell_length_b 8.881839
_cell_length_c 29.318094
_cell_angle_alpha 90.000000
_cell_angle_beta 90.000000
_cell_angle_gamma 90.000000
_cell_volume 6894.035763
_symmetry_space_group_name_H-M "C M M A"
_symmetry_group_IT_number 67
_symmetry_cell_setting 'orthorhombic'
loop_
_space_group_symop_operation_xyz
x,y,z
-x,1/2-y,z
x,-y,-z
-x,1/2+y,-z
-x,-y,-z
x,1/2+y,-z
-x,y,z
x,1/2-y,z
1/2+x,1/2+y,z
1/2-x,-y,z
1/2+x,1/2-y,-z
1/2-x,y,-z
1/2-x,1/2-y,-z
1/2+x,y,-z
1/2-x,1/2+y,z
1/2+x,-y,z
loop_
_atom_site_type_symbol
_atom_site_label
_atom_site_fract_x
_atom_site_fract_y
_atom_site_fract_z
Si Si1 0.699837 0.425797 0.121042
Si Si2 0.799995 0.926494 0.224347
Si Si3 0.598415 0.427578 0.273954
Si Si4 0.000000 0.928366 0.950650
Si Si5 0.942707 0.418641 0.190935
Si Si6 0.939984 0.919500 0.454997
Si Si7 0.590097 0.925505 0.896000
Si Si8 0.941057 0.426166 0.362259
O O1 0.709683 0.250000 0.122054
O O2 0.750000 0.500000 0.098685
O O3 0.691959 0.487025 0.172666
O O4 0.648948 0.460343 0.091374
O O5 0.792987 0.750000 0.224249
O O6 0.846414 0.974575 0.256117
O O7 0.750000 0.000000 0.245849
O O8 0.588853 0.250000 0.271833
O O9 0.558570 0.512396 0.241543
O O10 0.591601 0.485788 0.325019
O O11 0.000000 0.750000 0.954391
O O12 0.948565 0.977638 0.925719
O O13 0.000000 0.000000 0.000000
O O14 0.919214 0.250000 0.189924
O O15 0.913916 0.531322 0.157110
O O16 0.000000 0.409494 0.174175
O O17 0.918451 0.750000 0.451906
O O18 0.000000 0.915758 0.457872
O O19 0.917710 0.000000 0.500000
O O20 0.922482 0.014155 0.411157
O O21 0.577149 0.750000 0.902297
O O22 0.929882 0.250000 0.359097
O O23 0.000000 0.461858 0.354589
#
# Coordination Sequence:
#
# PCOD8279484 Si02
#       8
#    16  16  16   8  16  16  16  16
#     4   9  18  33  53  80 110 141 178 218 264 311
#     4   9  18  32  47  68  95 128 168 210 251 300
#     4  11  21  33  47  66  96 133 171 208 254 306
#     4  12  26  44  64  90 116 146 182 220 269 316
#     4  11  22  33  47  72 103 137 177 215 251 299
#     4   9  16  27  44  64  86 117 158 203 251 299
#     4  11  21  37  59  83 112 144 178 219 263 311
#     4  10  20  32  44  63  93 128 167 208 249 298
#
# _framework density 17.406351000000001
#
# number of rings (size 3 to 8) (size 9 to 14) (size 15 to 20)
#    0.000    1.867    2.000    3.000    0.000    6.933 
#    0.000    0.000    0.000    0.400    0.000    2.800 
#    0.000    0.533    0.000    5.600    0.000    3.333 
#
# Total GULP energy -743928.525260 kJ/mol
# GULP energy per Si atom -12398.808754 kJ/mol
# Density = 1.736673 g / cm^3
# Si number density = 17.406351 Si / 1000 Ang^3
#
#
#
# Elastic Constant Matrix: (Units=GPa)
#
#
# Indices 1 2 3 4 5 6 
#
# 1 98.4865 45.5715 34.1112 0.0000 0.0000 0.0000
# 2 45.5715 97.1131 34.7821 0.0000 0.0000 0.0000
# 3 34.1112 34.7821 82.6715 0.0000 0.0000 0.0000
# 4 0.0000 0.0000 0.0000 30.9735 0.0000 0.0000
# 5 0.0000 0.0000 0.0000 0.0000 9.0935 0.0000
# 6 0.0000 0.0000 0.0000 0.0000 0.0000 26.4039
#
#
#
# Elastic Compliance Matrix: (Units=1/GPa)
#
#
# Indices 1 2 3 4 5 6 
#
# 1 0.013775 -0.005214 -0.003490 0.000000 0.000000 0.000000
# 2 -0.005214 0.014098 -0.003780 0.000000 0.000000 0.000000
# 3 -0.003490 -0.003780 0.015126 0.000000 0.000000 0.000000
# 4 0.000000 0.000000 0.000000 0.032286 0.000000 0.000000
# 5 0.000000 0.000000 0.000000 0.000000 0.109969 0.000000
# 6 0.000000 0.000000 0.000000 0.000000 0.000000 0.037873
#
#
# Mechanical properties :
#
#
# Convention : Reuss Voigt Hill
#
# Bulk Modulus (GPa) = 55.45950 56.35565 55.90757
# Shear Modulus (GPa) = 19.67686 24.21460 21.94573
#
# Velocity S-wave (km/s) = 3.36585 3.73384 3.55461
# Velocity P-wave (km/s) = 6.85829 7.14391 7.00256
#
# Compressibility (1/GPa) = 0.01803118
#
# Stress axis : x y z
#
# Youngs Moduli (GPa) = 72.59442 70.93249 66.10945
#
# Poissons Ratio (x) = 0.36985 0.23073
# Poissons Ratio (y) = 0.37852 0.24989
# Poissons Ratio (z) = 0.25336 0.26812
#
# Static dielectric constant tensor:
#      x y z
#    x 3.173450 0.000000 0.000000 
#    y 0.000000 3.327790 0.000000 
#    z 0.000000 0.000000 3.125110 
# 
# 
# High freq. dielectric constant tensor:
#      x y z
#    x 1.649770 0.000000 0.000000 
#    y 0.000000 1.686930 0.000000 
#    z 0.000000 0.000000 1.649960 
# 
# From -- ./inp_files/45000.got.cif
#   From: 2010.03.12/outbox.cif.g09.slc.cpg/sg67_23_cif.got.tgz:45000.got - 2010.04.10 22:41:39.
