data_PCOD8279757
_publ_section_title
;
Structure prediction by ZEFSAII (Michael W. Deem and Ramdas Pophale) SiO2 
 PCOD8279757
Probable space group: C M M A
;
_chemical_formula_sum "Si O2"
_cell_formula_units_Z 88
_cell_length_a 9.535095
_cell_length_b 18.147057
_cell_length_c 27.226522
_cell_angle_alpha 90.000000
_cell_angle_beta 90.000000
_cell_angle_gamma 90.000000
_cell_volume 4711.111624
_symmetry_space_group_name_H-M "C M M A"
_symmetry_group_IT_number 67
_symmetry_cell_setting 'orthorhombic'
loop_
_space_group_symop_operation_xyz
x,y,z
-x,1/2-y,z
x,-y,-z
-x,1/2+y,-z
-x,-y,-z
x,1/2+y,-z
-x,y,z
x,1/2-y,z
1/2+x,1/2+y,z
1/2-x,-y,z
1/2+x,1/2-y,-z
1/2-x,y,-z
1/2-x,1/2-y,-z
1/2+x,y,-z
1/2-x,1/2+y,z
1/2+x,-y,z
loop_
_atom_site_type_symbol
_atom_site_label
_atom_site_fract_x
_atom_site_fract_y
_atom_site_fract_z
Si Si1 0.340488 0.071360 0.792832
Si Si2 0.000000 0.164914 0.919616
Si Si3 0.837759 0.250000 0.451062
Si Si4 0.500000 0.835474 0.035634
Si Si5 0.842650 0.162740 0.724598
Si Si6 0.847906 0.167425 0.359767
Si Si7 0.225283 0.917303 0.903032
O O1 0.500000 0.065875 0.772350
O O2 0.257976 0.140035 0.769494
O O3 0.353640 0.081074 0.851245
O O4 0.250000 0.000000 0.778457
O O5 0.869220 0.125346 0.894863
O O6 0.000000 0.250000 0.904484
O O7 0.000000 0.154178 0.977722
O O8 0.750000 0.250000 0.500000
O O9 0.804194 0.176798 0.417634
O O10 0.000000 0.250000 0.465973
O O11 0.500000 0.750000 0.050783
O O12 0.362131 0.873794 0.056387
O O13 0.854642 0.250000 0.724141
O O14 0.772781 0.130468 0.673863
O O15 0.000000 0.129278 0.729430
O O16 0.869154 0.250000 0.338549
O O17 0.000000 0.126269 0.355363
O O18 0.250000 0.000000 0.922716
#
# Coordination Sequence:
#
# PCOD8279757 Si02
#       7
#    16   8   8   8  16  16  16
#     4  11  24  41  60  80 109 145 180 231 281 334
#     4  11  25  41  63  89 121 149 177 233 285 332
#     4   8  14  22  38  64 100 148 190 234 285 338
#     4  11  23  43  63  89 119 147 185 227 281 344
#     4  10  20  33  53  81 109 143 185 229 276 331
#     4   7  13  26  41  62  98 139 181 228 273 326
#     4  11  24  41  63  87 113 150 188 230 279 341
#
# _framework density 18.679243
#
# number of rings (size 3 to 8) (size 9 to 14) (size 15 to 20)
#    0.545    1.636    0.909    2.727    5.091    6.909 
#    0.000    0.000    0.000    0.000    0.000    0.000 
#    0.000    0.727    0.000    7.636    0.000    4.182 
#
# Total GULP energy -545211.092204 kJ/mol
# GULP energy per Si atom -12391.161186 kJ/mol
# Density = 1.863673 g / cm^3
# Si number density = 18.679243 Si / 1000 Ang^3
#
#
#
# Elastic Constant Matrix: (Units=GPa)
#
#
# Indices 1 2 3 4 5 6 
#
# 1 142.0831 36.5049 29.4688 0.0000 0.0000 0.0000
# 2 36.5049 67.9694 22.8356 0.0000 0.0000 0.0000
# 3 29.4688 22.8356 62.6649 0.0000 0.0000 0.0000
# 4 0.0000 0.0000 0.0000 -0.4667 0.0000 0.0000
# 5 0.0000 0.0000 0.0000 0.0000 39.0461 0.0000
# 6 0.0000 0.0000 0.0000 0.0000 0.0000 24.8583
#
#
#
# Elastic Compliance Matrix: (Units=1/GPa)
#
#
# Indices 1 2 3 4 5 6 
#
# 1 0.008540 -0.003689 -0.002672 0.000000 0.000000 0.000000
# 2 -0.003689 0.018359 -0.004955 0.000000 0.000000 0.000000
# 3 -0.002672 -0.004955 0.019020 0.000000 0.000000 0.000000
# 4 0.000000 0.000000 0.000000 -2.142824 0.000000 0.000000
# 5 0.000000 0.000000 0.000000 0.000000 0.025611 0.000000
# 6 0.000000 0.000000 0.000000 0.000000 0.000000 0.040228
#
#
# Mechanical properties :
#
#
# Convention : Reuss Voigt Hill
#
# Bulk Modulus (GPa) = 42.94296 50.03734 46.49015
# Shear Modulus (GPa) = -2.49916 24.94809 11.22446
#
# Velocity S-wave (km/s) = -1.15795 3.65856 2.45400
# Velocity P-wave (km/s) = 4.60997 6.68525 5.74214
#
# Compressibility (1/GPa) = 0.02328670
#
# Stress axis : x y z
#
# Youngs Moduli (GPa) = 117.09480 54.47032 52.57617
#
# Poissons Ratio (x) = 0.20095 0.14047
# Poissons Ratio (y) = 0.43197 0.26053
# Poissons Ratio (z) = 0.31285 0.26991
#
# Static dielectric constant tensor:
#      x y z
#    x 3.702390 0.000000 0.000000 
#    y 0.000000 3.177460 0.000000 
#    z 0.000000 0.000000 3.259180 
# 
# 
# High freq. dielectric constant tensor:
#      x y z
#    x 1.745440 0.000000 0.000000 
#    y 0.000000 1.686210 0.000000 
#    z 0.000000 0.000000 1.711540 
# 
# From -- ./inp_files/40727.got.cif
#   From: 2010.03.12/outbox.cif.g09.slc.cpg/sg67_21_cif.got.tgz:40727.got - 2010.04.10 22:41:39.
