data_PCOD8279820
_publ_section_title
;
Structure prediction by ZEFSAII (Michael W. Deem and Ramdas Pophale) SiO2 
 PCOD8279820
Probable space group: C M M A
;
_chemical_formula_sum "Si O2"
_cell_formula_units_Z 104
_cell_length_a 29.805507
_cell_length_b 9.044274
_cell_length_c 23.105034
_cell_angle_alpha 90.000000
_cell_angle_beta 90.000000
_cell_angle_gamma 90.000000
_cell_volume 6228.404885
_symmetry_space_group_name_H-M "C M M A"
_symmetry_group_IT_number 67
_symmetry_cell_setting 'orthorhombic'
loop_
_space_group_symop_operation_xyz
x,y,z
-x,1/2-y,z
x,-y,-z
-x,1/2+y,-z
-x,-y,-z
x,1/2+y,-z
-x,y,z
x,1/2-y,z
1/2+x,1/2+y,z
1/2-x,-y,z
1/2+x,1/2-y,-z
1/2-x,y,-z
1/2-x,1/2-y,-z
1/2+x,y,-z
1/2-x,1/2+y,z
1/2+x,-y,z
loop_
_atom_site_type_symbol
_atom_site_label
_atom_site_fract_x
_atom_site_fract_y
_atom_site_fract_z
Si Si1 0.324840 0.079268 0.940491
Si Si2 0.580806 0.583044 0.111011
Si Si3 0.553287 0.415224 0.555538
Si Si4 0.388332 0.580934 0.780015
Si Si5 0.551169 0.421630 0.328952
Si Si6 0.706736 0.579517 0.824809
Si Si7 0.000000 0.921407 0.060159
O O1 0.309092 0.250000 0.941677
O O2 0.378524 0.069457 0.934106
O O3 0.302562 0.996717 0.886548
O O4 0.310285 0.000000 0.000000
O O5 0.561787 0.750000 0.111151
O O6 0.595168 0.540446 0.175133
O O7 0.543607 0.465060 0.095228
O O8 0.573543 0.500000 0.500000
O O9 0.500000 0.414113 0.551475
O O10 0.572829 0.250000 0.555407
O O11 0.568303 0.493365 0.614568
O O12 0.400785 0.750000 0.798082
O O13 0.412611 0.539762 0.720270
O O14 0.334194 0.564270 0.778877
O O15 0.500000 0.468124 0.310858
O O16 0.551818 0.250000 0.344291
O O17 0.717418 0.750000 0.837124
O O18 0.750000 0.500000 0.796544
O O19 0.000000 0.750000 0.048377
O O20 0.000000 0.000000 0.000000
#
# Coordination Sequence:
#
# PCOD8279820 Si02
#       7
#    16  16  16  16  16  16   8
#     4  10  20  34  52  72  94 117 145 184 235 291
#     4  10  21  35  50  69  92 120 154 194 238 283
#     4   9  16  26  41  63  93 130 169 204 238 270
#     4   9  19  34  51  72  97 127 159 196 239 284
#     4   9  17  29  46  69  98 131 166 198 233 277
#     4  10  20  35  53  72  95 121 154 192 238 289
#     4  12  24  36  50  66  88 118 157 198 237 282
#
# _framework density 16.697695
#
# number of rings (size 3 to 8) (size 9 to 14) (size 15 to 20)
#    0.000    2.308    0.000    3.000    1.077    6.462 
#    0.000    1.538    0.000    0.000    0.000    0.000 
#    0.000    0.615    0.000    7.077    0.000    2.462 
#
# Total GULP energy -644678.015735 kJ/mol
# GULP energy per Si atom -12397.654149 kJ/mol
# Density = 1.665969 g / cm^3
# Si number density = 16.697695 Si / 1000 Ang^3
#
#
#
# Elastic Constant Matrix: (Units=GPa)
#
#
# Indices 1 2 3 4 5 6 
#
# 1 77.9057 40.9809 38.9721 0.0000 0.0000 0.0000
# 2 40.9809 115.7431 47.3501 0.0000 0.0000 0.0000
# 3 38.9721 47.3501 99.1484 0.0000 0.0000 0.0000
# 4 0.0000 0.0000 0.0000 27.7392 0.0000 0.0000
# 5 0.0000 0.0000 0.0000 0.0000 12.7804 0.0000
# 6 0.0000 0.0000 0.0000 0.0000 0.0000 23.6597
#
#
#
# Elastic Compliance Matrix: (Units=1/GPa)
#
#
# Indices 1 2 3 4 5 6 
#
# 1 0.017478 -0.004198 -0.004865 0.000000 0.000000 0.000000
# 2 -0.004198 0.011746 -0.003959 0.000000 0.000000 0.000000
# 3 -0.004865 -0.003959 0.013889 0.000000 0.000000 0.000000
# 4 0.000000 0.000000 0.000000 0.036050 0.000000 0.000000
# 5 0.000000 0.000000 0.000000 0.000000 0.078245 0.000000
# 6 0.000000 0.000000 0.000000 0.000000 0.000000 0.042266
#
#
# Mechanical properties :
#
#
# Convention : Reuss Voigt Hill
#
# Bulk Modulus (GPa) = 58.58958 60.82261 59.70609
# Shear Modulus (GPa) = 21.60680 23.86881 22.73781
#
# Velocity S-wave (km/s) = 3.60112 3.78493 3.69417
# Velocity P-wave (km/s) = 7.24261 7.45693 7.35055
#
# Compressibility (1/GPa) = 0.01706788
#
# Stress axis : x y z
#
# Youngs Moduli (GPa) = 57.21413 85.13536 71.99871
#
# Poissons Ratio (x) = 0.35741 0.35029
# Poissons Ratio (y) = 0.24019 0.28507
# Poissons Ratio (z) = 0.27836 0.33708
#
# Static dielectric constant tensor:
#      x y z
#    x 3.103360 0.000000 0.000000 
#    y 0.000000 3.281120 0.000000 
#    z 0.000000 0.000000 2.999550 
# 
# 
# High freq. dielectric constant tensor:
#      x y z
#    x 1.620380 0.000000 0.000000 
#    y 0.000000 1.660750 0.000000 
#    z 0.000000 0.000000 1.621070 
# 
# From -- ./inp_files/37516.got.cif
#   From: 2010.03.12/outbox.cif.g09.slc.cpg/sg67_19_cif.got.tgz:37516.got - 2010.04.10 22:41:39.
