data_PCOD8279225
_publ_section_title
;
Structure prediction by ZEFSAII (Michael W. Deem and Ramdas Pophale) SiO2 
 PCOD8279225
Probable space group: C M M A
;
_chemical_formula_sum "Si O2"
_cell_formula_units_Z 72
_cell_length_a 22.458449
_cell_length_b 9.579063
_cell_length_c 18.713231
_cell_angle_alpha 90.000000
_cell_angle_beta 90.000000
_cell_angle_gamma 90.000000
_cell_volume 4025.794187
_symmetry_space_group_name_H-M "C M M A"
_symmetry_group_IT_number 67
_symmetry_cell_setting 'orthorhombic'
loop_
_space_group_symop_operation_xyz
x,y,z
-x,1/2-y,z
x,-y,-z
-x,1/2+y,-z
-x,-y,-z
x,1/2+y,-z
-x,y,z
x,1/2-y,z
1/2+x,1/2+y,z
1/2-x,-y,z
1/2+x,1/2-y,-z
1/2-x,y,-z
1/2-x,1/2-y,-z
1/2+x,y,-z
1/2-x,1/2+y,z
1/2+x,-y,z
loop_
_atom_site_type_symbol
_atom_site_label
_atom_site_fract_x
_atom_site_fract_y
_atom_site_fract_z
Si Si1 0.070036 0.414383 0.295558
Si Si2 0.666250 0.250000 0.074489
Si Si3 0.000000 0.901680 0.933607
Si Si4 0.193858 0.750000 0.910963
Si Si5 0.570616 0.589899 0.566482
Si Si6 0.883121 0.019780 0.146953
O O1 0.085907 0.250000 0.304745
O O2 0.090445 0.503425 0.363922
O O3 0.107280 0.486319 0.231839
O O4 0.000000 0.431943 0.281397
O O5 0.735538 0.250000 0.091712
O O6 0.630513 0.124583 0.109262
O O7 0.662407 0.250000 0.988811
O O8 0.000000 0.750000 0.968401
O O9 0.942764 0.916080 0.884560
O O10 0.000000 0.000000 0.000000
O O11 0.173843 0.614232 0.868740
O O12 0.596008 0.500000 0.500000
O O13 0.500000 0.597937 0.561342
O O14 0.595834 0.750000 0.567055
#
# Coordination Sequence:
#
# PCOD8279225 Si02
#       6
#    16   8   8   8  16  16
#     4  10  19  34  51  74 111 152 184 222 277 334
#     4  11  26  39  61  83 104 144 196 252 293 332
#     4  12  24  38  56  80 111 148 185 230 287 351
#     4  11  22  45  61  77 106 146 196 246 295 340
#     4   9  17  29  48  75 108 148 187 220 259 323
#     4  12  23  38  58  82 113 146 188 235 290 348
#
# _framework density 17.88467
#
# number of rings (size 3 to 8) (size 9 to 14) (size 15 to 20)
#    0.000    1.333    3.333    3.333    3.111    4.444 
#    0.000    0.000    0.000    0.000    0.000    0.000 
#    0.000    5.333    0.000    0.000    0.000    0.000 
#
# Total GULP energy -446295.190598 kJ/mol
# GULP energy per Si atom -12397.088628 kJ/mol
# Density = 1.784396 g / cm^3
# Si number density = 17.884670 Si / 1000 Ang^3
#
#
#
# Elastic Constant Matrix: (Units=GPa)
#
#
# Indices 1 2 3 4 5 6 
#
# 1 45.7207 22.8186 27.8580 0.0000 0.0000 0.0000
# 2 22.8186 122.3225 49.5288 0.0000 0.0000 0.0000
# 3 27.8580 49.5288 142.3153 0.0000 0.0000 0.0000
# 4 0.0000 0.0000 0.0000 27.5490 0.0000 0.0000
# 5 0.0000 0.0000 0.0000 0.0000 12.4933 0.0000
# 6 0.0000 0.0000 0.0000 0.0000 0.0000 29.7515
#
#
#
# Elastic Compliance Matrix: (Units=1/GPa)
#
#
# Indices 1 2 3 4 5 6 
#
# 1 0.025888 -0.003233 -0.003942 0.000000 0.000000 0.000000
# 2 -0.003233 0.009920 -0.002819 0.000000 0.000000 0.000000
# 3 -0.003942 -0.002819 0.008780 0.000000 0.000000 0.000000
# 4 0.000000 0.000000 0.000000 0.036299 0.000000 0.000000
# 5 0.000000 0.000000 0.000000 0.000000 0.080043 0.000000
# 6 0.000000 0.000000 0.000000 0.000000 0.000000 0.033612
#
#
# Mechanical properties :
#
#
# Convention : Reuss Voigt Hill
#
# Bulk Modulus (GPa) = 40.65450 56.75214 48.70332
# Shear Modulus (GPa) = 22.44879 27.96896 25.20888
#
# Velocity S-wave (km/s) = 3.54672 3.95885 3.75844
# Velocity P-wave (km/s) = 6.28913 7.25932 6.79157
#
# Compressibility (1/GPa) = 0.02459752
#
# Stress axis : x y z
#
# Youngs Moduli (GPa) = 38.62862 100.80843 113.90055
#
# Poissons Ratio (x) = 0.32591 0.44903
# Poissons Ratio (y) = 0.12488 0.32114
# Poissons Ratio (z) = 0.15229 0.28423
#
# Static dielectric constant tensor:
#      x y z
#    x 2.965770 0.000000 0.000000 
#    y 0.000000 3.445340 0.000000 
#    z 0.000000 0.000000 3.479800 
# 
# 
# High freq. dielectric constant tensor:
#      x y z
#    x 1.651130 0.000000 0.000000 
#    y 0.000000 1.711430 0.000000 
#    z 0.000000 0.000000 1.697370 
# 
# From -- ./inp_files/31988.got.cif
#   From: 2010.03.12/outbox.cif.g09.slc.cpg/sg67_16_cif.got.tgz:31988.got - 2010.04.10 22:41:39.
