data_PCOD8279977
_publ_section_title
;
Structure prediction by ZEFSAII (Michael W. Deem and Ramdas Pophale) SiO2 
 PCOD8279977
Probable space group: C M M A
;
_chemical_formula_sum "Si O2"
_cell_formula_units_Z 96
_cell_length_a 18.711527
_cell_length_b 8.848084
_cell_length_c 30.756881
_cell_angle_alpha 90.000000
_cell_angle_beta 90.000000
_cell_angle_gamma 90.000000
_cell_volume 5092.144978
_symmetry_space_group_name_H-M "C M M A"
_symmetry_group_IT_number 67
_symmetry_cell_setting 'orthorhombic'
loop_
_space_group_symop_operation_xyz
x,y,z
-x,1/2-y,z
x,-y,-z
-x,1/2+y,-z
-x,-y,-z
x,1/2+y,-z
-x,y,z
x,1/2-y,z
1/2+x,1/2+y,z
1/2-x,-y,z
1/2+x,1/2-y,-z
1/2-x,y,-z
1/2-x,1/2-y,-z
1/2+x,y,-z
1/2-x,1/2+y,z
1/2+x,-y,z
loop_
_atom_site_type_symbol
_atom_site_label
_atom_site_fract_x
_atom_site_fract_y
_atom_site_fract_z
Si Si1 0.084755 0.416910 0.202425
Si Si2 0.081286 0.928363 0.455589
Si Si3 0.415300 0.920810 0.882638
Si Si4 0.827396 0.071412 0.625979
Si Si5 0.082357 0.927743 0.700776
Si Si6 0.174593 0.071140 0.045395
O O1 0.116379 0.250000 0.192885
O O2 0.112358 0.530881 0.165279
O O3 0.107905 0.471853 0.250421
O O4 0.000000 0.406696 0.201833
O O5 0.085733 0.750000 0.460023
O O6 0.129144 0.987908 0.415894
O O7 0.000000 0.982125 0.447130
O O8 0.111263 0.000000 0.500000
O O9 0.500000 0.935071 0.885594
O O10 0.389610 0.750000 0.891274
O O11 0.383342 0.032849 0.918246
O O12 0.820089 0.250000 0.625541
O O13 0.750000 0.000000 0.625045
O O14 0.868660 0.023196 0.669031
O O15 0.092869 0.750000 0.692748
O O16 0.000000 0.973775 0.693231
O O17 0.182189 0.250000 0.040174
O O18 0.250000 0.000000 0.059407
O O19 0.148426 0.000000 0.000000
#
# Coordination Sequence:
#
# PCOD8279977 Si02
#       6
#    16  16  16  16  16  16
#     4   8  15  30  52  78 107 138 173 215 263 313
#     4   9  19  36  57  80 104 133 172 217 263 313
#     4  10  20  34  54  82 113 142 176 218 264 315
#     4  11  23  37  53  76 109 144 179 220 265 314
#     4   9  18  34  57  82 107 138 177 218 262 315
#     4  11  22  38  58  78 105 140 179 221 266 318
#
# _framework density 18.852564999999998
#
# number of rings (size 3 to 8) (size 9 to 14) (size 15 to 20)
#    0.000    2.333    0.000    4.500    0.000    4.667 
#    0.000    5.833    0.000    4.000    0.000    0.000 
#    0.000    0.000    0.000    0.000    0.000    0.000 
#
# Total GULP energy -595212.705111 kJ/mol
# GULP energy per Si atom -12400.264690 kJ/mol
# Density = 1.880966 g / cm^3
# Si number density = 18.852565 Si / 1000 Ang^3
#
#
#
# Elastic Constant Matrix: (Units=GPa)
#
#
# Indices 1 2 3 4 5 6 
#
# 1 71.5437 38.5873 60.2399 0.0000 0.0000 0.0000
# 2 38.5873 95.8677 58.3400 0.0000 0.0000 0.0000
# 3 60.2399 58.3400 151.4743 0.0000 0.0000 0.0000
# 4 0.0000 0.0000 0.0000 35.2644 0.0000 0.0000
# 5 0.0000 0.0000 0.0000 0.0000 -1.7367 0.0000
# 6 0.0000 0.0000 0.0000 0.0000 0.0000 21.8693
#
#
#
# Elastic Compliance Matrix: (Units=1/GPa)
#
#
# Indices 1 2 3 4 5 6 
#
# 1 0.022542 -0.004725 -0.007145 0.000000 0.000000 0.000000
# 2 -0.004725 0.014615 -0.003750 0.000000 0.000000 0.000000
# 3 -0.007145 -0.003750 0.010887 0.000000 0.000000 0.000000
# 4 0.000000 0.000000 0.000000 0.028357 0.000000 0.000000
# 5 0.000000 0.000000 0.000000 0.000000 -0.575800 0.000000
# 6 0.000000 0.000000 0.000000 0.000000 0.000000 0.045726
#
#
# Mechanical properties :
#
#
# Convention : Reuss Voigt Hill
#
# Bulk Modulus (GPa) = 59.50728 70.35777 64.93253
# Shear Modulus (GPa) = -11.99525 21.86064 4.93270
#
# Velocity S-wave (km/s) = -2.52517 3.40892 1.61930
# Velocity P-wave (km/s) = 4.80948 7.27292 6.16549
#
# Compressibility (1/GPa) = 0.01680467
#
# Stress axis : x y z
#
# Youngs Moduli (GPa) = 44.36155 68.42353 91.84961
#
# Poissons Ratio (x) = 0.32333 0.65625
# Poissons Ratio (y) = 0.20962 0.34440
# Poissons Ratio (z) = 0.31695 0.25656
#
# Static dielectric constant tensor:
#      x y z
#    x 3.235960 0.000000 0.000000 
#    y 0.000000 3.516560 0.000000 
#    z 0.000000 0.000000 3.711840 
# 
# 
# High freq. dielectric constant tensor:
#      x y z
#    x 1.707330 0.000000 0.000000 
#    y 0.000000 1.734660 0.000000 
#    z 0.000000 0.000000 1.747760 
# 
# From -- ./inp_files/44576.got.cif
#   From: 2010.03.12/outbox.cif.g09.slc.cpg/sg67_23_cif.got.tgz:44576.got - 2010.04.10 22:41:39.
