data_PCOD8279796
_publ_section_title
;
Structure prediction by ZEFSAII (Michael W. Deem and Ramdas Pophale) SiO2 
 PCOD8279796
Probable space group: C M M A
;
_chemical_formula_sum "Si O2"
_cell_formula_units_Z 96
_cell_length_a 9.046543
_cell_length_b 25.528568
_cell_length_c 25.034710
_cell_angle_alpha 90.000000
_cell_angle_beta 90.000000
_cell_angle_gamma 90.000000
_cell_volume 5781.648314
_symmetry_space_group_name_H-M "C M M A"
_symmetry_group_IT_number 67
_symmetry_cell_setting 'orthorhombic'
loop_
_space_group_symop_operation_xyz
x,y,z
-x,1/2-y,z
x,-y,-z
-x,1/2+y,-z
-x,-y,-z
x,1/2+y,-z
-x,y,z
x,1/2-y,z
1/2+x,1/2+y,z
1/2-x,-y,z
1/2+x,1/2-y,-z
1/2-x,y,-z
1/2-x,1/2-y,-z
1/2+x,y,-z
1/2-x,1/2+y,z
1/2+x,-y,z
loop_
_atom_site_type_symbol
_atom_site_label
_atom_site_fract_x
_atom_site_fract_y
_atom_site_fract_z
Si Si1 0.324298 0.053953 0.944658
Si Si2 0.672128 0.944155 0.450673
Si Si3 0.328242 0.647338 0.133561
Si Si4 0.166102 0.750000 0.130569
Si Si5 0.671759 0.944795 0.332606
Si Si6 0.325934 0.853791 0.255938
Si Si7 0.333003 0.750000 0.742416
O O1 0.500000 0.046696 0.952050
O O2 0.284818 0.096775 0.900432
O O3 0.250000 0.000000 0.925235
O O4 0.250000 0.071926 0.000000
O O5 0.500000 0.949844 0.463530
O O6 0.750000 0.912095 0.500000
O O7 0.698379 0.919753 0.391827
O O8 0.750000 0.000000 0.448738
O O9 0.500000 0.660386 0.129806
O O10 0.245011 0.697654 0.109135
O O11 0.281267 0.635974 0.194534
O O12 0.174267 0.750000 0.194041
O O13 0.000000 0.750000 0.108747
O O14 0.500000 0.955696 0.323341
O O15 0.732735 0.903075 0.289921
O O16 0.750000 0.000000 0.323591
O O17 0.500000 0.846091 0.262868
O O18 0.248632 0.801755 0.279010
O O19 0.500000 0.750000 0.721062
#
# Coordination Sequence:
#
# PCOD8279796 Si02
#       7
#    16  16  16   8  16  16   8
#     4  10  20  34  51  70  91 119 153 188 221 259
#     4   9  15  24  38  57  81 112 148 182 214 255
#     4   9  18  32  50  69  91 119 150 181 220 268
#     4   9  17  29  48  72  95 116 143 182 225 263
#     4   9  18  29  42  63  92 121 149 180 219 264
#     4   9  17  31  48  66  90 121 150 179 219 268
#     4   9  17  29  45  68  91 114 149 188 220 257
#
# _framework density 16.604261999999999
#
# number of rings (size 3 to 8) (size 9 to 14) (size 15 to 20)
#    0.000    2.833    0.000    2.500    0.000    5.333 
#    0.000    0.417    0.000    0.000    0.000    0.583 
#    0.000    0.000    0.000    0.000    0.000    0.000 
#
# Total GULP energy -594935.272771 kJ/mol
# GULP energy per Si atom -12394.484849 kJ/mol
# Density = 1.656647 g / cm^3
# Si number density = 16.604262 Si / 1000 Ang^3
#
#
#
# Elastic Constant Matrix: (Units=GPa)
#
#
# Indices 1 2 3 4 5 6 
#
# 1 80.9685 56.9023 44.5672 0.0000 0.0000 0.0000
# 2 56.9023 126.5510 72.4397 0.0000 0.0000 0.0000
# 3 44.5672 72.4397 88.6093 0.0000 0.0000 0.0000
# 4 0.0000 0.0000 0.0000 3.3851 0.0000 0.0000
# 5 0.0000 0.0000 0.0000 0.0000 19.6287 0.0000
# 6 0.0000 0.0000 0.0000 0.0000 0.0000 24.8146
#
#
#
# Elastic Compliance Matrix: (Units=1/GPa)
#
#
# Indices 1 2 3 4 5 6 
#
# 1 0.019109 -0.005809 -0.004862 0.000000 0.000000 0.000000
# 2 -0.005809 0.016618 -0.010664 0.000000 0.000000 0.000000
# 3 -0.004862 -0.010664 0.022449 0.000000 0.000000 0.000000
# 4 0.000000 0.000000 0.000000 0.295412 0.000000 0.000000
# 5 0.000000 0.000000 0.000000 0.000000 0.050946 0.000000
# 6 0.000000 0.000000 0.000000 0.000000 0.000000 0.040299
#
#
# Mechanical properties :
#
#
# Convention : Reuss Voigt Hill
#
# Bulk Modulus (GPa) = 64.49135 71.54971 68.02053
# Shear Modulus (GPa) = 10.14873 17.71363 13.93118
#
# Velocity S-wave (km/s) = 2.47495 3.26975 2.89971
# Velocity P-wave (km/s) = 6.86234 7.57890 7.22951
#
# Compressibility (1/GPa) = 0.01550596
#
# Stress axis : x y z
#
# Youngs Moduli (GPa) = 52.33077 60.17542 44.54560
#
# Poissons Ratio (x) = 0.34956 0.21659
# Poissons Ratio (y) = 0.30399 0.47503
# Poissons Ratio (z) = 0.25444 0.64170
#
# Static dielectric constant tensor:
#      x y z
#    x 3.199910 0.000000 0.000000 
#    y 0.000000 3.036670 0.000000 
#    z 0.000000 0.000000 3.556870 
# 
# 
# High freq. dielectric constant tensor:
#      x y z
#    x 1.647490 0.000000 0.000000 
#    y 0.000000 1.618740 0.000000 
#    z 0.000000 0.000000 1.628040 
# 
# From -- ./inp_files/40963.got.cif
#   From: 2010.03.12/outbox.cif.g09.slc.cpg/sg67_21_cif.got.tgz:40963.got - 2010.04.10 22:41:39.
