data_PCOD8279548
_publ_section_title
;
Structure prediction by ZEFSAII (Michael W. Deem and Ramdas Pophale) SiO2 
 PCOD8279548
Probable space group: C M M A
;
_chemical_formula_sum "Si O2"
_cell_formula_units_Z 104
_cell_length_a 30.404455
_cell_length_b 8.702433
_cell_length_c 22.849358
_cell_angle_alpha 90.000000
_cell_angle_beta 90.000000
_cell_angle_gamma 90.000000
_cell_volume 6045.774070
_symmetry_space_group_name_H-M "C M M A"
_symmetry_group_IT_number 67
_symmetry_cell_setting 'orthorhombic'
loop_
_space_group_symop_operation_xyz
x,y,z
-x,1/2-y,z
x,-y,-z
-x,1/2+y,-z
-x,-y,-z
x,1/2+y,-z
-x,y,z
x,1/2-y,z
1/2+x,1/2+y,z
1/2-x,-y,z
1/2+x,1/2-y,-z
1/2-x,y,-z
1/2-x,1/2-y,-z
1/2+x,y,-z
1/2-x,1/2+y,z
1/2+x,-y,z
loop_
_atom_site_type_symbol
_atom_site_label
_atom_site_fract_x
_atom_site_fract_y
_atom_site_fract_z
Si Si1 0.294208 0.073200 0.315940
Si Si2 0.912998 0.070564 0.393372
Si Si3 0.171663 0.432291 0.559641
Si Si4 0.550912 0.430054 0.820523
Si Si5 0.948256 0.421225 0.942213
Si Si6 0.500000 0.430522 0.436711
Si Si7 0.387649 0.928712 0.724692
O O1 0.284426 0.250000 0.323577
O O2 0.303922 0.007178 0.381587
O O3 0.334667 0.045492 0.270646
O O4 0.250000 0.000000 0.289601
O O5 0.916092 0.250000 0.407281
O O6 0.878051 0.994240 0.437103
O O7 0.958702 0.987773 0.401188
O O8 0.902279 0.042844 0.325938
O O9 0.193534 0.500000 0.500000
O O10 0.171426 0.250000 0.556500
O O11 0.500000 0.475020 0.805929
O O12 0.558308 0.250000 0.810637
O O13 0.562759 0.472253 0.886938
O O14 0.585371 0.526482 0.782180
O O15 0.928234 0.250000 0.933862
O O16 0.000000 0.406879 0.950685
O O17 0.927425 0.500000 0.000000
O O18 0.500000 0.250000 0.441408
O O19 0.500000 0.500000 0.500000
O O20 0.396760 0.750000 0.708922
#
# Coordination Sequence:
#
# PCOD8279548 Si02
#       7
#    16  16  16  16  16   8  16
#     4   9  20  36  54  74  97 124 158 199 247 304
#     4  11  22  36  52  70  92 122 158 199 244 291
#     4  10  20  35  52  73  97 122 152 189 239 298
#     4  10  20  32  48  73 104 138 177 215 248 289
#     4   9  16  27  44  67  98 137 177 214 252 290
#     4  12  24  38  52  68  90 120 157 200 243 290
#     4  10  21  37  53  73 100 131 165 203 249 297
#
# _framework density 17.202099
#
# number of rings (size 3 to 8) (size 9 to 14) (size 15 to 20)
#    0.000    2.000    0.000    5.308    1.077    6.769 
#    0.000    1.538    0.000    0.000    0.000    0.000 
#    0.000    0.615    0.000    6.462    0.000    3.846 
#
# Total GULP energy -644619.349592 kJ/mol
# GULP energy per Si atom -12396.525954 kJ/mol
# Density = 1.716295 g / cm^3
# Si number density = 17.202099 Si / 1000 Ang^3
#
#
#
# Elastic Constant Matrix: (Units=GPa)
#
#
# Indices 1 2 3 4 5 6 
#
# 1 94.1640 34.8613 30.4759 0.0000 0.0000 0.0000
# 2 34.8613 90.1294 20.8923 0.0000 0.0000 0.0000
# 3 30.4759 20.8923 76.8344 0.0000 0.0000 0.0000
# 4 0.0000 0.0000 0.0000 30.8654 0.0000 0.0000
# 5 0.0000 0.0000 0.0000 0.0000 10.5396 0.0000
# 6 0.0000 0.0000 0.0000 0.0000 0.0000 24.3204
#
#
#
# Elastic Compliance Matrix: (Units=1/GPa)
#
#
# Indices 1 2 3 4 5 6 
#
# 1 0.013566 -0.004269 -0.004220 0.000000 0.000000 0.000000
# 2 -0.004269 0.013185 -0.001892 0.000000 0.000000 0.000000
# 3 -0.004220 -0.001892 0.015203 0.000000 0.000000 0.000000
# 4 0.000000 0.000000 0.000000 0.032399 0.000000 0.000000
# 5 0.000000 0.000000 0.000000 0.000000 0.094880 0.000000
# 6 0.000000 0.000000 0.000000 0.000000 0.000000 0.041118
#
#
# Mechanical properties :
#
#
# Convention : Reuss Voigt Hill
#
# Bulk Modulus (GPa) = 47.18691 48.17632 47.68162
# Shear Modulus (GPa) = 20.99277 24.80495 22.89886
#
# Velocity S-wave (km/s) = 3.49716 3.80145 3.65247
# Velocity P-wave (km/s) = 6.61795 6.88004 6.75027
#
# Compressibility (1/GPa) = 0.02119232
#
# Stress axis : x y z
#
# Youngs Moduli (GPa) = 73.71342 75.84425 65.77518
#
# Poissons Ratio (x) = 0.32378 0.27758
# Poissons Ratio (y) = 0.31468 0.12444
# Poissons Ratio (z) = 0.31108 0.14349
#
# Static dielectric constant tensor:
#      x y z
#    x 3.161800 0.000000 0.000000 
#    y 0.000000 3.308590 0.000000 
#    z 0.000000 0.000000 3.123350 
# 
# 
# High freq. dielectric constant tensor:
#      x y z
#    x 1.638470 0.000000 0.000000 
#    y 0.000000 1.680590 0.000000 
#    z 0.000000 0.000000 1.644900 
# 
# From -- ./inp_files/41141.got.cif
#   From: 2010.03.12/outbox.cif.g09.slc.cpg/sg67_21_cif.got.tgz:41141.got - 2010.04.10 22:41:39.
