data_PCOD8279343
_publ_section_title
;
Structure prediction by ZEFSAII (Michael W. Deem and Ramdas Pophale) SiO2 
 PCOD8279343
Probable space group: C M M A
;
_chemical_formula_sum "Si O2"
_cell_formula_units_Z 72
_cell_length_a 8.474724
_cell_length_b 15.259424
_cell_length_c 28.471541
_cell_angle_alpha 90.000000
_cell_angle_beta 90.000000
_cell_angle_gamma 90.000000
_cell_volume 3681.922793
_symmetry_space_group_name_H-M "C M M A"
_symmetry_group_IT_number 67
_symmetry_cell_setting 'orthorhombic'
loop_
_space_group_symop_operation_xyz
x,y,z
-x,1/2-y,z
x,-y,-z
-x,1/2+y,-z
-x,-y,-z
x,1/2+y,-z
-x,y,z
x,1/2-y,z
1/2+x,1/2+y,z
1/2-x,-y,z
1/2+x,1/2-y,-z
1/2-x,y,-z
1/2-x,1/2-y,-z
1/2+x,y,-z
1/2-x,1/2+y,z
1/2+x,-y,z
loop_
_atom_site_type_symbol
_atom_site_label
_atom_site_fract_x
_atom_site_fract_y
_atom_site_fract_z
Si Si1 0.186847 0.750000 0.552242
Si Si2 0.813075 0.094974 0.283677
Si Si3 0.187108 0.750000 0.115298
Si Si4 0.812353 0.250000 0.778069
Si Si5 0.813017 0.595431 0.385297
Si Si6 0.813073 0.406142 0.948996
O O1 0.250000 0.750000 0.500000
O O2 0.249870 0.836651 0.577061
O O3 0.000000 0.750000 0.552945
O O4 0.756863 0.163388 0.245219
O O5 0.745895 0.123962 0.333987
O O6 0.000000 0.092592 0.286883
O O7 0.750000 0.000000 0.268668
O O8 0.248595 0.750000 0.168461
O O9 0.250612 0.835989 0.088601
O O10 0.000000 0.750000 0.114532
O O11 0.000000 0.250000 0.773910
O O12 0.750000 0.500000 0.399254
O O13 0.000000 0.594678 0.385474
O O14 0.750000 0.500000 0.932570
O O15 0.000000 0.408725 0.951319
O O16 0.750000 0.379505 0.000000
#
# Coordination Sequence:
#
# PCOD8279343 Si02
#       6
#     8  16   8   8  16  16
#     4  12  25  42  61  88 122 159 197 240 289 345
#     4  11  22  39  61  88 116 150 193 240 286 339
#     4   9  21  37  55  78 111 147 183 224 277 333
#     4  11  22  39  58  82 116 154 189 234 287 342
#     4  11  22  40  64  91 118 153 195 241 290 342
#     4  10  19  35  56  81 107 140 181 227 275 328
#
# _framework density 19.555
#
# number of rings (size 3 to 8) (size 9 to 14) (size 15 to 20)
#    0.000    1.333    0.000    9.000    0.000    1.333 
#    0.000   10.556    0.000    0.000    0.000    0.000 
#    0.000    0.000    0.000    0.000    0.000    0.000 
#
# Total GULP energy -446559.628031 kJ/mol
# GULP energy per Si atom -12404.434112 kJ/mol
# Density = 1.951049 g / cm^3
# Si number density = 19.555000 Si / 1000 Ang^3
#
#
#
# Elastic Constant Matrix: (Units=GPa)
#
#
# Indices 1 2 3 4 5 6 
#
# 1 166.7775 61.5977 62.7349 0.0000 0.0000 0.0000
# 2 61.5977 163.8027 124.8463 0.0000 0.0000 0.0000
# 3 62.7349 124.8463 174.8982 0.0000 0.0000 0.0000
# 4 0.0000 0.0000 0.0000 -7.4817 0.0000 0.0000
# 5 0.0000 0.0000 0.0000 0.0000 27.9870 0.0000
# 6 0.0000 0.0000 0.0000 0.0000 0.0000 34.4037
#
#
#
# Elastic Compliance Matrix: (Units=1/GPa)
#
#
# Indices 1 2 3 4 5 6 
#
# 1 0.007118 -0.001603 -0.001409 0.000000 0.000000 0.000000
# 2 -0.001603 0.013750 -0.009241 0.000000 0.000000 0.000000
# 3 -0.001409 -0.009241 0.012819 0.000000 0.000000 0.000000
# 4 0.000000 0.000000 0.000000 -0.133659 0.000000 0.000000
# 5 0.000000 0.000000 0.000000 0.000000 0.035731 0.000000
# 6 0.000000 0.000000 0.000000 0.000000 0.000000 0.029067
#
#
# Mechanical properties :
#
#
# Convention : Reuss Voigt Hill
#
# Bulk Modulus (GPa) = 108.89787 111.53736 110.21761
# Shear Modulus (GPa) = -657.16002 28.06843 -314.54580
#
# Velocity S-wave (km/s) = -18.35175 3.79272 -12.69650
# Velocity P-wave (km/s) = 19.83029 8.73735 12.58767
#
# Compressibility (1/GPa) = 0.00918292
#
# Stress axis : x y z
#
# Youngs Moduli (GPa) = 140.48853 72.72466 78.00825
#
# Poissons Ratio (x) = 0.11656 0.10992
# Poissons Ratio (y) = 0.22516 0.72084
# Poissons Ratio (z) = 0.19797 0.67201
#
# Static dielectric constant tensor:
#      x y z
#    x 3.691310 0.000000 0.000000 
#    y 0.000000 3.795320 0.000000 
#    z 0.000000 0.000000 3.698870 
# 
# 
# High freq. dielectric constant tensor:
#      x y z
#    x 1.775640 0.000000 0.000000 
#    y 0.000000 1.779100 0.000000 
#    z 0.000000 0.000000 1.761210 
# 
# From -- ./inp_files/43126.got.cif
#   From: 2010.03.12/outbox.cif.g09.slc.cpg/sg67_22_cif.got.tgz:43126.got - 2010.04.10 22:41:39.
