data_PCOD8279153
_publ_section_title
;
Structure prediction by ZEFSAII (Michael W. Deem and Ramdas Pophale) SiO2 
 PCOD8279153
Probable space group: C M M A
;
_chemical_formula_sum "Si O2"
_cell_formula_units_Z 96
_cell_length_a 8.634426
_cell_length_b 18.596702
_cell_length_c 30.813458
_cell_angle_alpha 90.000000
_cell_angle_beta 90.000000
_cell_angle_gamma 90.000000
_cell_volume 4947.773872
_symmetry_space_group_name_H-M "C M M A"
_symmetry_group_IT_number 67
_symmetry_cell_setting 'orthorhombic'
loop_
_space_group_symop_operation_xyz
x,y,z
-x,1/2-y,z
x,-y,-z
-x,1/2+y,-z
-x,-y,-z
x,1/2+y,-z
-x,y,z
x,1/2-y,z
1/2+x,1/2+y,z
1/2-x,-y,z
1/2+x,1/2-y,-z
1/2-x,y,-z
1/2-x,1/2-y,-z
1/2+x,y,-z
1/2-x,1/2+y,z
1/2+x,-y,z
loop_
_atom_site_type_symbol
_atom_site_label
_atom_site_fract_x
_atom_site_fract_y
_atom_site_fract_z
Si Si1 0.815959 0.830662 0.627079
Si Si2 0.183744 0.077902 0.454397
Si Si3 0.816821 0.420730 0.291285
Si Si4 0.318118 0.166689 0.212535
Si Si5 0.324058 0.165151 0.878484
Si Si6 0.682319 0.423056 0.045788
O O1 0.747502 0.750000 0.629321
O O2 0.759735 0.867252 0.582548
O O3 0.751521 0.876037 0.667699
O O4 0.000000 0.828345 0.628732
O O5 0.250000 0.106374 0.500000
O O6 0.000000 0.072642 0.457266
O O7 0.250000 0.000000 0.442788
O O8 0.750000 0.500000 0.293120
O O9 0.766110 0.381106 0.247916
O O10 0.000000 0.425620 0.292663
O O11 0.500000 0.152872 0.214364
O O12 0.276640 0.250000 0.220883
O O13 0.254818 0.140632 0.166225
O O14 0.500000 0.136437 0.879700
O O15 0.318403 0.250000 0.883195
O O16 0.226076 0.133877 0.917824
O O17 0.500000 0.429383 0.041310
O O18 0.750000 0.500000 0.059115
O O19 0.750000 0.396287 0.000000
#
# Coordination Sequence:
#
# PCOD8279153 Si02
#       6
#    16  16  16  16  16  16
#     4   9  19  35  55  79 107 141 180 223 273 327
#     4  10  19  33  54  78 107 141 178 221 268 321
#     4  11  22  37  58  82 110 144 184 227 273 327
#     4  10  21  38  59  84 114 145 180 225 276 329
#     4  10  21  38  60  86 115 148 187 229 276 331
#     4  11  22  38  59  83 114 150 190 234 282 333
#
# _framework density 19.402664999999999
#
# number of rings (size 3 to 8) (size 9 to 14) (size 15 to 20)
#    0.000    1.833    0.000    5.500    0.000    4.000 
#    0.000    5.833    0.000    5.500    0.000    0.000 
#    0.000    0.000    0.000    0.000    0.000    0.000 
#
# Total GULP energy -595381.513796 kJ/mol
# GULP energy per Si atom -12403.781537 kJ/mol
# Density = 1.935850 g / cm^3
# Si number density = 19.402665 Si / 1000 Ang^3
#
#
#
# Elastic Constant Matrix: (Units=GPa)
#
#
# Indices 1 2 3 4 5 6 
#
# 1 100.9667 37.4847 42.5980 0.0000 0.0000 0.0000
# 2 37.4847 100.4074 80.2003 0.0000 0.0000 0.0000
# 3 42.5980 80.2003 158.6151 0.0000 0.0000 0.0000
# 4 0.0000 0.0000 0.0000 54.6752 0.0000 0.0000
# 5 0.0000 0.0000 0.0000 0.0000 25.9999 0.0000
# 6 0.0000 0.0000 0.0000 0.0000 0.0000 14.2491
#
#
#
# Elastic Compliance Matrix: (Units=1/GPa)
#
#
# Indices 1 2 3 4 5 6 
#
# 1 0.011726 -0.003124 -0.001570 0.000000 0.000000 0.000000
# 2 -0.003124 0.017539 -0.008029 0.000000 0.000000 0.000000
# 3 -0.001570 -0.008029 0.010786 0.000000 0.000000 0.000000
# 4 0.000000 0.000000 0.000000 0.018290 0.000000 0.000000
# 5 0.000000 0.000000 0.000000 0.000000 0.038462 0.000000
# 6 0.000000 0.000000 0.000000 0.000000 0.000000 0.070180
#
#
# Mechanical properties :
#
#
# Convention : Reuss Voigt Hill
#
# Bulk Modulus (GPa) = 68.46737 75.61724 72.04231
# Shear Modulus (GPa) = 25.34248 32.29858 28.82053
#
# Velocity S-wave (km/s) = 3.61797 4.08443 3.85826
# Velocity P-wave (km/s) = 7.26754 7.82948 7.55374
#
# Compressibility (1/GPa) = 0.01460550
#
# Stress axis : x y z
#
# Youngs Moduli (GPa) = 85.27842 57.01565 92.71321
#
# Poissons Ratio (x) = 0.17811 0.14553
# Poissons Ratio (y) = 0.26641 0.74442
# Poissons Ratio (z) = 0.13386 0.45779
#
# Static dielectric constant tensor:
#      x y z
#    x 3.555590 0.000000 0.000000 
#    y 0.000000 3.553470 0.000000 
#    z 0.000000 0.000000 3.751090 
# 
# 
# High freq. dielectric constant tensor:
#      x y z
#    x 1.756640 0.000000 0.000000 
#    y 0.000000 1.753990 0.000000 
#    z 0.000000 0.000000 1.771850 
# 
# From -- ./inp_files/43419.got.cif
#   From: 2010.03.12/outbox.cif.g09.slc.cpg/sg67_22_cif.got.tgz:43419.got - 2010.04.10 22:41:39.
