data_PCOD8279079
_publ_section_title
;
Structure prediction by ZEFSAII (Michael W. Deem and Ramdas Pophale) SiO2 
 PCOD8279079
Probable space group: C M M A
;
_chemical_formula_sum "Si O2"
_cell_formula_units_Z 104
_cell_length_a 8.795239
_cell_length_b 27.869643
_cell_length_c 23.475410
_cell_angle_alpha 90.000000
_cell_angle_beta 90.000000
_cell_angle_gamma 90.000000
_cell_volume 5754.296514
_symmetry_space_group_name_H-M "C M M A"
_symmetry_group_IT_number 67
_symmetry_cell_setting 'orthorhombic'
loop_
_space_group_symop_operation_xyz
x,y,z
-x,1/2-y,z
x,-y,-z
-x,1/2+y,-z
-x,-y,-z
x,1/2+y,-z
-x,y,z
x,1/2-y,z
1/2+x,1/2+y,z
1/2-x,-y,z
1/2+x,1/2-y,-z
1/2-x,y,-z
1/2-x,1/2-y,-z
1/2+x,y,-z
1/2-x,1/2+y,z
1/2+x,-y,z
loop_
_atom_site_type_symbol
_atom_site_label
_atom_site_fract_x
_atom_site_fract_y
_atom_site_fract_z
Si Si1 0.819523 0.694612 0.264316
Si Si2 0.819761 0.049883 0.438374
Si Si3 0.167898 0.617482 0.352690
Si Si4 0.321618 0.146352 0.062376
Si Si5 0.172753 0.250000 0.940943
Si Si6 0.168924 0.451272 0.752082
Si Si7 0.678359 0.125119 0.825455
O O1 0.766479 0.750000 0.268788
O O2 0.768462 0.666176 0.322067
O O3 0.749638 0.670544 0.207888
O O4 0.000000 0.690335 0.257661
O O5 0.750000 0.059604 0.500000
O O6 0.780557 0.096800 0.400591
O O7 0.000000 0.044173 0.442121
O O8 0.750000 0.000000 0.413494
O O9 0.151776 0.577300 0.305568
O O10 0.000000 0.627354 0.379237
O O11 0.500000 0.134880 0.058230
O O12 0.287525 0.199847 0.089180
O O13 0.241288 0.115268 0.110699
O O14 0.250000 0.138051 0.000000
O O15 0.000000 0.250000 0.957859
O O16 0.250000 0.250000 0.000000
O O17 0.250000 0.500000 0.736010
O O18 0.279201 0.424096 0.795125
O O19 0.000000 0.458836 0.778567
O O20 0.500000 0.132958 0.827571
#
# Coordination Sequence:
#
# PCOD8279079 Si02
#       7
#    16  16  16  16   8  16  16
#     4   9  19  36  56  76 102 138 176 216 262 308
#     4  11  21  33  51  76 108 142 175 213 257 306
#     4   9  18  33  53  78 106 136 172 210 255 308
#     4  10  19  33  50  71  98 132 169 209 256 309
#     4   8  16  28  44  64  88 120 156 194 237 288
#     4  10  20  35  55  78 104 135 169 212 259 307
#     4  11  22  34  50  76 105 136 172 211 255 307
#
# _framework density 18.073452
#
# number of rings (size 3 to 8) (size 9 to 14) (size 15 to 20)
#    0.000    2.154    0.000    5.538    1.077    5.231 
#    0.000    0.000    0.000    0.923    0.000    3.231 
#    0.000    0.000    0.000    0.000    0.000    0.000 
#
# Total GULP energy -644286.866974 kJ/mol
# GULP energy per Si atom -12390.132057 kJ/mol
# Density = 1.803232 g / cm^3
# Si number density = 18.073452 Si / 1000 Ang^3
#
#
#
# Elastic Constant Matrix: (Units=GPa)
#
#
# Indices 1 2 3 4 5 6 
#
# 1 99.8749 25.1788 39.1078 0.0000 0.0000 0.0000
# 2 25.1788 75.4713 19.5542 0.0000 0.0000 0.0000
# 3 39.1078 19.5542 77.1867 0.0000 0.0000 0.0000
# 4 0.0000 0.0000 0.0000 -1.9059 0.0000 0.0000
# 5 0.0000 0.0000 0.0000 0.0000 28.9970 0.0000
# 6 0.0000 0.0000 0.0000 0.0000 0.0000 22.4036
#
#
#
# Elastic Compliance Matrix: (Units=1/GPa)
#
#
# Indices 1 2 3 4 5 6 
#
# 1 0.013029 -0.002822 -0.005886 0.000000 0.000000 0.000000
# 2 -0.002822 0.014792 -0.002318 0.000000 0.000000 0.000000
# 3 -0.005886 -0.002318 0.016525 0.000000 0.000000 0.000000
# 4 0.000000 0.000000 0.000000 -0.524697 0.000000 0.000000
# 5 0.000000 0.000000 0.000000 0.000000 0.034486 0.000000
# 6 0.000000 0.000000 0.000000 0.000000 0.000000 0.044636
#
#
# Mechanical properties :
#
#
# Convention : Reuss Voigt Hill
#
# Bulk Modulus (GPa) = 44.85415 46.69049 45.77232
# Shear Modulus (GPa) = -13.45003 21.14509 3.84753
#
# Velocity S-wave (km/s) = -2.73094 3.42417 1.46063
# Velocity P-wave (km/s) = 3.86362 6.44384 5.31275
#
# Compressibility (1/GPa) = 0.02229448
#
# Stress axis : x y z
#
# Youngs Moduli (GPa) = 76.75324 67.60453 60.51364
#
# Poissons Ratio (x) = 0.19075 0.35621
# Poissons Ratio (y) = 0.21656 0.14026
# Poissons Ratio (z) = 0.45180 0.15669
#
# Static dielectric constant tensor:
#      x y z
#    x 3.456900 0.000000 0.000000 
#    y 0.000000 3.586480 0.000000 
#    z 0.000000 0.000000 3.312540 
# 
# 
# High freq. dielectric constant tensor:
#      x y z
#    x 1.707640 0.000000 0.000000 
#    y 0.000000 1.683660 0.000000 
#    z 0.000000 0.000000 1.688060 
# 
# From -- ./inp_files/41012.got.cif
#   From: 2010.03.12/outbox.cif.g09.slc.cpg/sg67_21_cif.got.tgz:41012.got - 2010.04.10 22:41:39.
