data_PCOD8279865
_publ_section_title
;
Structure prediction by ZEFSAII (Michael W. Deem and Ramdas Pophale) SiO2 
 PCOD8279865
Probable space group: C M M A
;
_chemical_formula_sum "Si O2"
_cell_formula_units_Z 88
_cell_length_a 15.967312
_cell_length_b 8.980536
_cell_length_c 29.995623
_cell_angle_alpha 90.000000
_cell_angle_beta 90.000000
_cell_angle_gamma 90.000000
_cell_volume 4301.222967
_symmetry_space_group_name_H-M "C M M A"
_symmetry_group_IT_number 67
_symmetry_cell_setting 'orthorhombic'
loop_
_space_group_symop_operation_xyz
x,y,z
-x,1/2-y,z
x,-y,-z
-x,1/2+y,-z
-x,-y,-z
x,1/2+y,-z
-x,y,z
x,1/2-y,z
1/2+x,1/2+y,z
1/2-x,-y,z
1/2+x,1/2-y,-z
1/2-x,y,-z
1/2-x,1/2-y,-z
1/2+x,y,-z
1/2-x,1/2+y,z
1/2+x,-y,z
loop_
_atom_site_type_symbol
_atom_site_label
_atom_site_fract_x
_atom_site_fract_y
_atom_site_fract_z
Si Si1 0.100054 0.417549 0.544061
Si Si2 0.835912 0.926054 0.102091
Si Si3 0.000000 0.426316 0.952240
Si Si4 0.837284 0.427084 0.711184
Si Si5 0.093548 0.073176 0.805124
Si Si6 0.903990 0.085938 0.370578
O O1 0.133335 0.500000 0.500000
O O2 0.135149 0.250000 0.544097
O O3 0.137826 0.501667 0.587424
O O4 0.000000 0.416086 0.545147
O O5 0.825292 0.750000 0.098885
O O6 0.851330 0.980112 0.152902
O O7 0.916045 0.979003 0.073377
O O8 0.750000 0.000000 0.084232
O O9 0.000000 0.250000 0.957017
O O10 0.000000 0.500000 0.000000
O O11 0.833046 0.250000 0.710208
O O12 0.750000 0.500000 0.698723
O O13 0.865757 0.486633 0.759611
O O14 0.900287 0.485633 0.673788
O O15 0.088350 0.250000 0.804670
O O16 0.000000 0.007280 0.809587
O O17 0.862285 0.250000 0.363832
O O18 0.000000 0.109218 0.382400
#
# Coordination Sequence:
#
# PCOD8279865 Si02
#       6
#    16  16   8  16  16  16
#     4   9  16  27  46  73 103 134 172 219 272 329
#     4  10  20  37  61  88 119 157 200 247 300 356
#     4  10  22  40  62  86 120 162 204 250 301 358
#     4  11  22  35  53  77 107 143 183 226 275 334
#     4   9  17  33  58  84 111 146 189 233 283 344
#     4  10  20  34  52  75 105 139 177 224 275 328
#
# _framework density 20.459296999999999
#
# number of rings (size 3 to 8) (size 9 to 14) (size 15 to 20)
#    0.000    2.182    0.909    2.727    0.000    5.091 
#    0.000    2.727    0.000    2.727    0.000    3.818 
#    0.000    0.000    0.000    0.000    0.000    0.000 
#
# Total GULP energy -545544.819013 kJ/mol
# GULP energy per Si atom -12398.745887 kJ/mol
# Density = 2.041273 g / cm^3
# Si number density = 20.459297 Si / 1000 Ang^3
#
#
#
# Elastic Constant Matrix: (Units=GPa)
#
#
# Indices 1 2 3 4 5 6 
#
# 1 89.7663 32.3822 39.9043 0.0000 0.0000 0.0000
# 2 32.3822 95.0903 55.9651 0.0000 0.0000 0.0000
# 3 39.9043 55.9651 171.4507 0.0000 0.0000 0.0000
# 4 0.0000 0.0000 0.0000 33.7883 0.0000 0.0000
# 5 0.0000 0.0000 0.0000 0.0000 6.1154 0.0000
# 6 0.0000 0.0000 0.0000 0.0000 0.0000 24.9522
#
#
#
# Elastic Compliance Matrix: (Units=1/GPa)
#
#
# Indices 1 2 3 4 5 6 
#
# 1 0.013227 -0.003333 -0.001991 0.000000 0.000000 0.000000
# 2 -0.003333 0.013857 -0.003747 0.000000 0.000000 0.000000
# 3 -0.001991 -0.003747 0.007519 0.000000 0.000000 0.000000
# 4 0.000000 0.000000 0.000000 0.029596 0.000000 0.000000
# 5 0.000000 0.000000 0.000000 0.000000 0.163522 0.000000
# 6 0.000000 0.000000 0.000000 0.000000 0.000000 0.040077
#
#
# Mechanical properties :
#
#
# Convention : Reuss Voigt Hill
#
# Bulk Modulus (GPa) = 60.74850 68.09006 64.41928
# Shear Modulus (GPa) = 17.15699 28.17491 22.66595
#
# Velocity S-wave (km/s) = 2.89899 3.71498 3.33206
# Velocity P-wave (km/s) = 6.40018 7.19406 6.80870
#
# Compressibility (1/GPa) = 0.01646131
#
# Stress axis : x y z
#
# Youngs Moduli (GPa) = 75.60160 72.16655 132.99378
#
# Poissons Ratio (x) = 0.24052 0.26475
# Poissons Ratio (y) = 0.25197 0.49839
# Poissons Ratio (z) = 0.15050 0.27044
#
# Static dielectric constant tensor:
#      x y z
#    x 3.492260 0.000000 0.000000 
#    y 0.000000 3.614060 0.000000 
#    z 0.000000 0.000000 3.857280 
# 
# 
# High freq. dielectric constant tensor:
#      x y z
#    x 1.782810 0.000000 0.000000 
#    y 0.000000 1.783970 0.000000 
#    z 0.000000 0.000000 1.808890 
# 
# From -- ./inp_files/45816.got.cif
#   From: 2010.03.12/outbox.cif.g09.slc.cpg/sg67_23_cif.got.tgz:45816.got - 2010.04.10 22:41:39.
