data_PCOD8279352
_publ_section_title
;
Structure prediction by ZEFSAII (Michael W. Deem and Ramdas Pophale) SiO2 
 PCOD8279352
Probable space group: C M M A
;
_chemical_formula_sum "Si O2"
_cell_formula_units_Z 96
_cell_length_a 8.815303
_cell_length_b 28.619759
_cell_length_c 20.531337
_cell_angle_alpha 90.000000
_cell_angle_beta 90.000000
_cell_angle_gamma 90.000000
_cell_volume 5179.888941
_symmetry_space_group_name_H-M "C M M A"
_symmetry_group_IT_number 67
_symmetry_cell_setting 'orthorhombic'
loop_
_space_group_symop_operation_xyz
x,y,z
-x,1/2-y,z
x,-y,-z
-x,1/2+y,-z
-x,-y,-z
x,1/2+y,-z
-x,y,z
x,1/2-y,z
1/2+x,1/2+y,z
1/2-x,-y,z
1/2+x,1/2-y,-z
1/2-x,y,-z
1/2-x,1/2-y,-z
1/2+x,y,-z
1/2-x,1/2+y,z
1/2+x,-y,z
loop_
_atom_site_type_symbol
_atom_site_label
_atom_site_fract_x
_atom_site_fract_y
_atom_site_fract_z
Si Si1 0.676188 0.302971 0.879876
Si Si2 0.820668 0.450943 0.431289
Si Si3 0.172575 0.697946 0.255330
Si Si4 0.821189 0.391149 0.933823
Si Si5 0.678589 0.949450 0.810227
Si Si6 0.824675 0.104618 0.680109
O O1 0.500000 0.313645 0.889590
O O2 0.717430 0.250000 0.900126
O O3 0.716510 0.311329 0.804568
O O4 0.771073 0.337428 0.925498
O O5 0.750000 0.500000 0.407825
O O6 0.750000 0.435624 0.500000
O O7 0.781053 0.411740 0.378647
O O8 0.000000 0.456326 0.438470
O O9 0.197112 0.750000 0.284477
O O10 0.204417 0.660104 0.311619
O O11 0.000000 0.691483 0.229489
O O12 0.759967 0.421785 0.873351
O O13 0.000000 0.393558 0.939231
O O14 0.750000 0.411780 0.000000
O O15 0.500000 0.954819 0.814513
O O16 0.726460 0.921120 0.746089
O O17 0.750000 0.000000 0.807405
O O18 0.000000 0.093785 0.663723
#
# Coordination Sequence:
#
# PCOD8279352 Si02
#       6
#    16  16  16  16  16  16
#     4  10  20  34  54  81 110 140 177 222 273 329
#     4  11  22  37  57  84 116 153 188 227 274 324
#     4   9  17  32  56  83 113 148 182 221 270 322
#     4  11  23  40  57  77 104 141 183 227 279 333
#     4  10  22  38  56  79 107 140 180 226 274 325
#     4  10  19  35  57  85 116 146 183 226 270 324
#
# _framework density 18.533215999999999
#
# number of rings (size 3 to 8) (size 9 to 14) (size 15 to 20)
#    0.000    1.833    1.667    3.500    0.000    5.667 
#    0.000    1.667    0.000    0.500    0.000    0.000 
#    0.000    0.000    0.000    0.000    0.000    0.000 
#
# Total GULP energy -595329.351949 kJ/mol
# GULP energy per Si atom -12402.694832 kJ/mol
# Density = 1.849103 g / cm^3
# Si number density = 18.533216 Si / 1000 Ang^3
#
#
#
# Elastic Constant Matrix: (Units=GPa)
#
#
# Indices 1 2 3 4 5 6 
#
# 1 73.3962 35.0799 39.1383 0.0000 0.0000 0.0000
# 2 35.0799 114.5329 55.8965 0.0000 0.0000 0.0000
# 3 39.1383 55.8965 107.1004 0.0000 0.0000 0.0000
# 4 0.0000 0.0000 0.0000 29.4790 0.0000 0.0000
# 5 0.0000 0.0000 0.0000 0.0000 31.1711 0.0000
# 6 0.0000 0.0000 0.0000 0.0000 0.0000 27.8987
#
#
#
# Elastic Compliance Matrix: (Units=1/GPa)
#
#
# Indices 1 2 3 4 5 6 
#
# 1 0.017675 -0.003034 -0.004875 0.000000 0.000000 0.000000
# 2 -0.003034 0.012236 -0.005277 0.000000 0.000000 0.000000
# 3 -0.004875 -0.005277 0.013873 0.000000 0.000000 0.000000
# 4 0.000000 0.000000 0.000000 0.033922 0.000000 0.000000
# 5 0.000000 0.000000 0.000000 0.000000 0.032081 0.000000
# 6 0.000000 0.000000 0.000000 0.000000 0.000000 0.035844
#
#
# Mechanical properties :
#
#
# Convention : Reuss Voigt Hill
#
# Bulk Modulus (GPa) = 57.43848 61.69544 59.56696
# Shear Modulus (GPa) = 28.12027 28.70409 28.41218
#
# Velocity S-wave (km/s) = 3.89947 3.93974 3.91965
# Velocity P-wave (km/s) = 7.16477 7.35233 7.25916
#
# Compressibility (1/GPa) = 0.01740993
#
# Stress axis : x y z
#
# Youngs Moduli (GPa) = 56.57823 81.72653 72.08290
#
# Poissons Ratio (x) = 0.24797 0.35143
# Poissons Ratio (y) = 0.17167 0.38040
# Poissons Ratio (z) = 0.27584 0.43129
#
# Static dielectric constant tensor:
#      x y z
#    x 3.377640 0.000000 0.000000 
#    y 0.000000 2.920280 0.000000 
#    z 0.000000 0.000000 3.306840 
# 
# 
# High freq. dielectric constant tensor:
#      x y z
#    x 1.720110 0.000000 0.000000 
#    y 0.000000 1.722560 0.000000 
#    z 0.000000 0.000000 1.703200 
# 
# From -- ./inp_files/37147.got.cif
#   From: 2010.03.12/outbox.cif.g09.slc.cpg/sg67_19_cif.got.tgz:37147.got - 2010.04.10 22:41:39.
