data_PCOD8279310
_publ_section_title
;
Structure prediction by ZEFSAII (Michael W. Deem and Ramdas Pophale) SiO2 
 PCOD8279310
Probable space group: C M M A
;
_chemical_formula_sum "Si O2"
_cell_formula_units_Z 64
_cell_length_a 15.496100
_cell_length_b 15.521356
_cell_length_c 11.734147
_cell_angle_alpha 90.000000
_cell_angle_beta 90.000000
_cell_angle_gamma 90.000000
_cell_volume 2822.302724
_symmetry_space_group_name_H-M "C M M A"
_symmetry_group_IT_number 67
_symmetry_cell_setting 'orthorhombic'
loop_
_space_group_symop_operation_xyz
x,y,z
-x,1/2-y,z
x,-y,-z
-x,1/2+y,-z
-x,-y,-z
x,1/2+y,-z
-x,y,z
x,1/2-y,z
1/2+x,1/2+y,z
1/2-x,-y,z
1/2+x,1/2-y,-z
1/2-x,y,-z
1/2-x,1/2-y,-z
1/2+x,y,-z
1/2-x,1/2+y,z
1/2+x,-y,z
loop_
_atom_site_type_symbol
_atom_site_label
_atom_site_fract_x
_atom_site_fract_y
_atom_site_fract_z
Si Si1 0.595759 0.750000 0.838868
Si Si2 0.161777 0.250000 0.072023
Si Si3 0.101429 0.653115 0.511316
Si Si4 0.397172 0.417140 0.278648
Si Si5 0.102915 0.606742 0.760016
O O1 0.500000 0.750000 0.786679
O O2 0.642471 0.837237 0.793775
O O3 0.588500 0.750000 0.975432
O O4 0.152475 0.335287 0.148328
O O5 0.250000 0.250000 0.000000
O O6 0.127295 0.750000 0.476736
O O7 0.135417 0.590621 0.410197
O O8 0.139589 0.630442 0.634875
O O9 0.000000 0.642306 0.523241
O O10 0.500000 0.413466 0.277620
O O11 0.369367 0.507240 0.221099
O O12 0.000000 0.622264 0.771081
#
# Coordination Sequence:
#
# PCOD8279310 Si02
#       5
#     8   8  16  16  16
#     4  10  20  37  58  81 112 149 192 241 290 350
#     4  12  26  41  54  74 108 157 209 252 289 334
#     4   9  14  25  51  89 126 150 173 224 295 359
#     4   9  17  30  55  90 121 146 181 232 292 350
#     4  10  19  34  58  87 117 152 193 241 293 352
#
# _framework density 22.67652
#
# number of rings (size 3 to 8) (size 9 to 14) (size 15 to 20)
#    0.000    2.250    2.500    1.875    0.000    4.000 
#    0.000    6.250    0.000    3.000    0.000    3.500 
#    0.000    0.000    0.000    0.000    0.000    4.000 
#
# Total GULP energy -396521.336543 kJ/mol
# GULP energy per Si atom -12391.291767 kJ/mol
# Density = 2.262491 g / cm^3
# Si number density = 22.676520 Si / 1000 Ang^3
#
#
#
# Elastic Constant Matrix: (Units=GPa)
#
#
# Indices 1 2 3 4 5 6 
#
# 1 36.5212 27.7661 18.9010 0.0000 0.0000 0.0000
# 2 27.7661 189.0196 116.8659 0.0000 0.0000 0.0000
# 3 18.9010 116.8659 177.6698 0.0000 0.0000 0.0000
# 4 0.0000 0.0000 0.0000 36.3977 0.0000 0.0000
# 5 0.0000 0.0000 0.0000 0.0000 12.3559 0.0000
# 6 0.0000 0.0000 0.0000 0.0000 0.0000 4.4117
#
#
#
# Elastic Compliance Matrix: (Units=1/GPa)
#
#
# Indices 1 2 3 4 5 6 
#
# 1 0.030851 -0.004218 -0.000507 0.000000 0.000000 0.000000
# 2 -0.004218 0.009493 -0.005796 0.000000 0.000000 0.000000
# 3 -0.000507 -0.005796 0.009495 0.000000 0.000000 0.000000
# 4 0.000000 0.000000 0.000000 0.027474 0.000000 0.000000
# 5 0.000000 0.000000 0.000000 0.000000 0.080933 0.000000
# 6 0.000000 0.000000 0.000000 0.000000 0.000000 0.226668
#
#
# Mechanical properties :
#
#
# Convention : Reuss Voigt Hill
#
# Bulk Modulus (GPa) = 34.72665 81.14188 57.93426
# Shear Modulus (GPa) = 12.03208 26.61157 19.32182
#
# Velocity S-wave (km/s) = 2.30597 3.42940 2.92218
# Velocity P-wave (km/s) = 4.73679 7.17921 6.08187
#
# Compressibility (1/GPa) = 0.02879633
#
# Stress axis : x y z
#
# Youngs Moduli (GPa) = 32.41400 105.33570 105.32192
#
# Poissons Ratio (x) = 0.44432 0.05345
# Poissons Ratio (y) = 0.13673 0.61042
# Poissons Ratio (z) = 0.01645 0.61050
#
# Static dielectric constant tensor:
#      x y z
#    x 3.406390 0.000000 0.000000 
#    y 0.000000 4.435460 0.000000 
#    z 0.000000 0.000000 4.313050 
# 
# 
# High freq. dielectric constant tensor:
#      x y z
#    x 1.835080 0.000000 0.000000 
#    y 0.000000 1.907580 0.000000 
#    z 0.000000 0.000000 1.897000 
# 
# From -- ./inp_files/17566.got.cif
#   From: 2010.03.12/outbox.cif.g09.slc.cpg/sg67_9_cif.got.tgz:17566.got - 2010.04.10 22:41:39.
