data_PCOD8279628
_publ_section_title
;
Structure prediction by ZEFSAII (Michael W. Deem and Ramdas Pophale) SiO2 
 PCOD8279628
Probable space group: C M M A
;
_chemical_formula_sum "Si O2"
_cell_formula_units_Z 96
_cell_length_a 19.727440
_cell_length_b 8.992976
_cell_length_c 30.454138
_cell_angle_alpha 90.000000
_cell_angle_beta 90.000000
_cell_angle_gamma 90.000000
_cell_volume 5402.819727
_symmetry_space_group_name_H-M "C M M A"
_symmetry_group_IT_number 67
_symmetry_cell_setting 'orthorhombic'
loop_
_space_group_symop_operation_xyz
x,y,z
-x,1/2-y,z
x,-y,-z
-x,1/2+y,-z
-x,-y,-z
x,1/2+y,-z
-x,y,z
x,1/2-y,z
1/2+x,1/2+y,z
1/2-x,-y,z
1/2+x,1/2-y,-z
1/2-x,y,-z
1/2-x,1/2-y,-z
1/2+x,y,-z
1/2-x,1/2+y,z
1/2+x,-y,z
loop_
_atom_site_type_symbol
_atom_site_label
_atom_site_fract_x
_atom_site_fract_y
_atom_site_fract_z
Si Si1 0.419143 0.581953 0.043364
Si Si2 0.080564 0.917578 0.129553
Si Si3 0.079615 0.576766 0.782157
Si Si4 0.923103 0.425178 0.544242
Si Si5 0.320041 0.074303 0.283195
Si Si6 0.318378 0.076021 0.383730
O O1 0.500000 0.581568 0.043728
O O2 0.391427 0.750000 0.043801
O O3 0.390474 0.496388 0.085950
O O4 0.391524 0.500000 0.000000
O O5 0.109363 0.750000 0.132356
O O6 0.000000 0.914857 0.127459
O O7 0.105067 0.010419 0.171624
O O8 0.097837 0.750000 0.781181
O O9 0.117415 0.491593 0.743467
O O10 0.000000 0.549115 0.775498
O O11 0.894731 0.500000 0.500000
O O12 0.917883 0.250000 0.538095
O O13 0.879537 0.480574 0.585717
O O14 0.000000 0.476616 0.553203
O O15 0.315241 0.250000 0.275725
O O16 0.334700 0.031936 0.333687
O O17 0.250000 0.000000 0.267245
O O18 0.307517 0.250000 0.388340
O O19 0.250000 0.000000 0.400468
#
# Coordination Sequence:
#
# PCOD8279628 Si02
#       6
#    16  16  16  16  16  16
#     4   9  15  22  33  51  78 114 154 194 238 289
#     4   9  16  26  40  59  85 118 156 197 241 290
#     4  10  20  33  49  71  99 129 162 202 247 295
#     4   9  18  33  51  72  99 130 163 198 237 281
#     4  10  20  35  54  74  98 129 164 203 248 296
#     4   9  19  34  52  73  97 126 159 198 241 286
#
# _framework density 17.7685
#
# number of rings (size 3 to 8) (size 9 to 14) (size 15 to 20)
#    0.000    2.667    0.000    2.000    0.000    7.333 
#    0.000    3.333    0.000    2.000    0.000    0.000 
#    0.000    0.667    0.000    6.667    0.000   10.333 
#
# Total GULP energy -595240.866040 kJ/mol
# GULP energy per Si atom -12400.851376 kJ/mol
# Density = 1.772806 g / cm^3
# Si number density = 17.768500 Si / 1000 Ang^3
#
#
#
# Elastic Constant Matrix: (Units=GPa)
#
#
# Indices 1 2 3 4 5 6 
#
# 1 56.4208 37.0776 58.2901 0.0000 0.0000 0.0000
# 2 37.0776 103.7500 58.9413 0.0000 0.0000 0.0000
# 3 58.2901 58.9413 133.7831 0.0000 0.0000 0.0000
# 4 0.0000 0.0000 0.0000 35.4304 0.0000 0.0000
# 5 0.0000 0.0000 0.0000 0.0000 4.3074 0.0000
# 6 0.0000 0.0000 0.0000 0.0000 0.0000 23.2277
#
#
#
# Elastic Compliance Matrix: (Units=1/GPa)
#
#
# Indices 1 2 3 4 5 6 
#
# 1 0.034067 -0.004991 -0.012644 0.000000 0.000000 0.000000
# 2 -0.004991 0.013588 -0.003812 0.000000 0.000000 0.000000
# 3 -0.012644 -0.003812 0.014663 0.000000 0.000000 0.000000
# 4 0.000000 0.000000 0.000000 0.028224 0.000000 0.000000
# 5 0.000000 0.000000 0.000000 0.000000 0.232160 0.000000
# 6 0.000000 0.000000 0.000000 0.000000 0.000000 0.043052
#
#
# Mechanical properties :
#
#
# Convention : Reuss Voigt Hill
#
# Bulk Modulus (GPa) = 51.48340 66.95240 59.21790
# Shear Modulus (GPa) = 12.04461 21.90275 16.97368
#
# Velocity S-wave (km/s) = 2.60640 3.51475 3.09409
# Velocity P-wave (km/s) = 6.17213 7.36434 6.79444
#
# Compressibility (1/GPa) = 0.01942374
#
# Stress axis : x y z
#
# Youngs Moduli (GPa) = 29.35366 73.59546 68.19782
#
# Poissons Ratio (x) = 0.36735 0.86231
# Poissons Ratio (y) = 0.14652 0.25994
# Poissons Ratio (z) = 0.37115 0.28052
#
# Static dielectric constant tensor:
#      x y z
#    x 2.971020 0.000000 0.000000 
#    y 0.000000 3.408830 0.000000 
#    z 0.000000 0.000000 3.490490 
# 
# 
# High freq. dielectric constant tensor:
#      x y z
#    x 1.640960 0.000000 0.000000 
#    y 0.000000 1.699280 0.000000 
#    z 0.000000 0.000000 1.698180 
# 
# From -- ./inp_files/43427.got.cif
#   From: 2010.03.12/outbox.cif.g09.slc.cpg/sg67_22_cif.got.tgz:43427.got - 2010.04.10 22:41:39.
