data_PCOD8279924
_publ_section_title
;
Structure prediction by ZEFSAII (Michael W. Deem and Ramdas Pophale) SiO2 
 PCOD8279924
Probable space group: C M M A
;
_chemical_formula_sum "Si O2"
_cell_formula_units_Z 80
_cell_length_a 17.974903
_cell_length_b 16.390209
_cell_length_c 13.565059
_cell_angle_alpha 90.000000
_cell_angle_beta 90.000000
_cell_angle_gamma 90.000000
_cell_volume 3996.434818
_symmetry_space_group_name_H-M "C M M A"
_symmetry_group_IT_number 67
_symmetry_cell_setting 'orthorhombic'
loop_
_space_group_symop_operation_xyz
x,y,z
-x,1/2-y,z
x,-y,-z
-x,1/2+y,-z
-x,-y,-z
x,1/2+y,-z
-x,y,z
x,1/2-y,z
1/2+x,1/2+y,z
1/2-x,-y,z
1/2+x,1/2-y,-z
1/2-x,y,-z
1/2-x,1/2-y,-z
1/2+x,y,-z
1/2-x,1/2+y,z
1/2+x,-y,z
loop_
_atom_site_type_symbol
_atom_site_label
_atom_site_fract_x
_atom_site_fract_y
_atom_site_fract_z
Si Si1 0.584930 0.158124 0.449005
Si Si2 0.764767 0.346957 0.110993
Si Si3 0.580680 0.845878 0.193392
Si Si4 0.654447 0.082959 0.630579
Si Si5 0.189108 0.401549 0.699095
O O1 0.500000 0.130033 0.437305
O O2 0.590142 0.250000 0.491619
O O3 0.628288 0.092407 0.517614
O O4 0.623555 0.156638 0.341008
O O5 0.757719 0.250000 0.125058
O O6 0.848529 0.379370 0.132533
O O7 0.704576 0.389769 0.183809
O O8 0.750000 0.374785 0.000000
O O9 0.500000 0.881197 0.157496
O O10 0.578089 0.750000 0.182939
O O11 0.591825 0.869762 0.307277
O O12 0.735357 0.124243 0.642122
O O13 0.662346 0.992201 0.672796
#
# Coordination Sequence:
#
# PCOD8279924 Si02
#       5
#    16  16  16  16  16
#     4  11  23  36  52  77 109 147 189 230 273 324
#     4   9  18  35  59  82 106 141 183 227 279 334
#     4   9  17  31  53  80 105 131 175 232 278 322
#     4  10  20  34  53  78 106 140 178 218 272 332
#     4  10  21  36  53  78 109 141 180 225 272 328
#
# _framework density 20.017842000000002
#
# number of rings (size 3 to 8) (size 9 to 14) (size 15 to 20)
#    0.000    2.200    0.000    3.000    0.000    8.800 
#    0.000    9.000    0.000    4.800    0.000    0.000 
#    0.000    0.000    0.000    0.000    0.000    0.000 
#
# Total GULP energy -495701.056754 kJ/mol
# GULP energy per Si atom -12392.526419 kJ/mol
# Density = 1.997228 g / cm^3
# Si number density = 20.017842 Si / 1000 Ang^3
#
#
#
# Elastic Constant Matrix: (Units=GPa)
#
#
# Indices 1 2 3 4 5 6 
#
# 1 128.5599 30.6861 72.9936 0.0000 0.0000 0.0000
# 2 30.6861 43.0767 27.3871 0.0000 0.0000 0.0000
# 3 72.9936 27.3871 144.1070 0.0000 0.0000 0.0000
# 4 0.0000 0.0000 0.0000 19.6847 0.0000 0.0000
# 5 0.0000 0.0000 0.0000 0.0000 12.1435 0.0000
# 6 0.0000 0.0000 0.0000 0.0000 0.0000 23.6302
#
#
#
# Elastic Compliance Matrix: (Units=1/GPa)
#
#
# Indices 1 2 3 4 5 6 
#
# 1 0.011887 -0.005278 -0.005018 0.000000 0.000000 0.000000
# 2 -0.005278 0.028748 -0.002790 0.000000 0.000000 0.000000
# 3 -0.005018 -0.002790 0.010011 0.000000 0.000000 0.000000
# 4 0.000000 0.000000 0.000000 0.050801 0.000000 0.000000
# 5 0.000000 0.000000 0.000000 0.000000 0.082348 0.000000
# 6 0.000000 0.000000 0.000000 0.000000 0.000000 0.042319
#
#
# Mechanical properties :
#
#
# Convention : Reuss Voigt Hill
#
# Bulk Modulus (GPa) = 40.85875 64.20859 52.53367
# Shear Modulus (GPa) = 19.19790 23.40348 21.30069
#
# Velocity S-wave (km/s) = 3.10020 3.42297 3.26557
# Velocity P-wave (km/s) = 5.76805 6.91141 6.36545
#
# Compressibility (1/GPa) = 0.02447456
#
# Stress axis : x y z
#
# Youngs Moduli (GPa) = 84.12204 34.78512 99.88574
#
# Poissons Ratio (x) = 0.18358 0.50126
# Poissons Ratio (y) = 0.44397 0.27870
# Poissons Ratio (z) = 0.42215 0.09706
#
# Static dielectric constant tensor:
#      x y z
#    x 4.242040 0.000000 0.000000 
#    y 0.000000 3.416640 0.000000 
#    z 0.000000 0.000000 3.540850 
# 
# 
# High freq. dielectric constant tensor:
#      x y z
#    x 1.788240 0.000000 0.000000 
#    y 0.000000 1.768270 0.000000 
#    z 0.000000 0.000000 1.759530 
# 
# From -- ./inp_files/28388.got.cif
#   From: 2010.03.12/outbox.cif.g09.slc.cpg/sg67_15_cif.got.tgz:28388.got - 2010.04.10 22:41:39.
