data_PCOD8279495
_publ_section_title
;
Structure prediction by ZEFSAII (Michael W. Deem and Ramdas Pophale) SiO2 
 PCOD8279495
Probable space group: C M M A
;
_chemical_formula_sum "Si O2"
_cell_formula_units_Z 88
_cell_length_a 9.834197
_cell_length_b 27.014053
_cell_length_c 18.952069
_cell_angle_alpha 90.000000
_cell_angle_beta 90.000000
_cell_angle_gamma 90.000000
_cell_volume 5034.835438
_symmetry_space_group_name_H-M "C M M A"
_symmetry_group_IT_number 67
_symmetry_cell_setting 'orthorhombic'
loop_
_space_group_symop_operation_xyz
x,y,z
-x,1/2-y,z
x,-y,-z
-x,1/2+y,-z
-x,-y,-z
x,1/2+y,-z
-x,y,z
x,1/2-y,z
1/2+x,1/2+y,z
1/2-x,-y,z
1/2+x,1/2-y,-z
1/2-x,y,-z
1/2-x,1/2-y,-z
1/2+x,y,-z
1/2-x,1/2+y,z
1/2+x,-y,z
loop_
_atom_site_type_symbol
_atom_site_label
_atom_site_fract_x
_atom_site_fract_y
_atom_site_fract_z
Si Si1 0.841729 0.454075 0.171963
Si Si2 0.837605 0.250000 0.070025
Si Si3 0.350779 0.959803 0.334817
Si Si4 0.653873 0.634093 0.433644
Si Si5 0.660760 0.654925 0.161426
Si Si6 0.338021 0.694769 0.306046
O O1 0.750000 0.500000 0.143152
O O2 0.813536 0.445501 0.254741
O O3 0.798273 0.401082 0.135912
O O4 0.000000 0.466274 0.156297
O O5 0.792041 0.300335 0.110579
O O6 0.000000 0.250000 0.055345
O O7 0.750000 0.250000 0.000000
O O8 0.500000 0.983637 0.335944
O O9 0.343063 0.913783 0.385490
O O10 0.250000 0.000000 0.366523
O O11 0.500000 0.645063 0.459631
O O12 0.750000 0.627982 0.500000
O O13 0.713706 0.676714 0.382568
O O14 0.500000 0.657236 0.167295
O O15 0.721419 0.663778 0.239993
O O16 0.500000 0.690473 0.306469
O O17 0.286238 0.750000 0.295037
#
# Coordination Sequence:
#
# PCOD8279495 Si02
#       6
#    16   8  16  16  16  16
#     4   9  16  28  48  75 101 126 164 211 251 289
#     4  10  20  34  56  86 113 136 162 198 245 294
#     4   9  17  29  45  64  89 119 155 202 249 289
#     4  10  20  32  45  64  91 123 159 204 251 294
#     4   9  15  28  53  79 101 130 170 207 239 286
#     4   9  15  27  49  73  91 116 163 210 241 282
#
# _framework density 17.478227
#
# number of rings (size 3 to 8) (size 9 to 14) (size 15 to 20)
#    0.000    2.727    2.727    0.000    0.000    1.455 
#    0.000    2.727    0.000    1.636    0.000    3.818 
#    0.000    0.000    0.000    0.000    0.000    0.000 
#
# Total GULP energy -545079.541005 kJ/mol
# GULP energy per Si atom -12388.171386 kJ/mol
# Density = 1.743845 g / cm^3
# Si number density = 17.478227 Si / 1000 Ang^3
#
#
#
# Elastic Constant Matrix: (Units=GPa)
#
#
# Indices 1 2 3 4 5 6 
#
# 1 46.9034 39.0899 26.5974 0.0000 0.0000 0.0000
# 2 39.0899 127.3058 29.4741 0.0000 0.0000 0.0000
# 3 26.5974 29.4741 42.3659 0.0000 0.0000 0.0000
# 4 0.0000 0.0000 0.0000 15.7737 0.0000 0.0000
# 5 0.0000 0.0000 0.0000 0.0000 20.2612 0.0000
# 6 0.0000 0.0000 0.0000 0.0000 0.0000 21.2245
#
#
#
# Elastic Compliance Matrix: (Units=1/GPa)
#
#
# Indices 1 2 3 4 5 6 
#
# 1 0.038113 -0.007346 -0.018817 0.000000 0.000000 0.000000
# 2 -0.007346 0.010779 -0.002887 0.000000 0.000000 0.000000
# 3 -0.018817 -0.002887 0.037426 0.000000 0.000000 0.000000
# 4 0.000000 0.000000 0.000000 0.063397 0.000000 0.000000
# 5 0.000000 0.000000 0.000000 0.000000 0.049355 0.000000
# 6 0.000000 0.000000 0.000000 0.000000 0.000000 0.047115
#
#
# Mechanical properties :
#
#
# Convention : Reuss Voigt Hill
#
# Bulk Modulus (GPa) = 35.43863 45.21090 40.32476
# Shear Modulus (GPa) = 15.93919 19.54613 17.74266
#
# Velocity S-wave (km/s) = 3.02312 3.34775 3.18957
# Velocity P-wave (km/s) = 5.70136 6.39268 6.05689
#
# Compressibility (1/GPa) = 0.02821780
#
# Stress axis : x y z
#
# Youngs Moduli (GPa) = 26.23749 92.77060 26.71966
#
# Poissons Ratio (x) = 0.68153 0.50278
# Poissons Ratio (y) = 0.19275 0.07714
# Poissons Ratio (z) = 0.49370 0.26784
#
# Static dielectric constant tensor:
#      x y z
#    x 3.440650 0.000000 0.000000 
#    y 0.000000 3.682050 0.000000 
#    z 0.000000 0.000000 3.085090 
# 
# 
# High freq. dielectric constant tensor:
#      x y z
#    x 1.630960 0.000000 0.000000 
#    y 0.000000 1.691740 0.000000 
#    z 0.000000 0.000000 1.650700 
# 
# From -- ./inp_files/29943.got.cif
#   From: 2010.03.12/outbox.cif.g09.slc.cpg/sg67_15_cif.got.tgz:29943.got - 2010.04.10 22:41:39.
