data_PCOD8279174
_publ_section_title
;
Structure prediction by ZEFSAII (Michael W. Deem and Ramdas Pophale) SiO2 
 PCOD8279174
Probable space group: C M M A
;
_chemical_formula_sum "Si O2"
_cell_formula_units_Z 112
_cell_length_a 19.060579
_cell_length_b 26.028845
_cell_length_c 12.532755
_cell_angle_alpha 90.000000
_cell_angle_beta 90.000000
_cell_angle_gamma 90.000000
_cell_volume 6217.811275
_symmetry_space_group_name_H-M "C M M A"
_symmetry_group_IT_number 67
_symmetry_cell_setting 'orthorhombic'
loop_
_space_group_symop_operation_xyz
x,y,z
-x,1/2-y,z
x,-y,-z
-x,1/2+y,-z
-x,-y,-z
x,1/2+y,-z
-x,y,z
x,1/2-y,z
1/2+x,1/2+y,z
1/2-x,-y,z
1/2+x,1/2-y,-z
1/2-x,y,-z
1/2-x,1/2-y,-z
1/2+x,y,-z
1/2-x,1/2+y,z
1/2+x,-y,z
loop_
_atom_site_type_symbol
_atom_site_label
_atom_site_fract_x
_atom_site_fract_y
_atom_site_fract_z
Si Si1 0.820548 0.979105 0.619570
Si Si2 0.165984 0.306296 0.502941
Si Si3 0.918254 0.989072 0.200899
Si Si4 0.582472 0.620576 0.880711
Si Si5 0.676671 0.133516 0.693246
Si Si6 0.678139 0.312051 0.265325
Si Si7 0.419118 0.597463 0.120605
O O1 0.887300 0.999272 0.683296
O O2 0.808987 0.918579 0.628973
O O3 0.828533 0.000000 0.500000
O O4 0.750000 0.000000 0.673844
O O5 0.134743 0.250000 0.491788
O O6 0.250000 0.306969 0.500000
O O7 0.136368 0.335267 0.399747
O O8 0.143531 0.327354 0.619918
O O9 0.900242 0.036352 0.120695
O O10 0.000000 0.983506 0.217170
O O11 0.889326 0.935104 0.157052
O O12 0.500000 0.628606 0.855741
O O13 0.627415 0.665668 0.826037
O O14 0.596861 0.622661 0.006772
O O15 0.745548 0.161491 0.740027
O O16 0.625705 0.127691 0.792880
O O17 0.685746 0.250000 0.253273
O O18 0.500000 0.604174 0.151854
#
# Coordination Sequence:
#
# PCOD8279174 Si02
#       7
#    16  16  16  16  16  16  16
#     4  10  21  29  45  77 112 143 167 213 264 319
#     4   8  16  31  53  75  95 129 173 215 257 308
#     4   9  18  34  54  76 103 140 182 214 253 318
#     4  10  20  35  57  77 104 142 179 221 270 315
#     4  10  19  33  55  75 106 141 174 218 265 319
#     4  10  21  36  57  80 105 137 182 229 265 315
#     4   9  19  36  54  79 108 140 177 215 263 319
#
# _framework density 18.012768999999999
#
# number of rings (size 3 to 8) (size 9 to 14) (size 15 to 20)
#    0.000    2.571    0.000    2.571    8.000    2.857 
#    0.000    2.857    0.000    6.857    0.000    0.000 
#    0.000    0.000    0.000    0.000    0.000    0.000 
#
# Total GULP energy -693893.176508 kJ/mol
# GULP energy per Si atom -12390.949580 kJ/mol
# Density = 1.797177 g / cm^3
# Si number density = 18.012769 Si / 1000 Ang^3
#
#
#
# Elastic Constant Matrix: (Units=GPa)
#
#
# Indices 1 2 3 4 5 6 
#
# 1 43.3007 45.7336 48.8823 0.0000 0.0000 0.0000
# 2 45.7336 104.4569 70.6400 0.0000 0.0000 0.0000
# 3 48.8823 70.6400 121.3947 0.0000 0.0000 0.0000
# 4 0.0000 0.0000 0.0000 11.7612 0.0000 0.0000
# 5 0.0000 0.0000 0.0000 0.0000 24.9481 0.0000
# 6 0.0000 0.0000 0.0000 0.0000 0.0000 22.2937
#
#
#
# Elastic Compliance Matrix: (Units=1/GPa)
#
#
# Indices 1 2 3 4 5 6 
#
# 1 0.052913 -0.014440 -0.012904 0.000000 0.000000 0.000000
# 2 -0.014440 0.019726 -0.005664 0.000000 0.000000 0.000000
# 3 -0.012904 -0.005664 0.016729 0.000000 0.000000 0.000000
# 4 0.000000 0.000000 0.000000 0.085026 0.000000 0.000000
# 5 0.000000 0.000000 0.000000 0.000000 0.040083 0.000000
# 6 0.000000 0.000000 0.000000 0.000000 0.000000 0.044856
#
#
# Mechanical properties :
#
#
# Convention : Reuss Voigt Hill
#
# Bulk Modulus (GPa) = 42.82196 66.62934 54.72565
# Shear Modulus (GPa) = 15.00904 18.72702 16.86803
#
# Velocity S-wave (km/s) = 2.88973 3.22786 3.06346
# Velocity P-wave (km/s) = 5.91259 7.13880 6.55444
#
# Compressibility (1/GPa) = 0.02335250
#
# Stress axis : x y z
#
# Youngs Moduli (GPa) = 18.89898 50.69500 59.77502
#
# Poissons Ratio (x) = 0.73205 0.77132
# Poissons Ratio (y) = 0.27290 0.33856
# Poissons Ratio (z) = 0.24387 0.28713
#
# Static dielectric constant tensor:
#      x y z
#    x 3.152910 0.000000 0.000000 
#    y 0.000000 3.486550 0.000000 
#    z 0.000000 0.000000 3.414520 
# 
# 
# High freq. dielectric constant tensor:
#      x y z
#    x 1.671710 0.000000 0.000000 
#    y 0.000000 1.703330 0.000000 
#    z 0.000000 0.000000 1.703830 
# 
# From -- ./inp_files/21216.got.cif
#   From: 2010.03.12/outbox.cif.g09.slc.cpg/sg67_11_cif.got.tgz:21216.got - 2010.04.10 22:41:39.
