data_PCOD8279228
_publ_section_title
;
Structure prediction by ZEFSAII (Michael W. Deem and Ramdas Pophale) SiO2 
 PCOD8279228
Probable space group: C M M A
;
_chemical_formula_sum "Si O2"
_cell_formula_units_Z 56
_cell_length_a 8.674493
_cell_length_b 14.490968
_cell_length_c 23.916980
_cell_angle_alpha 90.000000
_cell_angle_beta 90.000000
_cell_angle_gamma 90.000000
_cell_volume 3006.407448
_symmetry_space_group_name_H-M "C M M A"
_symmetry_group_IT_number 67
_symmetry_cell_setting 'orthorhombic'
loop_
_space_group_symop_operation_xyz
x,y,z
-x,1/2-y,z
x,-y,-z
-x,1/2+y,-z
-x,-y,-z
x,1/2+y,-z
-x,y,z
x,1/2-y,z
1/2+x,1/2+y,z
1/2-x,-y,z
1/2+x,1/2-y,-z
1/2-x,y,-z
1/2-x,1/2-y,-z
1/2+x,y,-z
1/2-x,1/2+y,z
1/2+x,-y,z
loop_
_atom_site_type_symbol
_atom_site_label
_atom_site_fract_x
_atom_site_fract_y
_atom_site_fract_z
Si Si1 0.182965 0.599522 0.942137
Si Si2 0.682248 0.250000 0.856411
Si Si3 0.317102 0.397802 0.349917
Si Si4 0.183748 0.750000 0.730456
Si Si5 0.180142 0.750000 0.439218
O O1 0.250000 0.500000 0.929892
O O2 0.239689 0.660791 0.890236
O O3 0.000000 0.596252 0.947417
O O4 0.250000 0.640155 0.000000
O O5 0.500000 0.250000 0.853250
O O6 0.748084 0.250000 0.793748
O O7 0.500000 0.402049 0.343199
O O8 0.250000 0.500000 0.353486
O O9 0.247828 0.343290 0.297319
O O10 0.268110 0.341820 0.405733
O O11 0.000000 0.750000 0.726762
O O12 0.250000 0.750000 0.500000
O O13 0.000000 0.750000 0.446537
#
# Coordination Sequence:
#
# PCOD8279228 Si02
#       5
#    16   8  16   8   8
#     4  10  19  34  52  74 102 133 168 210 257 312
#     4   9  20  35  53  76 104 134 170 213 262 313
#     4  10  21  38  57  81 110 145 183 222 265 315
#     4  10  20  37  57  79 107 141 178 224 272 318
#     4   9  20  36  55  81 114 143 178 221 263 311
#
# _framework density 18.626882999999999
#
# number of rings (size 3 to 8) (size 9 to 14) (size 15 to 20)
#    0.000    2.286    0.000    4.286    0.000    5.143 
#    0.000   13.571    0.000    0.000    0.000    0.000 
#    0.000    0.000    0.000    0.000    0.000    0.000 
#
# Total GULP energy -347152.798812 kJ/mol
# GULP energy per Si atom -12398.314243 kJ/mol
# Density = 1.858449 g / cm^3
# Si number density = 18.626883 Si / 1000 Ang^3
#
#
#
# Elastic Constant Matrix: (Units=GPa)
#
#
# Indices 1 2 3 4 5 6 
#
# 1 80.5804 51.3694 52.1678 0.0000 0.0000 0.0000
# 2 51.3694 164.4389 101.1808 0.0000 0.0000 0.0000
# 3 52.1678 101.1808 200.1709 0.0000 0.0000 0.0000
# 4 0.0000 0.0000 0.0000 6.0305 0.0000 0.0000
# 5 0.0000 0.0000 0.0000 0.0000 28.5054 0.0000
# 6 0.0000 0.0000 0.0000 0.0000 0.0000 28.0276
#
#
#
# Elastic Compliance Matrix: (Units=1/GPa)
#
#
# Indices 1 2 3 4 5 6 
#
# 1 0.016269 -0.003590 -0.002425 0.000000 0.000000 0.000000
# 2 -0.003590 0.009619 -0.003926 0.000000 0.000000 0.000000
# 3 -0.002425 -0.003926 0.007612 0.000000 0.000000 0.000000
# 4 0.000000 0.000000 0.000000 0.165824 0.000000 0.000000
# 5 0.000000 0.000000 0.000000 0.000000 0.035081 0.000000
# 6 0.000000 0.000000 0.000000 0.000000 0.000000 0.035679
#
#
# Mechanical properties :
#
#
# Convention : Reuss Voigt Hill
#
# Bulk Modulus (GPa) = 73.43943 94.95847 84.19895
# Shear Modulus (GPa) = 16.97759 28.54417 22.76088
#
# Velocity S-wave (km/s) = 3.02231 3.91886 3.49941
# Velocity P-wave (km/s) = 7.18967 8.45970 7.85041
#
# Compressibility (1/GPa) = 0.01361666
#
# Stress axis : x y z
#
# Youngs Moduli (GPa) = 61.46800 103.96437 131.36331
#
# Poissons Ratio (x) = 0.37322 0.31859
# Poissons Ratio (y) = 0.22066 0.51578
# Poissons Ratio (z) = 0.14908 0.40820
#
# Static dielectric constant tensor:
#      x y z
#    x 3.392870 0.000000 0.000000 
#    y 0.000000 3.541960 0.000000 
#    z 0.000000 0.000000 3.318350 
# 
# 
# High freq. dielectric constant tensor:
#      x y z
#    x 1.723490 0.000000 0.000000 
#    y 0.000000 1.731500 0.000000 
#    z 0.000000 0.000000 1.727070 
# 
# From -- ./inp_files/40400.got.cif
#   From: 2010.03.12/outbox.cif.g09.slc.cpg/sg67_21_cif.got.tgz:40400.got - 2010.04.10 22:41:39.
