data_PCOD8279700
_publ_section_title
;
Structure prediction by ZEFSAII (Michael W. Deem and Ramdas Pophale) SiO2 
 PCOD8279700
Probable space group: C M M A
;
_chemical_formula_sum "Si O2"
_cell_formula_units_Z 96
_cell_length_a 8.990708
_cell_length_b 19.374335
_cell_length_c 31.212280
_cell_angle_alpha 90.000000
_cell_angle_beta 90.000000
_cell_angle_gamma 90.000000
_cell_volume 5436.835488
_symmetry_space_group_name_H-M "C M M A"
_symmetry_group_IT_number 67
_symmetry_cell_setting 'orthorhombic'
loop_
_space_group_symop_operation_xyz
x,y,z
-x,1/2-y,z
x,-y,-z
-x,1/2+y,-z
-x,-y,-z
x,1/2+y,-z
-x,y,z
x,1/2-y,z
1/2+x,1/2+y,z
1/2-x,-y,z
1/2+x,1/2-y,-z
1/2-x,y,-z
1/2-x,1/2-y,-z
1/2+x,y,-z
1/2-x,1/2+y,z
1/2+x,-y,z
loop_
_atom_site_type_symbol
_atom_site_label
_atom_site_fract_x
_atom_site_fract_y
_atom_site_fract_z
Si Si1 0.326836 0.330580 0.296861
Si Si2 0.172232 0.073586 0.460376
Si Si3 0.173968 0.170769 0.209770
Si Si4 0.173365 0.073956 0.365383
Si Si5 0.673318 0.426928 0.865819
Si Si6 0.826217 0.425901 0.039994
O O1 0.500000 0.348260 0.298472
O O2 0.294940 0.250000 0.303879
O O3 0.263197 0.355002 0.251233
O O4 0.243572 0.370991 0.333884
O O5 0.250000 0.115941 0.500000
O O6 0.195940 0.106123 0.413241
O O7 0.000000 0.065493 0.471237
O O8 0.250000 0.000000 0.458642
O O9 0.210509 0.250000 0.199352
O O10 0.231762 0.126858 0.169382
O O11 0.000000 0.159710 0.218575
O O12 0.000000 0.064084 0.355127
O O13 0.250000 0.000000 0.359703
O O14 0.500000 0.440782 0.860149
O O15 0.750000 0.500000 0.858888
O O16 0.704207 0.393283 0.912996
O O17 0.750000 0.500000 0.041304
O O18 0.000000 0.432613 0.030607
O O19 0.750000 0.384028 0.000000
#
# Coordination Sequence:
#
# PCOD8279700 Si02
#       6
#    16  16  16  16  16  16
#     4  10  21  36  53  73  97 127 163 202 245 293
#     4   9  16  26  43  68  97 128 160 194 234 281
#     4   9  18  34  53  69  89 122 161 196 233 283
#     4  10  20  33  51  76 103 131 164 202 243 286
#     4   9  18  30  46  70  95 120 152 191 234 276
#     4   9  15  24  39  61  89 118 149 183 222 270
#
# _framework density 17.657330999999999
#
# number of rings (size 3 to 8) (size 9 to 14) (size 15 to 20)
#    0.000    2.667    0.000    3.000    0.000    5.000 
#    0.000    1.667    0.000    1.000    0.000    0.000 
#    0.000    0.000    0.000    0.000    0.000    4.500 
#
# Total GULP energy -594780.104713 kJ/mol
# GULP energy per Si atom -12391.252182 kJ/mol
# Density = 1.761714 g / cm^3
# Si number density = 17.657331 Si / 1000 Ang^3
#
#
#
# Elastic Constant Matrix: (Units=GPa)
#
#
# Indices 1 2 3 4 5 6 
#
# 1 108.8028 35.7149 84.8978 0.0000 0.0000 0.0000
# 2 35.7149 46.3073 62.1607 0.0000 0.0000 0.0000
# 3 84.8978 62.1607 192.7030 0.0000 0.0000 0.0000
# 4 0.0000 0.0000 0.0000 0.6893 0.0000 0.0000
# 5 0.0000 0.0000 0.0000 0.0000 15.6871 0.0000
# 6 0.0000 0.0000 0.0000 0.0000 0.0000 20.9641
#
#
#
# Elastic Compliance Matrix: (Units=1/GPa)
#
#
# Indices 1 2 3 4 5 6 
#
# 1 0.014544 -0.004614 -0.004919 0.000000 0.000000 0.000000
# 2 -0.004614 0.039550 -0.010725 0.000000 0.000000 0.000000
# 3 -0.004919 -0.010725 0.010816 0.000000 0.000000 0.000000
# 4 0.000000 0.000000 0.000000 1.450691 0.000000 0.000000
# 5 0.000000 0.000000 0.000000 0.000000 0.063747 0.000000
# 6 0.000000 0.000000 0.000000 0.000000 0.000000 0.047701
#
#
# Mechanical properties :
#
#
# Convention : Reuss Voigt Hill
#
# Bulk Modulus (GPa) = 40.99369 79.26219 60.12794
# Shear Modulus (GPa) = 2.98383 18.47076 10.72730
#
# Velocity S-wave (km/s) = 1.30135 3.23781 2.46748
# Velocity P-wave (km/s) = 5.05220 7.67883 6.49958
#
# Compressibility (1/GPa) = 0.02439400
#
# Stress axis : x y z
#
# Youngs Moduli (GPa) = 68.75772 25.28435 92.45406
#
# Poissons Ratio (x) = 0.11666 0.45480
# Poissons Ratio (y) = 0.31723 0.99158
# Poissons Ratio (z) = 0.33823 0.27118
#
# Static dielectric constant tensor:
#      x y z
#    x 3.400670 0.000000 0.000000 
#    y 0.000000 2.848130 0.000000 
#    z 0.000000 0.000000 4.450920 
# 
# 
# High freq. dielectric constant tensor:
#      x y z
#    x 1.695240 0.000000 0.000000 
#    y 0.000000 1.626270 0.000000 
#    z 0.000000 0.000000 1.711060 
# 
# From -- ./inp_files/43500.got.cif
#   From: 2010.03.12/outbox.cif.g09.slc.cpg/sg67_22_cif.got.tgz:43500.got - 2010.04.10 22:41:39.
