data_PCOD8279544
_publ_section_title
;
Structure prediction by ZEFSAII (Michael W. Deem and Ramdas Pophale) SiO2 
 PCOD8279544
Probable space group: C M M A
;
_chemical_formula_sum "Si O2"
_cell_formula_units_Z 104
_cell_length_a 8.836085
_cell_length_b 29.921364
_cell_length_c 22.968728
_cell_angle_alpha 90.000000
_cell_angle_beta 90.000000
_cell_angle_gamma 90.000000
_cell_volume 6072.649527
_symmetry_space_group_name_H-M "C M M A"
_symmetry_group_IT_number 67
_symmetry_cell_setting 'orthorhombic'
loop_
_space_group_symop_operation_xyz
x,y,z
-x,1/2-y,z
x,-y,-z
-x,1/2+y,-z
-x,-y,-z
x,1/2+y,-z
-x,y,z
x,1/2-y,z
1/2+x,1/2+y,z
1/2-x,-y,z
1/2+x,1/2-y,-z
1/2-x,y,-z
1/2-x,1/2-y,-z
1/2+x,y,-z
1/2-x,1/2+y,z
1/2+x,-y,z
loop_
_atom_site_type_symbol
_atom_site_label
_atom_site_fract_x
_atom_site_fract_y
_atom_site_fract_z
Si Si1 0.325405 0.955908 0.179300
Si Si2 0.330935 0.697493 0.443166
Si Si3 0.674183 0.074580 0.060689
Si Si4 0.170766 0.168634 0.888192
Si Si5 0.172238 0.750000 0.939367
Si Si6 0.821975 0.801860 0.322572
Si Si7 0.324279 0.138620 0.774324
O O1 0.500000 0.965106 0.168230
O O2 0.253995 0.947830 0.115760
O O3 0.302476 0.915272 0.225308
O O4 0.250000 0.000000 0.207398
O O5 0.500000 0.677002 0.435497
O O6 0.346587 0.750000 0.451974
O O7 0.250000 0.676328 0.500000
O O8 0.226153 0.686731 0.388062
O O9 0.500000 0.059577 0.059954
O O10 0.689489 0.127973 0.066930
O O11 0.750000 0.059446 0.000000
O O12 0.288213 0.206500 0.903555
O O13 0.211027 0.155570 0.823164
O O14 0.000000 0.187174 0.889493
O O15 0.000000 0.750000 0.954169
O O16 0.250000 0.750000 0.000000
O O17 0.781845 0.750000 0.306815
O O18 0.727305 0.836982 0.284301
O O19 0.000000 0.810273 0.315148
O O20 0.500000 0.150282 0.787164
#
# Coordination Sequence:
#
# PCOD8279544 Si02
#       7
#    16  16  16  16   8  16  16
#     4  10  21  37  56  76  98 124 157 198 247 303
#     4   9  16  27  44  67  98 136 176 215 252 291
#     4  10  20  34  53  74  96 121 150 190 240 297
#     4  10  21  36  52  69  92 123 158 199 245 292
#     4  12  24  36  50  68  90 120 159 202 243 290
#     4  10  20  32  48  72 103 140 178 214 248 288
#     4  10  21  36  53  74 100 130 164 204 249 296
#
# _framework density 17.125968
#
# number of rings (size 3 to 8) (size 9 to 14) (size 15 to 20)
#    0.000    2.000    0.000    3.923    1.077    8.000 
#    0.000    1.538    0.000    0.000    0.000    0.000 
#    0.000    0.615    0.000    6.462    0.000    3.846 
#
# Total GULP energy -644672.341061 kJ/mol
# GULP energy per Si atom -12397.545020 kJ/mol
# Density = 1.708699 g / cm^3
# Si number density = 17.125968 Si / 1000 Ang^3
#
#
#
# Elastic Constant Matrix: (Units=GPa)
#
#
# Indices 1 2 3 4 5 6 
#
# 1 117.9312 44.1232 29.9783 0.0000 0.0000 0.0000
# 2 44.1232 81.2068 32.9489 0.0000 0.0000 0.0000
# 3 29.9783 32.9489 78.9331 0.0000 0.0000 0.0000
# 4 0.0000 0.0000 0.0000 8.9671 0.0000 0.0000
# 5 0.0000 0.0000 0.0000 0.0000 31.0049 0.0000
# 6 0.0000 0.0000 0.0000 0.0000 0.0000 24.9997
#
#
#
# Elastic Compliance Matrix: (Units=1/GPa)
#
#
# Indices 1 2 3 4 5 6 
#
# 1 0.010901 -0.005108 -0.002008 0.000000 0.000000 0.000000
# 2 -0.005108 0.017219 -0.005248 0.000000 0.000000 0.000000
# 3 -0.002008 -0.005248 0.015622 0.000000 0.000000 0.000000
# 4 0.000000 0.000000 0.000000 0.111519 0.000000 0.000000
# 5 0.000000 0.000000 0.000000 0.000000 0.032253 0.000000
# 6 0.000000 0.000000 0.000000 0.000000 0.000000 0.040000
#
#
# Mechanical properties :
#
#
# Convention : Reuss Voigt Hill
#
# Bulk Modulus (GPa) = 52.59112 54.68576 53.63844
# Shear Modulus (GPa) = 19.33632 24.39572 21.86602
#
# Velocity S-wave (km/s) = 3.36380 3.77833 3.57708
# Velocity P-wave (km/s) = 6.77214 7.14389 6.96050
#
# Compressibility (1/GPa) = 0.01901462
#
# Stress axis : x y z
#
# Youngs Moduli (GPa) = 91.73301 58.07534 64.01237
#
# Poissons Ratio (x) = 0.29667 0.12852
# Poissons Ratio (y) = 0.46861 0.33591
# Poissons Ratio (z) = 0.18418 0.30475
#
# Static dielectric constant tensor:
#      x y z
#    x 3.384290 0.000000 0.000000 
#    y 0.000000 3.174910 0.000000 
#    z 0.000000 0.000000 3.198490 
# 
# 
# High freq. dielectric constant tensor:
#      x y z
#    x 1.685110 0.000000 0.000000 
#    y 0.000000 1.636440 0.000000 
#    z 0.000000 0.000000 1.641210 
# 
# From -- ./inp_files/37486.got.cif
#   From: 2010.03.12/outbox.cif.g09.slc.cpg/sg67_19_cif.got.tgz:37486.got - 2010.04.10 22:41:39.
