data_PCOD8279423
_publ_section_title
;
Structure prediction by ZEFSAII (Michael W. Deem and Ramdas Pophale) SiO2 
 PCOD8279423
Probable space group: C M M A
;
_chemical_formula_sum "Si O2"
_cell_formula_units_Z 112
_cell_length_a 29.457005
_cell_length_b 17.904904
_cell_length_c 10.960500
_cell_angle_alpha 90.000000
_cell_angle_beta 90.000000
_cell_angle_gamma 90.000000
_cell_volume 5780.840032
_symmetry_space_group_name_H-M "C M M A"
_symmetry_group_IT_number 67
_symmetry_cell_setting 'orthorhombic'
loop_
_space_group_symop_operation_xyz
x,y,z
-x,1/2-y,z
x,-y,-z
-x,1/2+y,-z
-x,-y,-z
x,1/2+y,-z
-x,y,z
x,1/2-y,z
1/2+x,1/2+y,z
1/2-x,-y,z
1/2+x,1/2-y,-z
1/2-x,y,-z
1/2-x,1/2-y,-z
1/2+x,y,-z
1/2-x,1/2+y,z
1/2+x,-y,z
loop_
_atom_site_type_symbol
_atom_site_label
_atom_site_fract_x
_atom_site_fract_y
_atom_site_fract_z
Si Si1 0.346830 0.382683 0.819098
Si Si2 0.050204 0.573576 0.422873
Si Si3 0.748992 0.838453 0.753583
Si Si4 0.621686 0.040505 0.234856
Si Si5 0.377604 0.834967 0.428716
Si Si6 0.162400 0.833186 0.088185
Si Si7 0.693637 0.927280 0.563370
O O1 0.294307 0.384774 0.779483
O O2 0.368490 0.464776 0.840597
O O3 0.379325 0.342660 0.718792
O O4 0.344939 0.336623 0.943998
O O5 0.045882 0.500000 0.500000
O O6 0.071886 0.549677 0.292978
O O7 0.078972 0.632555 0.501402
O O8 0.000000 0.607283 0.398250
O O9 0.758662 0.750000 0.734869
O O10 0.713674 0.851582 0.865756
O O11 0.730860 0.875640 0.628882
O O12 0.626900 0.110889 0.147427
O O13 0.656837 0.040063 0.344793
O O14 0.374451 0.750000 0.469203
O O15 0.331317 0.875659 0.465329
O O16 0.150286 0.750000 0.133144
O O17 0.716044 0.000000 0.500000
#
# Coordination Sequence:
#
# PCOD8279423 Si02
#       7
#    16  16  16  16  16  16  16
#     4  12  21  37  56  81 116 156 201 244 289 345
#     4  10  20  40  66  90 116 144 182 233 290 357
#     4  10  22  37  55  80 112 157 209 251 292 334
#     4  10  20  38  60  86 110 148 194 235 291 353
#     4  11  21  35  57  86 120 153 190 234 296 358
#     4  10  22  38  58  81 114 156 201 250 288 331
#     4  10  19  38  53  77 116 156 198 244 289 338
#
# _framework density 19.374348000000001
#
# number of rings (size 3 to 8) (size 9 to 14) (size 15 to 20)
#    0.000    1.571    2.857    3.429    0.000    7.714 
#    5.143    4.286    0.000    2.571    0.000    0.000 
#    0.000    0.000    0.000    0.000    0.000    0.000 
#
# Total GULP energy -694173.846142 kJ/mol
# GULP energy per Si atom -12395.961538 kJ/mol
# Density = 1.933025 g / cm^3
# Si number density = 19.374348 Si / 1000 Ang^3
#
#
#
# Elastic Constant Matrix: (Units=GPa)
#
#
# Indices 1 2 3 4 5 6 
#
# 1 113.2526 43.4032 35.6825 0.0000 0.0000 0.0000
# 2 43.4032 128.4091 38.3994 0.0000 0.0000 0.0000
# 3 35.6825 38.3994 85.3747 0.0000 0.0000 0.0000
# 4 0.0000 0.0000 0.0000 32.2978 0.0000 0.0000
# 5 0.0000 0.0000 0.0000 0.0000 23.3684 0.0000
# 6 0.0000 0.0000 0.0000 0.0000 0.0000 13.4110
#
#
#
# Elastic Compliance Matrix: (Units=1/GPa)
#
#
# Indices 1 2 3 4 5 6 
#
# 1 0.010916 -0.002687 -0.003354 0.000000 0.000000 0.000000
# 2 -0.002687 0.009659 -0.003221 0.000000 0.000000 0.000000
# 3 -0.003354 -0.003221 0.014564 0.000000 0.000000 0.000000
# 4 0.000000 0.000000 0.000000 0.030962 0.000000 0.000000
# 5 0.000000 0.000000 0.000000 0.000000 0.042793 0.000000
# 6 0.000000 0.000000 0.000000 0.000000 0.000000 0.074566
#
#
# Mechanical properties :
#
#
# Convention : Reuss Voigt Hill
#
# Bulk Modulus (GPa) = 60.18793 62.44518 61.31656
# Shear Modulus (GPa) = 24.09379 27.78552 25.93966
#
# Velocity S-wave (km/s) = 3.53029 3.79111 3.66302
# Velocity P-wave (km/s) = 6.91017 7.17386 7.04325
#
# Compressibility (1/GPa) = 0.01661463
#
# Stress axis : x y z
#
# Youngs Moduli (GPa) = 91.60642 103.52918 68.66326
#
# Poissons Ratio (x) = 0.27816 0.23030
# Poissons Ratio (y) = 0.24613 0.22120
# Poissons Ratio (z) = 0.30725 0.33352
#
# Static dielectric constant tensor:
#      x y z
#    x 3.754230 0.000000 0.000000 
#    y 0.000000 3.597520 0.000000 
#    z 0.000000 0.000000 3.602740 
# 
# 
# High freq. dielectric constant tensor:
#      x y z
#    x 1.723010 0.000000 0.000000 
#    y 0.000000 1.765160 0.000000 
#    z 0.000000 0.000000 1.755920 
# 
# From -- ./inp_files/23866.got.cif
#   From: 2010.03.12/outbox.cif.g09.slc.cpg/sg67_12_cif.got.tgz:23866.got - 2010.04.10 22:41:39.
