data_PCOD8279636
_publ_section_title
;
Structure prediction by ZEFSAII (Michael W. Deem and Ramdas Pophale) SiO2 
 PCOD8279636
Probable space group: C M M A
;
_chemical_formula_sum "Si O2"
_cell_formula_units_Z 88
_cell_length_a 17.364619
_cell_length_b 14.565535
_cell_length_c 16.401163
_cell_angle_alpha 90.000000
_cell_angle_beta 90.000000
_cell_angle_gamma 90.000000
_cell_volume 4148.263591
_symmetry_space_group_name_H-M "C M M A"
_symmetry_group_IT_number 67
_symmetry_cell_setting 'orthorhombic'
loop_
_space_group_symop_operation_xyz
x,y,z
-x,1/2-y,z
x,-y,-z
-x,1/2+y,-z
-x,-y,-z
x,1/2+y,-z
-x,y,z
x,1/2-y,z
1/2+x,1/2+y,z
1/2-x,-y,z
1/2+x,1/2-y,-z
1/2-x,y,-z
1/2-x,1/2-y,-z
1/2+x,y,-z
1/2-x,1/2+y,z
1/2+x,-y,z
loop_
_atom_site_type_symbol
_atom_site_label
_atom_site_fract_x
_atom_site_fract_y
_atom_site_fract_z
Si Si1 0.091573 0.006430 0.590649
Si Si2 0.413694 0.651672 0.301941
Si Si3 0.357806 0.500000 0.000000
Si Si4 0.300970 0.354834 0.124708
Si Si5 0.122344 0.645756 0.875064
Si Si6 0.911601 0.643522 0.273062
O O1 0.128581 0.921975 0.641274
O O2 0.000000 0.999932 0.585187
O O3 0.127630 0.000000 0.500000
O O4 0.114324 0.096860 0.641794
O O5 0.500000 0.662291 0.334972
O O6 0.370128 0.750000 0.308172
O O7 0.419983 0.619762 0.208279
O O8 0.307812 0.427492 0.051701
O O9 0.405921 0.568792 0.059260
O O10 0.322277 0.250000 0.096886
O O11 0.212166 0.360319 0.148491
O O12 0.355627 0.386321 0.199204
O O13 0.101141 0.750000 0.904519
O O14 0.903162 0.750000 0.290201
O O15 0.000000 0.616930 0.250058
#
# Coordination Sequence:
#
# PCOD8279636 Si02
#       6
#    16  16   8  16  16  16
#     4   9  17  29  48  75 100 121 153 195 233 274
#     4   9  18  33  51  70  95 126 157 191 233 279
#     4  12  21  32  51  72  95 124 159 200 239 274
#     4  10  20  33  50  71  94 123 160 197 233 277
#     4  10  20  33  50  71  94 123 160 197 233 277
#     4   9  18  33  51  70  95 126 157 191 233 279
#
# _framework density 21.213695000000001
#
# number of rings (size 3 to 8) (size 9 to 14) (size 15 to 20)
#    0.000    2.364    0.000    3.273    0.000    2.182 
#    0.000    5.455    0.000    6.545    0.000    5.091 
#    0.000    0.000    0.000    0.000    0.000    0.000 
#
# Total GULP energy -545075.646612 kJ/mol
# GULP energy per Si atom -12388.082878 kJ/mol
# Density = 2.116541 g / cm^3
# Si number density = 21.213695 Si / 1000 Ang^3
#
#
#
# Elastic Constant Matrix: (Units=GPa)
#
#
# Indices 1 2 3 4 5 6 
#
# 1 35.5899 13.9046 20.7136 0.0000 0.0000 0.0000
# 2 13.9046 139.3710 90.7915 0.0000 0.0000 0.0000
# 3 20.7136 90.7915 151.3925 0.0000 0.0000 0.0000
# 4 0.0000 0.0000 0.0000 33.2219 0.0000 0.0000
# 5 0.0000 0.0000 0.0000 0.0000 -175.0598 0.0000
# 6 0.0000 0.0000 0.0000 0.0000 0.0000 8.0624
#
#
#
# Elastic Compliance Matrix: (Units=1/GPa)
#
#
# Indices 1 2 3 4 5 6 
#
# 1 0.030553 -0.000533 -0.003860 0.000000 0.000000 0.000000
# 2 -0.000533 0.011785 -0.006994 0.000000 0.000000 0.000000
# 3 -0.003860 -0.006994 0.011328 0.000000 0.000000 0.000000
# 4 0.000000 0.000000 0.000000 0.030101 0.000000 0.000000
# 5 0.000000 0.000000 0.000000 0.000000 -0.005712 0.000000
# 6 0.000000 0.000000 0.000000 0.000000 0.000000 0.124032
#
#
# Mechanical properties :
#
#
# Convention : Reuss Voigt Hill
#
# Bulk Modulus (GPa) = 32.37348 64.13030 48.25189
# Shear Modulus (GPa) = 21.26219 -13.35882 3.95168
#
# Velocity S-wave (km/s) = 3.16932 -2.51216 1.36632
# Velocity P-wave (km/s) = 5.35599 4.67778 5.02833
#
# Compressibility (1/GPa) = 0.03088949
#
# Stress axis : x y z
#
# Youngs Moduli (GPa) = 32.73001 84.85546 88.27556
#
# Poissons Ratio (x) = 0.04526 0.34078
# Poissons Ratio (y) = 0.01746 0.61744
# Poissons Ratio (z) = 0.12635 0.59352
#
# Static dielectric constant tensor:
#      x y z
#    x 3.379330 0.000000 0.000000 
#    y 0.000000 4.340220 0.000000 
#    z 0.000000 0.000000 4.002730 
# 
# 
# High freq. dielectric constant tensor:
#      x y z
#    x 1.781480 0.000000 0.000000 
#    y 0.000000 1.854300 0.000000 
#    z 0.000000 0.000000 1.824250 
# 
# From -- ./inp_files/34158.got.cif
#   From: 2010.03.12/outbox.cif.g09.slc.cpg/sg67_18_cif.got.tgz:34158.got - 2010.04.10 22:41:39.
