data_PCOD8279081
_publ_section_title
;
Structure prediction by ZEFSAII (Michael W. Deem and Ramdas Pophale) SiO2 
 PCOD8279081
Probable space group: C M M A
;
_chemical_formula_sum "Si O2"
_cell_formula_units_Z 104
_cell_length_a 8.927947
_cell_length_b 27.018265
_cell_length_c 23.468253
_cell_angle_alpha 90.000000
_cell_angle_beta 90.000000
_cell_angle_gamma 90.000000
_cell_volume 5660.956556
_symmetry_space_group_name_H-M "C M M A"
_symmetry_group_IT_number 67
_symmetry_cell_setting 'orthorhombic'
loop_
_space_group_symop_operation_xyz
x,y,z
-x,1/2-y,z
x,-y,-z
-x,1/2+y,-z
-x,-y,-z
x,1/2+y,-z
-x,y,z
x,1/2-y,z
1/2+x,1/2+y,z
1/2-x,-y,z
1/2+x,1/2-y,-z
1/2-x,y,-z
1/2-x,1/2-y,-z
1/2+x,y,-z
1/2-x,1/2+y,z
1/2+x,-y,z
loop_
_atom_site_type_symbol
_atom_site_label
_atom_site_fract_x
_atom_site_fract_y
_atom_site_fract_z
Si Si1 0.324080 0.395030 0.167246
Si Si2 0.175704 0.857984 0.938207
Si Si3 0.324395 0.693730 0.557954
Si Si4 0.330772 0.854174 0.338813
Si Si5 0.676664 0.050340 0.732932
Si Si6 0.670029 0.193678 0.777329
Si Si7 0.830001 0.750000 0.941153
O O1 0.500000 0.404633 0.164343
O O2 0.253955 0.397294 0.103762
O O3 0.247386 0.437069 0.205598
O O4 0.290975 0.341068 0.193075
O O5 0.204766 0.802537 0.910059
O O6 0.000000 0.869582 0.943388
O O7 0.250000 0.862384 0.000000
O O8 0.500000 0.690642 0.549953
O O9 0.271578 0.750000 0.570633
O O10 0.250000 0.674125 0.500000
O O11 0.277888 0.658128 0.609347
O O12 0.500000 0.856175 0.362081
O O13 0.283773 0.907020 0.312374
O O14 0.315266 0.811886 0.290770
O O15 0.500000 0.044410 0.740609
O O16 0.750000 0.000000 0.709769
O O17 0.500000 0.178110 0.795674
O O18 0.702294 0.250000 0.795223
O O19 0.000000 0.750000 0.959327
O O20 0.750000 0.750000 0.000000
#
# Coordination Sequence:
#
# PCOD8279081 Si02
#       7
#    16  16  16  16  16  16   8
#     4  11  22  34  50  76 105 136 173 214 259 313
#     4  10  19  33  50  71  99 136 176 216 260 310
#     4  10  20  32  49  76 111 151 190 224 257 298
#     4   9  18  33  53  77 105 137 174 215 263 315
#     4  10  21  39  61  83 105 133 169 216 271 324
#     4   9  18  32  49  70 101 140 176 214 262 312
#     4   8  16  28  44  64  90 128 170 208 245 290
#
# _framework density 18.371454
#
# number of rings (size 3 to 8) (size 9 to 14) (size 15 to 20)
#    0.000    2.308    0.000    4.154    1.077    5.538 
#    0.000    0.000    0.000    0.923    0.000    6.462 
#    0.000    0.000    0.000    0.000    0.000    0.000 
#
# Total GULP energy -644648.462461 kJ/mol
# GULP energy per Si atom -12397.085817 kJ/mol
# Density = 1.832964 g / cm^3
# Si number density = 18.371454 Si / 1000 Ang^3
#
#
#
# Elastic Constant Matrix: (Units=GPa)
#
#
# Indices 1 2 3 4 5 6 
#
# 1 102.5498 31.9670 45.4341 0.0000 0.0000 0.0000
# 2 31.9670 65.6274 24.0443 0.0000 0.0000 0.0000
# 3 45.4341 24.0443 83.2416 0.0000 0.0000 0.0000
# 4 0.0000 0.0000 0.0000 18.3927 0.0000 0.0000
# 5 0.0000 0.0000 0.0000 0.0000 34.9041 0.0000
# 6 0.0000 0.0000 0.0000 0.0000 0.0000 27.2224
#
#
#
# Elastic Compliance Matrix: (Units=1/GPa)
#
#
# Indices 1 2 3 4 5 6 
#
# 1 0.013947 -0.004478 -0.006319 0.000000 0.000000 0.000000
# 2 -0.004478 0.018479 -0.002893 0.000000 0.000000 0.000000
# 3 -0.006319 -0.002893 0.016298 0.000000 0.000000 0.000000
# 4 0.000000 0.000000 0.000000 0.054369 0.000000 0.000000
# 5 0.000000 0.000000 0.000000 0.000000 0.028650 0.000000
# 6 0.000000 0.000000 0.000000 0.000000 0.000000 0.036734
#
#
# Mechanical properties :
#
#
# Convention : Reuss Voigt Hill
#
# Bulk Modulus (GPa) = 46.85439 50.47885 48.66662
# Shear Modulus (GPa) = 24.63388 26.10208 25.36798
#
# Velocity S-wave (km/s) = 3.66577 3.77343 3.71999
# Velocity P-wave (km/s) = 6.59367 6.82067 6.70813
#
# Compressibility (1/GPa) = 0.02134272
#
# Stress axis : x y z
#
# Youngs Moduli (GPa) = 71.70059 54.11548 61.35810
#
# Poissons Ratio (x) = 0.24235 0.38771
# Poissons Ratio (y) = 0.32111 0.17752
# Poissons Ratio (z) = 0.45306 0.15657
#
# Static dielectric constant tensor:
#      x y z
#    x 3.317890 0.000000 0.000000 
#    y 0.000000 -8.154630 0.000000 
#    z 0.000000 0.000000 3.267030 
# 
# 
# High freq. dielectric constant tensor:
#      x y z
#    x 1.717110 0.000000 0.000000 
#    y 0.000000 1.686040 0.000000 
#    z 0.000000 0.000000 1.707620 
# 
# From -- ./inp_files/37325.got.cif
#   From: 2010.03.12/outbox.cif.g09.slc.cpg/sg67_19_cif.got.tgz:37325.got - 2010.04.10 22:41:39.
