data_PCOD8279340
_publ_section_title
;
Structure prediction by ZEFSAII (Michael W. Deem and Ramdas Pophale) SiO2 
 PCOD8279340
Probable space group: C M M A
;
_chemical_formula_sum "Si O2"
_cell_formula_units_Z 96
_cell_length_a 22.275951
_cell_length_b 18.113461
_cell_length_c 13.197514
_cell_angle_alpha 90.000000
_cell_angle_beta 90.000000
_cell_angle_gamma 90.000000
_cell_volume 5325.125232
_symmetry_space_group_name_H-M "C M M A"
_symmetry_group_IT_number 67
_symmetry_cell_setting 'orthorhombic'
loop_
_space_group_symop_operation_xyz
x,y,z
-x,1/2-y,z
x,-y,-z
-x,1/2+y,-z
-x,-y,-z
x,1/2+y,-z
-x,y,z
x,1/2-y,z
1/2+x,1/2+y,z
1/2-x,-y,z
1/2+x,1/2-y,-z
1/2-x,y,-z
1/2-x,1/2-y,-z
1/2+x,y,-z
1/2-x,1/2+y,z
1/2+x,-y,z
loop_
_atom_site_type_symbol
_atom_site_label
_atom_site_fract_x
_atom_site_fract_y
_atom_site_fract_z
Si Si1 0.568168 0.586135 0.813941
Si Si2 0.232434 0.921502 0.716922
Si Si3 0.315804 0.668644 0.452891
Si Si4 0.568277 0.665521 0.021799
Si Si5 0.350478 0.540562 0.104103
Si Si6 0.850088 0.662571 0.333504
O O1 0.500000 0.559920 0.797947
O O2 0.608102 0.514030 0.831422
O O3 0.590294 0.629184 0.715066
O O4 0.573478 0.643885 0.904913
O O5 0.181794 0.885839 0.643462
O O6 0.207252 0.935296 0.830307
O O7 0.291100 0.870020 0.722693
O O8 0.250000 0.000000 0.668123
O O9 0.335834 0.750000 0.415519
O O10 0.250000 0.672567 0.500000
O O11 0.356104 0.641150 0.547313
O O12 0.500000 0.654073 0.059635
O O13 0.588784 0.750000 0.034898
O O14 0.611967 0.614591 0.086565
O O15 0.330230 0.500000 0.000000
O O16 0.846441 0.750000 0.319802
#
# Coordination Sequence:
#
# PCOD8279340 Si02
#       6
#    16  16  16  16  16  16
#     4  10  19  35  56  79 107 143 183 225 270 318
#     4  11  20  34  53  79 104 145 177 216 262 329
#     4   8  17  33  53  76 103 133 172 219 264 312
#     4   9  18  33  54  78 102 138 188 230 265 317
#     4  10  21  36  53  76 113 144 180 223 274 319
#     4  10  20  35  54  82 111 136 175 227 273 322
#
# _framework density 18.027744999999999
#
# number of rings (size 3 to 8) (size 9 to 14) (size 15 to 20)
#    0.000    2.333    1.667    2.500    0.000    7.667 
#    0.000    0.000    0.000    6.000    0.000    0.000 
#    0.000    0.000    0.000    0.000    0.000    0.000 
#
# Total GULP energy -595032.036279 kJ/mol
# GULP energy per Si atom -12396.500756 kJ/mol
# Density = 1.798671 g / cm^3
# Si number density = 18.027745 Si / 1000 Ang^3
#
#
#
# Elastic Constant Matrix: (Units=GPa)
#
#
# Indices 1 2 3 4 5 6 
#
# 1 35.7425 16.7883 32.5605 0.0000 0.0000 0.0000
# 2 16.7883 102.0555 44.9843 0.0000 0.0000 0.0000
# 3 32.5605 44.9843 95.6087 0.0000 0.0000 0.0000
# 4 0.0000 0.0000 0.0000 27.6062 0.0000 0.0000
# 5 0.0000 0.0000 0.0000 0.0000 25.8670 0.0000
# 6 0.0000 0.0000 0.0000 0.0000 0.0000 19.2739
#
#
#
# Elastic Compliance Matrix: (Units=1/GPa)
#
#
# Indices 1 2 3 4 5 6 
#
# 1 0.040606 -0.000737 -0.013482 0.000000 0.000000 0.000000
# 2 -0.000737 0.012376 -0.005572 0.000000 0.000000 0.000000
# 3 -0.013482 -0.005572 0.017672 0.000000 0.000000 0.000000
# 4 0.000000 0.000000 0.000000 0.036224 0.000000 0.000000
# 5 0.000000 0.000000 0.000000 0.000000 0.038659 0.000000
# 6 0.000000 0.000000 0.000000 0.000000 0.000000 0.051884
#
#
# Mechanical properties :
#
#
# Convention : Reuss Voigt Hill
#
# Bulk Modulus (GPa) = 32.18319 46.89700 39.54009
# Shear Modulus (GPa) = 20.21348 23.82099 22.01724
#
# Velocity S-wave (km/s) = 3.35213 3.63898 3.49850
# Velocity P-wave (km/s) = 5.73351 6.61260 6.18869
#
# Compressibility (1/GPa) = 0.03107212
#
# Stress axis : x y z
#
# Youngs Moduli (GPa) = 24.62705 80.80275 56.58584
#
# Poissons Ratio (x) = 0.05956 0.76288
# Poissons Ratio (y) = 0.01815 0.31529
# Poissons Ratio (z) = 0.33202 0.45022
#
# Static dielectric constant tensor:
#      x y z
#    x 3.212260 0.000000 0.000000 
#    y 0.000000 3.514960 0.000000 
#    z 0.000000 0.000000 3.506800 
# 
# 
# High freq. dielectric constant tensor:
#      x y z
#    x 1.671220 0.000000 0.000000 
#    y 0.000000 1.711410 0.000000 
#    z 0.000000 0.000000 1.687600 
# 
# From -- ./inp_files/19643.got.cif
#   From: 2010.03.12/outbox.cif.g09.slc.cpg/sg67_10_cif.got.tgz:19643.got - 2010.04.10 22:41:39.
