data_PCOD8279902
_publ_section_title
;
Structure prediction by ZEFSAII (Michael W. Deem and Ramdas Pophale) SiO2 
 PCOD8279902
Probable space group: C M M A
;
_chemical_formula_sum "Si O2"
_cell_formula_units_Z 96
_cell_length_a 9.225210
_cell_length_b 18.200561
_cell_length_c 31.006665
_cell_angle_alpha 90.000000
_cell_angle_beta 90.000000
_cell_angle_gamma 90.000000
_cell_volume 5206.142998
_symmetry_space_group_name_H-M "C M M A"
_symmetry_group_IT_number 67
_symmetry_cell_setting 'orthorhombic'
loop_
_space_group_symop_operation_xyz
x,y,z
-x,1/2-y,z
x,-y,-z
-x,1/2+y,-z
-x,-y,-z
x,1/2+y,-z
-x,y,z
x,1/2-y,z
1/2+x,1/2+y,z
1/2-x,-y,z
1/2+x,1/2-y,-z
1/2-x,y,-z
1/2-x,1/2-y,-z
1/2+x,y,-z
1/2-x,1/2+y,z
1/2+x,-y,z
loop_
_atom_site_type_symbol
_atom_site_label
_atom_site_fract_x
_atom_site_fract_y
_atom_site_fract_z
Si Si1 0.158990 0.163016 0.960869
Si Si2 0.171801 0.577079 0.626360
Si Si3 0.327320 0.422757 0.791714
Si Si4 0.671619 0.667989 0.291635
Si Si5 0.169999 0.835352 0.135313
Si Si6 0.330728 0.834229 0.457688
O O1 0.150480 0.250000 0.966321
O O2 0.221196 0.145004 0.913389
O O3 0.000000 0.128455 0.964835
O O4 0.250000 0.127588 0.000000
O O5 0.250000 0.500000 0.628144
O O6 0.228917 0.624875 0.666558
O O7 0.219733 0.618273 0.582948
O O8 0.000000 0.565348 0.628474
O O9 0.500000 0.433053 0.794272
O O10 0.250000 0.500000 0.785863
O O11 0.278373 0.373506 0.751334
O O12 0.270891 0.384130 0.834678
O O13 0.500000 0.673158 0.293643
O O14 0.738691 0.750000 0.291383
O O15 0.198399 0.750000 0.145440
O O16 0.000000 0.853765 0.141728
O O17 0.500000 0.842496 0.466163
O O18 0.287850 0.750000 0.448331
O O19 0.250000 0.864370 0.500000
#
# Coordination Sequence:
#
# PCOD8279902 Si02
#       6
#    16  16  16  16  16  16
#     4   8  14  25  43  69 100 132 165 204 250 297
#     4  10  20  34  53  76 104 136 168 205 251 303
#     4  11  22  35  53  76 103 135 171 211 256 306
#     4   9  18  34  56  79 101 128 167 212 253 299
#     4   9  18  33  52  75 105 138 171 210 256 304
#     4   9  18  33  53  75  99 132 173 213 253 296
#
# _framework density 18.439755000000002
#
# number of rings (size 3 to 8) (size 9 to 14) (size 15 to 20)
#    0.000    2.667    0.000    3.000    0.000    4.667 
#    0.000    4.167    0.000    4.000    0.000    3.500 
#    0.000    0.000    0.000    0.000    0.000    0.000 
#
# Total GULP energy -595114.155223 kJ/mol
# GULP energy per Si atom -12398.211567 kJ/mol
# Density = 1.839778 g / cm^3
# Si number density = 18.439755 Si / 1000 Ang^3
#
#
#
# Elastic Constant Matrix: (Units=GPa)
#
#
# Indices 1 2 3 4 5 6 
#
# 1 52.6591 45.4545 54.6292 0.0000 0.0000 0.0000
# 2 45.4545 123.3194 84.6675 0.0000 0.0000 0.0000
# 3 54.6292 84.6675 177.0933 0.0000 0.0000 0.0000
# 4 0.0000 0.0000 0.0000 6.8862 0.0000 0.0000
# 5 0.0000 0.0000 0.0000 0.0000 26.1867 0.0000
# 6 0.0000 0.0000 0.0000 0.0000 0.0000 26.5870
#
#
#
# Elastic Compliance Matrix: (Units=1/GPa)
#
#
# Indices 1 2 3 4 5 6 
#
# 1 0.031955 -0.007459 -0.006291 0.000000 0.000000 0.000000
# 2 -0.007459 0.013812 -0.004303 0.000000 0.000000 0.000000
# 3 -0.006291 -0.004303 0.009645 0.000000 0.000000 0.000000
# 4 0.000000 0.000000 0.000000 0.145217 0.000000 0.000000
# 5 0.000000 0.000000 0.000000 0.000000 0.038187 0.000000
# 6 0.000000 0.000000 0.000000 0.000000 0.000000 0.037612
#
#
# Mechanical properties :
#
#
# Convention : Reuss Voigt Hill
#
# Bulk Modulus (GPa) = 51.79688 80.28602 66.04145
# Shear Modulus (GPa) = 15.67540 23.15336 19.41438
#
# Velocity S-wave (km/s) = 2.91879 3.54732 3.24829
# Velocity P-wave (km/s) = 6.28569 7.77252 7.06831
#
# Compressibility (1/GPa) = 0.01930618
#
# Stress axis : x y z
#
# Youngs Moduli (GPa) = 31.29372 72.39822 103.68474
#
# Poissons Ratio (x) = 0.54002 0.65232
# Poissons Ratio (y) = 0.23342 0.44613
# Poissons Ratio (z) = 0.19688 0.31151
#
# Static dielectric constant tensor:
#      x y z
#    x 3.284210 0.000000 0.000000 
#    y 0.000000 3.290260 0.000000 
#    z 0.000000 0.000000 3.656330 
# 
# 
# High freq. dielectric constant tensor:
#      x y z
#    x 1.693870 0.000000 0.000000 
#    y 0.000000 1.701040 0.000000 
#    z 0.000000 0.000000 1.734160 
# 
# From -- ./inp_files/43467.got.cif
#   From: 2010.03.12/outbox.cif.g09.slc.cpg/sg67_22_cif.got.tgz:43467.got - 2010.04.10 22:41:39.
