data_PCOD8279406
_publ_section_title
;
Structure prediction by ZEFSAII (Michael W. Deem and Ramdas Pophale) SiO2 
 PCOD8279406
Probable space group: C M M A
;
_chemical_formula_sum "Si O2"
_cell_formula_units_Z 88
_cell_length_a 10.108475
_cell_length_b 20.640512
_cell_length_c 22.380860
_cell_angle_alpha 90.000000
_cell_angle_beta 90.000000
_cell_angle_gamma 90.000000
_cell_volume 4669.634382
_symmetry_space_group_name_H-M "C M M A"
_symmetry_group_IT_number 67
_symmetry_cell_setting 'orthorhombic'
loop_
_space_group_symop_operation_xyz
x,y,z
-x,1/2-y,z
x,-y,-z
-x,1/2+y,-z
-x,-y,-z
x,1/2+y,-z
-x,y,z
x,1/2-y,z
1/2+x,1/2+y,z
1/2-x,-y,z
1/2+x,1/2-y,-z
1/2-x,y,-z
1/2-x,1/2-y,-z
1/2+x,y,-z
1/2-x,1/2+y,z
1/2+x,-y,z
loop_
_atom_site_type_symbol
_atom_site_label
_atom_site_fract_x
_atom_site_fract_y
_atom_site_fract_z
Si Si1 0.254253 0.577160 0.844130
Si Si2 0.000000 0.592294 0.363025
Si Si3 0.146211 0.750000 0.552036
Si Si4 0.233224 0.116606 0.429232
Si Si5 0.000000 0.442951 0.362603
Si Si6 0.000000 0.578727 0.233918
Si Si7 0.156497 0.823398 0.057378
Si Si8 0.000000 0.073870 0.230691
O O1 0.250000 0.500000 0.860830
O O2 0.371247 0.599039 0.801430
O O3 0.275191 0.621555 0.901947
O O4 0.124678 0.597861 0.807377
O O5 0.875151 0.614747 0.400012
O O6 0.000000 0.517486 0.348347
O O7 0.000000 0.620020 0.295667
O O8 0.250000 0.750000 0.500000
O O9 0.168751 0.814721 0.589793
O O10 0.000000 0.750000 0.524131
O O11 0.250000 0.105733 0.500000
O O12 0.132143 0.065245 0.402040
O O13 0.000000 0.401201 0.300366
O O14 0.000000 0.502117 0.239487
O O15 0.164510 0.750000 0.084428
O O16 0.000000 0.839802 0.044367
O O17 0.250000 0.825920 0.000000
#
# Coordination Sequence:
#
# PCOD8279406 Si02
#       8
#    16   8   8  16   8   8  16   8
#     4  10  19  36  61  88 116 155 204 250 285 338
#     4  11  23  35  59  89 115 153 189 237 300 366
#     4  10  22  40  62  78 102 146 192 232 283 352
#     4  11  23  37  59  83 114 151 194 244 296 357
#     4  11  21  39  57  83 123 155 187 239 302 362
#     4   9  18  37  57  81 115 152 202 236 284 346
#     4  10  22  40  62  88 124 163 196 235 291 351
#     4   9  20  33  59  85 111 158 196 236 292 348
#
# _framework density 18.845158999999999
#
# number of rings (size 3 to 8) (size 9 to 14) (size 15 to 20)
#    0.000    1.818    1.818    2.182    5.091    5.455 
#    0.000    0.909   12.000    0.000    0.000    0.000 
#    0.000    0.000    0.000    0.000    0.000    0.000 
#
# Total GULP energy -545114.962784 kJ/mol
# GULP energy per Si atom -12388.976427 kJ/mol
# Density = 1.880227 g / cm^3
# Si number density = 18.845159 Si / 1000 Ang^3
#
#
#
# Elastic Constant Matrix: (Units=GPa)
#
#
# Indices 1 2 3 4 5 6 
#
# 1 176.2638 31.8680 65.3987 0.0000 0.0000 0.0000
# 2 31.8680 60.3779 42.5169 0.0000 0.0000 0.0000
# 3 65.3987 42.5169 123.6001 0.0000 0.0000 0.0000
# 4 0.0000 0.0000 0.0000 4.1300 0.0000 0.0000
# 5 0.0000 0.0000 0.0000 0.0000 7.1399 0.0000
# 6 0.0000 0.0000 0.0000 0.0000 0.0000 17.4384
#
#
#
# Elastic Compliance Matrix: (Units=1/GPa)
#
#
# Indices 1 2 3 4 5 6 
#
# 1 0.007156 -0.001466 -0.003282 0.000000 0.000000 0.000000
# 2 -0.001466 0.022157 -0.006846 0.000000 0.000000 0.000000
# 3 -0.003282 -0.006846 0.012182 0.000000 0.000000 0.000000
# 4 0.000000 0.000000 0.000000 0.242131 0.000000 0.000000
# 5 0.000000 0.000000 0.000000 0.000000 0.140059 0.000000
# 6 0.000000 0.000000 0.000000 0.000000 0.000000 0.057345
#
#
# Mechanical properties :
#
#
# Convention : Reuss Voigt Hill
#
# Bulk Modulus (GPa) = 54.62382 71.08990 62.85686
# Shear Modulus (GPa) = 9.79776 20.43887 15.11831
#
# Velocity S-wave (km/s) = 2.28262 3.29685 2.83545
# Velocity P-wave (km/s) = 5.99964 7.23169 6.64429
#
# Compressibility (1/GPa) = 0.01830703
#
# Stress axis : x y z
#
# Youngs Moduli (GPa) = 139.74073 45.13262 82.08671
#
# Poissons Ratio (x) = 0.06616 0.26942
# Poissons Ratio (y) = 0.20483 0.56198
# Poissons Ratio (z) = 0.45865 0.30898
#
# Static dielectric constant tensor:
#      x y z
#    x 3.771590 0.000000 0.000000 
#    y 0.000000 4.584340 0.000000 
#    z 0.000000 0.000000 3.500470 
# 
# 
# High freq. dielectric constant tensor:
#      x y z
#    x 1.756990 0.000000 0.000000 
#    y 0.000000 1.714260 0.000000 
#    z 0.000000 0.000000 1.726610 
# 
# From -- ./inp_files/40748.got.cif
#   From: 2010.03.12/outbox.cif.g09.slc.cpg/sg67_21_cif.got.tgz:40748.got - 2010.04.10 22:41:39.
