data_PCOD8279141
_publ_section_title
;
Structure prediction by ZEFSAII (Michael W. Deem and Ramdas Pophale) SiO2 
 PCOD8279141
Probable space group: C M M A
;
_chemical_formula_sum "Si O2"
_cell_formula_units_Z 120
_cell_length_a 15.252981
_cell_length_b 27.725032
_cell_length_c 15.652427
_cell_angle_alpha 90.000000
_cell_angle_beta 90.000000
_cell_angle_gamma 90.000000
_cell_volume 6619.245248
_symmetry_space_group_name_H-M "C M M A"
_symmetry_group_IT_number 67
_symmetry_cell_setting 'orthorhombic'
loop_
_space_group_symop_operation_xyz
x,y,z
-x,1/2-y,z
x,-y,-z
-x,1/2+y,-z
-x,-y,-z
x,1/2+y,-z
-x,y,z
x,1/2-y,z
1/2+x,1/2+y,z
1/2-x,-y,z
1/2+x,1/2-y,-z
1/2-x,y,-z
1/2-x,1/2-y,-z
1/2+x,y,-z
1/2-x,1/2+y,z
1/2+x,-y,z
loop_
_atom_site_type_symbol
_atom_site_label
_atom_site_fract_x
_atom_site_fract_y
_atom_site_fract_z
Si Si1 0.594323 0.695202 0.399392
Si Si2 0.189589 0.194256 0.228122
Si Si3 0.596861 0.937480 0.266621
Si Si4 0.101964 0.453728 0.774878
Si Si5 0.902059 0.873464 0.896313
Si Si6 0.750000 0.146473 0.500000
Si Si7 0.104139 0.448600 0.968426
Si Si8 0.268226 0.387895 0.323339
O O1 0.500000 0.669522 0.416856
O O2 0.585755 0.750000 0.425772
O O3 0.611815 0.690502 0.297702
O O4 0.672192 0.676462 0.457727
O O5 0.218849 0.250000 0.213200
O O6 0.157757 0.171044 0.137758
O O7 0.268745 0.162650 0.269694
O O8 0.500000 0.933443 0.310226
O O9 0.592945 0.914970 0.173551
O O10 0.670252 0.910832 0.322583
O O11 0.624443 0.992369 0.252712
O O12 0.133260 0.442390 0.870792
O O13 0.156349 0.420365 0.713174
O O14 0.000000 0.442030 0.764072
O O15 0.000000 0.853463 0.916506
O O16 0.860899 0.901625 0.978631
O O17 0.707105 0.116387 0.423035
O O18 0.000000 0.450042 0.979508
O O19 0.143242 0.500000 0.000000
#
# Coordination Sequence:
#
# PCOD8279141 Si02
#       8
#    16  16  16  16  16   8  16  16
#     4   9  17  31  53  78 101 127 168 224 277 320
#     4   9  18  32  50  74 105 139 173 216 268 313
#     4   9  17  32  53  75 100 132 167 213 270 314
#     4  10  19  33  54  76 105 138 171 218 269 314
#     4   9  15  25  47  77 105 132 162 203 259 318
#     4  10  21  34  49  72 102 140 170 218 266 322
#     4   9  15  27  49  77 106 134 166 210 263 310
#     4  10  21  35  53  74 102 135 180 215 263 323
#
# _framework density 18.128955999999999
#
# number of rings (size 3 to 8) (size 9 to 14) (size 15 to 20)
#    0.000    2.667    1.333    1.000    0.000    5.067 
#    0.000    4.000    0.000    3.600    0.000    1.867 
#    0.000    0.000    0.000    0.000    0.000    0.000 
#
# Total GULP energy -743414.784499 kJ/mol
# GULP energy per Si atom -12390.246408 kJ/mol
# Density = 1.808769 g / cm^3
# Si number density = 18.128956 Si / 1000 Ang^3
#
#
#
# Elastic Constant Matrix: (Units=GPa)
#
#
# Indices 1 2 3 4 5 6 
#
# 1 43.1325 24.2460 14.1839 0.0000 0.0000 0.0000
# 2 24.2460 114.0448 38.6675 0.0000 0.0000 0.0000
# 3 14.1839 38.6675 78.4338 0.0000 0.0000 0.0000
# 4 0.0000 0.0000 0.0000 21.3711 0.0000 0.0000
# 5 0.0000 0.0000 0.0000 0.0000 21.5624 0.0000
# 6 0.0000 0.0000 0.0000 0.0000 0.0000 18.1284
#
#
#
# Elastic Compliance Matrix: (Units=1/GPa)
#
#
# Indices 1 2 3 4 5 6 
#
# 1 0.026714 -0.004853 -0.002439 0.000000 0.000000 0.000000
# 2 -0.004853 0.011410 -0.004747 0.000000 0.000000 0.000000
# 3 -0.002439 -0.004747 0.015531 0.000000 0.000000 0.000000
# 4 0.000000 0.000000 0.000000 0.046792 0.000000 0.000000
# 5 0.000000 0.000000 0.000000 0.000000 0.046377 0.000000
# 6 0.000000 0.000000 0.000000 0.000000 0.000000 0.055162
#
#
# Mechanical properties :
#
#
# Convention : Reuss Voigt Hill
#
# Bulk Modulus (GPa) = 33.80938 43.31178 38.56058
# Shear Modulus (GPa) = 21.19338 22.77996 21.98667
#
# Velocity S-wave (km/s) = 3.42282 3.54863 3.48630
# Velocity P-wave (km/s) = 5.85754 6.38226 6.12552
#
# Compressibility (1/GPa) = 0.02957759
#
# Stress axis : x y z
#
# Youngs Moduli (GPa) = 37.43338 87.64395 64.38707
#
# Poissons Ratio (x) = 0.42530 0.15702
# Poissons Ratio (y) = 0.18165 0.30567
# Poissons Ratio (z) = 0.09129 0.41608
#
# Static dielectric constant tensor:
#      x y z
#    x 3.310000 0.000000 0.000000 
#    y 0.000000 3.432770 0.000000 
#    z 0.000000 0.000000 3.347320 
# 
# 
# High freq. dielectric constant tensor:
#      x y z
#    x 1.685710 0.000000 0.000000 
#    y 0.000000 1.697590 0.000000 
#    z 0.000000 0.000000 1.683220 
# 
# From -- ./inp_files/27934.got.cif
#   From: 2010.03.12/outbox.cif.g09.slc.cpg/sg67_14_cif.got.tgz:27934.got - 2010.04.10 22:41:39.
