data_PCOD8279111
_publ_section_title
;
Structure prediction by ZEFSAII (Michael W. Deem and Ramdas Pophale) SiO2 
 PCOD8279111
Probable space group: C M M A
;
_chemical_formula_sum "Si O2"
_cell_formula_units_Z 112
_cell_length_a 26.051261
_cell_length_b 14.779334
_cell_length_c 15.283762
_cell_angle_alpha 90.000000
_cell_angle_beta 90.000000
_cell_angle_gamma 90.000000
_cell_volume 5884.558438
_symmetry_space_group_name_H-M "C M M A"
_symmetry_group_IT_number 67
_symmetry_cell_setting 'orthorhombic'
loop_
_space_group_symop_operation_xyz
x,y,z
-x,1/2-y,z
x,-y,-z
-x,1/2+y,-z
-x,-y,-z
x,1/2+y,-z
-x,y,z
x,1/2-y,z
1/2+x,1/2+y,z
1/2-x,-y,z
1/2+x,1/2-y,-z
1/2-x,y,-z
1/2-x,1/2-y,-z
1/2+x,y,-z
1/2-x,1/2+y,z
1/2+x,-y,z
loop_
_atom_site_type_symbol
_atom_site_label
_atom_site_fract_x
_atom_site_fract_y
_atom_site_fract_z
Si Si1 0.870002 0.404166 0.961837
Si Si2 0.306601 0.414629 0.742629
Si Si3 0.712653 0.347698 0.163895
Si Si4 0.058239 0.466163 0.810028
Si Si5 0.100159 0.148565 0.143861
Si Si6 0.173269 0.750000 0.425506
Si Si7 0.143854 0.094838 0.693462
Si Si8 0.207775 0.250000 0.382212
O O1 0.814353 0.370602 0.928000
O O2 0.913617 0.412158 0.887740
O O3 0.856408 0.500000 0.000000
O O4 0.892031 0.341538 0.039305
O O5 0.253885 0.419321 0.799094
O O6 0.348923 0.394057 0.815011
O O7 0.317799 0.507936 0.690706
O O8 0.307267 0.338927 0.669354
O O9 0.740302 0.250000 0.157478
O O10 0.665130 0.340058 0.230931
O O11 0.056943 0.574784 0.829879
O O12 0.086746 0.440918 0.718341
O O13 0.000000 0.432152 0.802692
O O14 0.087020 0.250000 0.179235
O O15 0.144689 0.843055 0.394192
O O16 0.174077 0.750000 0.530032
O O17 0.231420 0.750000 0.392765
#
# Coordination Sequence:
#
# PCOD8279111 Si02
#       8
#    16  16  16  16  16   8  16   8
#     4   9  20  33  48  77 109 153 197 237 278 327
#     4  11  20  35  54  81 113 153 183 222 274 331
#     4  11  18  32  54  74 111 154 190 230 269 323
#     4   9  20  37  56  78 109 146 187 240 290 327
#     4  10  19  33  52  77 111 148 192 235 275 332
#     4  11  22  38  57  87 115 145 177 224 273 339
#     4  10  20  35  58  80 112 148 183 223 280 337
#     4  11  22  36  58  86 120 142 179 218 269 341
#
# _framework density 19.032865000000001
#
# number of rings (size 3 to 8) (size 9 to 14) (size 15 to 20)
#    0.000    1.857    3.571    1.714    0.000    4.000 
#    0.000    6.786    0.000    0.000    0.000   12.000 
#    0.000    0.000    0.000    0.000    0.000    0.000 
#
# Total GULP energy -693828.559794 kJ/mol
# GULP energy per Si atom -12389.795711 kJ/mol
# Density = 1.898955 g / cm^3
# Si number density = 19.032865 Si / 1000 Ang^3
#
#
#
# Elastic Constant Matrix: (Units=GPa)
#
#
# Indices 1 2 3 4 5 6 
#
# 1 94.4430 30.8168 36.6783 0.0000 0.0000 0.0000
# 2 30.8168 117.2265 30.4387 0.0000 0.0000 0.0000
# 3 36.6783 30.4387 75.8804 0.0000 0.0000 0.0000
# 4 0.0000 0.0000 0.0000 24.4164 0.0000 0.0000
# 5 0.0000 0.0000 0.0000 0.0000 14.1342 0.0000
# 6 0.0000 0.0000 0.0000 0.0000 0.0000 19.1148
#
#
#
# Elastic Compliance Matrix: (Units=1/GPa)
#
#
# Indices 1 2 3 4 5 6 
#
# 1 0.013469 -0.002065 -0.005682 0.000000 0.000000 0.000000
# 2 -0.002065 0.009839 -0.002948 0.000000 0.000000 0.000000
# 3 -0.005682 -0.002948 0.017108 0.000000 0.000000 0.000000
# 4 0.000000 0.000000 0.000000 0.040956 0.000000 0.000000
# 5 0.000000 0.000000 0.000000 0.000000 0.070750 0.000000
# 6 0.000000 0.000000 0.000000 0.000000 0.000000 0.052315
#
#
# Mechanical properties :
#
#
# Convention : Reuss Voigt Hill
#
# Bulk Modulus (GPa) = 52.56466 53.71305 53.13885
# Shear Modulus (GPa) = 21.53587 24.17417 22.85502
#
# Velocity S-wave (km/s) = 3.36744 3.56775 3.46904
# Velocity P-wave (km/s) = 6.54197 6.72713 6.63519
#
# Compressibility (1/GPa) = 0.01902419
#
# Stress axis : x y z
#
# Youngs Moduli (GPa) = 74.24444 101.63582 58.45255
#
# Poissons Ratio (x) = 0.20992 0.33213
# Poissons Ratio (y) = 0.15334 0.17235
# Poissons Ratio (z) = 0.42186 0.29967
#
# Static dielectric constant tensor:
#      x y z
#    x 3.244570 0.000000 0.000000 
#    y 0.000000 3.584950 0.000000 
#    z 0.000000 0.000000 3.540920 
# 
# 
# High freq. dielectric constant tensor:
#      x y z
#    x 1.709400 0.000000 0.000000 
#    y 0.000000 1.757060 0.000000 
#    z 0.000000 0.000000 1.712700 
# 
# From -- ./inp_files/30860.got.cif
#   From: 2010.03.12/outbox.cif.g09.slc.cpg/sg67_16_cif.got.tgz:30860.got - 2010.04.10 22:41:39.
