data_PCOD8279162
_publ_section_title
;
Structure prediction by ZEFSAII (Michael W. Deem and Ramdas Pophale) SiO2 
 PCOD8279162
Probable space group: C M M A
;
_chemical_formula_sum "Si O2"
_cell_formula_units_Z 88
_cell_length_a 8.750929
_cell_length_b 24.840866
_cell_length_c 21.896104
_cell_angle_alpha 90.000000
_cell_angle_beta 90.000000
_cell_angle_gamma 90.000000
_cell_volume 4759.789422
_symmetry_space_group_name_H-M "C M M A"
_symmetry_group_IT_number 67
_symmetry_cell_setting 'orthorhombic'
loop_
_space_group_symop_operation_xyz
x,y,z
-x,1/2-y,z
x,-y,-z
-x,1/2+y,-z
-x,-y,-z
x,1/2+y,-z
-x,y,z
x,1/2-y,z
1/2+x,1/2+y,z
1/2-x,-y,z
1/2+x,1/2-y,-z
1/2-x,y,-z
1/2-x,1/2-y,-z
1/2+x,y,-z
1/2-x,1/2+y,z
1/2+x,-y,z
loop_
_atom_site_type_symbol
_atom_site_label
_atom_site_fract_x
_atom_site_fract_y
_atom_site_fract_z
Si Si1 0.818524 0.556913 0.802253
Si Si2 0.320179 0.944814 0.336851
Si Si3 0.320341 0.664824 0.845214
Si Si4 0.181393 0.361190 0.436386
Si Si5 0.680251 0.250000 0.613790
Si Si6 0.675027 0.250000 0.256375
Si Si7 0.181611 0.250000 0.066799
O O1 0.750000 0.500000 0.825086
O O2 0.767433 0.567300 0.732257
O O3 0.747740 0.604848 0.842258
O O4 0.000000 0.555950 0.810067
O O5 0.500000 0.949891 0.340005
O O6 0.258863 0.898564 0.381509
O O7 0.250000 0.000000 0.361093
O O8 0.500000 0.662447 0.858704
O O9 0.286711 0.696670 0.782514
O O10 0.239220 0.696036 0.900120
O O11 0.250000 0.381706 0.500000
O O12 0.246203 0.301958 0.421004
O O13 0.000000 0.362388 0.440753
O O14 0.500000 0.250000 0.610236
O O15 0.719948 0.250000 0.684769
O O16 0.500000 0.250000 0.277346
O O17 0.000000 0.250000 0.064888
O O18 0.250000 0.250000 0.000000
#
# Coordination Sequence:
#
# PCOD8279162 Si02
#       7
#    16  16  16  16   8   8   8
#     4  10  19  33  54  80 109 143 178 218 268 321
#     4   9  19  34  51  72  98 127 165 209 258 313
#     4  10  20  35  54  82 116 146 180 222 263 312
#     4  10  21  35  49  67  90 121 161 207 256 313
#     4  10  20  34  51  69  94 124 159 205 258 316
#     4   9  19  32  50  77 106 133 166 212 265 314
#     4  11  22  38  60  86 116 153 191 227 265 304
#
# _framework density 18.488212000000001
#
# number of rings (size 3 to 8) (size 9 to 14) (size 15 to 20)
#    0.000    2.182    0.000    3.818    0.000    6.182 
#    0.000    1.818    0.000    0.545    0.000    3.818 
#    0.000    0.000    0.000    0.000    0.000    0.000 
#
# Total GULP energy -545692.612458 kJ/mol
# GULP energy per Si atom -12402.104829 kJ/mol
# Density = 1.844613 g / cm^3
# Si number density = 18.488212 Si / 1000 Ang^3
#
#
#
# Elastic Constant Matrix: (Units=GPa)
#
#
# Indices 1 2 3 4 5 6 
#
# 1 69.0554 48.2328 35.6845 0.0000 0.0000 0.0000
# 2 48.2328 157.6737 56.2909 0.0000 0.0000 0.0000
# 3 35.6845 56.2909 94.2081 0.0000 0.0000 0.0000
# 4 0.0000 0.0000 0.0000 12.7982 0.0000 0.0000
# 5 0.0000 0.0000 0.0000 0.0000 30.4310 0.0000
# 6 0.0000 0.0000 0.0000 0.0000 0.0000 32.4564
#
#
#
# Elastic Compliance Matrix: (Units=1/GPa)
#
#
# Indices 1 2 3 4 5 6 
#
# 1 0.020121 -0.004365 -0.005013 0.000000 0.000000 0.000000
# 2 -0.004365 0.009009 -0.003730 0.000000 0.000000 0.000000
# 3 -0.005013 -0.003730 0.014742 0.000000 0.000000 0.000000
# 4 0.000000 0.000000 0.000000 0.078136 0.000000 0.000000
# 5 0.000000 0.000000 0.000000 0.000000 0.032861 0.000000
# 6 0.000000 0.000000 0.000000 0.000000 0.000000 0.030811
#
#
# Mechanical properties :
#
#
# Convention : Reuss Voigt Hill
#
# Bulk Modulus (GPa) = 56.63782 66.81708 61.72745
# Shear Modulus (GPa) = 22.95889 27.18571 25.07230
#
# Velocity S-wave (km/s) = 3.52776 3.83878 3.68655
# Velocity P-wave (km/s) = 6.87710 7.47444 7.18198
#
# Compressibility (1/GPa) = 0.01765605
#
# Stress axis : x y z
#
# Youngs Moduli (GPa) = 49.70032 110.99966 67.83271
#
# Poissons Ratio (x) = 0.48454 0.34005
# Poissons Ratio (y) = 0.21695 0.25299
# Poissons Ratio (z) = 0.24915 0.41398
#
# Static dielectric constant tensor:
#      x y z
#    x 3.306360 0.000000 0.000000 
#    y 0.000000 4.163560 0.000000 
#    z 0.000000 0.000000 3.225680 
# 
# 
# High freq. dielectric constant tensor:
#      x y z
#    x 1.717890 0.000000 0.000000 
#    y 0.000000 1.726700 0.000000 
#    z 0.000000 0.000000 1.697690 
# 
# From -- ./inp_files/36995.got.cif
#   From: 2010.03.12/outbox.cif.g09.slc.cpg/sg67_19_cif.got.tgz:36995.got - 2010.04.10 22:41:39.
