data_PCOD8279657
_publ_section_title
;
Structure prediction by ZEFSAII (Michael W. Deem and Ramdas Pophale) SiO2 
 PCOD8279657
Probable space group: C M M A
;
_chemical_formula_sum "Si O2"
_cell_formula_units_Z 96
_cell_length_a 19.939373
_cell_length_b 9.040352
_cell_length_c 30.538639
_cell_angle_alpha 90.000000
_cell_angle_beta 90.000000
_cell_angle_gamma 90.000000
_cell_volume 5504.863018
_symmetry_space_group_name_H-M "C M M A"
_symmetry_group_IT_number 67
_symmetry_cell_setting 'orthorhombic'
loop_
_space_group_symop_operation_xyz
x,y,z
-x,1/2-y,z
x,-y,-z
-x,1/2+y,-z
-x,-y,-z
x,1/2+y,-z
-x,y,z
x,1/2-y,z
1/2+x,1/2+y,z
1/2-x,-y,z
1/2+x,1/2-y,-z
1/2-x,y,-z
1/2-x,1/2-y,-z
1/2+x,y,-z
1/2-x,1/2+y,z
1/2+x,-y,z
loop_
_atom_site_type_symbol
_atom_site_label
_atom_site_fract_x
_atom_site_fract_y
_atom_site_fract_z
Si Si1 0.920353 0.416967 0.457373
Si Si2 0.817549 0.077185 0.204736
Si Si3 0.079843 0.586882 0.958854
Si Si4 0.421411 0.576767 0.630943
Si Si5 0.074460 0.426809 0.136596
Si Si6 0.819391 0.924422 0.694357
O O1 0.890948 0.500000 0.500000
O O2 0.891494 0.250000 0.455209
O O3 0.897231 0.508169 0.414984
O O4 0.000000 0.411895 0.460239
O O5 0.808162 0.250000 0.197554
O O6 0.876990 0.013213 0.174546
O O7 0.833865 0.040078 0.254981
O O8 0.750000 0.000000 0.189072
O O9 0.110643 0.750000 0.961950
O O10 0.098697 0.515766 0.911461
O O11 0.000000 0.592658 0.962329
O O12 0.111163 0.500000 0.000000
O O13 0.500000 0.547528 0.638854
O O14 0.404749 0.750000 0.630748
O O15 0.381503 0.495006 0.669054
O O16 0.073012 0.250000 0.135375
O O17 0.000000 0.487180 0.147168
O O18 0.814994 0.750000 0.685020
O O19 0.750000 0.000000 0.679157
#
# Coordination Sequence:
#
# PCOD8279657 Si02
#       6
#    16  16  16  16  16  16
#     4   9  16  27  45  70 100 132 165 200 239 284
#     4   9  18  32  50  69  90 119 154 191 231 280
#     4   8  13  22  38  60  86 114 144 180 222 268
#     4  10  20  33  50  74 103 132 163 202 245 285
#     4   8  14  26  45  68  91 117 151 189 228 271
#     4  10  20  34  52  72  95 126 163 201 242 291
#
# _framework density 17.439126000000002
#
# number of rings (size 3 to 8) (size 9 to 14) (size 15 to 20)
#    0.000    3.000    0.000    2.500    0.000    4.333 
#    0.000    2.500    0.000    2.500    0.000    7.000 
#    0.000    0.000    0.000    0.000    0.000    0.000 
#
# Total GULP energy -594999.544982 kJ/mol
# GULP energy per Si atom -12395.823854 kJ/mol
# Density = 1.739943 g / cm^3
# Si number density = 17.439126 Si / 1000 Ang^3
#
#
#
# Elastic Constant Matrix: (Units=GPa)
#
#
# Indices 1 2 3 4 5 6 
#
# 1 73.4838 39.3795 69.1061 0.0000 0.0000 0.0000
# 2 39.3795 85.2954 54.5544 0.0000 0.0000 0.0000
# 3 69.1061 54.5544 133.2166 0.0000 0.0000 0.0000
# 4 0.0000 0.0000 0.0000 27.9774 0.0000 0.0000
# 5 0.0000 0.0000 0.0000 0.0000 5.4996 0.0000
# 6 0.0000 0.0000 0.0000 0.0000 0.0000 22.2970
#
#
#
# Elastic Compliance Matrix: (Units=1/GPa)
#
#
# Indices 1 2 3 4 5 6 
#
# 1 0.028023 -0.004932 -0.012517 0.000000 0.000000 0.000000
# 2 -0.004932 0.016752 -0.004302 0.000000 0.000000 0.000000
# 3 -0.012517 -0.004302 0.015762 0.000000 0.000000 0.000000
# 4 0.000000 0.000000 0.000000 0.035743 0.000000 0.000000
# 5 0.000000 0.000000 0.000000 0.000000 0.181832 0.000000
# 6 0.000000 0.000000 0.000000 0.000000 0.000000 0.044849
#
#
# Mechanical properties :
#
#
# Convention : Reuss Voigt Hill
#
# Bulk Modulus (GPa) = 58.70313 68.67510 63.68912
# Shear Modulus (GPa) = 13.43574 19.75184 16.59379
#
# Velocity S-wave (km/s) = 2.77869 3.36909 3.08803
# Velocity P-wave (km/s) = 6.63548 7.38916 7.02244
#
# Compressibility (1/GPa) = 0.01703487
#
# Stress axis : x y z
#
# Youngs Moduli (GPa) = 35.68513 59.69278 63.44517
#
# Poissons Ratio (x) = 0.29439 0.79416
# Poissons Ratio (y) = 0.17599 0.27294
# Poissons Ratio (z) = 0.44668 0.25680
#
# Static dielectric constant tensor:
#      x y z
#    x 2.988580 0.000000 0.000000 
#    y 0.000000 3.260030 0.000000 
#    z 0.000000 0.000000 3.504610 
# 
# 
# High freq. dielectric constant tensor:
#      x y z
#    x 1.632600 0.000000 0.000000 
#    y 0.000000 1.665520 0.000000 
#    z 0.000000 0.000000 1.686820 
# 
# From -- ./inp_files/40791.got.cif
#   From: 2010.03.12/outbox.cif.g09.slc.cpg/sg67_21_cif.got.tgz:40791.got - 2010.04.10 22:41:39.
