data_PCOD8279727
_publ_section_title
;
Structure prediction by ZEFSAII (Michael W. Deem and Ramdas Pophale) SiO2 
 PCOD8279727
Probable space group: C M M A
;
_chemical_formula_sum "Si O2"
_cell_formula_units_Z 72
_cell_length_a 24.626840
_cell_length_b 27.460797
_cell_length_c 5.282799
_cell_angle_alpha 90.000000
_cell_angle_beta 90.000000
_cell_angle_gamma 90.000000
_cell_volume 3572.612500
_symmetry_space_group_name_H-M "C M M A"
_symmetry_group_IT_number 67
_symmetry_cell_setting 'orthorhombic'
loop_
_space_group_symop_operation_xyz
x,y,z
-x,1/2-y,z
x,-y,-z
-x,1/2+y,-z
-x,-y,-z
x,1/2+y,-z
-x,y,z
x,1/2-y,z
1/2+x,1/2+y,z
1/2-x,-y,z
1/2+x,1/2-y,-z
1/2-x,y,-z
1/2-x,1/2-y,-z
1/2+x,y,-z
1/2-x,1/2+y,z
1/2+x,-y,z
loop_
_atom_site_type_symbol
_atom_site_label
_atom_site_fract_x
_atom_site_fract_y
_atom_site_fract_z
Si Si1 0.500000 0.531836 0.254735
Si Si2 0.226906 0.944754 0.749614
Si Si3 0.564288 0.361439 0.197997
Si Si4 0.608371 0.444930 0.912224
Si Si5 0.936389 0.804084 0.688595
O O1 0.500000 0.500000 0.500000
O O2 0.554437 0.565129 0.261190
O O3 0.500000 0.500000 0.000000
O O4 0.250000 0.918188 0.500000
O O5 0.162182 0.938142 0.746351
O O6 0.250000 0.000000 0.749997
O O7 0.250000 0.918331 0.000000
O O8 0.500000 0.374835 0.210588
O O9 0.601293 0.409740 0.154950
O O10 0.577495 0.326564 0.960512
O O11 0.585990 0.336631 0.455513
O O12 0.609305 0.500000 0.000000
O O13 0.910386 0.750000 0.675503
O O14 0.000000 0.799461 0.648380
#
# Coordination Sequence:
#
# PCOD8279727 Si02
#       5
#     8  16  16  16  16
#     4  10  24  34  50  74 103 154 187 212 266 328
#     4  10  21  37  55  73  97 148 195 238 267 307
#     4  10  20  33  51  82 111 146 189 223 272 341
#     4  11  22  39  55  80 119 155 190 228 278 332
#     4   9  18  34  54  75 108 147 184 229 277 329
#
# _framework density 20.153319
#
# number of rings (size 3 to 8) (size 9 to 14) (size 15 to 20)
#    0.000    2.000    3.333    0.667    3.111    8.000 
#    0.000    0.000    0.000    0.000    0.000    0.000 
#    0.000   17.778    0.000    0.000    0.000    0.000 
#
# Total GULP energy -446094.205607 kJ/mol
# GULP energy per Si atom -12391.505711 kJ/mol
# Density = 2.010745 g / cm^3
# Si number density = 20.153319 Si / 1000 Ang^3
#
#
#
# Elastic Constant Matrix: (Units=GPa)
#
#
# Indices 1 2 3 4 5 6 
#
# 1 133.9625 -1.4396 27.4888 0.0000 0.0000 0.0000
# 2 -1.4396 68.4638 -1.5392 0.0000 0.0000 0.0000
# 3 27.4888 -1.5392 113.1418 0.0000 0.0000 0.0000
# 4 0.0000 0.0000 0.0000 17.3777 0.0000 0.0000
# 5 0.0000 0.0000 0.0000 0.0000 19.1238 0.0000
# 6 0.0000 0.0000 0.0000 0.0000 0.0000 0.8676
#
#
#
# Elastic Compliance Matrix: (Units=1/GPa)
#
#
# Indices 1 2 3 4 5 6 
#
# 1 0.007857 0.000122 -0.001907 0.000000 0.000000 0.000000
# 2 0.000122 0.014613 0.000169 0.000000 0.000000 0.000000
# 3 -0.001907 0.000169 0.009304 0.000000 0.000000 0.000000
# 4 0.000000 0.000000 0.000000 0.057545 0.000000 0.000000
# 5 0.000000 0.000000 0.000000 0.000000 0.052291 0.000000
# 6 0.000000 0.000000 0.000000 0.000000 0.000000 1.152651
#
#
# Mechanical properties :
#
#
# Convention : Reuss Voigt Hill
#
# Bulk Modulus (GPa) = 35.03566 40.50980 37.77273
# Shear Modulus (GPa) = 3.82553 26.87768 15.35160
#
# Velocity S-wave (km/s) = 1.37925 3.65589 2.76296
# Velocity P-wave (km/s) = 4.46752 6.16159 5.38163
#
# Compressibility (1/GPa) = 0.02854235
#
# Stress axis : x y z
#
# Youngs Moduli (GPa) = 127.26732 68.43394 107.47861
#
# Poissons Ratio (x) = -0.00837 0.20500
# Poissons Ratio (y) = -0.01557 -0.01817
# Poissons Ratio (z) = 0.24275 -0.01157
#
# Static dielectric constant tensor:
#      x y z
#    x 6.628800 0.000000 0.000000 
#    y 0.000000 3.573930 0.000000 
#    z 0.000000 0.000000 4.549190 
# 
# 
# High freq. dielectric constant tensor:
#      x y z
#    x 1.746490 0.000000 0.000000 
#    y 0.000000 1.752070 0.000000 
#    z 0.000000 0.000000 1.807310 
# 
# From -- ./inp_files/3444.got.cif
#   From: 2010.03.12/outbox.cif.g09.slc.cpg/sg67_2_cif.got.tgz:3444.got - 2010.04.10 22:41:39.
