data_PCOD8279950
_publ_section_title
;
Structure prediction by ZEFSAII (Michael W. Deem and Ramdas Pophale) SiO2 
 PCOD8279950
Probable space group: C M M A
;
_chemical_formula_sum "Si O2"
_cell_formula_units_Z 112
_cell_length_a 23.021100
_cell_length_b 18.778945
_cell_length_c 13.626727
_cell_angle_alpha 90.000000
_cell_angle_beta 90.000000
_cell_angle_gamma 90.000000
_cell_volume 5890.997204
_symmetry_space_group_name_H-M "C M M A"
_symmetry_group_IT_number 67
_symmetry_cell_setting 'orthorhombic'
loop_
_space_group_symop_operation_xyz
x,y,z
-x,1/2-y,z
x,-y,-z
-x,1/2+y,-z
-x,-y,-z
x,1/2+y,-z
-x,y,z
x,1/2-y,z
1/2+x,1/2+y,z
1/2-x,-y,z
1/2+x,1/2-y,-z
1/2-x,y,-z
1/2-x,1/2-y,-z
1/2+x,y,-z
1/2-x,1/2+y,z
1/2+x,-y,z
loop_
_atom_site_type_symbol
_atom_site_label
_atom_site_fract_x
_atom_site_fract_y
_atom_site_fract_z
Si Si1 0.567273 0.598351 0.160694
Si Si2 0.312700 0.834256 0.479131
Si Si3 0.148763 0.920809 0.021916
Si Si4 0.273828 0.831915 0.845577
Si Si5 0.837631 0.167523 0.266486
Si Si6 0.434869 0.062275 0.198228
Si Si7 0.369723 0.667994 0.679839
O O1 0.500000 0.617027 0.136320
O O2 0.595835 0.654938 0.234403
O O3 0.572340 0.522226 0.214973
O O4 0.608620 0.606016 0.066480
O O5 0.307762 0.750000 0.470934
O O6 0.250000 0.868021 0.500000
O O7 0.333259 0.866789 0.375066
O O8 0.355156 0.853683 0.568405
O O9 0.203645 0.872675 0.055892
O O10 0.105357 0.914357 0.111107
O O11 0.171955 0.000000 0.000000
O O12 0.269918 0.750000 0.877333
O O13 0.210548 0.863439 0.811482
O O14 0.314169 0.841677 0.750071
O O15 0.823217 0.250000 0.273485
O O16 0.500000 0.079438 0.166324
O O17 0.419193 0.110847 0.291919
O O18 0.392161 0.750000 0.686735
#
# Coordination Sequence:
#
# PCOD8279950 Si02
#       7
#    16  16  16  16  16  16  16
#     4  10  21  37  53  70 100 145 187 218 252 303
#     4   9  15  29  55  80 103 136 170 203 257 326
#     4   9  18  34  55  77 102 138 177 215 257 318
#     4   9  17  31  53  82 110 131 161 213 272 316
#     4  10  20  34  54  79 105 136 174 215 258 311
#     4   9  18  34  54  75 102 137 177 220 261 301
#     4   9  16  29  53  83 108 130 164 210 263 319
#
# _framework density 19.012060000000002
#
# number of rings (size 3 to 8) (size 9 to 14) (size 15 to 20)
#    0.000    2.714    1.429    0.429    0.000    3.429 
#    0.000   11.429    0.000    7.714    0.000    0.000 
#    0.000    0.000    0.000    0.000    0.000    0.000 
#
# Total GULP energy -693796.758264 kJ/mol
# GULP energy per Si atom -12389.227826 kJ/mol
# Density = 1.896879 g / cm^3
# Si number density = 19.012060 Si / 1000 Ang^3
#
#
#
# Elastic Constant Matrix: (Units=GPa)
#
#
# Indices 1 2 3 4 5 6 
#
# 1 90.8036 37.9626 54.4390 0.0000 0.0000 0.0000
# 2 37.9626 45.9241 45.3876 0.0000 0.0000 0.0000
# 3 54.4390 45.3876 106.9114 0.0000 0.0000 0.0000
# 4 0.0000 0.0000 0.0000 20.9097 0.0000 0.0000
# 5 0.0000 0.0000 0.0000 0.0000 61.0933 0.0000
# 6 0.0000 0.0000 0.0000 0.0000 0.0000 34.2789
#
#
#
# Elastic Compliance Matrix: (Units=1/GPa)
#
#
# Indices 1 2 3 4 5 6 
#
# 1 0.018245 -0.010166 -0.004975 0.000000 0.000000 0.000000
# 2 -0.010166 0.043180 -0.013155 0.000000 0.000000 0.000000
# 3 -0.004975 -0.013155 0.017471 0.000000 0.000000 0.000000
# 4 0.000000 0.000000 0.000000 0.047825 0.000000 0.000000
# 5 0.000000 0.000000 0.000000 0.000000 0.016368 0.000000
# 6 0.000000 0.000000 0.000000 0.000000 0.000000 0.029172
#
#
# Mechanical properties :
#
#
# Convention : Reuss Voigt Hill
#
# Bulk Modulus (GPa) = 44.83172 57.69083 51.26128
# Shear Modulus (GPa) = 21.16065 30.31304 25.73685
#
# Velocity S-wave (km/s) = 3.33980 3.99734 3.68327
# Velocity P-wave (km/s) = 6.20518 7.19133 6.71638
#
# Compressibility (1/GPa) = 0.02230564
#
# Stress axis : x y z
#
# Youngs Moduli (GPa) = 54.80876 23.15910 57.23627
#
# Poissons Ratio (x) = 0.23542 0.28474
# Poissons Ratio (y) = 0.55716 0.75294
# Poissons Ratio (z) = 0.27266 0.30466
#
# Static dielectric constant tensor:
#      x y z
#    x 3.508950 0.000000 0.000000 
#    y 0.000000 3.338040 0.000000 
#    z 0.000000 0.000000 3.730380 
# 
# 
# High freq. dielectric constant tensor:
#      x y z
#    x 1.735170 0.000000 0.000000 
#    y 0.000000 1.709290 0.000000 
#    z 0.000000 0.000000 1.742590 
# 
# From -- ./inp_files/22146.got.cif
#   From: 2010.03.12/outbox.cif.g09.slc.cpg/sg67_12_cif.got.tgz:22146.got - 2010.04.10 22:41:39.
