data_PCOD8279254
_publ_section_title
;
Structure prediction by ZEFSAII (Michael W. Deem and Ramdas Pophale) SiO2 
 PCOD8279254
Probable space group: C M M A
;
_chemical_formula_sum "Si O2"
_cell_formula_units_Z 96
_cell_length_a 23.958845
_cell_length_b 18.421089
_cell_length_c 12.150884
_cell_angle_alpha 90.000000
_cell_angle_beta 90.000000
_cell_angle_gamma 90.000000
_cell_volume 5362.768547
_symmetry_space_group_name_H-M "C M M A"
_symmetry_group_IT_number 67
_symmetry_cell_setting 'orthorhombic'
loop_
_space_group_symop_operation_xyz
x,y,z
-x,1/2-y,z
x,-y,-z
-x,1/2+y,-z
-x,-y,-z
x,1/2+y,-z
-x,y,z
x,1/2-y,z
1/2+x,1/2+y,z
1/2-x,-y,z
1/2+x,1/2-y,-z
1/2-x,y,-z
1/2-x,1/2-y,-z
1/2+x,y,-z
1/2-x,1/2+y,z
1/2+x,-y,z
loop_
_atom_site_type_symbol
_atom_site_label
_atom_site_fract_x
_atom_site_fract_y
_atom_site_fract_z
Si Si1 0.566034 0.104707 0.822719
Si Si2 0.868726 0.076437 0.559425
Si Si3 0.934754 0.556331 0.233605
Si Si4 0.434005 0.668653 0.942188
Si Si5 0.745160 0.920601 0.630601
Si Si6 0.353041 0.833658 0.351796
O O1 0.500000 0.113963 0.798693
O O2 0.582105 0.129212 0.944748
O O3 0.600791 0.155926 0.741535
O O4 0.587101 0.022302 0.805436
O O5 0.922505 0.068602 0.637094
O O6 0.819614 0.103108 0.644321
O O7 0.879122 0.134869 0.464411
O O8 0.853376 0.000000 0.500000
O O9 0.000000 0.557391 0.216572
O O10 0.908904 0.619931 0.157111
O O11 0.500000 0.674567 0.931959
O O12 0.408130 0.750000 0.937247
O O13 0.750000 0.922434 0.500000
O O14 0.793111 0.869298 0.681079
O O15 0.750000 0.000000 0.685011
O O16 0.340807 0.750000 0.370129
#
# Coordination Sequence:
#
# PCOD8279254 Si02
#       6
#    16  16  16  16  16  16
#     4  10  19  34  55  78 109 146 182 222 268 321
#     4  11  19  34  53  76 106 144 174 215 268 320
#     4  10  20  33  54  80 107 142 184 219 260 325
#     4   9  18  33  52  75 105 142 184 226 267 312
#     4   9  15  31  52  69  97 135 175 212 257 309
#     4  11  22  33  52  83 109 136 181 228 271 317
#
# _framework density 17.901201
#
# number of rings (size 3 to 8) (size 9 to 14) (size 15 to 20)
#    0.000    2.000    5.000    1.000    0.000    7.667 
#    0.000    0.000    0.000    1.000    0.000    5.833 
#    0.000    0.000    0.000    0.000    0.000    0.000 
#
# Total GULP energy -594819.998763 kJ/mol
# GULP energy per Si atom -12392.083308 kJ/mol
# Density = 1.786046 g / cm^3
# Si number density = 17.901201 Si / 1000 Ang^3
#
#
#
# Elastic Constant Matrix: (Units=GPa)
#
#
# Indices 1 2 3 4 5 6 
#
# 1 27.3760 20.9584 21.3277 0.0000 0.0000 0.0000
# 2 20.9584 131.7093 41.2569 0.0000 0.0000 0.0000
# 3 21.3277 41.2569 81.8788 0.0000 0.0000 0.0000
# 4 0.0000 0.0000 0.0000 23.6298 0.0000 0.0000
# 5 0.0000 0.0000 0.0000 0.0000 8.6894 0.0000
# 6 0.0000 0.0000 0.0000 0.0000 0.0000 21.3636
#
#
#
# Elastic Compliance Matrix: (Units=1/GPa)
#
#
# Indices 1 2 3 4 5 6 
#
# 1 0.047892 -0.004409 -0.010253 0.000000 0.000000 0.000000
# 2 -0.004409 0.009421 -0.003599 0.000000 0.000000 0.000000
# 3 -0.010253 -0.003599 0.016697 0.000000 0.000000 0.000000
# 4 0.000000 0.000000 0.000000 0.042320 0.000000 0.000000
# 5 0.000000 0.000000 0.000000 0.000000 0.115082 0.000000
# 6 0.000000 0.000000 0.000000 0.000000 0.000000 0.046809
#
#
# Mechanical properties :
#
#
# Convention : Reuss Voigt Hill
#
# Bulk Modulus (GPa) = 26.67498 45.33891 36.00694
# Shear Modulus (GPa) = 15.27937 21.23130 18.25534
#
# Velocity S-wave (km/s) = 2.92471 3.44761 3.19687
# Velocity P-wave (km/s) = 5.13213 6.42108 5.81245
#
# Compressibility (1/GPa) = 0.03748832
#
# Stress axis : x y z
#
# Youngs Moduli (GPa) = 20.88045 106.14190 59.89023
#
# Poissons Ratio (x) = 0.46799 0.61406
# Poissons Ratio (y) = 0.09206 0.21553
# Poissons Ratio (z) = 0.21409 0.38198
#
# Static dielectric constant tensor:
#      x y z
#    x 3.887670 0.000000 0.000000 
#    y 0.000000 3.527150 0.000000 
#    z 0.000000 0.000000 3.168410 
# 
# 
# High freq. dielectric constant tensor:
#      x y z
#    x 1.671750 0.000000 0.000000 
#    y 0.000000 1.697400 0.000000 
#    z 0.000000 0.000000 1.671440 
# 
# From -- ./inp_files/19637.got.cif
#   From: 2010.03.12/outbox.cif.g09.slc.cpg/sg67_10_cif.got.tgz:19637.got - 2010.04.10 22:41:39.
