data_PCOD8279963
_publ_section_title
;
Structure prediction by ZEFSAII (Michael W. Deem and Ramdas Pophale) SiO2 
 PCOD8279963
Probable space group: C M M A
;
_chemical_formula_sum "Si O2"
_cell_formula_units_Z 80
_cell_length_a 18.183924
_cell_length_b 8.850258
_cell_length_c 25.902721
_cell_angle_alpha 90.000000
_cell_angle_beta 90.000000
_cell_angle_gamma 90.000000
_cell_volume 4168.587545
_symmetry_space_group_name_H-M "C M M A"
_symmetry_group_IT_number 67
_symmetry_cell_setting 'orthorhombic'
loop_
_space_group_symop_operation_xyz
x,y,z
-x,1/2-y,z
x,-y,-z
-x,1/2+y,-z
-x,-y,-z
x,1/2+y,-z
-x,y,z
x,1/2-y,z
1/2+x,1/2+y,z
1/2-x,-y,z
1/2+x,1/2-y,-z
1/2-x,y,-z
1/2-x,1/2-y,-z
1/2+x,y,-z
1/2-x,1/2+y,z
1/2+x,-y,z
loop_
_atom_site_type_symbol
_atom_site_label
_atom_site_fract_x
_atom_site_fract_y
_atom_site_fract_z
Si Si1 0.830010 0.426844 0.162782
Si Si2 0.416347 0.071742 0.552617
Si Si3 0.829495 0.070951 0.347337
Si Si4 0.086684 0.076113 0.745937
Si Si5 0.829060 0.075550 0.048446
O O1 0.823171 0.250000 0.176216
O O2 0.750000 0.500000 0.169162
O O3 0.886792 0.508316 0.200117
O O4 0.864085 0.450106 0.105099
O O5 0.500000 0.017475 0.562446
O O6 0.412302 0.250000 0.547212
O O7 0.366662 0.013491 0.599728
O O8 0.385078 0.000000 0.500000
O O9 0.823042 0.250000 0.346129
O O10 0.750000 0.000000 0.341959
O O11 0.879117 0.018743 0.300234
O O12 0.111372 0.250000 0.741600
O O13 0.000000 0.058229 0.742895
O O14 0.820676 0.250000 0.035882
O O15 0.750000 0.000000 0.050557
O O16 0.873823 0.000000 0.000000
#
# Coordination Sequence:
#
# PCOD8279963 Si02
#       5
#    16  16  16  16  16
#     4  10  20  34  54  80 110 143 179 221 269 320
#     4   9  19  36  58  83 111 146 185 223 266 316
#     4  11  23  39  59  83 113 146 182 225 272 322
#     4  11  24  40  58  80 106 139 180 225 274 327
#     4   9  16  26  44  72 104 138 174 214 261 312
#
# _framework density 19.191154000000001
#
# number of rings (size 3 to 8) (size 9 to 14) (size 15 to 20)
#    0.000    2.000    0.000    4.200    0.000    6.800 
#    0.000    4.000    0.000    0.600    0.000    0.000 
#    0.000    0.000    0.000    0.000    0.000    0.000 
#
# Total GULP energy -495913.933803 kJ/mol
# GULP energy per Si atom -12397.848345 kJ/mol
# Density = 1.914747 g / cm^3
# Si number density = 19.191154 Si / 1000 Ang^3
#
#
#
# Elastic Constant Matrix: (Units=GPa)
#
#
# Indices 1 2 3 4 5 6 
#
# 1 65.0443 34.9979 47.4496 0.0000 0.0000 0.0000
# 2 34.9979 92.0628 55.6382 0.0000 0.0000 0.0000
# 3 47.4496 55.6382 160.2993 0.0000 0.0000 0.0000
# 4 0.0000 0.0000 0.0000 40.7700 0.0000 0.0000
# 5 0.0000 0.0000 0.0000 0.0000 -2.9342 0.0000
# 6 0.0000 0.0000 0.0000 0.0000 0.0000 16.6021
#
#
#
# Elastic Compliance Matrix: (Units=1/GPa)
#
#
# Indices 1 2 3 4 5 6 
#
# 1 0.021608 -0.005503 -0.004486 0.000000 0.000000 0.000000
# 2 -0.005503 0.015147 -0.003628 0.000000 0.000000 0.000000
# 3 -0.004486 -0.003628 0.008826 0.000000 0.000000 0.000000
# 4 0.000000 0.000000 0.000000 0.024528 0.000000 0.000000
# 5 0.000000 0.000000 0.000000 0.000000 -0.340806 0.000000
# 6 0.000000 0.000000 0.000000 0.000000 0.000000 0.060233
#
#
# Mechanical properties :
#
#
# Convention : Reuss Voigt Hill
#
# Bulk Modulus (GPa) = 54.50986 65.95310 60.23148
# Shear Modulus (GPa) = -28.23038 22.84229 -2.69405
#
# Velocity S-wave (km/s) = -3.83954 3.45374 -1.18610
# Velocity P-wave (km/s) = 2.96804 7.09545 5.43851
#
# Compressibility (1/GPa) = 0.01834530
#
# Stress axis : x y z
#
# Youngs Moduli (GPa) = 46.27995 66.01965 113.30703
#
# Poissons Ratio (x) = 0.36331 0.50829
# Poissons Ratio (y) = 0.25468 0.41112
# Poissons Ratio (z) = 0.20761 0.23955
#
# Static dielectric constant tensor:
#      x y z
#    x 3.243780 0.000000 0.000000 
#    y 0.000000 3.649640 0.000000 
#    z 0.000000 0.000000 4.288120 
# 
# 
# High freq. dielectric constant tensor:
#      x y z
#    x 1.713470 0.000000 0.000000 
#    y 0.000000 1.759720 0.000000 
#    z 0.000000 0.000000 1.773180 
# 
# From -- ./inp_files/43215.got.cif
#   From: 2010.03.12/outbox.cif.g09.slc.cpg/sg67_22_cif.got.tgz:43215.got - 2010.04.10 22:41:39.
