data_PCOD8279605
_publ_section_title
;
Structure prediction by ZEFSAII (Michael W. Deem and Ramdas Pophale) SiO2 
 PCOD8279605
Probable space group: C M M A
;
_chemical_formula_sum "Si O2"
_cell_formula_units_Z 120
_cell_length_a 8.770922
_cell_length_b 26.579650
_cell_length_c 29.315444
_cell_angle_alpha 90.000000
_cell_angle_beta 90.000000
_cell_angle_gamma 90.000000
_cell_volume 6834.251912
_symmetry_space_group_name_H-M "C M M A"
_symmetry_group_IT_number 67
_symmetry_cell_setting 'orthorhombic'
loop_
_space_group_symop_operation_xyz
x,y,z
-x,1/2-y,z
x,-y,-z
-x,1/2+y,-z
-x,-y,-z
x,1/2+y,-z
-x,y,z
x,1/2-y,z
1/2+x,1/2+y,z
1/2-x,-y,z
1/2+x,1/2-y,-z
1/2-x,y,-z
1/2-x,1/2-y,-z
1/2+x,y,-z
1/2-x,1/2+y,z
1/2+x,-y,z
loop_
_atom_site_type_symbol
_atom_site_label
_atom_site_fract_x
_atom_site_fract_y
_atom_site_fract_z
Si Si1 0.671300 0.809743 0.045358
Si Si2 0.170992 0.307212 0.691741
Si Si3 0.821439 0.052112 0.727885
Si Si4 0.322867 0.447625 0.378618
Si Si5 0.821168 0.652674 0.605416
Si Si6 0.178265 0.691449 0.138763
Si Si7 0.818501 0.750000 0.549780
Si Si8 0.180097 0.647453 0.773912
O O1 0.500000 0.831236 0.049437
O O2 0.667106 0.750000 0.042057
O O3 0.769617 0.826773 0.088882
O O4 0.750000 0.832219 0.000000
O O5 0.163654 0.250000 0.676203
O O6 0.279780 0.337111 0.657792
O O7 0.240405 0.310596 0.742153
O O8 0.000000 0.330942 0.690716
O O9 0.786728 0.061485 0.674621
O O10 0.738245 0.093383 0.758197
O O11 0.000000 0.052401 0.738131
O O12 0.750000 0.000000 0.744012
O O13 0.500000 0.450976 0.388827
O O14 0.250000 0.500000 0.395441
O O15 0.255105 0.400769 0.407893
O O16 0.759496 0.699232 0.574895
O O17 0.000000 0.646909 0.599936
O O18 0.218133 0.750000 0.146200
O O19 0.271223 0.658045 0.174506
O O20 0.000000 0.681260 0.144542
O O21 0.750000 0.750000 0.500000
O O22 0.000000 0.750000 0.548224
O O23 0.000000 0.651063 0.769147
#
# Coordination Sequence:
#
# PCOD8279605 Si02
#       8
#    16  16  16  16  16  16   8  16
#     4   9  16  27  44  65  89 120 162 209 257 308
#     4  11  22  34  49  72 102 139 178 214 254 303
#     4  10  20  34  51  72 100 132 172 212 255 303
#     4  10  20  34  55  82 111 144 179 220 267 314
#     4  11  21  36  57  83 112 141 178 221 263 313
#     4  10  20  33  47  65  94 132 172 214 258 306
#     4  10  24  42  62  88 116 148 182 222 271 318
#     4  12  23  33  48  69  99 137 173 211 257 306
#
# _framework density 17.558615
#
# number of rings (size 3 to 8) (size 9 to 14) (size 15 to 20)
#    0.000    1.600    2.000    4.000    0.000    6.933 
#    0.000    0.000    0.000    0.400    0.000    2.800 
#    0.000    0.533    0.000    5.333    0.000    3.467 
#
# Total GULP energy -744072.694533 kJ/mol
# GULP energy per Si atom -12401.211576 kJ/mol
# Density = 1.751865 g / cm^3
# Si number density = 17.558615 Si / 1000 Ang^3
#
#
#
# Elastic Constant Matrix: (Units=GPa)
#
#
# Indices 1 2 3 4 5 6 
#
# 1 99.7559 48.8684 29.5158 0.0000 0.0000 0.0000
# 2 48.8684 116.9621 40.1054 0.0000 0.0000 0.0000
# 3 29.5158 40.1054 76.7587 0.0000 0.0000 0.0000
# 4 0.0000 0.0000 0.0000 11.4579 0.0000 0.0000
# 5 0.0000 0.0000 0.0000 0.0000 28.8092 0.0000
# 6 0.0000 0.0000 0.0000 0.0000 0.0000 28.5828
#
#
#
# Elastic Compliance Matrix: (Units=1/GPa)
#
#
# Indices 1 2 3 4 5 6 
#
# 1 0.013029 -0.004539 -0.002638 0.000000 0.000000 0.000000
# 2 -0.004539 0.011997 -0.004523 0.000000 0.000000 0.000000
# 3 -0.002638 -0.004523 0.016406 0.000000 0.000000 0.000000
# 4 0.000000 0.000000 0.000000 0.087276 0.000000 0.000000
# 5 0.000000 0.000000 0.000000 0.000000 0.034711 0.000000
# 6 0.000000 0.000000 0.000000 0.000000 0.000000 0.034986
#
#
# Mechanical properties :
#
#
# Convention : Reuss Voigt Hill
#
# Bulk Modulus (GPa) = 55.46061 58.93954 57.20007
# Shear Modulus (GPa) = 21.94758 25.43578 23.69168
#
# Velocity S-wave (km/s) = 3.53931 3.81020 3.67725
# Velocity P-wave (km/s) = 6.95391 7.27991 7.11878
#
# Compressibility (1/GPa) = 0.01803082
#
# Stress axis : x y z
#
# Youngs Moduli (GPa) = 76.75414 83.35365 60.95489
#
# Poissons Ratio (x) = 0.37833 0.16082
# Poissons Ratio (y) = 0.34838 0.27570
# Poissons Ratio (z) = 0.20251 0.37701
#
# Static dielectric constant tensor:
#      x y z
#    x 3.375770 0.000000 0.000000 
#    y 0.000000 3.276560 0.000000 
#    z 0.000000 0.000000 3.121300 
# 
# 
# High freq. dielectric constant tensor:
#      x y z
#    x 1.696270 0.000000 0.000000 
#    y 0.000000 1.661940 0.000000 
#    z 0.000000 0.000000 1.654470 
# 
# From -- ./inp_files/43892.got.cif
#   From: 2010.03.12/outbox.cif.g09.slc.cpg/sg67_22_cif.got.tgz:43892.got - 2010.04.10 22:41:39.
