data_PCOD8279807
_publ_section_title
;
Structure prediction by ZEFSAII (Michael W. Deem and Ramdas Pophale) SiO2 
 PCOD8279807
Probable space group: C M M A
;
_chemical_formula_sum "Si O2"
_cell_formula_units_Z 104
_cell_length_a 8.729002
_cell_length_b 26.425123
_cell_length_c 23.140542
_cell_angle_alpha 90.000000
_cell_angle_beta 90.000000
_cell_angle_gamma 90.000000
_cell_volume 5337.711999
_symmetry_space_group_name_H-M "C M M A"
_symmetry_group_IT_number 67
_symmetry_cell_setting 'orthorhombic'
loop_
_space_group_symop_operation_xyz
x,y,z
-x,1/2-y,z
x,-y,-z
-x,1/2+y,-z
-x,-y,-z
x,1/2+y,-z
-x,y,z
x,1/2-y,z
1/2+x,1/2+y,z
1/2-x,-y,z
1/2+x,1/2-y,-z
1/2-x,y,-z
1/2-x,1/2-y,-z
1/2+x,y,-z
1/2-x,1/2+y,z
1/2+x,-y,z
loop_
_atom_site_type_symbol
_atom_site_label
_atom_site_fract_x
_atom_site_fract_y
_atom_site_fract_z
Si Si1 0.318883 0.149598 0.058782
Si Si2 0.180906 0.304614 0.821680
Si Si3 0.181649 0.554006 0.350679
Si Si4 0.679289 0.250000 0.437882
Si Si5 0.318438 0.447905 0.889393
Si Si6 0.318571 0.140238 0.436661
Si Si7 0.317791 0.408799 0.225726
O O1 0.500000 0.144504 0.053911
O O2 0.269898 0.185106 0.112146
O O3 0.246797 0.094658 0.068501
O O4 0.250000 0.173104 0.000000
O O5 0.250966 0.250000 0.802592
O O6 0.236560 0.349974 0.779917
O O7 0.000000 0.301652 0.818051
O O8 0.250000 0.500000 0.368448
O O9 0.245080 0.596439 0.394796
O O10 0.237452 0.569808 0.286974
O O11 0.000000 0.550787 0.353163
O O12 0.500000 0.250000 0.445563
O O13 0.750000 0.250000 0.500000
O O14 0.727508 0.304092 0.409065
O O15 0.500000 0.448292 0.891796
O O16 0.250000 0.500000 0.913177
O O17 0.264011 0.441135 0.823368
O O18 0.500000 0.135843 0.441867
O O19 0.250000 0.132318 0.500000
O O20 0.500000 0.413114 0.217148
#
# Coordination Sequence:
#
# PCOD8279807 Si02
#       7
#    16  16  16   8  16  16  16
#     4  10  20  34  51  74 105 136 171 210 251 304
#     4   8  15  30  52  76 102 132 165 206 255 304
#     4  10  21  35  51  75 106 139 176 218 261 314
#     4   8  14  28  50  72  98 130 166 210 255 302
#     4  11  21  34  53  75  99 131 170 211 259 308
#     4   9  18  33  52  76 105 137 176 217 263 314
#     4   9  18  34  53  75 103 133 170 212 256 309
#
# _framework density 19.484003000000001
#
# number of rings (size 3 to 8) (size 9 to 14) (size 15 to 20)
#    0.000    2.615    0.000    3.231    0.000    3.385 
#    1.385    3.077    0.000   11.077    0.000    0.000 
#    0.000    0.000    0.000    0.000    0.000    0.000 
#
# Total GULP energy -644417.603275 kJ/mol
# GULP energy per Si atom -12392.646217 kJ/mol
# Density = 1.943966 g / cm^3
# Si number density = 19.484003 Si / 1000 Ang^3
#
#
#
# Elastic Constant Matrix: (Units=GPa)
#
#
# Indices 1 2 3 4 5 6 
#
# 1 44.9875 17.0161 11.9646 0.0000 0.0000 0.0000
# 2 17.0161 143.4527 28.6031 0.0000 0.0000 0.0000
# 3 11.9646 28.6031 68.4818 0.0000 0.0000 0.0000
# 4 0.0000 0.0000 0.0000 21.9033 0.0000 0.0000
# 5 0.0000 0.0000 0.0000 0.0000 25.4431 0.0000
# 6 0.0000 0.0000 0.0000 0.0000 0.0000 19.4523
#
#
#
# Elastic Compliance Matrix: (Units=1/GPa)
#
#
# Indices 1 2 3 4 5 6 
#
# 1 0.023924 -0.002187 -0.003267 0.000000 0.000000 0.000000
# 2 -0.002187 0.007804 -0.002878 0.000000 0.000000 0.000000
# 3 -0.003267 -0.002878 0.016375 0.000000 0.000000 0.000000
# 4 0.000000 0.000000 0.000000 0.045655 0.000000 0.000000
# 5 0.000000 0.000000 0.000000 0.000000 0.039303 0.000000
# 6 0.000000 0.000000 0.000000 0.000000 0.000000 0.051408
#
#
# Mechanical properties :
#
#
# Convention : Reuss Voigt Hill
#
# Bulk Modulus (GPa) = 31.80467 41.34331 36.57399
# Shear Modulus (GPa) = 23.62819 26.64894 25.13857
#
# Velocity S-wave (km/s) = 3.48616 3.70230 3.59585
# Velocity P-wave (km/s) = 5.70643 6.28818 6.00435
#
# Compressibility (1/GPa) = 0.03144192
#
# Stress axis : x y z
#
# Youngs Moduli (GPa) = 41.79874 128.13849 61.06868
#
# Poissons Ratio (x) = 0.28018 0.19949
# Poissons Ratio (y) = 0.09139 0.17573
# Poissons Ratio (z) = 0.13654 0.36872
#
# Static dielectric constant tensor:
#      x y z
#    x 3.441910 0.000000 0.000000 
#    y 0.000000 4.133660 0.000000 
#    z 0.000000 0.000000 3.491600 
# 
# 
# High freq. dielectric constant tensor:
#      x y z
#    x 1.735570 0.000000 0.000000 
#    y 0.000000 1.776990 0.000000 
#    z 0.000000 0.000000 1.739780 
# 
# From -- ./inp_files/41040.got.cif
#   From: 2010.03.12/outbox.cif.g09.slc.cpg/sg67_21_cif.got.tgz:41040.got - 2010.04.10 22:41:39.
