data_PCOD8279848
_publ_section_title
;
Structure prediction by ZEFSAII (Michael W. Deem and Ramdas Pophale) SiO2 
 PCOD8279848
Probable space group: C M M A
;
_chemical_formula_sum "Si O2"
_cell_formula_units_Z 88
_cell_length_a 8.822225
_cell_length_b 30.276389
_cell_length_c 17.311879
_cell_angle_alpha 90.000000
_cell_angle_beta 90.000000
_cell_angle_gamma 90.000000
_cell_volume 4624.091448
_symmetry_space_group_name_H-M "C M M A"
_symmetry_group_IT_number 67
_symmetry_cell_setting 'orthorhombic'
loop_
_space_group_symop_operation_xyz
x,y,z
-x,1/2-y,z
x,-y,-z
-x,1/2+y,-z
-x,-y,-z
x,1/2+y,-z
-x,y,z
x,1/2-y,z
1/2+x,1/2+y,z
1/2-x,-y,z
1/2+x,1/2-y,-z
1/2-x,y,-z
1/2-x,1/2-y,-z
1/2+x,y,-z
1/2-x,1/2+y,z
1/2+x,-y,z
loop_
_atom_site_type_symbol
_atom_site_label
_atom_site_fract_x
_atom_site_fract_y
_atom_site_fract_z
Si Si1 0.678856 0.578833 0.423388
Si Si2 0.829978 0.663856 0.367917
Si Si3 0.679183 0.954095 0.255721
Si Si4 0.670261 0.869562 0.804496
Si Si5 0.821738 0.750000 0.583464
Si Si6 0.178635 0.699700 0.917944
O O1 0.500000 0.581253 0.432192
O O2 0.750000 0.555430 0.500000
O O3 0.747477 0.627844 0.420699
O O4 0.726430 0.553171 0.345441
O O5 0.835870 0.649517 0.280341
O O6 0.732479 0.707899 0.369233
O O7 0.000000 0.671421 0.400309
O O8 0.500000 0.955055 0.246517
O O9 0.743512 0.916397 0.198957
O O10 0.750000 0.000000 0.227751
O O11 0.500000 0.876688 0.836649
O O12 0.758608 0.834798 0.856573
O O13 0.750000 0.750000 0.500000
O O14 0.000000 0.750000 0.576682
O O15 0.221760 0.750000 0.893614
O O16 0.000000 0.693987 0.923934
O O17 0.250000 0.687950 0.000000
#
# Coordination Sequence:
#
# PCOD8279848 Si02
#       6
#    16  16  16  16   8  16
#     4  10  20  34  52  74 102 138 179 229 284 338
#     4  10  21  36  52  73 101 137 181 227 275 329
#     4  10  21  37  57  81 110 144 187 234 284 338
#     4  10  21  37  59  84 113 148 185 228 277 330
#     4  12  24  36  50  68  97 136 181 230 278 328
#     4  10  21  37  59  89 123 157 190 226 270 322
#
# _framework density 19.030764999999999
#
# number of rings (size 3 to 8) (size 9 to 14) (size 15 to 20)
#    0.000    1.818    0.000    4.091    1.273    5.818 
#    0.000    1.818    0.000    0.545    0.000    3.818 
#    0.000    0.000    0.000    0.000    0.000    0.000 
#
# Total GULP energy -545659.472241 kJ/mol
# GULP energy per Si atom -12401.351642 kJ/mol
# Density = 1.898745 g / cm^3
# Si number density = 19.030765 Si / 1000 Ang^3
#
#
#
# Elastic Constant Matrix: (Units=GPa)
#
#
# Indices 1 2 3 4 5 6 
#
# 1 122.4266 51.6856 30.9326 0.0000 0.0000 0.0000
# 2 51.6856 122.7859 31.6363 0.0000 0.0000 0.0000
# 3 30.9326 31.6363 62.0833 0.0000 0.0000 0.0000
# 4 0.0000 0.0000 0.0000 23.1446 0.0000 0.0000
# 5 0.0000 0.0000 0.0000 0.0000 33.2712 0.0000
# 6 0.0000 0.0000 0.0000 0.0000 0.0000 34.2751
#
#
#
# Elastic Compliance Matrix: (Units=1/GPa)
#
#
# Indices 1 2 3 4 5 6 
#
# 1 0.010536 -0.003548 -0.003441 0.000000 0.000000 0.000000
# 2 -0.003548 0.010570 -0.003618 0.000000 0.000000 0.000000
# 3 -0.003441 -0.003618 0.019666 0.000000 0.000000 0.000000
# 4 0.000000 0.000000 0.000000 0.043207 0.000000 0.000000
# 5 0.000000 0.000000 0.000000 0.000000 0.030056 0.000000
# 6 0.000000 0.000000 0.000000 0.000000 0.000000 0.029176
#
#
# Mechanical properties :
#
#
# Convention : Reuss Voigt Hill
#
# Bulk Modulus (GPa) = 51.13560 59.53387 55.33474
# Shear Modulus (GPa) = 29.24930 31.00760 30.12845
#
# Velocity S-wave (km/s) = 3.92465 4.04089 3.98319
# Velocity P-wave (km/s) = 6.88952 7.28852 7.09183
#
# Compressibility (1/GPa) = 0.01955585
#
# Stress axis : x y z
#
# Youngs Moduli (GPa) = 94.91632 94.60603 50.84967
#
# Poissons Ratio (x) = 0.33568 0.17498
# Poissons Ratio (y) = 0.33678 0.18400
# Poissons Ratio (z) = 0.32663 0.34233
#
# Static dielectric constant tensor:
#      x y z
#    x 3.844590 0.000000 0.000000 
#    y 0.000000 3.434010 0.000000 
#    z 0.000000 0.000000 3.522170 
# 
# 
# High freq. dielectric constant tensor:
#      x y z
#    x 1.760440 0.000000 0.000000 
#    y 0.000000 1.740060 0.000000 
#    z 0.000000 0.000000 1.718730 
# 
# From -- ./inp_files/32411.got.cif
#   From: 2010.03.12/outbox.cif.g09.slc.cpg/sg67_17_cif.got.tgz:32411.got - 2010.04.10 22:41:39.
