data_PCOD8279121
_publ_section_title
;
Structure prediction by ZEFSAII (Michael W. Deem and Ramdas Pophale) SiO2 
 PCOD8279121
Probable space group: C M M A
;
_chemical_formula_sum "Si O2"
_cell_formula_units_Z 104
_cell_length_a 27.426222
_cell_length_b 8.958969
_cell_length_c 24.017671
_cell_angle_alpha 90.000000
_cell_angle_beta 90.000000
_cell_angle_gamma 90.000000
_cell_volume 5901.398098
_symmetry_space_group_name_H-M "C M M A"
_symmetry_group_IT_number 67
_symmetry_cell_setting 'orthorhombic'
loop_
_space_group_symop_operation_xyz
x,y,z
-x,1/2-y,z
x,-y,-z
-x,1/2+y,-z
-x,-y,-z
x,1/2+y,-z
-x,y,z
x,1/2-y,z
1/2+x,1/2+y,z
1/2-x,-y,z
1/2+x,1/2-y,-z
1/2-x,y,-z
1/2-x,1/2-y,-z
1/2+x,y,-z
1/2-x,1/2+y,z
1/2+x,-y,z
loop_
_atom_site_type_symbol
_atom_site_label
_atom_site_fract_x
_atom_site_fract_y
_atom_site_fract_z
Si Si1 0.054794 0.920285 0.735215
Si Si2 0.638463 0.074464 0.326440
Si Si3 0.106432 0.074796 0.559027
Si Si4 0.698236 0.071861 0.222894
Si Si5 0.613512 0.922536 0.155940
Si Si6 0.944278 0.074731 0.940941
Si Si7 0.000000 0.922723 0.442239
O O1 0.059262 0.750000 0.715409
O O2 0.070973 0.936434 0.798903
O O3 0.000000 0.980248 0.730352
O O4 0.086742 0.019799 0.695100
O O5 0.636397 0.250000 0.323847
O O6 0.644089 0.024166 0.391604
O O7 0.681387 0.018364 0.285242
O O8 0.110289 0.250000 0.548010
O O9 0.052341 0.031810 0.584464
O O10 0.119368 0.000000 0.500000
O O11 0.700918 0.250000 0.218327
O O12 0.750000 0.000000 0.210647
O O13 0.661406 0.009402 0.176760
O O14 0.626979 0.750000 0.144342
O O15 0.593898 0.999924 0.100666
O O16 0.933571 0.250000 0.944949
O O17 0.000000 0.044804 0.921662
O O18 0.934621 0.000000 0.000000
O O19 0.000000 0.750000 0.453529
O O20 0.000000 0.000000 0.500000
#
# Coordination Sequence:
#
# PCOD8279121 Si02
#       7
#    16  16  16  16  16  16   8
#     4   9  18  30  44  67  99 132 164 200 244 294
#     4   9  19  32  48  70  95 123 160 203 248 300
#     4   9  17  29  44  64  90 123 159 198 240 289
#     4  10  20  36  56  78 100 126 163 210 263 316
#     4  10  19  33  53  76 104 137 173 214 259 305
#     4  10  20  33  51  78 113 152 190 222 252 290
#     4   8  14  24  38  56  82 116 154 186 221 268
#
# _framework density 17.622942999999999
#
# number of rings (size 3 to 8) (size 9 to 14) (size 15 to 20)
#    0.000    2.615    0.000    1.846    1.077    3.692 
#    0.000    0.000    0.000    0.923    0.000    6.462 
#    0.000    0.000    0.000    0.000    0.000    0.000 
#
# Total GULP energy -644258.714439 kJ/mol
# GULP energy per Si atom -12389.590662 kJ/mol
# Density = 1.758283 g / cm^3
# Si number density = 17.622943 Si / 1000 Ang^3
#
#
#
# Elastic Constant Matrix: (Units=GPa)
#
#
# Indices 1 2 3 4 5 6 
#
# 1 87.9616 26.6104 47.9121 0.0000 0.0000 0.0000
# 2 26.6104 40.8329 42.2524 0.0000 0.0000 0.0000
# 3 47.9121 42.2524 112.3951 0.0000 0.0000 0.0000
# 4 0.0000 0.0000 0.0000 27.9178 0.0000 0.0000
# 5 0.0000 0.0000 0.0000 0.0000 15.2576 0.0000
# 6 0.0000 0.0000 0.0000 0.0000 0.0000 24.7749
#
#
#
# Elastic Compliance Matrix: (Units=1/GPa)
#
#
# Indices 1 2 3 4 5 6 
#
# 1 0.015486 -0.005337 -0.004595 0.000000 0.000000 0.000000
# 2 -0.005337 0.041921 -0.013484 0.000000 0.000000 0.000000
# 3 -0.004595 -0.013484 0.015925 0.000000 0.000000 0.000000
# 4 0.000000 0.000000 0.000000 0.035819 0.000000 0.000000
# 5 0.000000 0.000000 0.000000 0.000000 0.065541 0.000000
# 6 0.000000 0.000000 0.000000 0.000000 0.000000 0.040363
#
#
# Mechanical properties :
#
#
# Convention : Reuss Voigt Hill
#
# Bulk Modulus (GPa) = 37.73680 52.74881 45.24280
# Shear Modulus (GPa) = 18.46911 21.88439 20.17675
#
# Velocity S-wave (km/s) = 3.24082 3.52776 3.38733
# Velocity P-wave (km/s) = 5.95515 6.82571 6.40524
#
# Compressibility (1/GPa) = 0.02649933
#
# Stress axis : x y z
#
# Youngs Moduli (GPa) = 64.57382 23.85432 62.79449
#
# Poissons Ratio (x) = 0.12732 0.28854
# Poissons Ratio (y) = 0.34466 0.84672
# Poissons Ratio (z) = 0.29672 0.32165
#
# Static dielectric constant tensor:
#      x y z
#    x 3.137940 0.000000 0.000000 
#    y 0.000000 3.292350 0.000000 
#    z 0.000000 0.000000 3.349810 
# 
# 
# High freq. dielectric constant tensor:
#      x y z
#    x 1.656620 0.000000 0.000000 
#    y 0.000000 1.686990 0.000000 
#    z 0.000000 0.000000 1.679340 
# 
# From -- ./inp_files/42934.got.cif
#   From: 2010.03.12/outbox.cif.g09.slc.cpg/sg67_22_cif.got.tgz:42934.got - 2010.04.10 22:41:39.
