data_PCOD8279367
_publ_section_title
;
Structure prediction by ZEFSAII (Michael W. Deem and Ramdas Pophale) SiO2 
 PCOD8279367
Probable space group: C M M A
;
_chemical_formula_sum "Si O2"
_cell_formula_units_Z 96
_cell_length_a 20.082043
_cell_length_b 19.427570
_cell_length_c 12.755673
_cell_angle_alpha 90.000000
_cell_angle_beta 90.000000
_cell_angle_gamma 90.000000
_cell_volume 4976.565820
_symmetry_space_group_name_H-M "C M M A"
_symmetry_group_IT_number 67
_symmetry_cell_setting 'orthorhombic'
loop_
_space_group_symop_operation_xyz
x,y,z
-x,1/2-y,z
x,-y,-z
-x,1/2+y,-z
-x,-y,-z
x,1/2+y,-z
-x,y,z
x,1/2-y,z
1/2+x,1/2+y,z
1/2-x,-y,z
1/2+x,1/2-y,-z
1/2-x,y,-z
1/2-x,1/2-y,-z
1/2+x,y,-z
1/2-x,1/2+y,z
1/2+x,-y,z
loop_
_atom_site_type_symbol
_atom_site_label
_atom_site_fract_x
_atom_site_fract_y
_atom_site_fract_z
Si Si1 0.306968 0.250000 0.084824
Si Si2 0.806047 0.827160 0.413674
Si Si3 0.657468 0.981356 0.121906
Si Si4 0.719430 0.891066 0.798466
Si Si5 0.920532 0.250000 0.072292
Si Si6 0.423175 0.127186 0.784514
Si Si7 0.076189 0.831238 0.559831
O O1 0.298599 0.318752 0.151229
O O2 0.250000 0.250000 0.000000
O O3 0.381419 0.250000 0.037360
O O4 0.816244 0.750000 0.367781
O O5 0.750000 0.825537 0.500000
O O6 0.779620 0.879572 0.325890
O O7 0.876143 0.853189 0.463645
O O8 0.713347 0.924796 0.154620
O O9 0.589154 0.946670 0.160614
O O10 0.661781 0.053274 0.182014
O O11 0.660503 0.000000 0.000000
O O12 0.894055 0.315068 0.138205
O O13 0.000000 0.250000 0.049876
O O14 0.500000 0.142424 0.773490
O O15 0.395031 0.132750 0.665959
O O16 0.080638 0.750000 0.579971
O O17 0.000000 0.853508 0.533874
#
# Coordination Sequence:
#
# PCOD8279367 Si02
#       7
#     8  16  16  16   8  16  16
#     4  12  22  36  60  83 106 143 194 242 284 331
#     4  10  20  35  57  85 113 143 187 240 291 340
#     4  11  23  39  57  81 117 158 188 230 294 349
#     4  11  22  39  56  81 113 145 193 237 283 346
#     4  10  20  34  55  87 117 141 184 242 282 325
#     4  10  19  35  59  87 115 148 192 234 281 342
#     4   9  17  33  58  86 116 150 189 235 290 345
#
# _framework density 19.290412
#
# number of rings (size 3 to 8) (size 9 to 14) (size 15 to 20)
#    0.000    1.667    1.667    5.000    0.000    0.333 
#    0.000    8.333    0.000    2.000    0.000    0.000 
#    0.000    0.000    0.000    0.000    0.000    0.000 
#
# Total GULP energy -594934.227036 kJ/mol
# GULP energy per Si atom -12394.463063 kJ/mol
# Density = 1.924651 g / cm^3
# Si number density = 19.290412 Si / 1000 Ang^3
#
#
#
# Elastic Constant Matrix: (Units=GPa)
#
#
# Indices 1 2 3 4 5 6 
#
# 1 60.6498 15.5265 30.8294 0.0000 0.0000 0.0000
# 2 15.5265 102.5160 36.8265 0.0000 0.0000 0.0000
# 3 30.8294 36.8265 111.5529 0.0000 0.0000 0.0000
# 4 0.0000 0.0000 0.0000 36.1070 0.0000 0.0000
# 5 0.0000 0.0000 0.0000 0.0000 25.2112 0.0000
# 6 0.0000 0.0000 0.0000 0.0000 0.0000 31.5446
#
#
#
# Elastic Compliance Matrix: (Units=1/GPa)
#
#
# Indices 1 2 3 4 5 6 
#
# 1 0.019300 -0.001143 -0.004957 0.000000 0.000000 0.000000
# 2 -0.001143 0.011135 -0.003360 0.000000 0.000000 0.000000
# 3 -0.004957 -0.003360 0.011443 0.000000 0.000000 0.000000
# 4 0.000000 0.000000 0.000000 0.027695 0.000000 0.000000
# 5 0.000000 0.000000 0.000000 0.000000 0.039665 0.000000
# 6 0.000000 0.000000 0.000000 0.000000 0.000000 0.031701
#
#
# Mechanical properties :
#
#
# Convention : Reuss Voigt Hill
#
# Bulk Modulus (GPa) = 43.55468 49.00928 46.28198
# Shear Modulus (GPa) = 29.84866 31.34165 30.59515
#
# Velocity S-wave (km/s) = 3.93788 4.03516 3.98682
# Velocity P-wave (km/s) = 6.58052 6.86813 6.72587
#
# Compressibility (1/GPa) = 0.02295965
#
# Stress axis : x y z
#
# Youngs Moduli (GPa) = 51.81295 89.80983 87.38599
#
# Poissons Ratio (x) = 0.10261 0.43315
# Poissons Ratio (y) = 0.05920 0.29362
# Poissons Ratio (z) = 0.25682 0.30177
#
# Static dielectric constant tensor:
#      x y z
#    x 3.655220 0.000000 0.000000 
#    y 0.000000 3.947640 0.000000 
#    z 0.000000 0.000000 3.889140 
# 
# 
# High freq. dielectric constant tensor:
#      x y z
#    x 1.743240 0.000000 0.000000 
#    y 0.000000 1.743700 0.000000 
#    z 0.000000 0.000000 1.753050 
# 
# From -- ./inp_files/21994.got.cif
#   From: 2010.03.12/outbox.cif.g09.slc.cpg/sg67_11_cif.got.tgz:21994.got - 2010.04.10 22:41:39.
