data_PCOD8279134
_publ_section_title
;
Structure prediction by ZEFSAII (Michael W. Deem and Ramdas Pophale) SiO2 
 PCOD8279134
Probable space group: C M M A
;
_chemical_formula_sum "Si O2"
_cell_formula_units_Z 96
_cell_length_a 29.759508
_cell_length_b 19.174144
_cell_length_c 9.103091
_cell_angle_alpha 90.000000
_cell_angle_beta 90.000000
_cell_angle_gamma 90.000000
_cell_volume 5194.342900
_symmetry_space_group_name_H-M "C M M A"
_symmetry_group_IT_number 67
_symmetry_cell_setting 'orthorhombic'
loop_
_space_group_symop_operation_xyz
x,y,z
-x,1/2-y,z
x,-y,-z
-x,1/2+y,-z
-x,-y,-z
x,1/2+y,-z
-x,y,z
x,1/2-y,z
1/2+x,1/2+y,z
1/2-x,-y,z
1/2+x,1/2-y,-z
1/2-x,y,-z
1/2-x,1/2-y,-z
1/2+x,y,-z
1/2-x,1/2+y,z
1/2+x,-y,z
loop_
_atom_site_type_symbol
_atom_site_label
_atom_site_fract_x
_atom_site_fract_y
_atom_site_fract_z
Si Si1 0.119772 0.932774 0.662174
Si Si2 0.883950 0.831232 0.069930
Si Si3 0.947514 0.568806 0.905362
Si Si4 0.817877 0.169915 0.176914
Si Si5 0.357579 0.416710 0.337837
Si Si6 0.730100 0.327853 0.338435
O O1 0.071111 0.939454 0.739457
O O2 0.148140 0.868221 0.716965
O O3 0.114072 0.919167 0.489064
O O4 0.147604 0.002438 0.707124
O O5 0.894090 0.750000 0.093544
O O6 0.885767 0.870885 0.224079
O O7 0.923648 0.863500 0.973142
O O8 0.834644 0.842574 0.991684
O O9 0.000000 0.583461 0.897627
O O10 0.936209 0.500000 0.000000
O O11 0.822978 0.250000 0.220508
O O12 0.766474 0.148090 0.213834
O O13 0.308250 0.385069 0.346554
O O14 0.711713 0.250000 0.297112
O O15 0.750000 0.324854 0.500000
#
# Coordination Sequence:
#
# PCOD8279134 Si02
#       6
#    16  16  16  16  16  16
#     4  10  21  36  55  83 117 148 192 233 292 356
#     4  10  21  37  60  87 117 152 192 243 298 345
#     4  10  20  40  66  85 110 149 190 238 293 358
#     4   9  19  35  54  79 110 154 202 242 278 338
#     4  11  21  34  53  84 119 153 192 241 288 343
#     4  10  19  33  53  79 113 158 205 240 283 337
#
# _framework density 18.481646000000001
#
# number of rings (size 3 to 8) (size 9 to 14) (size 15 to 20)
#    0.000    2.000    3.333    0.500    0.000    2.333 
#    0.000    5.000    0.000    2.000    0.000    0.000 
#    0.000    0.000    0.000    0.000    0.000    0.000 
#
# Total GULP energy -594894.129414 kJ/mol
# GULP energy per Si atom -12393.627696 kJ/mol
# Density = 1.843958 g / cm^3
# Si number density = 18.481646 Si / 1000 Ang^3
#
#
#
# Elastic Constant Matrix: (Units=GPa)
#
#
# Indices 1 2 3 4 5 6 
#
# 1 108.3339 46.6719 57.1598 0.0000 0.0000 0.0000
# 2 46.6719 85.4810 54.8027 0.0000 0.0000 0.0000
# 3 57.1598 54.8027 108.7364 0.0000 0.0000 0.0000
# 4 0.0000 0.0000 0.0000 27.7174 0.0000 0.0000
# 5 0.0000 0.0000 0.0000 0.0000 24.3744 0.0000
# 6 0.0000 0.0000 0.0000 0.0000 0.0000 22.8305
#
#
#
# Elastic Compliance Matrix: (Units=1/GPa)
#
#
# Indices 1 2 3 4 5 6 
#
# 1 0.013742 -0.004243 -0.005085 0.000000 0.000000 0.000000
# 2 -0.004243 0.018593 -0.007140 0.000000 0.000000 0.000000
# 3 -0.005085 -0.007140 0.015469 0.000000 0.000000 0.000000
# 4 0.000000 0.000000 0.000000 0.036078 0.000000 0.000000
# 5 0.000000 0.000000 0.000000 0.000000 0.041027 0.000000
# 6 0.000000 0.000000 0.000000 0.000000 0.000000 0.043801
#
#
# Mechanical properties :
#
#
# Convention : Reuss Voigt Hill
#
# Bulk Modulus (GPa) = 67.26690 68.86889 68.06789
# Shear Modulus (GPa) = 24.20120 24.57892 24.39006
#
# Velocity S-wave (km/s) = 3.62259 3.65075 3.63670
# Velocity P-wave (km/s) = 7.34664 7.42394 7.38539
#
# Compressibility (1/GPa) = 0.01486615
#
# Stress axis : x y z
#
# Youngs Moduli (GPa) = 72.77144 53.78445 64.64716
#
# Poissons Ratio (x) = 0.22818 0.32876
# Poissons Ratio (y) = 0.30874 0.46161
# Poissons Ratio (z) = 0.37007 0.38405
#
# Static dielectric constant tensor:
#      x y z
#    x 3.219490 0.000000 0.000000 
#    y 0.000000 3.587990 0.000000 
#    z 0.000000 0.000000 3.641750 
# 
# 
# High freq. dielectric constant tensor:
#      x y z
#    x 1.690360 0.000000 0.000000 
#    y 0.000000 1.728520 0.000000 
#    z 0.000000 0.000000 1.723490 
# 
# From -- ./inp_files/13718.got.cif
#   From: 2010.03.12/outbox.cif.g09.slc.cpg/sg67_7_cif.got.tgz:13718.got - 2010.04.10 22:41:39.
