data_PCOD8279362
_publ_section_title
;
Structure prediction by ZEFSAII (Michael W. Deem and Ramdas Pophale) SiO2 
 PCOD8279362
Probable space group: C M M A
;
_chemical_formula_sum "Si O2"
_cell_formula_units_Z 88
_cell_length_a 24.689126
_cell_length_b 33.390047
_cell_length_c 5.251586
_cell_angle_alpha 90.000000
_cell_angle_beta 90.000000
_cell_angle_gamma 90.000000
_cell_volume 4329.255610
_symmetry_space_group_name_H-M "C M M A"
_symmetry_group_IT_number 67
_symmetry_cell_setting 'orthorhombic'
loop_
_space_group_symop_operation_xyz
x,y,z
-x,1/2-y,z
x,-y,-z
-x,1/2+y,-z
-x,-y,-z
x,1/2+y,-z
-x,y,z
x,1/2-y,z
1/2+x,1/2+y,z
1/2-x,-y,z
1/2+x,1/2-y,-z
1/2-x,y,-z
1/2-x,1/2-y,-z
1/2+x,y,-z
1/2-x,1/2+y,z
1/2+x,-y,z
loop_
_atom_site_type_symbol
_atom_site_label
_atom_site_fract_x
_atom_site_fract_y
_atom_site_fract_z
Si Si1 0.311008 0.482774 0.250000
Si Si2 0.940012 0.314856 0.250000
Si Si3 0.624731 0.314297 0.249999
Si Si4 0.125719 0.091489 0.750002
Si Si5 0.785470 0.750000 0.250000
Si Si6 0.439669 0.090710 0.749999
O O1 0.340781 0.500000 0.500000
O O2 0.250000 0.500000 0.250000
O O3 0.317952 0.434244 0.250000
O O4 0.340781 0.500000 0.000000
O O5 0.908692 0.300800 0.502053
O O6 0.945467 0.361987 0.249998
O O7 0.000000 0.295502 0.250002
O O8 0.908692 0.300799 0.997947
O O9 0.639286 0.361485 0.249998
O O10 0.680397 0.290649 0.250000
O O11 0.091913 0.077822 0.503484
O O12 0.091914 0.077821 0.996521
O O13 0.750000 0.750000 0.500000
O O14 0.750000 0.750000 0.000000
O O15 0.500000 0.071612 0.749999
#
# Coordination Sequence:
#
# PCOD8279362 Si02
#       6
#    16  16  16  16   8  16
#     4  10  21  38  56  81 110 143 179 237 304 331
#     4   9  17  33  59  91 122 149 186 238 294 346
#     4  10  21  38  59  86 117 156 199 236 283 351
#     4  10  19  35  59  84 112 150 191 231 281 347
#     4  12  26  46  59  80 117 164 202 252 292 322
#     4   9  17  30  55  87 117 150 188 226 272 339
#
# _framework density 20.326819
#
# number of rings (size 3 to 8) (size 9 to 14) (size 15 to 20)
#    0.000    2.182    0.000    3.273    0.000    4.364 
#    6.545    2.727    0.000   10.909    0.000    0.000 
#    0.000    0.000    0.000    0.000    0.000    0.000 
#
# Total GULP energy -545291.279138 kJ/mol
# GULP energy per Si atom -12392.983617 kJ/mol
# Density = 2.028055 g / cm^3
# Si number density = 20.326819 Si / 1000 Ang^3
#
#
#
# Elastic Constant Matrix: (Units=GPa)
#
#
# Indices 1 2 3 4 5 6 
#
# 1 144.5411 66.5567 75.7361 0.0000 0.0000 0.0000
# 2 66.5567 97.8271 43.8393 0.0000 0.0000 0.0000
# 3 75.7361 43.8393 224.5241 0.0000 0.0000 0.0000
# 4 0.0000 0.0000 0.0000 -0.2307 0.0000 0.0000
# 5 0.0000 0.0000 0.0000 0.0000 -39.1048 0.0000
# 6 0.0000 0.0000 0.0000 0.0000 0.0000 21.0068
#
#
#
# Elastic Compliance Matrix: (Units=1/GPa)
#
#
# Indices 1 2 3 4 5 6 
#
# 1 0.011240 -0.006518 -0.002519 0.000000 0.000000 0.000000
# 2 -0.006518 0.014982 -0.000727 0.000000 0.000000 0.000000
# 3 -0.002519 -0.000727 0.005445 0.000000 0.000000 0.000000
# 4 0.000000 0.000000 0.000000 -4.333851 0.000000 0.000000
# 5 0.000000 0.000000 0.000000 0.000000 -0.025572 0.000000
# 6 0.000000 0.000000 0.000000 0.000000 0.000000 0.047604
#
#
# Mechanical properties :
#
#
# Convention : Reuss Voigt Hill
#
# Bulk Modulus (GPa) = 82.36983 93.23962 87.80472
# Shear Modulus (GPa) = -1.17465 15.05157 6.93846
#
# Velocity S-wave (km/s) = -0.76101 2.72413 1.84956
# Velocity P-wave (km/s) = 6.31178 7.47424 6.91747
#
# Compressibility (1/GPa) = 0.01214037
#
# Stress axis : x y z
#
# Youngs Moduli (GPa) = 88.97144 66.74490 183.64369
#
# Poissons Ratio (x) = 0.43506 0.46253
# Poissons Ratio (y) = 0.57993 0.13345
# Poissons Ratio (z) = 0.22408 0.04850
#
# Static dielectric constant tensor:
#      x y z
#    x 3.620410 0.000000 0.000000 
#    y 0.000000 3.437260 0.000000 
#    z 0.000000 0.000000 4.298590 
# 
# 
# High freq. dielectric constant tensor:
#      x y z
#    x 1.776560 0.000000 0.000000 
#    y 0.000000 1.775320 0.000000 
#    z 0.000000 0.000000 1.826480 
# 
# From -- ./inp_files/3606.got.cif
#   From: 2010.03.12/outbox.cif.g09.slc.cpg/sg67_2_cif.got.tgz:3606.got - 2010.04.10 22:41:39.
