data_PCOD8279460
_publ_section_title
;
Structure prediction by ZEFSAII (Michael W. Deem and Ramdas Pophale) SiO2 
 PCOD8279460
Probable space group: C M M A
;
_chemical_formula_sum "Si O2"
_cell_formula_units_Z 104
_cell_length_a 8.950873
_cell_length_b 26.463118
_cell_length_c 24.460169
_cell_angle_alpha 90.000000
_cell_angle_beta 90.000000
_cell_angle_gamma 90.000000
_cell_volume 5793.831516
_symmetry_space_group_name_H-M "C M M A"
_symmetry_group_IT_number 67
_symmetry_cell_setting 'orthorhombic'
loop_
_space_group_symop_operation_xyz
x,y,z
-x,1/2-y,z
x,-y,-z
-x,1/2+y,-z
-x,-y,-z
x,1/2+y,-z
-x,y,z
x,1/2-y,z
1/2+x,1/2+y,z
1/2-x,-y,z
1/2+x,1/2-y,-z
1/2-x,y,-z
1/2-x,1/2-y,-z
1/2+x,y,-z
1/2-x,1/2+y,z
1/2+x,-y,z
loop_
_atom_site_type_symbol
_atom_site_label
_atom_site_fract_x
_atom_site_fract_y
_atom_site_fract_z
Si Si1 0.167233 0.310339 0.946050
Si Si2 0.820582 0.750000 0.559341
Si Si3 0.176844 0.654623 0.381960
Si Si4 0.174173 0.149483 0.744824
Si Si5 0.330741 0.550445 0.386877
Si Si6 0.836634 0.192148 0.158363
Si Si7 0.832728 0.951354 0.743007
O O1 0.165824 0.250000 0.944916
O O2 0.247133 0.333062 0.891961
O O3 0.000000 0.331831 0.946875
O O4 0.250000 0.330505 0.000000
O O5 0.750000 0.750000 0.500000
O O6 0.763495 0.800204 0.589109
O O7 0.000000 0.750000 0.557046
O O8 0.211869 0.661544 0.317929
O O9 0.239159 0.600835 0.403982
O O10 0.000000 0.657234 0.394073
O O11 0.248612 0.190400 0.784245
O O12 0.240171 0.096183 0.763736
O O13 0.000000 0.149094 0.754999
O O14 0.500000 0.553505 0.410188
O O15 0.250000 0.500000 0.410730
O O16 0.335063 0.546499 0.322125
O O17 0.858500 0.250000 0.143177
O O18 0.000000 0.166345 0.164184
O O19 0.000000 0.948978 0.766343
O O20 0.750000 0.000000 0.767223
#
# Coordination Sequence:
#
# PCOD8279460 Si02
#       7
#    16   8  16  16  16  16  16
#     4   9  16  27  43  61  83 116 159 204 247 292
#     4  12  26  44  64  82 104 136 177 220 259 302
#     4  10  21  37  56  80 107 138 175 215 259 309
#     4  10  20  32  48  71 101 133 165 202 247 297
#     4   9  16  28  49  78 108 138 170 208 254 305
#     4  10  20  31  43  63  93 129 166 205 247 293
#     4   9  16  27  44  66  95 128 163 199 240 291
#
# _framework density 17.950125
#
# number of rings (size 3 to 8) (size 9 to 14) (size 15 to 20)
#    0.000    2.308    0.000    3.462    1.077    8.308 
#    0.000    0.000    0.000    0.462    0.000    3.231 
#    0.000    0.615    0.000    6.154    0.000    4.308 
#
# Total GULP energy -644649.650349 kJ/mol
# GULP energy per Si atom -12397.108661 kJ/mol
# Density = 1.790927 g / cm^3
# Si number density = 17.950125 Si / 1000 Ang^3
#
#
#
# Elastic Constant Matrix: (Units=GPa)
#
#
# Indices 1 2 3 4 5 6 
#
# 1 169.7044 53.2723 62.7045 0.0000 0.0000 0.0000
# 2 53.2723 88.1349 36.6085 0.0000 0.0000 0.0000
# 3 62.7045 36.6085 75.4454 0.0000 0.0000 0.0000
# 4 0.0000 0.0000 0.0000 0.9172 0.0000 0.0000
# 5 0.0000 0.0000 0.0000 0.0000 25.2138 0.0000
# 6 0.0000 0.0000 0.0000 0.0000 0.0000 32.6864
#
#
#
# Elastic Compliance Matrix: (Units=1/GPa)
#
#
# Indices 1 2 3 4 5 6 
#
# 1 0.009077 -0.002947 -0.006114 0.000000 0.000000 0.000000
# 2 -0.002947 0.015167 -0.004910 0.000000 0.000000 0.000000
# 3 -0.006114 -0.004910 0.020719 0.000000 0.000000 0.000000
# 4 0.000000 0.000000 0.000000 1.090333 0.000000 0.000000
# 5 0.000000 0.000000 0.000000 0.000000 0.039661 0.000000
# 6 0.000000 0.000000 0.000000 0.000000 0.000000 0.030594
#
#
# Mechanical properties :
#
#
# Convention : Reuss Voigt Hill
#
# Bulk Modulus (GPa) = 58.75374 70.93949 64.84661
# Shear Modulus (GPa) = 4.03497 23.81009 13.92253
#
# Velocity S-wave (km/s) = 1.50092 3.64601 2.78802
# Velocity P-wave (km/s) = 5.98384 7.57170 6.82411
#
# Compressibility (1/GPa) = 0.01702019
#
# Stress axis : x y z
#
# Youngs Moduli (GPa) = 110.17214 65.93260 48.26536
#
# Poissons Ratio (x) = 0.19429 0.29510
# Poissons Ratio (y) = 0.32465 0.23700
# Poissons Ratio (z) = 0.67359 0.32375
#
# Static dielectric constant tensor:
#      x y z
#    x 3.670720 0.000000 0.000000 
#    y 0.000000 3.172490 0.000000 
#    z 0.000000 0.000000 3.129120 
# 
# 
# High freq. dielectric constant tensor:
#      x y z
#    x 1.720420 0.000000 0.000000 
#    y 0.000000 1.667770 0.000000 
#    z 0.000000 0.000000 1.662580 
# 
# From -- ./inp_files/41045.got.cif
#   From: 2010.03.12/outbox.cif.g09.slc.cpg/sg67_21_cif.got.tgz:41045.got - 2010.04.10 22:41:39.
