data_PCOD8279126
_publ_section_title
;
Structure prediction by ZEFSAII (Michael W. Deem and Ramdas Pophale) SiO2 
 PCOD8279126
Probable space group: C M M A
;
_chemical_formula_sum "Si O2"
_cell_formula_units_Z 80
_cell_length_a 8.489633
_cell_length_b 27.315139
_cell_length_c 18.818255
_cell_angle_alpha 90.000000
_cell_angle_beta 90.000000
_cell_angle_gamma 90.000000
_cell_volume 4363.868755
_symmetry_space_group_name_H-M "C M M A"
_symmetry_group_IT_number 67
_symmetry_cell_setting 'orthorhombic'
loop_
_space_group_symop_operation_xyz
x,y,z
-x,1/2-y,z
x,-y,-z
-x,1/2+y,-z
-x,-y,-z
x,1/2+y,-z
-x,y,z
x,1/2-y,z
1/2+x,1/2+y,z
1/2-x,-y,z
1/2+x,1/2-y,-z
1/2-x,y,-z
1/2-x,1/2-y,-z
1/2+x,y,-z
1/2-x,1/2+y,z
1/2+x,-y,z
loop_
_atom_site_type_symbol
_atom_site_label
_atom_site_fract_x
_atom_site_fract_y
_atom_site_fract_z
Si Si1 0.315174 0.140451 0.786604
Si Si2 0.813570 0.694791 0.925915
Si Si3 0.683020 0.194254 0.343136
Si Si4 0.685589 0.107452 0.575120
Si Si5 0.684664 0.552127 0.707114
O O1 0.500000 0.129161 0.787960
O O2 0.252815 0.160679 0.861930
O O3 0.281528 0.181328 0.727137
O O4 0.222546 0.090607 0.769513
O O5 0.748015 0.750000 0.915056
O O6 0.000000 0.695402 0.926959
O O7 0.750000 0.672877 0.000000
O O8 0.500000 0.184960 0.326817
O O9 0.717145 0.250000 0.365008
O O10 0.736522 0.159996 0.408008
O O11 0.500000 0.113692 0.572500
O O12 0.750000 0.088381 0.500000
O O13 0.730499 0.067775 0.634370
O O14 0.500000 0.549698 0.693435
O O15 0.750000 0.500000 0.731922
#
# Coordination Sequence:
#
# PCOD8279126 Si02
#       5
#    16  16  16  16  16
#     4  10  19  33  53  77 105 137 173 214 259 304
#     4   9  18  31  49  76 110 145 178 210 247 295
#     4  10  20  33  50  74 103 137 176 214 254 303
#     4  11  22  37  55  76 103 134 169 211 259 308
#     4  11  22  38  58  80 103 130 168 211 259 310
#
# _framework density 18.332356999999998
#
# number of rings (size 3 to 8) (size 9 to 14) (size 15 to 20)
#    0.000    1.800    0.000    7.800    0.000    4.800 
#    0.000    4.000    0.000    0.600    0.000    4.200 
#    0.000    0.000    0.000    0.000    0.000    0.000 
#
# Total GULP energy -496131.373945 kJ/mol
# GULP energy per Si atom -12403.284349 kJ/mol
# Density = 1.829063 g / cm^3
# Si number density = 18.332357 Si / 1000 Ang^3
#
#
#
# Elastic Constant Matrix: (Units=GPa)
#
#
# Indices 1 2 3 4 5 6 
#
# 1 57.4438 26.8535 12.2231 0.0000 0.0000 0.0000
# 2 26.8535 105.3929 41.7061 0.0000 0.0000 0.0000
# 3 12.2231 41.7061 122.0035 0.0000 0.0000 0.0000
# 4 0.0000 0.0000 0.0000 -21.9003 0.0000 0.0000
# 5 0.0000 0.0000 0.0000 0.0000 31.1032 0.0000
# 6 0.0000 0.0000 0.0000 0.0000 0.0000 30.2847
#
#
#
# Elastic Compliance Matrix: (Units=1/GPa)
#
#
# Indices 1 2 3 4 5 6 
#
# 1 0.019772 -0.004919 -0.000299 0.000000 0.000000 0.000000
# 2 -0.004919 0.012197 -0.003676 0.000000 0.000000 0.000000
# 3 -0.000299 -0.003676 0.009483 0.000000 0.000000 0.000000
# 4 0.000000 0.000000 0.000000 -0.045662 0.000000 0.000000
# 5 0.000000 0.000000 0.000000 0.000000 0.032151 0.000000
# 6 0.000000 0.000000 0.000000 0.000000 0.000000 0.033020
#
#
# Mechanical properties :
#
#
# Convention : Reuss Voigt Hill
#
# Bulk Modulus (GPa) = 42.26278 49.60062 45.93170
# Shear Modulus (GPa) = 57.71136 21.50135 39.60636
#
# Velocity S-wave (km/s) = 5.61684 3.42843 4.65312
# Velocity P-wave (km/s) = 8.07273 6.54119 7.34698
#
# Compressibility (1/GPa) = 0.02366148
#
# Stress axis : x y z
#
# Youngs Moduli (GPa) = 50.57748 81.99030 105.44919
#
# Poissons Ratio (x) = 0.40333 0.03155
# Poissons Ratio (y) = 0.24881 0.38768
# Poissons Ratio (z) = 0.01513 0.30143
#
# Static dielectric constant tensor:
#      x y z
#    x 3.445860 0.000000 0.000000 
#    y 0.000000 3.488150 0.000000 
#    z 0.000000 0.000000 3.453410 
# 
# 
# High freq. dielectric constant tensor:
#      x y z
#    x 1.724380 0.000000 0.000000 
#    y 0.000000 1.701090 0.000000 
#    z 0.000000 0.000000 1.700790 
# 
# From -- ./inp_files/32145.got.cif
#   From: 2010.03.12/outbox.cif.g09.slc.cpg/sg67_17_cif.got.tgz:32145.got - 2010.04.10 22:41:39.
