data_PCOD8279846
_publ_section_title
;
Structure prediction by ZEFSAII (Michael W. Deem and Ramdas Pophale) SiO2 
 PCOD8279846
Probable space group: C M M A
;
_chemical_formula_sum "Si O2"
_cell_formula_units_Z 88
_cell_length_a 8.941380
_cell_length_b 16.100964
_cell_length_c 29.904936
_cell_angle_alpha 90.000000
_cell_angle_beta 90.000000
_cell_angle_gamma 90.000000
_cell_volume 4305.259251
_symmetry_space_group_name_H-M "C M M A"
_symmetry_group_IT_number 67
_symmetry_cell_setting 'orthorhombic'
loop_
_space_group_symop_operation_xyz
x,y,z
-x,1/2-y,z
x,-y,-z
-x,1/2+y,-z
-x,-y,-z
x,1/2+y,-z
-x,y,z
x,1/2-y,z
1/2+x,1/2+y,z
1/2-x,-y,z
1/2+x,1/2-y,-z
1/2-x,y,-z
1/2-x,1/2-y,-z
1/2+x,y,-z
1/2-x,1/2+y,z
1/2+x,-y,z
loop_
_atom_site_type_symbol
_atom_site_label
_atom_site_fract_x
_atom_site_fract_y
_atom_site_fract_z
Si Si1 0.328221 0.844563 0.681804
Si Si2 0.175601 0.911322 0.222768
Si Si3 0.835736 0.847335 0.957932
Si Si4 0.322706 0.750000 0.451909
Si Si5 0.676148 0.415332 0.600255
Si Si6 0.678935 0.590057 0.135557
O O1 0.500000 0.867872 0.671925
O O2 0.293313 0.750000 0.668930
O O3 0.291786 0.855721 0.733980
O O4 0.224807 0.903869 0.651827
O O5 0.252676 0.865878 0.179831
O O6 0.000000 0.922419 0.213595
O O7 0.250000 0.000000 0.231274
O O8 0.844141 0.750000 0.965144
O O9 0.762410 0.865500 0.909640
O O10 0.000000 0.887479 0.958482
O O11 0.750000 0.888278 0.000000
O O12 0.500000 0.750000 0.456184
O O13 0.250000 0.750000 0.500000
O O14 0.268402 0.833963 0.426888
O O15 0.500000 0.425902 0.597277
O O16 0.750000 0.500000 0.580845
O O17 0.500000 0.589494 0.138635
O O18 0.750000 0.500000 0.135062
#
# Coordination Sequence:
#
# PCOD8279846 Si02
#       6
#    16  16  16   8  16  16
#     4  10  21  37  58  86 119 156 198 245 296 351
#     4  10  20  34  52  76 107 143 184 227 275 336
#     4   9  19  35  53  73  97 127 166 211 261 321
#     4  10  24  44  66  94 130 166 210 260 309 364
#     4  11  23  41  64  94 127 165 210 257 307 366
#     4  10  20  34  52  74 102 135 173 219 270 327
#
# _framework density 20.440117000000001
#
# number of rings (size 3 to 8) (size 9 to 14) (size 15 to 20)
#    0.000    2.000    0.909    3.273    0.000    7.273 
#    0.000    3.636    0.000    0.000    0.000    0.000 
#    0.000    0.000    0.000    0.000    0.000    0.000 
#
# Total GULP energy -545444.673638 kJ/mol
# GULP energy per Si atom -12396.469855 kJ/mol
# Density = 2.039359 g / cm^3
# Si number density = 20.440117 Si / 1000 Ang^3
#
#
#
# Elastic Constant Matrix: (Units=GPa)
#
#
# Indices 1 2 3 4 5 6 
#
# 1 84.3963 38.0165 53.1260 0.0000 0.0000 0.0000
# 2 38.0165 87.9115 47.6282 0.0000 0.0000 0.0000
# 3 53.1260 47.6282 144.1830 0.0000 0.0000 0.0000
# 4 0.0000 0.0000 0.0000 31.5497 0.0000 0.0000
# 5 0.0000 0.0000 0.0000 0.0000 38.3160 0.0000
# 6 0.0000 0.0000 0.0000 0.0000 0.0000 23.7821
#
#
#
# Elastic Compliance Matrix: (Units=1/GPa)
#
#
# Indices 1 2 3 4 5 6 
#
# 1 0.016944 -0.004805 -0.004656 0.000000 0.000000 0.000000
# 2 -0.004805 0.015217 -0.003256 0.000000 0.000000 0.000000
# 3 -0.004656 -0.003256 0.009727 0.000000 0.000000 0.000000
# 4 0.000000 0.000000 0.000000 0.031696 0.000000 0.000000
# 5 0.000000 0.000000 0.000000 0.000000 0.026099 0.000000
# 6 0.000000 0.000000 0.000000 0.000000 0.000000 0.042049
#
#
# Mechanical properties :
#
#
# Convention : Reuss Voigt Hill
#
# Bulk Modulus (GPa) = 60.77659 66.00360 63.39009
# Shear Modulus (GPa) = 28.96029 30.57755 29.76892
#
# Velocity S-wave (km/s) = 3.76817 3.87196 3.82042
# Velocity P-wave (km/s) = 6.98074 7.23538 7.10920
#
# Compressibility (1/GPa) = 0.01645370
#
# Stress axis : x y z
#
# Youngs Moduli (GPa) = 59.01754 65.71588 102.80789
#
# Poissons Ratio (x) = 0.31575 0.47868
# Poissons Ratio (y) = 0.28357 0.33477
# Poissons Ratio (z) = 0.27479 0.21399
#
# Static dielectric constant tensor:
#      x y z
#    x 3.840030 0.000000 0.000000 
#    y 0.000000 3.574180 0.000000 
#    z 0.000000 0.000000 4.170180 
# 
# 
# High freq. dielectric constant tensor:
#      x y z
#    x 1.796220 0.000000 0.000000 
#    y 0.000000 1.785780 0.000000 
#    z 0.000000 0.000000 1.811970 
# 
# From -- ./inp_files/45271.got.cif
#   From: 2010.03.12/outbox.cif.g09.slc.cpg/sg67_23_cif.got.tgz:45271.got - 2010.04.10 22:41:39.
