data_PCOD8279662
_publ_section_title
;
Structure prediction by ZEFSAII (Michael W. Deem and Ramdas Pophale) SiO2 
 PCOD8279662
Probable space group: C M M A
;
_chemical_formula_sum "Si O2"
_cell_formula_units_Z 96
_cell_length_a 8.835646
_cell_length_b 18.856585
_cell_length_c 31.173199
_cell_angle_alpha 90.000000
_cell_angle_beta 90.000000
_cell_angle_gamma 90.000000
_cell_volume 5193.770109
_symmetry_space_group_name_H-M "C M M A"
_symmetry_group_IT_number 67
_symmetry_cell_setting 'orthorhombic'
loop_
_space_group_symop_operation_xyz
x,y,z
-x,1/2-y,z
x,-y,-z
-x,1/2+y,-z
-x,-y,-z
x,1/2+y,-z
-x,y,z
x,1/2-y,z
1/2+x,1/2+y,z
1/2-x,-y,z
1/2+x,1/2-y,-z
1/2-x,y,-z
1/2-x,1/2-y,-z
1/2+x,y,-z
1/2-x,1/2+y,z
1/2+x,-y,z
loop_
_atom_site_type_symbol
_atom_site_label
_atom_site_fract_x
_atom_site_fract_y
_atom_site_fract_z
Si Si1 0.325822 0.166515 0.871074
Si Si2 0.829485 0.665506 0.042601
Si Si3 0.175594 0.576510 0.201697
Si Si4 0.323893 0.923952 0.703644
Si Si5 0.179650 0.078093 0.380366
Si Si6 0.675042 0.833156 0.544743
O O1 0.500000 0.145077 0.870294
O O2 0.300803 0.250000 0.867443
O O3 0.256823 0.137092 0.915443
O O4 0.243807 0.132024 0.831030
O O5 0.825460 0.750000 0.041554
O O6 0.000000 0.636778 0.043927
O O7 0.750000 0.634792 0.000000
O O8 0.250000 0.500000 0.196375
O O9 0.200023 0.610755 0.249375
O O10 0.000000 0.566235 0.191999
O O11 0.500000 0.930009 0.691829
O O12 0.238272 0.885030 0.664191
O O13 0.250000 0.000000 0.707442
O O14 0.233769 0.126733 0.418823
O O15 0.000000 0.073004 0.380338
O O16 0.250000 0.000000 0.385221
O O17 0.500000 0.856405 0.544660
O O18 0.692680 0.750000 0.553134
O O19 0.750000 0.855366 0.500000
#
# Coordination Sequence:
#
# PCOD8279662 Si02
#       6
#    16  16  16  16  16  16
#     4  10  20  33  50  74 104 135 169 212 258 301
#     4   9  16  27  45  69  97 129 166 207 252 302
#     4  10  20  34  54  77 102 135 173 211 253 306
#     4   9  17  31  51  75 102 133 170 211 256 303
#     4  11  21  34  55  81 108 136 171 214 258 302
#     4  10  21  38  58  79 106 139 174 211 254 306
#
# _framework density 18.483684
#
# number of rings (size 3 to 8) (size 9 to 14) (size 15 to 20)
#    0.000    2.167    0.000    5.000    0.000    6.333 
#    0.000    2.500    0.000    1.500    0.000    3.500 
#    0.000    0.000    0.000    0.000    0.000    0.000 
#
# Total GULP energy -595042.137885 kJ/mol
# GULP energy per Si atom -12396.711206 kJ/mol
# Density = 1.844161 g / cm^3
# Si number density = 18.483684 Si / 1000 Ang^3
#
#
#
# Elastic Constant Matrix: (Units=GPa)
#
#
# Indices 1 2 3 4 5 6 
#
# 1 180.0115 35.9493 100.3566 0.0000 0.0000 0.0000
# 2 35.9493 21.8917 40.8338 0.0000 0.0000 0.0000
# 3 100.3566 40.8338 186.7912 0.0000 0.0000 0.0000
# 4 0.0000 0.0000 0.0000 26.5206 0.0000 0.0000
# 5 0.0000 0.0000 0.0000 0.0000 40.4022 0.0000
# 6 0.0000 0.0000 0.0000 0.0000 0.0000 25.3129
#
#
#
# Elastic Compliance Matrix: (Units=1/GPa)
#
#
# Indices 1 2 3 4 5 6 
#
# 1 0.009013 -0.009740 -0.002713 0.000000 0.000000 0.000000
# 2 -0.009740 0.087655 -0.013929 0.000000 0.000000 0.000000
# 3 -0.002713 -0.013929 0.009856 0.000000 0.000000 0.000000
# 4 0.000000 0.000000 0.000000 0.037707 0.000000 0.000000
# 5 0.000000 0.000000 0.000000 0.000000 0.024751 0.000000
# 6 0.000000 0.000000 0.000000 0.000000 0.000000 0.039505
#
#
# Mechanical properties :
#
#
# Convention : Reuss Voigt Hill
#
# Bulk Modulus (GPa) = 18.60122 82.55266 50.57694
# Shear Modulus (GPa) = 17.91019 32.55078 25.23048
#
# Velocity S-wave (km/s) = 3.11621 4.20104 3.69862
# Velocity P-wave (km/s) = 4.79928 8.26384 6.75737
#
# Compressibility (1/GPa) = 0.05375993
#
# Stress axis : x y z
#
# Youngs Moduli (GPa) = 110.95275 11.40841 101.45839
#
# Poissons Ratio (x) = 0.11111 0.27527
# Poissons Ratio (y) = 1.08064 1.41323
# Poissons Ratio (z) = 0.30103 0.15891
#
# Static dielectric constant tensor:
#      x y z
#    x 3.657250 0.000000 0.000000 
#    y 0.000000 2.983980 0.000000 
#    z 0.000000 0.000000 4.080150 
# 
# 
# High freq. dielectric constant tensor:
#      x y z
#    x 1.740520 0.000000 0.000000 
#    y 0.000000 1.664020 0.000000 
#    z 0.000000 0.000000 1.742260 
# 
# From -- ./inp_files/43503.got.cif
#   From: 2010.03.12/outbox.cif.g09.slc.cpg/sg67_22_cif.got.tgz:43503.got - 2010.04.10 22:41:39.
