data_PCOD8279196
_publ_section_title
;
Structure prediction by ZEFSAII (Michael W. Deem and Ramdas Pophale) SiO2 
 PCOD8279196
Probable space group: C M M A
;
_chemical_formula_sum "Si O2"
_cell_formula_units_Z 104
_cell_length_a 29.638039
_cell_length_b 9.101939
_cell_length_c 20.286389
_cell_angle_alpha 90.000000
_cell_angle_beta 90.000000
_cell_angle_gamma 90.000000
_cell_volume 5472.529795
_symmetry_space_group_name_H-M "C M M A"
_symmetry_group_IT_number 67
_symmetry_cell_setting 'orthorhombic'
loop_
_space_group_symop_operation_xyz
x,y,z
-x,1/2-y,z
x,-y,-z
-x,1/2+y,-z
-x,-y,-z
x,1/2+y,-z
-x,y,z
x,1/2-y,z
1/2+x,1/2+y,z
1/2-x,-y,z
1/2+x,1/2-y,-z
1/2-x,y,-z
1/2-x,1/2-y,-z
1/2+x,y,-z
1/2-x,1/2+y,z
1/2+x,-y,z
loop_
_atom_site_type_symbol
_atom_site_label
_atom_site_fract_x
_atom_site_fract_y
_atom_site_fract_z
Si Si1 0.902453 0.920327 0.569038
Si Si2 0.500000 0.083987 0.565981
Si Si3 0.877074 0.076202 0.291365
Si Si4 0.550757 0.423585 0.812168
Si Si5 0.291690 0.588223 0.756542
Si Si6 0.706985 0.585432 0.910286
Si Si7 0.387225 0.073901 0.933986
O O1 0.895177 0.750000 0.553538
O O2 0.872966 0.972285 0.631405
O O3 0.952530 0.952047 0.600715
O O4 0.891442 0.000000 0.500000
O O5 0.500000 0.250000 0.543918
O O6 0.500000 0.000000 0.500000
O O7 0.871052 0.250000 0.285015
O O8 0.923719 0.028787 0.255337
O O9 0.837341 0.999076 0.253288
O O10 0.500000 0.492314 0.812838
O O11 0.546498 0.250000 0.815052
O O12 0.579957 0.477651 0.874778
O O13 0.294282 0.750000 0.723778
O O14 0.250000 0.500000 0.723939
O O15 0.283957 0.604388 0.833501
O O16 0.701859 0.750000 0.941238
O O17 0.750000 0.500000 0.941474
O O18 0.662890 0.488669 0.923811
O O19 0.385134 0.250000 0.939695
O O20 0.407541 0.000000 0.000000
#
# Coordination Sequence:
#
# PCOD8279196 Si02
#       7
#    16   8  16  16  16  16  16
#     4   9  18  30  48  74 107 145 183 223 267 319
#     4   8  14  26  42  66  98 136 177 214 256 305
#     4  10  19  33  56  83 110 143 184 227 270 320
#     4   9  19  35  56  81 108 141 186 232 271 315
#     4  10  20  34  56  83 112 142 176 220 272 327
#     4  10  20  35  56  82 112 142 176 218 271 330
#     4  11  22  37  57  80 109 145 184 227 274 323
#
# _framework density 19.004007000000001
#
# number of rings (size 3 to 8) (size 9 to 14) (size 15 to 20)
#    0.000    2.308    1.538    1.385    1.077    2.462 
#    0.000    1.538    0.000    4.154    0.000    3.231 
#    0.000    0.000    0.000    0.000    0.000    0.000 
#
# Total GULP energy -644181.370935 kJ/mol
# GULP energy per Si atom -12388.103287 kJ/mol
# Density = 1.896075 g / cm^3
# Si number density = 19.004007 Si / 1000 Ang^3
#
#
#
# Elastic Constant Matrix: (Units=GPa)
#
#
# Indices 1 2 3 4 5 6 
#
# 1 115.2151 41.0846 35.4819 0.0000 0.0000 0.0000
# 2 41.0846 77.2811 38.6288 0.0000 0.0000 0.0000
# 3 35.4819 38.6288 95.5572 0.0000 0.0000 0.0000
# 4 0.0000 0.0000 0.0000 21.8696 0.0000 0.0000
# 5 0.0000 0.0000 0.0000 0.0000 -4.8046 0.0000
# 6 0.0000 0.0000 0.0000 0.0000 0.0000 23.4891
#
#
#
# Elastic Compliance Matrix: (Units=1/GPa)
#
#
# Indices 1 2 3 4 5 6 
#
# 1 0.011057 -0.004795 -0.002167 0.000000 0.000000 0.000000
# 2 -0.004795 0.018296 -0.005616 0.000000 0.000000 0.000000
# 3 -0.002167 -0.005616 0.013540 0.000000 0.000000 0.000000
# 4 0.000000 0.000000 0.000000 0.045726 0.000000 0.000000
# 5 0.000000 0.000000 0.000000 0.000000 -0.208134 0.000000
# 6 0.000000 0.000000 0.000000 0.000000 0.000000 0.042573
#
#
# Mechanical properties :
#
#
# Convention : Reuss Voigt Hill
#
# Bulk Modulus (GPa) = 56.37957 57.60490 56.99223
# Shear Modulus (GPa) = -108.98901 19.63469 -44.67716
#
# Velocity S-wave (km/s) = -7.58123 3.21781 -4.85390
# Velocity P-wave (km/s) = 6.84849 6.64707 1.16582
#
# Compressibility (1/GPa) = 0.01773692
#
# Stress axis : x y z
#
# Youngs Moduli (GPa) = 90.44392 54.65755 73.85631
#
# Poissons Ratio (x) = 0.26206 0.16007
# Poissons Ratio (y) = 0.43365 0.41475
# Poissons Ratio (z) = 0.19601 0.30694
#
# Static dielectric constant tensor:
#      x y z
#    x 3.532550 0.000000 0.000000 
#    y 0.000000 3.516720 0.000000 
#    z 0.000000 0.000000 3.445470 
# 
# 
# High freq. dielectric constant tensor:
#      x y z
#    x 1.733490 0.000000 0.000000 
#    y 0.000000 1.727730 0.000000 
#    z 0.000000 0.000000 1.729300 
# 
# From -- ./inp_files/40188.got.cif
#   From: 2010.03.12/outbox.cif.g09.slc.cpg/sg67_21_cif.got.tgz:40188.got - 2010.04.10 22:41:39.
