data_PCOD8279739
_publ_section_title
;
Structure prediction by ZEFSAII (Michael W. Deem and Ramdas Pophale) SiO2 
 PCOD8279739
Probable space group: C M M A
;
_chemical_formula_sum "Si O2"
_cell_formula_units_Z 112
_cell_length_a 24.693049
_cell_length_b 20.026705
_cell_length_c 11.841958
_cell_angle_alpha 90.000000
_cell_angle_beta 90.000000
_cell_angle_gamma 90.000000
_cell_volume 5856.089900
_symmetry_space_group_name_H-M "C M M A"
_symmetry_group_IT_number 67
_symmetry_cell_setting 'orthorhombic'
loop_
_space_group_symop_operation_xyz
x,y,z
-x,1/2-y,z
x,-y,-z
-x,1/2+y,-z
-x,-y,-z
x,1/2+y,-z
-x,y,z
x,1/2-y,z
1/2+x,1/2+y,z
1/2-x,-y,z
1/2+x,1/2-y,-z
1/2-x,y,-z
1/2-x,1/2-y,-z
1/2+x,y,-z
1/2-x,1/2+y,z
1/2+x,-y,z
loop_
_atom_site_type_symbol
_atom_site_label
_atom_site_fract_x
_atom_site_fract_y
_atom_site_fract_z
Si Si1 0.063345 0.631919 0.743119
Si Si2 0.158947 0.676857 0.128717
Si Si3 0.436895 0.324227 0.500001
Si Si4 0.250001 0.423056 0.134584
Si Si5 0.158950 0.176857 0.128713
Si Si6 0.436651 0.631910 0.743110
Si Si7 0.063286 0.000005 0.873842
O O1 0.078551 0.632712 0.610371
O O2 0.102251 0.684249 0.804528
O O3 0.080886 0.562305 0.798830
O O4 0.000000 0.649419 0.763165
O O5 0.187299 0.750000 0.137539
O O6 0.197656 0.618354 0.178525
O O7 0.102246 0.684248 0.195471
O O8 0.144747 0.659635 0.000001
O O9 0.500000 0.311457 0.499985
O O10 0.409291 0.250000 0.500008
O O11 0.421441 0.367288 0.389636
O O12 0.250000 0.500000 0.179733
O O13 0.197657 0.381647 0.178523
O O14 0.250000 0.422254 0.000000
O O15 0.187303 0.250000 0.137533
O O16 0.500000 0.649391 0.763155
O O17 0.419088 0.562300 0.798815
O O18 0.000000 0.000041 0.892887
O O19 0.090793 0.000000 0.000000
#
# Coordination Sequence:
#
# PCOD8279739 Si02
#       7
#    16  16  16  16  16  16  16
#     4  10  20  33  52  78 110 147 183 222 272 324
#     4  10  20  33  52  79 110 141 177 226 278 331
#     4   9  18  33  51  72 103 145 192 232 263 313
#     4   9  19  35  55  76 101 138 182 224 272 334
#     4  10  20  33  52  79 110 141 177 226 278 331
#     4  10  20  33  52  78 110 147 183 222 272 324
#     4   9  18  31  47  72 108 144 176 217 269 329
#
# _framework density 19.125389999999999
#
# number of rings (size 3 to 8) (size 9 to 14) (size 15 to 20)
#    0.000    2.429    0.000    2.143    2.000    5.714 
#    0.000    4.286    0.000    0.857    0.000    4.000 
#    0.000    0.000    0.000    0.000    0.000    0.000 
#
# Total GULP energy -693759.971094 kJ/mol
# GULP energy per Si atom -12388.570912 kJ/mol
# Density = 1.908186 g / cm^3
# Si number density = 19.125390 Si / 1000 Ang^3
#
#
#
# Elastic Constant Matrix: (Units=GPa)
#
#
# Indices 1 2 3 4 5 6 
#
# 1 90.3720 35.8705 36.1446 0.0000 0.0000 0.0000
# 2 35.8705 130.5606 61.5962 0.0000 0.0000 0.0000
# 3 36.1446 61.5962 130.8789 0.0000 0.0000 0.0000
# 4 0.0000 0.0000 0.0000 12.7041 0.0000 0.0000
# 5 0.0000 0.0000 0.0000 0.0000 12.5238 0.0000
# 6 0.0000 0.0000 0.0000 0.0000 0.0000 20.2186
#
#
#
# Elastic Compliance Matrix: (Units=1/GPa)
#
#
# Indices 1 2 3 4 5 6 
#
# 1 0.013006 -0.002415 -0.002455 0.000000 0.000000 0.000000
# 2 -0.002415 0.010294 -0.004178 0.000000 0.000000 0.000000
# 3 -0.002455 -0.004178 0.010285 0.000000 0.000000 0.000000
# 4 0.000000 0.000000 0.000000 0.078715 0.000000 0.000000
# 5 0.000000 0.000000 0.000000 0.000000 0.079848 0.000000
# 6 0.000000 0.000000 0.000000 0.000000 0.000000 0.049460
#
#
# Mechanical properties :
#
#
# Convention : Reuss Voigt Hill
#
# Bulk Modulus (GPa) = 64.56282 68.78155 66.67219
# Shear Modulus (GPa) = 18.87755 23.63599 21.25677
#
# Velocity S-wave (km/s) = 3.14513 3.51927 3.33745
# Velocity P-wave (km/s) = 6.85712 7.24950 7.05604
#
# Compressibility (1/GPa) = 0.01548879
#
# Stress axis : x y z
#
# Youngs Moduli (GPa) = 76.88822 97.14681 97.23026
#
# Poissons Ratio (x) = 0.23460 0.23873
# Poissons Ratio (y) = 0.18568 0.40619
# Poissons Ratio (z) = 0.18878 0.40585
#
# Static dielectric constant tensor:
#      x y z
#    x 3.259470 0.000000 0.000000 
#    y 0.000000 3.716820 0.000000 
#    z 0.000000 0.000000 3.509840 
# 
# 
# High freq. dielectric constant tensor:
#      x y z
#    x 1.720200 0.000000 0.000000 
#    y 0.000000 1.754610 0.000000 
#    z 0.000000 0.000000 1.714990 
# 
# From -- ./inp_files/23135.got.cif
#   From: 2010.03.12/outbox.cif.g09.slc.cpg/sg67_12_cif.got.tgz:23135.got - 2010.04.10 22:41:39.
