data_PCOD8279642
_publ_section_title
;
Structure prediction by ZEFSAII (Michael W. Deem and Ramdas Pophale) SiO2 
 PCOD8279642
Probable space group: C M M A
;
_chemical_formula_sum "Si O2"
_cell_formula_units_Z 64
_cell_length_a 23.490376
_cell_length_b 16.797320
_cell_length_c 8.627130
_cell_angle_alpha 90.000000
_cell_angle_beta 90.000000
_cell_angle_gamma 90.000000
_cell_volume 3404.052948
_symmetry_space_group_name_H-M "C M M A"
_symmetry_group_IT_number 67
_symmetry_cell_setting 'orthorhombic'
loop_
_space_group_symop_operation_xyz
x,y,z
-x,1/2-y,z
x,-y,-z
-x,1/2+y,-z
-x,-y,-z
x,1/2+y,-z
-x,y,z
x,1/2-y,z
1/2+x,1/2+y,z
1/2-x,-y,z
1/2+x,1/2-y,-z
1/2-x,y,-z
1/2-x,1/2-y,-z
1/2+x,y,-z
1/2-x,1/2+y,z
1/2+x,-y,z
loop_
_atom_site_type_symbol
_atom_site_label
_atom_site_fract_x
_atom_site_fract_y
_atom_site_fract_z
Si Si1 0.255664 0.840949 0.175857
Si Si2 0.938329 0.491568 0.316547
Si Si3 0.666594 0.574116 0.612441
Si Si4 0.874684 0.661427 0.670857
O O1 0.233928 0.750000 0.196127
O O2 0.220216 0.899499 0.286700
O O3 0.321535 0.848585 0.215531
O O4 0.250000 0.870047 0.000000
O O5 0.943444 0.500000 0.500000
O O6 0.885514 0.549171 0.269848
O O7 0.923394 0.400150 0.275179
O O8 0.000000 0.513555 0.240263
O O9 0.683101 0.500000 0.500000
O O10 0.646168 0.646895 0.505304
O O11 0.900391 0.750000 0.681180
#
# Coordination Sequence:
#
# PCOD8279642 Si02
#       4
#    16  16  16  16
#     4  10  20  33  50  73 101 130 161 200 244 291
#     4   8  16  30  46  67  95 123 156 201 245 284
#     4   9  18  31  49  71  99 130 160 197 243 291
#     4   9  17  29  48  72  95 124 162 200 241 289
#
# _framework density 18.801116
#
# number of rings (size 3 to 8) (size 9 to 14) (size 15 to 20)
#    0.000    3.500    0.000    1.500    0.000   10.500 
#    0.000   10.000    0.000    5.250    0.000    3.500 
#    0.000    0.000    0.000    0.000    0.000    0.000 
#
# Total GULP energy -396460.414042 kJ/mol
# GULP energy per Si atom -12389.387939 kJ/mol
# Density = 1.875832 g / cm^3
# Si number density = 18.801116 Si / 1000 Ang^3
#
#
#
# Elastic Constant Matrix: (Units=GPa)
#
#
# Indices 1 2 3 4 5 6 
#
# 1 72.0459 38.8847 18.8027 0.0000 0.0000 0.0000
# 2 38.8847 81.4929 24.9778 0.0000 0.0000 0.0000
# 3 18.8027 24.9778 51.0977 0.0000 0.0000 0.0000
# 4 0.0000 0.0000 0.0000 17.8685 0.0000 0.0000
# 5 0.0000 0.0000 0.0000 0.0000 3.3981 0.0000
# 6 0.0000 0.0000 0.0000 0.0000 0.0000 22.8415
#
#
#
# Elastic Compliance Matrix: (Units=1/GPa)
#
#
# Indices 1 2 3 4 5 6 
#
# 1 0.019084 -0.008179 -0.003024 0.000000 0.000000 0.000000
# 2 -0.008179 0.017939 -0.005759 0.000000 0.000000 0.000000
# 3 -0.003024 -0.005759 0.023499 0.000000 0.000000 0.000000
# 4 0.000000 0.000000 0.000000 0.055965 0.000000 0.000000
# 5 0.000000 0.000000 0.000000 0.000000 0.294281 0.000000
# 6 0.000000 0.000000 0.000000 0.000000 0.000000 0.043780
#
#
# Mechanical properties :
#
#
# Convention : Reuss Voigt Hill
#
# Bulk Modulus (GPa) = 37.59958 41.10744 39.35351
# Shear Modulus (GPa) = 10.05354 16.95303 13.50329
#
# Velocity S-wave (km/s) = 2.31493 3.00610 2.68287
# Velocity P-wave (km/s) = 5.21414 5.82758 5.52937
#
# Compressibility (1/GPa) = 0.02659604
#
# Stress axis : x y z
#
# Youngs Moduli (GPa) = 52.40088 55.74488 42.55589
#
# Poissons Ratio (x) = 0.45593 0.12870
# Poissons Ratio (y) = 0.42858 0.24509
# Poissons Ratio (z) = 0.15847 0.32105
#
# Static dielectric constant tensor:
#      x y z
#    x 4.063100 0.000000 0.000000 
#    y 0.000000 3.591920 0.000000 
#    z 0.000000 0.000000 3.072560 
# 
# 
# High freq. dielectric constant tensor:
#      x y z
#    x 1.729690 0.000000 0.000000 
#    y 0.000000 1.731750 0.000000 
#    z 0.000000 0.000000 1.682240 
# 
# From -- ./inp_files/9626.got.cif
#   From: 2010.03.12/outbox.cif.g09.slc.cpg/sg67_5_cif.got.tgz:9626.got - 2010.04.10 22:41:39.
