data_PCOD8279335
_publ_section_title
;
Structure prediction by ZEFSAII (Michael W. Deem and Ramdas Pophale) SiO2 
 PCOD8279335
Probable space group: C M M A
;
_chemical_formula_sum "Si O2"
_cell_formula_units_Z 88
_cell_length_a 23.495818
_cell_length_b 9.959106
_cell_length_c 20.739942
_cell_angle_alpha 90.000000
_cell_angle_beta 90.000000
_cell_angle_gamma 90.000000
_cell_volume 4853.091302
_symmetry_space_group_name_H-M "C M M A"
_symmetry_group_IT_number 67
_symmetry_cell_setting 'orthorhombic'
loop_
_space_group_symop_operation_xyz
x,y,z
-x,1/2-y,z
x,-y,-z
-x,1/2+y,-z
-x,-y,-z
x,1/2+y,-z
-x,y,z
x,1/2-y,z
1/2+x,1/2+y,z
1/2-x,-y,z
1/2+x,1/2-y,-z
1/2-x,y,-z
1/2-x,1/2-y,-z
1/2+x,y,-z
1/2-x,1/2+y,z
1/2+x,-y,z
loop_
_atom_site_type_symbol
_atom_site_label
_atom_site_fract_x
_atom_site_fract_y
_atom_site_fract_z
Si Si1 0.000000 0.913502 0.764984
Si Si2 0.910369 0.902142 0.301872
Si Si3 0.700594 0.600264 0.921634
Si Si4 0.433593 0.901721 0.554543
Si Si5 0.900844 0.000000 0.000000
Si Si6 0.202955 0.100477 0.775738
Si Si7 0.000000 0.597620 0.909536
O O1 0.000000 0.750000 0.757743
O O2 0.000000 0.969818 0.838868
O O3 0.945947 0.979226 0.730599
O O4 0.935932 0.750000 0.291791
O O5 0.903325 0.931499 0.377650
O O6 0.848853 0.911060 0.271952
O O7 0.726085 0.750000 0.926733
O O8 0.750000 0.500000 0.947271
O O9 0.641844 0.599002 0.962243
O O10 0.684294 0.561283 0.848459
O O11 0.500000 0.929863 0.565561
O O12 0.422498 0.750000 0.531254
O O13 0.408288 0.000000 0.500000
O O14 0.942251 0.069698 0.051362
O O15 0.228745 0.250000 0.775423
O O16 0.250000 0.000000 0.749109
O O17 0.000000 0.750000 0.891643
#
# Coordination Sequence:
#
# PCOD8279335 Si02
#       7
#     8  16  16  16   8  16   8
#     4  11  22  34  51  79 108 135 169 216 267 308
#     4  10  19  35  56  77 105 142 178 211 252 308
#     4  10  21  36  55  79 101 128 168 216 265 309
#     4   9  17  30  49  75 107 139 171 209 250 294
#     4  11  21  36  56  72  97 139 178 208 252 321
#     4   9  19  35  55  77 102 132 171 216 260 305
#     4  10  23  38  50  72 107 139 170 214 264 312
#
# _framework density 18.132773
#
# number of rings (size 3 to 8) (size 9 to 14) (size 15 to 20)
#    0.000    2.182    0.909    2.182    0.000    3.636 
#    0.000    8.182    0.000    0.545    0.000    3.818 
#    0.000    0.000    0.000    0.000    0.000    0.000 
#
# Total GULP energy -545304.399998 kJ/mol
# GULP energy per Si atom -12393.281818 kJ/mol
# Density = 1.809150 g / cm^3
# Si number density = 18.132773 Si / 1000 Ang^3
#
#
#
# Elastic Constant Matrix: (Units=GPa)
#
#
# Indices 1 2 3 4 5 6 
#
# 1 91.1723 52.3634 50.1481 0.0000 0.0000 0.0000
# 2 52.3634 110.6979 61.5546 0.0000 0.0000 0.0000
# 3 50.1481 61.5546 133.4528 0.0000 0.0000 0.0000
# 4 0.0000 0.0000 0.0000 22.1905 0.0000 0.0000
# 5 0.0000 0.0000 0.0000 0.0000 22.2999 0.0000
# 6 0.0000 0.0000 0.0000 0.0000 0.0000 22.7616
#
#
#
# Elastic Compliance Matrix: (Units=1/GPa)
#
#
# Indices 1 2 3 4 5 6 
#
# 1 0.016143 -0.005734 -0.003422 0.000000 0.000000 0.000000
# 2 -0.005734 0.014186 -0.004389 0.000000 0.000000 0.000000
# 3 -0.003422 -0.004389 0.010803 0.000000 0.000000 0.000000
# 4 0.000000 0.000000 0.000000 0.045064 0.000000 0.000000
# 5 0.000000 0.000000 0.000000 0.000000 0.044843 0.000000
# 6 0.000000 0.000000 0.000000 0.000000 0.000000 0.043934
#
#
# Mechanical properties :
#
#
# Convention : Reuss Voigt Hill
#
# Bulk Modulus (GPa) = 71.20084 73.71724 72.45904
# Shear Modulus (GPa) = 24.18454 24.86753 24.52603
#
# Velocity S-wave (km/s) = 3.65601 3.70728 3.68173
# Velocity P-wave (km/s) = 7.56132 7.68555 7.62368
#
# Compressibility (1/GPa) = 0.01404478
#
# Stress axis : x y z
#
# Youngs Moduli (GPa) = 61.94529 70.49105 92.56397
#
# Poissons Ratio (x) = 0.40417 0.31672
# Poissons Ratio (y) = 0.35517 0.40624
# Poissons Ratio (z) = 0.21195 0.30937
#
# Static dielectric constant tensor:
#      x y z
#    x 3.213810 0.000000 0.000000 
#    y 0.000000 3.479460 0.000000 
#    z 0.000000 0.000000 3.484040 
# 
# 
# High freq. dielectric constant tensor:
#      x y z
#    x 1.679770 0.000000 0.000000 
#    y 0.000000 1.704580 0.000000 
#    z 0.000000 0.000000 1.711270 
# 
# From -- ./inp_files/39639.got.cif
#   From: 2010.03.12/outbox.cif.g09.slc.cpg/sg67_20_cif.got.tgz:39639.got - 2010.04.10 22:41:39.
