data_PCOD8279729
_publ_section_title
;
Structure prediction by ZEFSAII (Michael W. Deem and Ramdas Pophale) SiO2 
 PCOD8279729
Probable space group: C M M A
;
_chemical_formula_sum "Si O2"
_cell_formula_units_Z 80
_cell_length_a 10.008777
_cell_length_b 26.252354
_cell_length_c 16.759198
_cell_angle_alpha 90.000000
_cell_angle_beta 90.000000
_cell_angle_gamma 90.000000
_cell_volume 4403.545589
_symmetry_space_group_name_H-M "C M M A"
_symmetry_group_IT_number 67
_symmetry_cell_setting 'orthorhombic'
loop_
_space_group_symop_operation_xyz
x,y,z
-x,1/2-y,z
x,-y,-z
-x,1/2+y,-z
-x,-y,-z
x,1/2+y,-z
-x,y,z
x,1/2-y,z
1/2+x,1/2+y,z
1/2-x,-y,z
1/2+x,1/2-y,-z
1/2-x,y,-z
1/2-x,1/2-y,-z
1/2+x,y,-z
1/2-x,1/2+y,z
1/2+x,-y,z
loop_
_atom_site_type_symbol
_atom_site_label
_atom_site_fract_x
_atom_site_fract_y
_atom_site_fract_z
Si Si1 0.500000 0.553955 0.393037
Si Si2 0.655192 0.307519 0.238864
Si Si3 0.347556 0.850349 0.929098
Si Si4 0.500000 0.065299 0.424521
Si Si5 0.848194 0.455291 0.845077
Si Si6 0.266956 0.094755 0.317671
O O1 0.500000 0.493510 0.400005
O O2 0.500000 0.576478 0.481599
O O3 0.625397 0.573248 0.343308
O O4 0.500000 0.321384 0.254037
O O5 0.688929 0.250000 0.265068
O O6 0.685800 0.313762 0.145208
O O7 0.744846 0.346112 0.290982
O O8 0.500000 0.842643 0.957481
O O9 0.322066 0.908594 0.904273
O O10 0.250000 0.834346 0.000000
O O11 0.367176 0.091568 0.391675
O O12 0.750000 0.500000 0.872117
O O13 0.823009 0.438980 0.754357
O O14 0.000000 0.475042 0.851926
#
# Coordination Sequence:
#
# PCOD8279729 Si02
#       6
#     8  16  16   8  16  16
#     4  11  24  32  55  85 118 147 173 221 279 317
#     4   9  18  37  63  81 101 145 192 226 270 326
#     4   9  19  35  52  78 110 138 177 225 271 323
#     4  11  20  38  55  81 114 151 183 211 263 337
#     4  10  20  33  52  75 105 147 188 222 262 322
#     4  11  20  36  55  81 111 144 186 229 266 321
#
# _framework density 18.167179000000001
#
# number of rings (size 3 to 8) (size 9 to 14) (size 15 to 20)
#    0.000    2.000    2.000    3.600    1.400    3.200 
#    5.400    2.500    0.000    3.600    0.000    0.000 
#    0.000    0.000    0.000    0.000    0.000    0.000 
#
# Total GULP energy -496090.910268 kJ/mol
# GULP energy per Si atom -12402.272757 kJ/mol
# Density = 1.812583 g / cm^3
# Si number density = 18.167179 Si / 1000 Ang^3
#
#
#
# Elastic Constant Matrix: (Units=GPa)
#
#
# Indices 1 2 3 4 5 6 
#
# 1 87.6839 23.4224 23.4461 0.0000 0.0000 0.0000
# 2 23.4224 80.1215 14.8148 0.0000 0.0000 0.0000
# 3 23.4461 14.8148 64.9984 0.0000 0.0000 0.0000
# 4 0.0000 0.0000 0.0000 17.4137 0.0000 0.0000
# 5 0.0000 0.0000 0.0000 0.0000 4.3311 0.0000
# 6 0.0000 0.0000 0.0000 0.0000 0.0000 22.9452
#
#
#
# Elastic Compliance Matrix: (Units=1/GPa)
#
#
# Indices 1 2 3 4 5 6 
#
# 1 0.013339 -0.003142 -0.004095 0.000000 0.000000 0.000000
# 2 -0.003142 0.013770 -0.002005 0.000000 0.000000 0.000000
# 3 -0.004095 -0.002005 0.017319 0.000000 0.000000 0.000000
# 4 0.000000 0.000000 0.000000 0.057426 0.000000 0.000000
# 5 0.000000 0.000000 0.000000 0.000000 0.230890 0.000000
# 6 0.000000 0.000000 0.000000 0.000000 0.000000 0.043582
#
#
# Mechanical properties :
#
#
# Convention : Reuss Voigt Hill
#
# Bulk Modulus (GPa) = 38.54590 39.57449 39.06019
# Shear Modulus (GPa) = 12.39279 20.34604 16.36942
#
# Velocity S-wave (km/s) = 2.61464 3.35017 3.00500
# Velocity P-wave (km/s) = 5.51167 6.06594 5.79544
#
# Compressibility (1/GPa) = 0.02594310
#
# Stress axis : x y z
#
# Youngs Moduli (GPa) = 74.96781 72.61957 57.73899
#
# Poissons Ratio (x) = 0.22819 0.23647
# Poissons Ratio (y) = 0.23556 0.11578
# Poissons Ratio (z) = 0.30703 0.14561
#
# Static dielectric constant tensor:
#      x y z
#    x 3.182900 0.000000 0.000000 
#    y 0.000000 3.290460 0.000000 
#    z 0.000000 0.000000 3.289200 
# 
# 
# High freq. dielectric constant tensor:
#      x y z
#    x 1.698420 0.000000 0.000000 
#    y 0.000000 1.695800 0.000000 
#    z 0.000000 0.000000 1.698900 
# 
# From -- ./inp_files/32175.got.cif
#   From: 2010.03.12/outbox.cif.g09.slc.cpg/sg67_17_cif.got.tgz:32175.got - 2010.04.10 22:41:39.
