data_PCOD8279197
_publ_section_title
;
Structure prediction by ZEFSAII (Michael W. Deem and Ramdas Pophale) SiO2 
 PCOD8279197
Probable space group: C M M A
;
_chemical_formula_sum "Si O2"
_cell_formula_units_Z 88
_cell_length_a 8.726472
_cell_length_b 16.602902
_cell_length_c 29.962188
_cell_angle_alpha 90.000000
_cell_angle_beta 90.000000
_cell_angle_gamma 90.000000
_cell_volume 4341.064400
_symmetry_space_group_name_H-M "C M M A"
_symmetry_group_IT_number 67
_symmetry_cell_setting 'orthorhombic'
loop_
_space_group_symop_operation_xyz
x,y,z
-x,1/2-y,z
x,-y,-z
-x,1/2+y,-z
-x,-y,-z
x,1/2+y,-z
-x,y,z
x,1/2-y,z
1/2+x,1/2+y,z
1/2-x,-y,z
1/2+x,1/2-y,-z
1/2-x,y,-z
1/2-x,1/2-y,-z
1/2+x,y,-z
1/2-x,1/2+y,z
1/2+x,-y,z
loop_
_atom_site_type_symbol
_atom_site_label
_atom_site_fract_x
_atom_site_fract_y
_atom_site_fract_z
Si Si1 0.181224 0.250000 0.048686
Si Si2 0.817829 0.411310 0.101554
Si Si3 0.819247 0.416411 0.624504
Si Si4 0.681849 0.338384 0.286717
Si Si5 0.668302 0.656650 0.456892
Si Si6 0.317571 0.584911 0.803935
O O1 0.235543 0.165354 0.071542
O O2 0.000000 0.250000 0.046646
O O3 0.250000 0.250000 0.000000
O O4 0.750000 0.500000 0.086929
O O5 0.759361 0.385768 0.150343
O O6 0.000000 0.420957 0.101256
O O7 0.750000 0.500000 0.608777
O O8 0.753208 0.395012 0.673871
O O9 0.768046 0.352104 0.587818
O O10 0.000000 0.419869 0.625965
O O11 0.500000 0.341690 0.287482
O O12 0.744044 0.250000 0.297516
O O13 0.736979 0.359698 0.236935
O O14 0.500000 0.616885 0.450783
O O15 0.648413 0.750000 0.466633
O O16 0.750000 0.616073 0.500000
O O17 0.500000 0.581933 0.810385
O O18 0.250000 0.500000 0.790384
#
# Coordination Sequence:
#
# PCOD8279197 Si02
#       6
#     8  16  16  16  16  16
#     4  10  24  42  62  88 122 158 200 250 301 356
#     4  10  21  39  60  87 121 158 198 246 300 355
#     4  11  22  37  57  79 110 148 185 229 279 330
#     4   9  19  34  53  80 111 145 187 231 278 333
#     4  10  21  38  60  85 111 139 177 224 275 335
#     4  10  19  33  56  83 113 150 191 235 282 339
#
# _framework density 20.271526000000001
#
# number of rings (size 3 to 8) (size 9 to 14) (size 15 to 20)
#    0.000    2.000    0.000    4.364    1.273    4.000 
#    0.000    6.364    0.000    4.364    0.000    0.000 
#    0.000    0.000    0.000    0.000    0.000    0.000 
#
# Total GULP energy -545292.827336 kJ/mol
# GULP energy per Si atom -12393.018803 kJ/mol
# Density = 2.022539 g / cm^3
# Si number density = 20.271526 Si / 1000 Ang^3
#
#
#
# Elastic Constant Matrix: (Units=GPa)
#
#
# Indices 1 2 3 4 5 6 
#
# 1 76.9020 32.2132 42.4837 0.0000 0.0000 0.0000
# 2 32.2132 95.1340 64.0174 0.0000 0.0000 0.0000
# 3 42.4837 64.0174 149.2109 0.0000 0.0000 0.0000
# 4 0.0000 0.0000 0.0000 -2.7088 0.0000 0.0000
# 5 0.0000 0.0000 0.0000 0.0000 32.3459 0.0000
# 6 0.0000 0.0000 0.0000 0.0000 0.0000 25.6843
#
#
#
# Elastic Compliance Matrix: (Units=1/GPa)
#
#
# Indices 1 2 3 4 5 6 
#
# 1 0.016151 -0.003338 -0.003166 0.000000 0.000000 0.000000
# 2 -0.003338 0.015468 -0.005686 0.000000 0.000000 0.000000
# 3 -0.003166 -0.005686 0.010043 0.000000 0.000000 0.000000
# 4 0.000000 0.000000 0.000000 -0.369169 0.000000 0.000000
# 5 0.000000 0.000000 0.000000 0.000000 0.030916 0.000000
# 6 0.000000 0.000000 0.000000 0.000000 0.000000 0.038934
#
#
# Mechanical properties :
#
#
# Convention : Reuss Voigt Hill
#
# Bulk Modulus (GPa) = 57.86675 66.51949 62.19312
# Shear Modulus (GPa) = -21.97652 23.23314 0.62831
#
# Velocity S-wave (km/s) = -3.29615 3.38908 0.55733
# Velocity P-wave (km/s) = 3.75788 6.94262 5.58219
#
# Compressibility (1/GPa) = 0.01728108
#
# Stress axis : x y z
#
# Youngs Moduli (GPa) = 61.91525 64.64958 99.57238
#
# Poissons Ratio (x) = 0.21581 0.31528
# Poissons Ratio (y) = 0.20669 0.56616
# Poissons Ratio (z) = 0.19605 0.36759
#
# Static dielectric constant tensor:
#      x y z
#    x 3.670570 0.000000 0.000000 
#    y 0.000000 3.802590 0.000000 
#    z 0.000000 0.000000 3.769140 
# 
# 
# High freq. dielectric constant tensor:
#      x y z
#    x 1.783250 0.000000 0.000000 
#    y 0.000000 1.790310 0.000000 
#    z 0.000000 0.000000 1.801470 
# 
# From -- ./inp_files/45225.got.cif
#   From: 2010.03.12/outbox.cif.g09.slc.cpg/sg67_23_cif.got.tgz:45225.got - 2010.04.10 22:41:39.
