data_PCOD8279603
_publ_section_title
;
Structure prediction by ZEFSAII (Michael W. Deem and Ramdas Pophale) SiO2 
 PCOD8279603
Probable space group: C M M A
;
_chemical_formula_sum "Si O2"
_cell_formula_units_Z 112
_cell_length_a 9.340562
_cell_length_b 28.974181
_cell_length_c 25.815071
_cell_angle_alpha 90.000000
_cell_angle_beta 90.000000
_cell_angle_gamma 90.000000
_cell_volume 6986.465200
_symmetry_space_group_name_H-M "C M M A"
_symmetry_group_IT_number 67
_symmetry_cell_setting 'orthorhombic'
loop_
_space_group_symop_operation_xyz
x,y,z
-x,1/2-y,z
x,-y,-z
-x,1/2+y,-z
-x,-y,-z
x,1/2+y,-z
-x,y,z
x,1/2-y,z
1/2+x,1/2+y,z
1/2-x,-y,z
1/2+x,1/2-y,-z
1/2-x,y,-z
1/2-x,1/2-y,-z
1/2+x,y,-z
1/2-x,1/2+y,z
1/2+x,-y,z
loop_
_atom_site_type_symbol
_atom_site_label
_atom_site_fract_x
_atom_site_fract_y
_atom_site_fract_z
Si Si1 0.329447 0.302036 0.650111
Si Si2 0.166656 0.303769 0.149597
Si Si3 0.830082 0.356503 0.251119
Si Si4 0.168882 0.358841 0.448717
Si Si5 0.833316 0.455501 0.283552
Si Si6 0.834472 0.456032 0.403594
Si Si7 0.661993 0.804870 0.951143
O O1 0.500000 0.302966 0.652193
O O2 0.270389 0.250000 0.650991
O O3 0.265738 0.328934 0.699793
O O4 0.276400 0.326526 0.597803
O O5 0.192324 0.250000 0.161699
O O6 0.223806 0.332920 0.198389
O O7 0.258204 0.321032 0.100805
O O8 0.000000 0.313167 0.137817
O O9 0.781130 0.409969 0.252714
O O10 0.000000 0.353663 0.254533
O O11 0.250000 0.342491 0.500000
O O12 0.211771 0.411378 0.435917
O O13 0.000000 0.353708 0.457107
O O14 0.750000 0.500000 0.261753
O O15 0.797340 0.446881 0.343661
O O16 0.000000 0.464739 0.274901
O O17 0.750000 0.500000 0.425632
O O18 0.000000 0.467033 0.410660
O O19 0.500000 0.824449 0.951918
O O20 0.659228 0.750000 0.954067
O O21 0.750000 0.824888 0.000000
#
# Coordination Sequence:
#
# PCOD8279603 Si02
#       7
#    16  16  16  16  16  16  16
#     4   9  16  28  47  67  85 110 145 180 215 257
#     4   9  16  25  40  65  92 117 149 186 221 257
#     4   9  15  26  45  67  90 114 143 181 219 257
#     4  10  20  33  47  65  87 110 139 178 219 261
#     4   9  16  28  46  66  87 111 140 174 214 260
#     4   9  17  30  47  65  86 109 136 171 214 263
#     4   9  16  26  40  58  85 123 161 193 223 254
#
# _framework density 16.030995999999998
#
# number of rings (size 3 to 8) (size 9 to 14) (size 15 to 20)
#    0.000    2.857    1.429    0.857    0.000    4.571 
#    0.000    2.143    0.000    0.857    0.000    0.000 
#    0.000    0.571    0.000    6.571    0.000    2.286 
#
# Total GULP energy -694322.898199 kJ/mol
# GULP energy per Si atom -12398.623182 kJ/mol
# Density = 1.599451 g / cm^3
# Si number density = 16.030996 Si / 1000 Ang^3
#
#
#
# Elastic Constant Matrix: (Units=GPa)
#
#
# Indices 1 2 3 4 5 6 
#
# 1 47.2963 32.0958 45.7782 0.0000 0.0000 0.0000
# 2 32.0958 98.5520 63.3830 0.0000 0.0000 0.0000
# 3 45.7782 63.3830 133.3458 0.0000 0.0000 0.0000
# 4 0.0000 0.0000 0.0000 15.4769 0.0000 0.0000
# 5 0.0000 0.0000 0.0000 0.0000 23.4073 0.0000
# 6 0.0000 0.0000 0.0000 0.0000 0.0000 15.7209
#
#
#
# Elastic Compliance Matrix: (Units=1/GPa)
#
#
# Indices 1 2 3 4 5 6 
#
# 1 0.033312 -0.005032 -0.009044 0.000000 0.000000 0.000000
# 2 -0.005032 0.015375 -0.005581 0.000000 0.000000 0.000000
# 3 -0.009044 -0.005581 0.013257 0.000000 0.000000 0.000000
# 4 0.000000 0.000000 0.000000 0.064612 0.000000 0.000000
# 5 0.000000 0.000000 0.000000 0.000000 0.042722 0.000000
# 6 0.000000 0.000000 0.000000 0.000000 0.000000 0.063610
#
#
# Mechanical properties :
#
#
# Convention : Reuss Voigt Hill
#
# Bulk Modulus (GPa) = 44.18930 62.41201 53.30065
# Shear Modulus (GPa) = 17.87343 20.11682 18.99513
#
# Velocity S-wave (km/s) = 3.34268 3.54626 3.44597
# Velocity P-wave (km/s) = 6.52095 7.46890 7.01097
#
# Compressibility (1/GPa) = 0.02262991
#
# Stress axis : x y z
#
# Youngs Moduli (GPa) = 30.01905 65.04126 75.43279
#
# Poissons Ratio (x) = 0.32730 0.68224
# Poissons Ratio (y) = 0.15106 0.42096
# Poissons Ratio (z) = 0.27150 0.36297
#
# Static dielectric constant tensor:
#      x y z
#    x 2.803020 0.000000 0.000000 
#    y 0.000000 3.035920 0.000000 
#    z 0.000000 0.000000 3.042640 
# 
# 
# High freq. dielectric constant tensor:
#      x y z
#    x 1.587870 0.000000 0.000000 
#    y 0.000000 1.598630 0.000000 
#    z 0.000000 0.000000 1.608400 
# 
# From -- ./inp_files/41615.got.cif
#   From: 2010.03.12/outbox.cif.g09.slc.cpg/sg67_21_cif.got.tgz:41615.got - 2010.04.10 22:41:39.
