data_PCOD8279898
_publ_section_title
;
Structure prediction by ZEFSAII (Michael W. Deem and Ramdas Pophale) SiO2 
 PCOD8279898
Probable space group: C M M A
;
_chemical_formula_sum "Si O2"
_cell_formula_units_Z 96
_cell_length_a 19.673678
_cell_length_b 8.886872
_cell_length_c 29.822377
_cell_angle_alpha 90.000000
_cell_angle_beta 90.000000
_cell_angle_gamma 90.000000
_cell_volume 5214.068591
_symmetry_space_group_name_H-M "C M M A"
_symmetry_group_IT_number 67
_symmetry_cell_setting 'orthorhombic'
loop_
_space_group_symop_operation_xyz
x,y,z
-x,1/2-y,z
x,-y,-z
-x,1/2+y,-z
-x,-y,-z
x,1/2+y,-z
-x,y,z
x,1/2-y,z
1/2+x,1/2+y,z
1/2-x,-y,z
1/2+x,1/2-y,-z
1/2-x,y,-z
1/2-x,1/2-y,-z
1/2+x,y,-z
1/2-x,1/2+y,z
1/2+x,-y,z
loop_
_atom_site_type_symbol
_atom_site_label
_atom_site_fract_x
_atom_site_fract_y
_atom_site_fract_z
Si Si1 0.079382 0.074966 0.546144
Si Si2 0.819894 0.073565 0.386863
Si Si3 0.920778 0.075468 0.783181
Si Si4 0.180608 0.074463 0.283000
Si Si5 0.821187 0.571560 0.953174
Si Si6 0.922190 0.575278 0.874499
O O1 0.097441 0.250000 0.544252
O O2 0.000000 0.046258 0.553928
O O3 0.104106 0.000000 0.500000
O O4 0.117251 0.997854 0.587251
O O5 0.816541 0.250000 0.396183
O O6 0.831605 0.035556 0.334880
O O7 0.750000 0.000000 0.404136
O O8 0.903458 0.250000 0.779628
O O9 0.000000 0.041239 0.776723
O O10 0.882901 0.988969 0.743873
O O11 0.896339 0.017263 0.831596
O O12 0.186794 0.250000 0.274398
O O13 0.250000 0.000000 0.265427
O O14 0.813033 0.750000 0.958610
O O15 0.750000 0.500000 0.937743
O O16 0.877378 0.527130 0.916792
O O17 0.845128 0.500000 0.000000
O O18 0.913248 0.750000 0.863022
O O19 0.000000 0.535660 0.886238
#
# Coordination Sequence:
#
# PCOD8279898 Si02
#       6
#    16  16  16  16  16  16
#     4  10  21  37  57  81 110 143 179 221 267 315
#     4  10  21  37  57  81 109 141 179 221 266 317
#     4  10  21  36  55  80 109 141 178 220 264 313
#     4  10  21  37  57  80 108 142 178 220 267 316
#     4  10  20  34  53  76 103 135 170 211 258 309
#     4   9  19  36  55  75 102 137 176 216 260 310
#
# _framework density 18.411725000000001
#
# number of rings (size 3 to 8) (size 9 to 14) (size 15 to 20)
#    0.000    2.167    0.000    3.000    0.000    7.333 
#    0.000    6.667    0.000    0.000    0.000    0.000 
#    0.000    0.000    0.000    0.000    0.000    0.000 
#
# Total GULP energy -595429.482863 kJ/mol
# GULP energy per Si atom -12404.780893 kJ/mol
# Density = 1.836982 g / cm^3
# Si number density = 18.411725 Si / 1000 Ang^3
#
#
#
# Elastic Constant Matrix: (Units=GPa)
#
#
# Indices 1 2 3 4 5 6 
#
# 1 84.0627 54.1029 70.6961 0.0000 0.0000 0.0000
# 2 54.1029 105.6307 65.8968 0.0000 0.0000 0.0000
# 3 70.6961 65.8968 108.1263 0.0000 0.0000 0.0000
# 4 0.0000 0.0000 0.0000 35.0558 0.0000 0.0000
# 5 0.0000 0.0000 0.0000 0.0000 34.3353 0.0000
# 6 0.0000 0.0000 0.0000 0.0000 0.0000 34.4639
#
#
#
# Elastic Compliance Matrix: (Units=1/GPa)
#
#
# Indices 1 2 3 4 5 6 
#
# 1 0.027789 -0.004676 -0.015319 0.000000 0.000000 0.000000
# 2 -0.004676 0.016061 -0.006731 0.000000 0.000000 0.000000
# 3 -0.015319 -0.006731 0.023367 0.000000 0.000000 0.000000
# 4 0.000000 0.000000 0.000000 0.028526 0.000000 0.000000
# 5 0.000000 0.000000 0.000000 0.000000 0.029125 0.000000
# 6 0.000000 0.000000 0.000000 0.000000 0.000000 0.029016
#
#
# Mechanical properties :
#
#
# Convention : Reuss Voigt Hill
#
# Bulk Modulus (GPa) = 72.65392 75.46793 74.06093
# Shear Modulus (GPa) = 23.59339 27.91259 25.75299
#
# Velocity S-wave (km/s) = 3.58359 3.89784 3.74401
# Velocity P-wave (km/s) = 7.52790 7.83170 7.68130
#
# Compressibility (1/GPa) = 0.01376388
#
# Stress axis : x y z
#
# Youngs Moduli (GPa) = 35.98541 62.26243 42.79622
#
# Poissons Ratio (x) = 0.29117 0.65561
# Poissons Ratio (y) = 0.16829 0.28805
# Poissons Ratio (z) = 0.55127 0.41907
#
# Static dielectric constant tensor:
#      x y z
#    x 3.386050 0.000000 0.000000 
#    y 0.000000 3.542370 0.000000 
#    z 0.000000 0.000000 3.396300 
# 
# 
# High freq. dielectric constant tensor:
#      x y z
#    x 1.714470 0.000000 0.000000 
#    y 0.000000 1.729550 0.000000 
#    z 0.000000 0.000000 1.716430 
# 
# From -- ./inp_files/43432.got.cif
#   From: 2010.03.12/outbox.cif.g09.slc.cpg/sg67_22_cif.got.tgz:43432.got - 2010.04.10 22:41:39.
