data_PCOD8279435
_publ_section_title
;
Structure prediction by ZEFSAII (Michael W. Deem and Ramdas Pophale) SiO2 
 PCOD8279435
Probable space group: C M M A
;
_chemical_formula_sum "Si O2"
_cell_formula_units_Z 96
_cell_length_a 9.486034
_cell_length_b 21.262145
_cell_length_c 24.281360
_cell_angle_alpha 90.000000
_cell_angle_beta 90.000000
_cell_angle_gamma 90.000000
_cell_volume 4897.390793
_symmetry_space_group_name_H-M "C M M A"
_symmetry_group_IT_number 67
_symmetry_cell_setting 'orthorhombic'
loop_
_space_group_symop_operation_xyz
x,y,z
-x,1/2-y,z
x,-y,-z
-x,1/2+y,-z
-x,-y,-z
x,1/2+y,-z
-x,y,z
x,1/2-y,z
1/2+x,1/2+y,z
1/2-x,-y,z
1/2+x,1/2-y,-z
1/2-x,y,-z
1/2-x,1/2-y,-z
1/2+x,y,-z
1/2-x,1/2+y,z
1/2+x,-y,z
loop_
_atom_site_type_symbol
_atom_site_label
_atom_site_fract_x
_atom_site_fract_y
_atom_site_fract_z
Si Si1 0.841402 0.137187 0.736983
Si Si2 0.336157 0.373923 0.054603
Si Si3 0.337007 0.562429 0.631980
Si Si4 0.843274 0.444935 0.839537
Si Si5 0.835033 0.750000 0.120135
Si Si6 0.168590 0.250000 0.234108
Si Si7 0.335923 0.821205 0.554968
O O1 0.808404 0.079513 0.695843
O O2 0.833564 0.115153 0.800112
O O3 0.723350 0.190572 0.730680
O O4 0.000000 0.163082 0.724245
O O5 0.500000 0.376315 0.039499
O O6 0.294498 0.426671 0.099179
O O7 0.295771 0.307986 0.081520
O O8 0.250000 0.387462 0.000000
O O9 0.500000 0.546377 0.621029
O O10 0.250000 0.500000 0.615318
O O11 0.290377 0.624881 0.598262
O O12 0.750000 0.500000 0.814841
O O13 0.000000 0.471669 0.840951
O O14 0.737950 0.750000 0.173885
O O15 0.000000 0.750000 0.138282
O O16 0.000000 0.250000 0.229839
O O17 0.500000 0.827438 0.540736
O O18 0.303764 0.750000 0.577460
O O19 0.250000 0.834465 0.500000
#
# Coordination Sequence:
#
# PCOD8279435 Si02
#       7
#    16  16  16  16   8   8  16
#     4  10  21  40  62  82 114 157 191 229 289 354
#     4  10  21  36  56  80 106 140 179 224 277 338
#     4  10  22  38  62  91 121 161 204 249 297 354
#     4  10  21  37  57  79 105 144 187 226 279 337
#     4  10  19  39  61  78 108 143 179 219 276 353
#     4  12  24  35  57  92 118 143 186 241 289 339
#     4   9  19  37  60  89 121 161 210 251 297 351
#
# _framework density 19.602274999999999
#
# number of rings (size 3 to 8) (size 9 to 14) (size 15 to 20)
#    0.000    2.000    1.667    1.500    1.167    4.000 
#    0.000    3.333    0.000    0.000    0.000    0.000 
#    0.000    0.000    0.000    0.000    0.000    0.000 
#
# Total GULP energy -595089.383027 kJ/mol
# GULP energy per Si atom -12397.695480 kJ/mol
# Density = 1.955766 g / cm^3
# Si number density = 19.602275 Si / 1000 Ang^3
#
#
#
# Elastic Constant Matrix: (Units=GPa)
#
#
# Indices 1 2 3 4 5 6 
#
# 1 89.1035 63.0913 42.4120 0.0000 0.0000 0.0000
# 2 63.0913 118.5727 42.2382 0.0000 0.0000 0.0000
# 3 42.4120 42.2382 87.3669 0.0000 0.0000 0.0000
# 4 0.0000 0.0000 0.0000 45.2606 0.0000 0.0000
# 5 0.0000 0.0000 0.0000 0.0000 28.6060 0.0000
# 6 0.0000 0.0000 0.0000 0.0000 0.0000 35.8619
#
#
#
# Elastic Compliance Matrix: (Units=1/GPa)
#
#
# Indices 1 2 3 4 5 6 
#
# 1 0.019985 -0.008671 -0.005510 0.000000 0.000000 0.000000
# 2 -0.008671 0.013951 -0.002535 0.000000 0.000000 0.000000
# 3 -0.005510 -0.002535 0.015346 0.000000 0.000000 0.000000
# 4 0.000000 0.000000 0.000000 0.022094 0.000000 0.000000
# 5 0.000000 0.000000 0.000000 0.000000 0.034958 0.000000
# 6 0.000000 0.000000 0.000000 0.000000 0.000000 0.027885
#
#
# Mechanical properties :
#
#
# Convention : Reuss Voigt Hill
#
# Bulk Modulus (GPa) = 63.09089 65.61400 64.35245
# Shear Modulus (GPa) = 28.91274 31.76580 30.33927
#
# Velocity S-wave (km/s) = 3.84470 4.02993 3.93840
# Velocity P-wave (km/s) = 7.20863 7.42961 7.31995
#
# Compressibility (1/GPa) = 0.01585015
#
# Stress axis : x y z
#
# Youngs Moduli (GPa) = 50.03681 71.68143 65.16272
#
# Poissons Ratio (x) = 0.62157 0.35902
# Poissons Ratio (y) = 0.43389 0.16519
# Poissons Ratio (z) = 0.27568 0.18172
#
# Static dielectric constant tensor:
#      x y z
#    x 3.439330 0.000000 0.000000 
#    y 0.000000 3.550500 0.000000 
#    z 0.000000 0.000000 3.503280 
# 
# 
# High freq. dielectric constant tensor:
#      x y z
#    x 1.750790 0.000000 0.000000 
#    y 0.000000 1.768410 0.000000 
#    z 0.000000 0.000000 1.761800 
# 
# From -- ./inp_files/40835.got.cif
#   From: 2010.03.12/outbox.cif.g09.slc.cpg/sg67_21_cif.got.tgz:40835.got - 2010.04.10 22:41:39.
