data_PCOD8279666
_publ_section_title
;
Structure prediction by ZEFSAII (Michael W. Deem and Ramdas Pophale) SiO2 
 PCOD8279666
Probable space group: C M M A
;
_chemical_formula_sum "Si O2"
_cell_formula_units_Z 104
_cell_length_a 27.140991
_cell_length_b 9.054114
_cell_length_c 22.545645
_cell_angle_alpha 90.000000
_cell_angle_beta 90.000000
_cell_angle_gamma 90.000000
_cell_volume 5540.313292
_symmetry_space_group_name_H-M "C M M A"
_symmetry_group_IT_number 67
_symmetry_cell_setting 'orthorhombic'
loop_
_space_group_symop_operation_xyz
x,y,z
-x,1/2-y,z
x,-y,-z
-x,1/2+y,-z
-x,-y,-z
x,1/2+y,-z
-x,y,z
x,1/2-y,z
1/2+x,1/2+y,z
1/2-x,-y,z
1/2+x,1/2-y,-z
1/2-x,y,-z
1/2-x,1/2-y,-z
1/2+x,y,-z
1/2-x,1/2+y,z
1/2+x,-y,z
loop_
_atom_site_type_symbol
_atom_site_label
_atom_site_fract_x
_atom_site_fract_y
_atom_site_fract_z
Si Si1 0.750000 0.000000 0.159770
Si Si2 0.809325 0.408704 0.946361
Si Si3 0.349143 0.584262 0.218097
Si Si4 0.557129 0.577728 0.561986
Si Si5 0.096176 0.925185 0.118499
Si Si6 0.000000 0.925882 0.865155
Si Si7 0.000000 0.072648 0.738391
Si Si8 0.089623 0.921870 0.673249
O O1 0.724062 0.110794 0.112960
O O2 0.791078 0.069273 0.203080
O O3 0.816714 0.250000 0.974725
O O4 0.862284 0.474721 0.928353
O O5 0.785268 0.500000 0.000000
O O6 0.365646 0.750000 0.200204
O O7 0.383900 0.469659 0.183543
O O8 0.359581 0.560754 0.288620
O O9 0.567729 0.500000 0.500000
O O10 0.500000 0.555213 0.581101
O O11 0.570082 0.750000 0.557055
O O12 0.593567 0.500078 0.609263
O O13 0.085756 0.750000 0.118232
O O14 0.048413 0.020027 0.099663
O O15 0.000000 0.750000 0.855116
O O16 0.000000 0.020166 0.805534
O O17 0.000000 0.250000 0.734124
O O18 0.047749 0.007109 0.708213
O O19 0.075856 0.750000 0.664697
#
# Coordination Sequence:
#
# PCOD8279666 Si02
#       8
#     8  16  16  16  16   8   8  16
#     4  10  21  38  60  84 111 140 176 222 274 330
#     4  10  22  38  58  82 107 138 176 219 269 326
#     4  10  21  36  55  80 110 143 180 224 276 332
#     4  10  20  33  50  74 109 152 194 233 273 315
#     4  10  21  36  54  78 108 141 179 222 268 323
#     4  12  22  34  53  78 107 144 183 221 268 321
#     4  12  22  32  49  76 111 148 186 225 266 319
#     4  11  21  33  52  79 112 148 188 229 271 324
#
# _framework density 18.771501000000001
#
# number of rings (size 3 to 8) (size 9 to 14) (size 15 to 20)
#    0.000    1.538    2.308    3.462    0.000    6.154 
#    0.000    0.385    0.000    0.000    0.000    0.538 
#    0.000    3.692    0.000    0.000    0.000    0.000 
#
# Total GULP energy -644336.143048 kJ/mol
# GULP energy per Si atom -12391.079674 kJ/mol
# Density = 1.872878 g / cm^3
# Si number density = 18.771501 Si / 1000 Ang^3
#
#
#
# Elastic Constant Matrix: (Units=GPa)
#
#
# Indices 1 2 3 4 5 6 
#
# 1 111.1411 39.8738 47.9903 0.0000 0.0000 0.0000
# 2 39.8738 122.7054 51.6190 0.0000 0.0000 0.0000
# 3 47.9903 51.6190 107.9392 0.0000 0.0000 0.0000
# 4 0.0000 0.0000 0.0000 25.8098 0.0000 0.0000
# 5 0.0000 0.0000 0.0000 0.0000 -2.1874 0.0000
# 6 0.0000 0.0000 0.0000 0.0000 0.0000 10.9544
#
#
#
# Elastic Compliance Matrix: (Units=1/GPa)
#
#
# Indices 1 2 3 4 5 6 
#
# 1 0.011510 -0.001987 -0.004167 0.000000 0.000000 0.000000
# 2 -0.001987 0.010545 -0.004159 0.000000 0.000000 0.000000
# 3 -0.004167 -0.004159 0.013106 0.000000 0.000000 0.000000
# 4 0.000000 0.000000 0.000000 0.038745 0.000000 0.000000
# 5 0.000000 0.000000 0.000000 0.000000 -0.457172 0.000000
# 6 0.000000 0.000000 0.000000 0.000000 0.000000 0.091287
#
#
# Mechanical properties :
#
#
# Convention : Reuss Voigt Hill
#
# Bulk Modulus (GPa) = 68.80428 68.97243 68.88836
# Shear Modulus (GPa) = -18.76126 20.40221 0.82048
#
# Velocity S-wave (km/s) = -3.16484 3.30035 0.66184
# Velocity P-wave (km/s) = 4.83510 7.16561 6.11245
#
# Compressibility (1/GPa) = 0.01453398
#
# Stress axis : x y z
#
# Youngs Moduli (GPa) = 86.88233 94.83073 76.29950
#
# Poissons Ratio (x) = 0.18845 0.31794
# Poissons Ratio (y) = 0.17266 0.31736
# Poissons Ratio (z) = 0.36204 0.39444
#
# Static dielectric constant tensor:
#      x y z
#    x 3.646540 0.000000 0.000000 
#    y 0.000000 3.560520 0.000000 
#    z 0.000000 0.000000 3.542480 
# 
# 
# High freq. dielectric constant tensor:
#      x y z
#    x 1.712370 0.000000 0.000000 
#    y 0.000000 1.741960 0.000000 
#    z 0.000000 0.000000 1.712510 
# 
# From -- ./inp_files/42957.got.cif
#   From: 2010.03.12/outbox.cif.g09.slc.cpg/sg67_22_cif.got.tgz:42957.got - 2010.04.10 22:41:39.
