data_PCOD8279203
_publ_section_title
;
Structure prediction by ZEFSAII (Michael W. Deem and Ramdas Pophale) SiO2 
 PCOD8279203
Probable space group: C M M A
;
_chemical_formula_sum "Si O2"
_cell_formula_units_Z 104
_cell_length_a 31.053440
_cell_length_b 19.195464
_cell_length_c 8.193275
_cell_angle_alpha 90.000000
_cell_angle_beta 90.000000
_cell_angle_gamma 90.000000
_cell_volume 4883.889882
_symmetry_space_group_name_H-M "C M M A"
_symmetry_group_IT_number 67
_symmetry_cell_setting 'orthorhombic'
loop_
_space_group_symop_operation_xyz
x,y,z
-x,1/2-y,z
x,-y,-z
-x,1/2+y,-z
-x,-y,-z
x,1/2+y,-z
-x,y,z
x,1/2-y,z
1/2+x,1/2+y,z
1/2-x,-y,z
1/2+x,1/2-y,-z
1/2-x,y,-z
1/2-x,1/2-y,-z
1/2+x,y,-z
1/2-x,1/2+y,z
1/2+x,-y,z
loop_
_atom_site_type_symbol
_atom_site_label
_atom_site_fract_x
_atom_site_fract_y
_atom_site_fract_z
Si Si1 0.500000 0.668085 0.257357
Si Si2 0.587338 0.890654 0.744354
Si Si3 0.825464 0.825288 0.340724
Si Si4 0.249293 0.422516 0.695492
Si Si5 0.587647 0.831827 0.084547
Si Si6 0.836879 0.127065 0.323686
Si Si7 0.382363 0.500000 0.500000
Si Si8 0.500000 0.332286 0.380815
O O1 0.500000 0.750000 0.274910
O O2 0.456826 0.643881 0.167287
O O3 0.500000 0.634867 0.437910
O O4 0.624501 0.841361 0.679445
O O5 0.541289 0.857085 0.716379
O O6 0.589617 0.964870 0.647831
O O7 0.594095 0.888564 0.940375
O O8 0.814603 0.750000 0.264294
O O9 0.793960 0.880989 0.252308
O O10 0.821099 0.819890 0.536384
O O11 0.250000 0.500000 0.767575
O O12 0.250000 0.422975 0.500000
O O13 0.292531 0.388397 0.773409
O O14 0.585687 0.750000 0.028761
O O15 0.626919 0.839762 0.210002
O O16 0.852323 0.056426 0.413451
O O17 0.500000 0.250000 0.386731
#
# Coordination Sequence:
#
# PCOD8279203 Si02
#       8
#     8  16  16  16  16  16   8   8
#     4   9  19  35  57  86 117 149 188 234 290 355
#     4  11  23  39  60  84 119 158 199 247 298 365
#     4  10  19  33  56  85 116 155 206 255 297 350
#     4   9  17  32  55  81 112 154 203 251 297 350
#     4  11  22  37  59  90 124 155 191 245 313 365
#     4  10  20  35  58  84 119 156 198 253 301 353
#     4  10  22  41  61  86 116 162 210 243 293 358
#     4  11  21  38  65  90 115 155 205 251 296 353
#
# _framework density 21.294499999999999
#
# number of rings (size 3 to 8) (size 9 to 14) (size 15 to 20)
#    0.000    1.846    0.000    6.923    0.000    6.154 
#    0.000    1.538    0.000    5.538    0.000    0.000 
#    0.000    0.000    0.000    0.000    0.000    0.000 
#
# Total GULP energy -644265.695087 kJ/mol
# GULP energy per Si atom -12389.724906 kJ/mol
# Density = 2.124603 g / cm^3
# Si number density = 21.294500 Si / 1000 Ang^3
#
#
#
# Elastic Constant Matrix: (Units=GPa)
#
#
# Indices 1 2 3 4 5 6 
#
# 1 166.6033 42.5518 17.9156 0.0000 0.0000 0.0000
# 2 42.5518 97.4189 14.2838 0.0000 0.0000 0.0000
# 3 17.9156 14.2838 67.0843 0.0000 0.0000 0.0000
# 4 0.0000 0.0000 0.0000 26.8546 0.0000 0.0000
# 5 0.0000 0.0000 0.0000 0.0000 15.9921 0.0000
# 6 0.0000 0.0000 0.0000 0.0000 0.0000 28.0146
#
#
#
# Elastic Compliance Matrix: (Units=1/GPa)
#
#
# Indices 1 2 3 4 5 6 
#
# 1 0.006853 -0.002813 -0.001231 0.000000 0.000000 0.000000
# 2 -0.002813 0.011750 -0.001751 0.000000 0.000000 0.000000
# 3 -0.001231 -0.001751 0.015608 0.000000 0.000000 0.000000
# 4 0.000000 0.000000 0.000000 0.037238 0.000000 0.000000
# 5 0.000000 0.000000 0.000000 0.000000 0.062531 0.000000
# 6 0.000000 0.000000 0.000000 0.000000 0.000000 0.035696
#
#
# Mechanical properties :
#
#
# Convention : Reuss Voigt Hill
#
# Bulk Modulus (GPa) = 44.20487 53.40097 48.80292
# Shear Modulus (GPa) = 26.48223 31.26262 28.87243
#
# Velocity S-wave (km/s) = 3.53032 3.83575 3.68620
# Velocity P-wave (km/s) = 6.11731 6.68947 6.40978
#
# Compressibility (1/GPa) = 0.02262194
#
# Stress axis : x y z
#
# Youngs Moduli (GPa) = 145.91906 85.10443 64.06882
#
# Poissons Ratio (x) = 0.23939 0.07889
# Poissons Ratio (y) = 0.41045 0.11216
# Poissons Ratio (z) = 0.17967 0.14899
#
# Static dielectric constant tensor:
#      x y z
#    x 4.115760 0.000000 0.000000 
#    y 0.000000 3.963110 0.000000 
#    z 0.000000 0.000000 3.723840 
# 
# 
# High freq. dielectric constant tensor:
#      x y z
#    x 1.853450 0.000000 0.000000 
#    y 0.000000 1.821510 0.000000 
#    z 0.000000 0.000000 1.805640 
# 
# From -- ./inp_files/13856.got.cif
#   From: 2010.03.12/outbox.cif.g09.slc.cpg/sg67_7_cif.got.tgz:13856.got - 2010.04.10 22:41:39.
