data_PCOD8279358
_publ_section_title
;
Structure prediction by ZEFSAII (Michael W. Deem and Ramdas Pophale) SiO2 
 PCOD8279358
Probable space group: C M M A
;
_chemical_formula_sum "Si O2"
_cell_formula_units_Z 104
_cell_length_a 9.098381
_cell_length_b 29.416518
_cell_length_c 19.773970
_cell_angle_alpha 90.000000
_cell_angle_beta 90.000000
_cell_angle_gamma 90.000000
_cell_volume 5292.358492
_symmetry_space_group_name_H-M "C M M A"
_symmetry_group_IT_number 67
_symmetry_cell_setting 'orthorhombic'
loop_
_space_group_symop_operation_xyz
x,y,z
-x,1/2-y,z
x,-y,-z
-x,1/2+y,-z
-x,-y,-z
x,1/2+y,-z
-x,y,z
x,1/2-y,z
1/2+x,1/2+y,z
1/2-x,-y,z
1/2+x,1/2-y,-z
1/2-x,y,-z
1/2-x,1/2-y,-z
1/2+x,y,-z
1/2-x,1/2+y,z
1/2+x,-y,z
loop_
_atom_site_type_symbol
_atom_site_label
_atom_site_fract_x
_atom_site_fract_y
_atom_site_fract_z
Si Si1 0.340075 0.958268 0.909390
Si Si2 0.670997 0.625977 0.298523
Si Si3 0.337213 0.542048 0.752262
Si Si4 0.835309 0.250000 0.567512
Si Si5 0.669940 0.697222 0.186570
Si Si6 0.327735 0.848397 0.572514
Si Si7 0.823922 0.643233 0.068286
O O1 0.500000 0.958403 0.943942
O O2 0.357486 0.967919 0.830611
O O3 0.267116 0.908799 0.922176
O O4 0.250000 0.000000 0.942487
O O5 0.500000 0.616698 0.310047
O O6 0.740948 0.587095 0.252899
O O7 0.697869 0.673345 0.259171
O O8 0.750217 0.621085 0.371257
O O9 0.500000 0.547329 0.719011
O O10 0.250000 0.500000 0.717660
O O11 0.750000 0.250000 0.500000
O O12 0.802378 0.297548 0.604746
O O13 0.000000 0.250000 0.541927
O O14 0.500000 0.691540 0.165123
O O15 0.713514 0.750000 0.194533
O O16 0.771009 0.674341 0.129987
O O17 0.500000 0.860374 0.565089
O O18 0.250000 0.854875 0.500000
O O19 0.000000 0.646057 0.064967
O O20 0.750000 0.662614 0.000000
#
# Coordination Sequence:
#
# PCOD8279358 Si02
#       7
#    16  16  16   8  16  16  16
#     4   9  19  34  55  82 114 147 183 227 282 342
#     4  11  22  36  59  88 118 153 192 238 291 344
#     4  10  19  35  58  86 117 149 189 235 286 344
#     4   8  16  30  48  72 104 144 187 228 275 330
#     4  10  23  42  61  84 114 150 195 244 290 339
#     4  10  20  35  54  80 115 155 196 240 288 344
#     4  11  23  40  60  85 114 151 193 238 289 346
#
# _framework density 19.650974999999999
#
# number of rings (size 3 to 8) (size 9 to 14) (size 15 to 20)
#    0.000    2.000    1.538    1.846    1.077    4.000 
#    0.000    1.538    0.000    0.462    0.000    3.231 
#    0.000    0.000    0.000    0.000    0.000    0.000 
#
# Total GULP energy -644418.935455 kJ/mol
# GULP energy per Si atom -12392.671836 kJ/mol
# Density = 1.960625 g / cm^3
# Si number density = 19.650975 Si / 1000 Ang^3
#
#
#
# Elastic Constant Matrix: (Units=GPa)
#
#
# Indices 1 2 3 4 5 6 
#
# 1 123.1665 49.9359 51.6787 0.0000 0.0000 0.0000
# 2 49.9359 107.5946 22.7931 0.0000 0.0000 0.0000
# 3 51.6787 22.7931 80.8094 0.0000 0.0000 0.0000
# 4 0.0000 0.0000 0.0000 -25.4046 0.0000 0.0000
# 5 0.0000 0.0000 0.0000 0.0000 25.4536 0.0000
# 6 0.0000 0.0000 0.0000 0.0000 0.0000 32.7918
#
#
#
# Elastic Compliance Matrix: (Units=1/GPa)
#
#
# Indices 1 2 3 4 5 6 
#
# 1 0.012860 -0.004495 -0.006957 0.000000 0.000000 0.000000
# 2 -0.004495 0.011456 -0.000357 0.000000 0.000000 0.000000
# 3 -0.006957 -0.000357 0.016924 0.000000 0.000000 0.000000
# 4 0.000000 0.000000 0.000000 -0.039363 0.000000 0.000000
# 5 0.000000 0.000000 0.000000 0.000000 0.039287 0.000000
# 6 0.000000 0.000000 0.000000 0.000000 0.000000 0.030495
#
#
# Mechanical properties :
#
#
# Convention : Reuss Voigt Hill
#
# Bulk Modulus (GPa) = 56.74037 62.26509 59.50273
# Shear Modulus (GPa) = 49.43106 19.04568 34.23837
#
# Velocity S-wave (km/s) = 5.02087 3.11657 4.17864
# Velocity P-wave (km/s) = 7.90879 6.68618 7.32304
#
# Compressibility (1/GPa) = 0.01762414
#
# Stress axis : x y z
#
# Youngs Moduli (GPa) = 77.75854 87.29157 59.08704
#
# Poissons Ratio (x) = 0.39237 0.41104
# Poissons Ratio (y) = 0.34952 0.02107
# Poissons Ratio (z) = 0.54093 0.03113
#
# Static dielectric constant tensor:
#      x y z
#    x 3.805950 0.000000 0.000000 
#    y 0.000000 3.634430 0.000000 
#    z 0.000000 0.000000 3.244160 
# 
# 
# High freq. dielectric constant tensor:
#      x y z
#    x 1.777880 0.000000 0.000000 
#    y 0.000000 1.759550 0.000000 
#    z 0.000000 0.000000 1.745650 
# 
# From -- ./inp_files/37490.got.cif
#   From: 2010.03.12/outbox.cif.g09.slc.cpg/sg67_19_cif.got.tgz:37490.got - 2010.04.10 22:41:39.
