data_PCOD8279101
_publ_section_title
;
Structure prediction by ZEFSAII (Michael W. Deem and Ramdas Pophale) SiO2 
 PCOD8279101
Probable space group: C M M A
;
_chemical_formula_sum "Si O2"
_cell_formula_units_Z 80
_cell_length_a 26.128094
_cell_length_b 13.849239
_cell_length_c 11.789214
_cell_angle_alpha 90.000000
_cell_angle_beta 90.000000
_cell_angle_gamma 90.000000
_cell_volume 4265.976818
_symmetry_space_group_name_H-M "C M M A"
_symmetry_group_IT_number 67
_symmetry_cell_setting 'orthorhombic'
loop_
_space_group_symop_operation_xyz
x,y,z
-x,1/2-y,z
x,-y,-z
-x,1/2+y,-z
-x,-y,-z
x,1/2+y,-z
-x,y,z
x,1/2-y,z
1/2+x,1/2+y,z
1/2-x,-y,z
1/2+x,1/2-y,-z
1/2-x,y,-z
1/2-x,1/2-y,-z
1/2+x,y,-z
1/2-x,1/2+y,z
1/2+x,-y,z
loop_
_atom_site_type_symbol
_atom_site_label
_atom_site_fract_x
_atom_site_fract_y
_atom_site_fract_z
Si Si1 0.596708 0.965111 0.675694
Si Si2 0.940112 0.360566 0.459157
Si Si3 0.692457 0.011461 0.185466
Si Si4 0.158137 0.138633 0.011561
Si Si5 0.443219 0.859912 0.888715
O O1 0.590026 0.891699 0.571804
O O2 0.563850 0.930012 0.782350
O O3 0.577806 0.072766 0.644985
O O4 0.656858 0.965073 0.706981
O O5 0.927171 0.250000 0.428886
O O6 0.000000 0.375852 0.482279
O O7 0.750000 0.000000 0.230656
O O8 0.691409 0.097347 0.092882
O O9 0.672097 0.913208 0.128286
O O10 0.171436 0.250000 0.025135
O O11 0.098004 0.118388 0.986944
O O12 0.500000 0.876021 0.939760
O O13 0.436057 0.750000 0.845422
#
# Coordination Sequence:
#
# PCOD8279101 Si02
#       5
#    16  16  16  16  16
#     4  10  19  33  52  74 100 130 165 204 245 292
#     4  10  20  35  55  77 101 128 158 196 245 302
#     4  10  21  35  51  73  99 131 171 211 248 284
#     4   9  18  33  52  74 102 135 169 204 242 290
#     4   9  16  28  49  77 106 134 163 196 239 293
#
# _framework density 18.753032999999999
#
# number of rings (size 3 to 8) (size 9 to 14) (size 15 to 20)
#    0.000    2.400    0.000    4.200    0.000    4.800 
#    0.000   12.000    0.000    3.600    0.000    0.000 
#    0.000    0.000    0.000    0.000    0.000    0.000 
#
# Total GULP energy -496042.661650 kJ/mol
# GULP energy per Si atom -12401.066541 kJ/mol
# Density = 1.871035 g / cm^3
# Si number density = 18.753033 Si / 1000 Ang^3
#
#
#
# Elastic Constant Matrix: (Units=GPa)
#
#
# Indices 1 2 3 4 5 6 
#
# 1 140.4699 30.8665 37.8085 0.0000 0.0000 0.0000
# 2 30.8665 121.0230 31.2230 0.0000 0.0000 0.0000
# 3 37.8085 31.2230 59.3797 0.0000 0.0000 0.0000
# 4 0.0000 0.0000 0.0000 18.3378 0.0000 0.0000
# 5 0.0000 0.0000 0.0000 0.0000 12.2104 0.0000
# 6 0.0000 0.0000 0.0000 0.0000 0.0000 20.6933
#
#
#
# Elastic Compliance Matrix: (Units=1/GPa)
#
#
# Indices 1 2 3 4 5 6 
#
# 1 0.008677 -0.000911 -0.005046 0.000000 0.000000 0.000000
# 2 -0.000911 0.009655 -0.004497 0.000000 0.000000 0.000000
# 3 -0.005046 -0.004497 0.022418 0.000000 0.000000 0.000000
# 4 0.000000 0.000000 0.000000 0.054532 0.000000 0.000000
# 5 0.000000 0.000000 0.000000 0.000000 0.081897 0.000000
# 6 0.000000 0.000000 0.000000 0.000000 0.000000 0.048325
#
#
# Mechanical properties :
#
#
# Convention : Reuss Voigt Hill
#
# Bulk Modulus (GPa) = 50.39574 57.85208 54.12391
# Shear Modulus (GPa) = 19.76070 24.97994 22.37032
#
# Velocity S-wave (km/s) = 3.24965 3.65368 3.45757
# Velocity P-wave (km/s) = 6.40406 6.97966 6.69805
#
# Compressibility (1/GPa) = 0.01984295
#
# Stress axis : x y z
#
# Youngs Moduli (GPa) = 115.24248 103.56845 44.60684
#
# Poissons Ratio (x) = 0.09439 0.22508
# Poissons Ratio (y) = 0.10502 0.20059
# Poissons Ratio (z) = 0.58150 0.46572
#
# Static dielectric constant tensor:
#      x y z
#    x 3.492780 0.000000 0.000000 
#    y 0.000000 3.610700 0.000000 
#    z 0.000000 0.000000 3.131260 
# 
# 
# High freq. dielectric constant tensor:
#      x y z
#    x 1.726430 0.000000 0.000000 
#    y 0.000000 1.740290 0.000000 
#    z 0.000000 0.000000 1.697380 
# 
# From -- ./inp_files/21655.got.cif
#   From: 2010.03.12/outbox.cif.g09.slc.cpg/sg67_11_cif.got.tgz:21655.got - 2010.04.10 22:41:39.
