data_PCOD8279664
_publ_section_title
;
Structure prediction by ZEFSAII (Michael W. Deem and Ramdas Pophale) SiO2 
 PCOD8279664
Probable space group: C M M A
;
_chemical_formula_sum "Si O2"
_cell_formula_units_Z 88
_cell_length_a 8.716147
_cell_length_b 15.415539
_cell_length_c 30.327187
_cell_angle_alpha 90.000000
_cell_angle_beta 90.000000
_cell_angle_gamma 90.000000
_cell_volume 4074.885308
_symmetry_space_group_name_H-M "C M M A"
_symmetry_group_IT_number 67
_symmetry_cell_setting 'orthorhombic'
loop_
_space_group_symop_operation_xyz
x,y,z
-x,1/2-y,z
x,-y,-z
-x,1/2+y,-z
-x,-y,-z
x,1/2+y,-z
-x,y,z
x,1/2-y,z
1/2+x,1/2+y,z
1/2-x,-y,z
1/2+x,1/2-y,-z
1/2-x,y,-z
1/2-x,1/2-y,-z
1/2+x,y,-z
1/2-x,1/2+y,z
1/2+x,-y,z
loop_
_atom_site_type_symbol
_atom_site_label
_atom_site_fract_x
_atom_site_fract_y
_atom_site_fract_z
Si Si1 0.672186 0.353417 0.955877
Si Si2 0.683888 0.250000 0.451420
Si Si3 0.332808 0.651251 0.218333
Si Si4 0.819039 0.092421 0.697481
Si Si5 0.316447 0.595942 0.394450
Si Si6 0.828462 0.646228 0.132535
O O1 0.500000 0.387685 0.955003
O O2 0.679954 0.250000 0.956148
O O3 0.754534 0.390153 0.912328
O O4 0.750000 0.390982 0.000000
O O5 0.500000 0.250000 0.451001
O O6 0.750000 0.250000 0.500000
O O7 0.746858 0.162992 0.428980
O O8 0.500000 0.608448 0.228770
O O9 0.358766 0.750000 0.205597
O O10 0.219742 0.650319 0.260333
O O11 0.259055 0.606566 0.175177
O O12 0.735483 0.128728 0.653854
O O13 0.000000 0.089117 0.688466
O O14 0.750000 0.000000 0.709497
O O15 0.500000 0.594179 0.397816
O O16 0.250000 0.500000 0.403932
O O17 0.825664 0.750000 0.132947
O O18 0.000000 0.610620 0.134873
#
# Coordination Sequence:
#
# PCOD8279664 Si02
#       6
#    16   8  16  16  16  16
#     4   9  15  22  33  50  75 112 157 204 257 318
#     4  12  26  46  70 102 136 174 220 268 319 376
#     4  10  20  33  50  74 105 141 181 225 278 337
#     4  11  22  38  59  84 115 151 193 239 288 345
#     4  11  23  43  68  97 132 172 215 265 320 376
#     4   9  16  26  39  58  87 122 163 211 265 325
#
# _framework density 21.595700000000001
#
# number of rings (size 3 to 8) (size 9 to 14) (size 15 to 20)
#    0.000    1.818    0.000    6.818    1.273    5.818 
#    0.000    1.818    0.000    0.000    0.000    0.000 
#    0.000    0.727    0.000    7.273    0.000   11.273 
#
# Total GULP energy -545511.660492 kJ/mol
# GULP energy per Si atom -12397.992284 kJ/mol
# Density = 2.154655 g / cm^3
# Si number density = 21.595700 Si / 1000 Ang^3
#
#
#
# Elastic Constant Matrix: (Units=GPa)
#
#
# Indices 1 2 3 4 5 6 
#
# 1 216.2809 36.8506 87.7005 0.0000 0.0000 0.0000
# 2 36.8506 42.3730 45.7202 0.0000 0.0000 0.0000
# 3 87.7005 45.7202 201.4004 0.0000 0.0000 0.0000
# 4 0.0000 0.0000 0.0000 -0.7755 0.0000 0.0000
# 5 0.0000 0.0000 0.0000 0.0000 45.7839 0.0000
# 6 0.0000 0.0000 0.0000 0.0000 0.0000 23.4636
#
#
#
# Elastic Compliance Matrix: (Units=1/GPa)
#
#
# Indices 1 2 3 4 5 6 
#
# 1 0.005913 -0.003131 -0.001864 0.000000 0.000000 0.000000
# 2 -0.003131 0.032914 -0.006108 0.000000 0.000000 0.000000
# 3 -0.001864 -0.006108 0.007164 0.000000 0.000000 0.000000
# 4 0.000000 0.000000 0.000000 -1.289518 0.000000 0.000000
# 5 0.000000 0.000000 0.000000 0.000000 0.021842 0.000000
# 6 0.000000 0.000000 0.000000 0.000000 0.000000 0.042619
#
#
# Mechanical properties :
#
#
# Convention : Reuss Voigt Hill
#
# Bulk Modulus (GPa) = 42.04603 88.95523 65.50063
# Shear Modulus (GPa) = -4.35187 33.01326 14.33070
#
# Velocity S-wave (km/s) = -1.42110 3.91410 2.57882
# Velocity P-wave (km/s) = 4.10112 7.85541 6.26605
#
# Compressibility (1/GPa) = 0.02378346
#
# Stress axis : x y z
#
# Youngs Moduli (GPa) = 169.12044 30.38233 139.59449
#
# Poissons Ratio (x) = 0.09513 0.26021
# Poissons Ratio (y) = 0.52953 0.85270
# Poissons Ratio (z) = 0.31525 0.18559
#
# Static dielectric constant tensor:
#      x y z
#    x 4.237800 0.000000 0.000000 
#    y 0.000000 3.388000 0.000000 
#    z 0.000000 0.000000 4.174420 
# 
# 
# High freq. dielectric constant tensor:
#      x y z
#    x 1.868600 0.000000 0.000000 
#    y 0.000000 1.809270 0.000000 
#    z 0.000000 0.000000 1.859900 
# 
# From -- ./inp_files/45197.got.cif
#   From: 2010.03.12/outbox.cif.g09.slc.cpg/sg67_23_cif.got.tgz:45197.got - 2010.04.10 22:41:39.
