data_PCOD8279895
_publ_section_title
;
Structure prediction by ZEFSAII (Michael W. Deem and Ramdas Pophale) SiO2 
 PCOD8279895
Probable space group: C M M A
;
_chemical_formula_sum "Si O2"
_cell_formula_units_Z 104
_cell_length_a 26.114481
_cell_length_b 8.913235
_cell_length_c 23.029099
_cell_angle_alpha 90.000000
_cell_angle_beta 90.000000
_cell_angle_gamma 90.000000
_cell_volume 5360.356854
_symmetry_space_group_name_H-M "C M M A"
_symmetry_group_IT_number 67
_symmetry_cell_setting 'orthorhombic'
loop_
_space_group_symop_operation_xyz
x,y,z
-x,1/2-y,z
x,-y,-z
-x,1/2+y,-z
-x,-y,-z
x,1/2+y,-z
-x,y,z
x,1/2-y,z
1/2+x,1/2+y,z
1/2-x,-y,z
1/2+x,1/2-y,-z
1/2-x,y,-z
1/2-x,1/2-y,-z
1/2+x,y,-z
1/2-x,1/2+y,z
1/2+x,-y,z
loop_
_atom_site_type_symbol
_atom_site_label
_atom_site_fract_x
_atom_site_fract_y
_atom_site_fract_z
Si Si1 0.158868 0.426663 0.229456
Si Si2 0.110956 0.426735 0.562635
Si Si3 0.443441 0.421454 0.829271
Si Si4 0.304052 0.071573 0.347074
Si Si5 0.800103 0.074492 0.884287
Si Si6 0.593942 0.422702 0.059309
Si Si7 0.000000 0.424447 0.561197
O O1 0.168260 0.250000 0.238201
O O2 0.098855 0.466248 0.218728
O O3 0.177908 0.515944 0.284769
O O4 0.191143 0.484827 0.175185
O O5 0.119159 0.500000 0.500000
O O6 0.116019 0.250000 0.554124
O O7 0.154395 0.485582 0.606177
O O8 0.054595 0.468774 0.590963
O O9 0.500000 0.446480 0.802103
O O10 0.434410 0.250000 0.847939
O O11 0.439383 0.518095 0.887346
O O12 0.299028 0.250000 0.345944
O O13 0.250000 0.000000 0.364604
O O14 0.792646 0.250000 0.871023
O O15 0.846230 0.046868 0.928796
O O16 0.750000 0.000000 0.913463
O O17 0.581364 0.250000 0.052465
O O18 0.576871 0.500000 0.000000
O O19 0.000000 0.500000 0.500000
O O20 0.000000 0.250000 0.549592
#
# Coordination Sequence:
#
# PCOD8279895 Si02
#       7
#    16  16  16  16  16  16   8
#     4  10  20  36  57  79 105 138 176 221 269 320
#     4   9  19  35  57  82 111 145 184 226 273 325
#     4   9  19  37  59  80 105 137 174 218 268 321
#     4  11  23  38  55  80 112 148 186 227 273 326
#     4  10  20  34  53  76 102 135 175 218 266 319
#     4  10  21  35  52  76 106 139 176 217 262 317
#     4   8  14  30  54  78 104 136 174 218 263 312
#
# _framework density 19.401695
#
# number of rings (size 3 to 8) (size 9 to 14) (size 15 to 20)
#    0.000    2.308    0.000    2.308    0.000    4.923 
#    1.385    3.077    0.000    0.000    0.000    0.000 
#    0.000    0.000    0.000    0.000    0.000    0.000 
#
# Total GULP energy -644600.856425 kJ/mol
# GULP energy per Si atom -12396.170316 kJ/mol
# Density = 1.935754 g / cm^3
# Si number density = 19.401695 Si / 1000 Ang^3
#
#
#
# Elastic Constant Matrix: (Units=GPa)
#
#
# Indices 1 2 3 4 5 6 
#
# 1 135.1737 34.6975 26.8173 0.0000 0.0000 0.0000
# 2 34.6975 64.0635 19.8777 0.0000 0.0000 0.0000
# 3 26.8173 19.8777 58.9711 0.0000 0.0000 0.0000
# 4 0.0000 0.0000 0.0000 26.3720 0.0000 0.0000
# 5 0.0000 0.0000 0.0000 0.0000 11.1458 0.0000
# 6 0.0000 0.0000 0.0000 0.0000 0.0000 22.8650
#
#
#
# Elastic Compliance Matrix: (Units=1/GPa)
#
#
# Indices 1 2 3 4 5 6 
#
# 1 0.008968 -0.004012 -0.002726 0.000000 0.000000 0.000000
# 2 -0.004012 0.019227 -0.004657 0.000000 0.000000 0.000000
# 3 -0.002726 -0.004657 0.019767 0.000000 0.000000 0.000000
# 4 0.000000 0.000000 0.000000 0.037919 0.000000 0.000000
# 5 0.000000 0.000000 0.000000 0.000000 0.089720 0.000000
# 6 0.000000 0.000000 0.000000 0.000000 0.000000 0.043735
#
#
# Mechanical properties :
#
#
# Convention : Reuss Voigt Hill
#
# Bulk Modulus (GPa) = 39.72438 46.77703 43.25070
# Shear Modulus (GPa) = 19.95879 23.86429 21.91154
#
# Velocity S-wave (km/s) = 3.21084 3.51096 3.36424
# Velocity P-wave (km/s) = 5.85364 6.37164 6.11813
#
# Compressibility (1/GPa) = 0.02517346
#
# Stress axis : x y z
#
# Youngs Moduli (GPa) = 111.50182 52.00997 50.58961
#
# Poissons Ratio (x) = 0.20864 0.13792
# Poissons Ratio (y) = 0.44729 0.23558
# Poissons Ratio (z) = 0.30398 0.24220
#
# Static dielectric constant tensor:
#      x y z
#    x 4.080510 0.000000 0.000000 
#    y 0.000000 3.547370 0.000000 
#    z 0.000000 0.000000 3.269030 
# 
# 
# High freq. dielectric constant tensor:
#      x y z
#    x 1.775790 0.000000 0.000000 
#    y 0.000000 1.762060 0.000000 
#    z 0.000000 0.000000 1.727210 
# 
# From -- ./inp_files/40220.got.cif
#   From: 2010.03.12/outbox.cif.g09.slc.cpg/sg67_21_cif.got.tgz:40220.got - 2010.04.10 22:41:39.
