data_PCOD8279012
_publ_section_title
;
Structure prediction by ZEFSAII (Michael W. Deem and Ramdas Pophale) SiO2 
 PCOD8279012
Probable space group: C M M A
;
_chemical_formula_sum "Si O2"
_cell_formula_units_Z 80
_cell_length_a 17.621491
_cell_length_b 15.717372
_cell_length_c 15.259248
_cell_angle_alpha 90.000000
_cell_angle_beta 90.000000
_cell_angle_gamma 90.000000
_cell_volume 4226.255180
_symmetry_space_group_name_H-M "C M M A"
_symmetry_group_IT_number 67
_symmetry_cell_setting 'orthorhombic'
loop_
_space_group_symop_operation_xyz
x,y,z
-x,1/2-y,z
x,-y,-z
-x,1/2+y,-z
-x,-y,-z
x,1/2+y,-z
-x,y,z
x,1/2-y,z
1/2+x,1/2+y,z
1/2-x,-y,z
1/2+x,1/2-y,-z
1/2-x,y,-z
1/2-x,1/2-y,-z
1/2+x,y,-z
1/2-x,1/2+y,z
1/2+x,-y,z
loop_
_atom_site_type_symbol
_atom_site_label
_atom_site_fract_x
_atom_site_fract_y
_atom_site_fract_z
Si Si1 0.796801 0.915675 0.728279
Si Si2 0.914716 0.468881 0.658399
Si Si3 0.417732 0.846132 0.821964
Si Si4 0.299936 0.845766 0.583388
Si Si5 0.238273 0.849353 0.096243
O O1 0.754620 0.845048 0.669440
O O2 0.795000 0.889445 0.830925
O O3 0.750000 0.000000 0.713758
O O4 0.880408 0.939621 0.690484
O O5 0.914668 0.406828 0.740280
O O6 0.866084 0.417678 0.585400
O O7 0.000000 0.485482 0.623325
O O8 0.500000 0.855308 0.869882
O O9 0.406379 0.750000 0.787325
O O10 0.349714 0.870640 0.886119
O O11 0.333717 0.750000 0.574709
O O12 0.250000 0.870287 0.500000
O O13 0.256456 0.750000 0.094902
O O14 0.250000 0.889572 0.000000
#
# Coordination Sequence:
#
# PCOD8279012 Si02
#       5
#    16  16  16  16  16
#     4  10  19  33  51  76 109 141 173 222 273 326
#     4  10  20  34  54  81 110 142 177 220 277 329
#     4   9  16  29  50  76 104 133 174 229 274 307
#     4  10  20  35  57  82 105 136 181 228 271 317
#     4  10  19  32  52  77 105 145 191 228 267 324
#
# _framework density 18.929286999999999
#
# number of rings (size 3 to 8) (size 9 to 14) (size 15 to 20)
#    0.000    2.200    4.000    1.200    0.000    5.200 
#    0.000    3.000    0.000    7.200    0.000    0.000 
#    0.000    0.000    0.000    0.000    0.000    0.000 
#
# Total GULP energy -495630.904602 kJ/mol
# GULP energy per Si atom -12390.772615 kJ/mol
# Density = 1.888620 g / cm^3
# Si number density = 18.929287 Si / 1000 Ang^3
#
#
#
# Elastic Constant Matrix: (Units=GPa)
#
#
# Indices 1 2 3 4 5 6 
#
# 1 122.8786 34.3395 32.2934 0.0000 0.0000 0.0000
# 2 34.3395 43.3540 10.3400 0.0000 0.0000 0.0000
# 3 32.2934 10.3400 88.5976 0.0000 0.0000 0.0000
# 4 0.0000 0.0000 0.0000 20.4524 0.0000 0.0000
# 5 0.0000 0.0000 0.0000 0.0000 24.0735 0.0000
# 6 0.0000 0.0000 0.0000 0.0000 0.0000 21.1868
#
#
#
# Elastic Compliance Matrix: (Units=1/GPa)
#
#
# Indices 1 2 3 4 5 6 
#
# 1 0.011244 -0.008156 -0.003147 0.000000 0.000000 0.000000
# 2 -0.008156 0.029642 -0.000487 0.000000 0.000000 0.000000
# 3 -0.003147 -0.000487 0.012491 0.000000 0.000000 0.000000
# 4 0.000000 0.000000 0.000000 0.048894 0.000000 0.000000
# 5 0.000000 0.000000 0.000000 0.000000 0.041539 0.000000
# 6 0.000000 0.000000 0.000000 0.000000 0.000000 0.047199
#
#
# Mechanical properties :
#
#
# Convention : Reuss Voigt Hill
#
# Bulk Modulus (GPa) = 33.55852 45.41955 39.48903
# Shear Modulus (GPa) = 22.26965 24.99969 23.63467
#
# Velocity S-wave (km/s) = 3.43369 3.63807 3.53735
# Velocity P-wave (km/s) = 5.78680 6.45708 6.13111
#
# Compressibility (1/GPa) = 0.02979870
#
# Stress axis : x y z
#
# Youngs Moduli (GPa) = 88.93408 33.73600 80.05938
#
# Poissons Ratio (x) = 0.27514 0.25192
# Poissons Ratio (y) = 0.72533 0.03896
# Poissons Ratio (z) = 0.27984 0.01642
#
# Static dielectric constant tensor:
#      x y z
#    x 4.389840 0.000000 0.000000 
#    y 0.000000 3.612630 0.000000 
#    z 0.000000 0.000000 3.475330 
# 
# 
# High freq. dielectric constant tensor:
#      x y z
#    x 1.724740 0.000000 0.000000 
#    y 0.000000 1.727520 0.000000 
#    z 0.000000 0.000000 1.720950 
# 
# From -- ./inp_files/26955.got.cif
#   From: 2010.03.12/outbox.cif.g09.slc.cpg/sg67_14_cif.got.tgz:26955.got - 2010.04.10 22:41:39.
