data_PCOD8279787
_publ_section_title
;
Structure prediction by ZEFSAII (Michael W. Deem and Ramdas Pophale) SiO2 
 PCOD8279787
Probable space group: C M M A
;
_chemical_formula_sum "Si O2"
_cell_formula_units_Z 88
_cell_length_a 30.463690
_cell_length_b 8.884036
_cell_length_c 17.751416
_cell_angle_alpha 90.000000
_cell_angle_beta 90.000000
_cell_angle_gamma 90.000000
_cell_volume 4804.252433
_symmetry_space_group_name_H-M "C M M A"
_symmetry_group_IT_number 67
_symmetry_cell_setting 'orthorhombic'
loop_
_space_group_symop_operation_xyz
x,y,z
-x,1/2-y,z
x,-y,-z
-x,1/2+y,-z
-x,-y,-z
x,1/2+y,-z
-x,y,z
x,1/2-y,z
1/2+x,1/2+y,z
1/2-x,-y,z
1/2+x,1/2-y,-z
1/2-x,y,-z
1/2-x,1/2-y,-z
1/2+x,y,-z
1/2-x,1/2+y,z
1/2+x,-y,z
loop_
_atom_site_type_symbol
_atom_site_label
_atom_site_fract_x
_atom_site_fract_y
_atom_site_fract_z
Si Si1 0.205578 0.425731 0.762038
Si Si2 0.114088 0.926933 0.300966
Si Si3 0.670222 0.570556 0.923951
Si Si4 0.000000 0.579544 0.922546
Si Si5 0.549652 0.427167 0.580595
Si Si6 0.909041 0.426996 0.147410
O O1 0.212837 0.250000 0.762650
O O2 0.250000 0.500000 0.731633
O O3 0.166175 0.468304 0.704106
O O4 0.196325 0.478740 0.848335
O O5 0.107340 0.750000 0.312329
O O6 0.088171 0.012456 0.366185
O O7 0.094661 0.977940 0.222565
O O8 0.666844 0.750000 0.931229
O O9 0.622305 0.495104 0.917037
O O10 0.692162 0.500000 0.000000
O O11 0.041737 0.537268 0.874101
O O12 0.000000 0.750000 0.945768
O O13 0.000000 0.500000 0.000000
O O14 0.557317 0.500000 0.500000
O O15 0.500000 0.465809 0.609971
O O16 0.555488 0.250000 0.573184
O O17 0.899301 0.250000 0.159820
#
# Coordination Sequence:
#
# PCOD8279787 Si02
#       6
#    16  16  16   8  16  16
#     4   9  20  36  54  77 106 138 180 227 275 330
#     4  10  21  37  56  82 112 144 180 221 268 322
#     4  10  20  34  50  72 100 133 175 226 279 335
#     4  10  22  34  46  66  95 130 175 224 268 314
#     4  10  21  37  59  88 120 152 184 219 260 313
#     4  10  20  34  50  71  99 136 178 225 271 321
#
# _framework density 18.317105000000002
#
# number of rings (size 3 to 8) (size 9 to 14) (size 15 to 20)
#    0.000    2.182    0.000    3.818    1.273    8.727 
#    0.000    1.818    0.000    0.545    0.000    3.818 
#    0.000    0.000    0.000    0.000    0.000    0.000 
#
# Total GULP energy -545371.316428 kJ/mol
# GULP energy per Si atom -12394.802646 kJ/mol
# Density = 1.827541 g / cm^3
# Si number density = 18.317105 Si / 1000 Ang^3
#
#
#
# Elastic Constant Matrix: (Units=GPa)
#
#
# Indices 1 2 3 4 5 6 
#
# 1 134.2386 55.1139 49.7739 0.0000 0.0000 0.0000
# 2 55.1139 53.7262 30.7394 0.0000 0.0000 0.0000
# 3 49.7739 30.7394 81.2006 0.0000 0.0000 0.0000
# 4 0.0000 0.0000 0.0000 36.2644 0.0000 0.0000
# 5 0.0000 0.0000 0.0000 0.0000 21.8520 0.0000
# 6 0.0000 0.0000 0.0000 0.0000 0.0000 31.2015
#
#
#
# Elastic Compliance Matrix: (Units=1/GPa)
#
#
# Indices 1 2 3 4 5 6 
#
# 1 0.013799 -0.011891 -0.003957 0.000000 0.000000 0.000000
# 2 -0.011891 0.034007 -0.005584 0.000000 0.000000 0.000000
# 3 -0.003957 -0.005584 0.016855 0.000000 0.000000 0.000000
# 4 0.000000 0.000000 0.000000 0.027575 0.000000 0.000000
# 5 0.000000 0.000000 0.000000 0.000000 0.045762 0.000000
# 6 0.000000 0.000000 0.000000 0.000000 0.000000 0.032050
#
#
# Mechanical properties :
#
#
# Convention : Reuss Voigt Hill
#
# Bulk Modulus (GPa) = 45.88230 60.04666 52.96448
# Shear Modulus (GPa) = 22.70900 26.76612 24.73756
#
# Velocity S-wave (km/s) = 3.52486 3.82680 3.67893
# Velocity P-wave (km/s) = 6.45519 7.23731 6.85741
#
# Compressibility (1/GPa) = 0.02179490
#
# Stress axis : x y z
#
# Youngs Moduli (GPa) = 72.47076 29.40612 59.33109
#
# Poissons Ratio (x) = 0.34968 0.23475
# Poissons Ratio (y) = 0.86177 0.33133
# Poissons Ratio (z) = 0.28674 0.16422
#
# Static dielectric constant tensor:
#      x y z
#    x 4.072730 0.000000 0.000000 
#    y 0.000000 3.478280 0.000000 
#    z 0.000000 0.000000 3.110270 
# 
# 
# High freq. dielectric constant tensor:
#      x y z
#    x 1.713120 0.000000 0.000000 
#    y 0.000000 1.722540 0.000000 
#    z 0.000000 0.000000 1.691520 
# 
# From -- ./inp_files/32405.got.cif
#   From: 2010.03.12/outbox.cif.g09.slc.cpg/sg67_17_cif.got.tgz:32405.got - 2010.04.10 22:41:39.
