data_PCOD8279809
_publ_section_title
;
Structure prediction by ZEFSAII (Michael W. Deem and Ramdas Pophale) SiO2 
 PCOD8279809
Probable space group: C M M A
;
_chemical_formula_sum "Si O2"
_cell_formula_units_Z 72
_cell_length_a 8.867895
_cell_length_b 32.053184
_cell_length_c 13.484900
_cell_angle_alpha 90.000000
_cell_angle_beta 90.000000
_cell_angle_gamma 90.000000
_cell_volume 3833.005558
_symmetry_space_group_name_H-M "C M M A"
_symmetry_group_IT_number 67
_symmetry_cell_setting 'orthorhombic'
loop_
_space_group_symop_operation_xyz
x,y,z
-x,1/2-y,z
x,-y,-z
-x,1/2+y,-z
-x,-y,-z
x,1/2+y,-z
-x,y,z
x,1/2-y,z
1/2+x,1/2+y,z
1/2-x,-y,z
1/2+x,1/2-y,-z
1/2-x,y,-z
1/2-x,1/2-y,-z
1/2+x,y,-z
1/2-x,1/2+y,z
1/2+x,-y,z
loop_
_atom_site_type_symbol
_atom_site_label
_atom_site_fract_x
_atom_site_fract_y
_atom_site_fract_z
Si Si1 0.324173 0.250000 0.106399
Si Si2 0.320525 0.872201 0.395713
Si Si3 0.822057 0.087727 0.101300
Si Si4 0.678649 0.664185 0.793471
Si Si5 0.325303 0.042749 0.700726
O O1 0.500000 0.250000 0.086848
O O2 0.275007 0.209750 0.168956
O O3 0.250000 0.250000 0.000000
O O4 0.500000 0.867789 0.397302
O O5 0.250000 0.859232 0.500000
O O6 0.254114 0.841057 0.313907
O O7 0.270034 0.919430 0.369089
O O8 0.745602 0.131513 0.128156
O O9 0.785319 0.053613 0.185486
O O10 0.000000 0.094844 0.090238
O O11 0.750000 0.070571 0.000000
O O12 0.500000 0.657857 0.785201
O O13 0.500000 0.035918 0.686717
O O14 0.250000 0.000000 0.666535
#
# Coordination Sequence:
#
# PCOD8279809 Si02
#       5
#     8  16  16  16  16
#     4  10  22  36  55  84 115 144 177 214 258 308
#     4  10  21  38  58  81 106 138 177 219 265 316
#     4  10  20  34  51  75 105 141 181 220 263 316
#     4  10  20  36  56  80 109 141 176 219 264 313
#     4   9  20  35  51  74 105 136 174 220 265 313
#
# _framework density 18.784213999999999
#
# number of rings (size 3 to 8) (size 9 to 14) (size 15 to 20)
#    0.000    2.222    0.000    4.000    0.000    9.778 
#    0.000    5.000    0.000    0.000    0.000    0.000 
#    0.000    0.000    0.000    0.000    0.000    0.000 
#
# Total GULP energy -446477.513716 kJ/mol
# GULP energy per Si atom -12402.153159 kJ/mol
# Density = 1.874146 g / cm^3
# Si number density = 18.784214 Si / 1000 Ang^3
#
#
#
# Elastic Constant Matrix: (Units=GPa)
#
#
# Indices 1 2 3 4 5 6 
#
# 1 77.4187 38.2145 42.7771 0.0000 0.0000 0.0000
# 2 38.2145 107.4539 35.1484 0.0000 0.0000 0.0000
# 3 42.7771 35.1484 124.7519 0.0000 0.0000 0.0000
# 4 0.0000 0.0000 0.0000 14.2317 0.0000 0.0000
# 5 0.0000 0.0000 0.0000 0.0000 34.5790 0.0000
# 6 0.0000 0.0000 0.0000 0.0000 0.0000 29.5817
#
#
#
# Elastic Compliance Matrix: (Units=1/GPa)
#
#
# Indices 1 2 3 4 5 6 
#
# 1 0.017942 -0.004812 -0.004797 0.000000 0.000000 0.000000
# 2 -0.004812 0.011542 -0.001602 0.000000 0.000000 0.000000
# 3 -0.004797 -0.001602 0.010112 0.000000 0.000000 0.000000
# 4 0.000000 0.000000 0.000000 0.070266 0.000000 0.000000
# 5 0.000000 0.000000 0.000000 0.000000 0.028919 0.000000
# 6 0.000000 0.000000 0.000000 0.000000 0.000000 0.033805
#
#
# Mechanical properties :
#
#
# Convention : Reuss Voigt Hill
#
# Bulk Modulus (GPa) = 58.22375 60.21160 59.21767
# Shear Modulus (GPa) = 24.90893 28.57745 26.74319
#
# Velocity S-wave (km/s) = 3.64546 3.90469 3.77730
# Velocity P-wave (km/s) = 6.98445 7.24242 7.11461
#
# Compressibility (1/GPa) = 0.01717512
#
# Stress axis : x y z
#
# Youngs Moduli (GPa) = 55.73411 86.64335 98.89280
#
# Poissons Ratio (x) = 0.41692 0.47435
# Poissons Ratio (y) = 0.26819 0.15841
# Poissons Ratio (z) = 0.26734 0.13878
#
# Static dielectric constant tensor:
#      x y z
#    x 3.468740 0.000000 0.000000 
#    y 0.000000 3.473600 0.000000 
#    z 0.000000 0.000000 3.549650 
# 
# 
# High freq. dielectric constant tensor:
#      x y z
#    x 1.738750 0.000000 0.000000 
#    y 0.000000 1.719390 0.000000 
#    z 0.000000 0.000000 1.734310 
# 
# From -- ./inp_files/25279.got.cif
#   From: 2010.03.12/outbox.cif.g09.slc.cpg/sg67_13_cif.got.tgz:25279.got - 2010.04.10 22:41:39.
