data_PCOD8279270
_publ_section_title
;
Structure prediction by ZEFSAII (Michael W. Deem and Ramdas Pophale) SiO2 
 PCOD8279270
Probable space group: C M M A
;
_chemical_formula_sum "Si O2"
_cell_formula_units_Z 80
_cell_length_a 24.837335
_cell_length_b 35.363346
_cell_length_c 5.159887
_cell_angle_alpha 90.000000
_cell_angle_beta 90.000000
_cell_angle_gamma 90.000000
_cell_volume 4532.090109
_symmetry_space_group_name_H-M "C M M A"
_symmetry_group_IT_number 67
_symmetry_cell_setting 'orthorhombic'
loop_
_space_group_symop_operation_xyz
x,y,z
-x,1/2-y,z
x,-y,-z
-x,1/2+y,-z
-x,-y,-z
x,1/2+y,-z
-x,y,z
x,1/2-y,z
1/2+x,1/2+y,z
1/2-x,-y,z
1/2+x,1/2-y,-z
1/2-x,y,-z
1/2-x,1/2-y,-z
1/2+x,y,-z
1/2-x,1/2+y,z
1/2+x,-y,z
loop_
_atom_site_type_symbol
_atom_site_label
_atom_site_fract_x
_atom_site_fract_y
_atom_site_fract_z
Si Si1 0.897124 0.540883 0.393323
Si Si2 0.563986 0.163938 0.981581
Si Si3 0.562029 0.079260 0.895142
Si Si4 0.564266 0.292738 0.480631
Si Si5 0.273961 0.457900 0.253218
O O1 0.914325 0.500000 0.500000
O O2 0.903187 0.567868 0.642814
O O3 0.837879 0.541063 0.270139
O O4 0.933653 0.552286 0.147462
O O5 0.500000 0.165468 0.984393
O O6 0.583330 0.120581 0.976898
O O7 0.586691 0.186512 0.734985
O O8 0.587321 0.184253 0.235977
O O9 0.500000 0.079952 0.805840
O O10 0.500000 0.292578 0.478527
O O11 0.586378 0.250000 0.472829
O O12 0.250000 0.500000 0.252024
O O13 0.250000 0.435674 0.500000
O O14 0.250000 0.436830 0.000000
#
# Coordination Sequence:
#
# PCOD8279270 Si02
#       5
#    16  16  16  16  16
#     4  12  23  36  55  75  93 125 177 221 251 302
#     4   9  17  30  43  59  91 130 163 198 241 288
#     4  11  24  37  49  68 102 144 177 205 246 290
#     4   9  15  24  43  67  86 112 161 214 244 270
#     4  10  19  34  56  76  92 111 143 211 269 326
#
# _framework density 17.651900999999999
#
# number of rings (size 3 to 8) (size 9 to 14) (size 15 to 20)
#    0.000    1.800    2.000    4.200    2.800    8.000 
#    0.000    0.000    0.000    0.000    0.000    0.000 
#    0.000    0.000    0.000    0.000    0.000  252.000 
#
# Total GULP energy -495783.425530 kJ/mol
# GULP energy per Si atom -12394.585638 kJ/mol
# Density = 1.761172 g / cm^3
# Si number density = 17.651901 Si / 1000 Ang^3
#
#
#
# Elastic Constant Matrix: (Units=GPa)
#
#
# Indices 1 2 3 4 5 6 
#
# 1 39.5421 26.1485 21.2742 0.0000 0.0000 0.0000
# 2 26.1485 95.6819 47.2311 0.0000 0.0000 0.0000
# 3 21.2742 47.2311 166.3453 0.0000 0.0000 0.0000
# 4 0.0000 0.0000 0.0000 29.0019 0.0000 0.0000
# 5 0.0000 0.0000 0.0000 0.0000 27.1685 0.0000
# 6 0.0000 0.0000 0.0000 0.0000 0.0000 0.0561
#
#
#
# Elastic Compliance Matrix: (Units=1/GPa)
#
#
# Indices 1 2 3 4 5 6 
#
# 1 0.031341 -0.007660 -0.001833 0.000000 0.000000 0.000000
# 2 -0.007660 0.014027 -0.003003 0.000000 0.000000 0.000000
# 3 -0.001833 -0.003003 0.007099 0.000000 0.000000 0.000000
# 4 0.000000 0.000000 0.000000 0.034480 0.000000 0.000000
# 5 0.000000 0.000000 0.000000 0.000000 0.036807 0.000000
# 6 0.000000 0.000000 0.000000 0.000000 0.000000 17.840307
#
#
# Mechanical properties :
#
#
# Convention : Reuss Voigt Hill
#
# Bulk Modulus (GPa) = 36.39797 54.54188 45.46993
# Shear Modulus (GPa) = 0.27781 25.03966 12.65873
#
# Velocity S-wave (km/s) = 0.39714 3.77042 2.68084
# Velocity P-wave (km/s) = 4.56891 7.06544 5.94959
#
# Compressibility (1/GPa) = 0.02747406
#
# Stress axis : x y z
#
# Youngs Moduli (GPa) = 31.90666 71.29038 140.87002
#
# Poissons Ratio (x) = 0.54610 0.25826
# Poissons Ratio (y) = 0.24441 0.42305
# Poissons Ratio (z) = 0.05849 0.21409
#
# Static dielectric constant tensor:
#      x y z
#    x 2.815640 0.000000 0.000000 
#    y 0.000000 3.254220 0.000000 
#    z 0.000000 0.000000 2.268540 
# 
# 
# High freq. dielectric constant tensor:
#      x y z
#    x 1.619450 0.000000 0.000000 
#    y 0.000000 1.663570 0.000000 
#    z 0.000000 0.000000 1.718190 
# 
# From -- ./inp_files/3525.got.cif
#   From: 2010.03.12/outbox.cif.g09.slc.cpg/sg67_2_cif.got.tgz:3525.got - 2010.04.10 22:41:39.
