data_PCOD8279364
_publ_section_title
;
Structure prediction by ZEFSAII (Michael W. Deem and Ramdas Pophale) SiO2 
 PCOD8279364
Probable space group: C M M A
;
_chemical_formula_sum "Si O2"
_cell_formula_units_Z 96
_cell_length_a 8.865869
_cell_length_b 28.604150
_cell_length_c 20.506411
_cell_angle_alpha 90.000000
_cell_angle_beta 90.000000
_cell_angle_gamma 90.000000
_cell_volume 5200.439092
_symmetry_space_group_name_H-M "C M M A"
_symmetry_group_IT_number 67
_symmetry_cell_setting 'orthorhombic'
loop_
_space_group_symop_operation_xyz
x,y,z
-x,1/2-y,z
x,-y,-z
-x,1/2+y,-z
-x,-y,-z
x,1/2+y,-z
-x,y,z
x,1/2-y,z
1/2+x,1/2+y,z
1/2-x,-y,z
1/2+x,1/2-y,-z
1/2-x,y,-z
1/2-x,1/2-y,-z
1/2+x,y,-z
1/2-x,1/2+y,z
1/2+x,-y,z
loop_
_atom_site_type_symbol
_atom_site_label
_atom_site_fract_x
_atom_site_fract_y
_atom_site_fract_z
Si Si1 0.177318 0.803180 0.566895
Si Si2 0.321300 0.641164 0.065743
Si Si3 0.327063 0.194875 0.181166
Si Si4 0.175567 0.453356 0.736864
Si Si5 0.676763 0.854292 0.685754
Si Si6 0.678973 0.951908 0.886313
O O1 0.229389 0.750000 0.580981
O O2 0.250000 0.821541 0.500000
O O3 0.230503 0.835790 0.625087
O O4 0.000000 0.806902 0.559606
O O5 0.500000 0.638137 0.059712
O O6 0.278872 0.674721 0.125256
O O7 0.251863 0.589796 0.073312
O O8 0.250000 0.663059 0.000000
O O9 0.500000 0.179969 0.166932
O O10 0.307471 0.250000 0.184102
O O11 0.274402 0.174033 0.250062
O O12 0.250000 0.500000 0.707221
O O13 0.221568 0.408563 0.694252
O O14 0.227079 0.444594 0.811121
O O15 0.000000 0.462028 0.734885
O O16 0.500000 0.847747 0.672379
O O17 0.500000 0.952124 0.896105
O O18 0.750000 0.000000 0.912895
#
# Coordination Sequence:
#
# PCOD8279364 Si02
#       6
#    16  16  16  16  16  16
#     4  10  21  36  55  83 118 154 191 231 275 327
#     4  12  25  40  58  79 108 146 187 234 286 339
#     4  10  21  39  61  83 110 145 185 231 283 338
#     4   9  18  32  54  82 114 146 181 222 271 327
#     4  10  19  35  59  86 115 150 185 225 276 329
#     4  10  19  36  58  83 113 143 182 227 280 339
#
# _framework density 18.459980000000002
#
# number of rings (size 3 to 8) (size 9 to 14) (size 15 to 20)
#    0.000    1.833    1.667    3.000    0.000    4.667 
#    0.000    1.667    0.000    0.500    0.000    3.500 
#    0.000    0.000    0.000    0.000    0.000    0.000 
#
# Total GULP energy -595391.416411 kJ/mol
# GULP energy per Si atom -12403.987842 kJ/mol
# Density = 1.841796 g / cm^3
# Si number density = 18.459980 Si / 1000 Ang^3
#
#
#
# Elastic Constant Matrix: (Units=GPa)
#
#
# Indices 1 2 3 4 5 6 
#
# 1 88.5125 43.4026 49.8581 0.0000 0.0000 0.0000
# 2 43.4026 96.6287 53.2997 0.0000 0.0000 0.0000
# 3 49.8581 53.2997 116.4066 0.0000 0.0000 0.0000
# 4 0.0000 0.0000 0.0000 18.9146 0.0000 0.0000
# 5 0.0000 0.0000 0.0000 0.0000 32.5971 0.0000
# 6 0.0000 0.0000 0.0000 0.0000 0.0000 33.7314
#
#
#
# Elastic Compliance Matrix: (Units=1/GPa)
#
#
# Indices 1 2 3 4 5 6 
#
# 1 0.016314 -0.004647 -0.004860 0.000000 0.000000 0.000000
# 2 -0.004647 0.015170 -0.004955 0.000000 0.000000 0.000000
# 3 -0.004860 -0.004955 0.012941 0.000000 0.000000 0.000000
# 4 0.000000 0.000000 0.000000 0.052869 0.000000 0.000000
# 5 0.000000 0.000000 0.000000 0.000000 0.030678 0.000000
# 6 0.000000 0.000000 0.000000 0.000000 0.000000 0.029646
#
#
# Mechanical properties :
#
#
# Convention : Reuss Voigt Hill
#
# Bulk Modulus (GPa) = 64.51528 66.07431 65.29480
# Shear Modulus (GPa) = 26.08129 27.38111 26.73120
#
# Velocity S-wave (km/s) = 3.76288 3.85550 3.80947
# Velocity P-wave (km/s) = 7.34191 7.46263 7.40251
#
# Compressibility (1/GPa) = 0.01550020
#
# Stress axis : x y z
#
# Youngs Moduli (GPa) = 61.29707 65.92128 77.27421
#
# Poissons Ratio (x) = 0.30635 0.37552
# Poissons Ratio (y) = 0.28486 0.38292
# Poissons Ratio (z) = 0.29788 0.32666
#
# Static dielectric constant tensor:
#      x y z
#    x 3.505250 0.000000 0.000000 
#    y 0.000000 3.510590 0.000000 
#    z 0.000000 0.000000 3.311930 
# 
# 
# High freq. dielectric constant tensor:
#      x y z
#    x 1.717670 0.000000 0.000000 
#    y 0.000000 1.720470 0.000000 
#    z 0.000000 0.000000 1.704360 
# 
# From -- ./inp_files/37119.got.cif
#   From: 2010.03.12/outbox.cif.g09.slc.cpg/sg67_19_cif.got.tgz:37119.got - 2010.04.10 22:41:39.
