data_PCOD8279187
_publ_section_title
;
Structure prediction by ZEFSAII (Michael W. Deem and Ramdas Pophale) SiO2 
 PCOD8279187
Probable space group: C M M A
;
_chemical_formula_sum "Si O2"
_cell_formula_units_Z 72
_cell_length_a 7.739788
_cell_length_b 15.539581
_cell_length_c 28.431940
_cell_angle_alpha 90.000000
_cell_angle_beta 90.000000
_cell_angle_gamma 90.000000
_cell_volume 3419.596498
_symmetry_space_group_name_H-M "C M M A"
_symmetry_group_IT_number 67
_symmetry_cell_setting 'orthorhombic'
loop_
_space_group_symop_operation_xyz
x,y,z
-x,1/2-y,z
x,-y,-z
-x,1/2+y,-z
-x,-y,-z
x,1/2+y,-z
-x,y,z
x,1/2-y,z
1/2+x,1/2+y,z
1/2-x,-y,z
1/2+x,1/2-y,-z
1/2-x,y,-z
1/2-x,1/2-y,-z
1/2+x,y,-z
1/2-x,1/2+y,z
1/2+x,-y,z
loop_
_atom_site_type_symbol
_atom_site_label
_atom_site_fract_x
_atom_site_fract_y
_atom_site_fract_z
Si Si1 0.806830 0.150615 0.786418
Si Si2 0.797387 0.250000 0.054031
Si Si3 0.202642 0.407270 0.114632
Si Si4 0.500000 0.352343 0.721356
Si Si5 0.693136 0.352462 0.449080
Si Si6 0.000000 0.852860 0.615934
O O1 0.764742 0.250000 0.797493
O O2 0.793660 0.099101 0.834895
O O3 0.670952 0.114213 0.748389
O O4 0.000000 0.139091 0.765766
O O5 0.721561 0.164901 0.079306
O O6 0.000000 0.250000 0.059689
O O7 0.750000 0.250000 0.000000
O O8 0.250000 0.500000 0.092757
O O9 0.000000 0.395112 0.121682
O O10 0.500000 0.250000 0.718678
O O11 0.500000 0.390454 0.668760
O O12 0.500000 0.385637 0.436769
O O13 0.696147 0.250000 0.450011
O O14 0.750000 0.388004 0.500000
O O15 0.828213 0.387356 0.410370
O O16 0.000000 0.750000 0.616040
#
# Coordination Sequence:
#
# PCOD8279187 Si02
#       6
#    16   8  16   8  16   8
#     4  10  19  33  56  80 106 147 191 238 298 357
#     4  10  24  42  64  88 128 168 200 252 310 355
#     4  11  22  39  62  91 121 157 204 255 299 358
#     4   9  18  30  46  68 102 134 180 239 290 358
#     4   9  14  20  31  46  70 111 165 218 272 334
#     4   9  16  24  34  54  82 118 165 228 281 328
#
# _framework density 21.055116000000002
#
# number of rings (size 3 to 8) (size 9 to 14) (size 15 to 20)
#    0.000    2.222    3.333    0.667    0.000    3.111 
#    0.000    6.667    0.000    0.000    0.000    0.000 
#    0.000    0.000    0.000    0.000    0.000    3.333 
#
# Total GULP energy -446396.626712 kJ/mol
# GULP energy per Si atom -12399.906298 kJ/mol
# Density = 2.100719 g / cm^3
# Si number density = 21.055116 Si / 1000 Ang^3
#
#
#
# Elastic Constant Matrix: (Units=GPa)
#
#
# Indices 1 2 3 4 5 6 
#
# 1 155.9769 23.8499 71.7098 0.0000 0.0000 0.0000
# 2 23.8499 73.2173 41.7217 0.0000 0.0000 0.0000
# 3 71.7098 41.7217 179.9476 0.0000 0.0000 0.0000
# 4 0.0000 0.0000 0.0000 3.2803 0.0000 0.0000
# 5 0.0000 0.0000 0.0000 0.0000 31.8520 0.0000
# 6 0.0000 0.0000 0.0000 0.0000 0.0000 15.9910
#
#
#
# Elastic Compliance Matrix: (Units=1/GPa)
#
#
# Indices 1 2 3 4 5 6 
#
# 1 0.007900 -0.000898 -0.002940 0.000000 0.000000 0.000000
# 2 -0.000898 0.015839 -0.003315 0.000000 0.000000 0.000000
# 3 -0.002940 -0.003315 0.007497 0.000000 0.000000 0.000000
# 4 0.000000 0.000000 0.000000 0.304853 0.000000 0.000000
# 5 0.000000 0.000000 0.000000 0.000000 0.031395 0.000000
# 6 0.000000 0.000000 0.000000 0.000000 0.000000 0.062535
#
#
# Mechanical properties :
#
#
# Convention : Reuss Voigt Hill
#
# Bulk Modulus (GPa) = 59.06170 75.96718 67.51444
# Shear Modulus (GPa) = 11.11188 28.34870 19.73029
#
# Velocity S-wave (km/s) = 2.29978 3.67332 3.06449
# Velocity P-wave (km/s) = 5.92991 7.35864 6.68257
#
# Compressibility (1/GPa) = 0.01693145
#
# Stress axis : x y z
#
# Youngs Moduli (GPa) = 126.57915 63.13432 133.38190
#
# Poissons Ratio (x) = 0.05670 0.39215
# Poissons Ratio (y) = 0.11368 0.44210
# Poissons Ratio (z) = 0.37215 0.20926
#
# Static dielectric constant tensor:
#      x y z
#    x 3.962800 0.000000 0.000000 
#    y 0.000000 3.477830 0.000000 
#    z 0.000000 0.000000 3.624820 
# 
# 
# High freq. dielectric constant tensor:
#      x y z
#    x 1.836590 0.000000 0.000000 
#    y 0.000000 1.786650 0.000000 
#    z 0.000000 0.000000 1.810790 
# 
# From -- ./inp_files/43150.got.cif
#   From: 2010.03.12/outbox.cif.g09.slc.cpg/sg67_22_cif.got.tgz:43150.got - 2010.04.10 22:41:39.
