data_PCOD8279322
_publ_section_title
;
Structure prediction by ZEFSAII (Michael W. Deem and Ramdas Pophale) SiO2 
 PCOD8279322
Probable space group: C M M A
;
_chemical_formula_sum "Si O2"
_cell_formula_units_Z 96
_cell_length_a 23.781164
_cell_length_b 17.749452
_cell_length_c 12.235668
_cell_angle_alpha 90.000000
_cell_angle_beta 90.000000
_cell_angle_gamma 90.000000
_cell_volume 5164.707629
_symmetry_space_group_name_H-M "C M M A"
_symmetry_group_IT_number 67
_symmetry_cell_setting 'orthorhombic'
loop_
_space_group_symop_operation_xyz
x,y,z
-x,1/2-y,z
x,-y,-z
-x,1/2+y,-z
-x,-y,-z
x,1/2+y,-z
-x,y,z
x,1/2-y,z
1/2+x,1/2+y,z
1/2-x,-y,z
1/2+x,1/2-y,-z
1/2-x,y,-z
1/2-x,1/2-y,-z
1/2+x,y,-z
1/2-x,1/2+y,z
1/2+x,-y,z
loop_
_atom_site_type_symbol
_atom_site_label
_atom_site_fract_x
_atom_site_fract_y
_atom_site_fract_z
Si Si1 0.120938 0.838011 0.978184
Si Si2 0.000000 0.339552 0.709865
Si Si3 0.119157 0.163007 0.634773
Si Si4 0.194279 0.663270 0.565127
Si Si5 0.310923 0.909861 0.204673
Si Si6 0.682665 0.916808 0.824460
Si Si7 0.000000 0.661540 0.044729
O O1 0.127377 0.750000 0.005442
O O2 0.146950 0.855194 0.860152
O O3 0.152099 0.885784 0.069660
O O4 0.055490 0.863361 0.978375
O O5 0.055707 0.368916 0.647094
O O6 0.000000 0.250000 0.710787
O O7 0.000000 0.373216 0.832832
O O8 0.121231 0.250000 0.669306
O O9 0.139663 0.151683 0.510923
O O10 0.161686 0.121309 0.714384
O O11 0.200202 0.750000 0.603444
O O12 0.250000 0.638394 0.500000
O O13 0.185596 0.609376 0.667787
O O14 0.248124 0.898210 0.160557
O O15 0.329981 0.995031 0.185469
O O16 0.000000 0.750000 0.059888
#
# Coordination Sequence:
#
# PCOD8279322 Si02
#       7
#    16   8  16  16  16  16   8
#     4  11  22  38  61  85 112 147 192 240 287 336
#     4   9  16  32  58  86 114 140 188 248 292 318
#     4  10  19  34  60  88 110 142 195 247 279 324
#     4  10  20  36  59  85 112 147 196 237 275 335
#     4  11  24  38  53  83 124 157 179 227 290 351
#     4  11  22  37  56  83 117 153 188 229 283 346
#     4   9  18  34  59  86 108 139 188 244 290 335
#
# _framework density 18.587693000000002
#
# number of rings (size 3 to 8) (size 9 to 14) (size 15 to 20)
#    0.000    1.667    3.333    2.000    0.000    4.667 
#    0.000    3.333    0.000    4.000    0.000    0.000 
#    0.000    0.000    0.000    0.000    0.000    0.000 
#
# Total GULP energy -595304.230889 kJ/mol
# GULP energy per Si atom -12402.171477 kJ/mol
# Density = 1.854539 g / cm^3
# Si number density = 18.587693 Si / 1000 Ang^3
#
#
#
# Elastic Constant Matrix: (Units=GPa)
#
#
# Indices 1 2 3 4 5 6 
#
# 1 132.4200 54.9227 61.3693 0.0000 0.0000 0.0000
# 2 54.9227 70.3011 46.2719 0.0000 0.0000 0.0000
# 3 61.3693 46.2719 109.6781 0.0000 0.0000 0.0000
# 4 0.0000 0.0000 0.0000 18.8687 0.0000 0.0000
# 5 0.0000 0.0000 0.0000 0.0000 32.1514 0.0000
# 6 0.0000 0.0000 0.0000 0.0000 0.0000 9.6972
#
#
#
# Elastic Compliance Matrix: (Units=1/GPa)
#
#
# Indices 1 2 3 4 5 6 
#
# 1 0.012272 -0.007016 -0.003907 0.000000 0.000000 0.000000
# 2 -0.007016 0.023704 -0.006075 0.000000 0.000000 0.000000
# 3 -0.003907 -0.006075 0.013866 0.000000 0.000000 0.000000
# 4 0.000000 0.000000 0.000000 0.052998 0.000000 0.000000
# 5 0.000000 0.000000 0.000000 0.000000 0.031103 0.000000
# 6 0.000000 0.000000 0.000000 0.000000 0.000000 0.103123
#
#
# Mechanical properties :
#
#
# Convention : Reuss Voigt Hill
#
# Bulk Modulus (GPa) = 63.10109 70.83633 66.96871
# Shear Modulus (GPa) = 18.09333 22.13248 20.11291
#
# Velocity S-wave (km/s) = 3.12333 3.45440 3.29303
# Velocity P-wave (km/s) = 6.85772 7.35544 7.11094
#
# Compressibility (1/GPa) = 0.01584759
#
# Stress axis : x y z
#
# Youngs Moduli (GPa) = 81.48340 42.18624 72.11670
#
# Poissons Ratio (x) = 0.29600 0.28174
# Poissons Ratio (y) = 0.57172 0.43808
# Poissons Ratio (z) = 0.31834 0.25627
#
# Static dielectric constant tensor:
#      x y z
#    x 3.755890 0.000000 0.000000 
#    y 0.000000 3.280020 0.000000 
#    z 0.000000 0.000000 3.381580 
# 
# 
# High freq. dielectric constant tensor:
#      x y z
#    x 1.730140 0.000000 0.000000 
#    y 0.000000 1.703970 0.000000 
#    z 0.000000 0.000000 1.718640 
# 
# From -- ./inp_files/19700.got.cif
#   From: 2010.03.12/outbox.cif.g09.slc.cpg/sg67_10_cif.got.tgz:19700.got - 2010.04.10 22:41:39.
