data_PCOD8279631
_publ_section_title
;
Structure prediction by ZEFSAII (Michael W. Deem and Ramdas Pophale) SiO2 
 PCOD8279631
Probable space group: C M M A
;
_chemical_formula_sum "Si O2"
_cell_formula_units_Z 112
_cell_length_a 27.746707
_cell_length_b 19.619643
_cell_length_c 11.243654
_cell_angle_alpha 90.000000
_cell_angle_beta 90.000000
_cell_angle_gamma 90.000000
_cell_volume 6120.825826
_symmetry_space_group_name_H-M "C M M A"
_symmetry_group_IT_number 67
_symmetry_cell_setting 'orthorhombic'
loop_
_space_group_symop_operation_xyz
x,y,z
-x,1/2-y,z
x,-y,-z
-x,1/2+y,-z
-x,-y,-z
x,1/2+y,-z
-x,y,z
x,1/2-y,z
1/2+x,1/2+y,z
1/2-x,-y,z
1/2+x,1/2-y,-z
1/2-x,y,-z
1/2-x,1/2-y,-z
1/2+x,y,-z
1/2-x,1/2+y,z
1/2+x,-y,z
loop_
_atom_site_type_symbol
_atom_site_label
_atom_site_fract_x
_atom_site_fract_y
_atom_site_fract_z
Si Si1 0.552797 0.050356 0.392868
Si Si2 0.675124 0.427873 0.949355
Si Si3 0.643472 0.010963 0.720356
Si Si4 0.616190 0.173285 0.408624
Si Si5 0.300338 0.388672 0.562008
Si Si6 0.732028 0.174502 0.803250
Si Si7 0.335815 0.628405 0.808747
O O1 0.500000 0.062888 0.333643
O O2 0.573456 0.121890 0.444635
O O3 0.545702 0.000000 0.500000
O O4 0.589206 0.014738 0.301016
O O5 0.639989 0.440275 0.836457
O O6 0.718890 0.381738 0.902106
O O7 0.694980 0.500000 0.000000
O O8 0.647844 0.386223 0.054468
O O9 0.668772 0.045945 0.606575
O O10 0.676213 0.944665 0.746898
O O11 0.601474 0.250000 0.443940
O O12 0.666738 0.153161 0.470139
O O13 0.622560 0.167072 0.265028
O O14 0.250000 0.410763 0.500000
O O15 0.289901 0.341040 0.674478
O O16 0.714045 0.250000 0.840747
O O17 0.789393 0.175647 0.799785
#
# Coordination Sequence:
#
# PCOD8279631 Si02
#       7
#    16  16  16  16  16  16  16
#     4  10  20  38  61  86 111 135 177 235 286 339
#     4   9  20  36  53  71 105 143 191 233 269 311
#     4   9  20  37  54  80 105 145 182 231 279 321
#     4  11  22  36  54  80 116 149 180 224 279 336
#     4  11  21  35  52  76 115 153 190 222 262 328
#     4  11  22  33  48  73 107 154 195 227 267 318
#     4  10  20  33  49  74 107 146 188 230 264 314
#
# _framework density 18.298183999999999
#
# number of rings (size 3 to 8) (size 9 to 14) (size 15 to 20)
#    0.000    1.857    2.857    1.286    0.000    9.429 
#    5.143    0.000    0.000   10.714    0.000    0.000 
#    0.000    0.000    0.000    0.000    0.000    0.000 
#
# Total GULP energy -693983.619314 kJ/mol
# GULP energy per Si atom -12392.564631 kJ/mol
# Density = 1.825654 g / cm^3
# Si number density = 18.298184 Si / 1000 Ang^3
#
#
#
# Elastic Constant Matrix: (Units=GPa)
#
#
# Indices 1 2 3 4 5 6 
#
# 1 101.7129 48.1403 30.7143 0.0000 0.0000 0.0000
# 2 48.1403 107.8907 40.7252 0.0000 0.0000 0.0000
# 3 30.7143 40.7252 86.7461 0.0000 0.0000 0.0000
# 4 0.0000 0.0000 0.0000 20.4429 0.0000 0.0000
# 5 0.0000 0.0000 0.0000 0.0000 13.3076 0.0000
# 6 0.0000 0.0000 0.0000 0.0000 0.0000 -13.3374
#
#
#
# Elastic Compliance Matrix: (Units=1/GPa)
#
#
# Indices 1 2 3 4 5 6 
#
# 1 0.012816 -0.004868 -0.002252 0.000000 0.000000 0.000000
# 2 -0.004868 0.013114 -0.004433 0.000000 0.000000 0.000000
# 3 -0.002252 -0.004433 0.014407 0.000000 0.000000 0.000000
# 4 0.000000 0.000000 0.000000 0.048917 0.000000 0.000000
# 5 0.000000 0.000000 0.000000 0.000000 0.075145 0.000000
# 6 0.000000 0.000000 0.000000 0.000000 0.000000 -0.074977
#
#
# Mechanical properties :
#
#
# Convention : Reuss Voigt Hill
#
# Bulk Modulus (GPa) = 58.03990 59.50101 58.77045
# Shear Modulus (GPa) = 42.27567 15.86728 29.07147
#
# Velocity S-wave (km/s) = 4.81185 2.94794 3.99025
# Velocity P-wave (km/s) = 7.91579 6.64644 7.30872
#
# Compressibility (1/GPa) = 0.01722953
#
# Stress axis : x y z
#
# Youngs Moduli (GPa) = 78.02868 76.25343 69.41286
#
# Poissons Ratio (x) = 0.37122 0.15633
# Poissons Ratio (y) = 0.37986 0.30771
# Poissons Ratio (z) = 0.17574 0.33804
#
# Static dielectric constant tensor:
#      x y z
#    x 3.216630 0.000000 0.000000 
#    y 0.000000 3.477560 0.000000 
#    z 0.000000 0.000000 3.667150 
# 
# 
# High freq. dielectric constant tensor:
#      x y z
#    x 1.659840 0.000000 0.000000 
#    y 0.000000 1.715750 0.000000 
#    z 0.000000 0.000000 1.717390 
# 
# From -- ./inp_files/23146.got.cif
#   From: 2010.03.12/outbox.cif.g09.slc.cpg/sg67_12_cif.got.tgz:23146.got - 2010.04.10 22:41:39.
