data_PCOD8279191
_publ_section_title
;
Structure prediction by ZEFSAII (Michael W. Deem and Ramdas Pophale) SiO2 
 PCOD8279191
Probable space group: C M M A
;
_chemical_formula_sum "Si O2"
_cell_formula_units_Z 80
_cell_length_a 18.117849
_cell_length_b 9.546648
_cell_length_c 24.011914
_cell_angle_alpha 90.000000
_cell_angle_beta 90.000000
_cell_angle_gamma 90.000000
_cell_volume 4153.214148
_symmetry_space_group_name_H-M "C M M A"
_symmetry_group_IT_number 67
_symmetry_cell_setting 'orthorhombic'
loop_
_space_group_symop_operation_xyz
x,y,z
-x,1/2-y,z
x,-y,-z
-x,1/2+y,-z
-x,-y,-z
x,1/2+y,-z
-x,y,z
x,1/2-y,z
1/2+x,1/2+y,z
1/2-x,-y,z
1/2+x,1/2-y,-z
1/2-x,y,-z
1/2-x,1/2-y,-z
1/2+x,y,-z
1/2-x,1/2+y,z
1/2+x,-y,z
loop_
_atom_site_type_symbol
_atom_site_label
_atom_site_fract_x
_atom_site_fract_y
_atom_site_fract_z
Si Si1 0.679074 0.907570 0.762461
Si Si2 0.413016 0.537689 0.869166
Si Si3 0.413231 0.750000 0.961092
Si Si4 0.324807 0.580966 0.554612
Si Si5 0.412616 0.250000 0.915704
Si Si6 0.581906 0.914374 0.662212
O O1 0.704400 0.750000 0.747276
O O2 0.633299 0.976336 0.711263
O O3 0.750000 0.000000 0.774719
O O4 0.627956 0.899456 0.816501
O O5 0.500000 0.554656 0.858193
O O6 0.389100 0.614823 0.925929
O O7 0.386795 0.379836 0.878745
O O8 0.500000 0.750000 0.969962
O O9 0.376018 0.750000 0.022439
O O10 0.355197 0.500000 0.500000
O O11 0.312548 0.750000 0.545245
O O12 0.250000 0.500000 0.571883
O O13 0.384000 0.552145 0.602301
O O14 0.500000 0.250000 0.923217
O O15 0.500000 0.981987 0.665072
O O16 0.575631 0.750000 0.671985
#
# Coordination Sequence:
#
# PCOD8279191 Si02
#       6
#    16  16   8  16   8  16
#     4  11  23  38  58  79 106 143 183 227 273 330
#     4  10  19  33  56  82 108 140 179 223 270 320
#     4   9  16  30  53  83 109 137 180 219 264 323
#     4  10  19  33  56  83 115 152 186 223 265 317
#     4   9  18  30  51  83 115 139 168 223 276 317
#     4   9  19  36  58  83 109 141 184 230 275 321
#
# _framework density 19.262191000000001
#
# number of rings (size 3 to 8) (size 9 to 14) (size 15 to 20)
#    0.000    2.200    1.000    3.000    1.400    3.600 
#    0.000    1.000    0.000    7.800    0.000    0.000 
#    0.000    0.000    0.000    0.000    0.000    0.000 
#
# Total GULP energy -495790.272011 kJ/mol
# GULP energy per Si atom -12394.756800 kJ/mol
# Density = 1.921835 g / cm^3
# Si number density = 19.262191 Si / 1000 Ang^3
#
#
#
# Elastic Constant Matrix: (Units=GPa)
#
#
# Indices 1 2 3 4 5 6 
#
# 1 77.6431 26.4126 44.2244 0.0000 0.0000 0.0000
# 2 26.4126 102.3376 18.7145 0.0000 0.0000 0.0000
# 3 44.2244 18.7145 97.0533 0.0000 0.0000 0.0000
# 4 0.0000 0.0000 0.0000 18.2222 0.0000 0.0000
# 5 0.0000 0.0000 0.0000 0.0000 13.4841 0.0000
# 6 0.0000 0.0000 0.0000 0.0000 0.0000 17.3399
#
#
#
# Elastic Compliance Matrix: (Units=1/GPa)
#
#
# Indices 1 2 3 4 5 6 
#
# 1 0.018433 -0.003339 -0.007755 0.000000 0.000000 0.000000
# 2 -0.003339 0.010734 -0.000548 0.000000 0.000000 0.000000
# 3 -0.007755 -0.000548 0.013943 0.000000 0.000000 0.000000
# 4 0.000000 0.000000 0.000000 0.054878 0.000000 0.000000
# 5 0.000000 0.000000 0.000000 0.000000 0.074162 0.000000
# 6 0.000000 0.000000 0.000000 0.000000 0.000000 0.057670
#
#
# Mechanical properties :
#
#
# Convention : Reuss Voigt Hill
#
# Bulk Modulus (GPa) = 50.44345 50.63743 50.54044
# Shear Modulus (GPa) = 19.25203 22.32142 20.78672
#
# Velocity S-wave (km/s) = 3.16487 3.40784 3.28860
# Velocity P-wave (km/s) = 6.29284 6.46762 6.38083
#
# Compressibility (1/GPa) = 0.01982418
#
# Stress axis : x y z
#
# Youngs Moduli (GPa) = 54.25144 93.16509 71.71948
#
# Poissons Ratio (x) = 0.31109 0.55621
# Poissons Ratio (y) = 0.18115 0.03932
# Poissons Ratio (z) = 0.42074 0.05107
#
# Static dielectric constant tensor:
#      x y z
#    x 3.289350 0.000000 0.000000 
#    y 0.000000 3.480300 0.000000 
#    z 0.000000 0.000000 3.625400 
# 
# 
# High freq. dielectric constant tensor:
#      x y z
#    x 1.721520 0.000000 0.000000 
#    y 0.000000 1.741410 0.000000 
#    z 0.000000 0.000000 1.763870 
# 
# From -- ./inp_files/44468.got.cif
#   From: 2010.03.12/outbox.cif.g09.slc.cpg/sg67_23_cif.got.tgz:44468.got - 2010.04.10 22:41:39.
