data_PCOD8279997
_publ_section_title
;
Structure prediction by ZEFSAII (Michael W. Deem and Ramdas Pophale) SiO2 
 PCOD8279997
Probable space group: C M M A
;
_chemical_formula_sum "Si O2"
_cell_formula_units_Z 96
_cell_length_a 8.714199
_cell_length_b 28.765219
_cell_length_c 20.614535
_cell_angle_alpha 90.000000
_cell_angle_beta 90.000000
_cell_angle_gamma 90.000000
_cell_volume 5167.359787
_symmetry_space_group_name_H-M "C M M A"
_symmetry_group_IT_number 67
_symmetry_cell_setting 'orthorhombic'
loop_
_space_group_symop_operation_xyz
x,y,z
-x,1/2-y,z
x,-y,-z
-x,1/2+y,-z
-x,-y,-z
x,1/2+y,-z
-x,y,z
x,1/2-y,z
1/2+x,1/2+y,z
1/2-x,-y,z
1/2+x,1/2-y,-z
1/2-x,y,-z
1/2-x,1/2-y,-z
1/2+x,y,-z
1/2-x,1/2+y,z
1/2+x,-y,z
loop_
_atom_site_type_symbol
_atom_site_label
_atom_site_fract_x
_atom_site_fract_y
_atom_site_fract_z
Si Si1 0.181962 0.640027 0.566818
Si Si2 0.682552 0.697772 0.310251
Si Si3 0.818212 0.641061 0.813478
Si Si4 0.680377 0.548446 0.769393
Si Si5 0.179165 0.803848 0.068803
Si Si6 0.180939 0.048545 0.619877
O O1 0.250000 0.660208 0.500000
O O2 0.242405 0.672896 0.624663
O O3 0.243043 0.588142 0.576687
O O4 0.000000 0.639426 0.563564
O O5 0.500000 0.698637 0.309087
O O6 0.749119 0.750000 0.308259
O O7 0.745907 0.669943 0.248079
O O8 0.750521 0.589365 0.812564
O O9 0.765112 0.665788 0.878374
O O10 0.000000 0.638155 0.811656
O O11 0.500000 0.546864 0.779111
O O12 0.750000 0.500000 0.794390
O O13 0.726714 0.556986 0.694682
O O14 0.210389 0.750000 0.084527
O O15 0.000000 0.815533 0.068695
O O16 0.250000 0.817619 0.000000
O O17 0.000000 0.048534 0.609437
O O18 0.250000 0.000000 0.595398
#
# Coordination Sequence:
#
# PCOD8279997 Si02
#       6
#    16  16  16  16  16  16
#     4  11  22  37  55  76 106 142 184 229 281 337
#     4   9  19  35  55  79 107 141 183 229 276 329
#     4  11  20  34  59  87 116 150 189 230 280 333
#     4  10  20  34  55  83 115 146 184 229 279 333
#     4  10  21  37  57  85 121 158 195 235 280 330
#     4  10  20  35  56  80 108 139 177 224 279 335
#
# _framework density 18.578153
#
# number of rings (size 3 to 8) (size 9 to 14) (size 15 to 20)
#    0.000    1.833    1.667    3.000    0.000    3.667 
#    0.000    1.667    0.000    5.000    0.000    3.500 
#    0.000    0.000    0.000    0.000    0.000    0.000 
#
# Total GULP energy -595434.479109 kJ/mol
# GULP energy per Si atom -12404.884981 kJ/mol
# Density = 1.853587 g / cm^3
# Si number density = 18.578153 Si / 1000 Ang^3
#
#
#
# Elastic Constant Matrix: (Units=GPa)
#
#
# Indices 1 2 3 4 5 6 
#
# 1 72.8435 36.8168 33.6821 0.0000 0.0000 0.0000
# 2 36.8168 131.8091 64.8435 0.0000 0.0000 0.0000
# 3 33.6821 64.8435 112.7470 0.0000 0.0000 0.0000
# 4 0.0000 0.0000 0.0000 34.5038 0.0000 0.0000
# 5 0.0000 0.0000 0.0000 0.0000 30.7116 0.0000
# 6 0.0000 0.0000 0.0000 0.0000 0.0000 25.3857
#
#
#
# Elastic Compliance Matrix: (Units=1/GPa)
#
#
# Indices 1 2 3 4 5 6 
#
# 1 0.016789 -0.003099 -0.003233 0.000000 0.000000 0.000000
# 2 -0.003099 0.011152 -0.005488 0.000000 0.000000 0.000000
# 3 -0.003233 -0.005488 0.012992 0.000000 0.000000 0.000000
# 4 0.000000 0.000000 0.000000 0.028982 0.000000 0.000000
# 5 0.000000 0.000000 0.000000 0.000000 0.032561 0.000000
# 6 0.000000 0.000000 0.000000 0.000000 0.000000 0.039392
#
#
# Mechanical properties :
#
#
# Convention : Reuss Voigt Hill
#
# Bulk Modulus (GPa) = 57.82885 65.34273 61.58579
# Shear Modulus (GPa) = 29.19300 30.25737 29.72518
#
# Velocity S-wave (km/s) = 3.96834 4.04004 4.00435
# Velocity P-wave (km/s) = 7.22440 7.55054 7.38927
#
# Compressibility (1/GPa) = 0.01729241
#
# Stress axis : x y z
#
# Youngs Moduli (GPa) = 59.56129 89.66836 76.97213
#
# Poissons Ratio (x) = 0.27788 0.24888
# Poissons Ratio (y) = 0.18458 0.42243
# Poissons Ratio (z) = 0.19259 0.49211
#
# Static dielectric constant tensor:
#      x y z
#    x 3.315640 0.000000 0.000000 
#    y 0.000000 3.509880 0.000000 
#    z 0.000000 0.000000 3.359440 
# 
# 
# High freq. dielectric constant tensor:
#      x y z
#    x 1.720710 0.000000 0.000000 
#    y 0.000000 1.725260 0.000000 
#    z 0.000000 0.000000 1.710170 
# 
# From -- ./inp_files/37130.got.cif
#   From: 2010.03.12/outbox.cif.g09.slc.cpg/sg67_19_cif.got.tgz:37130.got - 2010.04.10 22:41:39.
