data_PCOD8279245
_publ_section_title
;
Structure prediction by ZEFSAII (Michael W. Deem and Ramdas Pophale) SiO2 
 PCOD8279245
Probable space group: C M M A
;
_chemical_formula_sum "Si O2"
_cell_formula_units_Z 112
_cell_length_a 30.033182
_cell_length_b 13.736087
_cell_length_c 13.608013
_cell_angle_alpha 90.000000
_cell_angle_beta 90.000000
_cell_angle_gamma 90.000000
_cell_volume 5613.827922
_symmetry_space_group_name_H-M "C M M A"
_symmetry_group_IT_number 67
_symmetry_cell_setting 'orthorhombic'
loop_
_space_group_symop_operation_xyz
x,y,z
-x,1/2-y,z
x,-y,-z
-x,1/2+y,-z
-x,-y,-z
x,1/2+y,-z
-x,y,z
x,1/2-y,z
1/2+x,1/2+y,z
1/2-x,-y,z
1/2+x,1/2-y,-z
1/2-x,y,-z
1/2-x,1/2-y,-z
1/2+x,y,-z
1/2-x,1/2+y,z
1/2+x,-y,z
loop_
_atom_site_type_symbol
_atom_site_label
_atom_site_fract_x
_atom_site_fract_y
_atom_site_fract_z
Si Si1 0.451586 0.478565 0.614549
Si Si2 0.831800 0.644140 0.388392
Si Si3 0.359654 0.529390 0.889008
Si Si4 0.133721 0.139696 0.411942
Si Si5 0.718578 0.133378 0.208250
Si Si6 0.583099 0.358318 0.254634
Si Si7 0.181158 0.140089 0.217700
O O1 0.448713 0.500000 0.500000
O O2 0.500000 0.429114 0.636229
O O3 0.409370 0.410566 0.637386
O O4 0.450640 0.575432 0.682335
O O5 0.813302 0.750000 0.420853
O O6 0.847367 0.588230 0.487756
O O7 0.795503 0.591822 0.317451
O O8 0.873570 0.655621 0.318721
O O9 0.313583 0.590421 0.876251
O O10 0.402153 0.589182 0.847410
O O11 0.355471 0.427257 0.832425
O O12 0.368902 0.500000 0.000000
O O13 0.119261 0.250000 0.437282
O O14 0.173953 0.135812 0.334788
O O15 0.713793 0.250000 0.208112
O O16 0.769434 0.101430 0.190369
O O17 0.562668 0.250000 0.233091
O O18 0.174705 0.250000 0.178823
#
# Coordination Sequence:
#
# PCOD8279245 Si02
#       7
#    16  16  16  16  16  16  16
#     4  11  22  35  58  92 124 150 183 227 277 344
#     4   8  15  29  52  75 108 153 191 225 267 326
#     4  11  22  37  58  80 108 147 196 247 299 348
#     4  10  19  34  54  80 116 157 191 227 277 338
#     4   9  19  35  52  79 113 152 198 244 290 337
#     4  10  20  38  60  83 115 155 195 238 288 348
#     4  10  21  34  52  79 115 150 193 244 290 346
#
# _framework density 19.950735999999999
#
# number of rings (size 3 to 8) (size 9 to 14) (size 15 to 20)
#    0.000    2.143    2.857    1.714    0.000    3.429 
#    0.000    5.714    0.000    2.143    0.000    0.000 
#    0.000    0.000    0.000    0.000    0.000    0.000 
#
# Total GULP energy -693760.260951 kJ/mol
# GULP energy per Si atom -12388.576088 kJ/mol
# Density = 1.990533 g / cm^3
# Si number density = 19.950736 Si / 1000 Ang^3
#
#
#
# Elastic Constant Matrix: (Units=GPa)
#
#
# Indices 1 2 3 4 5 6 
#
# 1 47.7474 15.4013 18.4374 0.0000 0.0000 0.0000
# 2 15.4013 70.8041 34.8958 0.0000 0.0000 0.0000
# 3 18.4374 34.8958 115.7285 0.0000 0.0000 0.0000
# 4 0.0000 0.0000 0.0000 23.5560 0.0000 0.0000
# 5 0.0000 0.0000 0.0000 0.0000 16.4006 0.0000
# 6 0.0000 0.0000 0.0000 0.0000 0.0000 35.6378
#
#
#
# Elastic Compliance Matrix: (Units=1/GPa)
#
#
# Indices 1 2 3 4 5 6 
#
# 1 0.023146 -0.003779 -0.002548 0.000000 0.000000 0.000000
# 2 -0.003779 0.017206 -0.004586 0.000000 0.000000 0.000000
# 3 -0.002548 -0.004586 0.010430 0.000000 0.000000 0.000000
# 4 0.000000 0.000000 0.000000 0.042452 0.000000 0.000000
# 5 0.000000 0.000000 0.000000 0.000000 0.060974 0.000000
# 6 0.000000 0.000000 0.000000 0.000000 0.000000 0.028060
#
#
# Mechanical properties :
#
#
# Convention : Reuss Voigt Hill
#
# Bulk Modulus (GPa) = 34.53559 41.30544 37.92052
# Shear Modulus (GPa) = 23.39229 26.15523 24.77376
#
# Velocity S-wave (km/s) = 3.42790 3.62469 3.52767
# Velocity P-wave (km/s) = 5.74590 6.18599 5.97000
#
# Compressibility (1/GPa) = 0.02895563
#
# Stress axis : x y z
#
# Youngs Moduli (GPa) = 43.20319 58.12030 95.87998
#
# Poissons Ratio (x) = 0.21963 0.24431
# Poissons Ratio (y) = 0.16326 0.43971
# Poissons Ratio (z) = 0.11009 0.26654
#
# Static dielectric constant tensor:
#      x y z
#    x 3.593710 0.000000 0.000000 
#    y 0.000000 3.961200 0.000000 
#    z 0.000000 0.000000 3.505420 
# 
# 
# High freq. dielectric constant tensor:
#      x y z
#    x 1.748030 0.000000 0.000000 
#    y 0.000000 1.787390 0.000000 
#    z 0.000000 0.000000 1.753170 
# 
# From -- ./inp_files/31208.got.cif
#   From: 2010.03.12/outbox.cif.g09.slc.cpg/sg67_16_cif.got.tgz:31208.got - 2010.04.10 22:41:39.
