data_PCOD8279320
_publ_section_title
;
Structure prediction by ZEFSAII (Michael W. Deem and Ramdas Pophale) SiO2 
 PCOD8279320
Probable space group: C M M A
;
_chemical_formula_sum "Si O2"
_cell_formula_units_Z 112
_cell_length_a 28.516344
_cell_length_b 13.546504
_cell_length_c 12.434208
_cell_angle_alpha 90.000000
_cell_angle_beta 90.000000
_cell_angle_gamma 90.000000
_cell_volume 4803.294364
_symmetry_space_group_name_H-M "C M M A"
_symmetry_group_IT_number 67
_symmetry_cell_setting 'orthorhombic'
loop_
_space_group_symop_operation_xyz
x,y,z
-x,1/2-y,z
x,-y,-z
-x,1/2+y,-z
-x,-y,-z
x,1/2+y,-z
-x,y,z
x,1/2-y,z
1/2+x,1/2+y,z
1/2-x,-y,z
1/2+x,1/2-y,-z
1/2-x,y,-z
1/2-x,1/2-y,-z
1/2+x,y,-z
1/2-x,1/2+y,z
1/2+x,-y,z
loop_
_atom_site_type_symbol
_atom_site_label
_atom_site_fract_x
_atom_site_fract_y
_atom_site_fract_z
Si Si1 0.668227 0.868464 0.320822
Si Si2 0.724888 0.132442 0.301679
Si Si3 0.143094 0.364484 0.552473
Si Si4 0.093245 0.035305 0.182009
Si Si5 0.448818 0.545432 0.617820
Si Si6 0.104366 0.637697 0.028080
Si Si7 0.791494 0.364538 0.931994
O O1 0.664071 0.750000 0.304261
O O2 0.722364 0.903038 0.327227
O O3 0.641995 0.906487 0.430288
O O4 0.643373 0.923543 0.221890
O O5 0.722710 0.250000 0.307351
O O6 0.687023 0.086740 0.384756
O O7 0.708404 0.089765 0.186950
O O8 0.153297 0.250000 0.541202
O O9 0.094802 0.379027 0.618708
O O10 0.058145 0.034552 0.284826
O O11 0.092472 0.924224 0.134714
O O12 0.077303 0.104244 0.080955
O O13 0.448940 0.500000 0.500000
O O14 0.500000 0.596091 0.635955
O O15 0.091618 0.750000 0.054889
O O16 0.159615 0.619645 0.006104
O O17 0.779922 0.250000 0.917806
O O18 0.750000 0.415384 0.000000
#
# Coordination Sequence:
#
# PCOD8279320 Si02
#       7
#    16  16  16  16  16  16  16
#     4  10  19  34  59  93 133 177 222 268 320 389
#     4   9  17  30  54  88 129 174 215 265 329 387
#     4  10  20  37  62  91 127 170 218 271 333 405
#     4  11  22  40  67  94 125 173 223 267 333 406
#     4  11  24  44  66  90 127 167 212 281 349 401
#     4  10  22  40  63  92 128 168 217 278 334 390
#     4   9  16  29  50  77 113 162 211 258 313 367
#
# _framework density 23.317330999999999
#
# number of rings (size 3 to 8) (size 9 to 14) (size 15 to 20)
#    0.000    2.000    1.429    2.571    0.000    6.000 
#    0.000   10.000    0.000    2.571    0.000    0.000 
#    0.000    2.286    0.000    0.000    0.000    0.000 
#
# Total GULP energy -693989.652990 kJ/mol
# GULP energy per Si atom -12392.672375 kJ/mol
# Density = 2.326426 g / cm^3
# Si number density = 23.317331 Si / 1000 Ang^3
#
#
#
# Elastic Constant Matrix: (Units=GPa)
#
#
# Indices 1 2 3 4 5 6 
#
# 1 109.9119 26.4941 45.0828 0.0000 0.0000 0.0000
# 2 26.4941 66.3233 40.0096 0.0000 0.0000 0.0000
# 3 45.0828 40.0096 162.2989 0.0000 0.0000 0.0000
# 4 0.0000 0.0000 0.0000 28.4166 0.0000 0.0000
# 5 0.0000 0.0000 0.0000 0.0000 6.7923 0.0000
# 6 0.0000 0.0000 0.0000 0.0000 0.0000 19.7411
#
#
#
# Elastic Compliance Matrix: (Units=1/GPa)
#
#
# Indices 1 2 3 4 5 6 
#
# 1 0.010730 -0.002923 -0.002260 0.000000 0.000000 0.000000
# 2 -0.002923 0.018508 -0.003751 0.000000 0.000000 0.000000
# 3 -0.002260 -0.003751 0.007714 0.000000 0.000000 0.000000
# 4 0.000000 0.000000 0.000000 0.035191 0.000000 0.000000
# 5 0.000000 0.000000 0.000000 0.000000 0.147226 0.000000
# 6 0.000000 0.000000 0.000000 0.000000 0.000000 0.050656
#
#
# Mechanical properties :
#
#
# Convention : Reuss Voigt Hill
#
# Bulk Modulus (GPa) = 52.39847 62.41190 57.40518
# Shear Modulus (GPa) = 16.99222 26.11983 21.55603
#
# Velocity S-wave (km/s) = 2.70244 3.35055 3.04380
# Velocity P-wave (km/s) = 5.67964 6.46473 6.08486
#
# Compressibility (1/GPa) = 0.01908453
#
# Stress axis : x y z
#
# Youngs Moduli (GPa) = 93.19923 54.03126 129.63760
#
# Poissons Ratio (x) = 0.15793 0.29297
# Poissons Ratio (y) = 0.27241 0.48622
# Poissons Ratio (z) = 0.21062 0.20265
#
# Static dielectric constant tensor:
#      x y z
#    x 4.110410 0.000000 0.000000 
#    y 0.000000 3.987090 0.000000 
#    z 0.000000 0.000000 4.553680 
# 
# 
# High freq. dielectric constant tensor:
#      x y z
#    x 1.887130 0.000000 0.000000 
#    y 0.000000 1.913940 0.000000 
#    z 0.000000 0.000000 1.943050 
# 
# From -- ./inp_files/23855.got.cif
#   From: 2010.03.12/outbox.cif.g09.slc.cpg/sg67_12_cif.got.tgz:23855.got - 2010.04.10 22:41:39.
