data_PCOD8279815
_publ_section_title
;
Structure prediction by ZEFSAII (Michael W. Deem and Ramdas Pophale) SiO2 
 PCOD8279815
Probable space group: C M M A
;
_chemical_formula_sum "Si O2"
_cell_formula_units_Z 96
_cell_length_a 19.281229
_cell_length_b 9.237511
_cell_length_c 31.193156
_cell_angle_alpha 90.000000
_cell_angle_beta 90.000000
_cell_angle_gamma 90.000000
_cell_volume 5555.830639
_symmetry_space_group_name_H-M "C M M A"
_symmetry_group_IT_number 67
_symmetry_cell_setting 'orthorhombic'
loop_
_space_group_symop_operation_xyz
x,y,z
-x,1/2-y,z
x,-y,-z
-x,1/2+y,-z
-x,-y,-z
x,1/2+y,-z
-x,y,z
x,1/2-y,z
1/2+x,1/2+y,z
1/2-x,-y,z
1/2+x,1/2-y,-z
1/2-x,y,-z
1/2-x,1/2-y,-z
1/2+x,y,-z
1/2-x,1/2+y,z
1/2+x,-y,z
loop_
_atom_site_type_symbol
_atom_site_label
_atom_site_fract_x
_atom_site_fract_y
_atom_site_fract_z
Si Si1 0.417172 0.587028 0.285759
Si Si2 0.679142 0.077734 0.956735
Si Si3 0.082599 0.413333 0.796094
Si Si4 0.582451 0.587855 0.539516
Si Si5 0.920390 0.083195 0.121296
Si Si6 0.582453 0.586931 0.633501
O O1 0.500000 0.585257 0.285905
O O2 0.388806 0.750000 0.282902
O O3 0.388151 0.498204 0.245154
O O4 0.387298 0.515738 0.329339
O O5 0.690316 0.250000 0.963858
O O6 0.622198 0.045565 0.920993
O O7 0.750000 0.000000 0.942184
O O8 0.652585 0.000000 0.000000
O O9 0.111144 0.250000 0.794845
O O10 0.109430 0.489599 0.839348
O O11 0.000000 0.416233 0.795205
O O12 0.616050 0.500000 0.500000
O O13 0.500000 0.583734 0.536252
O O14 0.610109 0.750000 0.534964
O O15 0.605216 0.527176 0.586415
O O16 0.912493 0.250000 0.134567
O O17 0.000000 0.043871 0.111475
O O18 0.500000 0.589573 0.636276
O O19 0.610486 0.750000 0.640381
#
# Coordination Sequence:
#
# PCOD8279815 Si02
#       6
#    16  16  16  16  16  16
#     4   9  15  21  30  44  62  85 112 143 181 228
#     4  10  20  34  52  71  93 121 150 181 215 253
#     4   9  16  25  38  56  77 101 127 157 196 241
#     4   8  13  19  25  32  43  61  87 124 171 220
#     4   9  18  32  48  67  91 117 145 178 216 255
#     4   8  13  20  27  35  49  70  98 133 174 222
#
# _framework density 17.279143000000001
#
# number of rings (size 3 to 8) (size 9 to 14) (size 15 to 20)
#    0.000    3.167    0.000    3.000    0.000    6.333 
#    0.000    3.333    0.000    0.000    0.000    0.000 
#    0.000    0.000    0.000    0.000    0.000    0.000 
#
# Total GULP energy -594874.632443 kJ/mol
# GULP energy per Si atom -12393.221509 kJ/mol
# Density = 1.723982 g / cm^3
# Si number density = 17.279143 Si / 1000 Ang^3
#
#
#
# Elastic Constant Matrix: (Units=GPa)
#
#
# Indices 1 2 3 4 5 6 
#
# 1 17.6258 22.2845 36.2768 0.0000 0.0000 0.0000
# 2 22.2845 130.1505 97.7299 0.0000 0.0000 0.0000
# 3 36.2768 97.7299 182.0127 0.0000 0.0000 0.0000
# 4 0.0000 0.0000 0.0000 40.2323 0.0000 0.0000
# 5 0.0000 0.0000 0.0000 0.0000 -0.0430 0.0000
# 6 0.0000 0.0000 0.0000 0.0000 0.0000 9.2438
#
#
#
# Elastic Compliance Matrix: (Units=1/GPa)
#
#
# Indices 1 2 3 4 5 6 
#
# 1 0.097143 -0.003509 -0.017477 0.000000 0.000000 0.000000
# 2 -0.003509 0.013001 -0.006281 0.000000 0.000000 0.000000
# 3 -0.017477 -0.006281 0.012350 0.000000 0.000000 0.000000
# 4 0.000000 0.000000 0.000000 0.024856 0.000000 0.000000
# 5 0.000000 0.000000 0.000000 0.000000-23.238600 0.000000
# 6 0.000000 0.000000 0.000000 0.000000 0.000000 0.108180
#
#
# Mechanical properties :
#
#
# Convention : Reuss Voigt Hill
#
# Bulk Modulus (GPa) = 14.71492 71.37461 43.04476
# Shear Modulus (GPa) = -0.21828 21.45315 10.61743
#
# Velocity S-wave (km/s) = -0.35581 3.52741 2.48153
# Velocity P-wave (km/s) = 2.89235 7.61489 5.75987
#
# Compressibility (1/GPa) = 0.06795825
#
# Stress axis : x y z
#
# Youngs Moduli (GPa) = 10.29414 76.91806 80.97087
#
# Poissons Ratio (x) = 0.26993 1.41514
# Poissons Ratio (y) = 0.03613 0.50860
# Poissons Ratio (z) = 0.17991 0.48314
#
# Static dielectric constant tensor:
#      x y z
#    x 2.463450 0.000000 0.000000 
#    y 0.000000 3.424410 0.000000 
#    z 0.000000 0.000000 3.559170 
# 
# 
# High freq. dielectric constant tensor:
#      x y z
#    x 1.576250 0.000000 0.000000 
#    y 0.000000 1.675580 0.000000 
#    z 0.000000 0.000000 1.688380 
# 
# From -- ./inp_files/44787.got.cif
#   From: 2010.03.12/outbox.cif.g09.slc.cpg/sg67_23_cif.got.tgz:44787.got - 2010.04.10 22:41:39.
