data_PCOD8279674
_publ_section_title
;
Structure prediction by ZEFSAII (Michael W. Deem and Ramdas Pophale) SiO2 
 PCOD8279674
Probable space group: C M M A
;
_chemical_formula_sum "Si O2"
_cell_formula_units_Z 112
_cell_length_a 25.651113
_cell_length_b 23.205389
_cell_length_c 10.218766
_cell_angle_alpha 90.000000
_cell_angle_beta 90.000000
_cell_angle_gamma 90.000000
_cell_volume 6082.659716
_symmetry_space_group_name_H-M "C M M A"
_symmetry_group_IT_number 67
_symmetry_cell_setting 'orthorhombic'
loop_
_space_group_symop_operation_xyz
x,y,z
-x,1/2-y,z
x,-y,-z
-x,1/2+y,-z
-x,-y,-z
x,1/2+y,-z
-x,y,z
x,1/2-y,z
1/2+x,1/2+y,z
1/2-x,-y,z
1/2+x,1/2-y,-z
1/2-x,y,-z
1/2-x,1/2-y,-z
1/2+x,y,-z
1/2-x,1/2+y,z
1/2+x,-y,z
loop_
_atom_site_type_symbol
_atom_site_label
_atom_site_fract_x
_atom_site_fract_y
_atom_site_fract_z
Si Si1 0.691148 0.919923 0.458576
Si Si2 0.651426 0.623121 0.057956
Si Si3 0.691616 0.516302 0.191244
Si Si4 0.439880 0.438135 0.068595
Si Si5 0.369342 0.582228 0.713343
Si Si6 0.693490 0.183577 0.707135
Si Si7 0.808861 0.183184 0.813665
O O1 0.750000 0.937112 0.500000
O O2 0.676869 0.955980 0.330954
O O3 0.646678 0.936476 0.566232
O O4 0.688508 0.851540 0.428381
O O5 0.677373 0.560448 0.077057
O O6 0.649926 0.659863 0.192312
O O7 0.592963 0.612060 0.004940
O O8 0.686422 0.662023 0.962191
O O9 0.750000 0.500000 0.175926
O O10 0.662005 0.455654 0.178793
O O11 0.500000 0.422569 0.051267
O O12 0.427136 0.431860 0.227705
O O13 0.428315 0.500000 0.000000
O O14 0.350767 0.648355 0.726173
O O15 0.683922 0.250000 0.674726
O O16 0.750523 0.170502 0.765526
O O17 0.823037 0.250000 0.802602
#
# Coordination Sequence:
#
# PCOD8279674 Si02
#       7
#    16  16  16  16  16  16  16
#     4  11  20  32  49  77 114 155 180 214 253 319
#     4  10  20  34  52  79 106 144 182 227 277 321
#     4  11  20  31  50  78 116 148 176 212 263 334
#     4  10  21  39  59  79 104 135 177 235 291 337
#     4  11  20  34  54  80 107 145 182 221 270 323
#     4  10  20  33  51  78 114 153 189 217 255 318
#     4  10  20  33  50  75 113 151 184 218 258 318
#
# _framework density 18.412997000000001
#
# number of rings (size 3 to 8) (size 9 to 14) (size 15 to 20)
#    0.000    1.571    4.286    2.143    0.000    3.143 
#    0.000    1.429    0.000   15.857    0.000    0.000 
#    0.000    0.000    0.000    0.000    0.000    0.000 
#
# Total GULP energy -693823.143996 kJ/mol
# GULP energy per Si atom -12389.699000 kJ/mol
# Density = 1.837109 g / cm^3
# Si number density = 18.412997 Si / 1000 Ang^3
#
#
#
# Elastic Constant Matrix: (Units=GPa)
#
#
# Indices 1 2 3 4 5 6 
#
# 1 77.8189 34.6657 33.1633 0.0000 0.0000 0.0000
# 2 34.6657 92.6872 6.2212 0.0000 0.0000 0.0000
# 3 33.1633 6.2212 74.0135 0.0000 0.0000 0.0000
# 4 0.0000 0.0000 0.0000 24.9376 0.0000 0.0000
# 5 0.0000 0.0000 0.0000 0.0000 22.7785 0.0000
# 6 0.0000 0.0000 0.0000 0.0000 0.0000 19.2087
#
#
#
# Elastic Compliance Matrix: (Units=1/GPa)
#
#
# Indices 1 2 3 4 5 6 
#
# 1 0.019256 -0.006660 -0.008068 0.000000 0.000000 0.000000
# 2 -0.006660 0.013154 0.001879 0.000000 0.000000 0.000000
# 3 -0.008068 0.001879 0.016968 0.000000 0.000000 0.000000
# 4 0.000000 0.000000 0.000000 0.040100 0.000000 0.000000
# 5 0.000000 0.000000 0.000000 0.000000 0.043901 0.000000
# 6 0.000000 0.000000 0.000000 0.000000 0.000000 0.052060
#
#
# Mechanical properties :
#
#
# Convention : Reuss Voigt Hill
#
# Bulk Modulus (GPa) = 42.23270 43.62444 42.92857
# Shear Modulus (GPa) = 22.82789 24.74959 23.78874
#
# Velocity S-wave (km/s) = 3.52486 3.67022 3.59828
# Velocity P-wave (km/s) = 6.28906 6.45789 6.37404
#
# Compressibility (1/GPa) = 0.02367833
#
# Stress axis : x y z
#
# Youngs Moduli (GPa) = 51.93320 76.02340 58.93383
#
# Poissons Ratio (x) = 0.50633 0.47548
# Poissons Ratio (y) = 0.34588 -0.11071
# Poissons Ratio (z) = 0.41900 -0.14282
#
# Static dielectric constant tensor:
#      x y z
#    x 2.617180 0.000000 0.000000 
#    y 0.000000 3.561170 0.000000 
#    z 0.000000 0.000000 3.247400 
# 
# 
# High freq. dielectric constant tensor:
#      x y z
#    x 1.657220 0.000000 0.000000 
#    y 0.000000 1.727160 0.000000 
#    z 0.000000 0.000000 1.724560 
# 
# From -- ./inp_files/22277.got.cif
#   From: 2010.03.12/outbox.cif.g09.slc.cpg/sg67_12_cif.got.tgz:22277.got - 2010.04.10 22:41:39.
