data_PCOD8279251
_publ_section_title
;
Structure prediction by ZEFSAII (Michael W. Deem and Ramdas Pophale) SiO2 
 PCOD8279251
Probable space group: C M M A
;
_chemical_formula_sum "Si O2"
_cell_formula_units_Z 96
_cell_length_a 19.761230
_cell_length_b 20.481651
_cell_length_c 12.487957
_cell_angle_alpha 90.000000
_cell_angle_beta 90.000000
_cell_angle_gamma 90.000000
_cell_volume 5054.408387
_symmetry_space_group_name_H-M "C M M A"
_symmetry_group_IT_number 67
_symmetry_cell_setting 'orthorhombic'
loop_
_space_group_symop_operation_xyz
x,y,z
-x,1/2-y,z
x,-y,-z
-x,1/2+y,-z
-x,-y,-z
x,1/2+y,-z
-x,y,z
x,1/2-y,z
1/2+x,1/2+y,z
1/2-x,-y,z
1/2+x,1/2-y,-z
1/2-x,y,-z
1/2-x,1/2-y,-z
1/2+x,y,-z
1/2-x,1/2+y,z
1/2+x,-y,z
loop_
_atom_site_type_symbol
_atom_site_label
_atom_site_fract_x
_atom_site_fract_y
_atom_site_fract_z
Si Si1 0.923875 0.605908 0.646586
Si Si2 0.926939 0.674097 0.431607
Si Si3 0.923270 0.175507 0.130126
Si Si4 0.219990 0.934043 0.618482
Si Si5 0.320065 0.327049 0.042203
Si Si6 0.193166 0.327573 0.715157
O O1 0.917095 0.662482 0.557742
O O2 0.911325 0.635227 0.762790
O O3 0.861978 0.556646 0.620631
O O4 0.000000 0.573892 0.640217
O O5 0.926827 0.750000 0.409109
O O6 0.865955 0.644786 0.361970
O O7 0.000000 0.644785 0.394725
O O8 0.902158 0.250000 0.154421
O O9 0.000000 0.171157 0.090903
O O10 0.879540 0.144817 0.033116
O O11 0.250000 0.926020 0.500000
O O12 0.239917 0.869239 0.686241
O O13 0.250000 0.000000 0.671131
O O14 0.318911 0.250000 0.029348
O O15 0.331193 0.345393 0.165654
O O16 0.250000 0.357453 0.000000
O O17 0.208909 0.250000 0.701733
#
# Coordination Sequence:
#
# PCOD8279251 Si02
#       6
#    16  16  16  16  16  16
#     4  10  19  34  55  77 105 143 182 222 267 323
#     4   9  17  29  47  77 111 138 171 218 270 322
#     4   9  17  29  50  81 114 148 184 225 271 316
#     4  11  23  39  55  80 114 143 178 228 277 331
#     4   9  17  29  46  72 105 138 178 223 264 312
#     4  10  20  34  55  80 107 145 183 222 276 331
#
# _framework density 18.993321000000002
#
# number of rings (size 3 to 8) (size 9 to 14) (size 15 to 20)
#    0.000    2.333    1.667    1.500    0.000    5.667 
#    0.000    5.833    0.000    4.500    0.000    2.333 
#    0.000    0.000    0.000    0.000    0.000    0.000 
#
# Total GULP energy -594798.036597 kJ/mol
# GULP energy per Si atom -12391.625762 kJ/mol
# Density = 1.895009 g / cm^3
# Si number density = 18.993321 Si / 1000 Ang^3
#
#
#
# Elastic Constant Matrix: (Units=GPa)
#
#
# Indices 1 2 3 4 5 6 
#
# 1 153.1075 36.0473 56.5834 0.0000 0.0000 0.0000
# 2 36.0473 50.5668 19.7811 0.0000 0.0000 0.0000
# 3 56.5834 19.7811 116.1305 0.0000 0.0000 0.0000
# 4 0.0000 0.0000 0.0000 8.1056 0.0000 0.0000
# 5 0.0000 0.0000 0.0000 0.0000 34.5484 0.0000
# 6 0.0000 0.0000 0.0000 0.0000 0.0000 17.4041
#
#
#
# Elastic Compliance Matrix: (Units=1/GPa)
#
#
# Indices 1 2 3 4 5 6 
#
# 1 0.009028 -0.005052 -0.003539 0.000000 0.000000 0.000000
# 2 -0.005052 0.024014 -0.001629 0.000000 0.000000 0.000000
# 3 -0.003539 -0.001629 0.010613 0.000000 0.000000 0.000000
# 4 0.000000 0.000000 0.000000 0.123371 0.000000 0.000000
# 5 0.000000 0.000000 0.000000 0.000000 0.028945 0.000000
# 6 0.000000 0.000000 0.000000 0.000000 0.000000 0.057458
#
#
# Mechanical properties :
#
#
# Convention : Reuss Voigt Hill
#
# Bulk Modulus (GPa) = 43.07260 60.51427 51.79344
# Shear Modulus (GPa) = 17.75525 25.83782 21.79654
#
# Velocity S-wave (km/s) = 3.06079 3.69231 3.39128
# Velocity P-wave (km/s) = 5.93450 7.07867 6.53168
#
# Compressibility (1/GPa) = 0.02321661
#
# Stress axis : x y z
#
# Youngs Moduli (GPa) = 110.76067 41.64175 94.22772
#
# Poissons Ratio (x) = 0.21037 0.33343
# Poissons Ratio (y) = 0.55955 0.15350
# Poissons Ratio (z) = 0.39193 0.06784
#
# Static dielectric constant tensor:
#      x y z
#    x 3.961280 0.000000 0.000000 
#    y 0.000000 3.036980 0.000000 
#    z 0.000000 0.000000 3.530980 
# 
# 
# High freq. dielectric constant tensor:
#      x y z
#    x 1.759170 0.000000 0.000000 
#    y 0.000000 1.677470 0.000000 
#    z 0.000000 0.000000 1.739720 
# 
# From -- ./inp_files/19610.got.cif
#   From: 2010.03.12/outbox.cif.g09.slc.cpg/sg67_10_cif.got.tgz:19610.got - 2010.04.10 22:41:39.
