data_PCOD8279179
_publ_section_title
;
Structure prediction by ZEFSAII (Michael W. Deem and Ramdas Pophale) SiO2 
 PCOD8279179
Probable space group: C M M A
;
_chemical_formula_sum "Si O2"
_cell_formula_units_Z 104
_cell_length_a 9.509208
_cell_length_b 29.746289
_cell_length_c 19.927898
_cell_angle_alpha 90.000000
_cell_angle_beta 90.000000
_cell_angle_gamma 90.000000
_cell_volume 5636.877952
_symmetry_space_group_name_H-M "C M M A"
_symmetry_group_IT_number 67
_symmetry_cell_setting 'orthorhombic'
loop_
_space_group_symop_operation_xyz
x,y,z
-x,1/2-y,z
x,-y,-z
-x,1/2+y,-z
-x,-y,-z
x,1/2+y,-z
-x,y,z
x,1/2-y,z
1/2+x,1/2+y,z
1/2-x,-y,z
1/2+x,1/2-y,-z
1/2-x,y,-z
1/2-x,1/2-y,-z
1/2+x,y,-z
1/2-x,1/2+y,z
1/2+x,-y,z
loop_
_atom_site_type_symbol
_atom_site_label
_atom_site_fract_x
_atom_site_fract_y
_atom_site_fract_z
Si Si1 0.653169 0.961666 0.747520
Si Si2 0.834298 0.868113 0.194195
Si Si3 0.334928 0.152594 0.930228
Si Si4 0.845759 0.250000 0.062371
Si Si5 0.166772 0.300922 0.692112
Si Si6 0.844893 0.460251 0.589752
Si Si7 0.832101 0.859026 0.435289
O O1 0.500000 0.968835 0.779740
O O2 0.705479 0.911699 0.762678
O O3 0.646534 0.967503 0.668567
O O4 0.750000 0.000000 0.780496
O O5 0.744260 0.875540 0.126521
O O6 0.785612 0.825517 0.239102
O O7 0.000000 0.864783 0.176734
O O8 0.500000 0.138856 0.939404
O O9 0.321710 0.203311 0.898737
O O10 0.250000 0.147150 0.000000
O O11 0.000000 0.250000 0.030742
O O12 0.750000 0.250000 0.000000
O O13 0.228173 0.250000 0.690920
O O14 0.219558 0.329023 0.627604
O O15 0.000000 0.299721 0.690018
O O16 0.750000 0.500000 0.557820
O O17 0.783088 0.410753 0.574864
O O18 0.000000 0.464503 0.558080
O O19 0.750000 0.839888 0.500000
O O20 0.000000 0.855594 0.444818
#
# Coordination Sequence:
#
# PCOD8279179 Si02
#       7
#    16  16  16   8  16  16  16
#     4   9  17  31  52  77 104 133 169 212 260 313
#     4  10  19  33  55  81 106 135 174 219 262 308
#     4  10  20  34  51  75 108 144 179 215 259 310
#     4   8  16  30  46  66  98 136 171 206 245 294
#     4   9  18  34  55  77 102 137 179 217 258 311
#     4   9  17  31  50  72 101 133 166 209 259 313
#     4  10  20  35  53  74 103 137 175 218 262 309
#
# _framework density 18.449929999999998
#
# number of rings (size 3 to 8) (size 9 to 14) (size 15 to 20)
#    0.000    2.615    1.538    0.462    1.077    2.462 
#    0.000    2.308    0.000    1.385    0.000    3.231 
#    0.000    0.000    0.000    0.000    0.000    0.000 
#
# Total GULP energy -644237.946674 kJ/mol
# GULP energy per Si atom -12389.191282 kJ/mol
# Density = 1.840794 g / cm^3
# Si number density = 18.449930 Si / 1000 Ang^3
#
#
#
# Elastic Constant Matrix: (Units=GPa)
#
#
# Indices 1 2 3 4 5 6 
#
# 1 66.0272 36.9339 39.9405 0.0000 0.0000 0.0000
# 2 36.9339 111.8535 33.4141 0.0000 0.0000 0.0000
# 3 39.9405 33.4141 86.1068 0.0000 0.0000 0.0000
# 4 0.0000 0.0000 0.0000 8.2947 0.0000 0.0000
# 5 0.0000 0.0000 0.0000 0.0000 27.9905 0.0000
# 6 0.0000 0.0000 0.0000 0.0000 0.0000 22.9041
#
#
#
# Elastic Compliance Matrix: (Units=1/GPa)
#
#
# Indices 1 2 3 4 5 6 
#
# 1 0.023335 -0.005058 -0.008861 0.000000 0.000000 0.000000
# 2 -0.005058 0.011209 -0.002003 0.000000 0.000000 0.000000
# 3 -0.008861 -0.002003 0.016501 0.000000 0.000000 0.000000
# 4 0.000000 0.000000 0.000000 0.120559 0.000000 0.000000
# 5 0.000000 0.000000 0.000000 0.000000 0.035726 0.000000
# 6 0.000000 0.000000 0.000000 0.000000 0.000000 0.043660
#
#
# Mechanical properties :
#
#
# Convention : Reuss Voigt Hill
#
# Bulk Modulus (GPa) = 52.08415 53.84049 52.96232
# Shear Modulus (GPa) = 17.28696 22.08447 19.68571
#
# Velocity S-wave (km/s) = 3.06431 3.46351 3.27001
# Velocity P-wave (km/s) = 6.38837 6.72606 6.55939
#
# Compressibility (1/GPa) = 0.01919970
#
# Stress axis : x y z
#
# Youngs Moduli (GPa) = 42.85459 89.21452 60.60204
#
# Poissons Ratio (x) = 0.45125 0.53699
# Poissons Ratio (y) = 0.21676 0.12142
# Poissons Ratio (z) = 0.37973 0.17874
#
# Static dielectric constant tensor:
#      x y z
#    x 3.449920 0.000000 0.000000 
#    y 0.000000 3.532960 0.000000 
#    z 0.000000 0.000000 3.128630 
# 
# 
# High freq. dielectric constant tensor:
#      x y z
#    x 1.698760 0.000000 0.000000 
#    y 0.000000 1.712750 0.000000 
#    z 0.000000 0.000000 1.700160 
# 
# From -- ./inp_files/35908.got.cif
#   From: 2010.03.12/outbox.cif.g09.slc.cpg/sg67_18_cif.got.tgz:35908.got - 2010.04.10 22:41:39.
