data_PCOD8279649
_publ_section_title
;
Structure prediction by ZEFSAII (Michael W. Deem and Ramdas Pophale) SiO2 
 PCOD8279649
Probable space group: C M M A
;
_chemical_formula_sum "Si O2"
_cell_formula_units_Z 88
_cell_length_a 8.860266
_cell_length_b 15.581603
_cell_length_c 30.269320
_cell_angle_alpha 90.000000
_cell_angle_beta 90.000000
_cell_angle_gamma 90.000000
_cell_volume 4178.895969
_symmetry_space_group_name_H-M "C M M A"
_symmetry_group_IT_number 67
_symmetry_cell_setting 'orthorhombic'
loop_
_space_group_symop_operation_xyz
x,y,z
-x,1/2-y,z
x,-y,-z
-x,1/2+y,-z
-x,-y,-z
x,1/2+y,-z
-x,y,z
x,1/2-y,z
1/2+x,1/2+y,z
1/2-x,-y,z
1/2+x,1/2-y,-z
1/2-x,y,-z
1/2-x,1/2-y,-z
1/2+x,y,-z
1/2-x,1/2+y,z
1/2+x,-y,z
loop_
_atom_site_type_symbol
_atom_site_label
_atom_site_fract_x
_atom_site_fract_y
_atom_site_fract_z
Si Si1 0.669719 0.352345 0.956217
Si Si2 0.822791 0.250000 0.452486
Si Si3 0.334610 0.652196 0.216744
Si Si4 0.820680 0.090871 0.700158
Si Si5 0.320158 0.591909 0.391851
Si Si6 0.830679 0.647347 0.131590
O O1 0.500000 0.387028 0.955666
O O2 0.673858 0.250000 0.956491
O O3 0.752770 0.387950 0.912750
O O4 0.750000 0.388864 0.000000
O O5 0.750000 0.250000 0.500000
O O6 0.771746 0.163757 0.427159
O O7 0.000000 0.250000 0.458256
O O8 0.500000 0.609541 0.225679
O O9 0.360327 0.750000 0.204110
O O10 0.226824 0.651157 0.259572
O O11 0.255502 0.608384 0.174372
O O12 0.747441 0.123997 0.654625
O O13 0.000000 0.086970 0.694692
O O14 0.750000 0.000000 0.712420
O O15 0.500000 0.582538 0.387771
O O16 0.250000 0.500000 0.405802
O O17 0.830243 0.750000 0.132283
O O18 0.000000 0.611728 0.132876
#
# Coordination Sequence:
#
# PCOD8279649 Si02
#       6
#    16   8  16  16  16  16
#     4   9  15  22  33  50  75 112 157 203 255 315
#     4  10  24  42  64  92 126 162 204 248 299 354
#     4  10  20  33  50  73 103 139 175 217 269 325
#     4  11  22  37  57  82 110 144 184 228 275 330
#     4  10  21  40  62  89 121 160 200 247 300 353
#     4   9  16  26  39  58  87 121 161 209 259 317
#
# _framework density 21.058194
#
# number of rings (size 3 to 8) (size 9 to 14) (size 15 to 20)
#    0.000    2.182    0.000    4.909    1.273    7.273 
#    0.000    1.818    0.000    0.000    0.000    0.000 
#    0.000    0.727    0.000    7.273    0.000   11.273 
#
# Total GULP energy -545517.657923 kJ/mol
# GULP energy per Si atom -12398.128589 kJ/mol
# Density = 2.101026 g / cm^3
# Si number density = 21.058194 Si / 1000 Ang^3
#
#
#
# Elastic Constant Matrix: (Units=GPa)
#
#
# Indices 1 2 3 4 5 6 
#
# 1 173.7746 34.8936 84.3006 0.0000 0.0000 0.0000
# 2 34.8936 46.3212 51.5907 0.0000 0.0000 0.0000
# 3 84.3006 51.5907 195.8468 0.0000 0.0000 0.0000
# 4 0.0000 0.0000 0.0000 -9.5382 0.0000 0.0000
# 5 0.0000 0.0000 0.0000 0.0000 44.8956 0.0000
# 6 0.0000 0.0000 0.0000 0.0000 0.0000 21.6500
#
#
#
# Elastic Compliance Matrix: (Units=1/GPa)
#
#
# Indices 1 2 3 4 5 6 
#
# 1 0.007543 -0.002924 -0.002477 0.000000 0.000000 0.000000
# 2 -0.002924 0.031685 -0.007088 0.000000 0.000000 0.000000
# 3 -0.002477 -0.007088 0.008039 0.000000 0.000000 0.000000
# 4 0.000000 0.000000 0.000000 -0.104841 0.000000 0.000000
# 5 0.000000 0.000000 0.000000 0.000000 0.022274 0.000000
# 6 0.000000 0.000000 0.000000 0.000000 0.000000 0.046189
#
#
# Mechanical properties :
#
#
# Convention : Reuss Voigt Hill
#
# Bulk Modulus (GPa) = 44.86213 84.16806 64.51510
# Shear Modulus (GPa) = 115.48144 27.74533 71.61339
#
# Velocity S-wave (km/s) = 7.41338 3.63375 5.83791
# Velocity P-wave (km/s) = 9.72768 7.59352 8.72609
#
# Compressibility (1/GPa) = 0.02229051
#
# Stress axis : x y z
#
# Youngs Moduli (GPa) = 132.57062 31.56033 124.38914
#
# Poissons Ratio (x) = 0.09228 0.30807
# Poissons Ratio (y) = 0.38761 0.88169
# Poissons Ratio (z) = 0.32834 0.22370
#
# Static dielectric constant tensor:
#      x y z
#    x 4.069940 0.000000 0.000000 
#    y 0.000000 3.369750 0.000000 
#    z 0.000000 0.000000 3.505170 
# 
# 
# High freq. dielectric constant tensor:
#      x y z
#    x 1.841300 0.000000 0.000000 
#    y 0.000000 1.785370 0.000000 
#    z 0.000000 0.000000 1.833090 
# 
# From -- ./inp_files/45198.got.cif
#   From: 2010.03.12/outbox.cif.g09.slc.cpg/sg67_23_cif.got.tgz:45198.got - 2010.04.10 22:41:39.
