data_PCOD8279510
_publ_section_title
;
Structure prediction by ZEFSAII (Michael W. Deem and Ramdas Pophale) SiO2 
 PCOD8279510
Probable space group: C M M A
;
_chemical_formula_sum "Si O2"
_cell_formula_units_Z 80
_cell_length_a 27.523167
_cell_length_b 9.634063
_cell_length_c 18.876148
_cell_angle_alpha 90.000000
_cell_angle_beta 90.000000
_cell_angle_gamma 90.000000
_cell_volume 5005.197985
_symmetry_space_group_name_H-M "C M M A"
_symmetry_group_IT_number 67
_symmetry_cell_setting 'orthorhombic'
loop_
_space_group_symop_operation_xyz
x,y,z
-x,1/2-y,z
x,-y,-z
-x,1/2+y,-z
-x,-y,-z
x,1/2+y,-z
-x,y,z
x,1/2-y,z
1/2+x,1/2+y,z
1/2-x,-y,z
1/2+x,1/2-y,-z
1/2-x,y,-z
1/2-x,1/2-y,-z
1/2+x,y,-z
1/2-x,1/2+y,z
1/2+x,-y,z
loop_
_atom_site_type_symbol
_atom_site_label
_atom_site_fract_x
_atom_site_fract_y
_atom_site_fract_z
Si Si1 0.645555 0.981216 0.351757
Si Si2 0.202689 0.407570 0.217852
Si Si3 0.300109 0.914567 0.061259
Si Si4 0.303564 0.750000 0.431427
Si Si5 0.302467 0.750000 0.598844
Si Si6 0.055738 0.912471 0.569816
O O1 0.668612 0.127739 0.365644
O O2 0.659061 0.933928 0.272717
O O3 0.667249 0.885853 0.412691
O O4 0.587439 0.972402 0.364277
O O5 0.221256 0.250000 0.223225
O O6 0.250000 0.500000 0.233898
O O7 0.178325 0.432517 0.140276
O O8 0.294448 0.750000 0.042044
O O9 0.250000 0.000000 0.064313
O O10 0.330650 0.000000 0.000000
O O11 0.298968 0.750000 0.514866
O O12 0.254702 0.750000 0.382642
O O13 0.066557 0.750000 0.555295
O O14 0.000000 0.935990 0.591540
O O15 0.069127 0.000000 0.500000
#
# Coordination Sequence:
#
# PCOD8279510 Si02
#       6
#    16  16  16   8   8  16
#     4  12  22  34  49  70  95 124 160 203 244 285
#     4  10  20  32  47  67  96 130 160 193 236 283
#     4   9  16  27  43  64  89 122 159 192 225 268
#     4  11  20  36  49  63  94 128 161 198 229 281
#     4  11  24  32  47  69  92 128 165 192 235 283
#     4  10  21  37  56  73  90 118 158 206 254 295
#
# _framework density 15.983383
#
# number of rings (size 3 to 8) (size 9 to 14) (size 15 to 20)
#    0.000    1.600    2.000    4.800    2.800    2.400 
#    0.000    0.000    0.000    0.000    0.000    0.000 
#    0.000    0.800    0.000    0.600    0.000    1.200 
#
# Total GULP energy -495536.147139 kJ/mol
# GULP energy per Si atom -12388.403678 kJ/mol
# Density = 1.594700 g / cm^3
# Si number density = 15.983383 Si / 1000 Ang^3
#
#
#
# Elastic Constant Matrix: (Units=GPa)
#
#
# Indices 1 2 3 4 5 6 
#
# 1 67.1843 15.4123 32.3062 0.0000 0.0000 0.0000
# 2 15.4123 90.9128 22.9518 0.0000 0.0000 0.0000
# 3 32.3062 22.9518 98.8400 0.0000 0.0000 0.0000
# 4 0.0000 0.0000 0.0000 27.8543 0.0000 0.0000
# 5 0.0000 0.0000 0.0000 0.0000 12.8804 0.0000
# 6 0.0000 0.0000 0.0000 0.0000 0.0000 25.3010
#
#
#
# Elastic Compliance Matrix: (Units=1/GPa)
#
#
# Indices 1 2 3 4 5 6 
#
# 1 0.017891 -0.001654 -0.005464 0.000000 0.000000 0.000000
# 2 -0.001654 0.011837 -0.002208 0.000000 0.000000 0.000000
# 3 -0.005464 -0.002208 0.012416 0.000000 0.000000 0.000000
# 4 0.000000 0.000000 0.000000 0.035901 0.000000 0.000000
# 5 0.000000 0.000000 0.000000 0.000000 0.077637 0.000000
# 6 0.000000 0.000000 0.000000 0.000000 0.000000 0.039524
#
#
# Mechanical properties :
#
#
# Convention : Reuss Voigt Hill
#
# Bulk Modulus (GPa) = 42.56573 44.25307 43.40940
# Shear Modulus (GPa) = 22.55407 25.62493 24.08950
#
# Velocity S-wave (km/s) = 3.76053 4.00837 3.88643
# Velocity P-wave (km/s) = 6.74867 7.01211 6.88165
#
# Compressibility (1/GPa) = 0.02349307
#
# Stress axis : x y z
#
# Youngs Moduli (GPa) = 55.89372 84.47809 80.54119
#
# Poissons Ratio (x) = 0.13970 0.44006
# Poissons Ratio (y) = 0.09243 0.17786
# Poissons Ratio (z) = 0.30539 0.18655
#
# Static dielectric constant tensor:
#      x y z
#    x 2.898660 0.000000 0.000000 
#    y 0.000000 3.215410 0.000000 
#    z 0.000000 0.000000 3.856140 
# 
# 
# High freq. dielectric constant tensor:
#      x y z
#    x 1.567590 0.000000 0.000000 
#    y 0.000000 1.637570 0.000000 
#    z 0.000000 0.000000 1.613970 
# 
# From -- ./inp_files/36106.got.cif
#   From: 2010.03.12/outbox.cif.g09.slc.cpg/sg67_19_cif.got.tgz:36106.got - 2010.04.10 22:41:39.
