data_PCOD8279076
_publ_section_title
;
Structure prediction by ZEFSAII (Michael W. Deem and Ramdas Pophale) SiO2 
 PCOD8279076
Probable space group: C M M A
;
_chemical_formula_sum "Si O2"
_cell_formula_units_Z 104
_cell_length_a 24.904483
_cell_length_b 9.142430
_cell_length_c 30.294644
_cell_angle_alpha 90.000000
_cell_angle_beta 90.000000
_cell_angle_gamma 90.000000
_cell_volume 6897.711529
_symmetry_space_group_name_H-M "C M M A"
_symmetry_group_IT_number 67
_symmetry_cell_setting 'orthorhombic'
loop_
_space_group_symop_operation_xyz
x,y,z
-x,1/2-y,z
x,-y,-z
-x,1/2+y,-z
-x,-y,-z
x,1/2+y,-z
-x,y,z
x,1/2-y,z
1/2+x,1/2+y,z
1/2-x,-y,z
1/2+x,1/2-y,-z
1/2-x,y,-z
1/2-x,1/2-y,-z
1/2+x,y,-z
1/2-x,1/2+y,z
1/2+x,-y,z
loop_
_atom_site_type_symbol
_atom_site_label
_atom_site_fract_x
_atom_site_fract_y
_atom_site_fract_z
Si Si1 0.438891 0.919001 0.306527
Si Si2 0.436163 0.414643 0.862393
Si Si3 0.693183 0.426695 0.454732
Si Si4 0.436183 0.086073 0.958804
Si Si5 0.064048 0.914120 0.221196
Si Si6 0.894311 0.079632 0.400658
Si Si7 0.500000 0.920249 0.453903
O O1 0.500000 0.967343 0.317046
O O2 0.437606 0.750000 0.293575
O O3 0.402440 0.951104 0.348948
O O4 0.414520 0.006147 0.265072
O O5 0.500000 0.413778 0.859278
O O6 0.414380 0.250000 0.856883
O O7 0.418942 0.478196 0.910689
O O8 0.411787 0.511875 0.822970
O O9 0.671487 0.500000 0.500000
O O10 0.697573 0.250000 0.458903
O O11 0.750000 0.500000 0.443335
O O12 0.652832 0.471987 0.416026
O O13 0.500000 0.082757 0.962486
O O14 0.414568 0.250000 0.962369
O O15 0.410103 0.000000 0.000000
O O16 0.085658 0.750000 0.222301
O O17 0.000000 0.921712 0.220292
O O18 0.879915 0.250000 0.409165
O O19 0.948015 0.034194 0.426228
O O20 0.500000 0.750000 0.463814
O O21 0.500000 0.000000 0.500000
#
# Coordination Sequence:
#
# PCOD8279076 Si02
#       7
#    16  16  16  16  16  16   8
#     4   9  16  28  44  59  79 109 136 159 193 239
#     4   8  13  21  30  39  53  77 109 141 178 229
#     4  11  22  37  55  73  91 114 142 174 208 243
#     4   8  13  19  26  36  50  69  96 133 178 227
#     4   9  16  23  32  48  68  89 117 155 191 226
#     4  10  19  33  50  69  92 116 143 172 203 245
#     4  10  20  32  46  66  92 118 142 166 197 240
#
# _framework density 15.077464000000001
#
# number of rings (size 3 to 8) (size 9 to 14) (size 15 to 20)
#    0.000    2.769    0.769    3.692    0.000    4.923 
#    0.000    3.077    0.000    0.000    0.000    0.000 
#    0.000    0.000    0.000    0.000    0.000    0.000 
#
# Total GULP energy -644468.116478 kJ/mol
# GULP energy per Si atom -12393.617625 kJ/mol
# Density = 1.504315 g / cm^3
# Si number density = 15.077464 Si / 1000 Ang^3
#
#
#
# Elastic Constant Matrix: (Units=GPa)
#
#
# Indices 1 2 3 4 5 6 
#
# 1 30.5269 24.8186 29.1913 0.0000 0.0000 0.0000
# 2 24.8186 92.1154 70.5137 0.0000 0.0000 0.0000
# 3 29.1913 70.5137 145.2714 0.0000 0.0000 0.0000
# 4 0.0000 0.0000 0.0000 29.8603 0.0000 0.0000
# 5 0.0000 0.0000 0.0000 0.0000 5.2022 0.0000
# 6 0.0000 0.0000 0.0000 0.0000 0.0000 13.0020
#
#
#
# Elastic Compliance Matrix: (Units=1/GPa)
#
#
# Indices 1 2 3 4 5 6 
#
# 1 0.044049 -0.008103 -0.004918 0.000000 0.000000 0.000000
# 2 -0.008103 0.018765 -0.007480 0.000000 0.000000 0.000000
# 3 -0.004918 -0.007480 0.011503 0.000000 0.000000 0.000000
# 4 0.000000 0.000000 0.000000 0.033489 0.000000 0.000000
# 5 0.000000 0.000000 0.000000 0.000000 0.192227 0.000000
# 6 0.000000 0.000000 0.000000 0.000000 0.000000 0.076911
#
#
# Mechanical properties :
#
#
# Convention : Reuss Voigt Hill
#
# Bulk Modulus (GPa) = 30.01766 57.44011 43.72888
# Shear Modulus (GPa) = 11.65359 19.17223 15.41291
#
# Velocity S-wave (km/s) = 2.78315 3.56979 3.20073
# Velocity P-wave (km/s) = 5.50273 7.42769 6.53646
#
# Compressibility (1/GPa) = 0.03331373
#
# Stress axis : x y z
#
# Youngs Moduli (GPa) = 22.70204 53.28990 86.93579
#
# Poissons Ratio (x) = 0.43183 0.42755
# Poissons Ratio (y) = 0.18396 0.65030
# Poissons Ratio (z) = 0.11165 0.39862
#
# Static dielectric constant tensor:
#      x y z
#    x 2.345650 0.000000 0.000000 
#    y 0.000000 2.991410 0.000000 
#    z 0.000000 0.000000 3.148260 
# 
# 
# High freq. dielectric constant tensor:
#      x y z
#    x 1.497410 0.000000 0.000000 
#    y 0.000000 1.580820 0.000000 
#    z 0.000000 0.000000 1.593390 
# 
# From -- ./inp_files/45980.got.cif
#   From: 2010.03.12/outbox.cif.g09.slc.cpg/sg67_23_cif.got.tgz:45980.got - 2010.04.10 22:41:39.
