data_PCOD8279414
_publ_section_title
;
Structure prediction by ZEFSAII (Michael W. Deem and Ramdas Pophale) SiO2 
 PCOD8279414
Probable space group: C M M A
;
_chemical_formula_sum "Si O2"
_cell_formula_units_Z 64
_cell_length_a 8.645123
_cell_length_b 15.425590
_cell_length_c 23.822482
_cell_angle_alpha 90.000000
_cell_angle_beta 90.000000
_cell_angle_gamma 90.000000
_cell_volume 3176.873837
_symmetry_space_group_name_H-M "C M M A"
_symmetry_group_IT_number 67
_symmetry_cell_setting 'orthorhombic'
loop_
_space_group_symop_operation_xyz
x,y,z
-x,1/2-y,z
x,-y,-z
-x,1/2+y,-z
-x,-y,-z
x,1/2+y,-z
-x,y,z
x,1/2-y,z
1/2+x,1/2+y,z
1/2-x,-y,z
1/2+x,1/2-y,-z
1/2-x,y,-z
1/2-x,1/2-y,-z
1/2+x,y,-z
1/2-x,1/2+y,z
1/2+x,-y,z
loop_
_atom_site_type_symbol
_atom_site_label
_atom_site_fract_x
_atom_site_fract_y
_atom_site_fract_z
Si Si1 0.183761 0.250000 0.061730
Si Si2 0.820716 0.852137 0.741430
Si Si3 0.818369 0.909336 0.370958
Si Si4 0.683003 0.591278 0.136062
Si Si5 0.682748 0.750000 0.438296
O O1 0.245696 0.165198 0.094251
O O2 0.000000 0.250000 0.059840
O O3 0.250000 0.250000 0.000000
O O4 0.794589 0.750000 0.739149
O O5 0.716734 0.898381 0.694879
O O6 0.761204 0.887442 0.801024
O O7 0.000000 0.875258 0.730774
O O8 0.737189 0.834440 0.405738
O O9 0.000000 0.906330 0.381783
O O10 0.750000 0.000000 0.392728
O O11 0.500000 0.588563 0.134101
O O12 0.750000 0.500000 0.115556
O O13 0.500000 0.750000 0.441104
O O14 0.750000 0.750000 0.500000
#
# Coordination Sequence:
#
# PCOD8279414 Si02
#       5
#     8  16  16  16   8
#     4  10  22  41  60  81 113 154 200 248 303 360
#     4  10  19  36  63  91 124 164 200 246 309 368
#     4  12  25  42  65  97 131 168 210 255 308 370
#     4  10  21  38  60  87 119 157 198 245 301 363
#     4  12  26  47  70  95 127 166 212 264 313 366
#
# _framework density 20.145589999999999
#
# number of rings (size 3 to 8) (size 9 to 14) (size 15 to 20)
#    0.000    1.250    2.500    4.125    0.000    5.000 
#    0.000    5.000    0.000    0.000    0.000    0.000 
#    0.000    0.000    0.000    0.000    0.000    0.000 
#
# Total GULP energy -396978.007517 kJ/mol
# GULP energy per Si atom -12405.562735 kJ/mol
# Density = 2.009974 g / cm^3
# Si number density = 20.145590 Si / 1000 Ang^3
#
#
#
# Elastic Constant Matrix: (Units=GPa)
#
#
# Indices 1 2 3 4 5 6 
#
# 1 106.7971 55.5269 47.6236 0.0000 0.0000 0.0000
# 2 55.5269 176.9645 76.9662 0.0000 0.0000 0.0000
# 3 47.6236 76.9662 149.5228 0.0000 0.0000 0.0000
# 4 0.0000 0.0000 0.0000 -11.4335 0.0000 0.0000
# 5 0.0000 0.0000 0.0000 0.0000 36.7239 0.0000
# 6 0.0000 0.0000 0.0000 0.0000 0.0000 34.9076
#
#
#
# Elastic Compliance Matrix: (Units=1/GPa)
#
#
# Indices 1 2 3 4 5 6 
#
# 1 0.011817 -0.002668 -0.002390 0.000000 0.000000 0.000000
# 2 -0.002668 0.007883 -0.003208 0.000000 0.000000 0.000000
# 3 -0.002390 -0.003208 0.009101 0.000000 0.000000 0.000000
# 4 0.000000 0.000000 0.000000 -0.087463 0.000000 0.000000
# 5 0.000000 0.000000 0.000000 0.000000 0.027230 0.000000
# 6 0.000000 0.000000 0.000000 0.000000 0.000000 0.028647
#
#
# Mechanical properties :
#
#
# Convention : Reuss Voigt Hill
#
# Bulk Modulus (GPa) = 81.51550 88.16865 84.84208
# Shear Modulus (GPa) = 280.30832 28.91745 154.61289
#
# Velocity S-wave (km/s) = 11.80861 3.79281 8.77008
# Velocity P-wave (km/s) = 15.04910 7.93985 12.03156
#
# Compressibility (1/GPa) = 0.01226760
#
# Stress axis : x y z
#
# Youngs Moduli (GPa) = 84.62610 126.84978 109.88313
#
# Poissons Ratio (x) = 0.33846 0.26264
# Poissons Ratio (y) = 0.22580 0.35251
# Poissons Ratio (z) = 0.20227 0.40694
#
# Static dielectric constant tensor:
#      x y z
#    x 3.348580 0.000000 0.000000 
#    y 0.000000 4.047500 0.000000 
#    z 0.000000 0.000000 3.782280 
# 
# 
# High freq. dielectric constant tensor:
#      x y z
#    x 1.779570 0.000000 0.000000 
#    y 0.000000 1.807110 0.000000 
#    z 0.000000 0.000000 1.787500 
# 
# From -- ./inp_files/40416.got.cif
#   From: 2010.03.12/outbox.cif.g09.slc.cpg/sg67_21_cif.got.tgz:40416.got - 2010.04.10 22:41:39.
