data_PCOD8279545
_publ_section_title
;
Structure prediction by ZEFSAII (Michael W. Deem and Ramdas Pophale) SiO2 
 PCOD8279545
Probable space group: C M M A
;
_chemical_formula_sum "Si O2"
_cell_formula_units_Z 104
_cell_length_a 24.501092
_cell_length_b 8.717808
_cell_length_c 26.562272
_cell_angle_alpha 90.000000
_cell_angle_beta 90.000000
_cell_angle_gamma 90.000000
_cell_volume 5673.590159
_symmetry_space_group_name_H-M "C M M A"
_symmetry_group_IT_number 67
_symmetry_cell_setting 'orthorhombic'
loop_
_space_group_symop_operation_xyz
x,y,z
-x,1/2-y,z
x,-y,-z
-x,1/2+y,-z
-x,-y,-z
x,1/2+y,-z
-x,y,z
x,1/2-y,z
1/2+x,1/2+y,z
1/2-x,-y,z
1/2+x,1/2-y,-z
1/2-x,y,-z
1/2-x,1/2-y,-z
1/2+x,y,-z
1/2-x,1/2+y,z
1/2+x,-y,z
loop_
_atom_site_type_symbol
_atom_site_label
_atom_site_fract_x
_atom_site_fract_y
_atom_site_fract_z
Si Si1 0.617448 0.068800 0.137703
Si Si2 0.914015 0.931100 0.364539
Si Si3 0.500000 0.930591 0.828158
Si Si4 0.500000 0.932549 0.715672
Si Si5 0.307548 0.067865 0.945768
Si Si6 0.500000 0.430219 0.445304
Si Si7 0.694248 0.071660 0.665375
Si Si8 0.193042 0.431134 0.218342
O O1 0.624693 0.250000 0.129902
O O2 0.553727 0.020177 0.140739
O O3 0.644123 0.978493 0.091539
O O4 0.644620 0.016931 0.189735
O O5 0.906700 0.750000 0.362748
O O6 0.946376 0.988483 0.314701
O O7 0.946555 0.982967 0.414415
O O8 0.855288 0.008846 0.367534
O O9 0.500000 0.750000 0.820147
O O10 0.500000 0.004329 0.771868
O O11 0.500000 0.750000 0.716791
O O12 0.302607 0.250000 0.949069
O O13 0.250000 0.000000 0.926183
O O14 0.322239 0.000000 0.000000
O O15 0.500000 0.250000 0.450680
O O16 0.500000 0.500000 0.500000
O O17 0.698865 0.250000 0.657741
O O18 0.685065 0.027062 0.723487
O O19 0.750000 0.000000 0.644682
O O20 0.191755 0.250000 0.207413
O O21 0.250000 0.500000 0.198349
#
# Coordination Sequence:
#
# PCOD8279545 Si02
#       8
#    16  16   8   8  16   8  16  16
#     4  11  21  35  54  77 104 137 174 211 252 300
#     4   9  17  31  52  76 103 135 174 214 257 305
#     4   9  19  32  50  75 104 139 176 207 242 291
#     4   8  14  28  50  75 101 134 173 212 250 293
#     4  11  22  39  61  84 105 127 159 205 258 309
#     4   9  19  34  54  80 106 135 170 215 265 312
#     4  10  20  32  48  72 104 140 176 211 253 303
#     4  10  20  33  49  74 105 138 174 213 255 301
#
# _framework density 18.330545000000001
#
# number of rings (size 3 to 8) (size 9 to 14) (size 15 to 20)
#    0.000    2.154    0.000    5.538    0.000    3.692 
#    0.000    3.077    0.000    6.000    0.000    3.231 
#    0.000    0.000    0.000    0.000    0.000    0.000 
#
# Total GULP energy -644840.796196 kJ/mol
# GULP energy per Si atom -12400.784542 kJ/mol
# Density = 1.828882 g / cm^3
# Si number density = 18.330545 Si / 1000 Ang^3
#
#
#
# Elastic Constant Matrix: (Units=GPa)
#
#
# Indices 1 2 3 4 5 6 
#
# 1 171.1197 49.7218 70.1812 0.0000 0.0000 0.0000
# 2 49.7218 78.5162 38.3362 0.0000 0.0000 0.0000
# 3 70.1812 38.3362 105.2124 0.0000 0.0000 0.0000
# 4 0.0000 0.0000 0.0000 27.8441 0.0000 0.0000
# 5 0.0000 0.0000 0.0000 0.0000 25.8491 0.0000
# 6 0.0000 0.0000 0.0000 0.0000 0.0000 27.8287
#
#
#
# Elastic Compliance Matrix: (Units=1/GPa)
#
#
# Indices 1 2 3 4 5 6 
#
# 1 0.008675 -0.003246 -0.004604 0.000000 0.000000 0.000000
# 2 -0.003246 0.016707 -0.003922 0.000000 0.000000 0.000000
# 3 -0.004604 -0.003922 0.014005 0.000000 0.000000 0.000000
# 4 0.000000 0.000000 0.000000 0.035914 0.000000 0.000000
# 5 0.000000 0.000000 0.000000 0.000000 0.038686 0.000000
# 6 0.000000 0.000000 0.000000 0.000000 0.000000 0.035934
#
#
# Mechanical properties :
#
#
# Convention : Reuss Voigt Hill
#
# Bulk Modulus (GPa) = 63.12151 74.59184 68.85668
# Shear Modulus (GPa) = 27.97253 29.41165 28.69209
#
# Velocity S-wave (km/s) = 3.91065 4.00999 3.96063
# Velocity P-wave (km/s) = 7.40951 7.88803 7.65251
#
# Compressibility (1/GPa) = 0.01584246
#
# Stress axis : x y z
#
# Youngs Moduli (GPa) = 115.27038 59.85583 71.40344
#
# Poissons Ratio (x) = 0.19428 0.32875
# Poissons Ratio (y) = 0.37414 0.28007
# Poissons Ratio (z) = 0.53072 0.23478
#
# Static dielectric constant tensor:
#      x y z
#    x 3.483000 0.000000 0.000000 
#    y 0.000000 3.238920 0.000000 
#    z 0.000000 0.000000 3.041970 
# 
# 
# High freq. dielectric constant tensor:
#      x y z
#    x 1.716410 0.000000 0.000000 
#    y 0.000000 1.705110 0.000000 
#    z 0.000000 0.000000 1.690900 
# 
# From -- ./inp_files/44888.got.cif
#   From: 2010.03.12/outbox.cif.g09.slc.cpg/sg67_23_cif.got.tgz:44888.got - 2010.04.10 22:41:39.
