data_PCOD8279190
_publ_section_title
;
Structure prediction by ZEFSAII (Michael W. Deem and Ramdas Pophale) SiO2 
 PCOD8279190
Probable space group: C M M A
;
_chemical_formula_sum "Si O2"
_cell_formula_units_Z 96
_cell_length_a 17.560823
_cell_length_b 26.926631
_cell_length_c 10.199072
_cell_angle_alpha 90.000000
_cell_angle_beta 90.000000
_cell_angle_gamma 90.000000
_cell_volume 4822.669962
_symmetry_space_group_name_H-M "C M M A"
_symmetry_group_IT_number 67
_symmetry_cell_setting 'orthorhombic'
loop_
_space_group_symop_operation_xyz
x,y,z
-x,1/2-y,z
x,-y,-z
-x,1/2+y,-z
-x,-y,-z
x,1/2+y,-z
-x,y,z
x,1/2-y,z
1/2+x,1/2+y,z
1/2-x,-y,z
1/2+x,1/2-y,-z
1/2-x,y,-z
1/2-x,1/2-y,-z
1/2+x,y,-z
1/2-x,1/2+y,z
1/2+x,-y,z
loop_
_atom_site_type_symbol
_atom_site_label
_atom_site_fract_x
_atom_site_fract_y
_atom_site_fract_z
Si Si1 0.798935 0.635996 0.382250
Si Si2 0.833828 0.058132 0.026911
Si Si3 0.415837 0.393650 0.201768
Si Si4 0.913605 0.693998 0.023825
Si Si5 0.843681 0.359511 0.214500
Si Si6 0.086136 0.192984 0.449884
O O1 0.750000 0.611036 0.500000
O O2 0.856535 0.595391 0.319650
O O3 0.740637 0.653499 0.269268
O O4 0.851014 0.680788 0.438911
O O5 0.898324 0.075203 0.927034
O O6 0.750000 0.080451 0.000000
O O7 0.853568 0.081602 0.171591
O O8 0.832017 0.000000 0.000000
O O9 0.500000 0.407364 0.251352
O O10 0.407981 0.335739 0.160937
O O11 0.890327 0.750000 0.056091
O O12 0.855839 0.672695 0.915906
O O13 0.000000 0.690125 0.968750
O O14 0.904086 0.343911 0.325811
O O15 0.098286 0.250000 0.405172
O O16 0.000000 0.185196 0.504290
#
# Coordination Sequence:
#
# PCOD8279190 Si02
#       6
#    16  16  16  16  16  16
#     4  10  21  35  53  76 109 146 194 238 274 321
#     4  10  20  37  63  89 114 145 181 231 298 365
#     4  10  20  36  57  82 114 148 184 235 287 340
#     4   9  18  31  50  78 111 148 183 222 283 349
#     4  10  19  33  56  81 112 142 187 236 285 338
#     4  10  21  36  55  79 113 160 202 236 279 331
#
# _framework density 19.905984
#
# number of rings (size 3 to 8) (size 9 to 14) (size 15 to 20)
#    0.000    2.167    1.667    1.500    0.000    6.667 
#    0.000    2.500    0.000    7.000    0.000    5.833 
#    0.000    0.000    0.000    0.000    0.000    0.000 
#
# Total GULP energy -594630.465630 kJ/mol
# GULP energy per Si atom -12388.134701 kJ/mol
# Density = 1.986068 g / cm^3
# Si number density = 19.905984 Si / 1000 Ang^3
#
#
#
# Elastic Constant Matrix: (Units=GPa)
#
#
# Indices 1 2 3 4 5 6 
#
# 1 131.8030 26.2148 55.2368 0.0000 0.0000 0.0000
# 2 26.2148 90.1212 31.8586 0.0000 0.0000 0.0000
# 3 55.2368 31.8586 92.3432 0.0000 0.0000 0.0000
# 4 0.0000 0.0000 0.0000 19.2697 0.0000 0.0000
# 5 0.0000 0.0000 0.0000 0.0000 36.6087 0.0000
# 6 0.0000 0.0000 0.0000 0.0000 0.0000 19.5054
#
#
#
# Elastic Compliance Matrix: (Units=1/GPa)
#
#
# Indices 1 2 3 4 5 6 
#
# 1 0.010192 -0.000922 -0.005779 0.000000 0.000000 0.000000
# 2 -0.000922 0.012721 -0.003837 0.000000 0.000000 0.000000
# 3 -0.005779 -0.003837 0.015610 0.000000 0.000000 0.000000
# 4 0.000000 0.000000 0.000000 0.051895 0.000000 0.000000
# 5 0.000000 0.000000 0.000000 0.000000 0.027316 0.000000
# 6 0.000000 0.000000 0.000000 0.000000 0.000000 0.051268
#
#
# Mechanical properties :
#
#
# Convention : Reuss Voigt Hill
#
# Bulk Modulus (GPa) = 57.31619 60.09866 58.70742
# Shear Modulus (GPa) = 25.52421 28.47390 26.99906
#
# Velocity S-wave (km/s) = 3.58472 3.78619 3.68683
# Velocity P-wave (km/s) = 6.78156 7.02641 6.90507
#
# Compressibility (1/GPa) = 0.01744708
#
# Stress axis : x y z
#
# Youngs Moduli (GPa) = 98.11457 78.61115 64.06327
#
# Poissons Ratio (x) = 0.07248 0.37019
# Poissons Ratio (y) = 0.09046 0.24583
# Poissons Ratio (z) = 0.56696 0.30165
#
# Static dielectric constant tensor:
#      x y z
#    x 3.950150 0.000000 0.000000 
#    y 0.000000 3.414530 0.000000 
#    z 0.000000 0.000000 3.650650 
# 
# 
# High freq. dielectric constant tensor:
#      x y z
#    x 1.795850 0.000000 0.000000 
#    y 0.000000 1.732490 0.000000 
#    z 0.000000 0.000000 1.770660 
# 
# From -- ./inp_files/19834.got.cif
#   From: 2010.03.12/outbox.cif.g09.slc.cpg/sg67_10_cif.got.tgz:19834.got - 2010.04.10 22:41:39.
