data_PCOD8279118
_publ_section_title
;
Structure prediction by ZEFSAII (Michael W. Deem and Ramdas Pophale) SiO2 
 PCOD8279118
Probable space group: C M M A
;
_chemical_formula_sum "Si O2"
_cell_formula_units_Z 104
_cell_length_a 26.307922
_cell_length_b 8.771135
_cell_length_c 23.135371
_cell_angle_alpha 90.000000
_cell_angle_beta 90.000000
_cell_angle_gamma 90.000000
_cell_volume 5338.494619
_symmetry_space_group_name_H-M "C M M A"
_symmetry_group_IT_number 67
_symmetry_cell_setting 'orthorhombic'
loop_
_space_group_symop_operation_xyz
x,y,z
-x,1/2-y,z
x,-y,-z
-x,1/2+y,-z
-x,-y,-z
x,1/2+y,-z
-x,y,z
x,1/2-y,z
1/2+x,1/2+y,z
1/2-x,-y,z
1/2+x,1/2-y,-z
1/2-x,y,-z
1/2-x,1/2-y,-z
1/2+x,y,-z
1/2-x,1/2+y,z
1/2+x,-y,z
loop_
_atom_site_type_symbol
_atom_site_label
_atom_site_fract_x
_atom_site_fract_y
_atom_site_fract_z
Si Si1 0.156058 0.571345 0.228454
Si Si2 0.110194 0.430123 0.563053
Si Si3 0.443608 0.573164 0.829809
Si Si4 0.304065 0.068151 0.349054
Si Si5 0.802572 0.069943 0.894035
Si Si6 0.597386 0.569781 0.058982
Si Si7 0.000000 0.428195 0.561869
O O1 0.155612 0.750000 0.238237
O O2 0.097823 0.515753 0.217133
O O3 0.179539 0.498751 0.286483
O O4 0.189770 0.525027 0.173261
O O5 0.118470 0.500000 0.500000
O O6 0.114535 0.250000 0.556643
O O7 0.153909 0.491097 0.605558
O O8 0.054313 0.475563 0.590823
O O9 0.500000 0.550148 0.803739
O O10 0.432650 0.750000 0.844981
O O11 0.439199 0.478615 0.888752
O O12 0.300417 0.250000 0.348457
O O13 0.250000 0.000000 0.367326
O O14 0.803232 0.250000 0.903143
O O15 0.750000 0.000000 0.915904
O O16 0.846312 0.996214 0.932354
O O17 0.599482 0.750000 0.054528
O O18 0.574766 0.500000 0.000000
O O19 0.000000 0.500000 0.500000
O O20 0.000000 0.250000 0.553359
#
# Coordination Sequence:
#
# PCOD8279118 Si02
#       7
#    16  16  16  16  16  16   8
#     4   8  16  32  52  75 103 132 168 210 254 308
#     4   9  18  32  51  74 103 136 175 218 263 314
#     4   9  18  35  57  79 104 134 167 209 261 313
#     4  10  20  34  51  75 106 139 176 217 260 312
#     4  10  19  33  53  76 102 133 171 213 260 313
#     4  11  22  36  53  75 104 137 173 213 257 306
#     4   8  14  28  48  70  94 126 164 208 255 300
#
# _framework density 19.481148000000001
#
# number of rings (size 3 to 8) (size 9 to 14) (size 15 to 20)
#    0.000    2.615    0.000    3.231    0.000    1.846 
#    1.385    6.154    0.000    0.000    0.000    0.000 
#    0.000    0.000    0.000    0.000    0.000    0.000 
#
# Total GULP energy -644460.659960 kJ/mol
# GULP energy per Si atom -12393.474230 kJ/mol
# Density = 1.943681 g / cm^3
# Si number density = 19.481148 Si / 1000 Ang^3
#
#
#
# Elastic Constant Matrix: (Units=GPa)
#
#
# Indices 1 2 3 4 5 6 
#
# 1 141.1933 24.4108 33.1130 0.0000 0.0000 0.0000
# 2 24.4108 56.8584 15.8659 0.0000 0.0000 0.0000
# 3 33.1130 15.8659 76.5343 0.0000 0.0000 0.0000
# 4 0.0000 0.0000 0.0000 21.1363 0.0000 0.0000
# 5 0.0000 0.0000 0.0000 0.0000 14.2820 0.0000
# 6 0.0000 0.0000 0.0000 0.0000 0.0000 25.9733
#
#
#
# Elastic Compliance Matrix: (Units=1/GPa)
#
#
# Indices 1 2 3 4 5 6 
#
# 1 0.008256 -0.002704 -0.003012 0.000000 0.000000 0.000000
# 2 -0.002704 0.019553 -0.002883 0.000000 0.000000 0.000000
# 3 -0.003012 -0.002883 0.014967 0.000000 0.000000 0.000000
# 4 0.000000 0.000000 0.000000 0.047312 0.000000 0.000000
# 5 0.000000 0.000000 0.000000 0.000000 0.070018 0.000000
# 6 0.000000 0.000000 0.000000 0.000000 0.000000 0.038501
#
#
# Mechanical properties :
#
#
# Convention : Reuss Voigt Hill
#
# Bulk Modulus (GPa) = 39.09655 46.81838 42.95746
# Shear Modulus (GPa) = 22.28842 25.69141 23.98991
#
# Velocity S-wave (km/s) = 3.38613 3.63544 3.51300
# Velocity P-wave (km/s) = 5.94981 6.45808 6.20915
#
# Compressibility (1/GPa) = 0.02557770
#
# Stress axis : x y z
#
# Youngs Moduli (GPa) = 121.11958 51.14256 66.81485
#
# Poissons Ratio (x) = 0.13831 0.20121
# Poissons Ratio (y) = 0.32754 0.19266
# Poissons Ratio (z) = 0.36475 0.14747
#
# Static dielectric constant tensor:
#      x y z
#    x 3.933250 0.000000 0.000000 
#    y 0.000000 3.437020 0.000000 
#    z 0.000000 0.000000 3.578440 
# 
# 
# High freq. dielectric constant tensor:
#      x y z
#    x 1.774620 0.000000 0.000000 
#    y 0.000000 1.736820 0.000000 
#    z 0.000000 0.000000 1.739110 
# 
# From -- ./inp_files/40222.got.cif
#   From: 2010.03.12/outbox.cif.g09.slc.cpg/sg67_21_cif.got.tgz:40222.got - 2010.04.10 22:41:39.
