data_PCOD8279004
_publ_section_title
;
Structure prediction by ZEFSAII (Michael W. Deem and Ramdas Pophale) SiO2 
 PCOD8279004
Probable space group: C M M A
;
_chemical_formula_sum "Si O2"
_cell_formula_units_Z 96
_cell_length_a 16.627060
_cell_length_b 18.218154
_cell_length_c 16.425365
_cell_angle_alpha 90.000000
_cell_angle_beta 90.000000
_cell_angle_gamma 90.000000
_cell_volume 4975.478592
_symmetry_space_group_name_H-M "C M M A"
_symmetry_group_IT_number 67
_symmetry_cell_setting 'orthorhombic'
loop_
_space_group_symop_operation_xyz
x,y,z
-x,1/2-y,z
x,-y,-z
-x,1/2+y,-z
-x,-y,-z
x,1/2+y,-z
-x,y,z
x,1/2-y,z
1/2+x,1/2+y,z
1/2-x,-y,z
1/2+x,1/2-y,-z
1/2-x,y,-z
1/2-x,1/2-y,-z
1/2+x,y,-z
1/2-x,1/2+y,z
1/2+x,-y,z
loop_
_atom_site_type_symbol
_atom_site_label
_atom_site_fract_x
_atom_site_fract_y
_atom_site_fract_z
Si Si1 0.595403 0.330083 0.168514
Si Si2 0.095370 0.522896 0.088988
Si Si3 0.161672 0.532759 0.750196
Si Si4 0.155991 0.168095 0.512376
Si Si5 0.093508 0.835068 0.661835
Si Si6 0.591893 0.099293 0.331739
O O1 0.500000 0.328324 0.172405
O O2 0.629492 0.250000 0.142564
O O3 0.622042 0.392375 0.104125
O O4 0.627762 0.350600 0.258508
O O5 0.138918 0.470859 0.154464
O O6 0.000000 0.512755 0.098159
O O7 0.125723 0.500000 0.000000
O O8 0.250000 0.500000 0.734965
O O9 0.150642 0.616695 0.721025
O O10 0.100023 0.485044 0.695940
O O11 0.126288 0.250000 0.535858
O O12 0.250000 0.167223 0.500000
O O13 0.110196 0.141755 0.431336
O O14 0.139015 0.112484 0.585296
O O15 0.117566 0.750000 0.675357
O O16 0.000000 0.848249 0.682544
O O17 0.500000 0.118612 0.348395
#
# Coordination Sequence:
#
# PCOD8279004 Si02
#       6
#    16  16  16  16  16  16
#     4   8  14  26  47  76 105 130 163 212 264 309
#     4   9  18  34  55  78 106 139 176 220 269 327
#     4  11  22  37  56  80 108 139 177 224 281 334
#     4  10  20  33  50  77 113 148 182 223 273 323
#     4  10  21  38  58  79 109 150 193 232 269 321
#     4  10  19  32  52  76 102 137 182 227 268 316
#
# _framework density 19.294626000000001
#
# number of rings (size 3 to 8) (size 9 to 14) (size 15 to 20)
#    0.000    2.333    0.000    4.500    0.000    2.667 
#    0.000    7.500    0.000    3.000    0.000    5.833 
#    0.000    0.000    0.000    0.000    0.000    0.000 
#
# Total GULP energy -595115.954810 kJ/mol
# GULP energy per Si atom -12398.249059 kJ/mol
# Density = 1.925071 g / cm^3
# Si number density = 19.294626 Si / 1000 Ang^3
#
#
#
# Elastic Constant Matrix: (Units=GPa)
#
#
# Indices 1 2 3 4 5 6 
#
# 1 56.3240 22.1083 31.0786 0.0000 0.0000 0.0000
# 2 22.1083 117.0147 79.3206 0.0000 0.0000 0.0000
# 3 31.0786 79.3206 148.0048 0.0000 0.0000 0.0000
# 4 0.0000 0.0000 0.0000 24.2783 0.0000 0.0000
# 5 0.0000 0.0000 0.0000 0.0000 20.0728 0.0000
# 6 0.0000 0.0000 0.0000 0.0000 0.0000 23.6383
#
#
#
# Elastic Compliance Matrix: (Units=1/GPa)
#
#
# Indices 1 2 3 4 5 6 
#
# 1 0.020243 -0.001481 -0.003457 0.000000 0.000000 0.000000
# 2 -0.001481 0.013530 -0.006940 0.000000 0.000000 0.000000
# 3 -0.003457 -0.006940 0.011202 0.000000 0.000000 0.000000
# 4 0.000000 0.000000 0.000000 0.041189 0.000000 0.000000
# 5 0.000000 0.000000 0.000000 0.000000 0.049819 0.000000
# 6 0.000000 0.000000 0.000000 0.000000 0.000000 0.042304
#
#
# Mechanical properties :
#
#
# Convention : Reuss Voigt Hill
#
# Bulk Modulus (GPa) = 47.12850 65.15094 56.13972
# Shear Modulus (GPa) = 23.90998 26.18695 25.04846
#
# Velocity S-wave (km/s) = 3.52405 3.68804 3.60698
# Velocity P-wave (km/s) = 6.40604 7.20938 6.81955
#
# Compressibility (1/GPa) = 0.02121859
#
# Stress axis : x y z
#
# Youngs Moduli (GPa) = 49.39895 73.90727 89.27006
#
# Poissons Ratio (x) = 0.10949 0.30859
# Poissons Ratio (y) = 0.07318 0.61956
# Poissons Ratio (z) = 0.17076 0.51294
#
# Static dielectric constant tensor:
#      x y z
#    x 3.331290 0.000000 0.000000 
#    y 0.000000 3.728700 0.000000 
#    z 0.000000 0.000000 3.436580 
# 
# 
# High freq. dielectric constant tensor:
#      x y z
#    x 1.736540 0.000000 0.000000 
#    y 0.000000 1.747190 0.000000 
#    z 0.000000 0.000000 1.738520 
# 
# From -- ./inp_files/27241.got.cif
#   From: 2010.03.12/outbox.cif.g09.slc.cpg/sg67_14_cif.got.tgz:27241.got - 2010.04.10 22:41:39.
