data_PCOD8279721
_publ_section_title
;
Structure prediction by ZEFSAII (Michael W. Deem and Ramdas Pophale) SiO2 
 PCOD8279721
Probable space group: C M M A
;
_chemical_formula_sum "Si O2"
_cell_formula_units_Z 80
_cell_length_a 13.711307
_cell_length_b 26.028106
_cell_length_c 11.641687
_cell_angle_alpha 90.000000
_cell_angle_beta 90.000000
_cell_angle_gamma 90.000000
_cell_volume 4154.677713
_symmetry_space_group_name_H-M "C M M A"
_symmetry_group_IT_number 67
_symmetry_cell_setting 'orthorhombic'
loop_
_space_group_symop_operation_xyz
x,y,z
-x,1/2-y,z
x,-y,-z
-x,1/2+y,-z
-x,-y,-z
x,1/2+y,-z
-x,y,z
x,1/2-y,z
1/2+x,1/2+y,z
1/2-x,-y,z
1/2+x,1/2-y,-z
1/2-x,y,-z
1/2-x,1/2-y,-z
1/2+x,y,-z
1/2-x,1/2+y,z
1/2+x,-y,z
loop_
_atom_site_type_symbol
_atom_site_label
_atom_site_fract_x
_atom_site_fract_y
_atom_site_fract_z
Si Si1 0.271413 0.382002 0.868205
Si Si2 0.114356 0.808021 0.712842
Si Si3 0.885402 0.535276 0.748738
Si Si4 0.115124 0.582418 0.291861
Si Si5 0.386234 0.605328 0.456668
O O1 0.334335 0.334466 0.821315
O O2 0.329360 0.436105 0.852613
O O3 0.168273 0.382235 0.801210
O O4 0.250000 0.372093 0.000000
O O5 0.152462 0.750000 0.698149
O O6 0.137526 0.838375 0.594353
O O7 0.000000 0.809828 0.738650
O O8 0.857460 0.475982 0.739598
O O9 0.848311 0.562336 0.631895
O O10 0.000000 0.543263 0.768592
O O11 0.160314 0.597416 0.417171
O O12 0.000000 0.592477 0.284533
O O13 0.500000 0.596232 0.473909
#
# Coordination Sequence:
#
# PCOD8279721 Si02
#       5
#    16  16  16  16  16
#     4  11  23  36  51  75 109 143 185 230 262 299
#     4   9  19  38  63  84 102 132 175 224 279 334
#     4   9  18  33  53  76 104 142 182 219 261 315
#     4  10  20  33  51  77 110 144 174 210 266 326
#     4   8  15  31  54  80 107 132 167 219 274 327
#
# _framework density 19.255405
#
# number of rings (size 3 to 8) (size 9 to 14) (size 15 to 20)
#    0.000    2.600    0.000    3.000    0.000    9.200 
#    0.000    8.000    0.000    1.800    0.000    0.000 
#    0.000    0.000    0.000    0.000    0.000    0.000 
#
# Total GULP energy -495950.565949 kJ/mol
# GULP energy per Si atom -12398.764149 kJ/mol
# Density = 1.921158 g / cm^3
# Si number density = 19.255405 Si / 1000 Ang^3
#
#
#
# Elastic Constant Matrix: (Units=GPa)
#
#
# Indices 1 2 3 4 5 6 
#
# 1 44.1682 37.9449 32.7775 0.0000 0.0000 0.0000
# 2 37.9449 107.4749 32.2488 0.0000 0.0000 0.0000
# 3 32.7775 32.2488 81.3861 0.0000 0.0000 0.0000
# 4 0.0000 0.0000 0.0000 16.7706 0.0000 0.0000
# 5 0.0000 0.0000 0.0000 0.0000 27.6406 0.0000
# 6 0.0000 0.0000 0.0000 0.0000 0.0000 25.5506
#
#
#
# Elastic Compliance Matrix: (Units=1/GPa)
#
#
# Indices 1 2 3 4 5 6 
#
# 1 0.041000 -0.010806 -0.012231 0.000000 0.000000 0.000000
# 2 -0.010806 0.013408 -0.000961 0.000000 0.000000 0.000000
# 3 -0.012231 -0.000961 0.017594 0.000000 0.000000 0.000000
# 4 0.000000 0.000000 0.000000 0.059628 0.000000 0.000000
# 5 0.000000 0.000000 0.000000 0.000000 0.036179 0.000000
# 6 0.000000 0.000000 0.000000 0.000000 0.000000 0.039138
#
#
# Mechanical properties :
#
#
# Convention : Reuss Voigt Hill
#
# Bulk Modulus (GPa) = 41.65417 48.77464 45.21441
# Shear Modulus (GPa) = 19.01546 22.66289 20.83918
#
# Velocity S-wave (km/s) = 3.14592 3.43441 3.29333
# Velocity P-wave (km/s) = 5.90552 6.41188 6.16390
#
# Compressibility (1/GPa) = 0.02400720
#
# Stress axis : x y z
#
# Youngs Moduli (GPa) = 24.39003 74.58329 56.83835
#
# Poissons Ratio (x) = 0.80591 0.69518
# Poissons Ratio (y) = 0.26355 0.05462
# Poissons Ratio (z) = 0.29831 0.07167
#
# Static dielectric constant tensor:
#      x y z
#    x 3.551180 0.000000 0.000000 
#    y 0.000000 3.618250 0.000000 
#    z 0.000000 0.000000 3.417800 
# 
# 
# High freq. dielectric constant tensor:
#      x y z
#    x 1.765320 0.000000 0.000000 
#    y 0.000000 1.730600 0.000000 
#    z 0.000000 0.000000 1.730560 
# 
# From -- ./inp_files/17921.got.cif
#   From: 2010.03.12/outbox.cif.g09.slc.cpg/sg67_9_cif.got.tgz:17921.got - 2010.04.10 22:41:39.
