data_PCOD8279754
_publ_section_title
;
Structure prediction by ZEFSAII (Michael W. Deem and Ramdas Pophale) SiO2 
 PCOD8279754
Probable space group: C M M A
;
_chemical_formula_sum "Si O2"
_cell_formula_units_Z 64
_cell_length_a 23.788317
_cell_length_b 16.816555
_cell_length_c 8.280133
_cell_angle_alpha 90.000000
_cell_angle_beta 90.000000
_cell_angle_gamma 90.000000
_cell_volume 3312.364046
_symmetry_space_group_name_H-M "C M M A"
_symmetry_group_IT_number 67
_symmetry_cell_setting 'orthorhombic'
loop_
_space_group_symop_operation_xyz
x,y,z
-x,1/2-y,z
x,-y,-z
-x,1/2+y,-z
-x,-y,-z
x,1/2+y,-z
-x,y,z
x,1/2-y,z
1/2+x,1/2+y,z
1/2-x,-y,z
1/2+x,1/2-y,-z
1/2-x,y,-z
1/2-x,1/2-y,-z
1/2+x,y,-z
1/2-x,1/2+y,z
1/2+x,-y,z
loop_
_atom_site_type_symbol
_atom_site_label
_atom_site_fract_x
_atom_site_fract_y
_atom_site_fract_z
Si Si1 0.402055 0.431201 0.618677
Si Si2 0.184589 0.983019 0.181711
Si Si3 0.116084 0.342463 0.683475
Si Si4 0.500000 0.925886 0.127448
Si Si5 0.000000 0.340052 0.823980
O O1 0.424479 0.500000 0.500000
O O2 0.343289 0.454443 0.698233
O O3 0.388984 0.353044 0.510740
O O4 0.446025 0.419125 0.760720
O O5 0.166633 0.893523 0.236181
O O6 0.250000 0.000000 0.198619
O O7 0.164023 0.000000 0.000000
O O8 0.126270 0.250000 0.725854
O O9 0.057302 0.378208 0.754003
O O10 0.500000 0.847464 0.017121
O O11 0.500000 0.000000 0.000000
O O12 0.000000 0.250000 0.766673
#
# Coordination Sequence:
#
# PCOD8279754 Si02
#       5
#    16  16  16   8   8
#     4  10  20  33  53  79 109 145 185 231 277 328
#     4  10  21  39  59  80 109 146 187 235 282 331
#     4  10  21  38  58  83 115 150 186 231 284 338
#     4  12  20  31  54  83 110 147 193 231 269 330
#     4  10  21  35  53  79 114 147 177 221 278 328
#
# _framework density 19.321546999999999
#
# number of rings (size 3 to 8) (size 9 to 14) (size 15 to 20)
#    0.000    1.750    0.000    6.375    0.000    5.500 
#    0.000    6.250    0.000    0.000    0.000    0.000 
#    0.000    0.000    0.000    0.000    0.000    0.000 
#
# Total GULP energy -396606.250512 kJ/mol
# GULP energy per Si atom -12393.945329 kJ/mol
# Density = 1.927757 g / cm^3
# Si number density = 19.321547 Si / 1000 Ang^3
#
#
#
# Elastic Constant Matrix: (Units=GPa)
#
#
# Indices 1 2 3 4 5 6 
#
# 1 102.9160 52.9474 54.6058 0.0000 0.0000 0.0000
# 2 52.9474 80.8828 45.8831 0.0000 0.0000 0.0000
# 3 54.6058 45.8831 146.5878 0.0000 0.0000 0.0000
# 4 0.0000 0.0000 0.0000 26.2814 0.0000 0.0000
# 5 0.0000 0.0000 0.0000 0.0000 13.2030 0.0000
# 6 0.0000 0.0000 0.0000 0.0000 0.0000 24.6512
#
#
#
# Elastic Compliance Matrix: (Units=1/GPa)
#
#
# Indices 1 2 3 4 5 6 
#
# 1 0.015811 -0.008522 -0.003222 0.000000 0.000000 0.000000
# 2 -0.008522 0.019626 -0.002969 0.000000 0.000000 0.000000
# 3 -0.003222 -0.002969 0.008951 0.000000 0.000000 0.000000
# 4 0.000000 0.000000 0.000000 0.038050 0.000000 0.000000
# 5 0.000000 0.000000 0.000000 0.000000 0.075740 0.000000
# 6 0.000000 0.000000 0.000000 0.000000 0.000000 0.040566
#
#
# Mechanical properties :
#
#
# Convention : Reuss Voigt Hill
#
# Bulk Modulus (GPa) = 66.83343 70.80660 68.82001
# Shear Modulus (GPa) = 21.44472 24.62382 23.03427
#
# Velocity S-wave (km/s) = 3.33511 3.57378 3.45650
# Velocity P-wave (km/s) = 7.03533 7.33179 7.18509
#
# Compressibility (1/GPa) = 0.01496257
#
# Stress axis : x y z
#
# Youngs Moduli (GPa) = 63.24830 50.95205 111.71493
#
# Poissons Ratio (x) = 0.43422 0.35997
# Poissons Ratio (y) = 0.53901 0.33164
# Poissons Ratio (z) = 0.20380 0.15126
#
# Static dielectric constant tensor:
#      x y z
#    x 3.482420 0.000000 0.000000 
#    y 0.000000 3.380260 0.000000 
#    z 0.000000 0.000000 3.991870 
# 
# 
# High freq. dielectric constant tensor:
#      x y z
#    x 1.749640 0.000000 0.000000 
#    y 0.000000 1.732910 0.000000 
#    z 0.000000 0.000000 1.773430 
# 
# From -- ./inp_files/9407.got.cif
#   From: 2010.03.12/outbox.cif.g09.slc.cpg/sg67_5_cif.got.tgz:9407.got - 2010.04.10 22:41:39.
