data_PCOD8279333
_publ_section_title
;
Structure prediction by ZEFSAII (Michael W. Deem and Ramdas Pophale) SiO2 
 PCOD8279333
Probable space group: C M M A
;
_chemical_formula_sum "Si O2"
_cell_formula_units_Z 96
_cell_length_a 8.866289
_cell_length_b 23.691132
_cell_length_c 25.993012
_cell_angle_alpha 90.000000
_cell_angle_beta 90.000000
_cell_angle_gamma 90.000000
_cell_volume 5459.895153
_symmetry_space_group_name_H-M "C M M A"
_symmetry_group_IT_number 67
_symmetry_cell_setting 'orthorhombic'
loop_
_space_group_symop_operation_xyz
x,y,z
-x,1/2-y,z
x,-y,-z
-x,1/2+y,-z
-x,-y,-z
x,1/2+y,-z
-x,y,z
x,1/2-y,z
1/2+x,1/2+y,z
1/2-x,-y,z
1/2+x,1/2-y,-z
1/2-x,y,-z
1/2-x,1/2-y,-z
1/2+x,y,-z
1/2-x,1/2+y,z
1/2+x,-y,z
loop_
_atom_site_type_symbol
_atom_site_label
_atom_site_fract_x
_atom_site_fract_y
_atom_site_fract_z
Si Si1 0.176715 0.439461 0.149014
Si Si2 0.178472 0.750000 0.207342
Si Si3 0.323641 0.561122 0.548739
Si Si4 0.178909 0.629306 0.240949
Si Si5 0.323966 0.939517 0.661618
Si Si6 0.820235 0.250000 0.909416
Si Si7 0.177474 0.863251 0.948226
O O1 0.250000 0.500000 0.143814
O O2 0.245222 0.407365 0.197190
O O3 0.215913 0.405763 0.097529
O O4 0.000000 0.446102 0.157834
O O5 0.236181 0.694052 0.236860
O O6 0.240606 0.750000 0.149181
O O7 0.000000 0.750000 0.205610
O O8 0.500000 0.556587 0.538810
O O9 0.250000 0.500000 0.549579
O O10 0.250000 0.595169 0.500000
O O11 0.287656 0.587348 0.605077
O O12 0.231874 0.605473 0.296202
O O13 0.000000 0.625531 0.233795
O O14 0.500000 0.950730 0.667066
O O15 0.250000 0.000000 0.671214
O O16 0.756717 0.303971 0.938213
O O17 0.000000 0.250000 0.912035
O O18 0.000000 0.854253 0.954894
O O19 0.250000 0.889190 0.000000
#
# Coordination Sequence:
#
# PCOD8279333 Si02
#       7
#    16   8  16  16  16   8  16
#     4  11  24  39  56  78 104 135 168 205 249 300
#     4   9  18  32  56  81 100 129 165 204 250 297
#     4   9  15  24  38  61  91 128 165 202 244 286
#     4  10  19  35  55  77 103 132 168 208 251 302
#     4   9  18  29  45  69 101 133 166 205 245 294
#     4  11  20  36  61  85 106 133 167 208 254 300
#     4  11  24  40  58  81 107 135 168 208 252 300
#
# _framework density 17.582754999999999
#
# number of rings (size 3 to 8) (size 9 to 14) (size 15 to 20)
#    0.000    2.000    1.667    3.000    0.000    5.000 
#    0.000    2.083    0.000    0.000    0.000    0.583 
#    0.000    0.000    0.000    0.000    0.000    0.000 
#
# Total GULP energy -595022.840813 kJ/mol
# GULP energy per Si atom -12396.309184 kJ/mol
# Density = 1.754274 g / cm^3
# Si number density = 17.582755 Si / 1000 Ang^3
#
#
#
# Elastic Constant Matrix: (Units=GPa)
#
#
# Indices 1 2 3 4 5 6 
#
# 1 67.6756 37.8638 57.9145 0.0000 0.0000 0.0000
# 2 37.8638 100.8664 63.4022 0.0000 0.0000 0.0000
# 3 57.9145 63.4022 178.9376 0.0000 0.0000 0.0000
# 4 0.0000 0.0000 0.0000 -61.6814 0.0000 0.0000
# 5 0.0000 0.0000 0.0000 0.0000 21.0234 0.0000
# 6 0.0000 0.0000 0.0000 0.0000 0.0000 26.1680
#
#
#
# Elastic Compliance Matrix: (Units=1/GPa)
#
#
# Indices 1 2 3 4 5 6 
#
# 1 0.022176 -0.004905 -0.005439 0.000000 0.000000 0.000000
# 2 -0.004905 0.013840 -0.003316 0.000000 0.000000 0.000000
# 3 -0.005439 -0.003316 0.008524 0.000000 0.000000 0.000000
# 4 0.000000 0.000000 0.000000 -0.016212 0.000000 0.000000
# 5 0.000000 0.000000 0.000000 0.000000 0.047566 0.000000
# 6 0.000000 0.000000 0.000000 0.000000 0.000000 0.038215
#
#
# Mechanical properties :
#
#
# Convention : Reuss Voigt Hill
#
# Bulk Modulus (GPa) = 58.07891 73.98231 66.03061
# Shear Modulus (GPa) = 33.97460 9.65529 21.81495
#
# Velocity S-wave (km/s) = 4.40053 2.34590 3.52618
# Velocity P-wave (km/s) = 7.67613 7.03603 7.36304
#
# Compressibility (1/GPa) = 0.01721796
#
# Stress axis : x y z
#
# Youngs Moduli (GPa) = 45.09459 72.25424 117.31615
#
# Poissons Ratio (x) = 0.35444 0.63810
# Poissons Ratio (y) = 0.22121 0.38904
# Poissons Ratio (z) = 0.24528 0.23961
#
# Static dielectric constant tensor:
#      x y z
#    x 3.300520 0.000000 0.000000 
#    y 0.000000 3.150590 0.000000 
#    z 0.000000 0.000000 4.229540 
# 
# 
# High freq. dielectric constant tensor:
#      x y z
#    x 1.681580 0.000000 0.000000 
#    y 0.000000 1.650050 0.000000 
#    z 0.000000 0.000000 1.699390 
# 
# From -- ./inp_files/43697.got.cif
#   From: 2010.03.12/outbox.cif.g09.slc.cpg/sg67_22_cif.got.tgz:43697.got - 2010.04.10 22:41:39.
