data_PCOD8279376
_publ_section_title
;
Structure prediction by ZEFSAII (Michael W. Deem and Ramdas Pophale) SiO2 
 PCOD8279376
Probable space group: C M M A
;
_chemical_formula_sum "Si O2"
_cell_formula_units_Z 88
_cell_length_a 27.286819
_cell_length_b 14.812909
_cell_length_c 11.445326
_cell_angle_alpha 90.000000
_cell_angle_beta 90.000000
_cell_angle_gamma 90.000000
_cell_volume 4626.168342
_symmetry_space_group_name_H-M "C M M A"
_symmetry_group_IT_number 67
_symmetry_cell_setting 'orthorhombic'
loop_
_space_group_symop_operation_xyz
x,y,z
-x,1/2-y,z
x,-y,-z
-x,1/2+y,-z
-x,-y,-z
x,1/2+y,-z
-x,y,z
x,1/2-y,z
1/2+x,1/2+y,z
1/2-x,-y,z
1/2+x,1/2-y,-z
1/2-x,y,-z
1/2-x,1/2-y,-z
1/2+x,y,-z
1/2-x,1/2+y,z
1/2+x,-y,z
loop_
_atom_site_type_symbol
_atom_site_label
_atom_site_fract_x
_atom_site_fract_y
_atom_site_fract_z
Si Si1 0.347165 0.407434 0.638463
Si Si2 0.625777 0.750000 0.948255
Si Si3 0.797600 0.593616 0.418111
Si Si4 0.183366 0.750000 0.810333
Si Si5 0.710606 0.750000 0.763315
Si Si6 0.554547 0.645999 0.280919
Si Si7 0.055370 0.601846 0.988801
O O1 0.317367 0.501947 0.643834
O O2 0.338956 0.368152 0.507438
O O3 0.328293 0.340090 0.737952
O O4 0.405832 0.418975 0.656598
O O5 0.662849 0.750000 0.841462
O O6 0.653539 0.750000 0.070811
O O7 0.591697 0.837810 0.934026
O O8 0.750000 0.577717 0.500000
O O9 0.786702 0.662329 0.316593
O O10 0.240856 0.750000 0.842902
O O11 0.500000 0.620147 0.325168
O O12 0.567157 0.750000 0.310927
O O13 0.557443 0.635679 0.142740
O O14 0.000000 0.610353 0.038305
O O15 0.074339 0.500000 0.000000
#
# Coordination Sequence:
#
# PCOD8279376 Si02
#       7
#    16   8  16   8   8  16  16
#     4  11  20  37  66  92 115 152 205 258 300 353
#     4  12  24  39  58  93 128 158 197 248 310 369
#     4  11  24  41  61  89 115 159 214 254 297 360
#     4  12  22  39  63  86 125 156 195 253 309 362
#     4  12  27  39  60  84 128 162 201 252 309 361
#     4  10  19  35  61  93 122 155 201 251 300 363
#     4  10  20  36  62  88 118 163 205 244 294 360
#
# _framework density 19.022221999999999
#
# number of rings (size 3 to 8) (size 9 to 14) (size 15 to 20)
#    0.000    1.091    5.455    2.455    2.545    0.000 
#    0.000    1.818    0.000    5.455    0.000    0.000 
#    0.000    0.000    0.000    0.000    0.000    0.000 
#
# Total GULP energy -545303.220678 kJ/mol
# GULP energy per Si atom -12393.255015 kJ/mol
# Density = 1.897893 g / cm^3
# Si number density = 19.022222 Si / 1000 Ang^3
#
#
#
# Elastic Constant Matrix: (Units=GPa)
#
#
# Indices 1 2 3 4 5 6 
#
# 1 154.8447 72.8486 37.9059 0.0000 0.0000 0.0000
# 2 72.8486 123.0507 35.7338 0.0000 0.0000 0.0000
# 3 37.9059 35.7338 56.5493 0.0000 0.0000 0.0000
# 4 0.0000 0.0000 0.0000 -2.1838 0.0000 0.0000
# 5 0.0000 0.0000 0.0000 0.0000 8.3511 0.0000
# 6 0.0000 0.0000 0.0000 0.0000 0.0000 24.9628
#
#
#
# Elastic Compliance Matrix: (Units=1/GPa)
#
#
# Indices 1 2 3 4 5 6 
#
# 1 0.009466 -0.004607 -0.003434 0.000000 0.000000 0.000000
# 2 -0.004607 0.012195 -0.004618 0.000000 0.000000 0.000000
# 3 -0.003434 -0.004618 0.022904 0.000000 0.000000 0.000000
# 4 0.000000 0.000000 0.000000 -0.457924 0.000000 0.000000
# 5 0.000000 0.000000 0.000000 0.000000 0.119744 0.000000
# 6 0.000000 0.000000 0.000000 0.000000 0.000000 0.040060
#
#
# Mechanical properties :
#
#
# Convention : Reuss Voigt Hill
#
# Bulk Modulus (GPa) = 51.95668 69.71351 60.83510
# Shear Modulus (GPa) = -22.54066 18.75647 -1.89210
#
# Velocity S-wave (km/s) = -3.44607 3.14352 -0.99842
# Velocity P-wave (km/s) = 3.39693 7.06425 5.54269
#
# Compressibility (1/GPa) = 0.01924680
#
# Stress axis : x y z
#
# Youngs Moduli (GPa) = 105.63984 81.99952 43.66066
#
# Poissons Ratio (x) = 0.37776 0.14994
# Poissons Ratio (y) = 0.48667 0.20163
# Poissons Ratio (z) = 0.36279 0.37869
#
# Static dielectric constant tensor:
#      x y z
#    x 4.047410 0.000000 0.000000 
#    y 0.000000 3.565470 0.000000 
#    z 0.000000 0.000000 3.357960 
# 
# 
# High freq. dielectric constant tensor:
#      x y z
#    x 1.760560 0.000000 0.000000 
#    y 0.000000 1.741800 0.000000 
#    z 0.000000 0.000000 1.709420 
# 
# From -- ./inp_files/22857.got.cif
#   From: 2010.03.12/outbox.cif.g09.slc.cpg/sg67_12_cif.got.tgz:22857.got - 2010.04.10 22:41:39.
