data_PCOD8279601
_publ_section_title
;
Structure prediction by ZEFSAII (Michael W. Deem and Ramdas Pophale) SiO2 
 PCOD8279601
Probable space group: C M M A
;
_chemical_formula_sum "Si O2"
_cell_formula_units_Z 104
_cell_length_a 30.204993
_cell_length_b 9.256235
_cell_length_c 22.895879
_cell_angle_alpha 90.000000
_cell_angle_beta 90.000000
_cell_angle_gamma 90.000000
_cell_volume 6401.333189
_symmetry_space_group_name_H-M "C M M A"
_symmetry_group_IT_number 67
_symmetry_cell_setting 'orthorhombic'
loop_
_space_group_symop_operation_xyz
x,y,z
-x,1/2-y,z
x,-y,-z
-x,1/2+y,-z
-x,-y,-z
x,1/2+y,-z
-x,y,z
x,1/2-y,z
1/2+x,1/2+y,z
1/2-x,-y,z
1/2+x,1/2-y,-z
1/2-x,y,-z
1/2-x,1/2-y,-z
1/2+x,y,-z
1/2-x,1/2+y,z
1/2+x,-y,z
loop_
_atom_site_type_symbol
_atom_site_label
_atom_site_fract_x
_atom_site_fract_y
_atom_site_fract_z
Si Si1 0.050678 0.083112 0.330476
Si Si2 0.613120 0.584326 0.222211
Si Si3 0.907424 0.418295 0.890486
Si Si4 0.000000 0.913048 0.057857
Si Si5 0.291980 0.585927 0.182540
Si Si6 0.947534 0.911969 0.445206
Si Si7 0.329254 0.921857 0.057036
O O1 0.052906 0.250000 0.348743
O O2 0.086634 0.047582 0.280884
O O3 0.000000 0.044635 0.310870
O O4 0.066161 0.989728 0.385466
O O5 0.603491 0.750000 0.202318
O O6 0.596958 0.469860 0.175499
O O7 0.666458 0.563682 0.226586
O O8 0.894270 0.250000 0.896229
O O9 0.957980 0.450544 0.903568
O O10 0.878345 0.512983 0.935187
O O11 0.000000 0.750000 0.037037
O O12 0.000000 0.000000 0.000000
O O13 0.277010 0.750000 0.180968
O O14 0.250000 0.500000 0.207134
O O15 0.302992 0.536277 0.116041
O O16 0.927866 0.750000 0.445439
O O17 0.000000 0.906787 0.450840
O O18 0.927437 0.000000 0.500000
O O19 0.331461 0.750000 0.047355
O O20 0.307618 0.000000 0.000000
#
# Coordination Sequence:
#
# PCOD8279601 Si02
#       7
#    16  16  16   8  16  16  16
#     4   9  17  29  46  68  95 128 163 194 227 268
#     4   9  19  34  49  69  94 120 153 191 230 271
#     4  10  20  33  47  64  87 116 149 186 228 271
#     4  10  22  34  44  62  84 110 147 188 225 266
#     4   9  19  34  50  68  91 116 146 185 229 279
#     4   9  16  26  41  63  93 129 166 200 232 263
#     4  10  20  34  50  69  90 111 139 179 226 280
#
# _framework density 16.246616
#
# number of rings (size 3 to 8) (size 9 to 14) (size 15 to 20)
#    0.000    2.615    0.000    2.769    1.077    8.308 
#    0.000    1.538    0.000    0.000    0.000    0.000 
#    0.000    0.615    0.000    7.077    0.000    2.462 
#
# Total GULP energy -644570.191853 kJ/mol
# GULP energy per Si atom -12395.580613 kJ/mol
# Density = 1.620964 g / cm^3
# Si number density = 16.246616 Si / 1000 Ang^3
#
#
#
# Elastic Constant Matrix: (Units=GPa)
#
#
# Indices 1 2 3 4 5 6 
#
# 1 82.6682 35.6994 35.6221 0.0000 0.0000 0.0000
# 2 35.6994 73.7548 41.6224 0.0000 0.0000 0.0000
# 3 35.6221 41.6224 88.2976 0.0000 0.0000 0.0000
# 4 0.0000 0.0000 0.0000 28.4738 0.0000 0.0000
# 5 0.0000 0.0000 0.0000 0.0000 11.4456 0.0000
# 6 0.0000 0.0000 0.0000 0.0000 0.0000 23.7433
#
#
#
# Elastic Compliance Matrix: (Units=1/GPa)
#
#
# Indices 1 2 3 4 5 6 
#
# 1 0.016209 -0.005661 -0.003871 0.000000 0.000000 0.000000
# 2 -0.005661 0.020450 -0.007356 0.000000 0.000000 0.000000
# 3 -0.003871 -0.007356 0.016354 0.000000 0.000000 0.000000
# 4 0.000000 0.000000 0.000000 0.035120 0.000000 0.000000
# 5 0.000000 0.000000 0.000000 0.000000 0.087370 0.000000
# 6 0.000000 0.000000 0.000000 0.000000 0.000000 0.042117
#
#
# Mechanical properties :
#
#
# Convention : Reuss Voigt Hill
#
# Bulk Modulus (GPa) = 51.98116 52.28980 52.13548
# Shear Modulus (GPa) = 19.39424 21.51767 20.45595
#
# Velocity S-wave (km/s) = 3.45880 3.64323 3.55222
# Velocity P-wave (km/s) = 6.92933 7.06770 6.99886
#
# Compressibility (1/GPa) = 0.01923774
#
# Stress axis : x y z
#
# Youngs Moduli (GPa) = 61.69326 48.90013 61.14604
#
# Poissons Ratio (x) = 0.27684 0.23667
# Poissons Ratio (y) = 0.34927 0.44978
# Poissons Ratio (z) = 0.23879 0.35970
#
# Static dielectric constant tensor:
#      x y z
#    x 2.992110 0.000000 0.000000 
#    y 0.000000 3.202260 0.000000 
#    z 0.000000 0.000000 2.904860 
# 
# 
# High freq. dielectric constant tensor:
#      x y z
#    x 1.600310 0.000000 0.000000 
#    y 0.000000 1.637370 0.000000 
#    z 0.000000 0.000000 1.604950 
# 
# From -- ./inp_files/42925.got.cif
#   From: 2010.03.12/outbox.cif.g09.slc.cpg/sg67_22_cif.got.tgz:42925.got - 2010.04.10 22:41:39.
