data_PCOD8279973
_publ_section_title
;
Structure prediction by ZEFSAII (Michael W. Deem and Ramdas Pophale) SiO2 
 PCOD8279973
Probable space group: C M M A
;
_chemical_formula_sum "Si O2"
_cell_formula_units_Z 96
_cell_length_a 8.926499
_cell_length_b 18.082525
_cell_length_c 30.840797
_cell_angle_alpha 90.000000
_cell_angle_beta 90.000000
_cell_angle_gamma 90.000000
_cell_volume 4978.125345
_symmetry_space_group_name_H-M "C M M A"
_symmetry_group_IT_number 67
_symmetry_cell_setting 'orthorhombic'
loop_
_space_group_symop_operation_xyz
x,y,z
-x,1/2-y,z
x,-y,-z
-x,1/2+y,-z
-x,-y,-z
x,1/2+y,-z
-x,y,z
x,1/2-y,z
1/2+x,1/2+y,z
1/2-x,-y,z
1/2+x,1/2-y,-z
1/2-x,y,-z
1/2-x,1/2-y,-z
1/2+x,y,-z
1/2-x,1/2+y,z
1/2+x,-y,z
loop_
_atom_site_type_symbol
_atom_site_label
_atom_site_fract_x
_atom_site_fract_y
_atom_site_fract_z
Si Si1 0.823343 0.334284 0.043972
Si Si2 0.824384 0.163935 0.369499
Si Si3 0.175825 0.921430 0.291233
Si Si4 0.676707 0.079037 0.871834
Si Si5 0.331288 0.837906 0.542597
Si Si6 0.171839 0.336228 0.795914
O O1 0.771418 0.250000 0.052580
O O2 0.765528 0.384195 0.083592
O O3 0.000000 0.339160 0.038878
O O4 0.750000 0.365251 0.000000
O O5 0.787703 0.250000 0.361998
O O6 0.743931 0.117150 0.332960
O O7 0.760936 0.136181 0.415449
O O8 0.000000 0.148222 0.368420
O O9 0.213705 0.871633 0.249884
O O10 0.000000 0.931344 0.298298
O O11 0.250000 0.000000 0.283195
O O12 0.500000 0.069542 0.872213
O O13 0.720776 0.131469 0.832412
O O14 0.750000 0.000000 0.865531
O O15 0.500000 0.869389 0.545063
O O16 0.334446 0.750000 0.539968
O O17 0.250000 0.870491 0.500000
O O18 0.204027 0.250000 0.791907
O O19 0.000000 0.352912 0.808459
#
# Coordination Sequence:
#
# PCOD8279973 Si02
#       6
#    16  16  16  16  16  16
#     4   9  19  36  57  81 109 144 187 233 280 330
#     4  10  20  34  54  81 111 144 185 230 276 328
#     4  11  23  39  58  81 111 145 182 225 274 328
#     4  11  23  38  57  83 116 151 188 230 277 330
#     4   9  16  27  46  74 108 144 182 227 277 325
#     4  10  22  40  62  87 113 143 182 227 276 331
#
# _framework density 19.284369000000002
#
# number of rings (size 3 to 8) (size 9 to 14) (size 15 to 20)
#    0.000    2.000    0.000    3.500    0.000    9.000 
#    0.000    3.333    0.000    0.500    0.000    3.500 
#    0.000    0.000    0.000    0.000    0.000    0.000 
#
# Total GULP energy -595395.516254 kJ/mol
# GULP energy per Si atom -12404.073255 kJ/mol
# Density = 1.924048 g / cm^3
# Si number density = 19.284369 Si / 1000 Ang^3
#
#
#
# Elastic Constant Matrix: (Units=GPa)
#
#
# Indices 1 2 3 4 5 6 
#
# 1 88.4094 45.7478 57.1666 0.0000 0.0000 0.0000
# 2 45.7478 96.0101 67.3977 0.0000 0.0000 0.0000
# 3 57.1666 67.3977 149.8229 0.0000 0.0000 0.0000
# 4 0.0000 0.0000 0.0000 -11.3806 0.0000 0.0000
# 5 0.0000 0.0000 0.0000 0.0000 39.5320 0.0000
# 6 0.0000 0.0000 0.0000 0.0000 0.0000 26.1410
#
#
#
# Elastic Compliance Matrix: (Units=1/GPa)
#
#
# Indices 1 2 3 4 5 6 
#
# 1 0.016532 -0.005041 -0.004040 0.000000 0.000000 0.000000
# 2 -0.005041 0.016760 -0.005616 0.000000 0.000000 0.000000
# 3 -0.004040 -0.005616 0.010742 0.000000 0.000000 0.000000
# 4 0.000000 0.000000 0.000000 -0.087869 0.000000 0.000000
# 5 0.000000 0.000000 0.000000 0.000000 0.025296 0.000000
# 6 0.000000 0.000000 0.000000 0.000000 0.000000 0.038254
#
#
# Mechanical properties :
#
#
# Convention : Reuss Voigt Hill
#
# Bulk Modulus (GPa) = 68.30691 74.98517 71.64604
# Shear Modulus (GPa) = 92.60997 21.78718 57.19858
#
# Velocity S-wave (km/s) = 6.93741 3.36487 5.45206
# Velocity P-wave (km/s) = 9.98338 7.35288 8.76735
#
# Compressibility (1/GPa) = 0.01463981
#
# Stress axis : x y z
#
# Youngs Moduli (GPa) = 60.48857 59.66613 93.08860
#
# Poissons Ratio (x) = 0.30079 0.37610
# Poissons Ratio (y) = 0.30493 0.52278
# Poissons Ratio (z) = 0.24439 0.33508
#
# Static dielectric constant tensor:
#      x y z
#    x 3.606000 0.000000 0.000000 
#    y 0.000000 2.745530 0.000000 
#    z 0.000000 0.000000 3.728020 
# 
# 
# High freq. dielectric constant tensor:
#      x y z
#    x 1.758650 0.000000 0.000000 
#    y 0.000000 1.734290 0.000000 
#    z 0.000000 0.000000 1.767530 
# 
# From -- ./inp_files/43487.got.cif
#   From: 2010.03.12/outbox.cif.g09.slc.cpg/sg67_22_cif.got.tgz:43487.got - 2010.04.10 22:41:39.
