data_PCOD8279685
_publ_section_title
;
Structure prediction by ZEFSAII (Michael W. Deem and Ramdas Pophale) SiO2 
 PCOD8279685
Probable space group: C M M A
;
_chemical_formula_sum "Si O2"
_cell_formula_units_Z 96
_cell_length_a 9.259415
_cell_length_b 18.186297
_cell_length_c 31.036988
_cell_angle_alpha 90.000000
_cell_angle_beta 90.000000
_cell_angle_gamma 90.000000
_cell_volume 5226.457183
_symmetry_space_group_name_H-M "C M M A"
_symmetry_group_IT_number 67
_symmetry_cell_setting 'orthorhombic'
loop_
_space_group_symop_operation_xyz
x,y,z
-x,1/2-y,z
x,-y,-z
-x,1/2+y,-z
-x,-y,-z
x,1/2+y,-z
-x,y,z
x,1/2-y,z
1/2+x,1/2+y,z
1/2-x,-y,z
1/2+x,1/2-y,-z
1/2-x,y,-z
1/2-x,1/2-y,-z
1/2+x,y,-z
1/2-x,1/2+y,z
1/2+x,-y,z
loop_
_atom_site_type_symbol
_atom_site_label
_atom_site_fract_x
_atom_site_fract_y
_atom_site_fract_z
Si Si1 0.667152 0.664979 0.875618
Si Si2 0.670249 0.923270 0.790669
Si Si3 0.828571 0.667713 0.291392
Si Si4 0.663158 0.162410 0.959035
Si Si5 0.329104 0.923160 0.626139
Si Si6 0.831414 0.665666 0.457793
O O1 0.500000 0.654037 0.887506
O O2 0.700759 0.750000 0.865880
O O3 0.712790 0.619413 0.833906
O O4 0.760420 0.634701 0.915495
O O5 0.500000 0.936879 0.787542
O O6 0.727186 0.875451 0.750537
O O7 0.750000 0.000000 0.790030
O O8 0.763091 0.750000 0.291151
O O9 0.775079 0.626114 0.334055
O O10 0.000000 0.672464 0.290822
O O11 0.500000 0.132018 0.960307
O O12 0.664775 0.250000 0.960466
O O13 0.750000 0.130625 0.000000
O O14 0.500000 0.935817 0.627879
O O15 0.281213 0.882465 0.582594
O O16 0.250000 0.000000 0.628851
O O17 0.789714 0.750000 0.448069
O O18 0.750000 0.636068 0.500000
O O19 0.000000 0.657168 0.466491
#
# Coordination Sequence:
#
# PCOD8279685 Si02
#       6
#    16  16  16  16  16  16
#     4   9  17  30  48  70  96 127 165 204 239 282
#     4  10  20  33  51  74 100 130 162 199 244 292
#     4   9  17  32  55  78  98 126 167 208 243 286
#     4   9  16  26  43  69  99 129 161 200 246 291
#     4  10  20  33  51  75 103 133 165 204 249 298
#     4   9  18  33  52  73  97 129 170 212 252 294
#
# _framework density 18.368084
#
# number of rings (size 3 to 8) (size 9 to 14) (size 15 to 20)
#    0.000    2.667    0.000    2.000    0.000    7.667 
#    0.000    1.667    0.000    4.500    0.000    3.500 
#    0.000    0.000    0.000    0.000    0.000    0.000 
#
# Total GULP energy -595263.607512 kJ/mol
# GULP energy per Si atom -12401.325157 kJ/mol
# Density = 1.832628 g / cm^3
# Si number density = 18.368084 Si / 1000 Ang^3
#
#
#
# Elastic Constant Matrix: (Units=GPa)
#
#
# Indices 1 2 3 4 5 6 
#
# 1 56.9752 43.7443 65.6704 0.0000 0.0000 0.0000
# 2 43.7443 121.7024 90.6092 0.0000 0.0000 0.0000
# 3 65.6704 90.6092 200.3488 0.0000 0.0000 0.0000
# 4 0.0000 0.0000 0.0000 8.0686 0.0000 0.0000
# 5 0.0000 0.0000 0.0000 0.0000 25.6302 0.0000
# 6 0.0000 0.0000 0.0000 0.0000 0.0000 27.4301
#
#
#
# Elastic Compliance Matrix: (Units=1/GPa)
#
#
# Indices 1 2 3 4 5 6 
#
# 1 0.030297 -0.005271 -0.007547 0.000000 0.000000 0.000000
# 2 -0.005271 0.013305 -0.004290 0.000000 0.000000 0.000000
# 3 -0.007547 -0.004290 0.009405 0.000000 0.000000 0.000000
# 4 0.000000 0.000000 0.000000 0.123937 0.000000 0.000000
# 5 0.000000 0.000000 0.000000 0.000000 0.039017 0.000000
# 6 0.000000 0.000000 0.000000 0.000000 0.000000 0.036456
#
#
# Mechanical properties :
#
#
# Convention : Reuss Voigt Hill
#
# Bulk Modulus (GPa) = 53.21383 86.56379 69.88881
# Shear Modulus (GPa) = 17.07091 24.15927 20.61509
#
# Velocity S-wave (km/s) = 3.05188 3.63062 3.35376
# Velocity P-wave (km/s) = 6.43835 8.05014 7.28893
#
# Compressibility (1/GPa) = 0.01879211
#
# Stress axis : x y z
#
# Youngs Moduli (GPa) = 33.00624 75.15963 106.32643
#
# Poissons Ratio (x) = 0.39618 0.80244
# Poissons Ratio (y) = 0.17398 0.45609
# Poissons Ratio (z) = 0.24910 0.32240
#
# Static dielectric constant tensor:
#      x y z
#    x 3.191530 0.000000 0.000000 
#    y 0.000000 3.232250 0.000000 
#    z 0.000000 0.000000 3.639360 
# 
# 
# High freq. dielectric constant tensor:
#      x y z
#    x 1.689010 0.000000 0.000000 
#    y 0.000000 1.696380 0.000000 
#    z 0.000000 0.000000 1.731440 
# 
# From -- ./inp_files/43468.got.cif
#   From: 2010.03.12/outbox.cif.g09.slc.cpg/sg67_22_cif.got.tgz:43468.got - 2010.04.10 22:41:39.
