data_PCOD8279653
_publ_section_title
;
Structure prediction by ZEFSAII (Michael W. Deem and Ramdas Pophale) SiO2 
 PCOD8279653
Probable space group: C M M A
;
_chemical_formula_sum "Si O2"
_cell_formula_units_Z 96
_cell_length_a 18.203837
_cell_length_b 17.625427
_cell_length_c 15.715466
_cell_angle_alpha 90.000000
_cell_angle_beta 90.000000
_cell_angle_gamma 90.000000
_cell_volume 5042.313555
_symmetry_space_group_name_H-M "C M M A"
_symmetry_group_IT_number 67
_symmetry_cell_setting 'orthorhombic'
loop_
_space_group_symop_operation_xyz
x,y,z
-x,1/2-y,z
x,-y,-z
-x,1/2+y,-z
-x,-y,-z
x,1/2+y,-z
-x,y,z
x,1/2-y,z
1/2+x,1/2+y,z
1/2-x,-y,z
1/2+x,1/2-y,-z
1/2-x,y,-z
1/2-x,1/2-y,-z
1/2+x,y,-z
1/2-x,1/2+y,z
1/2+x,-y,z
loop_
_atom_site_type_symbol
_atom_site_label
_atom_site_fract_x
_atom_site_fract_y
_atom_site_fract_z
Si Si1 0.584487 0.088631 0.495609
Si Si2 0.324998 0.339893 0.645992
Si Si3 0.917347 0.659133 0.803847
Si Si4 0.417815 0.840479 0.831901
Si Si5 0.087288 0.333162 0.013664
Si Si6 0.658053 0.339901 0.337986
O O1 0.500000 0.107780 0.516097
O O2 0.635920 0.130271 0.562463
O O3 0.603515 0.118547 0.402179
O O4 0.600161 0.000000 0.500000
O O5 0.330335 0.250000 0.645486
O O6 0.364095 0.372779 0.730584
O O7 0.240931 0.366847 0.644933
O O8 0.915327 0.750000 0.808088
O O9 0.000000 0.631589 0.782713
O O10 0.890866 0.626049 0.896667
O O11 0.500000 0.870000 0.810957
O O12 0.419065 0.750000 0.839842
O O13 0.390070 0.874112 0.924166
O O14 0.363446 0.866492 0.757138
O O15 0.124121 0.250000 0.014416
O O16 0.000000 0.324667 0.013228
O O17 0.648778 0.250000 0.349187
#
# Coordination Sequence:
#
# PCOD8279653 Si02
#       6
#    16  16  16  16  16  16
#     4  11  24  39  54  72  92 119 160 205 246 290
#     4  10  20  33  50  74 102 130 160 194 236 288
#     4   8  13  23  41  65  94 128 163 197 232 271
#     4   8  13  23  41  65  94 128 163 197 232 271
#     4   7  10  18  35  61  92 125 160 195 230 268
#     4  10  20  33  50  74 102 130 160 194 236 288
#
# _framework density 19.038879999999999
#
# number of rings (size 3 to 8) (size 9 to 14) (size 15 to 20)
#    0.000    3.000    0.000    4.000    0.000    5.333 
#    0.000    0.833    0.000    5.000    0.000    1.167 
#    0.000    9.333    0.000    0.000    0.000    0.000 
#
# Total GULP energy -594705.795613 kJ/mol
# GULP energy per Si atom -12389.704075 kJ/mol
# Density = 1.899555 g / cm^3
# Si number density = 19.038880 Si / 1000 Ang^3
#
#
#
# Elastic Constant Matrix: (Units=GPa)
#
#
# Indices 1 2 3 4 5 6 
#
# 1 61.1018 8.4878 18.7917 0.0000 0.0000 0.0000
# 2 8.4878 12.2281 5.9841 0.0000 0.0000 0.0000
# 3 18.7917 5.9841 121.0557 0.0000 0.0000 0.0000
# 4 0.0000 0.0000 0.0000 -1.9010 0.0000 0.0000
# 5 0.0000 0.0000 0.0000 0.0000 12.2633 0.0000
# 6 0.0000 0.0000 0.0000 0.0000 0.0000 -8.4993
#
#
#
# Elastic Compliance Matrix: (Units=1/GPa)
#
#
# Indices 1 2 3 4 5 6 
#
# 1 0.018728 -0.011864 -0.002321 0.000000 0.000000 0.000000
# 2 -0.011864 0.091322 -0.002673 0.000000 0.000000 0.000000
# 3 -0.002321 -0.002673 0.008753 0.000000 0.000000 0.000000
# 4 0.000000 0.000000 0.000000 -0.526036 0.000000 0.000000
# 5 0.000000 0.000000 0.000000 0.000000 0.081544 0.000000
# 6 0.000000 0.000000 0.000000 0.000000 0.000000 -0.117656
#
#
# Mechanical properties :
#
#
# Convention : Reuss Voigt Hill
#
# Bulk Modulus (GPa) = 11.75249 28.99031 20.37140
# Shear Modulus (GPa) = -13.11412 11.11406 -1.00003
#
# Velocity S-wave (km/s) = -2.62736 2.41873 -0.72553
# Velocity P-wave (km/s) = 1.73717 4.80211 3.16564
#
# Compressibility (1/GPa) = 0.08508839
#
# Stress axis : x y z
#
# Youngs Moduli (GPa) = 53.39635 10.95029 114.24624
#
# Poissons Ratio (x) = 0.12991 0.26513
# Poissons Ratio (y) = 0.63348 0.30534
# Poissons Ratio (z) = 0.12392 0.02927
#
# Static dielectric constant tensor:
#      x y z
#    x 3.414720 0.000000 0.000000 
#    y 0.000000 2.864100 0.000000 
#    z 0.000000 0.000000 4.042860 
# 
# 
# High freq. dielectric constant tensor:
#      x y z
#    x 1.721790 0.000000 0.000000 
#    y 0.000000 1.669200 0.000000 
#    z 0.000000 0.000000 1.771400 
# 
# From -- ./inp_files/29267.got.cif
#   From: 2010.03.12/outbox.cif.g09.slc.cpg/sg67_15_cif.got.tgz:29267.got - 2010.04.10 22:41:39.
