data_PCOD8279732
_publ_section_title
;
Structure prediction by ZEFSAII (Michael W. Deem and Ramdas Pophale) SiO2 
 PCOD8279732
Probable space group: C M M A
;
_chemical_formula_sum "Si O2"
_cell_formula_units_Z 68
_cell_length_a 27.892071
_cell_length_b 9.587741
_cell_length_c 14.754477
_cell_angle_alpha 90.000000
_cell_angle_beta 90.000000
_cell_angle_gamma 90.000000
_cell_volume 3945.671050
_symmetry_space_group_name_H-M "C M M A"
_symmetry_group_IT_number 67
_symmetry_cell_setting 'orthorhombic'
loop_
_space_group_symop_operation_xyz
x,y,z
-x,1/2-y,z
x,-y,-z
-x,1/2+y,-z
-x,-y,-z
x,1/2+y,-z
-x,y,z
x,1/2-y,z
1/2+x,1/2+y,z
1/2-x,-y,z
1/2+x,1/2-y,-z
1/2-x,y,-z
1/2-x,1/2-y,-z
1/2+x,y,-z
1/2-x,1/2+y,z
1/2+x,-y,z
loop_
_atom_site_type_symbol
_atom_site_label
_atom_site_fract_x
_atom_site_fract_y
_atom_site_fract_z
Si Si1 0.792805 0.409745 0.822695
Si Si2 0.945482 0.087704 0.411881
Si Si3 0.946098 0.094466 0.075769
Si Si4 0.250000 0.000000 0.000000
Si Si5 0.380230 0.091607 0.755729
O O1 0.791753 0.250000 0.789429
O O2 0.750000 0.500000 0.777220
O O3 0.840824 0.481001 0.786744
O O4 0.785361 0.411586 0.933120
O O5 0.941282 0.250000 0.436015
O O6 0.905786 0.046418 0.337304
O O7 0.000000 0.053500 0.379202
O O8 0.932048 0.000000 0.500000
O O9 0.944720 0.250000 0.036986
O O10 0.921733 0.084671 0.171621
O O11 0.000000 0.040607 0.091098
O O12 0.919930 0.000000 0.000000
O O13 0.359119 0.250000 0.750239
#
# Coordination Sequence:
#
# PCOD8279732 Si02
#       5
#    16  16  16   4  16
#     4  10  21  35  53  75 103 135 173 218 262 310
#     4   9  18  34  56  81 109 142 178 219 267 318
#     4   9  18  31  45  65  97 136 173 207 246 299
#     4   8  22  36  54  72 102 136 178 224 266 312
#     4  10  20  33  52  76 104 138 175 216 265 316
#
# _framework density 17.234076999999999
#
# number of rings (size 3 to 8) (size 9 to 14) (size 15 to 20)
#    0.706    1.882    0.000    1.765    1.647    4.706 
#    0.000    0.000    0.000    7.765    0.000    4.941 
#    0.000    0.000    0.000    0.000    0.000    0.000 
#
# Total GULP energy -421243.123620 kJ/mol
# GULP energy per Si atom -12389.503636 kJ/mol
# Density = 1.719485 g / cm^3
# Si number density = 17.234077 Si / 1000 Ang^3
#
#
#
# Elastic Constant Matrix: (Units=GPa)
#
#
# Indices 1 2 3 4 5 6 
#
# 1 87.2475 58.9603 47.9413 0.0000 0.0000 0.0000
# 2 58.9603 113.1997 53.3235 0.0000 0.0000 0.0000
# 3 47.9413 53.3235 94.9511 0.0000 0.0000 0.0000
# 4 0.0000 0.0000 0.0000 20.0328 0.0000 0.0000
# 5 0.0000 0.0000 0.0000 0.0000 36.9436 0.0000
# 6 0.0000 0.0000 0.0000 0.0000 0.0000 -0.7140
#
#
#
# Elastic Compliance Matrix: (Units=1/GPa)
#
#
# Indices 1 2 3 4 5 6 
#
# 1 0.019719 -0.007588 -0.005695 0.000000 0.000000 0.000000
# 2 -0.007588 0.014931 -0.004554 0.000000 0.000000 0.000000
# 3 -0.005695 -0.004554 0.015965 0.000000 0.000000 0.000000
# 4 0.000000 0.000000 0.000000 0.049918 0.000000 0.000000
# 5 0.000000 0.000000 0.000000 0.000000 0.027068 0.000000
# 6 0.000000 0.000000 0.000000 0.000000 0.000000 -1.400495
#
#
# Mechanical properties :
#
#
# Convention : Reuss Voigt Hill
#
# Bulk Modulus (GPa) = 66.92986 68.42761 67.67873
# Shear Modulus (GPa) = -4.05765 20.26403 8.10319
#
# Velocity S-wave (km/s) = -1.53608 3.43273 2.17073
# Velocity P-wave (km/s) = 5.98114 7.45000 6.75561
#
# Compressibility (1/GPa) = 0.01494102
#
# Stress axis : x y z
#
# Youngs Moduli (GPa) = 50.71349 66.97305 62.63870
#
# Poissons Ratio (x) = 0.50819 0.35671
# Poissons Ratio (y) = 0.38481 0.28526
# Poissons Ratio (z) = 0.28880 0.30500
#
# Static dielectric constant tensor:
#      x y z
#    x 3.150830 0.000000 0.000000 
#    y 0.000000 3.332860 0.000000 
#    z 0.000000 0.000000 3.072740 
# 
# 
# High freq. dielectric constant tensor:
#      x y z
#    x 1.657290 0.000000 0.000000 
#    y 0.000000 1.666800 0.000000 
#    z 0.000000 0.000000 1.644370 
# 
# From -- ./inp_files/36045.got.cif
#   From: 2010.03.12/outbox.cif.g09.slc.cpg/sg67_19_cif.got.tgz:36045.got - 2010.04.10 22:41:39.
