data_PCOD8279037
_publ_section_title
;
Structure prediction by ZEFSAII (Michael W. Deem and Ramdas Pophale) SiO2 
 PCOD8279037
Probable space group: C M M A
;
_chemical_formula_sum "Si O2"
_cell_formula_units_Z 112
_cell_length_a 16.011051
_cell_length_b 19.687282
_cell_length_c 18.964315
_cell_angle_alpha 90.000000
_cell_angle_beta 90.000000
_cell_angle_gamma 90.000000
_cell_volume 5977.819033
_symmetry_space_group_name_H-M "C M M A"
_symmetry_group_IT_number 67
_symmetry_cell_setting 'orthorhombic'
loop_
_space_group_symop_operation_xyz
x,y,z
-x,1/2-y,z
x,-y,-z
-x,1/2+y,-z
-x,-y,-z
x,1/2+y,-z
-x,y,z
x,1/2-y,z
1/2+x,1/2+y,z
1/2-x,-y,z
1/2+x,1/2-y,-z
1/2-x,y,-z
1/2-x,1/2-y,-z
1/2+x,y,-z
1/2-x,1/2+y,z
1/2+x,-y,z
loop_
_atom_site_type_symbol
_atom_site_label
_atom_site_fract_x
_atom_site_fract_y
_atom_site_fract_z
Si Si1 0.092982 0.560451 0.671133
Si Si2 0.752954 0.919178 0.580338
Si Si3 0.840415 0.567535 0.966721
Si Si4 0.333386 0.831295 0.792413
Si Si5 0.305899 0.933731 0.196191
Si Si6 0.095025 0.324026 0.939549
Si Si7 0.092271 0.399810 0.661013
O O1 0.160086 0.599386 0.620488
O O2 0.114440 0.570234 0.753300
O O3 0.092845 0.480400 0.660239
O O4 0.000000 0.589948 0.655884
O O5 0.750000 0.894230 0.500000
O O6 0.673121 0.879876 0.614147
O O7 0.750000 0.000000 0.585566
O O8 0.838690 0.562874 0.883105
O O9 0.881335 0.500000 0.000000
O O10 0.750000 0.578106 0.000000
O O11 0.895795 0.630729 0.990796
O O12 0.330492 0.750000 0.782401
O O13 0.242920 0.864846 0.784522
O O14 0.359592 0.854038 0.870998
O O15 0.397373 0.865052 0.737346
O O16 0.250000 0.000000 0.214173
O O17 0.132253 0.250000 0.957923
O O18 0.000000 0.317709 0.917665
O O19 0.000000 0.376217 0.632227
#
# Coordination Sequence:
#
# PCOD8279037 Si02
#       7
#    16  16  16  16  16  16  16
#     4  10  20  33  55  83 112 149 186 221 272 330
#     4   9  17  32  54  82 118 148 176 223 270 318
#     4  11  21  34  53  78 102 138 182 231 280 327
#     4  11  21  34  56  81 106 142 182 228 281 331
#     4  12  19  36  58  77 111 146 186 231 277 330
#     4  10  22  38  53  74 106 141 179 228 283 336
#     4  10  19  32  53  82 112 144 178 220 273 325
#
# _framework density 18.735931000000001
#
# number of rings (size 3 to 8) (size 9 to 14) (size 15 to 20)
#    0.000    1.571    5.714    0.857    0.000    3.143 
#    0.000    2.857    0.000    0.857    0.000    0.000 
#    0.000    0.000    0.000    0.000    0.000    0.000 
#
# Total GULP energy -693954.240003 kJ/mol
# GULP energy per Si atom -12392.040000 kJ/mol
# Density = 1.869329 g / cm^3
# Si number density = 18.735931 Si / 1000 Ang^3
#
#
#
# Elastic Constant Matrix: (Units=GPa)
#
#
# Indices 1 2 3 4 5 6 
#
# 1 130.5801 26.4040 63.8913 0.0000 0.0000 0.0000
# 2 26.4040 49.9367 18.8407 0.0000 0.0000 0.0000
# 3 63.8913 18.8407 125.5445 0.0000 0.0000 0.0000
# 4 0.0000 0.0000 0.0000 12.2072 0.0000 0.0000
# 5 0.0000 0.0000 0.0000 0.0000 18.3857 0.0000
# 6 0.0000 0.0000 0.0000 0.0000 0.0000 -5.6867
#
#
#
# Elastic Compliance Matrix: (Units=1/GPa)
#
#
# Indices 1 2 3 4 5 6 
#
# 1 0.010862 -0.003877 -0.004946 0.000000 0.000000 0.000000
# 2 -0.003877 0.022611 -0.001420 0.000000 0.000000 0.000000
# 3 -0.004946 -0.001420 0.010696 0.000000 0.000000 0.000000
# 4 0.000000 0.000000 0.000000 0.081919 0.000000 0.000000
# 5 0.000000 0.000000 0.000000 0.000000 0.054390 0.000000
# 6 0.000000 0.000000 0.000000 0.000000 0.000000 -0.175847
#
#
# Mechanical properties :
#
#
# Convention : Reuss Voigt Hill
#
# Bulk Modulus (GPa) = 42.22597 58.25926 50.24262
# Shear Modulus (GPa) = 151.46173 18.10957 84.78565
#
# Velocity S-wave (km/s) = 9.00087 3.11234 6.73433
# Velocity P-wave (km/s) = 11.42836 6.63913 9.34573
#
# Compressibility (1/GPa) = 0.02368211
#
# Stress axis : x y z
#
# Youngs Moduli (GPa) = 92.06255 44.22575 93.49697
#
# Poissons Ratio (x) = 0.17148 0.46244
# Poissons Ratio (y) = 0.35695 0.13278
# Poissons Ratio (z) = 0.45535 0.06281
#
# Static dielectric constant tensor:
#      x y z
#    x 3.667290 0.000000 0.000000 
#    y 0.000000 3.282430 0.000000 
#    z 0.000000 0.000000 3.456590 
# 
# 
# High freq. dielectric constant tensor:
#      x y z
#    x 1.727310 0.000000 0.000000 
#    y 0.000000 1.692400 0.000000 
#    z 0.000000 0.000000 1.725460 
# 
# From -- ./inp_files/34413.got.cif
#   From: 2010.03.12/outbox.cif.g09.slc.cpg/sg67_18_cif.got.tgz:34413.got - 2010.04.10 22:41:39.
