data_PCOD8279377
_publ_section_title
;
Structure prediction by ZEFSAII (Michael W. Deem and Ramdas Pophale) SiO2 
 PCOD8279377
Probable space group: C M M A
;
_chemical_formula_sum "Si O2"
_cell_formula_units_Z 64
_cell_length_a 9.685822
_cell_length_b 15.308797
_cell_length_c 22.639700
_cell_angle_alpha 90.000000
_cell_angle_beta 90.000000
_cell_angle_gamma 90.000000
_cell_volume 3356.975839
_symmetry_space_group_name_H-M "C M M A"
_symmetry_group_IT_number 67
_symmetry_cell_setting 'orthorhombic'
loop_
_space_group_symop_operation_xyz
x,y,z
-x,1/2-y,z
x,-y,-z
-x,1/2+y,-z
-x,-y,-z
x,1/2+y,-z
-x,y,z
x,1/2-y,z
1/2+x,1/2+y,z
1/2-x,-y,z
1/2+x,1/2-y,-z
1/2-x,y,-z
1/2-x,1/2-y,-z
1/2+x,y,-z
1/2-x,1/2+y,z
1/2+x,-y,z
loop_
_atom_site_type_symbol
_atom_site_label
_atom_site_fract_x
_atom_site_fract_y
_atom_site_fract_z
Si Si1 0.330510 0.584105 0.560907
Si Si2 0.758861 0.097265 0.855150
Si Si3 0.664407 0.250000 0.229576
Si Si4 0.661423 0.750000 0.638253
Si Si5 0.500000 0.854664 0.938023
Si Si6 0.500000 0.648150 0.070950
O O1 0.500000 0.571771 0.553323
O O2 0.250000 0.500000 0.588071
O O3 0.250000 0.603894 0.500000
O O4 0.293212 0.663733 0.603522
O O5 0.779723 0.163044 0.801163
O O6 0.624703 0.117913 0.890674
O O7 0.872136 0.104125 0.905217
O O8 0.750000 0.000000 0.827992
O O9 0.500000 0.250000 0.226364
O O10 0.725017 0.250000 0.296040
O O11 0.500000 0.750000 0.645897
O O12 0.500000 0.750000 0.932388
O O13 0.500000 0.890755 0.004838
O O14 0.500000 0.750000 0.061510
#
# Coordination Sequence:
#
# PCOD8279377 Si02
#       6
#    16  16   8   8   8   8
#     4  10  19  35  61  93 127 158 193 238 289 338
#     4  12  23  38  62  84 112 150 190 239 295 349
#     4  11  22  44  61  80 114 157 204 237 283 350
#     4   9  21  37  61  84 115 161 205 240 278 339
#     4  11  21  41  61  86 109 157 184 225 300 370
#     4  11  23  37  61  86 123 137 182 247 298 352
#
# _framework density 19.064778
#
# number of rings (size 3 to 8) (size 9 to 14) (size 15 to 20)
#    0.000    1.250    3.750    3.375    0.000    6.000 
#    0.000    1.875   11.000    0.000    0.000    0.000 
#    0.000    0.000    0.000    0.000    0.000    0.000 
#
# Total GULP energy -396527.364255 kJ/mol
# GULP energy per Si atom -12391.480133 kJ/mol
# Density = 1.902139 g / cm^3
# Si number density = 19.064778 Si / 1000 Ang^3
#
#
#
# Elastic Constant Matrix: (Units=GPa)
#
#
# Indices 1 2 3 4 5 6 
#
# 1 133.6115 47.0549 56.4625 0.0000 0.0000 0.0000
# 2 47.0549 165.7117 95.5275 0.0000 0.0000 0.0000
# 3 56.4625 95.5275 141.1831 0.0000 0.0000 0.0000
# 4 0.0000 0.0000 0.0000 2.1606 0.0000 0.0000
# 5 0.0000 0.0000 0.0000 0.0000 128.8399 0.0000
# 6 0.0000 0.0000 0.0000 0.0000 0.0000 27.6462
#
#
#
# Elastic Compliance Matrix: (Units=1/GPa)
#
#
# Indices 1 2 3 4 5 6 
#
# 1 0.009070 -0.000794 -0.003090 0.000000 0.000000 0.000000
# 2 -0.000794 0.009963 -0.006424 0.000000 0.000000 0.000000
# 3 -0.003090 -0.006424 0.012665 0.000000 0.000000 0.000000
# 4 0.000000 0.000000 0.000000 0.462829 0.000000 0.000000
# 5 0.000000 0.000000 0.000000 0.000000 0.007762 0.000000
# 6 0.000000 0.000000 0.000000 0.000000 0.000000 0.036171
#
#
# Mechanical properties :
#
#
# Convention : Reuss Voigt Hill
#
# Bulk Modulus (GPa) = 90.23153 93.17733 91.70443
# Shear Modulus (GPa) = 8.88463 47.82678 28.35571
#
# Velocity S-wave (km/s) = 2.16110 5.01407 3.86078
# Velocity P-wave (km/s) = 7.32522 9.08303 8.25107
#
# Compressibility (1/GPa) = 0.01108260
#
# Stress axis : x y z
#
# Youngs Moduli (GPa) = 110.25574 100.37020 78.95743
#
# Poissons Ratio (x) = 0.07972 0.24397
# Poissons Ratio (y) = 0.08757 0.50719
# Poissons Ratio (z) = 0.34067 0.64474
#
# Static dielectric constant tensor:
#      x y z
#    x 3.589980 0.000000 0.000000 
#    y 0.000000 3.924710 0.000000 
#    z 0.000000 0.000000 3.642220 
# 
# 
# High freq. dielectric constant tensor:
#      x y z
#    x 1.746380 0.000000 0.000000 
#    y 0.000000 1.757120 0.000000 
#    z 0.000000 0.000000 1.735460 
# 
# From -- ./inp_files/40445.got.cif
#   From: 2010.03.12/outbox.cif.g09.slc.cpg/sg67_21_cif.got.tgz:40445.got - 2010.04.10 22:41:39.
