data_PCOD8279627
_publ_section_title
;
Structure prediction by ZEFSAII (Michael W. Deem and Ramdas Pophale) SiO2 
 PCOD8279627
Probable space group: C M M A
;
_chemical_formula_sum "Si O2"
_cell_formula_units_Z 80
_cell_length_a 9.397108
_cell_length_b 26.662543
_cell_length_c 18.524903
_cell_angle_alpha 90.000000
_cell_angle_beta 90.000000
_cell_angle_gamma 90.000000
_cell_volume 4641.429195
_symmetry_space_group_name_H-M "C M M A"
_symmetry_group_IT_number 67
_symmetry_cell_setting 'orthorhombic'
loop_
_space_group_symop_operation_xyz
x,y,z
-x,1/2-y,z
x,-y,-z
-x,1/2+y,-z
-x,-y,-z
x,1/2+y,-z
-x,y,z
x,1/2-y,z
1/2+x,1/2+y,z
1/2-x,-y,z
1/2+x,1/2-y,-z
1/2-x,y,-z
1/2-x,1/2-y,-z
1/2+x,y,-z
1/2-x,1/2+y,z
1/2+x,-y,z
loop_
_atom_site_type_symbol
_atom_site_label
_atom_site_fract_x
_atom_site_fract_y
_atom_site_fract_z
Si Si1 0.660247 0.309646 0.067027
Si Si2 0.000000 0.693973 0.392766
Si Si3 0.826395 0.948665 0.425588
Si Si4 0.158534 0.192678 0.202198
Si Si5 0.500000 0.189720 0.551674
Si Si6 0.732421 0.646751 0.346610
O O1 0.500000 0.331130 0.064316
O O2 0.659318 0.250000 0.062624
O O3 0.732676 0.326776 0.141687
O O4 0.750000 0.331823 0.000000
O O5 0.000000 0.665880 0.470604
O O6 0.132254 0.682436 0.342802
O O7 0.000000 0.750000 0.418730
O O8 0.750000 0.931762 0.500000
O O9 0.785182 0.909546 0.362724
O O10 0.000000 0.953951 0.433239
O O11 0.750000 0.000000 0.401275
O O12 0.193741 0.250000 0.226969
O O13 0.159859 0.153578 0.268920
O O14 0.000000 0.191337 0.168925
O O15 0.500000 0.250000 0.557225
O O16 0.362674 0.167231 0.589008
#
# Coordination Sequence:
#
# PCOD8279627 Si02
#       6
#    16   8  16  16   8  16
#     4   9  17  29  47  70  98 134 175 215 252 298
#     4  11  22  34  49  71 102 136 175 218 255 311
#     4  11  24  40  60  79  97 127 172 227 283 332
#     4  10  20  33  49  71 103 142 178 212 256 309
#     4  11  22  36  51  71 100 142 181 212 255 309
#     4  12  23  35  53  75 103 136 176 221 270 316
#
# _framework density 17.236070000000002
#
# number of rings (size 3 to 8) (size 9 to 14) (size 15 to 20)
#    0.000    1.400    2.000    5.400    4.200    4.000 
#    0.000    0.000    0.000    0.000    0.000    0.000 
#    0.000    0.800    0.000    5.600    0.000    1.800 
#
# Total GULP energy -495763.667934 kJ/mol
# GULP energy per Si atom -12394.091698 kJ/mol
# Density = 1.719684 g / cm^3
# Si number density = 17.236070 Si / 1000 Ang^3
#
#
#
# Elastic Constant Matrix: (Units=GPa)
#
#
# Indices 1 2 3 4 5 6 
#
# 1 130.2405 29.0940 30.9509 0.0000 0.0000 0.0000
# 2 29.0940 60.3241 26.4112 0.0000 0.0000 0.0000
# 3 30.9509 26.4112 81.4900 0.0000 0.0000 0.0000
# 4 0.0000 0.0000 0.0000 12.7548 0.0000 0.0000
# 5 0.0000 0.0000 0.0000 0.0000 30.6957 0.0000
# 6 0.0000 0.0000 0.0000 0.0000 0.0000 22.5090
#
#
#
# Elastic Compliance Matrix: (Units=1/GPa)
#
#
# Indices 1 2 3 4 5 6 
#
# 1 0.008971 -0.003304 -0.002337 0.000000 0.000000 0.000000
# 2 -0.003304 0.020535 -0.005401 0.000000 0.000000 0.000000
# 3 -0.002337 -0.005401 0.014909 0.000000 0.000000 0.000000
# 4 0.000000 0.000000 0.000000 0.078402 0.000000 0.000000
# 5 0.000000 0.000000 0.000000 0.000000 0.032578 0.000000
# 6 0.000000 0.000000 0.000000 0.000000 0.000000 0.044427
#
#
# Mechanical properties :
#
#
# Convention : Reuss Voigt Hill
#
# Bulk Modulus (GPa) = 44.77580 49.44075 47.10828
# Shear Modulus (GPa) = 21.80081 25.56512 23.68296
#
# Velocity S-wave (km/s) = 3.56031 3.85546 3.71082
# Velocity P-wave (km/s) = 6.55252 6.96894 6.76393
#
# Compressibility (1/GPa) = 0.02233349
#
# Stress axis : x y z
#
# Youngs Moduli (GPa) = 111.46492 48.69725 67.07214
#
# Poissons Ratio (x) = 0.16089 0.15673
# Poissons Ratio (y) = 0.36826 0.36223
# Poissons Ratio (z) = 0.26046 0.26300
#
# Static dielectric constant tensor:
#      x y z
#    x 3.552120 0.000000 0.000000 
#    y 0.000000 2.917390 0.000000 
#    z 0.000000 0.000000 3.046280 
# 
# 
# High freq. dielectric constant tensor:
#      x y z
#    x 1.694200 0.000000 0.000000 
#    y 0.000000 1.616400 0.000000 
#    z 0.000000 0.000000 1.648650 
# 
# From -- ./inp_files/32316.got.cif
#   From: 2010.03.12/outbox.cif.g09.slc.cpg/sg67_17_cif.got.tgz:32316.got - 2010.04.10 22:41:39.
