data_PCOD8279192
_publ_section_title
;
Structure prediction by ZEFSAII (Michael W. Deem and Ramdas Pophale) SiO2 
 PCOD8279192
Probable space group: C M M A
;
_chemical_formula_sum "Si O2"
_cell_formula_units_Z 112
_cell_length_a 15.266156
_cell_length_b 14.834567
_cell_length_c 22.039992
_cell_angle_alpha 90.000000
_cell_angle_beta 90.000000
_cell_angle_gamma 90.000000
_cell_volume 4991.326769
_symmetry_space_group_name_H-M "C M M A"
_symmetry_group_IT_number 67
_symmetry_cell_setting 'orthorhombic'
loop_
_space_group_symop_operation_xyz
x,y,z
-x,1/2-y,z
x,-y,-z
-x,1/2+y,-z
-x,-y,-z
x,1/2+y,-z
-x,y,z
x,1/2-y,z
1/2+x,1/2+y,z
1/2-x,-y,z
1/2+x,1/2-y,-z
1/2-x,y,-z
1/2-x,1/2-y,-z
1/2+x,y,-z
1/2-x,1/2+y,z
1/2+x,-y,z
loop_
_atom_site_type_symbol
_atom_site_label
_atom_site_fract_x
_atom_site_fract_y
_atom_site_fract_z
Si Si1 0.095751 0.349807 0.891808
Si Si2 0.171420 0.350368 0.585340
Si Si3 0.282961 0.856588 0.134080
Si Si4 0.629210 0.649798 0.452936
Si Si5 0.903714 0.899461 0.976875
Si Si6 0.397014 0.645532 0.247854
Si Si7 0.904790 0.516356 0.645796
O O1 0.089041 0.250000 0.864062
O O2 0.182918 0.398275 0.863208
O O3 0.000000 0.398936 0.879107
O O4 0.111540 0.338492 0.963906
O O5 0.151336 0.250000 0.611761
O O6 0.270238 0.357986 0.564926
O O7 0.114011 0.367486 0.524655
O O8 0.153518 0.427118 0.635548
O O9 0.274402 0.750000 0.133909
O O10 0.329090 0.885639 0.072329
O O11 0.340787 0.888801 0.190713
O O12 0.594004 0.750000 0.436698
O O13 0.579538 0.573659 0.415495
O O14 0.000000 0.878033 0.948542
O O15 0.898985 0.000000 0.000000
O O16 0.500000 0.633288 0.234068
O O17 0.376629 0.750000 0.263793
O O18 0.364588 0.582970 0.303440
O O19 0.000000 0.481976 0.667125
#
# Coordination Sequence:
#
# PCOD8279192 Si02
#       7
#    16  16  16  16  16  16  16
#     4   9  18  32  51  79 113 145 180 227 286 351
#     4   9  19  35  55  81 114 156 201 242 284 345
#     4  10  19  33  56  82 109 148 195 239 291 357
#     4   9  18  34  56  81 113 153 198 247 294 342
#     4  10  20  32  50  79 115 151 184 232 293 348
#     4   9  19  35  54  80 113 148 195 253 304 356
#     4  11  21  32  52  84 121 156 189 240 304 356
#
# _framework density 22.438924
#
# number of rings (size 3 to 8) (size 9 to 14) (size 15 to 20)
#    0.000    2.429    0.000    3.429    0.000    7.143 
#    0.000    1.429    6.286    0.000    0.000    1.000 
#    0.000    4.571    0.000    0.571    0.000    0.000 
#
# Total GULP energy -693817.967119 kJ/mol
# GULP energy per Si atom -12389.606556 kJ/mol
# Density = 2.238785 g / cm^3
# Si number density = 22.438924 Si / 1000 Ang^3
#
#
#
# Elastic Constant Matrix: (Units=GPa)
#
#
# Indices 1 2 3 4 5 6 
#
# 1 134.4317 34.4370 50.1289 0.0000 0.0000 0.0000
# 2 34.4370 86.6987 38.0746 0.0000 0.0000 0.0000
# 3 50.1289 38.0746 87.3653 0.0000 0.0000 0.0000
# 4 0.0000 0.0000 0.0000 25.5219 0.0000 0.0000
# 5 0.0000 0.0000 0.0000 0.0000 27.7424 0.0000
# 6 0.0000 0.0000 0.0000 0.0000 0.0000 6.6937
#
#
#
# Elastic Compliance Matrix: (Units=1/GPa)
#
#
# Indices 1 2 3 4 5 6 
#
# 1 0.009670 -0.001737 -0.004792 0.000000 0.000000 0.000000
# 2 -0.001737 0.014576 -0.005356 0.000000 0.000000 0.000000
# 3 -0.004792 -0.005356 0.016530 0.000000 0.000000 0.000000
# 4 0.000000 0.000000 0.000000 0.039182 0.000000 0.000000
# 5 0.000000 0.000000 0.000000 0.000000 0.036046 0.000000
# 6 0.000000 0.000000 0.000000 0.000000 0.000000 0.149394
#
#
# Mechanical properties :
#
#
# Convention : Reuss Voigt Hill
#
# Bulk Modulus (GPa) = 58.79787 61.53073 60.16430
# Shear Modulus (GPa) = 16.95853 24.38193 20.67023
#
# Velocity S-wave (km/s) = 2.75210 3.29992 3.03838
# Velocity P-wave (km/s) = 6.02985 6.48076 6.25937
#
# Compressibility (1/GPa) = 0.01700742
#
# Stress axis : x y z
#
# Youngs Moduli (GPa) = 103.40732 68.60534 60.49662
#
# Poissons Ratio (x) = 0.11915 0.28989
# Poissons Ratio (y) = 0.17959 0.32401
# Poissons Ratio (z) = 0.49552 0.36744
#
# Static dielectric constant tensor:
#      x y z
#    x 4.381390 0.000000 0.000000 
#    y 0.000000 4.060140 0.000000 
#    z 0.000000 0.000000 3.519050 
# 
# 
# High freq. dielectric constant tensor:
#      x y z
#    x 1.892040 0.000000 0.000000 
#    y 0.000000 1.877300 0.000000 
#    z 0.000000 0.000000 1.846680 
# 
# From -- ./inp_files/41932.got.cif
#   From: 2010.03.12/outbox.cif.g09.slc.cpg/sg67_21_cif.got.tgz:41932.got - 2010.04.10 22:41:39.
