data_PCOD8279540
_publ_section_title
;
Structure prediction by ZEFSAII (Michael W. Deem and Ramdas Pophale) SiO2 
 PCOD8279540
Probable space group: C M M A
;
_chemical_formula_sum "Si O2"
_cell_formula_units_Z 96
_cell_length_a 19.368172
_cell_length_b 8.882962
_cell_length_c 30.878232
_cell_angle_alpha 90.000000
_cell_angle_beta 90.000000
_cell_angle_gamma 90.000000
_cell_volume 5312.499026
_symmetry_space_group_name_H-M "C M M A"
_symmetry_group_IT_number 67
_symmetry_cell_setting 'orthorhombic'
loop_
_space_group_symop_operation_xyz
x,y,z
-x,1/2-y,z
x,-y,-z
-x,1/2+y,-z
-x,-y,-z
x,1/2+y,-z
-x,y,z
x,1/2-y,z
1/2+x,1/2+y,z
1/2-x,-y,z
1/2+x,1/2-y,-z
1/2-x,y,-z
1/2-x,1/2-y,-z
1/2+x,y,-z
1/2-x,1/2+y,z
1/2+x,-y,z
loop_
_atom_site_type_symbol
_atom_site_label
_atom_site_fract_x
_atom_site_fract_y
_atom_site_fract_z
Si Si1 0.823960 0.074943 0.636141
Si Si2 0.918115 0.416519 0.198709
Si Si3 0.578991 0.426987 0.705584
Si Si4 0.178081 0.071005 0.045980
Si Si5 0.675561 0.425130 0.459239
Si Si6 0.581479 0.077734 0.113482
O O1 0.812185 0.250000 0.643496
O O2 0.857016 0.044047 0.588238
O O3 0.750000 0.000000 0.642375
O O4 0.877119 0.015330 0.670890
O O5 0.888590 0.250000 0.187858
O O6 0.892893 0.469458 0.246255
O O7 0.893669 0.532489 0.161786
O O8 0.000000 0.406751 0.200492
O O9 0.500000 0.478446 0.700211
O O10 0.586512 0.250000 0.697839
O O11 0.185298 0.250000 0.041606
O O12 0.250000 0.000000 0.062489
O O13 0.118014 0.030676 0.079345
O O14 0.157677 0.000000 0.000000
O O15 0.633657 0.500000 0.500000
O O16 0.682300 0.250000 0.468688
O O17 0.750000 0.500000 0.458078
O O18 0.500000 0.053373 0.108208
O O19 0.602732 0.250000 0.105197
#
# Coordination Sequence:
#
# PCOD8279540 Si02
#       6
#    16  16  16  16  16  16
#     4  10  20  32  48  72 101 130 162 204 250 295
#     4   8  15  30  51  74 100 131 167 206 249 296
#     4   9  18  33  53  75 100 132 168 204 246 299
#     4  11  22  38  58  78 105 139 174 210 251 301
#     4   9  16  26  42  65  91 121 157 197 242 291
#     4  10  20  34  54  81 109 135 168 210 253 296
#
# _framework density 18.070591
#
# number of rings (size 3 to 8) (size 9 to 14) (size 15 to 20)
#    0.000    2.500    0.000    5.000    0.000    4.333 
#    0.000    2.500    0.000    4.500    0.000    0.000 
#    0.000    0.000    0.000    0.000    0.000    0.000 
#
# Total GULP energy -594909.474478 kJ/mol
# GULP energy per Si atom -12393.947385 kJ/mol
# Density = 1.802946 g / cm^3
# Si number density = 18.070591 Si / 1000 Ang^3
#
#
#
# Elastic Constant Matrix: (Units=GPa)
#
#
# Indices 1 2 3 4 5 6 
#
# 1 49.4335 40.1814 51.7726 0.0000 0.0000 0.0000
# 2 40.1814 121.4959 73.5923 0.0000 0.0000 0.0000
# 3 51.7726 73.5923 145.0132 0.0000 0.0000 0.0000
# 4 0.0000 0.0000 0.0000 32.4743 0.0000 0.0000
# 5 0.0000 0.0000 0.0000 0.0000 24.4088 0.0000
# 6 0.0000 0.0000 0.0000 0.0000 0.0000 25.8211
#
#
#
# Elastic Compliance Matrix: (Units=1/GPa)
#
#
# Indices 1 2 3 4 5 6 
#
# 1 0.034903 -0.005768 -0.009534 0.000000 0.000000 0.000000
# 2 -0.005768 0.012837 -0.004455 0.000000 0.000000 0.000000
# 3 -0.009534 -0.004455 0.012561 0.000000 0.000000 0.000000
# 4 0.000000 0.000000 0.000000 0.030794 0.000000 0.000000
# 5 0.000000 0.000000 0.000000 0.000000 0.040969 0.000000
# 6 0.000000 0.000000 0.000000 0.000000 0.000000 0.038728
#
#
# Mechanical properties :
#
#
# Convention : Reuss Voigt Hill
#
# Bulk Modulus (GPa) = 48.10953 71.89281 60.00117
# Shear Modulus (GPa) = 23.01669 26.56727 24.79198
#
# Velocity S-wave (km/s) = 3.57278 3.83847 3.70801
# Velocity P-wave (km/s) = 6.61064 7.71466 7.18389
#
# Compressibility (1/GPa) = 0.02078590
#
# Stress axis : x y z
#
# Youngs Moduli (GPa) = 28.65113 77.89936 79.61444
#
# Poissons Ratio (x) = 0.44936 0.75901
# Poissons Ratio (y) = 0.16527 0.35470
# Poissons Ratio (z) = 0.27315 0.34706
#
# Static dielectric constant tensor:
#      x y z
#    x 2.954360 0.000000 0.000000 
#    y 0.000000 3.442850 0.000000 
#    z 0.000000 0.000000 4.042830 
# 
# 
# High freq. dielectric constant tensor:
#      x y z
#    x 1.651240 0.000000 0.000000 
#    y 0.000000 1.710820 0.000000 
#    z 0.000000 0.000000 1.720960 
# 
# From -- ./inp_files/44570.got.cif
#   From: 2010.03.12/outbox.cif.g09.slc.cpg/sg67_23_cif.got.tgz:44570.got - 2010.04.10 22:41:39.
