data_PCOD8279858
_publ_section_title
;
Structure prediction by ZEFSAII (Michael W. Deem and Ramdas Pophale) SiO2 
 PCOD8279858
Probable space group: C M M A
;
_chemical_formula_sum "Si O2"
_cell_formula_units_Z 96
_cell_length_a 19.203048
_cell_length_b 8.793931
_cell_length_c 31.252559
_cell_angle_alpha 90.000000
_cell_angle_beta 90.000000
_cell_angle_gamma 90.000000
_cell_volume 5277.628361
_symmetry_space_group_name_H-M "C M M A"
_symmetry_group_IT_number 67
_symmetry_cell_setting 'orthorhombic'
loop_
_space_group_symop_operation_xyz
x,y,z
-x,1/2-y,z
x,-y,-z
-x,1/2+y,-z
-x,-y,-z
x,1/2+y,-z
-x,y,z
x,1/2-y,z
1/2+x,1/2+y,z
1/2-x,-y,z
1/2+x,1/2-y,-z
1/2-x,y,-z
1/2-x,1/2-y,-z
1/2+x,y,-z
1/2-x,1/2+y,z
1/2+x,-y,z
loop_
_atom_site_type_symbol
_atom_site_label
_atom_site_fract_x
_atom_site_fract_y
_atom_site_fract_z
Si Si1 0.674625 0.928130 0.713312
Si Si2 0.420949 0.069943 0.456265
Si Si3 0.418374 0.426518 0.129988
Si Si4 0.173469 0.570496 0.797694
Si Si5 0.917327 0.420866 0.042481
Si Si6 0.174862 0.072097 0.619548
O O1 0.678949 0.750000 0.723122
O O2 0.640599 0.960249 0.666610
O O3 0.750000 0.000000 0.710729
O O4 0.637119 0.009519 0.753541
O O5 0.500000 0.014602 0.449403
O O6 0.416292 0.250000 0.459245
O O7 0.376782 0.005921 0.416347
O O8 0.390350 0.000000 0.500000
O O9 0.500000 0.457327 0.136790
O O10 0.399941 0.250000 0.135198
O O11 0.376615 0.524601 0.164029
O O12 0.393893 0.480702 0.083222
O O13 0.180688 0.750000 0.795801
O O14 0.250000 0.500000 0.804164
O O15 0.887322 0.250000 0.046307
O O16 0.000000 0.415532 0.039365
O O17 0.886324 0.500000 0.000000
O O18 0.185290 0.250000 0.613371
O O19 0.250000 0.000000 0.613715
#
# Coordination Sequence:
#
# PCOD8279858 Si02
#       6
#    16  16  16  16  16  16
#     4   9  16  29  48  70  95 124 160 198 240 288
#     4   9  18  33  50  68  93 126 161 194 232 282
#     4  10  20  34  52  75 103 133 167 209 254 297
#     4  11  21  34  53  75 101 133 169 206 246 297
#     4   9  16  27  45  70  99 131 167 206 249 296
#     4   9  18  31  49  72  96 122 155 198 242 283
#
# _framework density 18.189988
#
# number of rings (size 3 to 8) (size 9 to 14) (size 15 to 20)
#    0.000    2.500    0.000    4.000    0.000    4.667 
#    0.000    2.500    0.000    3.500    0.000    3.500 
#    0.000    0.000    0.000    0.000    0.000    0.000 
#
# Total GULP energy -594957.258372 kJ/mol
# GULP energy per Si atom -12394.942883 kJ/mol
# Density = 1.814859 g / cm^3
# Si number density = 18.189988 Si / 1000 Ang^3
#
#
#
# Elastic Constant Matrix: (Units=GPa)
#
#
# Indices 1 2 3 4 5 6 
#
# 1 43.9623 28.2359 54.6703 0.0000 0.0000 0.0000
# 2 28.2359 102.9479 58.5988 0.0000 0.0000 0.0000
# 3 54.6703 58.5988 182.2824 0.0000 0.0000 0.0000
# 4 0.0000 0.0000 0.0000 35.0196 0.0000 0.0000
# 5 0.0000 0.0000 0.0000 0.0000 24.0270 0.0000
# 6 0.0000 0.0000 0.0000 0.0000 0.0000 20.7546
#
#
#
# Elastic Compliance Matrix: (Units=1/GPa)
#
#
# Indices 1 2 3 4 5 6 
#
# 1 0.038147 -0.004835 -0.009887 0.000000 0.000000 0.000000
# 2 -0.004835 0.012502 -0.002569 0.000000 0.000000 0.000000
# 3 -0.009887 -0.002569 0.009277 0.000000 0.000000 0.000000
# 4 0.000000 0.000000 0.000000 0.028555 0.000000 0.000000
# 5 0.000000 0.000000 0.000000 0.000000 0.041620 0.000000
# 6 0.000000 0.000000 0.000000 0.000000 0.000000 0.048182
#
#
# Mechanical properties :
#
#
# Convention : Reuss Voigt Hill
#
# Bulk Modulus (GPa) = 39.45606 68.02251 53.73928
# Shear Modulus (GPa) = 22.59239 28.47274 25.53256
#
# Velocity S-wave (km/s) = 3.52806 3.96068 3.75061
# Velocity P-wave (km/s) = 6.19148 7.64151 6.95439
#
# Compressibility (1/GPa) = 0.02534465
#
# Stress axis : x y z
#
# Youngs Moduli (GPa) = 26.21429 79.98696 107.79268
#
# Poissons Ratio (x) = 0.38675 1.06572
# Poissons Ratio (y) = 0.12675 0.27691
# Poissons Ratio (z) = 0.25917 0.20548
#
# Static dielectric constant tensor:
#      x y z
#    x 2.985520 0.000000 0.000000 
#    y 0.000000 3.476780 0.000000 
#    z 0.000000 0.000000 4.086320 
# 
# 
# High freq. dielectric constant tensor:
#      x y z
#    x 1.652810 0.000000 0.000000 
#    y 0.000000 1.714750 0.000000 
#    z 0.000000 0.000000 1.729260 
# 
# From -- ./inp_files/44620.got.cif
#   From: 2010.03.12/outbox.cif.g09.slc.cpg/sg67_23_cif.got.tgz:44620.got - 2010.04.10 22:41:39.
