data_PCOD8279408
_publ_section_title
;
Structure prediction by ZEFSAII (Michael W. Deem and Ramdas Pophale) SiO2 
 PCOD8279408
Probable space group: C M M A
;
_chemical_formula_sum "Si O2"
_cell_formula_units_Z 96
_cell_length_a 18.186372
_cell_length_b 16.869997
_cell_length_c 14.480112
_cell_angle_alpha 90.000000
_cell_angle_beta 90.000000
_cell_angle_gamma 90.000000
_cell_volume 4442.556877
_symmetry_space_group_name_H-M "C M M A"
_symmetry_group_IT_number 67
_symmetry_cell_setting 'orthorhombic'
loop_
_space_group_symop_operation_xyz
x,y,z
-x,1/2-y,z
x,-y,-z
-x,1/2+y,-z
-x,-y,-z
x,1/2+y,-z
-x,y,z
x,1/2-y,z
1/2+x,1/2+y,z
1/2-x,-y,z
1/2+x,1/2-y,-z
1/2-x,y,-z
1/2-x,1/2-y,-z
1/2+x,y,-z
1/2-x,1/2+y,z
1/2+x,-y,z
loop_
_atom_site_type_symbol
_atom_site_label
_atom_site_fract_x
_atom_site_fract_y
_atom_site_fract_z
Si Si1 0.684864 0.945870 0.625254
Si Si2 0.361942 0.841669 0.127168
Si Si3 0.917555 0.422437 0.306066
Si Si4 0.414881 0.158778 0.507098
Si Si5 0.294371 0.158484 0.205003
Si Si6 0.917098 0.844417 0.068378
O O1 0.640274 0.899788 0.546242
O O2 0.720015 0.884951 0.698251
O O3 0.750000 0.000000 0.581761
O O4 0.630896 0.000172 0.683448
O O5 0.383335 0.750000 0.132852
O O6 0.406683 0.884865 0.206548
O O7 0.274899 0.854612 0.138121
O O8 0.387101 0.877740 0.029038
O O9 0.900993 0.356731 0.384817
O O10 0.000000 0.452868 0.315791
O O11 0.500000 0.141209 0.479694
O O12 0.395302 0.250000 0.484687
O O13 0.305606 0.250000 0.229742
O O14 0.365815 0.124278 0.151660
O O15 0.912992 0.750000 0.066052
O O16 0.000000 0.874604 0.085881
#
# Coordination Sequence:
#
# PCOD8279408 Si02
#       6
#    16  16  16  16  16  16
#     4  12  24  42  61  91 128 171 206 254 315 385
#     4  10  19  36  61  91 124 163 208 258 311 368
#     4  11  23  40  63  91 126 165 206 256 315 377
#     4  10  23  44  69  95 123 163 216 269 317 370
#     4  10  21  39  62  89 122 163 212 259 309 367
#     4   9  18  33  59  93 124 158 206 263 315 364
#
# _framework density 21.609178
#
# number of rings (size 3 to 8) (size 9 to 14) (size 15 to 20)
#    0.000    1.667    1.667    3.000    0.000    7.667 
#    0.000    3.333    0.000    2.000    0.000    0.000 
#    0.000    0.000    0.000    0.000    0.000    0.000 
#
# Total GULP energy -595259.968925 kJ/mol
# GULP energy per Si atom -12401.249353 kJ/mol
# Density = 2.155999 g / cm^3
# Si number density = 21.609178 Si / 1000 Ang^3
#
#
#
# Elastic Constant Matrix: (Units=GPa)
#
#
# Indices 1 2 3 4 5 6 
#
# 1 102.6936 42.2612 28.5135 0.0000 0.0000 0.0000
# 2 42.2612 66.1177 25.9652 0.0000 0.0000 0.0000
# 3 28.5135 25.9652 90.0987 0.0000 0.0000 0.0000
# 4 0.0000 0.0000 0.0000 9.9413 0.0000 0.0000
# 5 0.0000 0.0000 0.0000 0.0000 37.0873 0.0000
# 6 0.0000 0.0000 0.0000 0.0000 0.0000 33.9775
#
#
#
# Elastic Compliance Matrix: (Units=1/GPa)
#
#
# Indices 1 2 3 4 5 6 
#
# 1 0.013531 -0.007856 -0.002018 0.000000 0.000000 0.000000
# 2 -0.007856 0.021616 -0.003743 0.000000 0.000000 0.000000
# 3 -0.002018 -0.003743 0.012816 0.000000 0.000000 0.000000
# 4 0.000000 0.000000 0.000000 0.100591 0.000000 0.000000
# 5 0.000000 0.000000 0.000000 0.000000 0.026963 0.000000
# 6 0.000000 0.000000 0.000000 0.000000 0.000000 0.029431
#
#
# Mechanical properties :
#
#
# Convention : Reuss Voigt Hill
#
# Bulk Modulus (GPa) = 48.24300 50.26552 49.25426
# Shear Modulus (GPa) = 20.91231 27.01257 23.96244
#
# Velocity S-wave (km/s) = 3.11425 3.53944 3.33363
# Velocity P-wave (km/s) = 5.94181 6.32576 6.13679
#
# Compressibility (1/GPa) = 0.02072840
#
# Stress axis : x y z
#
# Youngs Moduli (GPa) = 73.90368 46.26172 78.02536
#
# Poissons Ratio (x) = 0.36345 0.15746
# Poissons Ratio (y) = 0.58061 0.29206
# Poissons Ratio (z) = 0.14915 0.17317
#
# Static dielectric constant tensor:
#      x y z
#    x 4.109220 0.000000 0.000000 
#    y 0.000000 3.755170 0.000000 
#    z 0.000000 0.000000 3.882830 
# 
# 
# High freq. dielectric constant tensor:
#      x y z
#    x 1.863220 0.000000 0.000000 
#    y 0.000000 1.828430 0.000000 
#    z 0.000000 0.000000 1.851990 
# 
# From -- ./inp_files/29250.got.cif
#   From: 2010.03.12/outbox.cif.g09.slc.cpg/sg67_15_cif.got.tgz:29250.got - 2010.04.10 22:41:39.
