data_PCOD8279452
_publ_section_title
;
Structure prediction by ZEFSAII (Michael W. Deem and Ramdas Pophale) SiO2 
 PCOD8279452
Probable space group: C M M A
;
_chemical_formula_sum "Si O2"
_cell_formula_units_Z 96
_cell_length_a 30.382669
_cell_length_b 9.168830
_cell_length_c 25.649552
_cell_angle_alpha 90.000000
_cell_angle_beta 90.000000
_cell_angle_gamma 90.000000
_cell_volume 7145.286167
_symmetry_space_group_name_H-M "C M M A"
_symmetry_group_IT_number 67
_symmetry_cell_setting 'orthorhombic'
loop_
_space_group_symop_operation_xyz
x,y,z
-x,1/2-y,z
x,-y,-z
-x,1/2+y,-z
-x,-y,-z
x,1/2+y,-z
-x,y,z
x,1/2-y,z
1/2+x,1/2+y,z
1/2-x,-y,z
1/2+x,1/2-y,-z
1/2-x,y,-z
1/2-x,1/2-y,-z
1/2+x,y,-z
1/2-x,1/2+y,z
1/2+x,-y,z
loop_
_atom_site_type_symbol
_atom_site_label
_atom_site_fract_x
_atom_site_fract_y
_atom_site_fract_z
Si Si1 0.448727 0.080429 0.365474
Si Si2 0.112561 0.580602 0.554744
Si Si3 0.552465 0.585370 0.949601
Si Si4 0.552230 0.088359 0.248936
Si Si5 0.552521 0.086440 0.849093
Si Si6 0.289988 0.419679 0.555061
O O1 0.500000 0.049564 0.374695
O O2 0.438002 0.250000 0.375050
O O3 0.434587 0.034793 0.306761
O O4 0.422105 0.980923 0.404731
O O5 0.107114 0.500000 0.500000
O O6 0.102794 0.750000 0.544695
O O7 0.161503 0.559561 0.579807
O O8 0.500000 0.585301 0.949830
O O9 0.570642 0.750000 0.950880
O O10 0.570438 0.506978 0.897693
O O11 0.570600 0.500000 0.000000
O O12 0.500000 0.095668 0.245174
O O13 0.571366 0.250000 0.238543
O O14 0.571168 0.980470 0.204855
O O15 0.500000 0.085887 0.848923
O O16 0.570769 0.250000 0.854337
O O17 0.292062 0.500000 0.500000
O O18 0.278448 0.250000 0.548551
O O19 0.250000 0.500000 0.587177
#
# Coordination Sequence:
#
# PCOD8279452 Si02
#       6
#    16  16  16  16  16  16
#     4   9  18  31  44  56  71  93 121 151 182 215
#     4  10  20  31  43  59  77  96 118 143 174 214
#     4   9  15  21  28  38  54  75  97 123 158 200
#     4   8  14  25  38  49  61  79 105 137 171 204
#     4   9  15  21  30  44  59  75  98 128 162 201
#     4   9  16  26  41  60  78  95 114 136 165 203
#
# _framework density 13.43543
#
# number of rings (size 3 to 8) (size 9 to 14) (size 15 to 20)
#    0.000    3.000    0.000    3.500    0.000    7.333 
#    0.000    1.667    0.000    0.000    0.000    0.000 
#    0.000    0.000    0.000    0.000    0.000    0.000 
#
# Total GULP energy -594788.014490 kJ/mol
# GULP energy per Si atom -12391.416969 kJ/mol
# Density = 1.340485 g / cm^3
# Si number density = 13.435430 Si / 1000 Ang^3
#
#
#
# Elastic Constant Matrix: (Units=GPa)
#
#
# Indices 1 2 3 4 5 6 
#
# 1 36.5324 33.1086 28.8384 0.0000 0.0000 0.0000
# 2 33.1086 119.8300 63.2520 0.0000 0.0000 0.0000
# 3 28.8384 63.2520 97.9915 0.0000 0.0000 0.0000
# 4 0.0000 0.0000 0.0000 26.5751 0.0000 0.0000
# 5 0.0000 0.0000 0.0000 0.0000 -0.5157 0.0000
# 6 0.0000 0.0000 0.0000 0.0000 0.0000 14.0005
#
#
#
# Elastic Compliance Matrix: (Units=1/GPa)
#
#
# Indices 1 2 3 4 5 6 
#
# 1 0.039391 -0.007227 -0.006928 0.000000 0.000000 0.000000
# 2 -0.007227 0.013984 -0.006900 0.000000 0.000000 0.000000
# 3 -0.006928 -0.006900 0.016697 0.000000 0.000000 0.000000
# 4 0.000000 0.000000 0.000000 0.037629 0.000000 0.000000
# 5 0.000000 0.000000 0.000000 0.000000 -1.939034 0.000000
# 6 0.000000 0.000000 0.000000 0.000000 0.000000 0.071426
#
#
# Mechanical properties :
#
#
# Convention : Reuss Voigt Hill
#
# Bulk Modulus (GPa) = 35.76025 56.08355 45.92190
# Shear Modulus (GPa) = -2.92658 16.62230 6.84786
#
# Velocity S-wave (km/s) = -1.47749 3.52120 2.26007
# Velocity P-wave (km/s) = 4.87478 7.63973 6.40816
#
# Compressibility (1/GPa) = 0.02796401
#
# Stress axis : x y z
#
# Youngs Moduli (GPa) = 25.38637 71.51141 59.88984
#
# Poissons Ratio (x) = 0.51680 0.41491
# Poissons Ratio (y) = 0.18346 0.41321
# Poissons Ratio (z) = 0.17587 0.49339
#
# Static dielectric constant tensor:
#      x y z
#    x 2.565970 0.000000 0.000000 
#    y 0.000000 2.898510 0.000000 
#    z 0.000000 0.000000 2.697810 
# 
# 
# High freq. dielectric constant tensor:
#      x y z
#    x 1.445770 0.000000 0.000000 
#    y 0.000000 1.530250 0.000000 
#    z 0.000000 0.000000 1.500530 
# 
# From -- ./inp_files/44919.got.cif
#   From: 2010.03.12/outbox.cif.g09.slc.cpg/sg67_23_cif.got.tgz:44919.got - 2010.04.10 22:41:39.
