data_PCOD8279801
_publ_section_title
;
Structure prediction by ZEFSAII (Michael W. Deem and Ramdas Pophale) SiO2 
 PCOD8279801
Probable space group: C M M A
;
_chemical_formula_sum "Si O2"
_cell_formula_units_Z 88
_cell_length_a 30.280922
_cell_length_b 8.902010
_cell_length_c 17.544648
_cell_angle_alpha 90.000000
_cell_angle_beta 90.000000
_cell_angle_gamma 90.000000
_cell_volume 4729.354096
_symmetry_space_group_name_H-M "C M M A"
_symmetry_group_IT_number 67
_symmetry_cell_setting 'orthorhombic'
loop_
_space_group_symop_operation_xyz
x,y,z
-x,1/2-y,z
x,-y,-z
-x,1/2+y,-z
-x,-y,-z
x,1/2+y,-z
-x,y,z
x,1/2-y,z
1/2+x,1/2+y,z
1/2-x,-y,z
1/2+x,1/2-y,-z
1/2-x,y,-z
1/2-x,1/2-y,-z
1/2+x,y,-z
1/2-x,1/2+y,z
1/2+x,-y,z
loop_
_atom_site_type_symbol
_atom_site_label
_atom_site_fract_x
_atom_site_fract_y
_atom_site_fract_z
Si Si1 0.000000 0.572609 0.917943
Si Si2 0.585812 0.919797 0.868861
Si Si3 0.295302 0.073583 0.759962
Si Si4 0.121514 0.581251 0.299553
Si Si5 0.170549 0.927799 0.924716
Si Si6 0.549908 0.572032 0.580038
O O1 0.957986 0.517207 0.871632
O O2 0.000000 0.750000 0.924698
O O3 0.000000 0.500000 0.000000
O O4 0.578626 0.750000 0.899527
O O5 0.598924 0.917373 0.781695
O O6 0.622023 0.000746 0.920933
O O7 0.291559 0.250000 0.751751
O O8 0.303228 0.026282 0.848186
O O9 0.250000 0.000000 0.731846
O O10 0.334368 0.018897 0.704170
O O11 0.135170 0.750000 0.323477
O O12 0.085783 0.513292 0.358668
O O13 0.167449 0.750000 0.933706
O O14 0.193861 0.000000 0.000000
O O15 0.563128 0.500000 0.500000
O O16 0.500000 0.522843 0.603980
O O17 0.552292 0.750000 0.572835
#
# Coordination Sequence:
#
# PCOD8279801 Si02
#       6
#     8  16  16  16  16  16
#     4  12  24  36  48  66  95 132 175 222 267 314
#     4  10  20  34  52  72  96 132 175 219 264 314
#     4  10  21  36  55  78 106 137 177 224 271 323
#     4   9  19  35  57  80 107 142 178 216 261 314
#     4  10  20  34  51  72 100 133 171 219 270 322
#     4   9  18  33  55  84 117 149 179 212 252 306
#
# _framework density 18.607191
#
# number of rings (size 3 to 8) (size 9 to 14) (size 15 to 20)
#    0.000    2.182    0.000    3.000    1.273    4.000 
#    0.000    1.818    0.000    0.545    0.000    3.818 
#    0.000    0.000    0.000    0.000    0.000    0.000 
#
# Total GULP energy -545592.063297 kJ/mol
# GULP energy per Si atom -12399.819620 kJ/mol
# Density = 1.856484 g / cm^3
# Si number density = 18.607191 Si / 1000 Ang^3
#
#
#
# Elastic Constant Matrix: (Units=GPa)
#
#
# Indices 1 2 3 4 5 6 
#
# 1 128.9461 50.2594 44.0502 0.0000 0.0000 0.0000
# 2 50.2594 89.2495 25.7072 0.0000 0.0000 0.0000
# 3 44.0502 25.7072 78.7804 0.0000 0.0000 0.0000
# 4 0.0000 0.0000 0.0000 27.5420 0.0000 0.0000
# 5 0.0000 0.0000 0.0000 0.0000 19.6889 0.0000
# 6 0.0000 0.0000 0.0000 0.0000 0.0000 30.2540
#
#
#
# Elastic Compliance Matrix: (Units=1/GPa)
#
#
# Indices 1 2 3 4 5 6 
#
# 1 0.011314 -0.005021 -0.004688 0.000000 0.000000 0.000000
# 2 -0.005021 0.014595 -0.001955 0.000000 0.000000 0.000000
# 3 -0.004688 -0.001955 0.015953 0.000000 0.000000 0.000000
# 4 0.000000 0.000000 0.000000 0.036308 0.000000 0.000000
# 5 0.000000 0.000000 0.000000 0.000000 0.050790 0.000000
# 6 0.000000 0.000000 0.000000 0.000000 0.000000 0.033054
#
#
# Mechanical properties :
#
#
# Convention : Reuss Voigt Hill
#
# Bulk Modulus (GPa) = 53.95496 59.66774 56.81135
# Shear Modulus (GPa) = 26.10716 27.29424 26.70070
#
# Velocity S-wave (km/s) = 3.74982 3.83412 3.79221
# Velocity P-wave (km/s) = 6.91433 7.19287 7.05497
#
# Compressibility (1/GPa) = 0.01853398
#
# Stress axis : x y z
#
# Youngs Moduli (GPa) = 88.38988 68.51619 62.68570
#
# Poissons Ratio (x) = 0.34401 0.29385
# Poissons Ratio (y) = 0.44379 0.12256
# Poissons Ratio (z) = 0.41434 0.13396
#
# Static dielectric constant tensor:
#      x y z
#    x 3.476230 0.000000 0.000000 
#    y 0.000000 3.529940 0.000000 
#    z 0.000000 0.000000 3.293080 
# 
# 
# High freq. dielectric constant tensor:
#      x y z
#    x 1.722130 0.000000 0.000000 
#    y 0.000000 1.728360 0.000000 
#    z 0.000000 0.000000 1.701460 
# 
# From -- ./inp_files/32447.got.cif
#   From: 2010.03.12/outbox.cif.g09.slc.cpg/sg67_17_cif.got.tgz:32447.got - 2010.04.10 22:41:39.
