data_PCOD8279942
_publ_section_title
;
Structure prediction by ZEFSAII (Michael W. Deem and Ramdas Pophale) SiO2 
 PCOD8279942
Probable space group: C M M A
;
_chemical_formula_sum "Si O2"
_cell_formula_units_Z 96
_cell_length_a 26.504123
_cell_length_b 9.323299
_cell_length_c 22.028757
_cell_angle_alpha 90.000000
_cell_angle_beta 90.000000
_cell_angle_gamma 90.000000
_cell_volume 5443.435019
_symmetry_space_group_name_H-M "C M M A"
_symmetry_group_IT_number 67
_symmetry_cell_setting 'orthorhombic'
loop_
_space_group_symop_operation_xyz
x,y,z
-x,1/2-y,z
x,-y,-z
-x,1/2+y,-z
-x,-y,-z
x,1/2+y,-z
-x,y,z
x,1/2-y,z
1/2+x,1/2+y,z
1/2-x,-y,z
1/2+x,1/2-y,-z
1/2-x,y,-z
1/2-x,1/2-y,-z
1/2+x,y,-z
1/2-x,1/2+y,z
1/2+x,-y,z
loop_
_atom_site_type_symbol
_atom_site_label
_atom_site_fract_x
_atom_site_fract_y
_atom_site_fract_z
Si Si1 0.653248 0.524478 0.859160
Si Si2 0.698963 0.750000 0.085419
Si Si3 0.057305 0.918049 0.209413
Si Si4 0.316227 0.750000 0.947905
Si Si5 0.605508 0.079650 0.685135
Si Si6 0.300874 0.086969 0.265958
Si Si7 0.057437 0.915876 0.557767
O O1 0.680954 0.377453 0.872332
O O2 0.594259 0.511775 0.841047
O O3 0.656476 0.611741 0.921326
O O4 0.682989 0.599018 0.804226
O O5 0.758250 0.750000 0.073043
O O6 0.673386 0.750000 0.019438
O O7 0.071028 0.750000 0.219594
O O8 0.000000 0.935228 0.186573
O O9 0.063820 0.005820 0.271772
O O10 0.608421 0.250000 0.698828
O O11 0.590706 0.047881 0.616163
O O12 0.658629 0.003050 0.695955
O O13 0.295296 0.250000 0.290771
O O14 0.250000 0.000000 0.273951
O O15 0.060187 0.750000 0.541432
O O16 0.000000 0.963832 0.571028
O O17 0.079750 0.000000 0.500000
#
# Coordination Sequence:
#
# PCOD8279942 Si02
#       7
#    16   8  16   8  16  16  16
#     4  11  21  36  54  80 106 138 176 221 267 327
#     4  11  24  32  57  81 107 139 173 214 272 326
#     4  10  21  37  56  76 105 145 183 224 272 321
#     4  11  20  40  53  77 109 141 173 214 266 328
#     4  10  20  34  53  82 113 140 178 225 271 318
#     4  11  22  35  55  79 109 145 178 220 270 323
#     4   9  18  32  51  77 109 145 180 218 264 313
#
# _framework density 17.635922999999998
#
# number of rings (size 3 to 8) (size 9 to 14) (size 15 to 20)
#    0.000    1.667    1.667    4.500    5.833    3.667 
#    0.000    1.667    0.000    3.500    0.000    3.500 
#    0.000    0.000    0.000    0.000    0.000    0.000 
#
# Total GULP energy -595104.813268 kJ/mol
# GULP energy per Si atom -12398.016943 kJ/mol
# Density = 1.759578 g / cm^3
# Si number density = 17.635923 Si / 1000 Ang^3
#
#
#
# Elastic Constant Matrix: (Units=GPa)
#
#
# Indices 1 2 3 4 5 6 
#
# 1 98.7442 34.1078 37.9123 0.0000 0.0000 0.0000
# 2 34.1078 91.5802 33.7474 0.0000 0.0000 0.0000
# 3 37.9123 33.7474 97.6948 0.0000 0.0000 0.0000
# 4 0.0000 0.0000 0.0000 19.0725 0.0000 0.0000
# 5 0.0000 0.0000 0.0000 0.0000 22.8782 0.0000
# 6 0.0000 0.0000 0.0000 0.0000 0.0000 11.5313
#
#
#
# Elastic Compliance Matrix: (Units=1/GPa)
#
#
# Indices 1 2 3 4 5 6 
#
# 1 0.012738 -0.003349 -0.003786 0.000000 0.000000 0.000000
# 2 -0.003349 0.013392 -0.003327 0.000000 0.000000 0.000000
# 3 -0.003786 -0.003327 0.012854 0.000000 0.000000 0.000000
# 4 0.000000 0.000000 0.000000 0.052431 0.000000 0.000000
# 5 0.000000 0.000000 0.000000 0.000000 0.043710 0.000000
# 6 0.000000 0.000000 0.000000 0.000000 0.000000 0.086720
#
#
# Mechanical properties :
#
#
# Convention : Reuss Voigt Hill
#
# Bulk Modulus (GPa) = 55.36759 55.50600 55.43680
# Shear Modulus (GPa) = 20.09728 22.84651 21.47189
#
# Velocity S-wave (km/s) = 3.37941 3.60315 3.49307
# Velocity P-wave (km/s) = 6.83302 6.98941 6.91165
#
# Compressibility (1/GPa) = 0.01806111
#
# Stress axis : x y z
#
# Youngs Moduli (GPa) = 78.50770 74.66882 77.79381
#
# Poissons Ratio (x) = 0.25004 0.29455
# Poissons Ratio (y) = 0.26290 0.25880
# Poissons Ratio (z) = 0.29725 0.24840
#
# Static dielectric constant tensor:
#      x y z
#    x 3.296710 0.000000 0.000000 
#    y 0.000000 3.366500 0.000000 
#    z 0.000000 0.000000 3.212560 
# 
# 
# High freq. dielectric constant tensor:
#      x y z
#    x 1.674220 0.000000 0.000000 
#    y 0.000000 1.697760 0.000000 
#    z 0.000000 0.000000 1.668200 
# 
# From -- ./inp_files/42711.got.cif
#   From: 2010.03.12/outbox.cif.g09.slc.cpg/sg67_22_cif.got.tgz:42711.got - 2010.04.10 22:41:39.
