data_PCOD8279794
_publ_section_title
;
Structure prediction by ZEFSAII (Michael W. Deem and Ramdas Pophale) SiO2 
 PCOD8279794
Probable space group: C M M A
;
_chemical_formula_sum "Si O2"
_cell_formula_units_Z 96
_cell_length_a 9.021517
_cell_length_b 19.732759
_cell_length_c 31.225717
_cell_angle_alpha 90.000000
_cell_angle_beta 90.000000
_cell_angle_gamma 90.000000
_cell_volume 5558.784054
_symmetry_space_group_name_H-M "C M M A"
_symmetry_group_IT_number 67
_symmetry_cell_setting 'orthorhombic'
loop_
_space_group_symop_operation_xyz
x,y,z
-x,1/2-y,z
x,-y,-z
-x,1/2+y,-z
-x,-y,-z
x,1/2+y,-z
-x,y,z
x,1/2-y,z
1/2+x,1/2+y,z
1/2-x,-y,z
1/2+x,1/2-y,-z
1/2-x,y,-z
1/2-x,1/2-y,-z
1/2+x,y,-z
1/2-x,1/2+y,z
1/2+x,-y,z
loop_
_atom_site_type_symbol
_atom_site_label
_atom_site_fract_x
_atom_site_fract_y
_atom_site_fract_z
Si Si1 0.677449 0.429361 0.044621
Si Si2 0.177009 0.325632 0.295097
Si Si3 0.164195 0.330600 0.201544
Si Si4 0.672622 0.072432 0.539711
Si Si5 0.672987 0.928144 0.365874
Si Si6 0.674044 0.673540 0.881867
O O1 0.500000 0.436818 0.040052
O O2 0.750000 0.500000 0.059380
O O3 0.724859 0.373016 0.078910
O O4 0.750000 0.406181 0.000000
O O5 0.239561 0.250000 0.303871
O O6 0.228435 0.352759 0.248103
O O7 0.240012 0.375701 0.331428
O O8 0.000000 0.323248 0.296009
O O9 0.158547 0.250000 0.201447
O O10 0.263958 0.357396 0.162501
O O11 0.000000 0.360743 0.194797
O O12 0.500000 0.065004 0.529574
O O13 0.750000 0.113700 0.500000
O O14 0.699056 0.104777 0.586743
O O15 0.750000 0.000000 0.541399
O O16 0.500000 0.940327 0.358041
O O17 0.750000 0.000000 0.360008
O O18 0.500000 0.673692 0.877286
O O19 0.733498 0.750000 0.890070
#
# Coordination Sequence:
#
# PCOD8279794 Si02
#       6
#    16  16  16  16  16  16
#     4  10  20  34  51  69  92 123 154 183 218 261
#     4   8  14  27  47  67  86 112 149 185 213 252
#     4   8  14  26  46  69  89 113 147 184 218 253
#     4   9  15  23  37  57  80 107 139 173 212 256
#     4   9  17  28  43  64  88 113 141 178 222 261
#     4   9  18  32  49  70  95 119 145 182 225 263
#
# _framework density 17.269964000000002
#
# number of rings (size 3 to 8) (size 9 to 14) (size 15 to 20)
#    0.000    3.167    0.000    3.000    0.000    2.333 
#    0.000    1.667    0.000    6.000    0.000    0.000 
#    0.000    0.000    0.000    0.000    0.000    4.500 
#
# Total GULP energy -594706.132219 kJ/mol
# GULP energy per Si atom -12389.711088 kJ/mol
# Density = 1.723066 g / cm^3
# Si number density = 17.269964 Si / 1000 Ang^3
#
#
#
# Elastic Constant Matrix: (Units=GPa)
#
#
# Indices 1 2 3 4 5 6 
#
# 1 49.6928 25.5376 50.3670 0.0000 0.0000 0.0000
# 2 25.5376 66.7575 76.8968 0.0000 0.0000 0.0000
# 3 50.3670 76.8968 184.1832 0.0000 0.0000 0.0000
# 4 0.0000 0.0000 0.0000 29.3870 0.0000 0.0000
# 5 0.0000 0.0000 0.0000 0.0000 22.6429 0.0000
# 6 0.0000 0.0000 0.0000 0.0000 0.0000 14.7614
#
#
#
# Elastic Compliance Matrix: (Units=1/GPa)
#
#
# Indices 1 2 3 4 5 6 
#
# 1 0.028303 -0.003683 -0.006202 0.000000 0.000000 0.000000
# 2 -0.003683 0.029337 -0.011241 0.000000 0.000000 0.000000
# 3 -0.006202 -0.011241 0.011819 0.000000 0.000000 0.000000
# 4 0.000000 0.000000 0.000000 0.034029 0.000000 0.000000
# 5 0.000000 0.000000 0.000000 0.000000 0.044164 0.000000
# 6 0.000000 0.000000 0.000000 0.000000 0.000000 0.067744
#
#
# Mechanical properties :
#
#
# Convention : Reuss Voigt Hill
#
# Bulk Modulus (GPa) = 36.75674 67.35959 52.05817
# Shear Modulus (GPa) = 18.74658 23.21373 20.98016
#
# Velocity S-wave (km/s) = 3.29827 3.67027 3.48923
# Velocity P-wave (km/s) = 5.98620 7.55313 6.81485
#
# Compressibility (1/GPa) = 0.02720589
#
# Stress axis : x y z
#
# Youngs Moduli (GPa) = 35.33256 34.08692 84.61296
#
# Poissons Ratio (x) = 0.12554 0.52477
# Poissons Ratio (y) = 0.13013 0.95113
# Poissons Ratio (z) = 0.21913 0.38317
#
# Static dielectric constant tensor:
#      x y z
#    x 3.131790 0.000000 0.000000 
#    y 0.000000 3.005940 0.000000 
#    z 0.000000 0.000000 4.001380 
# 
# 
# High freq. dielectric constant tensor:
#      x y z
#    x 1.652610 0.000000 0.000000 
#    y 0.000000 1.620180 0.000000 
#    z 0.000000 0.000000 1.689800 
# 
# From -- ./inp_files/43657.got.cif
#   From: 2010.03.12/outbox.cif.g09.slc.cpg/sg67_22_cif.got.tgz:43657.got - 2010.04.10 22:41:39.
