data_PCOD8279090
_publ_section_title
;
Structure prediction by ZEFSAII (Michael W. Deem and Ramdas Pophale) SiO2 
 PCOD8279090
Probable space group: C M M A
;
_chemical_formula_sum "Si O2"
_cell_formula_units_Z 120
_cell_length_a 27.736999
_cell_length_b 13.895893
_cell_length_c 16.461057
_cell_angle_alpha 90.000000
_cell_angle_beta 90.000000
_cell_angle_gamma 90.000000
_cell_volume 6344.591294
_symmetry_space_group_name_H-M "C M M A"
_symmetry_group_IT_number 67
_symmetry_cell_setting 'orthorhombic'
loop_
_space_group_symop_operation_xyz
x,y,z
-x,1/2-y,z
x,-y,-z
-x,1/2+y,-z
-x,-y,-z
x,1/2+y,-z
-x,y,z
x,1/2-y,z
1/2+x,1/2+y,z
1/2-x,-y,z
1/2+x,1/2-y,-z
1/2-x,y,-z
1/2-x,1/2-y,-z
1/2+x,y,-z
1/2-x,1/2+y,z
1/2+x,-y,z
loop_
_atom_site_type_symbol
_atom_site_label
_atom_site_fract_x
_atom_site_fract_y
_atom_site_fract_z
Si Si1 0.837062 0.142534 0.623273
Si Si2 0.555025 0.354182 0.955537
Si Si3 0.726907 0.355323 0.605833
Si Si4 0.190637 0.143697 0.218549
Si Si5 0.650080 0.555399 0.797694
Si Si6 0.555181 0.547638 0.876070
Si Si7 0.728941 0.140284 0.085240
Si Si8 0.332884 0.000000 0.500000
O O1 0.859108 0.250000 0.618946
O O2 0.783394 0.140233 0.584940
O O3 0.834619 0.110326 0.716474
O O4 0.864871 0.069743 0.560176
O O5 0.500000 0.344637 0.929588
O O6 0.580927 0.250000 0.939484
O O7 0.575693 0.442442 0.903258
O O8 0.557968 0.378190 0.050268
O O9 0.706529 0.250000 0.580299
O O10 0.722686 0.369654 0.701828
O O11 0.699048 0.439146 0.561931
O O12 0.165831 0.250000 0.216374
O O13 0.226511 0.131218 0.144557
O O14 0.151180 0.059749 0.215103
O O15 0.593844 0.583906 0.810352
O O16 0.683345 0.583781 0.875545
O O17 0.500000 0.543902 0.842336
O O18 0.711854 0.250000 0.072340
O O19 0.750000 0.097754 0.000000
#
# Coordination Sequence:
#
# PCOD8279090 Si02
#       8
#    16  16  16  16  16  16  16   8
#     4  11  22  34  51  79 108 140 178 215 266 324
#     4   8  15  32  55  74  99 133 169 221 279 320
#     4  10  19  33  51  74 107 140 173 216 261 315
#     4  10  21  36  52  72 105 142 181 222 261 314
#     4  12  22  35  56  76 110 150 179 222 279 318
#     4   9  20  35  53  81 107 135 184 233 276 327
#     4  10  22  38  54  74 104 146 191 226 257 310
#     4  12  21  32  56  80 103 142 179 218 260 330
#
# _framework density 18.913747000000001
#
# number of rings (size 3 to 8) (size 9 to 14) (size 15 to 20)
#    0.000    1.867    2.667    3.200    0.000    5.867 
#    0.000    1.333    0.000    0.000    0.000    0.467 
#    0.000    0.000    0.000    0.000    0.000    0.000 
#
# Total GULP energy -743285.930865 kJ/mol
# GULP energy per Si atom -12388.098848 kJ/mol
# Density = 1.887070 g / cm^3
# Si number density = 18.913747 Si / 1000 Ang^3
#
#
#
# Elastic Constant Matrix: (Units=GPa)
#
#
# Indices 1 2 3 4 5 6 
#
# 1 42.3134 20.6991 15.1647 0.0000 0.0000 0.0000
# 2 20.6991 122.6301 41.8764 0.0000 0.0000 0.0000
# 3 15.1647 41.8764 103.1852 0.0000 0.0000 0.0000
# 4 0.0000 0.0000 0.0000 22.6954 0.0000 0.0000
# 5 0.0000 0.0000 0.0000 0.0000 13.0694 0.0000
# 6 0.0000 0.0000 0.0000 0.0000 0.0000 9.2419
#
#
#
# Elastic Compliance Matrix: (Units=1/GPa)
#
#
# Indices 1 2 3 4 5 6 
#
# 1 0.026259 -0.003616 -0.002392 0.000000 0.000000 0.000000
# 2 -0.003616 0.009964 -0.003513 0.000000 0.000000 0.000000
# 3 -0.002392 -0.003513 0.011468 0.000000 0.000000 0.000000
# 4 0.000000 0.000000 0.000000 0.044062 0.000000 0.000000
# 5 0.000000 0.000000 0.000000 0.000000 0.076514 0.000000
# 6 0.000000 0.000000 0.000000 0.000000 0.000000 0.108202
#
#
# Mechanical properties :
#
#
# Convention : Reuss Voigt Hill
#
# Bulk Modulus (GPa) = 34.90173 47.06768 40.98470
# Shear Modulus (GPa) = 16.39017 21.69393 19.04205
#
# Velocity S-wave (km/s) = 2.94696 3.39040 3.17643
# Velocity P-wave (km/s) = 5.48385 6.34554 5.93037
#
# Compressibility (1/GPa) = 0.02865187
#
# Stress axis : x y z
#
# Youngs Moduli (GPa) = 38.08203 100.35761 87.19645
#
# Poissons Ratio (x) = 0.36285 0.20856
# Poissons Ratio (y) = 0.13769 0.30628
# Poissons Ratio (z) = 0.09109 0.35251
#
# Static dielectric constant tensor:
#      x y z
#    x 2.913410 0.000000 0.000000 
#    y 0.000000 4.232590 0.000000 
#    z 0.000000 0.000000 3.606400 
# 
# 
# High freq. dielectric constant tensor:
#      x y z
#    x 1.660270 0.000000 0.000000 
#    y 0.000000 1.765960 0.000000 
#    z 0.000000 0.000000 1.736120 
# 
# From -- ./inp_files/31275.got.cif
#   From: 2010.03.12/outbox.cif.g09.slc.cpg/sg67_16_cif.got.tgz:31275.got - 2010.04.10 22:41:39.
