data_PCOD8279434
_publ_section_title
;
Structure prediction by ZEFSAII (Michael W. Deem and Ramdas Pophale) SiO2 
 PCOD8279434
Probable space group: C M M A
;
_chemical_formula_sum "Si O2"
_cell_formula_units_Z 96
_cell_length_a 8.850742
_cell_length_b 23.654127
_cell_length_c 25.744727
_cell_angle_alpha 90.000000
_cell_angle_beta 90.000000
_cell_angle_gamma 90.000000
_cell_volume 5389.827877
_symmetry_space_group_name_H-M "C M M A"
_symmetry_group_IT_number 67
_symmetry_cell_setting 'orthorhombic'
loop_
_space_group_symop_operation_xyz
x,y,z
-x,1/2-y,z
x,-y,-z
-x,1/2+y,-z
-x,-y,-z
x,1/2+y,-z
-x,y,z
x,1/2-y,z
1/2+x,1/2+y,z
1/2-x,-y,z
1/2+x,1/2-y,-z
1/2-x,y,-z
1/2-x,1/2-y,-z
1/2+x,y,-z
1/2-x,1/2+y,z
1/2+x,-y,z
loop_
_atom_site_type_symbol
_atom_site_label
_atom_site_fract_x
_atom_site_fract_y
_atom_site_fract_z
Si Si1 0.679048 0.135686 0.751509
Si Si2 0.177849 0.367494 0.054245
Si Si3 0.323239 0.561573 0.663829
Si Si4 0.678014 0.439459 0.849040
Si Si5 0.678060 0.750000 0.103228
Si Si6 0.320728 0.250000 0.215827
Si Si7 0.326060 0.939346 0.548615
O O1 0.500000 0.143666 0.749219
O O2 0.736856 0.104538 0.700558
O O3 0.728884 0.100227 0.801883
O O4 0.758252 0.196059 0.753755
O O5 0.236624 0.411206 0.097687
O O6 0.227072 0.304343 0.070035
O O7 0.000000 0.371148 0.048497
O O8 0.250000 0.385253 0.000000
O O9 0.500000 0.556868 0.678404
O O10 0.250000 0.500000 0.669756
O O11 0.302410 0.587614 0.605671
O O12 0.500000 0.446683 0.849988
O O13 0.750000 0.500000 0.841101
O O14 0.500000 0.750000 0.116207
O O15 0.765883 0.750000 0.156829
O O16 0.500000 0.250000 0.217291
O O17 0.500000 0.946154 0.535397
O O18 0.250000 0.904841 0.500000
O O19 0.250000 0.000000 0.550960
#
# Coordination Sequence:
#
# PCOD8279434 Si02
#       7
#    16  16  16  16   8   8  16
#     4  11  22  39  59  78 106 143 179 220 272 324
#     4  10  21  37  57  80 106 137 172 216 263 316
#     4  10  20  33  50  79 114 148 186 228 271 317
#     4  10  22  38  56  77 105 140 175 214 260 311
#     4  10  19  39  61  78 108 137 169 215 266 323
#     4  12  24  37  59  86 108 133 172 221 268 323
#     4   9  16  26  43  68 104 144 184 226 266 312
#
# _framework density 17.811329000000001
#
# number of rings (size 3 to 8) (size 9 to 14) (size 15 to 20)
#    0.000    1.833    1.667    3.500    0.000    6.333 
#    0.000    1.667    0.000    0.000    0.000    0.583 
#    0.000    0.000    0.000    0.000    0.000    0.000 
#
# Total GULP energy -595136.033224 kJ/mol
# GULP energy per Si atom -12398.667359 kJ/mol
# Density = 1.777079 g / cm^3
# Si number density = 17.811329 Si / 1000 Ang^3
#
#
#
# Elastic Constant Matrix: (Units=GPa)
#
#
# Indices 1 2 3 4 5 6 
#
# 1 80.7487 39.4546 52.9455 0.0000 0.0000 0.0000
# 2 39.4546 107.8289 52.1229 0.0000 0.0000 0.0000
# 3 52.9455 52.1229 142.6111 0.0000 0.0000 0.0000
# 4 0.0000 0.0000 0.0000 44.5181 0.0000 0.0000
# 5 0.0000 0.0000 0.0000 0.0000 28.1535 0.0000
# 6 0.0000 0.0000 0.0000 0.0000 0.0000 24.7841
#
#
#
# Elastic Compliance Matrix: (Units=1/GPa)
#
#
# Indices 1 2 3 4 5 6 
#
# 1 0.017687 -0.004005 -0.005102 0.000000 0.000000 0.000000
# 2 -0.004005 0.012171 -0.002961 0.000000 0.000000 0.000000
# 3 -0.005102 -0.002961 0.009989 0.000000 0.000000 0.000000
# 4 0.000000 0.000000 0.000000 0.022463 0.000000 0.000000
# 5 0.000000 0.000000 0.000000 0.000000 0.035520 0.000000
# 6 0.000000 0.000000 0.000000 0.000000 0.000000 0.040348
#
#
# Mechanical properties :
#
#
# Convention : Reuss Voigt Hill
#
# Bulk Modulus (GPa) = 63.66041 68.91498 66.28770
# Shear Modulus (GPa) = 29.84162 31.93552 30.88857
#
# Velocity S-wave (km/s) = 4.09764 4.23896 4.16890
# Velocity P-wave (km/s) = 7.62933 7.92048 7.77627
#
# Compressibility (1/GPa) = 0.01570835
#
# Stress axis : x y z
#
# Youngs Moduli (GPa) = 56.53987 82.16309 100.11232
#
# Poissons Ratio (x) = 0.32907 0.51082
# Poissons Ratio (y) = 0.22645 0.29647
# Poissons Ratio (z) = 0.28849 0.24332
#
# Static dielectric constant tensor:
#      x y z
#    x 3.346400 0.000000 0.000000 
#    y 0.000000 3.072210 0.000000 
#    z 0.000000 0.000000 3.983560 
# 
# 
# High freq. dielectric constant tensor:
#      x y z
#    x 1.696970 0.000000 0.000000 
#    y 0.000000 1.662500 0.000000 
#    z 0.000000 0.000000 1.704310 
# 
# From -- ./inp_files/40837.got.cif
#   From: 2010.03.12/outbox.cif.g09.slc.cpg/sg67_21_cif.got.tgz:40837.got - 2010.04.10 22:41:39.
