data_PCOD8279689
_publ_section_title
;
Structure prediction by ZEFSAII (Michael W. Deem and Ramdas Pophale) SiO2 
 PCOD8279689
Probable space group: C M M A
;
_chemical_formula_sum "Si O2"
_cell_formula_units_Z 120
_cell_length_a 9.093598
_cell_length_b 26.351901
_cell_length_c 28.044248
_cell_angle_alpha 90.000000
_cell_angle_beta 90.000000
_cell_angle_gamma 90.000000
_cell_volume 6720.343946
_symmetry_space_group_name_H-M "C M M A"
_symmetry_group_IT_number 67
_symmetry_cell_setting 'orthorhombic'
loop_
_space_group_symop_operation_xyz
x,y,z
-x,1/2-y,z
x,-y,-z
-x,1/2+y,-z
-x,-y,-z
x,1/2+y,-z
-x,y,z
x,1/2-y,z
1/2+x,1/2+y,z
1/2-x,-y,z
1/2+x,1/2-y,-z
1/2-x,y,-z
1/2-x,1/2-y,-z
1/2+x,y,-z
1/2-x,1/2+y,z
1/2+x,-y,z
loop_
_atom_site_type_symbol
_atom_site_label
_atom_site_fract_x
_atom_site_fract_y
_atom_site_fract_z
Si Si1 0.827657 0.360347 0.050565
Si Si2 0.824463 0.053157 0.123947
Si Si3 0.171783 0.691579 0.546134
Si Si4 0.170553 0.308024 0.256732
Si Si5 0.168015 0.551664 0.314719
Si Si6 0.328292 0.857090 0.355894
Si Si7 0.169588 0.898929 0.212959
Si Si8 0.170053 0.250000 0.049315
O O1 0.774182 0.404344 0.085956
O O2 0.790341 0.304304 0.074426
O O3 0.000000 0.365503 0.041397
O O4 0.750000 0.367671 0.000000
O O5 0.765519 0.071039 0.174764
O O6 0.000000 0.046560 0.126313
O O7 0.750000 0.000000 0.109191
O O8 0.216062 0.750000 0.549650
O O9 0.250000 0.666616 0.500000
O O10 0.228318 0.666978 0.595019
O O11 0.000000 0.683449 0.539833
O O12 0.211750 0.250000 0.245898
O O13 0.205936 0.319092 0.312116
O O14 0.267106 0.342534 0.221402
O O15 0.000000 0.319009 0.245708
O O16 0.250000 0.500000 0.323302
O O17 0.238355 0.591680 0.350483
O O18 0.187416 0.568862 0.260575
O O19 0.000000 0.544518 0.328755
O O20 0.500000 0.869876 0.357630
O O21 0.000000 0.894924 0.196679
O O22 0.000000 0.250000 0.037445
O O23 0.250000 0.250000 0.000000
#
# Coordination Sequence:
#
# PCOD8279689 Si02
#       8
#    16  16  16  16  16  16  16   8
#     4   9  19  35  57  82 107 135 171 212 258 308
#     4  11  23  38  55  78 106 140 178 217 261 312
#     4   9  17  29  46  70 100 133 167 202 241 290
#     4   9  17  31  52  76 103 137 174 212 255 306
#     4  10  20  33  51  74  97 125 163 208 256 303
#     4   9  17  30  49  72  99 131 168 208 250 298
#     4  10  21  36  53  75 104 137 172 213 258 306
#     4   8  14  30  54  78 102 128 160 204 248 294
#
# _framework density 17.85623
#
# number of rings (size 3 to 8) (size 9 to 14) (size 15 to 20)
#    0.000    2.533    0.000    2.000    0.000    6.400 
#    1.200    1.333    0.000    2.800    0.000    2.800 
#    0.000    0.000    0.000    0.000    0.000    0.000 
#
# Total GULP energy -743790.829348 kJ/mol
# GULP energy per Si atom -12396.513822 kJ/mol
# Density = 1.781559 g / cm^3
# Si number density = 17.856230 Si / 1000 Ang^3
#
#
#
# Elastic Constant Matrix: (Units=GPa)
#
#
# Indices 1 2 3 4 5 6 
#
# 1 64.5257 53.6273 34.5734 0.0000 0.0000 0.0000
# 2 53.6273 143.2988 51.8268 0.0000 0.0000 0.0000
# 3 34.5734 51.8268 72.6592 0.0000 0.0000 0.0000
# 4 0.0000 0.0000 0.0000 26.0498 0.0000 0.0000
# 5 0.0000 0.0000 0.0000 0.0000 27.5568 0.0000
# 6 0.0000 0.0000 0.0000 0.0000 0.0000 31.2873
#
#
#
# Elastic Compliance Matrix: (Units=1/GPa)
#
#
# Indices 1 2 3 4 5 6 
#
# 1 0.024886 -0.006779 -0.007006 0.000000 0.000000 0.000000
# 2 -0.006779 0.011251 -0.004800 0.000000 0.000000 0.000000
# 3 -0.007006 -0.004800 0.020520 0.000000 0.000000 0.000000
# 4 0.000000 0.000000 0.000000 0.038388 0.000000 0.000000
# 5 0.000000 0.000000 0.000000 0.000000 0.036289 0.000000
# 6 0.000000 0.000000 0.000000 0.000000 0.000000 0.031962
#
#
# Mechanical properties :
#
#
# Convention : Reuss Voigt Hill
#
# Bulk Modulus (GPa) = 51.31474 62.28210 56.79842
# Shear Modulus (GPa) = 24.15913 26.34251 25.25082
#
# Velocity S-wave (km/s) = 3.68228 3.84507 3.76456
# Velocity P-wave (km/s) = 6.84683 7.39380 7.12556
#
# Compressibility (1/GPa) = 0.01948758
#
# Stress axis : x y z
#
# Youngs Moduli (GPa) = 40.18365 88.87815 48.73296
#
# Poissons Ratio (x) = 0.60253 0.34141
# Poissons Ratio (y) = 0.27242 0.23390
# Poissons Ratio (z) = 0.28152 0.42658
#
# Static dielectric constant tensor:
#      x y z
#    x 3.220390 0.000000 0.000000 
#    y 0.000000 3.488680 0.000000 
#    z 0.000000 0.000000 3.231820 
# 
# 
# High freq. dielectric constant tensor:
#      x y z
#    x 1.693170 0.000000 0.000000 
#    y 0.000000 1.697780 0.000000 
#    z 0.000000 0.000000 1.673770 
# 
# From -- ./inp_files/43903.got.cif
#   From: 2010.03.12/outbox.cif.g09.slc.cpg/sg67_22_cif.got.tgz:43903.got - 2010.04.10 22:41:39.
