data_PCOD8279492
_publ_section_title
;
Structure prediction by ZEFSAII (Michael W. Deem and Ramdas Pophale) SiO2 
 PCOD8279492
Probable space group: C M M A
;
_chemical_formula_sum "Si O2"
_cell_formula_units_Z 80
_cell_length_a 26.850818
_cell_length_b 8.748333
_cell_length_c 19.899261
_cell_angle_alpha 90.000000
_cell_angle_beta 90.000000
_cell_angle_gamma 90.000000
_cell_volume 4674.334363
_symmetry_space_group_name_H-M "C M M A"
_symmetry_group_IT_number 67
_symmetry_cell_setting 'orthorhombic'
loop_
_space_group_symop_operation_xyz
x,y,z
-x,1/2-y,z
x,-y,-z
-x,1/2+y,-z
-x,-y,-z
x,1/2+y,-z
-x,y,z
x,1/2-y,z
1/2+x,1/2+y,z
1/2-x,-y,z
1/2+x,1/2-y,-z
1/2-x,y,-z
1/2-x,1/2-y,-z
1/2+x,y,-z
1/2-x,1/2+y,z
1/2+x,-y,z
loop_
_atom_site_type_symbol
_atom_site_label
_atom_site_fract_x
_atom_site_fract_y
_atom_site_fract_z
Si Si1 0.440851 0.579175 0.433506
Si Si2 0.196974 0.568356 0.927812
Si Si3 0.943595 0.069351 0.704213
Si Si4 0.442575 0.918157 0.063620
Si Si5 0.384967 0.071724 0.167196
O O1 0.418191 0.500000 0.500000
O O2 0.500000 0.579459 0.438390
O O3 0.419524 0.750000 0.429576
O O4 0.423654 0.489766 0.367160
O O5 0.200937 0.750000 0.933967
O O6 0.250000 0.500000 0.906885
O O7 0.159424 0.524145 0.867216
O O8 0.179963 0.500000 0.000000
O O9 0.946839 0.250000 0.702315
O O10 0.901164 0.018563 0.757917
O O11 0.000000 0.005405 0.719592
O O12 0.500000 0.894035 0.050163
O O13 0.417524 0.750000 0.074062
O O14 0.434756 0.031350 0.125829
O O15 0.416883 0.000000 0.000000
O O16 0.371753 0.250000 0.164438
#
# Coordination Sequence:
#
# PCOD8279492 Si02
#       5
#    16  16  16  16  16
#     4   9  16  26  42  63  89 123 162 200 234 270
#     4  11  22  38  57  75  94 117 151 195 243 292
#     4   9  18  31  46  66  95 130 164 196 231 273
#     4  10  20  32  45  62  86 118 156 194 229 269
#     4  11  21  33  49  69  94 123 154 190 236 285
#
# _framework density 17.114736000000001
#
# number of rings (size 3 to 8) (size 9 to 14) (size 15 to 20)
#    0.000    2.000    0.000    5.400    0.000    6.000 
#    0.000    2.000    0.000    0.000    0.000    0.000 
#    0.000    0.800    0.000    8.400    0.000    4.000 
#
# Total GULP energy -495625.812643 kJ/mol
# GULP energy per Si atom -12390.645316 kJ/mol
# Density = 1.707578 g / cm^3
# Si number density = 17.114736 Si / 1000 Ang^3
#
#
#
# Elastic Constant Matrix: (Units=GPa)
#
#
# Indices 1 2 3 4 5 6 
#
# 1 66.1268 32.1169 44.8824 0.0000 0.0000 0.0000
# 2 32.1169 71.7540 44.3636 0.0000 0.0000 0.0000
# 3 44.8824 44.3636 147.5583 0.0000 0.0000 0.0000
# 4 0.0000 0.0000 0.0000 30.7582 0.0000 0.0000
# 5 0.0000 0.0000 0.0000 0.0000 18.8313 0.0000
# 6 0.0000 0.0000 0.0000 0.0000 0.0000 18.4864
#
#
#
# Elastic Compliance Matrix: (Units=1/GPa)
#
#
# Indices 1 2 3 4 5 6 
#
# 1 0.021488 -0.006850 -0.004476 0.000000 0.000000 0.000000
# 2 -0.006850 0.019302 -0.003720 0.000000 0.000000 0.000000
# 3 -0.004476 -0.003720 0.009257 0.000000 0.000000 0.000000
# 4 0.000000 0.000000 0.000000 0.032512 0.000000 0.000000
# 5 0.000000 0.000000 0.000000 0.000000 0.053103 0.000000
# 6 0.000000 0.000000 0.000000 0.000000 0.000000 0.054094
#
#
# Mechanical properties :
#
#
# Convention : Reuss Voigt Hill
#
# Bulk Modulus (GPa) = 50.11394 58.68497 54.39946
# Shear Modulus (GPa) = 22.07508 24.55359 23.31434
#
# Velocity S-wave (km/s) = 3.59532 3.79178 3.69485
# Velocity P-wave (km/s) = 6.82494 7.31667 7.07508
#
# Compressibility (1/GPa) = 0.01995453
#
# Stress axis : x y z
#
# Youngs Moduli (GPa) = 46.53808 51.80689 108.02793
#
# Poissons Ratio (x) = 0.35489 0.48357
# Poissons Ratio (y) = 0.31880 0.40183
# Poissons Ratio (z) = 0.20832 0.19271
#
# Static dielectric constant tensor:
#      x y z
#    x 2.918100 0.000000 0.000000 
#    y 0.000000 3.473790 0.000000 
#    z 0.000000 0.000000 3.313030 
# 
# 
# High freq. dielectric constant tensor:
#      x y z
#    x 1.616540 0.000000 0.000000 
#    y 0.000000 1.676850 0.000000 
#    z 0.000000 0.000000 1.654830 
# 
# From -- ./inp_files/32139.got.cif
#   From: 2010.03.12/outbox.cif.g09.slc.cpg/sg67_17_cif.got.tgz:32139.got - 2010.04.10 22:41:39.
