data_PCOD8279639
_publ_section_title
;
Structure prediction by ZEFSAII (Michael W. Deem and Ramdas Pophale) SiO2 
 PCOD8279639
Probable space group: C M M A
;
_chemical_formula_sum "Si O2"
_cell_formula_units_Z 96
_cell_length_a 9.554544
_cell_length_b 18.679283
_cell_length_c 30.578809
_cell_angle_alpha 90.000000
_cell_angle_beta 90.000000
_cell_angle_gamma 90.000000
_cell_volume 5457.462157
_symmetry_space_group_name_H-M "C M M A"
_symmetry_group_IT_number 67
_symmetry_cell_setting 'orthorhombic'
loop_
_space_group_symop_operation_xyz
x,y,z
-x,1/2-y,z
x,-y,-z
-x,1/2+y,-z
-x,-y,-z
x,1/2+y,-z
-x,y,z
x,1/2-y,z
1/2+x,1/2+y,z
1/2-x,-y,z
1/2+x,1/2-y,-z
1/2-x,y,-z
1/2-x,1/2-y,-z
1/2+x,y,-z
1/2-x,1/2+y,z
1/2+x,-y,z
loop_
_atom_site_type_symbol
_atom_site_label
_atom_site_fract_x
_atom_site_fract_y
_atom_site_fract_z
Si Si1 0.834808 0.926767 0.624943
Si Si2 0.661625 0.331934 0.541676
Si Si3 0.165385 0.670171 0.704940
Si Si4 0.161695 0.667586 0.959798
Si Si5 0.337150 0.430156 0.782210
Si Si6 0.838502 0.068430 0.118777
O O1 0.797595 0.882726 0.581596
O O2 0.780186 0.879343 0.665531
O O3 0.000000 0.943127 0.628450
O O4 0.750000 0.000000 0.624525
O O5 0.500000 0.340121 0.529142
O O6 0.696529 0.250000 0.554753
O O7 0.750000 0.357046 0.500000
O O8 0.231608 0.750000 0.702199
O O9 0.209531 0.634794 0.751012
O O10 0.000000 0.676851 0.701246
O O11 0.200034 0.750000 0.953324
O O12 0.203944 0.631081 0.914273
O O13 0.000000 0.655568 0.971155
O O14 0.250000 0.634683 0.000000
O O15 0.500000 0.448934 0.775589
O O16 0.250000 0.500000 0.769137
O O17 0.304631 0.406085 0.831893
O O18 0.000000 0.047255 0.114179
O O19 0.750000 0.000000 0.105401
#
# Coordination Sequence:
#
# PCOD8279639 Si02
#       6
#    16  16  16  16  16  16
#     4  10  20  33  50  72  98 127 158 194 235 278
#     4   9  18  33  52  72  95 125 160 197 236 277
#     4   9  17  30  50  74  96 121 157 196 231 272
#     4   9  18  32  48  66  90 120 154 192 232 273
#     4   9  17  30  49  71  95 123 153 187 229 276
#     4   9  18  31  47  69  95 122 152 188 230 274
#
# _framework density 17.590593999999999
#
# number of rings (size 3 to 8) (size 9 to 14) (size 15 to 20)
#    0.000    2.833    0.000    1.000    0.000    4.667 
#    0.000    6.667    0.000    3.000    0.000    4.667 
#    0.000    0.000    0.000    0.000    0.000    0.000 
#
# Total GULP energy -595186.159406 kJ/mol
# GULP energy per Si atom -12399.711654 kJ/mol
# Density = 1.755056 g / cm^3
# Si number density = 17.590594 Si / 1000 Ang^3
#
#
#
# Elastic Constant Matrix: (Units=GPa)
#
#
# Indices 1 2 3 4 5 6 
#
# 1 41.9152 48.6750 50.8445 0.0000 0.0000 0.0000
# 2 48.6750 130.7543 91.5425 0.0000 0.0000 0.0000
# 3 50.8445 91.5425 144.2534 0.0000 0.0000 0.0000
# 4 0.0000 0.0000 0.0000 32.2020 0.0000 0.0000
# 5 0.0000 0.0000 0.0000 0.0000 22.3156 0.0000
# 6 0.0000 0.0000 0.0000 0.0000 0.0000 27.7469
#
#
#
# Elastic Compliance Matrix: (Units=1/GPa)
#
#
# Indices 1 2 3 4 5 6 
#
# 1 0.049289 -0.011131 -0.010309 0.000000 0.000000 0.000000
# 2 -0.011131 0.016276 -0.006405 0.000000 0.000000 0.000000
# 3 -0.010309 -0.006405 0.014631 0.000000 0.000000 0.000000
# 4 0.000000 0.000000 0.000000 0.031054 0.000000 0.000000
# 5 0.000000 0.000000 0.000000 0.000000 0.044812 0.000000
# 6 0.000000 0.000000 0.000000 0.000000 0.000000 0.036040
#
#
# Mechanical properties :
#
#
# Convention : Reuss Voigt Hill
#
# Bulk Modulus (GPa) = 40.80816 77.67188 59.24002
# Shear Modulus (GPa) = 19.53422 24.84363 22.18892
#
# Velocity S-wave (km/s) = 3.33602 3.76217 3.55548
# Velocity P-wave (km/s) = 6.17154 7.94500 7.11375
#
# Compressibility (1/GPa) = 0.02450490
#
# Stress axis : x y z
#
# Youngs Moduli (GPa) = 20.28841 61.43975 68.34937
#
# Poissons Ratio (x) = 0.68389 0.70462
# Poissons Ratio (y) = 0.22583 0.43781
# Poissons Ratio (z) = 0.20916 0.39355
#
# Static dielectric constant tensor:
#      x y z
#    x 3.098130 0.000000 0.000000 
#    y 0.000000 3.306350 0.000000 
#    z 0.000000 0.000000 3.471090 
# 
# 
# High freq. dielectric constant tensor:
#      x y z
#    x 1.657190 0.000000 0.000000 
#    y 0.000000 1.676560 0.000000 
#    z 0.000000 0.000000 1.694000 
# 
# From -- ./inp_files/43453.got.cif
#   From: 2010.03.12/outbox.cif.g09.slc.cpg/sg67_22_cif.got.tgz:43453.got - 2010.04.10 22:41:39.
