data_PCOD8279382
_publ_section_title
;
Structure prediction by ZEFSAII (Michael W. Deem and Ramdas Pophale) SiO2 
 PCOD8279382
Probable space group: C M M A
;
_chemical_formula_sum "Si O2"
_cell_formula_units_Z 64
_cell_length_a 12.575530
_cell_length_b 28.663129
_cell_length_c 9.853186
_cell_angle_alpha 90.000000
_cell_angle_beta 90.000000
_cell_angle_gamma 90.000000
_cell_volume 3551.620687
_symmetry_space_group_name_H-M "C M M A"
_symmetry_group_IT_number 67
_symmetry_cell_setting 'orthorhombic'
loop_
_space_group_symop_operation_xyz
x,y,z
-x,1/2-y,z
x,-y,-z
-x,1/2+y,-z
-x,-y,-z
x,1/2+y,-z
-x,y,z
x,1/2-y,z
1/2+x,1/2+y,z
1/2-x,-y,z
1/2+x,1/2-y,-z
1/2-x,y,-z
1/2-x,1/2-y,-z
1/2+x,y,-z
1/2-x,1/2+y,z
1/2+x,-y,z
loop_
_atom_site_type_symbol
_atom_site_label
_atom_site_fract_x
_atom_site_fract_y
_atom_site_fract_z
Si Si1 0.681833 0.627104 0.134665
Si Si2 0.000000 0.856585 0.542603
Si Si3 0.825371 0.899272 0.382661
Si Si4 0.500000 0.696196 0.200929
Si Si5 0.000000 0.474227 0.643583
Si Si6 0.000000 0.431781 0.219742
O O1 0.761010 0.624655 0.261727
O O2 0.606962 0.672843 0.141461
O O3 0.605687 0.581670 0.135288
O O4 0.750000 0.628855 0.000000
O O5 0.896646 0.857922 0.447239
O O6 0.000000 0.902968 0.638310
O O7 0.000000 0.810516 0.635369
O O8 0.750000 0.919682 0.500000
O O9 0.896281 0.942570 0.333025
O O10 0.500000 0.750000 0.161278
O O11 0.000000 0.500000 0.500000
O O12 0.000000 0.513100 0.760064
#
# Coordination Sequence:
#
# PCOD8279382 Si02
#       6
#    16   8  16   8   8   8
#     4  10  22  39  59  80 115 158 190 225 295 354
#     4   9  18  34  54  83 117 141 186 236 292 339
#     4  11  18  34  58  82 113 157 196 229 278 341
#     4  10  21  39  64  87 115 139 182 250 298 348
#     4  11  20  30  52  90 116 144 205 253 263 311
#     4  10  19  36  49  81 118 146 189 244 284 314
#
# _framework density 18.019942
#
# number of rings (size 3 to 8) (size 9 to 14) (size 15 to 20)
#    0.000    2.000    7.500    0.000    0.000    8.000 
#    0.000    6.250    0.000    1.500    0.000    0.000 
#    0.000    0.000    0.000    0.000    0.000    0.000 
#
# Total GULP energy -396665.903259 kJ/mol
# GULP energy per Si atom -12395.809477 kJ/mol
# Density = 1.797893 g / cm^3
# Si number density = 18.019942 Si / 1000 Ang^3
#
#
#
# Elastic Constant Matrix: (Units=GPa)
#
#
# Indices 1 2 3 4 5 6 
#
# 1 152.8232 54.0562 76.0339 0.0000 0.0000 0.0000
# 2 54.0562 99.5445 46.1970 0.0000 0.0000 0.0000
# 3 76.0339 46.1970 114.0494 0.0000 0.0000 0.0000
# 4 0.0000 0.0000 0.0000 14.8026 0.0000 0.0000
# 5 0.0000 0.0000 0.0000 0.0000 35.0612 0.0000
# 6 0.0000 0.0000 0.0000 0.0000 0.0000 18.2108
#
#
#
# Elastic Compliance Matrix: (Units=1/GPa)
#
#
# Indices 1 2 3 4 5 6 
#
# 1 0.010478 -0.003015 -0.005764 0.000000 0.000000 0.000000
# 2 -0.003015 0.013239 -0.003353 0.000000 0.000000 0.000000
# 3 -0.005764 -0.003353 0.013969 0.000000 0.000000 0.000000
# 4 0.000000 0.000000 0.000000 0.067556 0.000000 0.000000
# 5 0.000000 0.000000 0.000000 0.000000 0.028522 0.000000
# 6 0.000000 0.000000 0.000000 0.000000 0.000000 0.054912
#
#
# Mechanical properties :
#
#
# Convention : Reuss Voigt Hill
#
# Bulk Modulus (GPa) = 74.50201 79.88792 77.19497
# Shear Modulus (GPa) = 22.99779 26.29024 24.64401
#
# Velocity S-wave (km/s) = 3.57633 3.82377 3.70212
# Velocity P-wave (km/s) = 7.64771 7.99526 7.82342
#
# Compressibility (1/GPa) = 0.01342246
#
# Stress axis : x y z
#
# Youngs Moduli (GPa) = 95.44132 75.53559 71.58760
#
# Poissons Ratio (x) = 0.22772 0.41263
# Poissons Ratio (y) = 0.28773 0.24001
# Poissons Ratio (z) = 0.55013 0.25325
#
# Static dielectric constant tensor:
#      x y z
#    x 3.654240 0.000000 0.000000 
#    y 0.000000 3.043090 0.000000 
#    z 0.000000 0.000000 3.378910 
# 
# 
# High freq. dielectric constant tensor:
#      x y z
#    x 1.723210 0.000000 0.000000 
#    y 0.000000 1.659730 0.000000 
#    z 0.000000 0.000000 1.682900 
# 
# From -- ./inp_files/6762.got.cif
#   From: 2010.03.12/outbox.cif.g09.slc.cpg/sg67_4_cif.got.tgz:6762.got - 2010.04.10 22:41:39.
