data_PCOD8279588
_publ_section_title
;
Structure prediction by ZEFSAII (Michael W. Deem and Ramdas Pophale) SiO2 
 PCOD8279588
Probable space group: C M M A
;
_chemical_formula_sum "Si O2"
_cell_formula_units_Z 96
_cell_length_a 25.988015
_cell_length_b 9.799434
_cell_length_c 22.050713
_cell_angle_alpha 90.000000
_cell_angle_beta 90.000000
_cell_angle_gamma 90.000000
_cell_volume 5615.607401
_symmetry_space_group_name_H-M "C M M A"
_symmetry_group_IT_number 67
_symmetry_cell_setting 'orthorhombic'
loop_
_space_group_symop_operation_xyz
x,y,z
-x,1/2-y,z
x,-y,-z
-x,1/2+y,-z
-x,-y,-z
x,1/2+y,-z
-x,y,z
x,1/2-y,z
1/2+x,1/2+y,z
1/2-x,-y,z
1/2+x,1/2-y,-z
1/2-x,y,-z
1/2-x,1/2-y,-z
1/2+x,y,-z
1/2-x,1/2+y,z
1/2+x,-y,z
loop_
_atom_site_type_symbol
_atom_site_label
_atom_site_fract_x
_atom_site_fract_y
_atom_site_fract_z
Si Si1 0.652434 0.491599 0.863319
Si Si2 0.677346 0.750000 0.056108
Si Si3 0.058646 0.907737 0.209385
Si Si4 0.298079 0.750000 0.920321
Si Si5 0.597586 0.091994 0.684812
Si Si6 0.296340 0.902190 0.258757
Si Si7 0.060532 0.905331 0.553713
O O1 0.648918 0.383867 0.918140
O O2 0.595131 0.537450 0.844437
O O3 0.686799 0.618518 0.882408
O O4 0.681511 0.420700 0.808180
O O5 0.737235 0.750000 0.072396
O O6 0.671420 0.750000 0.983788
O O7 0.072127 0.750000 0.223714
O O8 0.000000 0.922660 0.186835
O O9 0.065709 0.995682 0.270154
O O10 0.581641 0.250000 0.696831
O O11 0.658320 0.070561 0.693492
O O12 0.585814 0.047181 0.616484
O O13 0.274532 0.750000 0.264216
O O14 0.250000 0.000000 0.275443
O O15 0.075288 0.750000 0.538159
O O16 0.000000 0.923968 0.560974
O O17 0.082335 0.000000 0.500000
#
# Coordination Sequence:
#
# PCOD8279588 Si02
#       7
#    16   8  16   8  16  16  16
#     4  11  21  36  53  78 104 134 169 211 257 307
#     4  11  22  36  55  79 105 131 173 204 254 312
#     4  10  21  36  54  76 104 137 171 212 259 304
#     4  11  22  36  55  77 105 139 161 208 258 308
#     4   9  19  34  51  77 105 134 173 213 253 299
#     4  10  20  32  51  75 104 135 167 209 255 306
#     4   9  17  30  49  73 102 134 166 205 253 300
#
# _framework density 17.095212
#
# number of rings (size 3 to 8) (size 9 to 14) (size 15 to 20)
#    0.000    2.000    1.667    2.500    2.333    3.667 
#    0.000    1.667    0.000    3.500    0.000    3.500 
#    0.000    0.000    0.000    0.000    0.000    0.000 
#
# Total GULP energy -595326.908172 kJ/mol
# GULP energy per Si atom -12402.643920 kJ/mol
# Density = 1.705630 g / cm^3
# Si number density = 17.095212 Si / 1000 Ang^3
#
#
#
# Elastic Constant Matrix: (Units=GPa)
#
#
# Indices 1 2 3 4 5 6 
#
# 1 74.3161 40.3196 32.8183 0.0000 0.0000 0.0000
# 2 40.3196 96.1766 32.3707 0.0000 0.0000 0.0000
# 3 32.8183 32.3707 88.9748 0.0000 0.0000 0.0000
# 4 0.0000 0.0000 0.0000 23.5041 0.0000 0.0000
# 5 0.0000 0.0000 0.0000 0.0000 26.0977 0.0000
# 6 0.0000 0.0000 0.0000 0.0000 0.0000 23.8844
#
#
#
# Elastic Compliance Matrix: (Units=1/GPa)
#
#
# Indices 1 2 3 4 5 6 
#
# 1 0.018987 -0.006384 -0.004681 0.000000 0.000000 0.000000
# 2 -0.006384 0.013995 -0.002737 0.000000 0.000000 0.000000
# 3 -0.004681 -0.002737 0.013961 0.000000 0.000000 0.000000
# 4 0.000000 0.000000 0.000000 0.042546 0.000000 0.000000
# 5 0.000000 0.000000 0.000000 0.000000 0.038318 0.000000
# 6 0.000000 0.000000 0.000000 0.000000 0.000000 0.041868
#
#
# Mechanical properties :
#
#
# Convention : Reuss Voigt Hill
#
# Bulk Modulus (GPa) = 51.70695 52.27609 51.99152
# Shear Modulus (GPa) = 24.54291 24.96117 24.75204
#
# Velocity S-wave (km/s) = 3.79312 3.82531 3.80925
# Velocity P-wave (km/s) = 7.03532 7.08212 7.05876
#
# Compressibility (1/GPa) = 0.01933976
#
# Stress axis : x y z
#
# Youngs Moduli (GPa) = 52.66824 71.45316 71.62677
#
# Poissons Ratio (x) = 0.45618 0.33525
# Poissons Ratio (y) = 0.33625 0.19603
# Poissons Ratio (z) = 0.24651 0.19556
#
# Static dielectric constant tensor:
#      x y z
#    x 3.142970 0.000000 0.000000 
#    y 0.000000 3.290530 0.000000 
#    z 0.000000 0.000000 3.203110 
# 
# 
# High freq. dielectric constant tensor:
#      x y z
#    x 1.645910 0.000000 0.000000 
#    y 0.000000 1.676370 0.000000 
#    z 0.000000 0.000000 1.649250 
# 
# From -- ./inp_files/42710.got.cif
#   From: 2010.03.12/outbox.cif.g09.slc.cpg/sg67_22_cif.got.tgz:42710.got - 2010.04.10 22:41:39.
