data_PCOD8279779
_publ_section_title
;
Structure prediction by ZEFSAII (Michael W. Deem and Ramdas Pophale) SiO2 
 PCOD8279779
Probable space group: C M M A
;
_chemical_formula_sum "Si O2"
_cell_formula_units_Z 96
_cell_length_a 27.163492
_cell_length_b 9.097461
_cell_length_c 24.315461
_cell_angle_alpha 90.000000
_cell_angle_beta 90.000000
_cell_angle_gamma 90.000000
_cell_volume 6008.807765
_symmetry_space_group_name_H-M "C M M A"
_symmetry_group_IT_number 67
_symmetry_cell_setting 'orthorhombic'
loop_
_space_group_symop_operation_xyz
x,y,z
-x,1/2-y,z
x,-y,-z
-x,1/2+y,-z
-x,-y,-z
x,1/2+y,-z
-x,y,z
x,1/2-y,z
1/2+x,1/2+y,z
1/2-x,-y,z
1/2+x,1/2-y,-z
1/2-x,y,-z
1/2-x,1/2-y,-z
1/2+x,y,-z
1/2-x,1/2+y,z
1/2+x,-y,z
loop_
_atom_site_type_symbol
_atom_site_label
_atom_site_fract_x
_atom_site_fract_y
_atom_site_fract_z
Si Si1 0.058684 0.412717 0.448444
Si Si2 0.150094 0.075856 0.942481
Si Si3 0.554897 0.080510 0.121867
Si Si4 0.299391 0.423962 0.842083
Si Si5 0.444915 0.574797 0.329160
Si Si6 0.896957 0.078560 0.219562
O O1 0.081458 0.500000 0.500000
O O2 0.080824 0.250000 0.452965
O O3 0.073255 0.484344 0.389074
O O4 0.000000 0.408432 0.452011
O O5 0.160026 0.250000 0.945760
O O6 0.093756 0.039171 0.925712
O O7 0.186832 0.002342 0.899089
O O8 0.161330 0.000000 0.000000
O O9 0.500000 0.042693 0.100339
O O10 0.560339 0.250000 0.137446
O O11 0.565118 0.992994 0.177363
O O12 0.292538 0.250000 0.851542
O O13 0.250000 0.500000 0.819568
O O14 0.340798 0.457741 0.796298
O O15 0.500000 0.516907 0.315992
O O16 0.445918 0.750000 0.332982
O O17 0.408169 0.519433 0.281113
O O18 0.907687 0.250000 0.216290
#
# Coordination Sequence:
#
# PCOD8279779 Si02
#       6
#    16  16  16  16  16  16
#     4   8  13  21  33  50  76 111 146 175 202 233
#     4  10  20  34  50  68  90 113 140 173 206 245
#     4   9  18  31  45  63  90 120 143 168 207 247
#     4  10  20  34  51  69  87 108 135 169 214 262
#     4   8  13  22  38  60  85 113 143 174 206 238
#     4   9  17  29  46  66  85 108 143 180 209 248
#
# _framework density 15.976547
#
# number of rings (size 3 to 8) (size 9 to 14) (size 15 to 20)
#    0.000    3.000    0.000    2.500    0.000    3.000 
#    0.000    2.500    0.000    3.000    0.000    0.000 
#    0.000    0.667    0.000    8.333    0.000    0.333 
#
# Total GULP energy -594912.221182 kJ/mol
# GULP energy per Si atom -12394.004608 kJ/mol
# Density = 1.594018 g / cm^3
# Si number density = 15.976547 Si / 1000 Ang^3
#
#
#
# Elastic Constant Matrix: (Units=GPa)
#
#
# Indices 1 2 3 4 5 6 
#
# 1 71.0285 25.2472 36.5315 0.0000 0.0000 0.0000
# 2 25.2472 52.3127 37.3412 0.0000 0.0000 0.0000
# 3 36.5315 37.3412 132.6539 0.0000 0.0000 0.0000
# 4 0.0000 0.0000 0.0000 22.4692 0.0000 0.0000
# 5 0.0000 0.0000 0.0000 0.0000 14.6360 0.0000
# 6 0.0000 0.0000 0.0000 0.0000 0.0000 19.0278
#
#
#
# Elastic Compliance Matrix: (Units=1/GPa)
#
#
# Indices 1 2 3 4 5 6 
#
# 1 0.017982 -0.006437 -0.003140 0.000000 0.000000 0.000000
# 2 -0.006437 0.026227 -0.005610 0.000000 0.000000 0.000000
# 3 -0.003140 -0.005610 0.009982 0.000000 0.000000 0.000000
# 4 0.000000 0.000000 0.000000 0.044505 0.000000 0.000000
# 5 0.000000 0.000000 0.000000 0.000000 0.068325 0.000000
# 6 0.000000 0.000000 0.000000 0.000000 0.000000 0.052555
#
#
# Mechanical properties :
#
#
# Convention : Reuss Voigt Hill
#
# Bulk Modulus (GPa) = 41.98689 50.47054 46.22872
# Shear Modulus (GPa) = 19.38818 21.68494 20.53656
#
# Velocity S-wave (km/s) = 3.48737 3.68815 3.58916
# Velocity P-wave (km/s) = 6.52327 7.05660 6.79517
#
# Compressibility (1/GPa) = 0.02381696
#
# Stress axis : x y z
#
# Youngs Moduli (GPa) = 55.61145 38.12875 100.17694
#
# Poissons Ratio (x) = 0.24544 0.31456
# Poissons Ratio (y) = 0.35797 0.56199
# Poissons Ratio (z) = 0.17462 0.21390
#
# Static dielectric constant tensor:
#      x y z
#    x 2.931120 0.000000 0.000000 
#    y 0.000000 3.002310 0.000000 
#    z 0.000000 0.000000 3.271270 
# 
# 
# High freq. dielectric constant tensor:
#      x y z
#    x 1.582940 0.000000 0.000000 
#    y 0.000000 1.605210 0.000000 
#    z 0.000000 0.000000 1.612300 
# 
# From -- ./inp_files/40926.got.cif
#   From: 2010.03.12/outbox.cif.g09.slc.cpg/sg67_21_cif.got.tgz:40926.got - 2010.04.10 22:41:39.
