data_PCOD8279466
_publ_section_title
;
Structure prediction by ZEFSAII (Michael W. Deem and Ramdas Pophale) SiO2 
 PCOD8279466
Probable space group: C M M A
;
_chemical_formula_sum "Si O2"
_cell_formula_units_Z 96
_cell_length_a 9.108167
_cell_length_b 26.944528
_cell_length_c 23.998304
_cell_angle_alpha 90.000000
_cell_angle_beta 90.000000
_cell_angle_gamma 90.000000
_cell_volume 5889.550034
_symmetry_space_group_name_H-M "C M M A"
_symmetry_group_IT_number 67
_symmetry_cell_setting 'orthorhombic'
loop_
_space_group_symop_operation_xyz
x,y,z
-x,1/2-y,z
x,-y,-z
-x,1/2+y,-z
-x,-y,-z
x,1/2+y,-z
-x,y,z
x,1/2-y,z
1/2+x,1/2+y,z
1/2-x,-y,z
1/2+x,1/2-y,-z
1/2-x,y,-z
1/2-x,1/2-y,-z
1/2+x,y,-z
1/2-x,1/2+y,z
1/2+x,-y,z
loop_
_atom_site_type_symbol
_atom_site_label
_atom_site_fract_x
_atom_site_fract_y
_atom_site_fract_z
Si Si1 0.172021 0.549138 0.840382
Si Si2 0.172771 0.599344 0.058191
Si Si3 0.667535 0.305496 0.125362
Si Si4 0.338575 0.808841 0.551626
Si Si5 0.669678 0.647904 0.224634
Si Si6 0.825601 0.306527 0.674489
O O1 0.250000 0.500000 0.816449
O O2 0.253175 0.562818 0.897620
O O3 0.196678 0.591510 0.794372
O O4 0.000000 0.540503 0.852067
O O5 0.203566 0.656342 0.075753
O O6 0.000000 0.587843 0.053992
O O7 0.250000 0.589151 0.000000
O O8 0.500000 0.312468 0.145462
O O9 0.695916 0.250000 0.102536
O O10 0.769179 0.314469 0.178524
O O11 0.500000 0.832225 0.548044
O O12 0.347715 0.750000 0.545254
O O13 0.250000 0.832476 0.500000
O O14 0.269589 0.821190 0.612297
O O15 0.500000 0.660012 0.232740
O O16 0.751241 0.655670 0.282900
O O17 0.779345 0.250000 0.688780
O O18 0.000000 0.311778 0.677618
#
# Coordination Sequence:
#
# PCOD8279466 Si02
#       6
#    16  16  16  16  16  16
#     4  10  21  37  54  71  90 112 141 179 225 273
#     4  10  20  34  51  71  94 118 146 180 217 259
#     4   9  18  32  48  65  89 123 155 180 213 258
#     4   8  14  24  37  55  82 118 158 194 223 251
#     4  10  20  31  45  68  93 114 144 187 226 262
#     4   9  17  28  42  62  91 127 161 188 217 258
#
# _framework density 16.300056000000001
#
# number of rings (size 3 to 8) (size 9 to 14) (size 15 to 20)
#    0.000    2.667    0.000    3.000    0.000    6.667 
#    0.000    3.333    0.000    0.000    0.000    0.000 
#    0.000    0.667    0.000    7.333    0.000    5.667 
#
# Total GULP energy -595105.561126 kJ/mol
# GULP energy per Si atom -12398.032523 kJ/mol
# Density = 1.626296 g / cm^3
# Si number density = 16.300056 Si / 1000 Ang^3
#
#
#
# Elastic Constant Matrix: (Units=GPa)
#
#
# Indices 1 2 3 4 5 6 
#
# 1 84.3717 34.0014 55.3579 0.0000 0.0000 0.0000
# 2 34.0014 66.3546 28.7988 0.0000 0.0000 0.0000
# 3 55.3579 28.7988 117.7581 0.0000 0.0000 0.0000
# 4 0.0000 0.0000 0.0000 13.4881 0.0000 0.0000
# 5 0.0000 0.0000 0.0000 0.0000 30.8126 0.0000
# 6 0.0000 0.0000 0.0000 0.0000 0.0000 22.9876
#
#
#
# Elastic Compliance Matrix: (Units=1/GPa)
#
#
# Indices 1 2 3 4 5 6 
#
# 1 0.019498 -0.006727 -0.007521 0.000000 0.000000 0.000000
# 2 -0.006727 0.019181 -0.001529 0.000000 0.000000 0.000000
# 3 -0.007521 -0.001529 0.012401 0.000000 0.000000 0.000000
# 4 0.000000 0.000000 0.000000 0.074139 0.000000 0.000000
# 5 0.000000 0.000000 0.000000 0.000000 0.032454 0.000000
# 6 0.000000 0.000000 0.000000 0.000000 0.000000 0.043502
#
#
# Mechanical properties :
#
#
# Convention : Reuss Voigt Hill
#
# Bulk Modulus (GPa) = 51.20967 56.08896 53.64932
# Shear Modulus (GPa) = 20.89979 23.47941 22.18960
#
# Velocity S-wave (km/s) = 3.58465 3.79944 3.69361
# Velocity P-wave (km/s) = 6.97267 7.33026 7.15370
#
# Compressibility (1/GPa) = 0.01952756
#
# Stress axis : x y z
#
# Youngs Moduli (GPa) = 51.28801 52.13503 80.63685
#
# Poissons Ratio (x) = 0.35071 0.60645
# Poissons Ratio (y) = 0.34501 0.12326
# Poissons Ratio (z) = 0.38572 0.07969
#
# Static dielectric constant tensor:
#      x y z
#    x 3.229070 0.000000 0.000000 
#    y 0.000000 2.895980 0.000000 
#    z 0.000000 0.000000 3.091220 
# 
# 
# High freq. dielectric constant tensor:
#      x y z
#    x 1.635910 0.000000 0.000000 
#    y 0.000000 1.595130 0.000000 
#    z 0.000000 0.000000 1.621060 
# 
# From -- ./inp_files/40900.got.cif
#   From: 2010.03.12/outbox.cif.g09.slc.cpg/sg67_21_cif.got.tgz:40900.got - 2010.04.10 22:41:39.
