data_PCOD8279209
_publ_section_title
;
Structure prediction by ZEFSAII (Michael W. Deem and Ramdas Pophale) SiO2 
 PCOD8279209
Probable space group: C M M A
;
_chemical_formula_sum "Si O2"
_cell_formula_units_Z 112
_cell_length_a 24.437050
_cell_length_b 18.251410
_cell_length_c 12.771032
_cell_angle_alpha 90.000000
_cell_angle_beta 90.000000
_cell_angle_gamma 90.000000
_cell_volume 5696.015884
_symmetry_space_group_name_H-M "C M M A"
_symmetry_group_IT_number 67
_symmetry_cell_setting 'orthorhombic'
loop_
_space_group_symop_operation_xyz
x,y,z
-x,1/2-y,z
x,-y,-z
-x,1/2+y,-z
-x,-y,-z
x,1/2+y,-z
-x,y,z
x,1/2-y,z
1/2+x,1/2+y,z
1/2-x,-y,z
1/2+x,1/2-y,-z
1/2-x,y,-z
1/2-x,1/2-y,-z
1/2+x,y,-z
1/2-x,1/2+y,z
1/2+x,-y,z
loop_
_atom_site_type_symbol
_atom_site_label
_atom_site_fract_x
_atom_site_fract_y
_atom_site_fract_z
Si Si1 0.863747 0.337303 0.360136
Si Si2 0.863106 0.835748 0.409677
Si Si3 0.280075 0.075730 0.098916
Si Si4 0.938296 0.666314 0.225849
Si Si5 0.097062 0.421857 0.970439
Si Si6 0.754818 0.835463 0.299399
Si Si7 0.062913 0.836780 0.831069
O O1 0.860373 0.250000 0.364512
O O2 0.878907 0.367991 0.475920
O O3 0.804067 0.369083 0.329148
O O4 0.908946 0.363917 0.276916
O O5 0.875253 0.750000 0.409319
O O6 0.900443 0.869401 0.316975
O O7 0.798817 0.851893 0.390641
O O8 0.342331 0.061184 0.069026
O O9 0.278148 0.130840 0.194005
O O10 0.250000 0.000000 0.127946
O O11 0.250000 0.112925 0.000000
O O12 0.920123 0.750000 0.199058
O O13 0.936066 0.618018 0.121276
O O14 0.000000 0.665176 0.268329
O O15 0.069506 0.500000 0.000000
O O16 0.096121 0.370782 0.072742
O O17 0.749225 0.750000 0.278500
O O18 0.067097 0.750000 0.841187
O O19 0.000000 0.863082 0.830847
#
# Coordination Sequence:
#
# PCOD8279209 Si02
#       7
#    16  16  16  16  16  16  16
#     4   9  18  32  55  86 118 149 184 230 285 339
#     4   9  17  32  55  86 119 149 183 231 285 337
#     4  11  22  37  54  79 114 150 184 232 286 336
#     4  10  21  37  59  88 117 148 192 240 281 328
#     4  12  23  38  60  81 111 153 191 232 286 346
#     4  10  19  33  57  86 113 145 188 233 282 344
#     4  10  22  39  59  86 117 150 193 240 282 332
#
# _framework density 19.662866999999999
#
# number of rings (size 3 to 8) (size 9 to 14) (size 15 to 20)
#    0.000    1.857    2.857    2.143    0.000    5.429 
#    0.000    2.857    0.000    4.286    0.000    2.000 
#    0.000    0.000    0.000    0.000    0.000    0.000 
#
# Total GULP energy -694290.015864 kJ/mol
# GULP energy per Si atom -12398.035998 kJ/mol
# Density = 1.961811 g / cm^3
# Si number density = 19.662867 Si / 1000 Ang^3
#
#
#
# Elastic Constant Matrix: (Units=GPa)
#
#
# Indices 1 2 3 4 5 6 
#
# 1 100.4408 31.5319 42.0993 0.0000 0.0000 0.0000
# 2 31.5319 33.9149 37.3103 0.0000 0.0000 0.0000
# 3 42.0993 37.3103 155.2422 0.0000 0.0000 0.0000
# 4 0.0000 0.0000 0.0000 1.8580 0.0000 0.0000
# 5 0.0000 0.0000 0.0000 0.0000 28.0483 0.0000
# 6 0.0000 0.0000 0.0000 0.0000 0.0000 17.1531
#
#
#
# Elastic Compliance Matrix: (Units=1/GPa)
#
#
# Indices 1 2 3 4 5 6 
#
# 1 0.014156 -0.012150 -0.000919 0.000000 0.000000 0.000000
# 2 -0.012150 0.050513 -0.008845 0.000000 0.000000 0.000000
# 3 -0.000919 -0.008845 0.008816 0.000000 0.000000 0.000000
# 4 0.000000 0.000000 0.000000 0.538214 0.000000 0.000000
# 5 0.000000 0.000000 0.000000 0.000000 0.035653 0.000000
# 6 0.000000 0.000000 0.000000 0.000000 0.000000 0.058299
#
#
# Mechanical properties :
#
#
# Convention : Reuss Voigt Hill
#
# Bulk Modulus (GPa) = 33.71910 56.83123 45.27517
# Shear Modulus (GPa) = 6.58446 21.32229 13.95338
#
# Velocity S-wave (km/s) = 1.83192 3.29659 2.66678
# Velocity P-wave (km/s) = 4.65408 6.59208 5.70596
#
# Compressibility (1/GPa) = 0.02965678
#
# Stress axis : x y z
#
# Youngs Moduli (GPa) = 70.64359 19.79693 113.42436
#
# Poissons Ratio (x) = 0.24054 0.10419
# Poissons Ratio (y) = 0.85835 1.00325
# Poissons Ratio (z) = 0.06489 0.17511
#
# Static dielectric constant tensor:
#      x y z
#    x 3.094770 0.000000 0.000000 
#    y 0.000000 3.232480 0.000000 
#    z 0.000000 0.000000 3.812980 
# 
# 
# High freq. dielectric constant tensor:
#      x y z
#    x 1.774960 0.000000 0.000000 
#    y 0.000000 1.722110 0.000000 
#    z 0.000000 0.000000 1.777540 
# 
# From -- ./inp_files/22158.got.cif
#   From: 2010.03.12/outbox.cif.g09.slc.cpg/sg67_12_cif.got.tgz:22158.got - 2010.04.10 22:41:39.
