data_PCOD8279516
_publ_section_title
;
Structure prediction by ZEFSAII (Michael W. Deem and Ramdas Pophale) SiO2 
 PCOD8279516
Probable space group: C M M A
;
_chemical_formula_sum "Si O2"
_cell_formula_units_Z 80
_cell_length_a 9.160862
_cell_length_b 18.528358
_cell_length_c 26.186931
_cell_angle_alpha 90.000000
_cell_angle_beta 90.000000
_cell_angle_gamma 90.000000
_cell_volume 4444.857869
_symmetry_space_group_name_H-M "C M M A"
_symmetry_group_IT_number 67
_symmetry_cell_setting 'orthorhombic'
loop_
_space_group_symop_operation_xyz
x,y,z
-x,1/2-y,z
x,-y,-z
-x,1/2+y,-z
-x,-y,-z
x,1/2+y,-z
-x,y,z
x,1/2-y,z
1/2+x,1/2+y,z
1/2-x,-y,z
1/2+x,1/2-y,-z
1/2-x,y,-z
1/2-x,1/2-y,-z
1/2+x,y,-z
1/2-x,1/2+y,z
1/2+x,-y,z
loop_
_atom_site_type_symbol
_atom_site_label
_atom_site_fract_x
_atom_site_fract_y
_atom_site_fract_z
Si Si1 0.330134 0.423946 0.840424
Si Si2 0.670045 0.833113 0.452109
Si Si3 0.330512 0.923841 0.046339
Si Si4 0.836292 0.336075 0.340647
Si Si5 0.165870 0.835630 0.242978
O O1 0.500000 0.436104 0.828030
O O2 0.250000 0.500000 0.834198
O O3 0.311066 0.389608 0.897379
O O4 0.262731 0.366113 0.802484
O O5 0.500000 0.842002 0.461293
O O6 0.718254 0.750000 0.451336
O O7 0.750000 0.872331 0.500000
O O8 0.713168 0.866294 0.396517
O O9 0.500000 0.932981 0.032582
O O10 0.250000 0.000000 0.048864
O O11 0.250000 0.879292 0.000000
O O12 0.836103 0.250000 0.342863
O O13 0.727082 0.364776 0.297123
O O14 0.000000 0.363070 0.327826
O O15 0.177202 0.750000 0.240469
O O16 0.000000 0.862429 0.237439
#
# Coordination Sequence:
#
# PCOD8279516 Si02
#       5
#    16  16  16  16  16
#     4  10  20  33  50  72  97 124 154 190 231 274
#     4   8  13  20  31  49  74 105 140 178 221 267
#     4   9  16  26  43  67  92 118 147 181 223 269
#     4   8  14  25  39  55  79 113 150 185 224 272
#     4  10  20  32  47  68  93 123 159 196 233 275
#
# _framework density 17.998327
#
# number of rings (size 3 to 8) (size 9 to 14) (size 15 to 20)
#    0.000    3.000    0.000    3.600    0.000    4.400 
#    0.000    4.000    0.000    0.600    0.000    0.000 
#    0.000    0.800    0.000    8.400    0.000   12.200 
#
# Total GULP energy -495527.772133 kJ/mol
# GULP energy per Si atom -12388.194303 kJ/mol
# Density = 1.795736 g / cm^3
# Si number density = 17.998327 Si / 1000 Ang^3
#
#
#
# Elastic Constant Matrix: (Units=GPa)
#
#
# Indices 1 2 3 4 5 6 
#
# 1 128.4339 18.2894 89.2970 0.0000 0.0000 0.0000
# 2 18.2894 11.3960 21.0206 0.0000 0.0000 0.0000
# 3 89.2970 21.0206 177.6360 0.0000 0.0000 0.0000
# 4 0.0000 0.0000 0.0000 -5.6891 0.0000 0.0000
# 5 0.0000 0.0000 0.0000 0.0000 38.7228 0.0000
# 6 0.0000 0.0000 0.0000 0.0000 0.0000 16.8263
#
#
#
# Elastic Compliance Matrix: (Units=1/GPa)
#
#
# Indices 1 2 3 4 5 6 
#
# 1 0.013012 -0.011280 -0.005206 0.000000 0.000000 0.000000
# 2 -0.011280 0.122030 -0.008770 0.000000 0.000000 0.000000
# 3 -0.005206 -0.008770 0.009285 0.000000 0.000000 0.000000
# 4 0.000000 0.000000 0.000000 -0.175775 0.000000 0.000000
# 5 0.000000 0.000000 0.000000 0.000000 0.025825 0.000000
# 6 0.000000 0.000000 0.000000 0.000000 0.000000 0.059431
#
#
# Mechanical properties :
#
#
# Convention : Reuss Voigt Hill
#
# Bulk Modulus (GPa) = 10.65935 63.85332 37.25633
# Shear Modulus (GPa) = 36.87536 22.56259 29.71898
#
# Velocity S-wave (km/s) = 4.53130 3.54445 4.06791
# Velocity P-wave (km/s) = 5.77167 7.23224 6.54284
#
# Compressibility (1/GPa) = 0.09381439
#
# Stress axis : x y z
#
# Youngs Moduli (GPa) = 76.85030 8.19468 107.70569
#
# Poissons Ratio (x) = 0.09244 0.56076
# Poissons Ratio (y) = 0.86686 0.94459
# Poissons Ratio (z) = 0.40012 0.07187
#
# Static dielectric constant tensor:
#      x y z
#    x 3.478740 0.000000 0.000000 
#    y 0.000000 2.571120 0.000000 
#    z 0.000000 0.000000 4.355440 
# 
# 
# High freq. dielectric constant tensor:
#      x y z
#    x 1.707340 0.000000 0.000000 
#    y 0.000000 1.607770 0.000000 
#    z 0.000000 0.000000 1.728290 
# 
# From -- ./inp_files/43327.got.cif
#   From: 2010.03.12/outbox.cif.g09.slc.cpg/sg67_22_cif.got.tgz:43327.got - 2010.04.10 22:41:39.
