data_PCOD8279632
_publ_section_title
;
Structure prediction by ZEFSAII (Michael W. Deem and Ramdas Pophale) SiO2 
 PCOD8279632
Probable space group: C M M A
;
_chemical_formula_sum "Si O2"
_cell_formula_units_Z 100
_cell_length_a 14.615433
_cell_length_b 19.839647
_cell_length_c 18.861688
_cell_angle_alpha 90.000000
_cell_angle_beta 90.000000
_cell_angle_gamma 90.000000
_cell_volume 5469.229955
_symmetry_space_group_name_H-M "C M M A"
_symmetry_group_IT_number 67
_symmetry_cell_setting 'orthorhombic'
loop_
_space_group_symop_operation_xyz
x,y,z
-x,1/2-y,z
x,-y,-z
-x,1/2+y,-z
-x,-y,-z
x,1/2+y,-z
-x,y,z
x,1/2-y,z
1/2+x,1/2+y,z
1/2-x,-y,z
1/2+x,1/2-y,-z
1/2-x,y,-z
1/2-x,1/2-y,-z
1/2+x,y,-z
1/2-x,1/2+y,z
1/2+x,-y,z
loop_
_atom_site_type_symbol
_atom_site_label
_atom_site_fract_x
_atom_site_fract_y
_atom_site_fract_z
Si Si1 0.232982 0.830192 0.250083
Si Si2 0.402029 0.328489 0.836887
Si Si3 0.106741 0.173796 0.878454
Si Si4 0.397560 0.420801 0.505814
Si Si5 0.105314 0.898754 0.977363
Si Si6 0.744882 0.579785 0.613326
Si Si7 0.750000 0.500000 0.000000
O O1 0.232482 0.750000 0.267539
O O2 0.326333 0.857499 0.215191
O O3 0.154125 0.849635 0.194164
O O4 0.222358 0.874701 0.319433
O O5 0.500000 0.361416 0.816233
O O6 0.405303 0.250000 0.825707
O O7 0.381823 0.340424 0.919746
O O8 0.137068 0.250000 0.896618
O O9 0.135002 0.127816 0.945141
O O10 0.000000 0.168800 0.864378
O O11 0.407664 0.500000 0.500000
O O12 0.500000 0.387913 0.506659
O O13 0.338363 0.399176 0.438065
O O14 0.341878 0.400067 0.576965
O O15 0.000000 0.925312 0.978159
O O16 0.178413 0.955785 0.953675
O O17 0.750000 0.500000 0.631473
#
# Coordination Sequence:
#
# PCOD8279632 Si02
#       7
#    16  16  16  16  16  16   4
#     4  10  20  33  49  75 110 140 163 202 261 313
#     4   9  18  34  55  75  95 126 172 221 262 301
#     4   9  18  34  55  75  95 126 172 221 262 301
#     4   8  15  31  56  78  98 128 168 210 246 284
#     4  10  20  35  53  73  95 128 177 222 260 300
#     4   9  18  33  52  77 103 130 168 207 242 295
#     4  12  22  32  46  66 100 136 154 200 268 318
#
# _framework density 18.284109000000001
#
# number of rings (size 3 to 8) (size 9 to 14) (size 15 to 20)
#    0.000    2.720    0.000    2.640    0.000    3.200 
#    5.760    4.800    0.000    0.960    0.000    0.000 
#    0.000    0.000    0.000    0.000    0.000    0.000 
#
# Total GULP energy -619440.380148 kJ/mol
# GULP energy per Si atom -12388.807603 kJ/mol
# Density = 1.824249 g / cm^3
# Si number density = 18.284109 Si / 1000 Ang^3
#
#
#
# Elastic Constant Matrix: (Units=GPa)
#
#
# Indices 1 2 3 4 5 6 
#
# 1 116.3290 29.6763 49.5560 0.0000 0.0000 0.0000
# 2 29.6763 44.9876 40.5197 0.0000 0.0000 0.0000
# 3 49.5560 40.5197 118.4273 0.0000 0.0000 0.0000
# 4 0.0000 0.0000 0.0000 12.2140 0.0000 0.0000
# 5 0.0000 0.0000 0.0000 0.0000 26.5893 0.0000
# 6 0.0000 0.0000 0.0000 0.0000 0.0000 17.4231
#
#
#
# Elastic Compliance Matrix: (Units=1/GPa)
#
#
# Indices 1 2 3 4 5 6 
#
# 1 0.011063 -0.004522 -0.003082 0.000000 0.000000 0.000000
# 2 -0.004522 0.033978 -0.009733 0.000000 0.000000 0.000000
# 3 -0.003082 -0.009733 0.013064 0.000000 0.000000 0.000000
# 4 0.000000 0.000000 0.000000 0.081873 0.000000 0.000000
# 5 0.000000 0.000000 0.000000 0.000000 0.037609 0.000000
# 6 0.000000 0.000000 0.000000 0.000000 0.000000 0.057395
#
#
# Mechanical properties :
#
#
# Convention : Reuss Voigt Hill
#
# Bulk Modulus (GPa) = 42.67980 57.69421 50.18700
# Shear Modulus (GPa) = 18.02023 21.91143 19.96583
#
# Velocity S-wave (km/s) = 3.14278 3.46553 3.30809
# Velocity P-wave (km/s) = 6.04671 6.90188 6.48840
#
# Compressibility (1/GPa) = 0.02343029
#
# Stress axis : x y z
#
# Youngs Moduli (GPa) = 90.39311 29.43110 76.54624
#
# Poissons Ratio (x) = 0.13307 0.23593
# Poissons Ratio (y) = 0.40871 0.74505
# Poissons Ratio (z) = 0.27861 0.28646
#
# Static dielectric constant tensor:
#      x y z
#    x 4.239390 0.000000 0.000000 
#    y 0.000000 3.086620 0.000000 
#    z 0.000000 0.000000 3.181380 
# 
# 
# High freq. dielectric constant tensor:
#      x y z
#    x 1.731550 0.000000 0.000000 
#    y 0.000000 1.676160 0.000000 
#    z 0.000000 0.000000 1.692540 
# 
# From -- ./inp_files/33713.got.cif
#   From: 2010.03.12/outbox.cif.g09.slc.cpg/sg67_17_cif.got.tgz:33713.got - 2010.04.10 22:41:39.
