data_PCOD8279154
_publ_section_title
;
Structure prediction by ZEFSAII (Michael W. Deem and Ramdas Pophale) SiO2 
 PCOD8279154
Probable space group: C M M A
;
_chemical_formula_sum "Si O2"
_cell_formula_units_Z 96
_cell_length_a 25.578861
_cell_length_b 17.273616
_cell_length_c 12.279216
_cell_angle_alpha 90.000000
_cell_angle_beta 90.000000
_cell_angle_gamma 90.000000
_cell_volume 5425.441708
_symmetry_space_group_name_H-M "C M M A"
_symmetry_group_IT_number 67
_symmetry_cell_setting 'orthorhombic'
loop_
_space_group_symop_operation_xyz
x,y,z
-x,1/2-y,z
x,-y,-z
-x,1/2+y,-z
-x,-y,-z
x,1/2+y,-z
-x,y,z
x,1/2-y,z
1/2+x,1/2+y,z
1/2-x,-y,z
1/2+x,1/2-y,-z
1/2-x,y,-z
1/2-x,1/2-y,-z
1/2+x,y,-z
1/2-x,1/2+y,z
1/2+x,-y,z
loop_
_atom_site_type_symbol
_atom_site_label
_atom_site_fract_x
_atom_site_fract_y
_atom_site_fract_z
Si Si1 0.369663 0.163909 0.144626
Si Si2 0.560735 0.159528 0.562353
Si Si3 0.190818 0.985504 0.127565
Si Si4 0.902461 0.561043 0.750446
Si Si5 0.060015 0.603807 0.325550
Si Si6 0.559120 0.587126 0.025246
O O1 0.346320 0.250000 0.133809
O O2 0.321838 0.104085 0.152734
O O3 0.405211 0.159848 0.251901
O O4 0.404877 0.146644 0.039104
O O5 0.500000 0.144696 0.592493
O O6 0.572814 0.250000 0.551399
O O7 0.598987 0.123340 0.653501
O O8 0.575568 0.116772 0.450566
O O9 0.250000 0.000000 0.163446
O O10 0.154897 0.041647 0.201630
O O11 0.181986 0.000000 0.000000
O O12 0.931242 0.484689 0.707723
O O13 0.936501 0.600524 0.845949
O O14 0.000000 0.626706 0.306772
O O15 0.500000 0.599172 0.985122
O O16 0.578721 0.500000 0.000000
#
# Coordination Sequence:
#
# PCOD8279154 Si02
#       6
#    16  16  16  16  16  16
#     4  11  21  34  54  83 111 140 178 224 275 319
#     4  10  21  34  49  77 115 149 181 220 265 313
#     4  10  20  40  61  77 102 138 180 233 275 323
#     4  11  19  34  55  79 102 144 186 223 266 327
#     4  10  19  33  54  78 109 150 191 219 248 310
#     4  11  19  31  50  78 113 147 177 210 260 325
#
# _framework density 17.694412
#
# number of rings (size 3 to 8) (size 9 to 14) (size 15 to 20)
#    0.000    1.500    5.000    3.000    0.000    4.000 
#    0.000    2.500    0.000    8.000    0.000    5.833 
#    0.000    0.000    0.000    0.000    0.000    0.000 
#
# Total GULP energy -595271.355178 kJ/mol
# GULP energy per Si atom -12401.486566 kJ/mol
# Density = 1.765414 g / cm^3
# Si number density = 17.694412 Si / 1000 Ang^3
#
#
#
# Elastic Constant Matrix: (Units=GPa)
#
#
# Indices 1 2 3 4 5 6 
#
# 1 98.1406 43.3232 43.3477 0.0000 0.0000 0.0000
# 2 43.3232 74.7163 36.2046 0.0000 0.0000 0.0000
# 3 43.3477 36.2046 127.3383 0.0000 0.0000 0.0000
# 4 0.0000 0.0000 0.0000 23.8851 0.0000 0.0000
# 5 0.0000 0.0000 0.0000 0.0000 21.7145 0.0000
# 6 0.0000 0.0000 0.0000 0.0000 0.0000 14.7217
#
#
#
# Elastic Compliance Matrix: (Units=1/GPa)
#
#
# Indices 1 2 3 4 5 6 
#
# 1 0.014605 -0.007028 -0.002974 0.000000 0.000000 0.000000
# 2 -0.007028 0.018904 -0.002982 0.000000 0.000000 0.000000
# 3 -0.002974 -0.002982 0.009713 0.000000 0.000000 0.000000
# 4 0.000000 0.000000 0.000000 0.041867 0.000000 0.000000
# 5 0.000000 0.000000 0.000000 0.000000 0.046052 0.000000
# 6 0.000000 0.000000 0.000000 0.000000 0.000000 0.067927
#
#
# Mechanical properties :
#
#
# Convention : Reuss Voigt Hill
#
# Bulk Modulus (GPa) = 57.95447 60.66069 59.30758
# Shear Modulus (GPa) = 21.66490 23.88557 22.77523
#
# Velocity S-wave (km/s) = 3.50293 3.67808 3.59157
# Velocity P-wave (km/s) = 7.01318 7.23840 7.12668
#
# Compressibility (1/GPa) = 0.01725492
#
# Stress axis : x y z
#
# Youngs Moduli (GPa) = 68.46861 52.89872 102.95096
#
# Poissons Ratio (x) = 0.37176 0.30615
# Poissons Ratio (y) = 0.48118 0.30705
# Poissons Ratio (z) = 0.20361 0.15777
#
# Static dielectric constant tensor:
#      x y z
#    x 3.081090 0.000000 0.000000 
#    y 0.000000 3.189500 0.000000 
#    z 0.000000 0.000000 3.452500 
# 
# 
# High freq. dielectric constant tensor:
#      x y z
#    x 1.655500 0.000000 0.000000 
#    y 0.000000 1.676350 0.000000 
#    z 0.000000 0.000000 1.694340 
# 
# From -- ./inp_files/19816.got.cif
#   From: 2010.03.12/outbox.cif.g09.slc.cpg/sg67_10_cif.got.tgz:19816.got - 2010.04.10 22:41:39.
