data_PCOD8279058
_publ_section_title
;
Structure prediction by ZEFSAII (Michael W. Deem and Ramdas Pophale) SiO2 
 PCOD8279058
Probable space group: C M M A
;
_chemical_formula_sum "Si O2"
_cell_formula_units_Z 112
_cell_length_a 19.796426
_cell_length_b 17.908818
_cell_length_c 18.182473
_cell_angle_alpha 90.000000
_cell_angle_beta 90.000000
_cell_angle_gamma 90.000000
_cell_volume 6446.242886
_symmetry_space_group_name_H-M "C M M A"
_symmetry_group_IT_number 67
_symmetry_cell_setting 'orthorhombic'
loop_
_space_group_symop_operation_xyz
x,y,z
-x,1/2-y,z
x,-y,-z
-x,1/2+y,-z
-x,-y,-z
x,1/2+y,-z
-x,y,z
x,1/2-y,z
1/2+x,1/2+y,z
1/2-x,-y,z
1/2+x,1/2-y,-z
1/2-x,y,-z
1/2-x,1/2-y,-z
1/2+x,y,-z
1/2-x,1/2+y,z
1/2+x,-y,z
loop_
_atom_site_type_symbol
_atom_site_label
_atom_site_fract_x
_atom_site_fract_y
_atom_site_fract_z
Si Si1 0.426388 0.987597 0.117749
Si Si2 0.171656 0.163700 0.520275
Si Si3 0.204735 0.668052 0.064442
Si Si4 0.421789 0.057827 0.566356
Si Si5 0.425828 0.121208 0.003339
Si Si6 0.318381 0.458735 0.361030
Si Si7 0.191930 0.054239 0.806530
O O1 0.500000 0.983204 0.154267
O O2 0.423637 0.050534 0.056254
O O3 0.376502 0.008002 0.182930
O O4 0.409168 0.908392 0.079048
O O5 0.151606 0.250000 0.534807
O O6 0.250000 0.157385 0.500000
O O7 0.120642 0.131676 0.457554
O O8 0.162571 0.114849 0.593404
O O9 0.234605 0.750000 0.081159
O O10 0.130055 0.679055 0.030339
O O11 0.200666 0.626300 0.142137
O O12 0.250000 0.628431 0.000000
O O13 0.500000 0.077513 0.588525
O O14 0.421980 0.000000 0.500000
O O15 0.380657 0.017945 0.633211
O O16 0.500000 0.159149 0.005317
O O17 0.250000 0.500000 0.389771
O O18 0.305411 0.426739 0.279382
O O19 0.250000 0.000000 0.832652
#
# Coordination Sequence:
#
# PCOD8279058 Si02
#       7
#    16  16  16  16  16  16  16
#     4   8  14  26  44  66  89 115 153 203 247 284
#     4  10  19  32  55  80 102 136 176 215 257 306
#     4  10  20  32  46  67  98 133 167 210 263 313
#     4   9  18  32  53  78 104 138 173 213 263 312
#     4   8  14  26  45  65  85 114 157 203 242 287
#     4  10  19  33  51  74 106 136 171 217 263 314
#     4  10  20  31  48  72  98 131 171 211 257 308
#
# _framework density 17.374461
#
# number of rings (size 3 to 8) (size 9 to 14) (size 15 to 20)
#    0.000    2.714    1.429    1.714    0.000    3.143 
#    0.000    0.000    0.000    0.000    0.000    8.000 
#    0.000    2.286    0.000    0.000    0.000    0.000 
#
# Total GULP energy -693730.846660 kJ/mol
# GULP energy per Si atom -12388.050833 kJ/mol
# Density = 1.733492 g / cm^3
# Si number density = 17.374461 Si / 1000 Ang^3
#
#
#
# Elastic Constant Matrix: (Units=GPa)
#
#
# Indices 1 2 3 4 5 6 
#
# 1 104.8323 38.2427 26.1554 0.0000 0.0000 0.0000
# 2 38.2427 88.4335 37.9437 0.0000 0.0000 0.0000
# 3 26.1554 37.9437 65.1807 0.0000 0.0000 0.0000
# 4 0.0000 0.0000 0.0000 16.2168 0.0000 0.0000
# 5 0.0000 0.0000 0.0000 0.0000 22.9106 0.0000
# 6 0.0000 0.0000 0.0000 0.0000 0.0000 16.4997
#
#
#
# Elastic Compliance Matrix: (Units=1/GPa)
#
#
# Indices 1 2 3 4 5 6 
#
# 1 0.011581 -0.004018 -0.002308 0.000000 0.000000 0.000000
# 2 -0.004018 0.016466 -0.007973 0.000000 0.000000 0.000000
# 3 -0.002308 -0.007973 0.020910 0.000000 0.000000 0.000000
# 4 0.000000 0.000000 0.000000 0.061664 0.000000 0.000000
# 5 0.000000 0.000000 0.000000 0.000000 0.043648 0.000000
# 6 0.000000 0.000000 0.000000 0.000000 0.000000 0.060607
#
#
# Mechanical properties :
#
#
# Convention : Reuss Voigt Hill
#
# Bulk Modulus (GPa) = 49.12016 51.45889 50.28953
# Shear Modulus (GPa) = 19.97916 21.53241 20.75578
#
# Velocity S-wave (km/s) = 3.39472 3.52421 3.46007
# Velocity P-wave (km/s) = 6.61047 6.80014 6.70598
#
# Compressibility (1/GPa) = 0.02035824
#
# Stress axis : x y z
#
# Youngs Moduli (GPa) = 86.35170 60.72954 47.82445
#
# Poissons Ratio (x) = 0.24399 0.11039
# Poissons Ratio (y) = 0.34692 0.38133
# Poissons Ratio (z) = 0.19932 0.48423
#
# Static dielectric constant tensor:
#      x y z
#    x 4.067520 0.000000 0.000000 
#    y 0.000000 3.234600 0.000000 
#    z 0.000000 0.000000 2.961940 
# 
# 
# High freq. dielectric constant tensor:
#      x y z
#    x 1.685870 0.000000 0.000000 
#    y 0.000000 1.649550 0.000000 
#    z 0.000000 0.000000 1.644390 
# 
# From -- ./inp_files/35078.got.cif
#   From: 2010.03.12/outbox.cif.g09.slc.cpg/sg67_18_cif.got.tgz:35078.got - 2010.04.10 22:41:39.
