data_PCOD8279993
_publ_section_title
;
Structure prediction by ZEFSAII (Michael W. Deem and Ramdas Pophale) SiO2 
 PCOD8279993
Probable space group: C M M A
;
_chemical_formula_sum "Si O2"
_cell_formula_units_Z 72
_cell_length_a 28.155986
_cell_length_b 20.300740
_cell_length_c 6.864471
_cell_angle_alpha 90.000000
_cell_angle_beta 90.000000
_cell_angle_gamma 90.000000
_cell_volume 3923.644796
_symmetry_space_group_name_H-M "C M M A"
_symmetry_group_IT_number 67
_symmetry_cell_setting 'orthorhombic'
loop_
_space_group_symop_operation_xyz
x,y,z
-x,1/2-y,z
x,-y,-z
-x,1/2+y,-z
-x,-y,-z
x,1/2+y,-z
-x,y,z
x,1/2-y,z
1/2+x,1/2+y,z
1/2-x,-y,z
1/2+x,1/2-y,-z
1/2-x,y,-z
1/2-x,1/2-y,-z
1/2+x,y,-z
1/2-x,1/2+y,z
1/2+x,-y,z
loop_
_atom_site_type_symbol
_atom_site_label
_atom_site_fract_x
_atom_site_fract_y
_atom_site_fract_z
Si Si1 0.198190 0.636063 0.437221
Si Si2 0.664358 0.000000 0.500000
Si Si3 0.622312 0.889168 0.276146
Si Si4 0.370852 0.824710 0.872150
Si Si5 0.946200 0.326809 0.546229
O O1 0.250000 0.661364 0.500000
O O2 0.197322 0.556546 0.403230
O O3 0.162220 0.655114 0.612441
O O4 0.179937 0.670215 0.238635
O O5 0.631470 0.033727 0.668947
O O6 0.570787 0.866681 0.354930
O O7 0.627065 0.876455 0.047722
O O8 0.377799 0.750000 0.947333
O O9 0.413291 0.846283 0.728738
O O10 0.942207 0.250000 0.498547
O O11 0.000000 0.347325 0.595377
#
# Coordination Sequence:
#
# PCOD8279993 Si02
#       5
#    16   8  16  16  16
#     4   9  19  36  55  78 107 144 183 221 261 314
#     4   8  19  36  55  74 104 148 181 222 265 308
#     4   9  19  34  54  78 108 141 181 221 268 318
#     4  10  20  34  55  82 111 142 178 224 278 325
#     4   9  18  34  55  79 108 141 180 227 273 323
#
# _framework density 18.350285
#
# number of rings (size 3 to 8) (size 9 to 14) (size 15 to 20)
#    1.333    1.556    0.000    1.000    0.000    4.000 
#    0.000    3.889    4.889    1.333    0.000    0.000 
#    0.000    0.000    0.000    0.000    0.000    0.000 
#
# Total GULP energy -446058.368305 kJ/mol
# GULP energy per Si atom -12390.510231 kJ/mol
# Density = 1.830852 g / cm^3
# Si number density = 18.350285 Si / 1000 Ang^3
#
#
#
# Elastic Constant Matrix: (Units=GPa)
#
#
# Indices 1 2 3 4 5 6 
#
# 1 116.8670 19.4501 49.0800 0.0000 0.0000 0.0000
# 2 19.4501 40.1389 26.2957 0.0000 0.0000 0.0000
# 3 49.0800 26.2957 113.2547 0.0000 0.0000 0.0000
# 4 0.0000 0.0000 0.0000 31.4056 0.0000 0.0000
# 5 0.0000 0.0000 0.0000 0.0000 14.8811 0.0000
# 6 0.0000 0.0000 0.0000 0.0000 0.0000 25.9115
#
#
#
# Elastic Compliance Matrix: (Units=1/GPa)
#
#
# Indices 1 2 3 4 5 6 
#
# 1 0.010673 -0.002526 -0.004039 0.000000 0.000000 0.000000
# 2 -0.002526 0.029981 -0.005866 0.000000 0.000000 0.000000
# 3 -0.004039 -0.005866 0.011942 0.000000 0.000000 0.000000
# 4 0.000000 0.000000 0.000000 0.031841 0.000000 0.000000
# 5 0.000000 0.000000 0.000000 0.000000 0.067199 0.000000
# 6 0.000000 0.000000 0.000000 0.000000 0.000000 0.038593
#
#
# Mechanical properties :
#
#
# Convention : Reuss Voigt Hill
#
# Bulk Modulus (GPa) = 36.05742 51.10137 43.57940
# Shear Modulus (GPa) = 22.28793 26.13528 24.21161
#
# Velocity S-wave (km/s) = 3.48887 3.77801 3.63631
# Velocity P-wave (km/s) = 5.99348 6.85123 6.43666
#
# Compressibility (1/GPa) = 0.02773354
#
# Stress axis : x y z
#
# Youngs Moduli (GPa) = 93.69145 33.35487 83.73809
#
# Poissons Ratio (x) = 0.08426 0.33821
# Poissons Ratio (y) = 0.23667 0.49123
# Poissons Ratio (z) = 0.37841 0.19567
#
# Static dielectric constant tensor:
#      x y z
#    x 3.308580 0.000000 0.000000 
#    y 0.000000 3.165700 0.000000 
#    z 0.000000 0.000000 3.093140 
# 
# 
# High freq. dielectric constant tensor:
#      x y z
#    x 1.700240 0.000000 0.000000 
#    y 0.000000 1.697590 0.000000 
#    z 0.000000 0.000000 1.692380 
# 
# From -- ./inp_files/4142.got.cif
#   From: 2010.03.12/outbox.cif.g09.slc.cpg/sg67_3_cif.got.tgz:4142.got - 2010.04.10 22:41:39.
