data_PCOD8279175
_publ_section_title
;
Structure prediction by ZEFSAII (Michael W. Deem and Ramdas Pophale) SiO2 
 PCOD8279175
Probable space group: C M M A
;
_chemical_formula_sum "Si O2"
_cell_formula_units_Z 128
_cell_length_a 18.750739
_cell_length_b 20.108967
_cell_length_c 19.762827
_cell_angle_alpha 90.000000
_cell_angle_beta 90.000000
_cell_angle_gamma 90.000000
_cell_volume 7451.731860
_symmetry_space_group_name_H-M "C M M A"
_symmetry_group_IT_number 67
_symmetry_cell_setting 'orthorhombic'
loop_
_space_group_symop_operation_xyz
x,y,z
-x,1/2-y,z
x,-y,-z
-x,1/2+y,-z
-x,-y,-z
x,1/2+y,-z
-x,y,z
x,1/2-y,z
1/2+x,1/2+y,z
1/2-x,-y,z
1/2+x,1/2-y,-z
1/2-x,y,-z
1/2-x,1/2-y,-z
1/2+x,y,-z
1/2-x,1/2+y,z
1/2+x,-y,z
loop_
_atom_site_type_symbol
_atom_site_label
_atom_site_fract_x
_atom_site_fract_y
_atom_site_fract_z
Si Si1 0.760743 0.891231 0.073658
Si Si2 0.580255 0.581727 0.195323
Si Si3 0.782295 0.396336 0.671652
Si Si4 0.364719 0.502581 0.074834
Si Si5 0.715117 0.326523 0.798063
Si Si6 0.862692 0.971532 0.668499
Si Si7 0.581359 0.433335 0.530699
Si Si8 0.323024 0.824602 0.539027
O O1 0.701689 0.948042 0.077611
O O2 0.752862 0.833900 0.129377
O O3 0.836637 0.927386 0.087814
O O4 0.750000 0.857372 0.000000
O O5 0.500000 0.611008 0.198236
O O6 0.582247 0.529943 0.132220
O O7 0.636265 0.642251 0.194009
O O8 0.598213 0.540279 0.261464
O O9 0.767155 0.361753 0.743855
O O10 0.845840 0.450118 0.672262
O O11 0.708990 0.431526 0.652145
O O12 0.807438 0.343040 0.616658
O O13 0.400884 0.500000 0.000000
O O14 0.706053 0.250000 0.777931
O O15 0.915757 0.944617 0.611072
O O16 0.616649 0.500000 0.500000
O O17 0.500000 0.425093 0.507786
O O18 0.621352 0.370114 0.500711
O O19 0.353955 0.750000 0.537748
O O20 0.250000 0.829990 0.500000
#
# Coordination Sequence:
#
# PCOD8279175 Si02
#       8
#    16  16  16  16  16  16  16  16
#     4   8  14  27  48  72  97 124 158 207 260 300
#     4  10  20  32  46  69 101 134 168 204 244 299
#     4  10  19  33  55  77  96 125 165 216 263 298
#     4   8  14  27  48  72  97 124 159 207 259 301
#     4  10  20  32  47  70 101 134 169 204 244 301
#     4  10  19  33  55  76  97 125 165 215 261 302
#     4  11  22  36  55  79 106 136 171 212 260 315
#     4  11  22  36  56  80 106 137 174 213 257 310
#
# _framework density 17.177215
#
# number of rings (size 3 to 8) (size 9 to 14) (size 15 to 20)
#    0.000    2.250    2.500    2.250    0.000    4.250 
#    0.000    0.000    0.000    1.500    0.000    0.000 
#    0.000    4.500    0.000    0.250    0.000    0.000 
#
# Total GULP energy -793023.749816 kJ/mol
# GULP energy per Si atom -12390.996091 kJ/mol
# Density = 1.713812 g / cm^3
# Si number density = 17.177215 Si / 1000 Ang^3
#
#
#
# Elastic Constant Matrix: (Units=GPa)
#
#
# Indices 1 2 3 4 5 6 
#
# 1 61.6340 38.9835 32.6926 0.0000 0.0000 0.0000
# 2 38.9835 108.3903 51.7083 0.0000 0.0000 0.0000
# 3 32.6926 51.7083 122.2918 0.0000 0.0000 0.0000
# 4 0.0000 0.0000 0.0000 25.7589 0.0000 0.0000
# 5 0.0000 0.0000 0.0000 0.0000 13.7192 0.0000
# 6 0.0000 0.0000 0.0000 0.0000 0.0000 61.6689
#
#
#
# Elastic Compliance Matrix: (Units=1/GPa)
#
#
# Indices 1 2 3 4 5 6 
#
# 1 0.021940 -0.006380 -0.003168 0.000000 0.000000 0.000000
# 2 -0.006380 0.013412 -0.003966 0.000000 0.000000 0.000000
# 3 -0.003168 -0.003966 0.010701 0.000000 0.000000 0.000000
# 4 0.000000 0.000000 0.000000 0.038822 0.000000 0.000000
# 5 0.000000 0.000000 0.000000 0.000000 0.072890 0.000000
# 6 0.000000 0.000000 0.000000 0.000000 0.000000 0.016216
#
#
# Mechanical properties :
#
#
# Convention : Reuss Voigt Hill
#
# Bulk Modulus (GPa) = 52.55677 59.89831 56.22754
# Shear Modulus (GPa) = 24.11386 31.49151 27.80268
#
# Velocity S-wave (km/s) = 3.75083 4.28639 4.02752
# Velocity P-wave (km/s) = 7.03005 7.70999 7.37786
#
# Compressibility (1/GPa) = 0.01902705
#
# Stress axis : x y z
#
# Youngs Moduli (GPa) = 45.57815 74.55869 93.45135
#
# Poissons Ratio (x) = 0.47567 0.29604
# Poissons Ratio (y) = 0.29078 0.37058
# Poissons Ratio (z) = 0.14438 0.29566
#
# Static dielectric constant tensor:
#      x y z
#    x 3.019690 0.000000 0.000000 
#    y 0.000000 3.113250 0.000000 
#    z 0.000000 0.000000 3.426690 
# 
# 
# High freq. dielectric constant tensor:
#      x y z
#    x 1.637510 0.000000 0.000000 
#    y 0.000000 1.645600 0.000000 
#    z 0.000000 0.000000 1.681150 
# 
# From -- ./inp_files/34595.got.cif
#   From: 2010.03.12/outbox.cif.g09.slc.cpg/sg67_18_cif.got.tgz:34595.got - 2010.04.10 22:41:39.
