data_PCOD8279789
_publ_section_title
;
Structure prediction by ZEFSAII (Michael W. Deem and Ramdas Pophale) SiO2 
 PCOD8279789
Probable space group: C M M A
;
_chemical_formula_sum "Si O2"
_cell_formula_units_Z 72
_cell_length_a 22.287412
_cell_length_b 9.594756
_cell_length_c 18.223633
_cell_angle_alpha 90.000000
_cell_angle_beta 90.000000
_cell_angle_gamma 90.000000
_cell_volume 3896.983231
_symmetry_space_group_name_H-M "C M M A"
_symmetry_group_IT_number 67
_symmetry_cell_setting 'orthorhombic'
loop_
_space_group_symop_operation_xyz
x,y,z
-x,1/2-y,z
x,-y,-z
-x,1/2+y,-z
-x,-y,-z
x,1/2+y,-z
-x,y,z
x,1/2-y,z
1/2+x,1/2+y,z
1/2-x,-y,z
1/2+x,1/2-y,-z
1/2-x,y,-z
1/2-x,1/2-y,-z
1/2+x,y,-z
1/2-x,1/2+y,z
1/2+x,-y,z
loop_
_atom_site_type_symbol
_atom_site_label
_atom_site_fract_x
_atom_site_fract_y
_atom_site_fract_z
Si Si1 0.569539 0.409070 0.704878
Si Si2 0.618000 0.503757 0.854996
Si Si3 0.500000 0.404037 0.069955
Si Si4 0.168996 0.250000 0.065021
Si Si5 0.428771 0.908480 0.567227
Si Si6 0.803249 0.250000 0.894554
O O1 0.500000 0.434001 0.725326
O O2 0.578988 0.250000 0.678041
O O3 0.611001 0.437061 0.774963
O O4 0.590898 0.514966 0.641843
O O5 0.557161 0.578160 0.878288
O O6 0.631490 0.385499 0.914380
O O7 0.672438 0.613546 0.853320
O O8 0.500000 0.250000 0.037106
O O9 0.500000 0.500000 0.000000
O O10 0.231570 0.250000 0.108943
O O11 0.175662 0.250000 0.978337
O O12 0.500000 0.903244 0.561318
O O13 0.403088 0.750000 0.565567
O O14 0.402577 0.000000 0.500000
#
# Coordination Sequence:
#
# PCOD8279789 Si02
#       6
#    16  16   8   8  16   8
#     4  10  20  34  50  76 115 154 186 225 280 340
#     4  12  23  38  58  83 114 147 190 238 291 350
#     4  12  26  38  56  82 113 148 185 232 290 358
#     4  11  24  43  61  79 106 148 198 248 301 336
#     4   9  17  29  49  75 108 150 190 224 264 328
#     4  11  24  41  61  81 106 146 198 254 293 342
#
# _framework density 18.475829999999998
#
# number of rings (size 3 to 8) (size 9 to 14) (size 15 to 20)
#    0.000    1.333    3.333    3.333    3.111    4.444 
#    0.000    0.000    0.000    0.000    0.000    0.000 
#    0.000    5.333    0.000    0.000    0.000    0.000 
#
# Total GULP energy -446530.922258 kJ/mol
# GULP energy per Si atom -12403.636729 kJ/mol
# Density = 1.843378 g / cm^3
# Si number density = 18.475830 Si / 1000 Ang^3
#
#
#
# Elastic Constant Matrix: (Units=GPa)
#
#
# Indices 1 2 3 4 5 6 
#
# 1 55.2866 21.4264 13.3685 0.0000 0.0000 0.0000
# 2 21.4264 150.0718 42.4793 0.0000 0.0000 0.0000
# 3 13.3685 42.4793 89.4280 0.0000 0.0000 0.0000
# 4 0.0000 0.0000 0.0000 39.2463 0.0000 0.0000
# 5 0.0000 0.0000 0.0000 0.0000 12.3555 0.0000
# 6 0.0000 0.0000 0.0000 0.0000 0.0000 22.8633
#
#
#
# Elastic Compliance Matrix: (Units=1/GPa)
#
#
# Indices 1 2 3 4 5 6 
#
# 1 0.019403 -0.002252 -0.001831 0.000000 0.000000 0.000000
# 2 -0.002252 0.007960 -0.003444 0.000000 0.000000 0.000000
# 3 -0.001831 -0.003444 0.013092 0.000000 0.000000 0.000000
# 4 0.000000 0.000000 0.000000 0.025480 0.000000 0.000000
# 5 0.000000 0.000000 0.000000 0.000000 0.080936 0.000000
# 6 0.000000 0.000000 0.000000 0.000000 0.000000 0.043738
#
#
# Mechanical properties :
#
#
# Convention : Reuss Voigt Hill
#
# Bulk Modulus (GPa) = 39.36927 49.92608 44.64768
# Shear Modulus (GPa) = 23.35023 29.39382 26.37203
#
# Velocity S-wave (km/s) = 3.55889 3.99298 3.78217
# Velocity P-wave (km/s) = 6.18404 6.95266 6.57959
#
# Compressibility (1/GPa) = 0.02540052
#
# Stress axis : x y z
#
# Youngs Moduli (GPa) = 51.53829 125.62833 76.38246
#
# Poissons Ratio (x) = 0.28292 0.13984
# Poissons Ratio (y) = 0.11607 0.26309
# Poissons Ratio (z) = 0.09436 0.43272
#
# Static dielectric constant tensor:
#      x y z
#    x 3.170560 0.000000 0.000000 
#    y 0.000000 3.616320 0.000000 
#    z 0.000000 0.000000 3.295550 
# 
# 
# High freq. dielectric constant tensor:
#      x y z
#    x 1.672900 0.000000 0.000000 
#    y 0.000000 1.741270 0.000000 
#    z 0.000000 0.000000 1.709210 
# 
# From -- ./inp_files/31989.got.cif
#   From: 2010.03.12/outbox.cif.g09.slc.cpg/sg67_16_cif.got.tgz:31989.got - 2010.04.10 22:41:39.
