data_PCOD8279127
_publ_section_title
;
Structure prediction by ZEFSAII (Michael W. Deem and Ramdas Pophale) SiO2 
 PCOD8279127
Probable space group: C M M A
;
_chemical_formula_sum "Si O2"
_cell_formula_units_Z 96
_cell_length_a 8.610518
_cell_length_b 19.792478
_cell_length_c 30.256754
_cell_angle_alpha 90.000000
_cell_angle_beta 90.000000
_cell_angle_gamma 90.000000
_cell_volume 5156.461555
_symmetry_space_group_name_H-M "C M M A"
_symmetry_group_IT_number 67
_symmetry_cell_setting 'orthorhombic'
loop_
_space_group_symop_operation_xyz
x,y,z
-x,1/2-y,z
x,-y,-z
-x,1/2+y,-z
-x,-y,-z
x,1/2+y,-z
-x,y,z
x,1/2-y,z
1/2+x,1/2+y,z
1/2-x,-y,z
1/2+x,1/2-y,-z
1/2-x,y,-z
1/2-x,1/2-y,-z
1/2+x,y,-z
1/2-x,1/2+y,z
1/2+x,-y,z
loop_
_atom_site_type_symbol
_atom_site_label
_atom_site_fract_x
_atom_site_fract_y
_atom_site_fract_z
Si Si1 0.181163 0.428851 0.547017
Si Si2 0.684763 0.572511 0.212656
Si Si3 0.179116 0.828991 0.615267
Si Si4 0.315595 0.675426 0.285659
Si Si5 0.680594 0.171426 0.952649
Si Si6 0.816738 0.927587 0.118324
O O1 0.250000 0.500000 0.563529
O O2 0.250000 0.406735 0.500000
O O3 0.214807 0.370934 0.582295
O O4 0.000000 0.438119 0.541178
O O5 0.500000 0.570470 0.211539
O O6 0.750000 0.500000 0.225923
O O7 0.750519 0.624076 0.249272
O O8 0.745846 0.595559 0.164977
O O9 0.204367 0.750000 0.606001
O O10 0.233537 0.847159 0.665076
O O11 0.000000 0.848930 0.608012
O O12 0.500000 0.678089 0.283427
O O13 0.248488 0.750000 0.275241
O O14 0.500000 0.152017 0.951687
O O15 0.706728 0.250000 0.941876
O O16 0.773623 0.128900 0.916894
O O17 0.750000 0.152549 0.000000
O O18 0.000000 0.934178 0.122944
O O19 0.750000 0.000000 0.103364
#
# Coordination Sequence:
#
# PCOD8279127 Si02
#       6
#    16  16  16  16  16  16
#     4  11  22  37  56  78 106 138 176 219 265 316
#     4  10  19  33  53  77 106 139 177 219 265 315
#     4   9  18  35  57  80 108 141 177 217 262 313
#     4   8  16  32  54  78 104 137 176 216 259 310
#     4  10  21  38  59  83 111 142 177 218 265 317
#     4  11  22  37  56  79 109 143 182 224 268 316
#
# _framework density 18.617418000000001
#
# number of rings (size 3 to 8) (size 9 to 14) (size 15 to 20)
#    0.000    2.167    0.000    6.500    0.000    3.333 
#    0.000    6.667    0.000    3.500    0.000    0.000 
#    0.000    0.000    0.000    0.000    0.000    0.000 
#
# Total GULP energy -595270.587938 kJ/mol
# GULP energy per Si atom -12401.470582 kJ/mol
# Density = 1.857504 g / cm^3
# Si number density = 18.617418 Si / 1000 Ang^3
#
#
#
# Elastic Constant Matrix: (Units=GPa)
#
#
# Indices 1 2 3 4 5 6 
#
# 1 106.0134 39.1702 43.3309 0.0000 0.0000 0.0000
# 2 39.1702 95.8444 86.8727 0.0000 0.0000 0.0000
# 3 43.3309 86.8727 132.7839 0.0000 0.0000 0.0000
# 4 0.0000 0.0000 0.0000 42.6901 0.0000 0.0000
# 5 0.0000 0.0000 0.0000 0.0000 25.8536 0.0000
# 6 0.0000 0.0000 0.0000 0.0000 0.0000 27.3571
#
#
#
# Elastic Compliance Matrix: (Units=1/GPa)
#
#
# Indices 1 2 3 4 5 6 
#
# 1 0.011252 -0.003121 -0.001630 0.000000 0.000000 0.000000
# 2 -0.003121 0.026501 -0.016320 0.000000 0.000000 0.000000
# 3 -0.001630 -0.016320 0.018740 0.000000 0.000000 0.000000
# 4 0.000000 0.000000 0.000000 0.023425 0.000000 0.000000
# 5 0.000000 0.000000 0.000000 0.000000 0.038679 0.000000
# 6 0.000000 0.000000 0.000000 0.000000 0.000000 0.036554
#
#
# Mechanical properties :
#
#
# Convention : Reuss Voigt Hill
#
# Bulk Modulus (GPa) = 69.67798 74.82103 72.24951
# Shear Modulus (GPa) = 24.74316 30.19802 27.47059
#
# Velocity S-wave (km/s) = 3.64955 4.03181 3.84543
# Velocity P-wave (km/s) = 7.43414 7.87083 7.65560
#
# Compressibility (1/GPa) = 0.01435174
#
# Stress axis : x y z
#
# Youngs Moduli (GPa) = 88.87145 37.73416 53.36245
#
# Poissons Ratio (x) = 0.11779 0.08697
# Poissons Ratio (y) = 0.27741 0.87085
# Poissons Ratio (z) = 0.14483 0.61580
#
# Static dielectric constant tensor:
#      x y z
#    x 3.344570 0.000000 0.000000 
#    y 0.000000 3.520040 0.000000 
#    z 0.000000 0.000000 3.543070 
# 
# 
# High freq. dielectric constant tensor:
#      x y z
#    x 1.719670 0.000000 0.000000 
#    y 0.000000 1.723850 0.000000 
#    z 0.000000 0.000000 1.729600 
# 
# From -- ./inp_files/43505.got.cif
#   From: 2010.03.12/outbox.cif.g09.slc.cpg/sg67_22_cif.got.tgz:43505.got - 2010.04.10 22:41:39.
