data_PCOD8279396
_publ_section_title
;
Structure prediction by ZEFSAII (Michael W. Deem and Ramdas Pophale) SiO2 
 PCOD8279396
Probable space group: C M M A
;
_chemical_formula_sum "Si O2"
_cell_formula_units_Z 88
_cell_length_a 22.867717
_cell_length_b 16.094015
_cell_length_c 11.851159
_cell_angle_alpha 90.000000
_cell_angle_beta 90.000000
_cell_angle_gamma 90.000000
_cell_volume 4361.622109
_symmetry_space_group_name_H-M "C M M A"
_symmetry_group_IT_number 67
_symmetry_cell_setting 'orthorhombic'
loop_
_space_group_symop_operation_xyz
x,y,z
-x,1/2-y,z
x,-y,-z
-x,1/2+y,-z
-x,-y,-z
x,1/2+y,-z
-x,y,z
x,1/2-y,z
1/2+x,1/2+y,z
1/2-x,-y,z
1/2+x,1/2-y,-z
1/2-x,y,-z
1/2-x,1/2-y,-z
1/2+x,y,-z
1/2-x,1/2+y,z
1/2+x,-y,z
loop_
_atom_site_type_symbol
_atom_site_label
_atom_site_fract_x
_atom_site_fract_y
_atom_site_fract_z
Si Si1 0.138111 0.574531 0.084334
Si Si2 0.568079 0.017319 0.738539
Si Si3 0.804759 0.657078 0.575407
Si Si4 0.250502 0.156365 0.191839
Si Si5 0.620373 0.500000 0.500000
Si Si6 0.874297 0.840835 0.874366
O O1 0.089906 0.554395 0.178064
O O2 0.196576 0.600030 0.150497
O O3 0.155150 0.500000 0.000000
O O4 0.105134 0.640502 0.002524
O O5 0.500000 0.032543 0.756397
O O6 0.602129 0.101260 0.773768
O O7 0.580216 0.990152 0.610384
O O8 0.835585 0.750000 0.590023
O O9 0.750000 0.674018 0.500000
O O10 0.779600 0.622675 0.693530
O O11 0.843540 0.585413 0.516613
O O12 0.274443 0.250000 0.208337
O O13 0.196141 0.153730 0.105716
O O14 0.895004 0.750000 0.837401
#
# Coordination Sequence:
#
# PCOD8279396 Si02
#       6
#    16  16  16  16   8  16
#     4  10  22  36  58  90 127 162 198 243 304 366
#     4  11  25  42  61  86 118 160 215 265 301 354
#     4  10  21  36  59  92 127 160 196 245 307 380
#     4  10  19  36  59  91 127 154 193 243 298 373
#     4  12  22  42  66  86 118 167 213 258 318 360
#     4  10  21  39  63  91 123 159 200 247 305 372
#
# _framework density 20.175979999999999
#
# number of rings (size 3 to 8) (size 9 to 14) (size 15 to 20)
#    0.000    1.636    1.818    2.727    0.000   10.182 
#    0.000    0.909    0.000    5.455    0.000    0.000 
#    0.000    0.000    0.000    0.000    0.000    0.000 
#
# Total GULP energy -545121.621314 kJ/mol
# GULP energy per Si atom -12389.127757 kJ/mol
# Density = 2.013006 g / cm^3
# Si number density = 20.175980 Si / 1000 Ang^3
#
#
#
# Elastic Constant Matrix: (Units=GPa)
#
#
# Indices 1 2 3 4 5 6 
#
# 1 86.3686 37.7535 31.5338 0.0000 0.0000 0.0000
# 2 37.7535 84.6306 39.8762 0.0000 0.0000 0.0000
# 3 31.5338 39.8762 121.9880 0.0000 0.0000 0.0000
# 4 0.0000 0.0000 0.0000 22.8572 0.0000 0.0000
# 5 0.0000 0.0000 0.0000 0.0000 20.1055 0.0000
# 6 0.0000 0.0000 0.0000 0.0000 0.0000 8.7200
#
#
#
# Elastic Compliance Matrix: (Units=1/GPa)
#
#
# Indices 1 2 3 4 5 6 
#
# 1 0.014772 -0.005663 -0.001967 0.000000 0.000000 0.000000
# 2 -0.005663 0.016138 -0.003812 0.000000 0.000000 0.000000
# 3 -0.001967 -0.003812 0.009952 0.000000 0.000000 0.000000
# 4 0.000000 0.000000 0.000000 0.043750 0.000000 0.000000
# 5 0.000000 0.000000 0.000000 0.000000 0.049738 0.000000
# 6 0.000000 0.000000 0.000000 0.000000 0.000000 0.114679
#
#
# Mechanical properties :
#
#
# Convention : Reuss Voigt Hill
#
# Bulk Modulus (GPa) = 55.62142 56.81270 56.21706
# Shear Modulus (GPa) = 17.99179 22.59146 20.29162
#
# Velocity S-wave (km/s) = 2.98945 3.34985 3.17477
# Velocity P-wave (km/s) = 6.28838 6.57128 6.43139
#
# Compressibility (1/GPa) = 0.01797869
#
# Stress axis : x y z
#
# Youngs Moduli (GPa) = 67.69614 61.96524 100.48187
#
# Poissons Ratio (x) = 0.35089 0.19769
# Poissons Ratio (y) = 0.38334 0.38299
# Poissons Ratio (z) = 0.13319 0.23618
#
# Static dielectric constant tensor:
#      x y z
#    x 2.700800 0.000000 0.000000 
#    y 0.000000 3.973870 0.000000 
#    z 0.000000 0.000000 3.885380 
# 
# 
# High freq. dielectric constant tensor:
#      x y z
#    x 1.751710 0.000000 0.000000 
#    y 0.000000 1.791950 0.000000 
#    z 0.000000 0.000000 1.811070 
# 
# From -- ./inp_files/20652.got.cif
#   From: 2010.03.12/outbox.cif.g09.slc.cpg/sg67_11_cif.got.tgz:20652.got - 2010.04.10 22:41:39.
