data_PCOD8279279
_publ_section_title
;
Structure prediction by ZEFSAII (Michael W. Deem and Ramdas Pophale) SiO2 
 PCOD8279279
Probable space group: C M M A
;
_chemical_formula_sum "Si O2"
_cell_formula_units_Z 84
_cell_length_a 22.179260
_cell_length_b 16.607868
_cell_length_c 11.840724
_cell_angle_alpha 90.000000
_cell_angle_beta 90.000000
_cell_angle_gamma 90.000000
_cell_volume 4361.533319
_symmetry_space_group_name_H-M "C M M A"
_symmetry_group_IT_number 67
_symmetry_cell_setting 'orthorhombic'
loop_
_space_group_symop_operation_xyz
x,y,z
-x,1/2-y,z
x,-y,-z
-x,1/2+y,-z
-x,-y,-z
x,1/2+y,-z
-x,y,z
x,1/2-y,z
1/2+x,1/2+y,z
1/2-x,-y,z
1/2+x,1/2-y,-z
1/2-x,y,-z
1/2-x,1/2-y,-z
1/2+x,y,-z
1/2-x,1/2+y,z
1/2+x,-y,z
loop_
_atom_site_type_symbol
_atom_site_label
_atom_site_fract_x
_atom_site_fract_y
_atom_site_fract_z
Si Si1 0.145501 0.106564 0.268061
Si Si2 0.259601 0.094475 0.123950
Si Si3 0.625632 0.918888 0.741215
Si Si4 0.500000 0.250000 0.508162
Si Si5 0.000000 0.160966 0.713238
Si Si6 0.434731 0.250000 0.730257
Si Si7 0.183856 0.094722 0.507669
O O1 0.210207 0.126566 0.212468
O O2 0.097644 0.170297 0.221351
O O3 0.146883 0.125943 0.400978
O O4 0.123672 0.015481 0.248258
O O5 0.327368 0.114999 0.165577
O O6 0.250000 0.000000 0.116815
O O7 0.250000 0.133490 0.000000
O O8 0.558395 0.886351 0.759220
O O9 0.648905 0.884224 0.621927
O O10 0.500000 0.329100 0.424724
O O11 0.441814 0.250000 0.591956
O O12 0.000000 0.250000 0.768627
O O13 0.500000 0.250000 0.788674
O O14 0.250000 0.135050 0.500000
O O15 0.192257 0.000000 0.500000
#
# Coordination Sequence:
#
# PCOD8279279 Si02
#       7
#    16  16  16   4   8   8  16
#     4  10  19  34  56  81 111 148 186 229 282 331
#     4   9  18  35  61  87 110 139 189 244 284 328
#     4  10  19  34  59  83 111 151 186 225 285 339
#     4   8  20  38  50  74 124 158 174 224 276 326
#     4  10  22  37  54  78 118 147 186 225 271 341
#     4  10  22  36  49  75 121 148 187 230 267 334
#     4   9  15  28  50  81 111 137 179 228 274 335
#
# _framework density 19.259283
#
# number of rings (size 3 to 8) (size 9 to 14) (size 15 to 20)
#    0.571    1.905    1.905    1.143    1.333    0.000 
#    1.714    3.333    2.095    2.286    0.000    0.000 
#    0.000    0.000    0.000    0.000    0.000    0.000 
#
# Total GULP energy -520375.043909 kJ/mol
# GULP energy per Si atom -12389.881998 kJ/mol
# Density = 1.921545 g / cm^3
# Si number density = 19.259283 Si / 1000 Ang^3
#
#
#
# Elastic Constant Matrix: (Units=GPa)
#
#
# Indices 1 2 3 4 5 6 
#
# 1 179.1277 58.7600 47.0920 0.0000 0.0000 0.0000
# 2 58.7600 68.1643 19.1738 0.0000 0.0000 0.0000
# 3 47.0920 19.1738 96.9798 0.0000 0.0000 0.0000
# 4 0.0000 0.0000 0.0000 6.2475 0.0000 0.0000
# 5 0.0000 0.0000 0.0000 0.0000 16.6952 0.0000
# 6 0.0000 0.0000 0.0000 0.0000 0.0000 23.6370
#
#
#
# Elastic Compliance Matrix: (Units=1/GPa)
#
#
# Indices 1 2 3 4 5 6 
#
# 1 0.008455 -0.006495 -0.002821 0.000000 0.000000 0.000000
# 2 -0.006495 0.020523 -0.000904 0.000000 0.000000 0.000000
# 3 -0.002821 -0.000904 0.011860 0.000000 0.000000 0.000000
# 4 0.000000 0.000000 0.000000 0.160065 0.000000 0.000000
# 5 0.000000 0.000000 0.000000 0.000000 0.059898 0.000000
# 6 0.000000 0.000000 0.000000 0.000000 0.000000 0.042306
#
#
# Mechanical properties :
#
#
# Convention : Reuss Voigt Hill
#
# Bulk Modulus (GPa) = 49.02396 66.03594 57.52995
# Shear Modulus (GPa) = 15.13560 23.93232 19.53396
#
# Velocity S-wave (km/s) = 2.80641 3.52893 3.18820
# Velocity P-wave (km/s) = 6.00093 7.13910 6.59462
#
# Compressibility (1/GPa) = 0.02039819
#
# Stress axis : x y z
#
# Youngs Moduli (GPa) = 118.27503 48.72485 84.31550
#
# Poissons Ratio (x) = 0.31646 0.23790
# Poissons Ratio (y) = 0.76817 0.07621
# Poissons Ratio (z) = 0.33371 0.04404
#
# Static dielectric constant tensor:
#      x y z
#    x 3.459610 0.000000 0.000000 
#    y 0.000000 2.862470 0.000000 
#    z 0.000000 0.000000 3.646020 
# 
# 
# High freq. dielectric constant tensor:
#      x y z
#    x 1.751670 0.000000 0.000000 
#    y 0.000000 1.718050 0.000000 
#    z 0.000000 0.000000 1.724260 
# 
# From -- ./inp_files/20605.got.cif
#   From: 2010.03.12/outbox.cif.g09.slc.cpg/sg67_11_cif.got.tgz:20605.got - 2010.04.10 22:41:39.
