data_PCOD8279711
_publ_section_title
;
Structure prediction by ZEFSAII (Michael W. Deem and Ramdas Pophale) SiO2 
 PCOD8279711
Probable space group: C M M A
;
_chemical_formula_sum "Si O2"
_cell_formula_units_Z 120
_cell_length_a 26.057946
_cell_length_b 9.021778
_cell_length_c 27.602758
_cell_angle_alpha 90.000000
_cell_angle_beta 90.000000
_cell_angle_gamma 90.000000
_cell_volume 6489.104884
_symmetry_space_group_name_H-M "C M M A"
_symmetry_group_IT_number 67
_symmetry_cell_setting 'orthorhombic'
loop_
_space_group_symop_operation_xyz
x,y,z
-x,1/2-y,z
x,-y,-z
-x,1/2+y,-z
-x,-y,-z
x,1/2+y,-z
-x,y,z
x,1/2-y,z
1/2+x,1/2+y,z
1/2-x,-y,z
1/2+x,1/2-y,-z
1/2-x,y,-z
1/2-x,1/2-y,-z
1/2+x,y,-z
1/2-x,1/2+y,z
1/2+x,-y,z
loop_
_atom_site_type_symbol
_atom_site_label
_atom_site_fract_x
_atom_site_fract_y
_atom_site_fract_z
Si Si1 0.441780 0.080832 0.097661
Si Si2 0.406921 0.423063 0.809193
Si Si3 0.000000 0.574944 0.448458
Si Si4 0.148083 0.574341 0.951276
Si Si5 0.558454 0.075146 0.703696
Si Si6 0.197609 0.926492 0.448686
Si Si7 0.699589 0.079811 0.852997
Si Si8 0.402009 0.423553 0.387521
O O1 0.500000 0.072104 0.079617
O O2 0.421924 0.250000 0.098322
O O3 0.438692 0.015179 0.151697
O O4 0.408796 0.985846 0.059724
O O5 0.419760 0.250000 0.817065
O O6 0.423276 0.478742 0.756366
O O7 0.346362 0.452967 0.815757
O O8 0.000000 0.500000 0.500000
O O9 0.050682 0.520413 0.420307
O O10 0.000000 0.750000 0.455768
O O11 0.145376 0.750000 0.957319
O O12 0.184514 0.525384 0.906942
O O13 0.169983 0.500000 0.000000
O O14 0.500000 0.022706 0.695212
O O15 0.563592 0.250000 0.699287
O O16 0.595664 0.002331 0.664310
O O17 0.204442 0.750000 0.454907
O O18 0.151758 0.966086 0.412225
O O19 0.183930 0.000000 0.500000
O O20 0.250000 0.000000 0.428290
O O21 0.713376 0.250000 0.854949
O O22 0.750000 0.000000 0.833541
O O23 0.406597 0.250000 0.378780
#
# Coordination Sequence:
#
# PCOD8279711 Si02
#       8
#    16  16   8  16  16  16  16  16
#     4  10  20  33  51  77 105 135 174 215 258 311
#     4   9  19  36  55  77 104 136 175 216 261 312
#     4  10  20  34  52  76 108 144 178 220 267 320
#     4  10  21  36  53  75 104 138 174 213 260 313
#     4  10  20  34  55  81 108 142 180 217 262 317
#     4  10  20  35  56  80 105 140 183 226 272 319
#     4   9  19  35  55  77 102 133 169 214 263 310
#     4  10  21  36  53  77 111 145 178 220 273 324
#
# _framework density 18.492535
#
# number of rings (size 3 to 8) (size 9 to 14) (size 15 to 20)
#    0.000    2.267    0.667    3.200    0.000    6.933 
#    0.000    2.000    0.000    3.200    0.000    0.000 
#    0.000    0.000    0.000    0.000    0.000    0.000 
#
# Total GULP energy -744105.656382 kJ/mol
# GULP energy per Si atom -12401.760940 kJ/mol
# Density = 1.845045 g / cm^3
# Si number density = 18.492535 Si / 1000 Ang^3
#
#
#
# Elastic Constant Matrix: (Units=GPa)
#
#
# Indices 1 2 3 4 5 6 
#
# 1 96.8135 28.2436 27.5602 0.0000 0.0000 0.0000
# 2 28.2436 54.7677 22.9983 0.0000 0.0000 0.0000
# 3 27.5602 22.9983 87.8173 0.0000 0.0000 0.0000
# 4 0.0000 0.0000 0.0000 32.6549 0.0000 0.0000
# 5 0.0000 0.0000 0.0000 0.0000 19.8800 0.0000
# 6 0.0000 0.0000 0.0000 0.0000 0.0000 30.7086
#
#
#
# Elastic Compliance Matrix: (Units=1/GPa)
#
#
# Indices 1 2 3 4 5 6 
#
# 1 0.012643 -0.005454 -0.002540 0.000000 0.000000 0.000000
# 2 -0.005454 0.022867 -0.004277 0.000000 0.000000 0.000000
# 3 -0.002540 -0.004277 0.013304 0.000000 0.000000 0.000000
# 4 0.000000 0.000000 0.000000 0.030623 0.000000 0.000000
# 5 0.000000 0.000000 0.000000 0.000000 0.050302 0.000000
# 6 0.000000 0.000000 0.000000 0.000000 0.000000 0.032564
#
#
# Mechanical properties :
#
#
# Convention : Reuss Voigt Hill
#
# Bulk Modulus (GPa) = 41.19600 44.11141 42.65371
# Shear Modulus (GPa) = 25.64941 27.35514 26.50227
#
# Velocity S-wave (km/s) = 3.72830 3.85028 3.78978
# Velocity P-wave (km/s) = 6.39211 6.60845 6.50118
#
# Compressibility (1/GPa) = 0.02427420
#
# Stress axis : x y z
#
# Youngs Moduli (GPa) = 79.09464 43.73035 75.16289
#
# Poissons Ratio (x) = 0.23849 0.19089
# Poissons Ratio (y) = 0.43135 0.32149
# Poissons Ratio (z) = 0.20087 0.18704
#
# Static dielectric constant tensor:
#      x y z
#    x 3.446300 0.000000 0.000000 
#    y 0.000000 3.372320 0.000000 
#    z 0.000000 0.000000 3.350060 
# 
# 
# High freq. dielectric constant tensor:
#      x y z
#    x 1.718420 0.000000 0.000000 
#    y 0.000000 1.718350 0.000000 
#    z 0.000000 0.000000 1.710150 
# 
# From -- ./inp_files/45050.got.cif
#   From: 2010.03.12/outbox.cif.g09.slc.cpg/sg67_23_cif.got.tgz:45050.got - 2010.04.10 22:41:39.
