data_PCOD8279212
_publ_section_title
;
Structure prediction by ZEFSAII (Michael W. Deem and Ramdas Pophale) SiO2 
 PCOD8279212
Probable space group: C M M A
;
_chemical_formula_sum "Si O2"
_cell_formula_units_Z 104
_cell_length_a 27.558843
_cell_length_b 20.305782
_cell_length_c 9.454817
_cell_angle_alpha 90.000000
_cell_angle_beta 90.000000
_cell_angle_gamma 90.000000
_cell_volume 5290.952071
_symmetry_space_group_name_H-M "C M M A"
_symmetry_group_IT_number 67
_symmetry_cell_setting 'orthorhombic'
loop_
_space_group_symop_operation_xyz
x,y,z
-x,1/2-y,z
x,-y,-z
-x,1/2+y,-z
-x,-y,-z
x,1/2+y,-z
-x,y,z
x,1/2-y,z
1/2+x,1/2+y,z
1/2-x,-y,z
1/2+x,1/2-y,-z
1/2-x,y,-z
1/2-x,1/2-y,-z
1/2+x,y,-z
1/2-x,1/2+y,z
1/2+x,-y,z
loop_
_atom_site_type_symbol
_atom_site_label
_atom_site_fract_x
_atom_site_fract_y
_atom_site_fract_z
Si Si1 0.143007 0.325962 0.690026
Si Si2 0.404745 0.000000 0.000000
Si Si3 0.945584 0.630376 0.125156
Si Si4 0.806404 0.576405 0.524361
Si Si5 0.197184 0.675139 0.026836
Si Si6 0.358626 0.094004 0.805146
Si Si7 0.054169 0.823337 0.821901
O O1 0.139251 0.250000 0.635780
O O2 0.091157 0.349409 0.750237
O O3 0.159644 0.375273 0.566384
O O4 0.184312 0.330881 0.808979
O O5 0.437889 0.942467 0.938004
O O6 0.370785 0.022467 0.868785
O O7 0.000000 0.634546 0.188466
O O8 0.939375 0.679175 0.992250
O O9 0.819324 0.500000 0.500000
O O10 0.750000 0.591788 0.500000
O O11 0.817227 0.590500 0.688245
O O12 0.196867 0.750000 0.973151
O O13 0.157482 0.637182 0.937940
O O14 0.250000 0.643519 0.000000
O O15 0.407853 0.127795 0.745317
O O16 0.063005 0.750000 0.763624
O O17 0.000000 0.847929 0.783114
#
# Coordination Sequence:
#
# PCOD8279212 Si02
#       7
#    16   8  16  16  16  16  16
#     4  11  22  39  61  90 126 160 204 256 311 376
#     4  10  19  34  59  90 120 154 209 256 309 364
#     4  10  19  33  57  88 124 161 198 248 308 366
#     4  11  26  45  62  83 121 167 209 253 310 380
#     4  10  20  35  58  87 116 146 194 257 310 359
#     4  11  21  37  61  85 114 156 197 253 300 364
#     4   9  17  31  56  89 119 147 188 243 303 356
#
# _framework density 19.656196999999999
#
# number of rings (size 3 to 8) (size 9 to 14) (size 15 to 20)
#    0.000    1.692    3.077    3.000    0.000    3.077 
#    0.000    0.769    0.000    1.846    0.000    0.000 
#    0.000    0.000    0.000    0.000    0.000    0.000 
#
# Total GULP energy -644727.523571 kJ/mol
# GULP energy per Si atom -12398.606223 kJ/mol
# Density = 1.961146 g / cm^3
# Si number density = 19.656197 Si / 1000 Ang^3
#
#
#
# Elastic Constant Matrix: (Units=GPa)
#
#
# Indices 1 2 3 4 5 6 
#
# 1 123.7704 37.5352 28.1807 0.0000 0.0000 0.0000
# 2 37.5352 101.4395 27.6876 0.0000 0.0000 0.0000
# 3 28.1807 27.6876 62.0689 0.0000 0.0000 0.0000
# 4 0.0000 0.0000 0.0000 26.4573 0.0000 0.0000
# 5 0.0000 0.0000 0.0000 0.0000 32.0857 0.0000
# 6 0.0000 0.0000 0.0000 0.0000 0.0000 22.9012
#
#
#
# Elastic Compliance Matrix: (Units=1/GPa)
#
#
# Indices 1 2 3 4 5 6 
#
# 1 0.009617 -0.002695 -0.003164 0.000000 0.000000 0.000000
# 2 -0.002695 0.011980 -0.004120 0.000000 0.000000 0.000000
# 3 -0.003164 -0.004120 0.019386 0.000000 0.000000 0.000000
# 4 0.000000 0.000000 0.000000 0.037797 0.000000 0.000000
# 5 0.000000 0.000000 0.000000 0.000000 0.031167 0.000000
# 6 0.000000 0.000000 0.000000 0.000000 0.000000 0.043666
#
#
# Mechanical properties :
#
#
# Convention : Reuss Voigt Hill
#
# Bulk Modulus (GPa) = 47.56541 52.67620 50.12081
# Shear Modulus (GPa) = 27.68866 29.21386 28.45126
#
# Velocity S-wave (km/s) = 3.75727 3.85936 3.80866
# Velocity P-wave (km/s) = 6.56308 6.83495 6.70039
#
# Compressibility (1/GPa) = 0.02102368
#
# Stress axis : x y z
#
# Youngs Moduli (GPa) = 103.98019 83.47280 51.58402
#
# Poissons Ratio (x) = 0.22495 0.16323
# Poissons Ratio (y) = 0.28022 0.21255
# Poissons Ratio (z) = 0.32902 0.34395
#
# Static dielectric constant tensor:
#      x y z
#    x 3.804410 0.000000 0.000000 
#    y 0.000000 3.713300 0.000000 
#    z 0.000000 0.000000 3.194910 
# 
# 
# High freq. dielectric constant tensor:
#      x y z
#    x 1.780030 0.000000 0.000000 
#    y 0.000000 1.773410 0.000000 
#    z 0.000000 0.000000 1.728830 
# 
# From -- ./inp_files/13822.got.cif
#   From: 2010.03.12/outbox.cif.g09.slc.cpg/sg67_7_cif.got.tgz:13822.got - 2010.04.10 22:41:39.
