data_PCOD8279177
_publ_section_title
;
Structure prediction by ZEFSAII (Michael W. Deem and Ramdas Pophale) SiO2 
 PCOD8279177
Probable space group: C M M A
;
_chemical_formula_sum "Si O2"
_cell_formula_units_Z 96
_cell_length_a 8.845203
_cell_length_b 25.733124
_cell_length_c 23.184309
_cell_angle_alpha 90.000000
_cell_angle_beta 90.000000
_cell_angle_gamma 90.000000
_cell_volume 5277.089668
_symmetry_space_group_name_H-M "C M M A"
_symmetry_group_IT_number 67
_symmetry_cell_setting 'orthorhombic'
loop_
_space_group_symop_operation_xyz
x,y,z
-x,1/2-y,z
x,-y,-z
-x,1/2+y,-z
-x,-y,-z
x,1/2+y,-z
-x,y,z
x,1/2-y,z
1/2+x,1/2+y,z
1/2-x,-y,z
1/2+x,1/2-y,-z
1/2-x,y,-z
1/2-x,1/2-y,-z
1/2+x,y,-z
1/2-x,1/2+y,z
1/2+x,-y,z
loop_
_atom_site_type_symbol
_atom_site_label
_atom_site_fract_x
_atom_site_fract_y
_atom_site_fract_z
Si Si1 0.678565 0.750000 0.131504
Si Si2 0.176597 0.150820 0.670559
Si Si3 0.822178 0.052906 0.874680
Si Si4 0.321321 0.553083 0.743789
Si Si5 0.324965 0.250000 0.252642
Si Si6 0.820144 0.343159 0.937824
Si Si7 0.322120 0.190636 0.559211
O O1 0.500000 0.750000 0.120278
O O2 0.713195 0.750000 0.198965
O O3 0.753351 0.699087 0.104975
O O4 0.235728 0.099935 0.703815
O O5 0.214074 0.199866 0.710004
O O6 0.265157 0.154335 0.610695
O O7 0.000000 0.147665 0.656644
O O8 0.766220 0.063526 0.809324
O O9 0.770017 0.100416 0.914741
O O10 0.000000 0.046121 0.876403
O O11 0.750000 0.000000 0.899314
O O12 0.500000 0.548432 0.741582
O O13 0.250000 0.500000 0.719764
O O14 0.500000 0.250000 0.232253
O O15 0.000000 0.337182 0.940333
O O16 0.750000 0.333771 0.000000
O O17 0.500000 0.186162 0.553805
O O18 0.270072 0.250000 0.570826
O O19 0.250000 0.169988 0.500000
#
# Coordination Sequence:
#
# PCOD8279177 Si02
#       7
#     8  16  16  16   8  16  16
#     4  12  25  39  56  79 108 142 181 224 268 320
#     4  10  19  33  55  80 109 143 181 219 264 318
#     4   9  19  36  58  81 108 139 175 219 269 322
#     4   9  18  33  53  78 105 139 178 215 260 315
#     4  10  20  35  56  81 110 142 173 216 271 324
#     4  11  23  40  59  79 106 141 180 221 268 325
#     4  10  20  33  51  76 110 146 182 221 264 315
#
# _framework density 18.191846000000002
#
# number of rings (size 3 to 8) (size 9 to 14) (size 15 to 20)
#    0.000    2.000    0.833    3.000    0.000    6.333 
#    0.000    5.000    0.000    0.500    0.000    3.500 
#    0.000    0.000    0.000    0.000    0.000    0.000 
#
# Total GULP energy -595383.922928 kJ/mol
# GULP energy per Si atom -12403.831728 kJ/mol
# Density = 1.815044 g / cm^3
# Si number density = 18.191846 Si / 1000 Ang^3
#
#
#
# Elastic Constant Matrix: (Units=GPa)
#
#
# Indices 1 2 3 4 5 6 
#
# 1 57.0149 33.8858 33.5023 0.0000 0.0000 0.0000
# 2 33.8858 108.4744 38.1909 0.0000 0.0000 0.0000
# 3 33.5023 38.1909 94.1812 0.0000 0.0000 0.0000
# 4 0.0000 0.0000 0.0000 -119.8933 0.0000 0.0000
# 5 0.0000 0.0000 0.0000 0.0000 33.8585 0.0000
# 6 0.0000 0.0000 0.0000 0.0000 0.0000 30.3638
#
#
#
# Elastic Compliance Matrix: (Units=1/GPa)
#
#
# Indices 1 2 3 4 5 6 
#
# 1 0.024591 -0.005368 -0.006571 0.000000 0.000000 0.000000
# 2 -0.005368 0.011926 -0.002926 0.000000 0.000000 0.000000
# 3 -0.006571 -0.002926 0.014142 0.000000 0.000000 0.000000
# 4 0.000000 0.000000 0.000000 -0.008341 0.000000 0.000000
# 5 0.000000 0.000000 0.000000 0.000000 0.029535 0.000000
# 6 0.000000 0.000000 0.000000 0.000000 0.000000 0.032934
#
#
# Mechanical properties :
#
#
# Convention : Reuss Voigt Hill
#
# Bulk Modulus (GPa) = 47.78320 52.31427 50.04873
# Shear Modulus (GPa) = 35.33733 -0.86142 17.23796
#
# Velocity S-wave (km/s) = 4.41214 -0.68887 3.08159
# Velocity P-wave (km/s) = 7.23044 5.30911 6.34295
#
# Compressibility (1/GPa) = 0.02092786
#
# Stress axis : x y z
#
# Youngs Moduli (GPa) = 40.66555 83.84966 70.71240
#
# Poissons Ratio (x) = 0.45015 0.46462
# Poissons Ratio (y) = 0.21831 0.20693
# Poissons Ratio (z) = 0.26719 0.24538
#
# Static dielectric constant tensor:
#      x y z
#    x 3.276410 0.000000 0.000000 
#    y 0.000000 3.470520 0.000000 
#    z 0.000000 0.000000 3.365390 
# 
# 
# High freq. dielectric constant tensor:
#      x y z
#    x 1.703320 0.000000 0.000000 
#    y 0.000000 1.703360 0.000000 
#    z 0.000000 0.000000 1.705090 
# 
# From -- ./inp_files/40802.got.cif
#   From: 2010.03.12/outbox.cif.g09.slc.cpg/sg67_21_cif.got.tgz:40802.got - 2010.04.10 22:41:39.
