data_PCOD8279125
_publ_section_title
;
Structure prediction by ZEFSAII (Michael W. Deem and Ramdas Pophale) SiO2 
 PCOD8279125
Probable space group: C M M A
;
_chemical_formula_sum "Si O2"
_cell_formula_units_Z 80
_cell_length_a 8.518514
_cell_length_b 27.668304
_cell_length_c 18.795934
_cell_angle_alpha 90.000000
_cell_angle_beta 90.000000
_cell_angle_gamma 90.000000
_cell_volume 4430.066971
_symmetry_space_group_name_H-M "C M M A"
_symmetry_group_IT_number 67
_symmetry_cell_setting 'orthorhombic'
loop_
_space_group_symop_operation_xyz
x,y,z
-x,1/2-y,z
x,-y,-z
-x,1/2+y,-z
-x,-y,-z
x,1/2+y,-z
-x,y,z
x,1/2-y,z
1/2+x,1/2+y,z
1/2-x,-y,z
1/2+x,1/2-y,-z
1/2-x,y,-z
1/2-x,1/2-y,-z
1/2+x,y,-z
1/2-x,1/2+y,z
1/2+x,-y,z
loop_
_atom_site_type_symbol
_atom_site_label
_atom_site_fract_x
_atom_site_fract_y
_atom_site_fract_z
Si Si1 0.185540 0.196835 0.210967
Si Si2 0.814295 0.862074 0.924399
Si Si3 0.315730 0.051821 0.423709
Si Si4 0.314396 0.895249 0.293397
Si Si5 0.685283 0.448301 0.159715
O O1 0.259939 0.250000 0.224934
O O2 0.234112 0.178905 0.132456
O O3 0.244438 0.158245 0.269732
O O4 0.000000 0.200054 0.215603
O O5 0.731003 0.912054 0.903478
O O6 0.000000 0.870309 0.925900
O O7 0.750000 0.844352 0.000000
O O8 0.500000 0.047371 0.429323
O O9 0.250000 0.067612 0.500000
O O10 0.268354 0.092627 0.367446
O O11 0.250000 0.000000 0.399172
O O12 0.500000 0.897170 0.303534
O O13 0.266913 0.933641 0.233558
O O14 0.500000 0.449463 0.170899
O O15 0.750000 0.500000 0.136252
#
# Coordination Sequence:
#
# PCOD8279125 Si02
#       5
#    16  16  16  16  16
#     4   8  16  32  54  77 100 129 166 208 254 302
#     4  10  20  34  51  73 101 131 166 207 254 305
#     4  11  21  34  52  77 109 141 174 207 246 293
#     4  10  19  33  53  77 105 135 169 208 251 297
#     4  11  21  34  51  72  99 132 171 209 250 298
#
# _framework density 18.058419000000001
#
# number of rings (size 3 to 8) (size 9 to 14) (size 15 to 20)
#    0.000    2.000    0.000    7.200    0.000    0.800 
#    0.000    2.000    0.000   21.600    0.000    0.000 
#    0.000    0.000    0.000    0.000    0.000    0.000 
#
# Total GULP energy -496040.954488 kJ/mol
# GULP energy per Si atom -12401.023862 kJ/mol
# Density = 1.801732 g / cm^3
# Si number density = 18.058419 Si / 1000 Ang^3
#
#
#
# Elastic Constant Matrix: (Units=GPa)
#
#
# Indices 1 2 3 4 5 6 
#
# 1 94.2852 29.4099 32.0553 0.0000 0.0000 0.0000
# 2 29.4099 134.0241 62.1670 0.0000 0.0000 0.0000
# 3 32.0553 62.1670 127.0237 0.0000 0.0000 0.0000
# 4 0.0000 0.0000 0.0000 18.2184 0.0000 0.0000
# 5 0.0000 0.0000 0.0000 0.0000 32.3501 0.0000
# 6 0.0000 0.0000 0.0000 0.0000 0.0000 16.6960
#
#
#
# Elastic Compliance Matrix: (Units=1/GPa)
#
#
# Indices 1 2 3 4 5 6 
#
# 1 0.011851 -0.001570 -0.002223 0.000000 0.000000 0.000000
# 2 -0.001570 0.009861 -0.004430 0.000000 0.000000 0.000000
# 3 -0.002223 -0.004430 0.010601 0.000000 0.000000 0.000000
# 4 0.000000 0.000000 0.000000 0.054890 0.000000 0.000000
# 5 0.000000 0.000000 0.000000 0.000000 0.030912 0.000000
# 6 0.000000 0.000000 0.000000 0.000000 0.000000 0.059895
#
#
# Mechanical properties :
#
#
# Convention : Reuss Voigt Hill
#
# Bulk Modulus (GPa) = 63.01472 66.95528 64.98500
# Shear Modulus (GPa) = 25.03217 28.89963 26.96590
#
# Velocity S-wave (km/s) = 3.72718 4.00477 3.86846
# Velocity P-wave (km/s) = 7.31390 7.65126 7.48448
#
# Compressibility (1/GPa) = 0.01586931
#
# Stress axis : x y z
#
# Youngs Moduli (GPa) = 84.37837 101.41448 94.32731
#
# Poissons Ratio (x) = 0.15919 0.20965
# Poissons Ratio (y) = 0.13245 0.41784
# Poissons Ratio (z) = 0.18753 0.44924
#
# Static dielectric constant tensor:
#      x y z
#    x 3.305560 0.000000 0.000000 
#    y 0.000000 3.583880 0.000000 
#    z 0.000000 0.000000 3.465100 
# 
# 
# High freq. dielectric constant tensor:
#      x y z
#    x 1.701410 0.000000 0.000000 
#    y 0.000000 1.690890 0.000000 
#    z 0.000000 0.000000 1.693680 
# 
# From -- ./inp_files/32113.got.cif
#   From: 2010.03.12/outbox.cif.g09.slc.cpg/sg67_17_cif.got.tgz:32113.got - 2010.04.10 22:41:39.
