data_PCOD8279620
_publ_section_title
;
Structure prediction by ZEFSAII (Michael W. Deem and Ramdas Pophale) SiO2 
 PCOD8279620
Probable space group: C M M A
;
_chemical_formula_sum "Si O2"
_cell_formula_units_Z 96
_cell_length_a 9.954163
_cell_length_b 18.242122
_cell_length_c 30.859671
_cell_angle_alpha 90.000000
_cell_angle_beta 90.000000
_cell_angle_gamma 90.000000
_cell_volume 5603.655082
_symmetry_space_group_name_H-M "C M M A"
_symmetry_group_IT_number 67
_symmetry_cell_setting 'orthorhombic'
loop_
_space_group_symop_operation_xyz
x,y,z
-x,1/2-y,z
x,-y,-z
-x,1/2+y,-z
-x,-y,-z
x,1/2+y,-z
-x,y,z
x,1/2-y,z
1/2+x,1/2+y,z
1/2-x,-y,z
1/2+x,1/2-y,-z
1/2-x,y,-z
1/2-x,1/2-y,-z
1/2+x,y,-z
1/2-x,1/2+y,z
1/2+x,-y,z
loop_
_atom_site_type_symbol
_atom_site_label
_atom_site_fract_x
_atom_site_fract_y
_atom_site_fract_z
Si Si1 0.349597 0.337221 0.867754
Si Si2 0.843143 0.430385 0.621765
Si Si3 0.159341 0.331283 0.700262
Si Si4 0.650301 0.662761 0.035837
Si Si5 0.149642 0.662650 0.204042
Si Si6 0.152627 0.165342 0.537577
O O1 0.500000 0.365528 0.857766
O O2 0.346918 0.250000 0.865229
O O3 0.304933 0.362564 0.915969
O O4 0.248566 0.371196 0.832214
O O5 0.750000 0.500000 0.615232
O O6 0.789567 0.388056 0.664306
O O7 0.819079 0.378127 0.581181
O O8 0.000000 0.452803 0.625935
O O9 0.220285 0.250000 0.691501
O O10 0.201961 0.360085 0.748049
O O11 0.000000 0.324954 0.698091
O O12 0.500000 0.634541 0.025871
O O13 0.653281 0.750000 0.033443
O O14 0.750000 0.628345 0.000000
O O15 0.146049 0.750000 0.201432
O O16 0.000000 0.631505 0.195453
O O17 0.183232 0.250000 0.547710
O O18 0.250000 0.135253 0.500000
O O19 0.000000 0.154146 0.521644
#
# Coordination Sequence:
#
# PCOD8279620 Si02
#       6
#    16  16  16  16  16  16
#     4   8  13  20  28  40  62  89 115 150 200 250
#     4  10  20  33  49  69  94 122 150 181 219 263
#     4   8  14  27  47  66  83 108 145 184 217 254
#     4   8  13  19  25  34  51  79 115 152 190 234
#     4   8  13  21  35  54  70  87 120 165 205 240
#     4   9  18  33  53  74  94 120 154 188 221 257
#
# _framework density 17.131675000000001
#
# number of rings (size 3 to 8) (size 9 to 14) (size 15 to 20)
#    0.000    3.500    0.000    2.500    0.000    3.667 
#    0.000    5.833    0.000    2.500    0.000    0.000 
#    0.000    0.000    0.000    0.000    0.000    0.833 
#
# Total GULP energy -594860.116526 kJ/mol
# GULP energy per Si atom -12392.919094 kJ/mol
# Density = 1.709268 g / cm^3
# Si number density = 17.131675 Si / 1000 Ang^3
#
#
#
# Elastic Constant Matrix: (Units=GPa)
#
#
# Indices 1 2 3 4 5 6 
#
# 1 87.9820 28.7725 84.5715 0.0000 0.0000 0.0000
# 2 28.7725 32.3570 32.7243 0.0000 0.0000 0.0000
# 3 84.5715 32.7243 157.9419 0.0000 0.0000 0.0000
# 4 0.0000 0.0000 0.0000 -0.0177 0.0000 0.0000
# 5 0.0000 0.0000 0.0000 0.0000 30.7335 0.0000
# 6 0.0000 0.0000 0.0000 0.0000 0.0000 11.6536
#
#
#
# Elastic Compliance Matrix: (Units=1/GPa)
#
#
# Indices 1 2 3 4 5 6 
#
# 1 0.026491 -0.011652 -0.011771 0.000000 0.000000 0.000000
# 2 -0.011652 0.044223 -0.002924 0.000000 0.000000 0.000000
# 3 -0.011771 -0.002924 0.013240 0.000000 0.000000 0.000000
# 4 0.000000 0.000000 0.000000-56.533396 0.000000 0.000000
# 5 0.000000 0.000000 0.000000 0.000000 0.032538 0.000000
# 6 0.000000 0.000000 0.000000 0.000000 0.000000 0.085810
#
#
# Mechanical properties :
#
#
# Convention : Reuss Voigt Hill
#
# Bulk Modulus (GPa) = 31.98813 63.37975 47.68394
# Shear Modulus (GPa) = -0.08886 17.28806 8.59960
#
# Velocity S-wave (km/s) = -0.22799 3.18012 2.24290
# Velocity P-wave (km/s) = 4.31777 7.11057 5.88232
#
# Compressibility (1/GPa) = 0.03126160
#
# Stress axis : x y z
#
# Youngs Moduli (GPa) = 37.74903 22.61262 75.52977
#
# Poissons Ratio (x) = 0.26348 0.88903
# Poissons Ratio (y) = 0.43985 0.22081
# Poissons Ratio (z) = 0.44433 0.06611
#
# Static dielectric constant tensor:
#      x y z
#    x 3.268450 0.000000 0.000000 
#    y 0.000000 2.702730 0.000000 
#    z 0.000000 0.000000 3.599560 
# 
# 
# High freq. dielectric constant tensor:
#      x y z
#    x 1.645880 0.000000 0.000000 
#    y 0.000000 1.599710 0.000000 
#    z 0.000000 0.000000 1.677120 
# 
# From -- ./inp_files/44085.got.cif
#   From: 2010.03.12/outbox.cif.g09.slc.cpg/sg67_23_cif.got.tgz:44085.got - 2010.04.10 22:41:39.
