data_PCOD8279481
_publ_section_title
;
Structure prediction by ZEFSAII (Michael W. Deem and Ramdas Pophale) SiO2 
 PCOD8279481
Probable space group: C M M A
;
_chemical_formula_sum "Si O2"
_cell_formula_units_Z 104
_cell_length_a 30.414758
_cell_length_b 8.871906
_cell_length_c 22.672255
_cell_angle_alpha 90.000000
_cell_angle_beta 90.000000
_cell_angle_gamma 90.000000
_cell_volume 6117.810415
_symmetry_space_group_name_H-M "C M M A"
_symmetry_group_IT_number 67
_symmetry_cell_setting 'orthorhombic'
loop_
_space_group_symop_operation_xyz
x,y,z
-x,1/2-y,z
x,-y,-z
-x,1/2+y,-z
-x,-y,-z
x,1/2+y,-z
-x,y,z
x,1/2-y,z
1/2+x,1/2+y,z
1/2-x,-y,z
1/2+x,1/2-y,-z
1/2-x,y,-z
1/2-x,1/2-y,-z
1/2+x,y,-z
1/2-x,1/2+y,z
1/2+x,-y,z
loop_
_atom_site_type_symbol
_atom_site_label
_atom_site_fract_x
_atom_site_fract_y
_atom_site_fract_z
Si Si1 0.325457 0.926219 0.940776
Si Si2 0.592326 0.579942 0.102215
Si Si3 0.551959 0.418629 0.557648
Si Si4 0.379234 0.421441 0.764916
Si Si5 0.550588 0.428352 0.320926
Si Si6 0.704508 0.570728 0.811946
Si Si7 0.000000 0.072716 0.062401
O O1 0.320609 0.750000 0.948019
O O2 0.302451 0.982526 0.880165
O O3 0.376447 0.972645 0.936206
O O4 0.304373 0.000000 0.000000
O O5 0.597938 0.750000 0.077665
O O6 0.601593 0.574018 0.170481
O O7 0.543048 0.517433 0.096735
O O8 0.572230 0.500000 0.500000
O O9 0.500000 0.408937 0.550882
O O10 0.571699 0.250000 0.563011
O O11 0.564869 0.515117 0.614683
O O12 0.371393 0.250000 0.743360
O O13 0.415216 0.500596 0.724332
O O14 0.332878 0.509823 0.767317
O O15 0.500000 0.477653 0.306554
O O16 0.554937 0.250000 0.318862
O O17 0.705428 0.750000 0.807743
O O18 0.750000 0.500000 0.789706
O O19 0.000000 0.250000 0.055920
O O20 0.000000 0.000000 0.000000
#
# Coordination Sequence:
#
# PCOD8279481 Si02
#       7
#    16  16  16  16  16  16   8
#     4  10  20  33  50  70  93 117 146 187 236 294
#     4   9  19  33  48  64  87 118 154 195 240 288
#     4   9  16  27  44  67  97 135 176 214 251 290
#     4  10  20  34  53  73  96 127 163 205 249 295
#     4  10  20  32  47  71 104 140 176 213 248 288
#     4  10  21  37  55  74  97 123 155 196 246 302
#     4  10  20  32  44  62  84 112 151 194 235 280
#
# _framework density 16.999547
#
# number of rings (size 3 to 8) (size 9 to 14) (size 15 to 20)
#    0.000    2.308    0.000    2.769    1.077    7.385 
#    0.000    1.538    0.000    0.000    0.000    0.000 
#    0.000    0.615    0.000    6.154    0.000    4.000 
#
# Total GULP energy -644645.333899 kJ/mol
# GULP energy per Si atom -12397.025652 kJ/mol
# Density = 1.696086 g / cm^3
# Si number density = 16.999547 Si / 1000 Ang^3
#
#
#
# Elastic Constant Matrix: (Units=GPa)
#
#
# Indices 1 2 3 4 5 6 
#
# 1 99.3188 38.5309 29.0891 0.0000 0.0000 0.0000
# 2 38.5309 86.9063 37.2518 0.0000 0.0000 0.0000
# 3 29.0891 37.2518 64.5150 0.0000 0.0000 0.0000
# 4 0.0000 0.0000 0.0000 31.5708 0.0000 0.0000
# 5 0.0000 0.0000 0.0000 0.0000 7.2631 0.0000
# 6 0.0000 0.0000 0.0000 0.0000 0.0000 25.6484
#
#
#
# Elastic Compliance Matrix: (Units=1/GPa)
#
#
# Indices 1 2 3 4 5 6 
#
# 1 0.012662 -0.004208 -0.003279 0.000000 0.000000 0.000000
# 2 -0.004208 0.016690 -0.007740 0.000000 0.000000 0.000000
# 3 -0.003279 -0.007740 0.021448 0.000000 0.000000 0.000000
# 4 0.000000 0.000000 0.000000 0.031675 0.000000 0.000000
# 5 0.000000 0.000000 0.000000 0.000000 0.137682 0.000000
# 6 0.000000 0.000000 0.000000 0.000000 0.000000 0.038989
#
#
# Mechanical properties :
#
#
# Convention : Reuss Voigt Hill
#
# Bulk Modulus (GPa) = 49.15078 51.16485 50.15782
# Shear Modulus (GPa) = 16.87021 22.62102 19.74562
#
# Velocity S-wave (km/s) = 3.15364 3.65181 3.41183
# Velocity P-wave (km/s) = 6.49895 6.92417 6.71493
#
# Compressibility (1/GPa) = 0.02034556
#
# Stress axis : x y z
#
# Youngs Moduli (GPa) = 78.97949 59.91673 46.62503
#
# Poissons Ratio (x) = 0.25213 0.15289
# Poissons Ratio (y) = 0.33235 0.36086
# Poissons Ratio (z) = 0.25899 0.46373
#
# Static dielectric constant tensor:
#      x y z
#    x 3.132540 0.000000 0.000000 
#    y 0.000000 3.307720 0.000000 
#    z 0.000000 0.000000 3.162070 
# 
# 
# High freq. dielectric constant tensor:
#      x y z
#    x 1.633390 0.000000 0.000000 
#    y 0.000000 1.669130 0.000000 
#    z 0.000000 0.000000 1.637410 
# 
# From -- ./inp_files/37567.got.cif
#   From: 2010.03.12/outbox.cif.g09.slc.cpg/sg67_19_cif.got.tgz:37567.got - 2010.04.10 22:41:39.
