data_PCOD8279180
_publ_section_title
;
Structure prediction by ZEFSAII (Michael W. Deem and Ramdas Pophale) SiO2 
 PCOD8279180
Probable space group: C M M A
;
_chemical_formula_sum "Si O2"
_cell_formula_units_Z 72
_cell_length_a 9.126619
_cell_length_b 22.806041
_cell_length_c 18.005156
_cell_angle_alpha 90.000000
_cell_angle_beta 90.000000
_cell_angle_gamma 90.000000
_cell_volume 3747.630028
_symmetry_space_group_name_H-M "C M M A"
_symmetry_group_IT_number 67
_symmetry_cell_setting 'orthorhombic'
loop_
_space_group_symop_operation_xyz
x,y,z
-x,1/2-y,z
x,-y,-z
-x,1/2+y,-z
-x,-y,-z
x,1/2+y,-z
-x,y,z
x,1/2-y,z
1/2+x,1/2+y,z
1/2-x,-y,z
1/2+x,1/2-y,-z
1/2-x,y,-z
1/2-x,1/2-y,-z
1/2+x,y,-z
1/2-x,1/2+y,z
1/2+x,-y,z
loop_
_atom_site_type_symbol
_atom_site_label
_atom_site_fract_x
_atom_site_fract_y
_atom_site_fract_z
Si Si1 0.162712 0.411735 0.429847
Si Si2 0.675376 0.062903 0.926908
Si Si3 0.170772 0.182999 0.657503
Si Si4 0.750000 0.500000 0.688887
Si Si5 0.662123 0.101718 0.209930
O O1 0.250000 0.438139 0.500000
O O2 0.240146 0.351843 0.404589
O O3 0.150766 0.459328 0.363915
O O4 0.000000 0.395985 0.455876
O O5 0.500000 0.057828 0.935408
O O6 0.716316 0.101049 0.854861
O O7 0.750000 0.000000 0.915367
O O8 0.750000 0.091856 0.000000
O O9 0.223020 0.250000 0.656961
O O10 0.204290 0.156759 0.738849
O O11 0.000000 0.176484 0.638772
O O12 0.654569 0.542192 0.741299
O O13 0.500000 0.109595 0.175110
#
# Coordination Sequence:
#
# PCOD8279180 Si02
#       5
#    16  16  16   8  16
#     4  11  23  37  55  80 108 143 181 223 273 326
#     4  11  21  33  51  77 112 148 181 216 259 312
#     4   9  20  39  60  81 106 139 180 226 274 322
#     4  10  21  34  55  78 110 140 178 216 267 324
#     4  10  19  33  55  81 110 141 175 218 267 321
#
# _framework density 19.212143000000001
#
# number of rings (size 3 to 8) (size 9 to 14) (size 15 to 20)
#    0.000    1.778    1.111    4.333    0.000    8.000 
#    0.000    0.000    0.000    0.667    0.000    0.000 
#    0.000    0.000    0.000    0.000    0.000    0.000 
#
# Total GULP energy -446328.260976 kJ/mol
# GULP energy per Si atom -12398.007249 kJ/mol
# Density = 1.916842 g / cm^3
# Si number density = 19.212143 Si / 1000 Ang^3
#
#
#
# Elastic Constant Matrix: (Units=GPa)
#
#
# Indices 1 2 3 4 5 6 
#
# 1 131.8715 18.7750 50.7558 0.0000 0.0000 0.0000
# 2 18.7750 86.8116 25.2511 0.0000 0.0000 0.0000
# 3 50.7558 25.2511 107.6543 0.0000 0.0000 0.0000
# 4 0.0000 0.0000 0.0000 16.9598 0.0000 0.0000
# 5 0.0000 0.0000 0.0000 0.0000 31.8885 0.0000
# 6 0.0000 0.0000 0.0000 0.0000 0.0000 16.8378
#
#
#
# Elastic Compliance Matrix: (Units=1/GPa)
#
#
# Indices 1 2 3 4 5 6 
#
# 1 0.009315 -0.000791 -0.004206 0.000000 0.000000 0.000000
# 2 -0.000791 0.012430 -0.002543 0.000000 0.000000 0.000000
# 3 -0.004206 -0.002543 0.011868 0.000000 0.000000 0.000000
# 4 0.000000 0.000000 0.000000 0.058963 0.000000 0.000000
# 5 0.000000 0.000000 0.000000 0.000000 0.031359 0.000000
# 6 0.000000 0.000000 0.000000 0.000000 0.000000 0.059390
#
#
# Mechanical properties :
#
#
# Convention : Reuss Voigt Hill
#
# Bulk Modulus (GPa) = 53.95615 57.32235 55.63925
# Shear Modulus (GPa) = 24.44003 28.57424 26.50714
#
# Velocity S-wave (km/s) = 3.57054 3.86074 3.71847
# Velocity P-wave (km/s) = 6.71891 7.05514 6.88908
#
# Compressibility (1/GPa) = 0.01853357
#
# Stress axis : x y z
#
# Youngs Moduli (GPa) = 107.35813 80.45156 84.25756
#
# Poissons Ratio (x) = 0.06364 0.35439
# Poissons Ratio (y) = 0.08493 0.21423
# Poissons Ratio (z) = 0.45155 0.20455
#
# Static dielectric constant tensor:
#      x y z
#    x 3.392160 0.000000 0.000000 
#    y 0.000000 3.322740 0.000000 
#    z 0.000000 0.000000 3.735050 
# 
# 
# High freq. dielectric constant tensor:
#      x y z
#    x 1.748390 0.000000 0.000000 
#    y 0.000000 1.714850 0.000000 
#    z 0.000000 0.000000 1.754210 
# 
# From -- ./inp_files/31949.got.cif
#   From: 2010.03.12/outbox.cif.g09.slc.cpg/sg67_16_cif.got.tgz:31949.got - 2010.04.10 22:41:39.
