data_PCOD8279824
_publ_section_title
;
Structure prediction by ZEFSAII (Michael W. Deem and Ramdas Pophale) SiO2 
 PCOD8279824
Probable space group: C M M A
;
_chemical_formula_sum "Si O2"
_cell_formula_units_Z 80
_cell_length_a 9.408005
_cell_length_b 19.705995
_cell_length_c 25.001796
_cell_angle_alpha 90.000000
_cell_angle_beta 90.000000
_cell_angle_gamma 90.000000
_cell_volume 4635.185455
_symmetry_space_group_name_H-M "C M M A"
_symmetry_group_IT_number 67
_symmetry_cell_setting 'orthorhombic'
loop_
_space_group_symop_operation_xyz
x,y,z
-x,1/2-y,z
x,-y,-z
-x,1/2+y,-z
-x,-y,-z
x,1/2+y,-z
-x,y,z
x,1/2-y,z
1/2+x,1/2+y,z
1/2-x,-y,z
1/2+x,1/2-y,-z
1/2-x,y,-z
1/2-x,1/2-y,-z
1/2+x,y,-z
1/2-x,1/2+y,z
1/2+x,-y,z
loop_
_atom_site_type_symbol
_atom_site_label
_atom_site_fract_x
_atom_site_fract_y
_atom_site_fract_z
Si Si1 0.334397 0.827401 0.051573
Si Si2 0.156443 0.169492 0.547496
Si Si3 0.334477 0.670641 0.667035
Si Si4 0.663930 0.434807 0.861367
Si Si5 0.167401 0.432334 0.262013
O O1 0.500000 0.834923 0.038745
O O2 0.292684 0.750000 0.064604
O O3 0.289074 0.870867 0.103073
O O4 0.250000 0.854308 0.000000
O O5 0.150872 0.250000 0.541897
O O6 0.250000 0.137077 0.500000
O O7 0.213041 0.150933 0.606608
O O8 0.000000 0.138772 0.540096
O O9 0.500000 0.651771 0.676386
O O10 0.310848 0.750000 0.677557
O O11 0.231154 0.630945 0.706433
O O12 0.500000 0.452572 0.869581
O O13 0.750000 0.500000 0.880999
O O14 0.697125 0.416933 0.800064
O O15 0.250000 0.500000 0.280178
O O16 0.000000 0.440503 0.274111
#
# Coordination Sequence:
#
# PCOD8279824 Si02
#       5
#    16  16  16  16  16
#     4   9  18  33  51  71  97 127 157 191 233 279
#     4   8  14  25  42  65  94 126 157 192 236 283
#     4   9  18  32  49  72 102 131 160 199 245 289
#     4   9  19  34  51  71  95 124 158 198 239 280
#     4  10  20  34  52  72  96 129 166 202 244 293
#
# _framework density 17.259288999999999
#
# number of rings (size 3 to 8) (size 9 to 14) (size 15 to 20)
#    0.000    3.000    0.000    1.800    0.000    4.000 
#    0.000    6.000    0.000    3.000    0.000    4.200 
#    0.000    0.000    0.000    0.000    0.000    0.000 
#
# Total GULP energy -495912.135449 kJ/mol
# GULP energy per Si atom -12397.803386 kJ/mol
# Density = 1.722001 g / cm^3
# Si number density = 17.259289 Si / 1000 Ang^3
#
#
#
# Elastic Constant Matrix: (Units=GPa)
#
#
# Indices 1 2 3 4 5 6 
#
# 1 80.4276 51.8651 60.6304 0.0000 0.0000 0.0000
# 2 51.8651 77.1194 62.9826 0.0000 0.0000 0.0000
# 3 60.6304 62.9826 108.1380 0.0000 0.0000 0.0000
# 4 0.0000 0.0000 0.0000 6.2796 0.0000 0.0000
# 5 0.0000 0.0000 0.0000 0.0000 33.0689 0.0000
# 6 0.0000 0.0000 0.0000 0.0000 0.0000 28.6796
#
#
#
# Elastic Compliance Matrix: (Units=1/GPa)
#
#
# Indices 1 2 3 4 5 6 
#
# 1 0.025216 -0.010322 -0.008126 0.000000 0.000000 0.000000
# 2 -0.010322 0.028955 -0.011077 0.000000 0.000000 0.000000
# 3 -0.008126 -0.011077 0.020255 0.000000 0.000000 0.000000
# 4 0.000000 0.000000 0.000000 0.159246 0.000000 0.000000
# 5 0.000000 0.000000 0.000000 0.000000 0.030240 0.000000
# 6 0.000000 0.000000 0.000000 0.000000 0.000000 0.034868
#
#
# Mechanical properties :
#
#
# Convention : Reuss Voigt Hill
#
# Bulk Modulus (GPa) = 65.03658 68.51571 66.77615
# Shear Modulus (GPa) = 13.77582 19.61943 16.69763
#
# Velocity S-wave (km/s) = 2.82825 3.37522 3.11377
# Velocity P-wave (km/s) = 6.95911 7.41442 7.19037
#
# Compressibility (1/GPa) = 0.01537596
#
# Stress axis : x y z
#
# Youngs Moduli (GPa) = 39.65811 34.53616 49.36998
#
# Poissons Ratio (x) = 0.35647 0.40119
# Poissons Ratio (y) = 0.40934 0.54688
# Poissons Ratio (z) = 0.32227 0.38256
#
# Static dielectric constant tensor:
#      x y z
#    x 3.340130 0.000000 0.000000 
#    y 0.000000 3.016250 0.000000 
#    z 0.000000 0.000000 3.347840 
# 
# 
# High freq. dielectric constant tensor:
#      x y z
#    x 1.667760 0.000000 0.000000 
#    y 0.000000 1.642190 0.000000 
#    z 0.000000 0.000000 1.671140 
# 
# From -- ./inp_files/43197.got.cif
#   From: 2010.03.12/outbox.cif.g09.slc.cpg/sg67_22_cif.got.tgz:43197.got - 2010.04.10 22:41:39.
