data_PCOD8279461
_publ_section_title
;
Structure prediction by ZEFSAII (Michael W. Deem and Ramdas Pophale) SiO2 
 PCOD8279461
Probable space group: C M M A
;
_chemical_formula_sum "Si O2"
_cell_formula_units_Z 112
_cell_length_a 25.801384
_cell_length_b 9.748846
_cell_length_c 28.748958
_cell_angle_alpha 90.000000
_cell_angle_beta 90.000000
_cell_angle_gamma 90.000000
_cell_volume 7231.332329
_symmetry_space_group_name_H-M "C M M A"
_symmetry_group_IT_number 67
_symmetry_cell_setting 'orthorhombic'
loop_
_space_group_symop_operation_xyz
x,y,z
-x,1/2-y,z
x,-y,-z
-x,1/2+y,-z
-x,-y,-z
x,1/2+y,-z
-x,y,z
x,1/2-y,z
1/2+x,1/2+y,z
1/2-x,-y,z
1/2+x,1/2-y,-z
1/2-x,y,-z
1/2-x,1/2-y,-z
1/2+x,y,-z
1/2-x,1/2+y,z
1/2+x,-y,z
loop_
_atom_site_type_symbol
_atom_site_label
_atom_site_fract_x
_atom_site_fract_y
_atom_site_fract_z
Si Si1 0.398022 0.094988 0.891461
Si Si2 0.440511 0.401549 0.038659
Si Si3 0.800618 0.585182 0.954431
Si Si4 0.940472 0.405835 0.207250
Si Si5 0.061705 0.250000 0.540765
Si Si6 0.938281 0.521316 0.390283
Si Si7 0.561750 0.250000 0.563346
Si Si8 0.438576 0.096350 0.289407
O O1 0.417043 0.250000 0.904125
O O2 0.340661 0.070783 0.911762
O O3 0.401724 0.073227 0.836209
O O4 0.435795 0.979890 0.912575
O O5 0.500000 0.379403 0.026259
O O6 0.413647 0.250000 0.039122
O O7 0.413814 0.500000 0.000000
O O8 0.790660 0.750000 0.964596
O O9 0.750000 0.500000 0.938020
O O10 0.820618 0.500000 0.000000
O O11 0.938839 0.250000 0.224810
O O12 0.917670 0.497683 0.248901
O O13 0.000000 0.445628 0.193920
O O14 0.082360 0.120870 0.569535
O O15 0.085294 0.250000 0.488774
O O16 0.000000 0.250000 0.537301
O O17 0.917654 0.375401 0.406451
O O18 0.914809 0.555785 0.339588
O O19 0.000000 0.530585 0.387536
O O20 0.500000 0.250000 0.559533
O O21 0.500000 0.082707 0.292069
O O22 0.421270 0.250000 0.276970
#
# Coordination Sequence:
#
# PCOD8279461 Si02
#       8
#    16  16  16  16   8  16   8  16
#     4  10  20  33  48  66  87 110 135 167 206 241
#     4  10  20  31  44  63  86 113 141 166 194 234
#     4  10  20  34  52  72  92 112 135 161 194 239
#     4   9  18  30  44  60  79 104 134 169 205 240
#     4   9  14  22  30  40  60  84 110 148 200 247
#     4   9  15  22  31  43  60  84 114 152 198 245
#     4   9  16  20  28  44  60  80 112 152 196 247
#     4   9  16  26  37  49  67  93 126 162 201 243
#
# _framework density 15.488155000000001
#
# number of rings (size 3 to 8) (size 9 to 14) (size 15 to 20)
#    0.000    2.571    0.714    2.571    1.000    6.000 
#    0.000    1.429    0.000    0.000    0.000    0.000 
#    0.000    0.000    0.000    0.000    0.000    0.000 
#
# Total GULP energy -693796.523803 kJ/mol
# GULP energy per Si atom -12389.223639 kJ/mol
# Density = 1.545290 g / cm^3
# Si number density = 15.488155 Si / 1000 Ang^3
#
#
#
# Elastic Constant Matrix: (Units=GPa)
#
#
# Indices 1 2 3 4 5 6 
#
# 1 28.4482 15.3236 21.1979 0.0000 0.0000 0.0000
# 2 15.3236 141.5261 67.2627 0.0000 0.0000 0.0000
# 3 21.1979 67.2627 119.5771 0.0000 0.0000 0.0000
# 4 0.0000 0.0000 0.0000 31.0081 0.0000 0.0000
# 5 0.0000 0.0000 0.0000 0.0000 7.3193 0.0000
# 6 0.0000 0.0000 0.0000 0.0000 0.0000 9.4255
#
#
#
# Elastic Compliance Matrix: (Units=1/GPa)
#
#
# Indices 1 2 3 4 5 6 
#
# 1 0.040685 -0.001334 -0.006462 0.000000 0.000000 0.000000
# 2 -0.001334 0.009688 -0.005213 0.000000 0.000000 0.000000
# 3 -0.006462 -0.005213 0.012441 0.000000 0.000000 0.000000
# 4 0.000000 0.000000 0.000000 0.032250 0.000000 0.000000
# 5 0.000000 0.000000 0.000000 0.000000 0.136625 0.000000
# 6 0.000000 0.000000 0.000000 0.000000 0.000000 0.106095
#
#
# Mechanical properties :
#
#
# Convention : Reuss Voigt Hill
#
# Bulk Modulus (GPa) = 27.17701 55.23554 41.20628
# Shear Modulus (GPa) = 13.29550 21.93505 17.61528
#
# Velocity S-wave (km/s) = 2.93308 3.76739 3.37610
# Velocity P-wave (km/s) = 5.39033 7.39356 6.46995
#
# Compressibility (1/GPa) = 0.03679580
#
# Stress axis : x y z
#
# Youngs Moduli (GPa) = 24.57888 103.22246 80.38145
#
# Poissons Ratio (x) = 0.13769 0.51943
# Poissons Ratio (y) = 0.03279 0.41903
# Poissons Ratio (z) = 0.15883 0.53809
#
# Static dielectric constant tensor:
#      x y z
#    x 2.373130 0.000000 0.000000 
#    y 0.000000 3.345670 0.000000 
#    z 0.000000 0.000000 3.065650 
# 
# 
# High freq. dielectric constant tensor:
#      x y z
#    x 1.510960 0.000000 0.000000 
#    y 0.000000 1.617510 0.000000 
#    z 0.000000 0.000000 1.595310 
# 
# From -- ./inp_files/46056.got.cif
#   From: 2010.03.12/outbox.cif.g09.slc.cpg/sg67_24_cif.got.tgz:46056.got - 2010.04.10 22:41:39.
