data_PCOD8279233
_publ_section_title
;
Structure prediction by ZEFSAII (Michael W. Deem and Ramdas Pophale) SiO2 
 PCOD8279233
Probable space group: C M M A
;
_chemical_formula_sum "Si O2"
_cell_formula_units_Z 88
_cell_length_a 8.800667
_cell_length_b 21.817717
_cell_length_c 24.335282
_cell_angle_alpha 90.000000
_cell_angle_beta 90.000000
_cell_angle_gamma 90.000000
_cell_volume 4672.628740
_symmetry_space_group_name_H-M "C M M A"
_symmetry_group_IT_number 67
_symmetry_cell_setting 'orthorhombic'
loop_
_space_group_symop_operation_xyz
x,y,z
-x,1/2-y,z
x,-y,-z
-x,1/2+y,-z
-x,-y,-z
x,1/2+y,-z
-x,y,z
x,1/2-y,z
1/2+x,1/2+y,z
1/2-x,-y,z
1/2+x,1/2-y,-z
1/2-x,y,-z
1/2-x,1/2-y,-z
1/2+x,y,-z
1/2-x,1/2+y,z
1/2+x,-y,z
loop_
_atom_site_type_symbol
_atom_site_label
_atom_site_fract_x
_atom_site_fract_y
_atom_site_fract_z
Si Si1 0.679466 0.434711 0.552405
Si Si2 0.819539 0.141136 0.638045
Si Si3 0.821217 0.180703 0.131127
Si Si4 0.678758 0.750000 0.559870
Si Si5 0.317802 0.563822 0.060183
Si Si6 0.330150 0.678503 0.755922
O O1 0.500000 0.433254 0.548814
O O2 0.750000 0.500000 0.544017
O O3 0.750000 0.395778 0.500000
O O4 0.736377 0.417152 0.613056
O O5 0.764630 0.193589 0.596502
O O6 0.761735 0.148828 0.700594
O O7 0.000000 0.134890 0.638430
O O8 0.756820 0.250000 0.116002
O O9 0.762146 0.125198 0.092497
O O10 0.775848 0.162351 0.192789
O O11 0.000000 0.183818 0.127076
O O12 0.500000 0.750000 0.552402
O O13 0.750000 0.750000 0.500000
O O14 0.500000 0.558902 0.058864
O O15 0.250000 0.500000 0.085801
O O16 0.250000 0.571873 0.000000
O O17 0.500000 0.654083 0.768597
O O18 0.336184 0.750000 0.744041
#
# Coordination Sequence:
#
# PCOD8279233 Si02
#       6
#    16  16  16   8  16  16
#     4  11  22  37  55  74  96 128 168 212 263 318
#     4  10  19  34  53  75 104 135 168 211 257 310
#     4   9  19  35  54  79 111 145 183 229 274 319
#     4  10  20  32  48  72 104 134 163 204 255 308
#     4  10  20  35  56  81 112 148 184 224 273 326
#     4   9  17  32  54  78 105 140 177 214 261 312
#
# _framework density 18.833082000000001
#
# number of rings (size 3 to 8) (size 9 to 14) (size 15 to 20)
#    0.000    2.182    0.909    3.818    0.000    4.727 
#    0.000    0.909    0.000    2.182    0.000    0.000 
#    0.000    0.000    0.000    0.000    0.000    0.000 
#
# Total GULP energy -545081.832527 kJ/mol
# GULP energy per Si atom -12388.223467 kJ/mol
# Density = 1.879022 g / cm^3
# Si number density = 18.833082 Si / 1000 Ang^3
#
#
#
# Elastic Constant Matrix: (Units=GPa)
#
#
# Indices 1 2 3 4 5 6 
#
# 1 34.6470 27.4871 32.7891 0.0000 0.0000 0.0000
# 2 27.4871 103.1400 72.4119 0.0000 0.0000 0.0000
# 3 32.7891 72.4119 121.6653 0.0000 0.0000 0.0000
# 4 0.0000 0.0000 0.0000 14.8460 0.0000 0.0000
# 5 0.0000 0.0000 0.0000 0.0000 66.1665 0.0000
# 6 0.0000 0.0000 0.0000 0.0000 0.0000 4.5592
#
#
#
# Elastic Compliance Matrix: (Units=1/GPa)
#
#
# Indices 1 2 3 4 5 6 
#
# 1 0.040401 -0.005364 -0.007696 0.000000 0.000000 0.000000
# 2 -0.005364 0.017367 -0.008891 0.000000 0.000000 0.000000
# 3 -0.007696 -0.008891 0.015585 0.000000 0.000000 0.000000
# 4 0.000000 0.000000 0.000000 0.067358 0.000000 0.000000
# 5 0.000000 0.000000 0.000000 0.000000 0.015113 0.000000
# 6 0.000000 0.000000 0.000000 0.000000 0.000000 0.219337
#
#
# Mechanical properties :
#
#
# Convention : Reuss Voigt Hill
#
# Bulk Modulus (GPa) = 33.95362 58.31427 46.13395
# Shear Modulus (GPa) = 11.65828 25.56527 18.61178
#
# Velocity S-wave (km/s) = 2.49073 3.68838 3.14705
# Velocity P-wave (km/s) = 5.13221 7.01212 6.14448
#
# Compressibility (1/GPa) = 0.02945194
#
# Stress axis : x y z
#
# Youngs Moduli (GPa) = 24.75185 57.58015 64.16500
#
# Poissons Ratio (x) = 0.30886 0.49379
# Poissons Ratio (y) = 0.13277 0.57048
# Poissons Ratio (z) = 0.19048 0.51193
#
# Static dielectric constant tensor:
#      x y z
#    x 3.318800 0.000000 0.000000 
#    y 0.000000 3.756930 0.000000 
#    z 0.000000 0.000000 3.591760 
# 
# 
# High freq. dielectric constant tensor:
#      x y z
#    x 1.722770 0.000000 0.000000 
#    y 0.000000 1.724650 0.000000 
#    z 0.000000 0.000000 1.733750 
# 
# From -- ./inp_files/40688.got.cif
#   From: 2010.03.12/outbox.cif.g09.slc.cpg/sg67_21_cif.got.tgz:40688.got - 2010.04.10 22:41:39.
