data_PCOD8279927
_publ_section_title
;
Structure prediction by ZEFSAII (Michael W. Deem and Ramdas Pophale) SiO2 
 PCOD8279927
Probable space group: C M M A
;
_chemical_formula_sum "Si O2"
_cell_formula_units_Z 88
_cell_length_a 9.016330
_cell_length_b 15.918086
_cell_length_c 29.619505
_cell_angle_alpha 90.000000
_cell_angle_beta 90.000000
_cell_angle_gamma 90.000000
_cell_volume 4251.071814
_symmetry_space_group_name_H-M "C M M A"
_symmetry_group_IT_number 67
_symmetry_cell_setting 'orthorhombic'
loop_
_space_group_symop_operation_xyz
x,y,z
-x,1/2-y,z
x,-y,-z
-x,1/2+y,-z
-x,-y,-z
x,1/2+y,-z
-x,y,z
x,1/2-y,z
1/2+x,1/2+y,z
1/2-x,-y,z
1/2+x,1/2-y,-z
1/2-x,y,-z
1/2-x,1/2-y,-z
1/2+x,y,-z
1/2-x,1/2+y,z
1/2+x,-y,z
loop_
_atom_site_type_symbol
_atom_site_label
_atom_site_fract_x
_atom_site_fract_y
_atom_site_fract_z
Si Si1 0.326578 0.411832 0.281493
Si Si2 0.824576 0.250000 0.048200
Si Si3 0.332648 0.850311 0.544497
Si Si4 0.325174 0.084473 0.897761
Si Si5 0.830202 0.154051 0.815438
Si Si6 0.835284 0.151777 0.368335
O O1 0.500000 0.423973 0.289890
O O2 0.250000 0.500000 0.274501
O O3 0.292961 0.357441 0.237101
O O4 0.258829 0.364137 0.323799
O O5 0.771884 0.334053 0.074161
O O6 0.000000 0.250000 0.042602
O O7 0.750000 0.250000 0.000000
O O8 0.500000 0.884981 0.544530
O O9 0.332899 0.750000 0.545321
O O10 0.250000 0.884069 0.500000
O O11 0.248212 0.887251 0.588333
O O12 0.500000 0.073004 0.899782
O O13 0.274878 0.095876 0.845879
O O14 0.250000 0.000000 0.917858
O O15 0.799012 0.250000 0.828311
O O16 0.000000 0.128736 0.825391
O O17 0.850593 0.250000 0.375762
O O18 0.000000 0.111544 0.364218
#
# Coordination Sequence:
#
# PCOD8279927 Si02
#       6
#    16   8  16  16  16  16
#     4  11  23  38  55  79 112 149 191 237 287 348
#     4  10  24  44  66  94 130 170 216 266 319 374
#     4   9  16  27  46  73 104 137 175 224 280 337
#     4  11  23  41  64  95 130 168 213 262 315 374
#     4  10  21  38  62  91 121 157 200 247 302 362
#     4  10  20  34  53  78 107 141 183 230 284 343
#
# _framework density 20.700661
#
# number of rings (size 3 to 8) (size 9 to 14) (size 15 to 20)
#    0.000    1.818    0.909    3.273    0.000    8.727 
#    0.000    1.818    0.000    0.545    0.000    3.818 
#    0.000    0.000    0.000    0.000    0.000    0.000 
#
# Total GULP energy -545707.962770 kJ/mol
# GULP energy per Si atom -12402.453699 kJ/mol
# Density = 2.065355 g / cm^3
# Si number density = 20.700661 Si / 1000 Ang^3
#
#
#
# Elastic Constant Matrix: (Units=GPa)
#
#
# Indices 1 2 3 4 5 6 
#
# 1 135.6348 41.4121 70.3281 0.0000 0.0000 0.0000
# 2 41.4121 84.0168 43.4779 0.0000 0.0000 0.0000
# 3 70.3281 43.4779 139.9338 0.0000 0.0000 0.0000
# 4 0.0000 0.0000 0.0000 28.6069 0.0000 0.0000
# 5 0.0000 0.0000 0.0000 0.0000 37.3528 0.0000
# 6 0.0000 0.0000 0.0000 0.0000 0.0000 29.1106
#
#
#
# Elastic Compliance Matrix: (Units=1/GPa)
#
#
# Indices 1 2 3 4 5 6 
#
# 1 0.010542 -0.002925 -0.004389 0.000000 0.000000 0.000000
# 2 -0.002925 0.014994 -0.003189 0.000000 0.000000 0.000000
# 3 -0.004389 -0.003189 0.010343 0.000000 0.000000 0.000000
# 4 0.000000 0.000000 0.000000 0.034957 0.000000 0.000000
# 5 0.000000 0.000000 0.000000 0.000000 0.026772 0.000000
# 6 0.000000 0.000000 0.000000 0.000000 0.000000 0.034352
#
#
# Mechanical properties :
#
#
# Convention : Reuss Voigt Hill
#
# Bulk Modulus (GPa) = 67.23509 74.44684 70.84097
# Shear Modulus (GPa) = 31.66115 32.63853 32.14984
#
# Velocity S-wave (km/s) = 3.91509 3.97506 3.94519
# Velocity P-wave (km/s) = 7.27925 7.55710 7.41948
#
# Compressibility (1/GPa) = 0.01487318
#
# Stress axis : x y z
#
# Youngs Moduli (GPa) = 94.86241 66.69277 96.68334
#
# Poissons Ratio (x) = 0.19505 0.42438
# Poissons Ratio (y) = 0.27743 0.30831
# Poissons Ratio (z) = 0.41638 0.21268
#
# Static dielectric constant tensor:
#      x y z
#    x 3.968760 0.000000 0.000000 
#    y 0.000000 4.115200 0.000000 
#    z 0.000000 0.000000 3.872650 
# 
# 
# High freq. dielectric constant tensor:
#      x y z
#    x 1.818770 0.000000 0.000000 
#    y 0.000000 1.796150 0.000000 
#    z 0.000000 0.000000 1.814540 
# 
# From -- ./inp_files/45219.got.cif
#   From: 2010.03.12/outbox.cif.g09.slc.cpg/sg67_23_cif.got.tgz:45219.got - 2010.04.10 22:41:39.
