data_PCOD8279840
_publ_section_title
;
Structure prediction by ZEFSAII (Michael W. Deem and Ramdas Pophale) SiO2 
 PCOD8279840
Probable space group: C M M A
;
_chemical_formula_sum "Si O2"
_cell_formula_units_Z 80
_cell_length_a 18.715779
_cell_length_b 8.919412
_cell_length_c 26.105799
_cell_angle_alpha 90.000000
_cell_angle_beta 90.000000
_cell_angle_gamma 90.000000
_cell_volume 4357.938762
_symmetry_space_group_name_H-M "C M M A"
_symmetry_group_IT_number 67
_symmetry_cell_setting 'orthorhombic'
loop_
_space_group_symop_operation_xyz
x,y,z
-x,1/2-y,z
x,-y,-z
-x,1/2+y,-z
-x,-y,-z
x,1/2+y,-z
-x,y,z
x,1/2-y,z
1/2+x,1/2+y,z
1/2-x,-y,z
1/2+x,1/2-y,-z
1/2-x,y,-z
1/2-x,1/2-y,-z
1/2+x,y,-z
1/2-x,1/2+y,z
1/2+x,-y,z
loop_
_atom_site_type_symbol
_atom_site_label
_atom_site_fract_x
_atom_site_fract_y
_atom_site_fract_z
Si Si1 0.081551 0.573852 0.450655
Si Si2 0.915324 0.420782 0.861488
Si Si3 0.914582 0.581447 0.339452
Si Si4 0.085038 0.417551 0.240044
Si Si5 0.825130 0.571252 0.946280
O O1 0.121348 0.500000 0.500000
O O2 0.086911 0.750000 0.456694
O O3 0.114715 0.525986 0.395264
O O4 0.000000 0.518034 0.450780
O O5 0.889273 0.250000 0.869171
O O6 0.888084 0.477541 0.806175
O O7 0.883896 0.529163 0.904542
O O8 0.000000 0.432665 0.865406
O O9 0.888237 0.750000 0.328523
O O10 0.884085 0.477601 0.294061
O O11 0.000000 0.578772 0.340785
O O12 0.114200 0.250000 0.231224
O O13 0.000000 0.419187 0.242055
O O14 0.818475 0.750000 0.951527
O O15 0.750000 0.500000 0.929179
O O16 0.849718 0.500000 0.000000
#
# Coordination Sequence:
#
# PCOD8279840 Si02
#       5
#    16  16  16  16  16
#     4   8  13  19  26  37  55  82 120 166 213 259
#     4  10  20  34  52  74 100 129 161 198 240 283
#     4   8  13  21  31  43  63  94 130 169 216 268
#     4   9  16  25  38  58  82 108 141 182 227 273
#     4  11  22  38  58  78 102 130 162 196 233 280
#
# _framework density 18.357303000000002
#
# number of rings (size 3 to 8) (size 9 to 14) (size 15 to 20)
#    0.000    2.800    0.000    4.800    0.000    4.800 
#    0.000    4.000    0.000    0.000    0.000    0.000 
#    0.000    0.000    0.000    0.000    0.000    1.000 
#
# Total GULP energy -495712.936157 kJ/mol
# GULP energy per Si atom -12392.823404 kJ/mol
# Density = 1.831552 g / cm^3
# Si number density = 18.357303 Si / 1000 Ang^3
#
#
#
# Elastic Constant Matrix: (Units=GPa)
#
#
# Indices 1 2 3 4 5 6 
#
# 1 12.3632 18.1987 26.1663 0.0000 0.0000 0.0000
# 2 18.1987 121.7515 67.6450 0.0000 0.0000 0.0000
# 3 26.1663 67.6450 157.7673 0.0000 0.0000 0.0000
# 4 0.0000 0.0000 0.0000 39.8279 0.0000 0.0000
# 5 0.0000 0.0000 0.0000 0.0000 -0.7310 0.0000
# 6 0.0000 0.0000 0.0000 0.0000 0.0000 14.2809
#
#
#
# Elastic Compliance Matrix: (Units=1/GPa)
#
#
# Indices 1 2 3 4 5 6 
#
# 1 0.133366 -0.010036 -0.017816 0.000000 0.000000 0.000000
# 2 -0.010036 0.011537 -0.003282 0.000000 0.000000 0.000000
# 3 -0.017816 -0.003282 0.010701 0.000000 0.000000 0.000000
# 4 0.000000 0.000000 0.000000 0.025108 0.000000 0.000000
# 5 0.000000 0.000000 0.000000 0.000000 -1.368080 0.000000
# 6 0.000000 0.000000 0.000000 0.000000 0.000000 0.070024
#
#
# Mechanical properties :
#
#
# Convention : Reuss Voigt Hill
#
# Bulk Modulus (GPa) = 10.71410 57.32242 34.01826
# Shear Modulus (GPa) = -4.88299 22.66704 8.89203
#
# Velocity S-wave (km/s) = -1.63271 3.51774 2.20327
# Velocity P-wave (km/s) = 1.51485 6.91325 5.00439
#
# Compressibility (1/GPa) = 0.09333496
#
# Stress axis : x y z
#
# Youngs Moduli (GPa) = 7.49816 86.67634 93.45268
#
# Poissons Ratio (x) = 0.86989 1.66496
# Poissons Ratio (y) = 0.07525 0.30673
# Poissons Ratio (z) = 0.13359 0.28449
#
# Static dielectric constant tensor:
#      x y z
#    x 2.645820 0.000000 0.000000 
#    y 0.000000 3.491520 0.000000 
#    z 0.000000 0.000000 3.832610 
# 
# 
# High freq. dielectric constant tensor:
#      x y z
#    x 1.623840 0.000000 0.000000 
#    y 0.000000 1.719120 0.000000 
#    z 0.000000 0.000000 1.738120 
# 
# From -- ./inp_files/43223.got.cif
#   From: 2010.03.12/outbox.cif.g09.slc.cpg/sg67_22_cif.got.tgz:43223.got - 2010.04.10 22:41:39.
