data_PCOD8279514
_publ_section_title
;
Structure prediction by ZEFSAII (Michael W. Deem and Ramdas Pophale) SiO2 
 PCOD8279514
Probable space group: C M M A
;
_chemical_formula_sum "Si O2"
_cell_formula_units_Z 96
_cell_length_a 9.188468
_cell_length_b 18.261227
_cell_length_c 31.331613
_cell_angle_alpha 90.000000
_cell_angle_beta 90.000000
_cell_angle_gamma 90.000000
_cell_volume 5257.215938
_symmetry_space_group_name_H-M "C M M A"
_symmetry_group_IT_number 67
_symmetry_cell_setting 'orthorhombic'
loop_
_space_group_symop_operation_xyz
x,y,z
-x,1/2-y,z
x,-y,-z
-x,1/2+y,-z
-x,-y,-z
x,1/2+y,-z
-x,y,z
x,1/2-y,z
1/2+x,1/2+y,z
1/2-x,-y,z
1/2+x,1/2-y,-z
1/2-x,y,-z
1/2-x,1/2-y,-z
1/2+x,y,-z
1/2-x,1/2+y,z
1/2+x,-y,z
loop_
_atom_site_type_symbol
_atom_site_label
_atom_site_fract_x
_atom_site_fract_y
_atom_site_fract_z
Si Si1 0.663590 0.662917 0.378616
Si Si2 0.836439 0.662934 0.715442
Si Si3 0.330583 0.922986 0.133248
Si Si4 0.835454 0.663008 0.203677
Si Si5 0.163352 0.162580 0.540926
Si Si6 0.330976 0.922865 0.038600
O O1 0.500000 0.634922 0.386949
O O2 0.666364 0.750000 0.380448
O O3 0.716922 0.636638 0.331587
O O4 0.766434 0.630584 0.415594
O O5 0.836637 0.750000 0.716782
O O6 0.728971 0.631872 0.751730
O O7 0.000000 0.634123 0.724208
O O8 0.500000 0.935188 0.143831
O O9 0.262167 0.864527 0.164939
O O10 0.312468 0.888043 0.085648
O O11 0.250000 0.000000 0.138239
O O12 0.830334 0.750000 0.203074
O O13 0.000000 0.633947 0.199115
O O14 0.166754 0.250000 0.541379
O O15 0.250000 0.132439 0.500000
O O16 0.000000 0.132722 0.538032
O O17 0.500000 0.932292 0.026967
O O18 0.250000 0.000000 0.040803
O O19 0.250000 0.877627 0.000000
#
# Coordination Sequence:
#
# PCOD8279514 Si02
#       6
#    16  16  16  16  16  16
#     4   8  13  21  32  45  62  86 119 160 204 249
#     4   8  14  25  40  56  75 102 136 174 216 261
#     4  10  20  33  50  72  97 124 154 188 227 271
#     4  10  20  32  47  68  93 121 154 192 231 271
#     4   9  15  20  26  37  55  81 114 154 200 248
#     4   9  16  26  43  67  92 118 147 181 220 262
#
# _framework density 18.260615000000001
#
# number of rings (size 3 to 8) (size 9 to 14) (size 15 to 20)
#    0.000    3.000    0.000    3.500    0.000    5.667 
#    0.000    3.333    0.000    0.500    0.000    0.000 
#    0.000    0.000    0.000    0.000    0.000    0.833 
#
# Total GULP energy -594746.648129 kJ/mol
# GULP energy per Si atom -12390.555169 kJ/mol
# Density = 1.821905 g / cm^3
# Si number density = 18.260615 Si / 1000 Ang^3
#
#
#
# Elastic Constant Matrix: (Units=GPa)
#
#
# Indices 1 2 3 4 5 6 
#
# 1 158.8181 13.1528 101.9056 0.0000 0.0000 0.0000
# 2 13.1528 7.4851 14.3963 0.0000 0.0000 0.0000
# 3 101.9056 14.3963 182.4728 0.0000 0.0000 0.0000
# 4 0.0000 0.0000 0.0000 -1.4315 0.0000 0.0000
# 5 0.0000 0.0000 0.0000 0.0000 38.9688 0.0000
# 6 0.0000 0.0000 0.0000 0.0000 0.0000 13.8391
#
#
#
# Elastic Compliance Matrix: (Units=1/GPa)
#
#
# Indices 1 2 3 4 5 6 
#
# 1 0.010226 -0.008235 -0.005061 0.000000 0.000000 0.000000
# 2 -0.008235 0.164128 -0.008350 0.000000 0.000000 0.000000
# 3 -0.005061 -0.008350 0.008966 0.000000 0.000000 0.000000
# 4 0.000000 0.000000 0.000000 -0.698557 0.000000 0.000000
# 5 0.000000 0.000000 0.000000 0.000000 0.025662 0.000000
# 6 0.000000 0.000000 0.000000 0.000000 0.000000 0.072259
#
#
# Mechanical properties :
#
#
# Convention : Reuss Voigt Hill
#
# Bulk Modulus (GPa) = 7.14144 67.52058 37.33101
# Shear Modulus (GPa) = -15.27424 24.89671 4.81123
#
# Velocity S-wave (km/s) = -2.89530 3.69644 1.62496
# Velocity P-wave (km/s) = 2.69400 7.43469 4.89984
#
# Compressibility (1/GPa) = 0.14002772
#
# Stress axis : x y z
#
# Youngs Moduli (GPa) = 97.78974 6.09280 111.53725
#
# Poissons Ratio (x) = 0.05017 0.56452
# Poissons Ratio (y) = 0.80526 0.93135
# Poissons Ratio (z) = 0.49494 0.05088
#
# Static dielectric constant tensor:
#      x y z
#    x 3.625600 0.000000 0.000000 
#    y 0.000000 2.520470 0.000000 
#    z 0.000000 0.000000 4.170940 
# 
# 
# High freq. dielectric constant tensor:
#      x y z
#    x 1.720280 0.000000 0.000000 
#    y 0.000000 1.612500 0.000000 
#    z 0.000000 0.000000 1.735440 
# 
# From -- ./inp_files/43664.got.cif
#   From: 2010.03.12/outbox.cif.g09.slc.cpg/sg67_22_cif.got.tgz:43664.got - 2010.04.10 22:41:39.
