data_PCOD8279237
_publ_section_title
;
Structure prediction by ZEFSAII (Michael W. Deem and Ramdas Pophale) SiO2 
 PCOD8279237
Probable space group: C M M A
;
_chemical_formula_sum "Si O2"
_cell_formula_units_Z 80
_cell_length_a 17.571656
_cell_length_b 20.881982
_cell_length_c 11.338262
_cell_angle_alpha 90.000000
_cell_angle_beta 90.000000
_cell_angle_gamma 90.000000
_cell_volume 4160.359863
_symmetry_space_group_name_H-M "C M M A"
_symmetry_group_IT_number 67
_symmetry_cell_setting 'orthorhombic'
loop_
_space_group_symop_operation_xyz
x,y,z
-x,1/2-y,z
x,-y,-z
-x,1/2+y,-z
-x,-y,-z
x,1/2+y,-z
-x,y,z
x,1/2-y,z
1/2+x,1/2+y,z
1/2-x,-y,z
1/2+x,1/2-y,-z
1/2-x,y,-z
1/2-x,1/2-y,-z
1/2+x,y,-z
1/2-x,1/2+y,z
1/2+x,-y,z
loop_
_atom_site_type_symbol
_atom_site_label
_atom_site_fract_x
_atom_site_fract_y
_atom_site_fract_z
Si Si1 0.246056 0.924966 0.361382
Si Si2 0.500000 0.156575 0.838643
Si Si3 0.500000 0.679166 0.889003
Si Si4 0.250000 0.877513 0.000000
Si Si5 0.832986 0.178962 0.219041
Si Si6 0.872043 0.414520 0.820072
Si Si7 0.000000 0.008908 0.138331
O O1 0.250000 0.915390 0.500000
O O2 0.310422 0.879096 0.305970
O O3 0.165752 0.902122 0.307384
O O4 0.250000 0.000000 0.325622
O O5 0.575664 0.183286 0.778307
O O6 0.500000 0.081011 0.824079
O O7 0.500000 0.179243 0.971718
O O8 0.500000 0.750000 0.837254
O O9 0.576096 0.646380 0.843356
O O10 0.300359 0.834037 0.087822
O O11 0.192487 0.921374 0.077705
O O12 0.803493 0.250000 0.258921
O O13 0.922864 0.478068 0.811796
O O14 0.000000 0.000000 0.000000
#
# Coordination Sequence:
#
# PCOD8279237 Si02
#       7
#    16   8   8   8  16  16   8
#     4  10  23  44  64  84 114 155 204 254 299 347
#     4  12  21  35  54  85 125 162 187 230 287 363
#     4  11  21  36  55  82 122 158 189 231 288 362
#     4  10  19  34  53  88 121 154 191 238 297 368
#     4  11  22  36  59  88 119 156 197 242 297 357
#     4  10  21  35  57  88 115 156 196 239 299 357
#     4  11  18  34  53  85 124 152 189 238 294 357
#
# _framework density 19.229106000000002
#
# number of rings (size 3 to 8) (size 9 to 14) (size 15 to 20)
#    0.000    1.400    4.000    2.400    0.000    5.200 
#    0.000    7.500    0.000    7.200    0.000    0.000 
#    0.000    0.000    0.000    0.000    0.000    0.000 
#
# Total GULP energy -495802.638459 kJ/mol
# GULP energy per Si atom -12395.065961 kJ/mol
# Density = 1.918534 g / cm^3
# Si number density = 19.229106 Si / 1000 Ang^3
#
#
#
# Elastic Constant Matrix: (Units=GPa)
#
#
# Indices 1 2 3 4 5 6 
#
# 1 129.3335 33.7402 49.0497 0.0000 0.0000 0.0000
# 2 33.7402 135.1224 38.0509 0.0000 0.0000 0.0000
# 3 49.0497 38.0509 107.3773 0.0000 0.0000 0.0000
# 4 0.0000 0.0000 0.0000 -162.2942 0.0000 0.0000
# 5 0.0000 0.0000 0.0000 0.0000 19.1565 0.0000
# 6 0.0000 0.0000 0.0000 0.0000 0.0000 45.0800
#
#
#
# Elastic Compliance Matrix: (Units=1/GPa)
#
#
# Indices 1 2 3 4 5 6 
#
# 1 0.009549 -0.001284 -0.003907 0.000000 0.000000 0.000000
# 2 -0.001284 0.008394 -0.002388 0.000000 0.000000 0.000000
# 3 -0.003907 -0.002388 0.011944 0.000000 0.000000 0.000000
# 4 0.000000 0.000000 0.000000 -0.006162 0.000000 0.000000
# 5 0.000000 0.000000 0.000000 0.000000 0.052202 0.000000
# 6 0.000000 0.000000 0.000000 0.000000 0.000000 0.022183
#
#
# Mechanical properties :
#
#
# Convention : Reuss Voigt Hill
#
# Bulk Modulus (GPa) = 67.89511 68.16832 68.03172
# Shear Modulus (GPa) = 42.30984 -2.87871 19.71557
#
# Velocity S-wave (km/s) = 4.69583 -1.22487 3.20550
# Velocity P-wave (km/s) = 8.04899 5.79026 7.01118
#
# Compressibility (1/GPa) = 0.01472860
#
# Stress axis : x y z
#
# Youngs Moduli (GPa) = 104.72772 119.13577 83.72606
#
# Poissons Ratio (x) = 0.15299 0.32709
# Poissons Ratio (y) = 0.13449 0.19993
# Poissons Ratio (z) = 0.40914 0.28448
#
# Static dielectric constant tensor:
#      x y z
#    x 3.647410 0.000000 0.000000 
#    y 0.000000 3.962800 0.000000 
#    z 0.000000 0.000000 3.220610 
# 
# 
# High freq. dielectric constant tensor:
#      x y z
#    x 1.763510 0.000000 0.000000 
#    y 0.000000 1.759570 0.000000 
#    z 0.000000 0.000000 1.709650 
# 
# From -- ./inp_files/19399.got.cif
#   From: 2010.03.12/outbox.cif.g09.slc.cpg/sg67_10_cif.got.tgz:19399.got - 2010.04.10 22:41:39.
