data_PCOD8279283
_publ_section_title
;
Structure prediction by ZEFSAII (Michael W. Deem and Ramdas Pophale) SiO2 
 PCOD8279283
Probable space group: C M M A
;
_chemical_formula_sum "Si O2"
_cell_formula_units_Z 84
_cell_length_a 14.500992
_cell_length_b 15.910974
_cell_length_c 19.140618
_cell_angle_alpha 90.000000
_cell_angle_beta 90.000000
_cell_angle_gamma 90.000000
_cell_volume 4416.217302
_symmetry_space_group_name_H-M "C M M A"
_symmetry_group_IT_number 67
_symmetry_cell_setting 'orthorhombic'
loop_
_space_group_symop_operation_xyz
x,y,z
-x,1/2-y,z
x,-y,-z
-x,1/2+y,-z
-x,-y,-z
x,1/2+y,-z
-x,y,z
x,1/2-y,z
1/2+x,1/2+y,z
1/2-x,-y,z
1/2+x,1/2-y,-z
1/2-x,y,-z
1/2-x,1/2-y,-z
1/2+x,y,-z
1/2-x,1/2+y,z
1/2+x,-y,z
loop_
_atom_site_type_symbol
_atom_site_label
_atom_site_fract_x
_atom_site_fract_y
_atom_site_fract_z
Si Si1 0.500000 0.250000 0.870913
Si Si2 0.000000 0.923436 0.447235
Si Si3 0.702629 0.417003 0.847295
Si Si4 0.690924 0.347669 0.438547
Si Si5 0.500000 0.422717 0.817223
Si Si6 0.693131 0.850782 0.718217
Si Si7 0.000000 0.565599 0.287837
Si Si8 0.200188 0.250000 0.073822
O O1 0.500000 0.322072 0.811977
O O2 0.588041 0.250000 0.923335
O O3 0.913867 0.863462 0.459130
O O4 0.000000 0.957670 0.368755
O O5 0.000000 0.000000 0.500000
O O6 0.750000 0.500000 0.877785
O O7 0.595188 0.441321 0.857769
O O8 0.732505 0.398344 0.766984
O O9 0.735163 0.334801 0.889189
O O10 0.711436 0.250000 0.438330
O O11 0.750000 0.392413 0.500000
O O12 0.716449 0.380692 0.360982
O O13 0.500000 0.473052 0.745468
O O14 0.698737 0.750000 0.727261
O O15 0.589149 0.880789 0.736402
O O16 0.250000 0.250000 0.000000
#
# Coordination Sequence:
#
# PCOD8279283 Si02
#       8
#     4   8  16  16   8  16   8   8
#     4   8  20  40  62  84 120 158 176 228 282 330
#     4  10  21  33  50  75 108 144 185 234 296 343
#     4  11  21  37  62  87 118 155 190 239 280 339
#     4   9  19  36  55  74 104 147 190 239 289 341
#     4  10  20  35  55  84 118 148 187 223 285 328
#     4  10  19  35  57  84 110 145 196 243 295 338
#     4  10  19  34  56  82 111 144 188 249 291 343
#     4  10  22  42  64  90 121 155 193 228 284 344
#
# _framework density 19.020803999999998
#
# number of rings (size 3 to 8) (size 9 to 14) (size 15 to 20)
#    0.000    2.095    2.857    0.571    0.000    4.571 
#    0.000    1.905    2.095    3.429    0.000    0.000 
#    0.000    0.000    0.000    0.000    0.000    0.000 
#
# Total GULP energy -520313.607222 kJ/mol
# GULP energy per Si atom -12388.419220 kJ/mol
# Density = 1.897751 g / cm^3
# Si number density = 19.020804 Si / 1000 Ang^3
#
#
#
# Elastic Constant Matrix: (Units=GPa)
#
#
# Indices 1 2 3 4 5 6 
#
# 1 112.1650 43.3464 48.2027 0.0000 0.0000 0.0000
# 2 43.3464 103.7906 42.2980 0.0000 0.0000 0.0000
# 3 48.2027 42.2980 93.5787 0.0000 0.0000 0.0000
# 4 0.0000 0.0000 0.0000 20.5884 0.0000 0.0000
# 5 0.0000 0.0000 0.0000 0.0000 24.4840 0.0000
# 6 0.0000 0.0000 0.0000 0.0000 0.0000 18.5485
#
#
#
# Elastic Compliance Matrix: (Units=1/GPa)
#
#
# Indices 1 2 3 4 5 6 
#
# 1 0.012218 -0.003111 -0.004887 0.000000 0.000000 0.000000
# 2 -0.003111 0.012602 -0.004094 0.000000 0.000000 0.000000
# 3 -0.004887 -0.004094 0.015054 0.000000 0.000000 0.000000
# 4 0.000000 0.000000 0.000000 0.048571 0.000000 0.000000
# 5 0.000000 0.000000 0.000000 0.000000 0.040843 0.000000
# 6 0.000000 0.000000 0.000000 0.000000 0.000000 0.053913
#
#
# Mechanical properties :
#
#
# Convention : Reuss Voigt Hill
#
# Bulk Modulus (GPa) = 63.73413 64.13651 63.93532
# Shear Modulus (GPa) = 23.51662 24.43667 23.97665
#
# Velocity S-wave (km/s) = 3.52001 3.58821 3.55427
# Velocity P-wave (km/s) = 7.07820 7.13858 7.10846
#
# Compressibility (1/GPa) = 0.01569018
#
# Stress axis : x y z
#
# Youngs Moduli (GPa) = 81.84647 79.34999 66.42669
#
# Poissons Ratio (x) = 0.24685 0.32465
# Poissons Ratio (y) = 0.25461 0.27195
# Poissons Ratio (z) = 0.40002 0.32485
#
# Static dielectric constant tensor:
#      x y z
#    x 3.709620 0.000000 0.000000 
#    y 0.000000 3.565390 0.000000 
#    z 0.000000 0.000000 3.373730 
# 
# 
# High freq. dielectric constant tensor:
#      x y z
#    x 1.746910 0.000000 0.000000 
#    y 0.000000 1.747580 0.000000 
#    z 0.000000 0.000000 1.712170 
# 
# From -- ./inp_files/38353.got.cif
#   From: 2010.03.12/outbox.cif.g09.slc.cpg/sg67_20_cif.got.tgz:38353.got - 2010.04.10 22:41:39.
