data_PCOD8279581
_publ_section_title
;
Structure prediction by ZEFSAII (Michael W. Deem and Ramdas Pophale) SiO2 
 PCOD8279581
Probable space group: C M M A
;
_chemical_formula_sum "Si O2"
_cell_formula_units_Z 64
_cell_length_a 7.709113
_cell_length_b 19.162691
_cell_length_c 24.389040
_cell_angle_alpha 90.000000
_cell_angle_beta 90.000000
_cell_angle_gamma 90.000000
_cell_volume 3602.928256
_symmetry_space_group_name_H-M "C M M A"
_symmetry_group_IT_number 67
_symmetry_cell_setting 'orthorhombic'
loop_
_space_group_symop_operation_xyz
x,y,z
-x,1/2-y,z
x,-y,-z
-x,1/2+y,-z
-x,-y,-z
x,1/2+y,-z
-x,y,z
x,1/2-y,z
1/2+x,1/2+y,z
1/2-x,-y,z
1/2+x,1/2-y,-z
1/2-x,y,-z
1/2-x,1/2-y,-z
1/2+x,y,-z
1/2-x,1/2+y,z
1/2+x,-y,z
loop_
_atom_site_type_symbol
_atom_site_label
_atom_site_fract_x
_atom_site_fract_y
_atom_site_fract_z
Si Si1 0.798849 0.331724 0.339098
Si Si2 0.806159 0.666939 0.940589
Si Si3 0.500000 0.333361 0.135936
Si Si4 0.500000 0.332395 0.258345
Si Si5 0.700276 0.579712 0.439680
O O1 0.778912 0.250000 0.350932
O O2 0.676435 0.356235 0.289016
O O3 0.720750 0.371309 0.392464
O O4 0.000000 0.350532 0.325480
O O5 0.801848 0.750000 0.941982
O O6 0.671893 0.638811 0.895049
O O7 0.000000 0.640335 0.926146
O O8 0.750000 0.637873 0.000000
O O9 0.500000 0.250000 0.136649
O O10 0.500000 0.364802 0.197347
O O11 0.500000 0.250000 0.253613
O O12 0.500000 0.587955 0.433270
O O13 0.750000 0.500000 0.430270
O O14 0.750000 0.606463 0.500000
#
# Coordination Sequence:
#
# PCOD8279581 Si02
#       5
#    16  16   8   8  16
#     4   9  19  34  49  67  92 123 159 196 233 278
#     4   9  14  20  31  47  72 103 137 183 225 259
#     4   9  16  24  34  54  75 103 149 184 223 269
#     4   9  18  30  46  61  83 121 156 193 231 273
#     4  10  20  32  50  73  97 121 149 193 239 286
#
# _framework density 17.763328999999999
#
# number of rings (size 3 to 8) (size 9 to 14) (size 15 to 20)
#    0.000    2.750    1.250    1.500    3.500    1.500 
#    0.000    5.000    0.000    0.000    0.000    0.000 
#    0.000    0.000    0.000    0.000    0.000    3.750 
#
# Total GULP energy -396581.870457 kJ/mol
# GULP energy per Si atom -12393.183452 kJ/mol
# Density = 1.772290 g / cm^3
# Si number density = 17.763329 Si / 1000 Ang^3
#
#
#
# Elastic Constant Matrix: (Units=GPa)
#
#
# Indices 1 2 3 4 5 6 
#
# 1 132.0354 16.6159 86.2513 0.0000 0.0000 0.0000
# 2 16.6159 18.6336 33.3166 0.0000 0.0000 0.0000
# 3 86.2513 33.3166 185.4569 0.0000 0.0000 0.0000
# 4 0.0000 0.0000 0.0000 -20.5187 0.0000 0.0000
# 5 0.0000 0.0000 0.0000 0.0000 33.2390 0.0000
# 6 0.0000 0.0000 0.0000 0.0000 0.0000 9.6923
#
#
#
# Elastic Compliance Matrix: (Units=1/GPa)
#
#
# Indices 1 2 3 4 5 6 
#
# 1 0.010891 -0.000965 -0.004891 0.000000 0.000000 0.000000
# 2 -0.000965 0.079147 -0.013769 0.000000 0.000000 0.000000
# 3 -0.004891 -0.013769 0.010141 0.000000 0.000000 0.000000
# 4 0.000000 0.000000 0.000000 -0.048736 0.000000 0.000000
# 5 0.000000 0.000000 0.000000 0.000000 0.030085 0.000000
# 6 0.000000 0.000000 0.000000 0.000000 0.000000 0.103175
#
#
# Mechanical properties :
#
#
# Convention : Reuss Voigt Hill
#
# Bulk Modulus (GPa) = 16.41349 67.61040 42.01194
# Shear Modulus (GPa) = 20.46972 17.81200 19.14086
#
# Velocity S-wave (km/s) = 3.39832 3.17004 3.28617
# Velocity P-wave (km/s) = 4.96571 7.17937 6.17258
#
# Compressibility (1/GPa) = 0.06092550
#
# Stress axis : x y z
#
# Youngs Moduli (GPa) = 91.82275 12.63471 98.61326
#
# Poissons Ratio (x) = 0.01220 0.48237
# Poissons Ratio (y) = 0.08865 1.35785
# Poissons Ratio (z) = 0.44915 0.17397
#
# Static dielectric constant tensor:
#      x y z
#    x 3.572160 0.000000 0.000000 
#    y 0.000000 2.643160 0.000000 
#    z 0.000000 0.000000 3.270560 
# 
# 
# High freq. dielectric constant tensor:
#      x y z
#    x 1.706340 0.000000 0.000000 
#    y 0.000000 1.616350 0.000000 
#    z 0.000000 0.000000 1.690660 
# 
# From -- ./inp_files/31913.got.cif
#   From: 2010.03.12/outbox.cif.g09.slc.cpg/sg67_16_cif.got.tgz:31913.got - 2010.04.10 22:41:39.
