data_PCOD8279413
_publ_section_title
;
Structure prediction by ZEFSAII (Michael W. Deem and Ramdas Pophale) SiO2 
 PCOD8279413
Probable space group: C M M A
;
_chemical_formula_sum "Si O2"
_cell_formula_units_Z 96
_cell_length_a 14.727801
_cell_length_b 26.477482
_cell_length_c 12.031504
_cell_angle_alpha 90.000000
_cell_angle_beta 90.000000
_cell_angle_gamma 90.000000
_cell_volume 4691.746176
_symmetry_space_group_name_H-M "C M M A"
_symmetry_group_IT_number 67
_symmetry_cell_setting 'orthorhombic'
loop_
_space_group_symop_operation_xyz
x,y,z
-x,1/2-y,z
x,-y,-z
-x,1/2+y,-z
-x,-y,-z
x,1/2+y,-z
-x,y,z
x,1/2-y,z
1/2+x,1/2+y,z
1/2-x,-y,z
1/2+x,1/2-y,-z
1/2-x,y,-z
1/2-x,1/2-y,-z
1/2+x,y,-z
1/2-x,1/2+y,z
1/2+x,-y,z
loop_
_atom_site_type_symbol
_atom_site_label
_atom_site_fract_x
_atom_site_fract_y
_atom_site_fract_z
Si Si1 0.322739 0.850022 0.793552
Si Si2 0.397969 0.440804 0.513815
Si Si3 0.603340 0.808301 0.008532
Si Si4 0.500000 0.309842 0.576830
Si Si5 0.257499 0.558784 0.676006
Si Si6 0.858281 0.192221 0.250997
Si Si7 0.000000 0.810819 0.323870
O O1 0.331857 0.838841 0.924505
O O2 0.283797 0.907409 0.782803
O O3 0.248935 0.814102 0.733281
O O4 0.414748 0.837245 0.731891
O O5 0.410030 0.500000 0.500000
O O6 0.500000 0.415907 0.518511
O O7 0.337727 0.425153 0.408432
O O8 0.340919 0.426596 0.624760
O O9 0.500000 0.813381 0.967127
O O10 0.634795 0.750000 0.006500
O O11 0.612903 0.832012 0.132027
O O12 0.500000 0.250000 0.569539
O O13 0.411872 0.331127 0.643452
O O14 0.500000 0.329290 0.451155
O O15 0.250000 0.500000 0.708728
O O16 0.887986 0.250000 0.245352
O O17 0.000000 0.750000 0.306727
#
# Coordination Sequence:
#
# PCOD8279413 Si02
#       7
#    16  16  16   8  16  16   8
#     4  12  23  35  57  90 121 161 193 247 312 366
#     4   8  15  32  57  77 105 152 203 255 302 338
#     4  10  19  36  63  90 116 149 201 263 303 345
#     4   9  20  37  55  80 122 168 200 235 296 372
#     4   9  20  36  52  82 117 151 202 249 296 362
#     4  10  20  38  61  83 112 156 208 256 299 347
#     4  11  24  39  55  88 134 168 202 243 300 384
#
# _framework density 20.461465
#
# number of rings (size 3 to 8) (size 9 to 14) (size 15 to 20)
#    0.000    2.167    1.667    3.000    1.167    4.667 
#    1.500    2.500    0.000    2.000    0.000    1.167 
#    0.000    0.000    0.000    0.000    0.000    0.000 
#
# Total GULP energy -594767.889670 kJ/mol
# GULP energy per Si atom -12390.997701 kJ/mol
# Density = 2.041489 g / cm^3
# Si number density = 20.461465 Si / 1000 Ang^3
#
#
#
# Elastic Constant Matrix: (Units=GPa)
#
#
# Indices 1 2 3 4 5 6 
#
# 1 142.3295 19.4797 32.8442 0.0000 0.0000 0.0000
# 2 19.4797 72.4736 25.3094 0.0000 0.0000 0.0000
# 3 32.8442 25.3094 95.9381 0.0000 0.0000 0.0000
# 4 0.0000 0.0000 0.0000 8.7198 0.0000 0.0000
# 5 0.0000 0.0000 0.0000 0.0000 7.6722 0.0000
# 6 0.0000 0.0000 0.0000 0.0000 0.0000 27.1782
#
#
#
# Elastic Compliance Matrix: (Units=1/GPa)
#
#
# Indices 1 2 3 4 5 6 
#
# 1 0.007733 -0.001271 -0.002312 0.000000 0.000000 0.000000
# 2 -0.001271 0.015407 -0.003629 0.000000 0.000000 0.000000
# 3 -0.002312 -0.003629 0.012172 0.000000 0.000000 0.000000
# 4 0.000000 0.000000 0.000000 0.114682 0.000000 0.000000
# 5 0.000000 0.000000 0.000000 0.000000 0.130341 0.000000
# 6 0.000000 0.000000 0.000000 0.000000 0.000000 0.036794
#
#
# Mechanical properties :
#
#
# Convention : Reuss Voigt Hill
#
# Bulk Modulus (GPa) = 47.87516 51.77864 49.82690
# Shear Modulus (GPa) = 14.77025 24.25455 19.51240
#
# Velocity S-wave (km/s) = 2.68965 3.44667 3.09142
# Velocity P-wave (km/s) = 5.75275 6.41870 6.09483
#
# Compressibility (1/GPa) = 0.02088766
#
# Stress axis : x y z
#
# Youngs Moduli (GPa) = 129.30767 64.90443 82.15285
#
# Poissons Ratio (x) = 0.08250 0.18995
# Poissons Ratio (y) = 0.16437 0.29817
# Poissons Ratio (z) = 0.29898 0.23556
#
# Static dielectric constant tensor:
#      x y z
#    x 4.123960 0.000000 0.000000 
#    y 0.000000 3.472310 0.000000 
#    z 0.000000 0.000000 3.749820 
# 
# 
# High freq. dielectric constant tensor:
#      x y z
#    x 1.820270 0.000000 0.000000 
#    y 0.000000 1.775070 0.000000 
#    z 0.000000 0.000000 1.785070 
# 
# From -- ./inp_files/18528.got.cif
#   From: 2010.03.12/outbox.cif.g09.slc.cpg/sg67_10_cif.got.tgz:18528.got - 2010.04.10 22:41:39.
