data_PCOD8279269
_publ_section_title
;
Structure prediction by ZEFSAII (Michael W. Deem and Ramdas Pophale) SiO2 
 PCOD8279269
Probable space group: C M M A
;
_chemical_formula_sum "Si O2"
_cell_formula_units_Z 96
_cell_length_a 16.833584
_cell_length_b 18.576202
_cell_length_c 14.561903
_cell_angle_alpha 90.000000
_cell_angle_beta 90.000000
_cell_angle_gamma 90.000000
_cell_volume 4553.566142
_symmetry_space_group_name_H-M "C M M A"
_symmetry_group_IT_number 67
_symmetry_cell_setting 'orthorhombic'
loop_
_space_group_symop_operation_xyz
x,y,z
-x,1/2-y,z
x,-y,-z
-x,1/2+y,-z
-x,-y,-z
x,1/2+y,-z
-x,y,z
x,1/2-y,z
1/2+x,1/2+y,z
1/2-x,-y,z
1/2+x,1/2-y,-z
1/2-x,y,-z
1/2-x,1/2-y,-z
1/2+x,y,-z
1/2-x,1/2+y,z
1/2+x,-y,z
loop_
_atom_site_type_symbol
_atom_site_label
_atom_site_fract_x
_atom_site_fract_y
_atom_site_fract_z
Si Si1 0.820794 0.828289 0.187592
Si Si2 0.409508 0.036236 0.706127
Si Si3 0.194473 0.934578 0.876197
Si Si4 0.158850 0.078851 0.473919
Si Si5 0.088011 0.627660 0.354877
Si Si6 0.408149 0.833540 0.993644
O O1 0.784523 0.750000 0.166084
O O2 0.749822 0.883920 0.184067
O O3 0.855836 0.825959 0.289798
O O4 0.890599 0.844991 0.114026
O O5 0.500000 0.064022 0.710328
O O6 0.373153 0.037707 0.807705
O O7 0.360927 0.088021 0.634546
O O8 0.404074 0.954689 0.674870
O O9 0.152372 0.888768 0.956643
O O10 0.250000 0.000000 0.914754
O O11 0.250000 0.087686 0.500000
O O12 0.112250 0.135940 0.537873
O O13 0.127223 0.000000 0.500000
O O14 0.000000 0.657915 0.343365
O O15 0.500000 0.854298 0.013038
O O16 0.392808 0.750000 0.023200
#
# Coordination Sequence:
#
# PCOD8279269 Si02
#       6
#    16  16  16  16  16  16
#     4  11  23  40  62  87 119 160 204 251 305 370
#     4  10  20  35  56  87 122 157 196 242 302 361
#     4  12  23  39  61  90 124 160 198 259 313 365
#     4   9  17  29  54  83 119 154 190 240 294 356
#     4  10  19  34  55  85 118 154 197 243 293 352
#     4  10  23  44  66  87 116 162 214 257 307 376
#
# _framework density 21.082377999999999
#
# number of rings (size 3 to 8) (size 9 to 14) (size 15 to 20)
#    0.000    1.667    1.667    3.500    2.333    5.667 
#    0.000    0.833    0.000    5.500    0.000    0.000 
#    0.000    0.000    0.000    0.000    0.000    0.000 
#
# Total GULP energy -594931.438567 kJ/mol
# GULP energy per Si atom -12394.404970 kJ/mol
# Density = 2.103439 g / cm^3
# Si number density = 21.082378 Si / 1000 Ang^3
#
#
#
# Elastic Constant Matrix: (Units=GPa)
#
#
# Indices 1 2 3 4 5 6 
#
# 1 95.8309 37.8010 17.1471 0.0000 0.0000 0.0000
# 2 37.8010 65.3264 17.6096 0.0000 0.0000 0.0000
# 3 17.1471 17.6096 85.4529 0.0000 0.0000 0.0000
# 4 0.0000 0.0000 0.0000 22.6520 0.0000 0.0000
# 5 0.0000 0.0000 0.0000 0.0000 28.1451 0.0000
# 6 0.0000 0.0000 0.0000 0.0000 0.0000 22.8838
#
#
#
# Elastic Compliance Matrix: (Units=1/GPa)
#
#
# Indices 1 2 3 4 5 6 
#
# 1 0.013632 -0.007571 -0.001175 0.000000 0.000000 0.000000
# 2 -0.007571 0.020413 -0.002687 0.000000 0.000000 0.000000
# 3 -0.001175 -0.002687 0.012492 0.000000 0.000000 0.000000
# 4 0.000000 0.000000 0.000000 0.044146 0.000000 0.000000
# 5 0.000000 0.000000 0.000000 0.000000 0.035530 0.000000
# 6 0.000000 0.000000 0.000000 0.000000 0.000000 0.043699
#
#
# Mechanical properties :
#
#
# Convention : Reuss Voigt Hill
#
# Bulk Modulus (GPa) = 42.24845 43.52504 42.88674
# Shear Modulus (GPa) = 24.91654 26.33968 25.62811
#
# Velocity S-wave (km/s) = 3.44156 3.53848 3.49035
# Velocity P-wave (km/s) = 5.98963 6.11428 6.05228
#
# Compressibility (1/GPa) = 0.02366951
#
# Stress axis : x y z
#
# Youngs Moduli (GPa) = 73.35766 48.98776 80.05148
#
# Poissons Ratio (x) = 0.37090 0.09407
# Poissons Ratio (y) = 0.55541 0.21513
# Poissons Ratio (z) = 0.08621 0.13165
#
# Static dielectric constant tensor:
#      x y z
#    x 3.872230 0.000000 0.000000 
#    y 0.000000 3.648440 0.000000 
#    z 0.000000 0.000000 3.936520 
# 
# 
# High freq. dielectric constant tensor:
#      x y z
#    x 1.831570 0.000000 0.000000 
#    y 0.000000 1.794400 0.000000 
#    z 0.000000 0.000000 1.831100 
# 
# From -- ./inp_files/27231.got.cif
#   From: 2010.03.12/outbox.cif.g09.slc.cpg/sg67_14_cif.got.tgz:27231.got - 2010.04.10 22:41:39.
