data_PCOD8279082
_publ_section_title
;
Structure prediction by ZEFSAII (Michael W. Deem and Ramdas Pophale) SiO2 
 PCOD8279082
Probable space group: C M M A
;
_chemical_formula_sum "Si O2"
_cell_formula_units_Z 104
_cell_length_a 26.666477
_cell_length_b 8.851820
_cell_length_c 24.099509
_cell_angle_alpha 90.000000
_cell_angle_beta 90.000000
_cell_angle_gamma 90.000000
_cell_volume 5688.613293
_symmetry_space_group_name_H-M "C M M A"
_symmetry_group_IT_number 67
_symmetry_cell_setting 'orthorhombic'
loop_
_space_group_symop_operation_xyz
x,y,z
-x,1/2-y,z
x,-y,-z
-x,1/2+y,-z
-x,-y,-z
x,1/2+y,-z
-x,y,z
x,1/2-y,z
1/2+x,1/2+y,z
1/2-x,-y,z
1/2+x,1/2-y,-z
1/2-x,y,-z
1/2-x,1/2-y,-z
1/2+x,y,-z
1/2-x,1/2+y,z
1/2+x,-y,z
loop_
_atom_site_type_symbol
_atom_site_label
_atom_site_fract_x
_atom_site_fract_y
_atom_site_fract_z
Si Si1 0.607838 0.074079 0.838581
Si Si2 0.801273 0.429298 0.775889
Si Si3 0.409119 0.924707 0.624644
Si Si4 0.057479 0.072121 0.942491
Si Si5 0.500000 0.071507 0.560062
Si Si6 0.057710 0.917968 0.727654
Si Si7 0.699322 0.073378 0.350744
O O1 0.616381 0.250000 0.850688
O O2 0.564920 0.046304 0.792407
O O3 0.657765 0.999253 0.815923
O O4 0.592178 0.992613 0.894540
O O5 0.801083 0.250000 0.781339
O O6 0.750000 0.500000 0.797982
O O7 0.809891 0.483112 0.712270
O O8 0.420434 0.750000 0.612368
O O9 0.350394 0.964818 0.612000
O O10 0.448549 0.023817 0.590342
O O11 0.415094 0.956900 0.690170
O O12 0.064406 0.250000 0.946155
O O13 0.000000 0.026433 0.930459
O O14 0.075730 0.000000 0.000000
O O15 0.500000 0.250000 0.555302
O O16 0.500000 0.000000 0.500000
O O17 0.079020 0.750000 0.714003
O O18 0.000000 0.924763 0.712166
O O19 0.708781 0.250000 0.350528
O O20 0.750000 0.000000 0.376219
#
# Coordination Sequence:
#
# PCOD8279082 Si02
#       7
#    16  16  16  16   8  16  16
#     4  11  21  33  52  78 109 145 183 226 277 335
#     4  10  19  33  50  75 109 146 185 227 275 331
#     4  11  21  36  57  85 117 152 189 235 283 333
#     4  10  21  37  56  77 103 139 182 229 278 330
#     4  12  26  44  64  88 116 156 199 238 283 336
#     4  10  20  32  48  76 112 149 184 223 275 333
#     4   9  19  33  53  81 115 152 191 231 281 337
#
# _framework density 18.282135
#
# number of rings (size 3 to 8) (size 9 to 14) (size 15 to 20)
#    0.000    1.692    2.308    3.000    0.000    4.000 
#    0.000    0.000    0.000    0.923    0.000    6.462 
#    0.000    0.000    0.000    0.000    0.000    0.000 
#
# Total GULP energy -644695.835048 kJ/mol
# GULP energy per Si atom -12397.996828 kJ/mol
# Density = 1.824052 g / cm^3
# Si number density = 18.282135 Si / 1000 Ang^3
#
#
#
# Elastic Constant Matrix: (Units=GPa)
#
#
# Indices 1 2 3 4 5 6 
#
# 1 125.8253 51.3806 43.9890 0.0000 0.0000 0.0000
# 2 51.3806 88.9572 36.8896 0.0000 0.0000 0.0000
# 3 43.9890 36.8896 72.3148 0.0000 0.0000 0.0000
# 4 0.0000 0.0000 0.0000 29.6829 0.0000 0.0000
# 5 0.0000 0.0000 0.0000 0.0000 16.2971 0.0000
# 6 0.0000 0.0000 0.0000 0.0000 0.0000 32.7576
#
#
#
# Elastic Compliance Matrix: (Units=1/GPa)
#
#
# Indices 1 2 3 4 5 6 
#
# 1 0.011478 -0.004736 -0.004566 0.000000 0.000000 0.000000
# 2 -0.004736 0.016212 -0.005389 0.000000 0.000000 0.000000
# 3 -0.004566 -0.005389 0.019355 0.000000 0.000000 0.000000
# 4 0.000000 0.000000 0.000000 0.033689 0.000000 0.000000
# 5 0.000000 0.000000 0.000000 0.000000 0.061361 0.000000
# 6 0.000000 0.000000 0.000000 0.000000 0.000000 0.030527
#
#
# Mechanical properties :
#
#
# Convention : Reuss Voigt Hill
#
# Bulk Modulus (GPa) = 56.61761 61.29066 58.95413
# Shear Modulus (GPa) = 24.05104 26.07003 25.06054
#
# Velocity S-wave (km/s) = 3.63098 3.78032 3.70640
# Velocity P-wave (km/s) = 6.97243 7.25617 7.11572
#
# Compressibility (1/GPa) = 0.01766235
#
# Stress axis : x y z
#
# Youngs Moduli (GPa) = 87.12537 61.68433 51.66621
#
# Poissons Ratio (x) = 0.29213 0.23591
# Poissons Ratio (y) = 0.41262 0.27843
# Poissons Ratio (z) = 0.39781 0.33242
#
# Static dielectric constant tensor:
#      x y z
#    x 3.504640 0.000000 0.000000 
#    y 0.000000 3.443920 0.000000 
#    z 0.000000 0.000000 3.202080 
# 
# 
# High freq. dielectric constant tensor:
#      x y z
#    x 1.714650 0.000000 0.000000 
#    y 0.000000 1.719650 0.000000 
#    z 0.000000 0.000000 1.678900 
# 
# From -- ./inp_files/39947.got.cif
#   From: 2010.03.12/outbox.cif.g09.slc.cpg/sg67_20_cif.got.tgz:39947.got - 2010.04.10 22:41:39.
