data_PCOD8279380
_publ_section_title
;
Structure prediction by ZEFSAII (Michael W. Deem and Ramdas Pophale) SiO2 
 PCOD8279380
Probable space group: C M M A
;
_chemical_formula_sum "Si O2"
_cell_formula_units_Z 64
_cell_length_a 9.671419
_cell_length_b 15.660889
_cell_length_c 21.798236
_cell_angle_alpha 90.000000
_cell_angle_beta 90.000000
_cell_angle_gamma 90.000000
_cell_volume 3301.626643
_symmetry_space_group_name_H-M "C M M A"
_symmetry_group_IT_number 67
_symmetry_cell_setting 'orthorhombic'
loop_
_space_group_symop_operation_xyz
x,y,z
-x,1/2-y,z
x,-y,-z
-x,1/2+y,-z
-x,-y,-z
x,1/2+y,-z
-x,y,z
x,1/2-y,z
1/2+x,1/2+y,z
1/2-x,-y,z
1/2+x,1/2-y,-z
1/2-x,y,-z
1/2-x,1/2-y,-z
1/2+x,y,-z
1/2-x,1/2+y,z
1/2+x,-y,z
loop_
_atom_site_type_symbol
_atom_site_label
_atom_site_fract_x
_atom_site_fract_y
_atom_site_fract_z
Si Si1 0.330073 0.581908 0.563872
Si Si2 0.737943 0.908012 0.858550
Si Si3 0.663710 0.250000 0.223981
Si Si4 0.662075 0.750000 0.638964
Si Si5 0.500000 0.917611 0.956068
Si Si6 0.500000 0.655672 0.078032
O O1 0.500000 0.569559 0.557131
O O2 0.250000 0.500000 0.594052
O O3 0.250000 0.596456 0.500000
O O4 0.292130 0.664446 0.603962
O O5 0.715940 0.835251 0.808581
O O6 0.628249 0.909120 0.912098
O O7 0.874623 0.897051 0.896515
O O8 0.750000 0.000000 0.824322
O O9 0.500000 0.250000 0.223449
O O10 0.726070 0.250000 0.292698
O O11 0.500000 0.750000 0.645541
O O12 0.500000 0.838982 0.003969
O O13 0.500000 0.000000 0.000000
O O14 0.500000 0.750000 0.105681
#
# Coordination Sequence:
#
# PCOD8279380 Si02
#       6
#    16  16   8   8   8   8
#     4  10  19  35  63  97 133 162 201 250 304 351
#     4  12  24  42  63  86 119 155 192 254 309 366
#     4  11  24  44  63  86 116 163 220 243 293 366
#     4   9  21  39  61  86 123 169 211 252 288 355
#     4  12  24  40  62  94 112 151 197 244 315 390
#     4  12  26  38  60  89 127 142 188 248 316 377
#
# _framework density 19.384385000000002
#
# number of rings (size 3 to 8) (size 9 to 14) (size 15 to 20)
#    0.000    1.000    5.000    2.625    1.750    2.000 
#    0.000    1.875   11.000    0.000    0.000    0.000 
#    0.000    0.000    0.000    0.000    0.000    0.000 
#
# Total GULP energy -396429.086530 kJ/mol
# GULP energy per Si atom -12388.408954 kJ/mol
# Density = 1.934027 g / cm^3
# Si number density = 19.384385 Si / 1000 Ang^3
#
#
#
# Elastic Constant Matrix: (Units=GPa)
#
#
# Indices 1 2 3 4 5 6 
#
# 1 132.1811 49.6578 47.7216 0.0000 0.0000 0.0000
# 2 49.6578 193.5472 85.2825 0.0000 0.0000 0.0000
# 3 47.7216 85.2825 123.0411 0.0000 0.0000 0.0000
# 4 0.0000 0.0000 0.0000 27.3199 0.0000 0.0000
# 5 0.0000 0.0000 0.0000 0.0000 29.1066 0.0000
# 6 0.0000 0.0000 0.0000 0.0000 0.0000 30.4087
#
#
#
# Elastic Compliance Matrix: (Units=1/GPa)
#
#
# Indices 1 2 3 4 5 6 
#
# 1 0.008958 -0.001105 -0.002709 0.000000 0.000000 0.000000
# 2 -0.001105 0.007575 -0.004822 0.000000 0.000000 0.000000
# 3 -0.002709 -0.004822 0.012520 0.000000 0.000000 0.000000
# 4 0.000000 0.000000 0.000000 0.036603 0.000000 0.000000
# 5 0.000000 0.000000 0.000000 0.000000 0.034356 0.000000
# 6 0.000000 0.000000 0.000000 0.000000 0.000000 0.032885
#
#
# Mechanical properties :
#
#
# Convention : Reuss Voigt Hill
#
# Bulk Modulus (GPa) = 84.87139 90.45481 87.66310
# Shear Modulus (GPa) = 32.44725 35.10755 33.77740
#
# Velocity S-wave (km/s) = 4.09575 4.26035 4.17886
# Velocity P-wave (km/s) = 8.13913 8.42412 8.28285
#
# Compressibility (1/GPa) = 0.01178253
#
# Stress axis : x y z
#
# Youngs Moduli (GPa) = 111.62721 132.01737 79.87238
#
# Poissons Ratio (x) = 0.14587 0.21635
# Poissons Ratio (y) = 0.12334 0.38512
# Poissons Ratio (z) = 0.30236 0.63655
#
# Static dielectric constant tensor:
#      x y z
#    x 3.419330 0.000000 0.000000 
#    y 0.000000 4.098510 0.000000 
#    z 0.000000 0.000000 3.664890 
# 
# 
# High freq. dielectric constant tensor:
#      x y z
#    x 1.760430 0.000000 0.000000 
#    y 0.000000 1.779770 0.000000 
#    z 0.000000 0.000000 1.738420 
# 
# From -- ./inp_files/40457.got.cif
#   From: 2010.03.12/outbox.cif.g09.slc.cpg/sg67_21_cif.got.tgz:40457.got - 2010.04.10 22:41:39.
