data_PCOD8279046
_publ_section_title
;
Structure prediction by ZEFSAII (Michael W. Deem and Ramdas Pophale) SiO2 
 PCOD8279046
Probable space group: C M M A
;
_chemical_formula_sum "Si O2"
_cell_formula_units_Z 104
_cell_length_a 27.104691
_cell_length_b 22.954368
_cell_length_c 8.595634
_cell_angle_alpha 90.000000
_cell_angle_beta 90.000000
_cell_angle_gamma 90.000000
_cell_volume 5347.954646
_symmetry_space_group_name_H-M "C M M A"
_symmetry_group_IT_number 67
_symmetry_cell_setting 'orthorhombic'
loop_
_space_group_symop_operation_xyz
x,y,z
-x,1/2-y,z
x,-y,-z
-x,1/2+y,-z
-x,-y,-z
x,1/2+y,-z
-x,y,z
x,1/2-y,z
1/2+x,1/2+y,z
1/2-x,-y,z
1/2+x,1/2-y,-z
1/2-x,y,-z
1/2-x,1/2-y,-z
1/2+x,y,-z
1/2-x,1/2+y,z
1/2+x,-y,z
loop_
_atom_site_type_symbol
_atom_site_label
_atom_site_fract_x
_atom_site_fract_y
_atom_site_fract_z
Si Si1 0.055262 0.390493 0.829516
Si Si2 0.781908 0.878118 0.845449
Si Si3 0.801507 0.314720 0.682059
Si Si4 0.415719 0.500000 0.000000
Si Si5 0.348273 0.530173 0.268824
Si Si6 0.866092 0.685064 0.010672
Si Si7 0.866323 0.087240 0.581107
O O1 0.051188 0.454872 0.903659
O O2 0.083387 0.348302 0.949592
O O3 0.082604 0.393365 0.662426
O O4 0.000000 0.366786 0.801648
O O5 0.752864 0.838510 0.721531
O O6 0.795273 0.940153 0.765923
O O7 0.750000 0.889465 0.000000
O O8 0.834234 0.846801 0.878305
O O9 0.796967 0.250000 0.608370
O O10 0.832514 0.311997 0.838247
O O11 0.829067 0.358275 0.563802
O O12 0.381438 0.463090 0.883772
O O13 0.376889 0.562246 0.410367
O O14 0.340027 0.462046 0.310524
O O15 0.879694 0.750000 0.953436
#
# Coordination Sequence:
#
# PCOD8279046 Si02
#       7
#    16  16  16   8  16  16  16
#     4  10  19  34  57  84 105 136 182 228 277 333
#     4  10  19  32  54  81 110 148 191 234 276 327
#     4   9  18  34  54  78 111 150 191 226 268 329
#     4  10  19  36  57  80 108 142 175 228 279 332
#     4  10  20  37  56  77 114 145 182 225 282 336
#     4   9  17  32  52  80 113 144 180 229 278 324
#     4   9  21  38  54  78 114 149 179 229 284 335
#
# _framework density 19.446688000000002
#
# number of rings (size 3 to 8) (size 9 to 14) (size 15 to 20)
#    0.000    2.462    1.538    0.692    2.154    3.385 
#    0.000   10.769    0.000    0.000    0.000    0.000 
#    0.000    0.000    0.000    0.000    0.000    0.000 
#
# Total GULP energy -644695.189516 kJ/mol
# GULP energy per Si atom -12397.984414 kJ/mol
# Density = 1.940243 g / cm^3
# Si number density = 19.446688 Si / 1000 Ang^3
#
#
#
# Elastic Constant Matrix: (Units=GPa)
#
#
# Indices 1 2 3 4 5 6 
#
# 1 129.8137 60.9331 32.0263 0.0000 0.0000 0.0000
# 2 60.9331 103.1227 17.6285 0.0000 0.0000 0.0000
# 3 32.0263 17.6285 64.6068 0.0000 0.0000 0.0000
# 4 0.0000 0.0000 0.0000 20.0500 0.0000 0.0000
# 5 0.0000 0.0000 0.0000 0.0000 18.4052 0.0000
# 6 0.0000 0.0000 0.0000 0.0000 0.0000 19.7164
#
#
#
# Elastic Compliance Matrix: (Units=1/GPa)
#
#
# Indices 1 2 3 4 5 6 
#
# 1 0.011597 -0.006157 -0.004069 0.000000 0.000000 0.000000
# 2 -0.006157 0.013440 -0.000615 0.000000 0.000000 0.000000
# 3 -0.004069 -0.000615 0.017663 0.000000 0.000000 0.000000
# 4 0.000000 0.000000 0.000000 0.049875 0.000000 0.000000
# 5 0.000000 0.000000 0.000000 0.000000 0.054333 0.000000
# 6 0.000000 0.000000 0.000000 0.000000 0.000000 0.050719
#
#
# Mechanical properties :
#
#
# Convention : Reuss Voigt Hill
#
# Bulk Modulus (GPa) = 47.57710 57.63543 52.60627
# Shear Modulus (GPa) = 22.09299 24.09800 23.09550
#
# Velocity S-wave (km/s) = 3.37424 3.52402 3.44994
# Velocity P-wave (km/s) = 6.30072 6.80149 6.55589
#
# Compressibility (1/GPa) = 0.02101852
#
# Stress axis : x y z
#
# Youngs Moduli (GPa) = 86.22767 74.40250 56.61516
#
# Poissons Ratio (x) = 0.45810 0.23036
# Poissons Ratio (y) = 0.53090 0.03483
# Poissons Ratio (z) = 0.35085 0.04577
#
# Static dielectric constant tensor:
#      x y z
#    x 3.265040 0.000000 0.000000 
#    y 0.000000 3.891940 0.000000 
#    z 0.000000 0.000000 3.343440 
# 
# 
# High freq. dielectric constant tensor:
#      x y z
#    x 1.729390 0.000000 0.000000 
#    y 0.000000 1.765680 0.000000 
#    z 0.000000 0.000000 1.741160 
# 
# From -- ./inp_files/13961.got.cif
#   From: 2010.03.12/outbox.cif.g09.slc.cpg/sg67_7_cif.got.tgz:13961.got - 2010.04.10 22:41:39.
