data_PCOD8279823
_publ_section_title
;
Structure prediction by ZEFSAII (Michael W. Deem and Ramdas Pophale) SiO2 
 PCOD8279823
Probable space group: C M M A
;
_chemical_formula_sum "Si O2"
_cell_formula_units_Z 96
_cell_length_a 9.324171
_cell_length_b 19.742797
_cell_length_c 30.168904
_cell_angle_alpha 90.000000
_cell_angle_beta 90.000000
_cell_angle_gamma 90.000000
_cell_volume 5553.649187
_symmetry_space_group_name_H-M "C M M A"
_symmetry_group_IT_number 67
_symmetry_cell_setting 'orthorhombic'
loop_
_space_group_symop_operation_xyz
x,y,z
-x,1/2-y,z
x,-y,-z
-x,1/2+y,-z
-x,-y,-z
x,1/2+y,-z
-x,y,z
x,1/2-y,z
1/2+x,1/2+y,z
1/2-x,-y,z
1/2+x,1/2-y,-z
1/2-x,y,-z
1/2-x,1/2-y,-z
1/2+x,y,-z
1/2-x,1/2+y,z
1/2+x,-y,z
loop_
_atom_site_type_symbol
_atom_site_label
_atom_site_fract_x
_atom_site_fract_y
_atom_site_fract_z
Si Si1 0.833929 0.065852 0.615348
Si Si2 0.658801 0.330439 0.876281
Si Si3 0.833543 0.329126 0.223222
Si Si4 0.661118 0.830831 0.958049
Si Si5 0.831292 0.932138 0.282647
Si Si6 0.667499 0.827181 0.543208
O O1 0.797957 0.083449 0.666076
O O2 0.785070 0.129173 0.585614
O O3 0.000000 0.049532 0.609092
O O4 0.750000 0.000000 0.598911
O O5 0.500000 0.358849 0.886936
O O6 0.653802 0.250000 0.878769
O O7 0.705735 0.352068 0.826880
O O8 0.768673 0.359423 0.912763
O O9 0.802496 0.250000 0.229986
O O10 0.729368 0.368950 0.255753
O O11 0.000000 0.345280 0.233350
O O12 0.500000 0.859118 0.961193
O O13 0.661343 0.750000 0.957876
O O14 0.750000 0.858357 0.000000
O O15 0.000000 0.940748 0.273546
O O16 0.750000 0.000000 0.267258
O O17 0.500000 0.834305 0.533416
O O18 0.710889 0.750000 0.553827
O O19 0.750000 0.854134 0.500000
#
# Coordination Sequence:
#
# PCOD8279823 Si02
#       6
#    16  16  16  16  16  16
#     4   9  19  34  51  71  95 124 156 194 237 279
#     4   8  14  25  39  55  80 114 148 184 229 278
#     4   9  18  32  49  70  97 127 158 196 243 291
#     4   9  15  21  31  49  75 109 148 187 227 274
#     4  10  20  34  52  72  96 127 162 200 242 288
#     4   9  18  33  51  71  97 127 158 192 231 275
#
# _framework density 17.285933
#
# number of rings (size 3 to 8) (size 9 to 14) (size 15 to 20)
#    0.000    3.000    0.000    2.000    0.000    5.333 
#    0.000    5.000    0.000    2.000    0.000    0.000 
#    0.000    0.667    0.000    7.000    0.000    9.667 
#
# Total GULP energy -595125.658373 kJ/mol
# GULP energy per Si atom -12398.451216 kJ/mol
# Density = 1.724659 g / cm^3
# Si number density = 17.285933 Si / 1000 Ang^3
#
#
#
# Elastic Constant Matrix: (Units=GPa)
#
#
# Indices 1 2 3 4 5 6 
#
# 1 100.1796 45.1758 67.8936 0.0000 0.0000 0.0000
# 2 45.1758 60.3547 54.9249 0.0000 0.0000 0.0000
# 3 67.8936 54.9249 116.2404 0.0000 0.0000 0.0000
# 4 0.0000 0.0000 0.0000 2.6872 0.0000 0.0000
# 5 0.0000 0.0000 0.0000 0.0000 33.7783 0.0000
# 6 0.0000 0.0000 0.0000 0.0000 0.0000 23.9643
#
#
#
# Elastic Compliance Matrix: (Units=1/GPa)
#
#
# Indices 1 2 3 4 5 6 
#
# 1 0.018005 -0.006854 -0.007278 0.000000 0.000000 0.000000
# 2 -0.006854 0.031677 -0.010965 0.000000 0.000000 0.000000
# 3 -0.007278 -0.010965 0.018035 0.000000 0.000000 0.000000
# 4 0.000000 0.000000 0.000000 0.372134 0.000000 0.000000
# 5 0.000000 0.000000 0.000000 0.000000 0.029605 0.000000
# 6 0.000000 0.000000 0.000000 0.000000 0.000000 0.041729
#
#
# Mechanical properties :
#
#
# Convention : Reuss Voigt Hill
#
# Bulk Modulus (GPa) = 57.06401 68.08481 62.57441
# Shear Modulus (GPa) = 8.81494 19.33799 14.07646
#
# Velocity S-wave (km/s) = 2.26065 3.34834 2.85674
# Velocity P-wave (km/s) = 6.31645 7.37709 6.86728
#
# Compressibility (1/GPa) = 0.01752418
#
# Stress axis : x y z
#
# Youngs Moduli (GPa) = 55.53958 31.56866 55.44874
#
# Poissons Ratio (x) = 0.21636 0.40355
# Poissons Ratio (y) = 0.38065 0.60797
# Poissons Ratio (z) = 0.40422 0.34614
#
# Static dielectric constant tensor:
#      x y z
#    x 3.328620 0.000000 0.000000 
#    y 0.000000 2.871010 0.000000 
#    z 0.000000 0.000000 3.397320 
# 
# 
# High freq. dielectric constant tensor:
#      x y z
#    x 1.672310 0.000000 0.000000 
#    y 0.000000 1.623280 0.000000 
#    z 0.000000 0.000000 1.675310 
# 
# From -- ./inp_files/43651.got.cif
#   From: 2010.03.12/outbox.cif.g09.slc.cpg/sg67_22_cif.got.tgz:43651.got - 2010.04.10 22:41:39.
