data_PCOD8279955
_publ_section_title
;
Structure prediction by ZEFSAII (Michael W. Deem and Ramdas Pophale) SiO2 
 PCOD8279955
Probable space group: C M M A
;
_chemical_formula_sum "Si O2"
_cell_formula_units_Z 80
_cell_length_a 17.886256
_cell_length_b 9.000526
_cell_length_c 25.930669
_cell_angle_alpha 90.000000
_cell_angle_beta 90.000000
_cell_angle_gamma 90.000000
_cell_volume 4174.467216
_symmetry_space_group_name_H-M "C M M A"
_symmetry_group_IT_number 67
_symmetry_cell_setting 'orthorhombic'
loop_
_space_group_symop_operation_xyz
x,y,z
-x,1/2-y,z
x,-y,-z
-x,1/2+y,-z
-x,-y,-z
x,1/2+y,-z
-x,y,z
x,1/2-y,z
1/2+x,1/2+y,z
1/2-x,-y,z
1/2+x,1/2-y,-z
1/2-x,y,-z
1/2-x,1/2-y,-z
1/2+x,y,-z
1/2-x,1/2+y,z
1/2+x,-y,z
loop_
_atom_site_type_symbol
_atom_site_label
_atom_site_fract_x
_atom_site_fract_y
_atom_site_fract_z
Si Si1 0.911253 0.581418 0.347113
Si Si2 0.589107 0.581817 0.449144
Si Si3 0.089076 0.582648 0.050202
Si Si4 0.914531 0.423939 0.152536
Si Si5 0.329792 0.425990 0.744705
O O1 0.880837 0.750000 0.343711
O O2 0.880653 0.507232 0.399564
O O3 0.883793 0.484790 0.299488
O O4 0.000000 0.579704 0.346517
O O5 0.620170 0.500000 0.500000
O O6 0.500000 0.582527 0.449665
O O7 0.619946 0.750000 0.447706
O O8 0.119141 0.750000 0.049481
O O9 0.118392 0.504793 0.102147
O O10 0.000000 0.576313 0.049026
O O11 0.121934 0.500000 0.000000
O O12 0.909500 0.250000 0.142071
O O13 0.864871 0.473820 0.200776
O O14 0.000000 0.472003 0.163509
O O15 0.322855 0.250000 0.739814
O O16 0.250000 0.500000 0.738527
#
# Coordination Sequence:
#
# PCOD8279955 Si02
#       5
#    16  16  16  16  16
#     4  10  20  34  54  80 108 138 175 218 261 308
#     4   9  16  27  46  74 107 139 171 210 257 306
#     4   9  16  26  44  72 104 134 164 202 249 300
#     4   9  18  33  53  76 102 133 170 211 255 305
#     4  11  23  38  55  75 103 139 177 218 265 314
#
# _framework density 19.164121999999999
#
# number of rings (size 3 to 8) (size 9 to 14) (size 15 to 20)
#    0.000    2.400    0.000    3.000    0.000    8.400 
#    0.000    2.000    0.000    1.200    0.000    8.400 
#    0.000    0.000    0.000    0.000    0.000    0.000 
#
# Total GULP energy -496061.824106 kJ/mol
# GULP energy per Si atom -12401.545603 kJ/mol
# Density = 1.912050 g / cm^3
# Si number density = 19.164122 Si / 1000 Ang^3
#
#
#
# Elastic Constant Matrix: (Units=GPa)
#
#
# Indices 1 2 3 4 5 6 
#
# 1 14.9466 18.6131 14.5240 0.0000 0.0000 0.0000
# 2 18.6131 117.9046 79.7755 0.0000 0.0000 0.0000
# 3 14.5240 79.7755 173.1720 0.0000 0.0000 0.0000
# 4 0.0000 0.0000 0.0000 43.2314 0.0000 0.0000
# 5 0.0000 0.0000 0.0000 0.0000 -1.0963 0.0000
# 6 0.0000 0.0000 0.0000 0.0000 0.0000 19.4720
#
#
#
# Elastic Compliance Matrix: (Units=1/GPa)
#
#
# Indices 1 2 3 4 5 6 
#
# 1 0.083493 -0.012266 -0.001352 0.000000 0.000000 0.000000
# 2 -0.012266 0.014124 -0.005478 0.000000 0.000000 0.000000
# 3 -0.001352 -0.005478 0.008412 0.000000 0.000000 0.000000
# 4 0.000000 0.000000 0.000000 0.023131 0.000000 0.000000
# 5 0.000000 0.000000 0.000000 0.000000 -0.912149 0.000000
# 6 0.000000 0.000000 0.000000 0.000000 0.000000 0.051356
#
#
# Mechanical properties :
#
#
# Convention : Reuss Voigt Hill
#
# Bulk Modulus (GPa) = 14.74113 59.09425 36.91769
# Shear Modulus (GPa) = -7.45347 25.19546 8.87100
#
# Velocity S-wave (km/s) = -1.97427 3.62984 2.15384
# Velocity P-wave (km/s) = 1.58486 6.96207 5.04887
#
# Compressibility (1/GPa) = 0.06783739
#
# Stress axis : x y z
#
# Youngs Moduli (GPa) = 11.97701 70.80056 118.88475
#
# Poissons Ratio (x) = 0.86843 0.16074
# Poissons Ratio (y) = 0.14691 0.65124
# Poissons Ratio (z) = 0.01619 0.38784
#
# Static dielectric constant tensor:
#      x y z
#    x 2.983410 0.000000 0.000000 
#    y 0.000000 3.723820 0.000000 
#    z 0.000000 0.000000 3.733380 
# 
# 
# High freq. dielectric constant tensor:
#      x y z
#    x 1.689520 0.000000 0.000000 
#    y 0.000000 1.759530 0.000000 
#    z 0.000000 0.000000 1.764910 
# 
# From -- ./inp_files/43281.got.cif
#   From: 2010.03.12/outbox.cif.g09.slc.cpg/sg67_22_cif.got.tgz:43281.got - 2010.04.10 22:41:39.
