data_PCOD8279014
_publ_section_title
;
Structure prediction by ZEFSAII (Michael W. Deem and Ramdas Pophale) SiO2 
 PCOD8279014
Probable space group: C M M A
;
_chemical_formula_sum "Si O2"
_cell_formula_units_Z 80
_cell_length_a 30.854850
_cell_length_b 9.064525
_cell_length_c 16.119973
_cell_angle_alpha 90.000000
_cell_angle_beta 90.000000
_cell_angle_gamma 90.000000
_cell_volume 4508.507543
_symmetry_space_group_name_H-M "C M M A"
_symmetry_group_IT_number 67
_symmetry_cell_setting 'orthorhombic'
loop_
_space_group_symop_operation_xyz
x,y,z
-x,1/2-y,z
x,-y,-z
-x,1/2+y,-z
-x,-y,-z
x,1/2+y,-z
-x,y,z
x,1/2-y,z
1/2+x,1/2+y,z
1/2-x,-y,z
1/2+x,1/2-y,-z
1/2-x,y,-z
1/2-x,1/2-y,-z
1/2+x,y,-z
1/2-x,1/2+y,z
1/2+x,-y,z
loop_
_atom_site_type_symbol
_atom_site_label
_atom_site_fract_x
_atom_site_fract_y
_atom_site_fract_z
Si Si1 0.361252 0.500000 0.500000
Si Si2 0.417090 0.582191 0.347419
Si Si3 0.710155 0.908524 0.612264
Si Si4 0.651752 0.923264 0.756056
Si Si5 0.500000 0.073805 0.410027
Si Si6 0.794778 0.575229 0.085395
O O1 0.390404 0.585591 0.433438
O O2 0.329272 0.611736 0.547442
O O3 0.430839 0.750000 0.327063
O O4 0.390467 0.517287 0.269172
O O5 0.458470 0.477864 0.358235
O O6 0.730167 0.750000 0.631269
O O7 0.691305 0.976602 0.697339
O O8 0.750000 0.000000 0.575952
O O9 0.642017 0.750000 0.741399
O O10 0.666459 0.955833 0.849825
O O11 0.500000 0.250000 0.420199
O O12 0.500000 0.000000 0.500000
O O13 0.787125 0.750000 0.073939
O O14 0.750000 0.500000 0.115533
O O15 0.809949 0.500000 0.000000
#
# Coordination Sequence:
#
# PCOD8279014 Si02
#       6
#     8  16  16  16   8  16
#     4  10  21  33  48  66  98 128 170 213 255 304
#     4  11  22  36  56  78 101 133 173 215 263 315
#     4  10  20  32  45  63  90 129 171 212 254 297
#     4   9  20  36  51  71 103 137 172 215 266 314
#     4  12  24  38  58  80 107 136 171 216 266 318
#     4  10  19  32  52  78 109 144 181 223 267 316
#
# _framework density 17.744230000000002
#
# number of rings (size 3 to 8) (size 9 to 14) (size 15 to 20)
#    0.000    1.800    1.000    4.200    0.000    8.000 
#    0.000    0.000    0.000    0.000    0.000    0.700 
#    0.000    0.000    0.000    0.000    0.000    0.000 
#
# Total GULP energy -495790.466106 kJ/mol
# GULP energy per Si atom -12394.761653 kJ/mol
# Density = 1.770384 g / cm^3
# Si number density = 17.744230 Si / 1000 Ang^3
#
#
#
# Elastic Constant Matrix: (Units=GPa)
#
#
# Indices 1 2 3 4 5 6 
#
# 1 110.6761 56.0919 48.0909 0.0000 0.0000 0.0000
# 2 56.0919 121.3291 40.9663 0.0000 0.0000 0.0000
# 3 48.0909 40.9663 98.3164 0.0000 0.0000 0.0000
# 4 0.0000 0.0000 0.0000 20.7088 0.0000 0.0000
# 5 0.0000 0.0000 0.0000 0.0000 24.0314 0.0000
# 6 0.0000 0.0000 0.0000 0.0000 0.0000 25.8481
#
#
#
# Elastic Compliance Matrix: (Units=1/GPa)
#
#
# Indices 1 2 3 4 5 6 
#
# 1 0.013390 -0.004630 -0.004620 0.000000 0.000000 0.000000
# 2 -0.004630 0.011193 -0.002399 0.000000 0.000000 0.000000
# 3 -0.004620 -0.002399 0.013431 0.000000 0.000000 0.000000
# 4 0.000000 0.000000 0.000000 0.048289 0.000000 0.000000
# 5 0.000000 0.000000 0.000000 0.000000 0.041612 0.000000
# 6 0.000000 0.000000 0.000000 0.000000 0.000000 0.038688
#
#
# Mechanical properties :
#
#
# Convention : Reuss Voigt Hill
#
# Bulk Modulus (GPa) = 67.96028 68.95776 68.45902
# Shear Modulus (GPa) = 25.66674 26.46248 26.06461
#
# Velocity S-wave (km/s) = 3.80739 3.86596 3.83679
# Velocity P-wave (km/s) = 7.59680 7.67294 7.63497
#
# Compressibility (1/GPa) = 0.01471448
#
# Stress axis : x y z
#
# Youngs Moduli (GPa) = 74.68519 89.34468 74.45623
#
# Poissons Ratio (x) = 0.41368 0.34400
# Poissons Ratio (y) = 0.34581 0.17861
# Poissons Ratio (z) = 0.34505 0.21433
#
# Static dielectric constant tensor:
#      x y z
#    x 3.238040 0.000000 0.000000 
#    y 0.000000 3.268480 0.000000 
#    z 0.000000 0.000000 3.212990 
# 
# 
# High freq. dielectric constant tensor:
#      x y z
#    x 1.671760 0.000000 0.000000 
#    y 0.000000 1.694440 0.000000 
#    z 0.000000 0.000000 1.666480 
# 
# From -- ./inp_files/36108.got.cif
#   From: 2010.03.12/outbox.cif.g09.slc.cpg/sg67_19_cif.got.tgz:36108.got - 2010.04.10 22:41:39.
