data_PCOD8279289
_publ_section_title
;
Structure prediction by ZEFSAII (Michael W. Deem and Ramdas Pophale) SiO2 
 PCOD8279289
Probable space group: C M M A
;
_chemical_formula_sum "Si O2"
_cell_formula_units_Z 112
_cell_length_a 22.729652
_cell_length_b 22.187319
_cell_length_c 11.830963
_cell_angle_alpha 90.000000
_cell_angle_beta 90.000000
_cell_angle_gamma 90.000000
_cell_volume 5966.473420
_symmetry_space_group_name_H-M "C M M A"
_symmetry_group_IT_number 67
_symmetry_cell_setting 'orthorhombic'
loop_
_space_group_symop_operation_xyz
x,y,z
-x,1/2-y,z
x,-y,-z
-x,1/2+y,-z
-x,-y,-z
x,1/2+y,-z
-x,y,z
x,1/2-y,z
1/2+x,1/2+y,z
1/2-x,-y,z
1/2+x,1/2-y,-z
1/2-x,y,-z
1/2-x,1/2-y,-z
1/2+x,y,-z
1/2-x,1/2+y,z
1/2+x,-y,z
loop_
_atom_site_type_symbol
_atom_site_label
_atom_site_fract_x
_atom_site_fract_y
_atom_site_fract_z
Si Si1 0.731590 0.818683 0.870822
Si Si2 0.066566 0.399556 0.048227
Si Si3 0.431867 0.624576 0.383474
Si Si4 0.931490 0.682440 0.385794
Si Si5 0.880262 0.391106 0.809192
Si Si6 0.142620 0.681488 0.803044
Si Si7 0.567037 0.008850 0.757771
O O1 0.708999 0.750000 0.845678
O O2 0.684798 0.871363 0.845156
O O3 0.788242 0.834874 0.793661
O O4 0.750000 0.823821 0.000000
O O5 0.112704 0.351382 0.092267
O O6 0.075881 0.461268 0.118441
O O7 0.000000 0.376989 0.068986
O O8 0.077609 0.405423 0.915423
O O9 0.500000 0.641944 0.360174
O O10 0.415460 0.635346 0.514232
O O11 0.389948 0.668815 0.313894
O O12 0.419962 0.556275 0.343311
O O13 0.909666 0.750000 0.417102
O O14 0.902294 0.662827 0.269142
O O15 0.000000 0.682631 0.363968
O O16 0.885675 0.454740 0.741887
O O17 0.136496 0.750000 0.837242
O O18 0.500000 0.984621 0.745237
#
# Coordination Sequence:
#
# PCOD8279289 Si02
#       7
#    16  16  16  16  16  16  16
#     4  10  21  38  55  76 111 151 188 231 277 328
#     4  10  20  33  52  81 115 144 178 229 287 342
#     4   9  19  37  58  81 113 146 183 233 283 333
#     4  10  21  35  54  85 119 147 181 232 290 342
#     4  12  21  34  55  78 112 152 186 225 280 342
#     4  10  19  34  57  79 104 143 193 238 275 326
#     4   9  19  35  56  82 111 146 188 232 276 331
#
# _framework density 18.771557999999999
#
# number of rings (size 3 to 8) (size 9 to 14) (size 15 to 20)
#    0.000    2.000    1.429    3.857    0.000    4.000 
#    0.000    5.714    0.000    2.571    0.000    4.000 
#    0.000    0.000    0.000    0.000    0.000    0.000 
#
# Total GULP energy -694139.681769 kJ/mol
# GULP energy per Si atom -12395.351460 kJ/mol
# Density = 1.872883 g / cm^3
# Si number density = 18.771558 Si / 1000 Ang^3
#
#
#
# Elastic Constant Matrix: (Units=GPa)
#
#
# Indices 1 2 3 4 5 6 
#
# 1 84.7342 70.1310 25.6150 0.0000 0.0000 0.0000
# 2 70.1310 106.0064 33.5270 0.0000 0.0000 0.0000
# 3 25.6150 33.5270 83.0846 0.0000 0.0000 0.0000
# 4 0.0000 0.0000 0.0000 21.2084 0.0000 0.0000
# 5 0.0000 0.0000 0.0000 0.0000 15.9923 0.0000
# 6 0.0000 0.0000 0.0000 0.0000 0.0000 31.4216
#
#
#
# Elastic Compliance Matrix: (Units=1/GPa)
#
#
# Indices 1 2 3 4 5 6 
#
# 1 0.026195 -0.016938 -0.001241 0.000000 0.000000 0.000000
# 2 -0.016938 0.021765 -0.003561 0.000000 0.000000 0.000000
# 3 -0.001241 -0.003561 0.013856 0.000000 0.000000 0.000000
# 4 0.000000 0.000000 0.000000 0.047151 0.000000 0.000000
# 5 0.000000 0.000000 0.000000 0.000000 0.062530 0.000000
# 6 0.000000 0.000000 0.000000 0.000000 0.000000 0.031825
#
#
# Mechanical properties :
#
#
# Convention : Reuss Voigt Hill
#
# Bulk Modulus (GPa) = 54.53629 59.15235 56.84432
# Shear Modulus (GPa) = 19.76955 23.36128 21.56541
#
# Velocity S-wave (km/s) = 3.24877 3.53158 3.39312
# Velocity P-wave (km/s) = 6.57179 6.94331 6.76010
#
# Compressibility (1/GPa) = 0.01833641
#
# Stress axis : x y z
#
# Youngs Moduli (GPa) = 38.17470 45.94517 72.17329
#
# Poissons Ratio (x) = 0.77820 0.08958
# Poissons Ratio (y) = 0.64659 0.25701
# Poissons Ratio (z) = 0.04738 0.16361
#
# Static dielectric constant tensor:
#      x y z
#    x 3.793790 0.000000 0.000000 
#    y 0.000000 3.435080 0.000000 
#    z 0.000000 0.000000 3.444970 
# 
# 
# High freq. dielectric constant tensor:
#      x y z
#    x 1.709980 0.000000 0.000000 
#    y 0.000000 1.729740 0.000000 
#    z 0.000000 0.000000 1.725330 
# 
# From -- ./inp_files/21118.got.cif
#   From: 2010.03.12/outbox.cif.g09.slc.cpg/sg67_11_cif.got.tgz:21118.got - 2010.04.10 22:41:39.
