data_PCOD8279966
_publ_section_title
;
Structure prediction by ZEFSAII (Michael W. Deem and Ramdas Pophale) SiO2 
 PCOD8279966
Probable space group: C M M A
;
_chemical_formula_sum "Si O2"
_cell_formula_units_Z 96
_cell_length_a 25.825815
_cell_length_b 8.823542
_cell_length_c 23.352017
_cell_angle_alpha 90.000000
_cell_angle_beta 90.000000
_cell_angle_gamma 90.000000
_cell_volume 5321.344688
_symmetry_space_group_name_H-M "C M M A"
_symmetry_group_IT_number 67
_symmetry_cell_setting 'orthorhombic'
loop_
_space_group_symop_operation_xyz
x,y,z
-x,1/2-y,z
x,-y,-z
-x,1/2+y,-z
-x,-y,-z
x,1/2+y,-z
-x,y,z
x,1/2-y,z
1/2+x,1/2+y,z
1/2-x,-y,z
1/2+x,1/2-y,-z
1/2-x,y,-z
1/2-x,1/2-y,-z
1/2+x,y,-z
1/2-x,1/2+y,z
1/2+x,-y,z
loop_
_atom_site_type_symbol
_atom_site_label
_atom_site_fract_x
_atom_site_fract_y
_atom_site_fract_z
Si Si1 0.697011 0.428035 0.133570
Si Si2 0.000000 0.929204 0.132016
Si Si3 0.695999 0.070539 0.264796
Si Si4 0.000000 0.571282 0.743828
Si Si5 0.400623 0.929917 0.327889
Si Si6 0.060032 0.071999 0.559649
Si Si7 0.099406 0.429715 0.937869
O O1 0.702560 0.250000 0.128098
O O2 0.750000 0.500000 0.110486
O O3 0.686022 0.475862 0.198909
O O4 0.650372 0.489592 0.094637
O O5 0.050150 0.987098 0.097919
O O6 0.000000 0.750000 0.138350
O O7 0.000000 0.997274 0.194575
O O8 0.697124 0.250000 0.273210
O O9 0.750000 0.000000 0.286049
O O10 0.651068 0.998689 0.302050
O O11 0.050627 0.515516 0.709840
O O12 0.000000 0.750000 0.751047
O O13 0.396752 0.750000 0.330020
O O14 0.406083 0.993885 0.391549
O O15 0.070781 0.250000 0.558516
O O16 0.000000 0.034643 0.571053
O O17 0.078209 0.000000 0.500000
O O18 0.099343 0.250000 0.943227
O O19 0.097153 0.500000 0.000000
#
# Coordination Sequence:
#
# PCOD8279966 Si02
#       7
#    16   8  16   8  16  16  16
#     4   9  19  35  54  76 103 132 169 215 266 319
#     4  10  21  37  55  73 101 136 173 216 264 318
#     4  10  20  36  57  81 108 143 183 225 273 327
#     4  10  22  35  52  81 113 142 176 220 273 322
#     4  11  21  35  54  81 116 148 182 227 271 321
#     4  10  20  34  54  80 112 151 190 228 272 320
#     4  10  21  36  53  75 100 132 171 214 261 316
#
# _framework density 18.040552000000002
#
# number of rings (size 3 to 8) (size 9 to 14) (size 15 to 20)
#    0.000    2.000    0.833    2.750    0.000    5.667 
#    0.000    1.667    0.000    0.500    0.000    3.500 
#    0.000    0.000    0.000    0.000    0.000    0.000 
#
# Total GULP energy -595402.615852 kJ/mol
# GULP energy per Si atom -12404.221164 kJ/mol
# Density = 1.799949 g / cm^3
# Si number density = 18.040552 Si / 1000 Ang^3
#
#
#
# Elastic Constant Matrix: (Units=GPa)
#
#
# Indices 1 2 3 4 5 6 
#
# 1 157.3792 46.8427 92.0384 0.0000 0.0000 0.0000
# 2 46.8427 56.5681 48.0969 0.0000 0.0000 0.0000
# 3 92.0384 48.0969 149.2227 0.0000 0.0000 0.0000
# 4 0.0000 0.0000 0.0000 33.6651 0.0000 0.0000
# 5 0.0000 0.0000 0.0000 0.0000 7.8242 0.0000
# 6 0.0000 0.0000 0.0000 0.0000 0.0000 30.4111
#
#
#
# Elastic Compliance Matrix: (Units=1/GPa)
#
#
# Indices 1 2 3 4 5 6 
#
# 1 0.010704 -0.004477 -0.005159 0.000000 0.000000 0.000000
# 2 -0.004477 0.026224 -0.005691 0.000000 0.000000 0.000000
# 3 -0.005159 -0.005691 0.011718 0.000000 0.000000 0.000000
# 4 0.000000 0.000000 0.000000 0.029704 0.000000 0.000000
# 5 0.000000 0.000000 0.000000 0.000000 0.127809 0.000000
# 6 0.000000 0.000000 0.000000 0.000000 0.000000 0.032883
#
#
# Mechanical properties :
#
#
# Convention : Reuss Voigt Hill
#
# Bulk Modulus (GPa) = 55.58233 81.90288 68.74260
# Shear Modulus (GPa) = 18.13616 26.12620 22.13118
#
# Velocity S-wave (km/s) = 3.17409 3.80964 3.50629
# Velocity P-wave (km/s) = 6.65655 8.05289 7.38778
#
# Compressibility (1/GPa) = 0.01799133
#
# Stress axis : x y z
#
# Youngs Moduli (GPa) = 93.42626 38.13303 85.34217
#
# Poissons Ratio (x) = 0.17073 0.44026
# Poissons Ratio (y) = 0.41829 0.48568
# Poissons Ratio (z) = 0.48196 0.21701
#
# Static dielectric constant tensor:
#      x y z
#    x 3.596260 0.000000 0.000000 
#    y 0.000000 3.299450 0.000000 
#    z 0.000000 0.000000 3.325220 
# 
# 
# High freq. dielectric constant tensor:
#      x y z
#    x 1.699980 0.000000 0.000000 
#    y 0.000000 1.701590 0.000000 
#    z 0.000000 0.000000 1.700920 
# 
# From -- ./inp_files/40820.got.cif
#   From: 2010.03.12/outbox.cif.g09.slc.cpg/sg67_21_cif.got.tgz:40820.got - 2010.04.10 22:41:39.
