data_PCOD8279273
_publ_section_title
;
Structure prediction by ZEFSAII (Michael W. Deem and Ramdas Pophale) SiO2 
 PCOD8279273
Probable space group: C M M A
;
_chemical_formula_sum "Si O2"
_cell_formula_units_Z 80
_cell_length_a 8.931334
_cell_length_b 25.988457
_cell_length_c 18.315776
_cell_angle_alpha 90.000000
_cell_angle_beta 90.000000
_cell_angle_gamma 90.000000
_cell_volume 4251.303882
_symmetry_space_group_name_H-M "C M M A"
_symmetry_group_IT_number 67
_symmetry_cell_setting 'orthorhombic'
loop_
_space_group_symop_operation_xyz
x,y,z
-x,1/2-y,z
x,-y,-z
-x,1/2+y,-z
-x,-y,-z
x,1/2+y,-z
-x,y,z
x,1/2-y,z
1/2+x,1/2+y,z
1/2-x,-y,z
1/2+x,1/2-y,-z
1/2-x,y,-z
1/2-x,1/2-y,-z
1/2+x,y,-z
1/2-x,1/2+y,z
1/2+x,-y,z
loop_
_atom_site_type_symbol
_atom_site_label
_atom_site_fract_x
_atom_site_fract_y
_atom_site_fract_z
Si Si1 0.822453 0.250000 0.578540
Si Si2 0.667190 0.549972 0.333021
Si Si3 0.174189 0.152280 0.669012
Si Si4 0.669989 0.551050 0.159177
Si Si5 0.321411 0.750000 0.079071
Si Si6 0.676097 0.344356 0.161208
O O1 0.750000 0.250000 0.500000
O O2 0.766048 0.299677 0.622754
O O3 0.000000 0.250000 0.571443
O O4 0.500000 0.549221 0.363709
O O5 0.750000 0.500000 0.365110
O O6 0.744994 0.601671 0.361532
O O7 0.670405 0.548580 0.246033
O O8 0.210424 0.162732 0.753427
O O9 0.000000 0.143023 0.657697
O O10 0.500000 0.554087 0.129460
O O11 0.750000 0.500000 0.127332
O O12 0.763510 0.600659 0.132810
O O13 0.500000 0.750000 0.073984
O O14 0.266643 0.800448 0.120551
O O15 0.250000 0.750000 0.000000
O O16 0.500000 0.340049 0.144126
#
# Coordination Sequence:
#
# PCOD8279273 Si02
#       6
#     8  16  16  16   8  16
#     4  10  21  36  52  72 100 136 173 212 258 308
#     4   9  16  26  44  72 104 134 166 205 252 301
#     4   9  18  33  53  76 104 136 171 210 255 305
#     4   9  16  27  45  74 108 139 170 208 253 302
#     4  12  25  40  56  76 104 138 175 216 260 310
#     4  10  19  34  56  80 105 136 173 215 260 307
#
# _framework density 18.817757
#
# number of rings (size 3 to 8) (size 9 to 14) (size 15 to 20)
#    0.000    2.400    0.000    3.300    0.000    8.000 
#    0.000    1.000    0.000    1.200    0.000    8.400 
#    0.000    0.000    0.000    0.000    0.000    0.000 
#
# Total GULP energy -496026.353701 kJ/mol
# GULP energy per Si atom -12400.658843 kJ/mol
# Density = 1.877493 g / cm^3
# Si number density = 18.817757 Si / 1000 Ang^3
#
#
#
# Elastic Constant Matrix: (Units=GPa)
#
#
# Indices 1 2 3 4 5 6 
#
# 1 130.5584 92.0676 44.9222 0.0000 0.0000 0.0000
# 2 92.0676 209.6800 58.4561 0.0000 0.0000 0.0000
# 3 44.9222 58.4561 49.9752 0.0000 0.0000 0.0000
# 4 0.0000 0.0000 0.0000 -3.7227 0.0000 0.0000
# 5 0.0000 0.0000 0.0000 0.0000 21.6777 0.0000
# 6 0.0000 0.0000 0.0000 0.0000 0.0000 42.8629
#
#
#
# Elastic Compliance Matrix: (Units=1/GPa)
#
#
# Indices 1 2 3 4 5 6 
#
# 1 0.012638 -0.003535 -0.007226 0.000000 0.000000 0.000000
# 2 -0.003535 0.008066 -0.006257 0.000000 0.000000 0.000000
# 3 -0.007226 -0.006257 0.033824 0.000000 0.000000 0.000000
# 4 0.000000 0.000000 0.000000 -0.268622 0.000000 0.000000
# 5 0.000000 0.000000 0.000000 0.000000 0.046130 0.000000
# 6 0.000000 0.000000 0.000000 0.000000 0.000000 0.023330
#
#
# Mechanical properties :
#
#
# Convention : Reuss Voigt Hill
#
# Bulk Modulus (GPa) = 48.79778 86.78950 67.79364
# Shear Modulus (GPa) = -48.18480 25.14810 -11.51835
#
# Velocity S-wave (km/s) = -5.06573 3.65965 -2.47675
# Velocity P-wave (km/s) = 2.86835 8.00491 5.28447
#
# Compressibility (1/GPa) = 0.02049274
#
# Stress axis : x y z
#
# Youngs Moduli (GPa) = 79.12412 123.98260 29.56493
#
# Poissons Ratio (x) = 0.43826 0.21363
# Poissons Ratio (y) = 0.27970 0.18499
# Poissons Ratio (z) = 0.57173 0.77575
#
# Static dielectric constant tensor:
#      x y z
#    x 3.584460 0.000000 0.000000 
#    y 0.000000 3.753410 0.000000 
#    z 0.000000 0.000000 3.111850 
# 
# 
# High freq. dielectric constant tensor:
#      x y z
#    x 1.741340 0.000000 0.000000 
#    y 0.000000 1.753310 0.000000 
#    z 0.000000 0.000000 1.676810 
# 
# From -- ./inp_files/32195.got.cif
#   From: 2010.03.12/outbox.cif.g09.slc.cpg/sg67_17_cif.got.tgz:32195.got - 2010.04.10 22:41:39.
