data_PCOD8279512
_publ_section_title
;
Structure prediction by ZEFSAII (Michael W. Deem and Ramdas Pophale) SiO2 
 PCOD8279512
Probable space group: C M M A
;
_chemical_formula_sum "Si O2"
_cell_formula_units_Z 88
_cell_length_a 9.768639
_cell_length_b 25.965924
_cell_length_c 21.106056
_cell_angle_alpha 90.000000
_cell_angle_beta 90.000000
_cell_angle_gamma 90.000000
_cell_volume 5353.587784
_symmetry_space_group_name_H-M "C M M A"
_symmetry_group_IT_number 67
_symmetry_cell_setting 'orthorhombic'
loop_
_space_group_symop_operation_xyz
x,y,z
-x,1/2-y,z
x,-y,-z
-x,1/2+y,-z
-x,-y,-z
x,1/2+y,-z
-x,y,z
x,1/2-y,z
1/2+x,1/2+y,z
1/2-x,-y,z
1/2+x,1/2-y,-z
1/2-x,y,-z
1/2-x,1/2-y,-z
1/2+x,y,-z
1/2-x,1/2+y,z
1/2+x,-y,z
loop_
_atom_site_type_symbol
_atom_site_label
_atom_site_fract_x
_atom_site_fract_y
_atom_site_fract_z
Si Si1 0.843269 0.811053 0.442865
Si Si2 0.350330 0.193220 0.094625
Si Si3 0.842562 0.354369 0.192086
Si Si4 0.750000 0.386620 0.000000
Si Si5 0.843249 0.809777 0.674067
Si Si6 0.346227 0.451273 0.885574
O O1 0.850285 0.750000 0.448739
O O2 0.750000 0.833433 0.500000
O O3 0.765182 0.827359 0.378829
O O4 0.000000 0.833020 0.444210
O O5 0.500000 0.190023 0.126216
O O6 0.324942 0.250000 0.065205
O O7 0.241695 0.185246 0.149976
O O8 0.348774 0.150462 0.039768
O O9 0.810106 0.345500 0.265715
O O10 0.806162 0.412886 0.171949
O O11 0.000000 0.342513 0.177010
O O12 0.836694 0.422390 0.047087
O O13 0.822615 0.750000 0.692312
O O14 0.000000 0.818409 0.650383
O O15 0.500000 0.471590 0.877658
O O16 0.250000 0.500000 0.882310
#
# Coordination Sequence:
#
# PCOD8279512 Si02
#       6
#    16  16  16   8  16  16
#     4   9  16  25  38  59  89 124 159 190 217 246
#     4  10  20  32  47  68  92 117 147 184 223 264
#     4   9  19  34  49  66  89 119 152 184 224 275
#     4  10  20  34  50  66  88 116 148 180 222 276
#     4   9  16  27  44  64  88 120 154 184 215 254
#     4  10  21  35  51  68  86 110 143 185 232 279
#
# _framework density 16.437574999999999
#
# number of rings (size 3 to 8) (size 9 to 14) (size 15 to 20)
#    0.000    2.545    0.000    2.182    0.000    9.091 
#    0.000    1.818    0.000    0.000    0.000    0.000 
#    0.000    0.727    0.000    8.364    0.000    2.909 
#
# Total GULP energy -545409.242661 kJ/mol
# GULP energy per Si atom -12395.664606 kJ/mol
# Density = 1.640016 g / cm^3
# Si number density = 16.437575 Si / 1000 Ang^3
#
#
#
# Elastic Constant Matrix: (Units=GPa)
#
#
# Indices 1 2 3 4 5 6 
#
# 1 112.6809 51.2018 64.9982 0.0000 0.0000 0.0000
# 2 51.2018 80.8123 44.1574 0.0000 0.0000 0.0000
# 3 64.9982 44.1574 114.5278 0.0000 0.0000 0.0000
# 4 0.0000 0.0000 0.0000 10.8732 0.0000 0.0000
# 5 0.0000 0.0000 0.0000 0.0000 26.3236 0.0000
# 6 0.0000 0.0000 0.0000 0.0000 0.0000 22.9045
#
#
#
# Elastic Compliance Matrix: (Units=1/GPa)
#
#
# Indices 1 2 3 4 5 6 
#
# 1 0.015366 -0.006297 -0.006293 0.000000 0.000000 0.000000
# 2 -0.006297 0.018258 -0.003466 0.000000 0.000000 0.000000
# 3 -0.006293 -0.003466 0.013639 0.000000 0.000000 0.000000
# 4 0.000000 0.000000 0.000000 0.091969 0.000000 0.000000
# 5 0.000000 0.000000 0.000000 0.000000 0.037989 0.000000
# 6 0.000000 0.000000 0.000000 0.000000 0.000000 0.043660
#
#
# Mechanical properties :
#
#
# Convention : Reuss Voigt Hill
#
# Bulk Modulus (GPa) = 65.99913 69.85954 67.92933
# Shear Modulus (GPa) = 19.37668 21.86450 20.62059
#
# Velocity S-wave (km/s) = 3.43710 3.65108 3.54570
# Velocity P-wave (km/s) = 7.48265 7.76956 7.62745
#
# Compressibility (1/GPa) = 0.01515172
#
# Stress axis : x y z
#
# Youngs Moduli (GPa) = 65.07919 54.77077 73.31906
#
# Poissons Ratio (x) = 0.34490 0.46137
# Poissons Ratio (y) = 0.40982 0.25410
# Poissons Ratio (z) = 0.40952 0.18982
#
# Static dielectric constant tensor:
#      x y z
#    x 3.230960 0.000000 0.000000 
#    y 0.000000 2.892730 0.000000 
#    z 0.000000 0.000000 3.089540 
# 
# 
# High freq. dielectric constant tensor:
#      x y z
#    x 1.646150 0.000000 0.000000 
#    y 0.000000 1.595620 0.000000 
#    z 0.000000 0.000000 1.622100 
# 
# From -- ./inp_files/37414.got.cif
#   From: 2010.03.12/outbox.cif.g09.slc.cpg/sg67_19_cif.got.tgz:37414.got - 2010.04.10 22:41:39.
