data_PCOD8279650
_publ_section_title
;
Structure prediction by ZEFSAII (Michael W. Deem and Ramdas Pophale) SiO2 
 PCOD8279650
Probable space group: C M M A
;
_chemical_formula_sum "Si O2"
_cell_formula_units_Z 72
_cell_length_a 9.417642
_cell_length_b 26.162589
_cell_length_c 15.845396
_cell_angle_alpha 90.000000
_cell_angle_beta 90.000000
_cell_angle_gamma 90.000000
_cell_volume 3904.145488
_symmetry_space_group_name_H-M "C M M A"
_symmetry_group_IT_number 67
_symmetry_cell_setting 'orthorhombic'
loop_
_space_group_symop_operation_xyz
x,y,z
-x,1/2-y,z
x,-y,-z
-x,1/2+y,-z
-x,-y,-z
x,1/2+y,-z
-x,y,z
x,1/2-y,z
1/2+x,1/2+y,z
1/2-x,-y,z
1/2+x,1/2-y,-z
1/2-x,y,-z
1/2-x,1/2-y,-z
1/2+x,y,-z
1/2-x,1/2+y,z
1/2+x,-y,z
loop_
_atom_site_type_symbol
_atom_site_label
_atom_site_fract_x
_atom_site_fract_y
_atom_site_fract_z
Si Si1 0.157906 0.050116 0.654161
Si Si2 0.845758 0.693433 0.625933
Si Si3 0.250000 0.385448 0.500000
Si Si4 0.667168 0.354912 0.236262
Si Si5 0.834179 0.691202 0.914045
O O1 0.164950 0.078759 0.564458
O O2 0.199347 0.087827 0.730894
O O3 0.000000 0.030252 0.666780
O O4 0.250000 0.000000 0.656989
O O5 0.822734 0.750000 0.587498
O O6 0.854169 0.651811 0.551442
O O7 0.719288 0.683941 0.691678
O O8 0.000000 0.690411 0.672172
O O9 0.500000 0.345691 0.219730
O O10 0.758818 0.345898 0.152743
O O11 0.819171 0.750000 0.884401
O O12 0.000000 0.676516 0.925236
O O13 0.750000 0.682274 0.000000
#
# Coordination Sequence:
#
# PCOD8279650 Si02
#       5
#    16  16   8  16  16
#     4  10  22  37  54  75  99 131 173 221 270 316
#     4  10  20  33  50  73 103 140 179 216 257 310
#     4  10  20  34  52  74 102 134 174 220 268 314
#     4  10  21  36  53  76 106 139 175 215 261 310
#     4  10  20  34  55  84 115 145 175 206 245 297
#
# _framework density 18.441935999999998
#
# number of rings (size 3 to 8) (size 9 to 14) (size 15 to 20)
#    0.000    2.000    0.000    3.333    0.000   11.556 
#    0.000    0.000    0.000    0.667    0.000    4.667 
#    0.000    0.000    0.000    0.000    0.000    0.000 
#
# Total GULP energy -446242.289424 kJ/mol
# GULP energy per Si atom -12395.619151 kJ/mol
# Density = 1.839996 g / cm^3
# Si number density = 18.441936 Si / 1000 Ang^3
#
#
#
# Elastic Constant Matrix: (Units=GPa)
#
#
# Indices 1 2 3 4 5 6 
#
# 1 131.7358 71.3494 64.2745 0.0000 0.0000 0.0000
# 2 71.3494 128.2236 58.1510 0.0000 0.0000 0.0000
# 3 64.2745 58.1510 107.3952 0.0000 0.0000 0.0000
# 4 0.0000 0.0000 0.0000 15.7587 0.0000 0.0000
# 5 0.0000 0.0000 0.0000 0.0000 30.5678 0.0000
# 6 0.0000 0.0000 0.0000 0.0000 0.0000 358.8416
#
#
#
# Elastic Compliance Matrix: (Units=1/GPa)
#
#
# Indices 1 2 3 4 5 6 
#
# 1 0.012585 -0.004754 -0.004957 0.000000 0.000000 0.000000
# 2 -0.004754 0.012134 -0.003724 0.000000 0.000000 0.000000
# 3 -0.004957 -0.003724 0.014295 0.000000 0.000000 0.000000
# 4 0.000000 0.000000 0.000000 0.063457 0.000000 0.000000
# 5 0.000000 0.000000 0.000000 0.000000 0.032714 0.000000
# 6 0.000000 0.000000 0.000000 0.000000 0.000000 0.002787
#
#
# Mechanical properties :
#
#
# Convention : Reuss Voigt Hill
#
# Bulk Modulus (GPa) = 82.36773 83.87826 83.12300
# Shear Modulus (GPa) = 29.60489 92.60558 61.10523
#
# Velocity S-wave (km/s) = 4.01097 7.09392 5.76245
# Velocity P-wave (km/s) = 8.13700 10.61505 9.45754
#
# Compressibility (1/GPa) = 0.01214068
#
# Stress axis : x y z
#
# Youngs Moduli (GPa) = 79.46115 82.41598 69.95456
#
# Poissons Ratio (x) = 0.39185 0.34679
# Poissons Ratio (y) = 0.37780 0.26054
# Poissons Ratio (z) = 0.39392 0.30695
#
# Static dielectric constant tensor:
#      x y z
#    x 3.519150 0.000000 0.000000 
#    y 0.000000 3.350740 0.000000 
#    z 0.000000 0.000000 3.318810 
# 
# 
# High freq. dielectric constant tensor:
#      x y z
#    x 1.729740 0.000000 0.000000 
#    y 0.000000 1.706160 0.000000 
#    z 0.000000 0.000000 1.701320 
# 
# From -- ./inp_files/25092.got.cif
#   From: 2010.03.12/outbox.cif.g09.slc.cpg/sg67_13_cif.got.tgz:25092.got - 2010.04.10 22:41:39.
