data_PCOD8279616
_publ_section_title
;
Structure prediction by ZEFSAII (Michael W. Deem and Ramdas Pophale) SiO2 
 PCOD8279616
Probable space group: C M M A
;
_chemical_formula_sum "Si O2"
_cell_formula_units_Z 96
_cell_length_a 9.068626
_cell_length_b 23.898045
_cell_length_c 26.027164
_cell_angle_alpha 90.000000
_cell_angle_beta 90.000000
_cell_angle_gamma 90.000000
_cell_volume 5640.670286
_symmetry_space_group_name_H-M "C M M A"
_symmetry_group_IT_number 67
_symmetry_cell_setting 'orthorhombic'
loop_
_space_group_symop_operation_xyz
x,y,z
-x,1/2-y,z
x,-y,-z
-x,1/2+y,-z
-x,-y,-z
x,1/2+y,-z
-x,y,z
x,1/2-y,z
1/2+x,1/2+y,z
1/2-x,-y,z
1/2+x,1/2-y,-z
1/2-x,y,-z
1/2-x,1/2-y,-z
1/2+x,y,-z
1/2-x,1/2+y,z
1/2+x,-y,z
loop_
_atom_site_type_symbol
_atom_site_label
_atom_site_fract_x
_atom_site_fract_y
_atom_site_fract_z
Si Si1 0.325960 0.440624 0.148579
Si Si2 0.176009 0.750000 0.212299
Si Si3 0.327939 0.559692 0.547470
Si Si4 0.175219 0.631013 0.245215
Si Si5 0.328030 0.940830 0.660621
Si Si6 0.824692 0.250000 0.903616
Si Si7 0.326021 0.866646 0.947878
O O1 0.500000 0.448933 0.151673
O O2 0.250000 0.500000 0.150424
O O3 0.267825 0.404260 0.196541
O O4 0.279256 0.409463 0.096540
O O5 0.235370 0.694629 0.241455
O O6 0.237954 0.750000 0.154253
O O7 0.000000 0.750000 0.210773
O O8 0.500000 0.553485 0.535347
O O9 0.250000 0.500000 0.549557
O O10 0.250000 0.593756 0.500000
O O11 0.301648 0.586498 0.603899
O O12 0.234728 0.602999 0.297707
O O13 0.000000 0.632220 0.244887
O O14 0.500000 0.952285 0.669537
O O15 0.250000 0.000000 0.667884
O O16 0.767265 0.304850 0.933202
O O17 0.000000 0.250000 0.900737
O O18 0.500000 0.866213 0.955868
O O19 0.250000 0.887079 0.000000
#
# Coordination Sequence:
#
# PCOD8279616 Si02
#       7
#    16   8  16  16  16   8  16
#     4  10  20  33  49  68  91 119 149 179 215 264
#     4   9  14  25  49  72  89 111 141 182 227 264
#     4   9  15  23  36  56  85 118 150 182 214 252
#     4   9  16  28  46  69  92 114 144 183 225 265
#     4   9  17  27  41  65  94 120 148 182 219 261
#     4   9  15  29  50  72  92 111 141 182 225 266
#     4  10  20  33  50  71  92 115 146 182 220 264
#
# _framework density 17.019254
#
# number of rings (size 3 to 8) (size 9 to 14) (size 15 to 20)
#    0.000    2.667    1.667    1.750    0.000    1.667 
#    0.000    1.667    0.000    0.000    0.000    2.917 
#    0.000    0.000    0.000    0.000    0.000    0.000 
#
# Total GULP energy -594889.027160 kJ/mol
# GULP energy per Si atom -12393.521399 kJ/mol
# Density = 1.698052 g / cm^3
# Si number density = 17.019254 Si / 1000 Ang^3
#
#
#
# Elastic Constant Matrix: (Units=GPa)
#
#
# Indices 1 2 3 4 5 6 
#
# 1 33.5653 24.1501 37.1977 0.0000 0.0000 0.0000
# 2 24.1501 122.5765 73.2384 0.0000 0.0000 0.0000
# 3 37.1977 73.2384 176.5827 0.0000 0.0000 0.0000
# 4 0.0000 0.0000 0.0000 15.6528 0.0000 0.0000
# 5 0.0000 0.0000 0.0000 0.0000 17.7581 0.0000
# 6 0.0000 0.0000 0.0000 0.0000 0.0000 17.2901
#
#
#
# Elastic Compliance Matrix: (Units=1/GPa)
#
#
# Indices 1 2 3 4 5 6 
#
# 1 0.040154 -0.003799 -0.006883 0.000000 0.000000 0.000000
# 2 -0.003799 0.011205 -0.003847 0.000000 0.000000 0.000000
# 3 -0.006883 -0.003847 0.008709 0.000000 0.000000 0.000000
# 4 0.000000 0.000000 0.000000 0.063886 0.000000 0.000000
# 5 0.000000 0.000000 0.000000 0.000000 0.056312 0.000000
# 6 0.000000 0.000000 0.000000 0.000000 0.000000 0.057836
#
#
# Mechanical properties :
#
#
# Convention : Reuss Voigt Hill
#
# Bulk Modulus (GPa) = 32.24775 66.87746 49.56260
# Shear Modulus (GPa) = 18.01820 23.34941 20.68380
#
# Velocity S-wave (km/s) = 3.25729 3.70799 3.48992
# Velocity P-wave (km/s) = 5.75635 7.59689 6.73974
#
# Compressibility (1/GPa) = 0.03100992
#
# Stress axis : x y z
#
# Youngs Moduli (GPa) = 24.90431 89.24370 114.82813
#
# Poissons Ratio (x) = 0.33900 0.79037
# Poissons Ratio (y) = 0.09460 0.44177
# Poissons Ratio (z) = 0.17142 0.34334
#
# Static dielectric constant tensor:
#      x y z
#    x 2.865190 0.000000 0.000000 
#    y 0.000000 3.135090 0.000000 
#    z 0.000000 0.000000 3.922520 
# 
# 
# High freq. dielectric constant tensor:
#      x y z
#    x 1.622840 0.000000 0.000000 
#    y 0.000000 1.630300 0.000000 
#    z 0.000000 0.000000 1.674700 
# 
# From -- ./inp_files/43699.got.cif
#   From: 2010.03.12/outbox.cif.g09.slc.cpg/sg67_22_cif.got.tgz:43699.got - 2010.04.10 22:41:39.
