data_PCOD8279916
_publ_section_title
;
Structure prediction by ZEFSAII (Michael W. Deem and Ramdas Pophale) SiO2 
 PCOD8279916
Probable space group: C M M A
;
_chemical_formula_sum "Si O2"
_cell_formula_units_Z 96
_cell_length_a 8.857554
_cell_length_b 18.191568
_cell_length_c 31.115495
_cell_angle_alpha 90.000000
_cell_angle_beta 90.000000
_cell_angle_gamma 90.000000
_cell_volume 5013.726705
_symmetry_space_group_name_H-M "C M M A"
_symmetry_group_IT_number 67
_symmetry_cell_setting 'orthorhombic'
loop_
_space_group_symop_operation_xyz
x,y,z
-x,1/2-y,z
x,-y,-z
-x,1/2+y,-z
-x,-y,-z
x,1/2+y,-z
-x,y,z
x,1/2-y,z
1/2+x,1/2+y,z
1/2-x,-y,z
1/2+x,1/2-y,-z
1/2-x,y,-z
1/2-x,1/2-y,-z
1/2+x,y,-z
1/2-x,1/2+y,z
1/2+x,-y,z
loop_
_atom_site_type_symbol
_atom_site_label
_atom_site_fract_x
_atom_site_fract_y
_atom_site_fract_z
Si Si1 0.678798 0.420292 0.207305
Si Si2 0.329885 0.337422 0.042600
Si Si3 0.320716 0.920599 0.626927
Si Si4 0.321877 0.166228 0.456272
Si Si5 0.820534 0.332506 0.709726
Si Si6 0.825789 0.163345 0.129740
O O1 0.500000 0.427737 0.207799
O O2 0.750000 0.500000 0.207490
O O3 0.739165 0.376719 0.248973
O O4 0.727601 0.376322 0.165447
O O5 0.500000 0.368526 0.045566
O O6 0.333047 0.250000 0.040405
O O7 0.234554 0.363802 0.083660
O O8 0.250000 0.369461 0.000000
O O9 0.500000 0.927149 0.627521
O O10 0.262908 0.882350 0.583309
O O11 0.261752 0.872263 0.666796
O O12 0.250000 0.000000 0.630817
O O13 0.500000 0.161280 0.460540
O O14 0.269225 0.250000 0.448402
O O15 0.250000 0.134704 0.500000
O O16 0.753889 0.250000 0.711032
O O17 0.000000 0.329433 0.709816
O O18 0.803112 0.250000 0.135250
O O19 0.000000 0.140521 0.133966
#
# Coordination Sequence:
#
# PCOD8279916 Si02
#       6
#    16  16  16  16  16  16
#     4  11  22  36  55  78 106 139 175 216 264 318
#     4   9  16  27  46  74 107 141 178 221 268 315
#     4  10  20  34  53  77 106 138 172 212 259 313
#     4   9  18  33  53  75 100 134 176 219 261 306
#     4   9  18  34  57  81 103 132 173 217 260 311
#     4  10  20  34  53  78 108 141 179 223 268 315
#
# _framework density 19.147434000000001
#
# number of rings (size 3 to 8) (size 9 to 14) (size 15 to 20)
#    0.000    2.333    0.000    3.000    0.000    6.667 
#    0.000    2.500    0.000    4.000    0.000    3.500 
#    0.000    0.000    0.000    0.000    0.000    0.000 
#
# Total GULP energy -595293.767616 kJ/mol
# GULP energy per Si atom -12401.953492 kJ/mol
# Density = 1.910385 g / cm^3
# Si number density = 19.147434 Si / 1000 Ang^3
#
#
#
# Elastic Constant Matrix: (Units=GPa)
#
#
# Indices 1 2 3 4 5 6 
#
# 1 59.6329 29.7277 38.0391 0.0000 0.0000 0.0000
# 2 29.7277 70.1213 61.2637 0.0000 0.0000 0.0000
# 3 38.0391 61.2637 179.0947 0.0000 0.0000 0.0000
# 4 0.0000 0.0000 0.0000 3.6232 0.0000 0.0000
# 5 0.0000 0.0000 0.0000 0.0000 27.3515 0.0000
# 6 0.0000 0.0000 0.0000 0.0000 0.0000 24.2628
#
#
#
# Elastic Compliance Matrix: (Units=1/GPa)
#
#
# Indices 1 2 3 4 5 6 
#
# 1 0.021801 -0.007412 -0.002095 0.000000 0.000000 0.000000
# 2 -0.007412 0.022860 -0.006246 0.000000 0.000000 0.000000
# 3 -0.002095 -0.006246 0.008165 0.000000 0.000000 0.000000
# 4 0.000000 0.000000 0.000000 0.275996 0.000000 0.000000
# 5 0.000000 0.000000 0.000000 0.000000 0.036561 0.000000
# 6 0.000000 0.000000 0.000000 0.000000 0.000000 0.041215
#
#
# Mechanical properties :
#
#
# Convention : Reuss Voigt Hill
#
# Bulk Modulus (GPa) = 46.90291 62.98999 54.94645
# Shear Modulus (GPa) = 11.23068 23.03541 17.13304
#
# Velocity S-wave (km/s) = 2.42448 3.47227 2.99456
# Velocity P-wave (km/s) = 5.69090 7.00317 6.38086
#
# Compressibility (1/GPa) = 0.02132064
#
# Stress axis : x y z
#
# Youngs Moduli (GPa) = 45.87045 43.74479 122.47372
#
# Poissons Ratio (x) = 0.32424 0.25657
# Poissons Ratio (y) = 0.33999 0.76491
# Poissons Ratio (z) = 0.09609 0.27321
#
# Static dielectric constant tensor:
#      x y z
#    x 3.362960 0.000000 0.000000 
#    y 0.000000 3.383720 0.000000 
#    z 0.000000 0.000000 3.796070 
# 
# 
# High freq. dielectric constant tensor:
#      x y z
#    x 1.730610 0.000000 0.000000 
#    y 0.000000 1.727840 0.000000 
#    z 0.000000 0.000000 1.764960 
# 
# From -- ./inp_files/43492.got.cif
#   From: 2010.03.12/outbox.cif.g09.slc.cpg/sg67_22_cif.got.tgz:43492.got - 2010.04.10 22:41:39.
