data_PCOD8279145
_publ_section_title
;
Structure prediction by ZEFSAII (Michael W. Deem and Ramdas Pophale) SiO2 
 PCOD8279145
Probable space group: C M M A
;
_chemical_formula_sum "Si O2"
_cell_formula_units_Z 80
_cell_length_a 8.918650
_cell_length_b 18.516203
_cell_length_c 25.894619
_cell_angle_alpha 90.000000
_cell_angle_beta 90.000000
_cell_angle_gamma 90.000000
_cell_volume 4276.225312
_symmetry_space_group_name_H-M "C M M A"
_symmetry_group_IT_number 67
_symmetry_cell_setting 'orthorhombic'
loop_
_space_group_symop_operation_xyz
x,y,z
-x,1/2-y,z
x,-y,-z
-x,1/2+y,-z
-x,-y,-z
x,1/2+y,-z
-x,y,z
x,1/2-y,z
1/2+x,1/2+y,z
1/2-x,-y,z
1/2+x,1/2-y,-z
1/2-x,y,-z
1/2-x,1/2-y,-z
1/2+x,y,-z
1/2-x,1/2+y,z
1/2+x,-y,z
loop_
_atom_site_type_symbol
_atom_site_label
_atom_site_fract_x
_atom_site_fract_y
_atom_site_fract_z
Si Si1 0.678930 0.576927 0.053116
Si Si2 0.677601 0.330581 0.849366
Si Si3 0.322742 0.333201 0.337115
Si Si4 0.178012 0.922138 0.752348
Si Si5 0.335866 0.664550 0.548654
O O1 0.500000 0.569553 0.047914
O O2 0.750000 0.500000 0.067099
O O3 0.728347 0.631953 0.097645
O O4 0.750000 0.606512 0.000000
O O5 0.500000 0.326833 0.846635
O O6 0.746443 0.250000 0.847566
O O7 0.738345 0.375444 0.800618
O O8 0.500000 0.347651 0.332062
O O9 0.286730 0.250000 0.323864
O O10 0.229532 0.384219 0.299912
O O11 0.265018 0.352310 0.395134
O O12 0.000000 0.929616 0.752589
O O13 0.250000 0.000000 0.756999
O O14 0.500000 0.630002 0.546962
O O15 0.345953 0.750000 0.541814
O O16 0.250000 0.629562 0.500000
#
# Coordination Sequence:
#
# PCOD8279145 Si02
#       5
#    16  16  16  16  16
#     4  10  19  33  54  77 105 138 171 208 248 296
#     4   9  19  35  54  77 104 133 167 211 260 305
#     4   9  18  33  52  76 107 138 169 211 260 305
#     4  11  22  36  55  76 101 135 175 215 258 312
#     4   8  14  25  43  69 101 134 166 203 248 298
#
# _framework density 18.708086999999999
#
# number of rings (size 3 to 8) (size 9 to 14) (size 15 to 20)
#    0.000    2.600    0.000    4.200    0.000    2.400 
#    0.000    5.000    0.000    7.200    0.000    4.200 
#    0.000    0.000    0.000    0.000    0.000    0.000 
#
# Total GULP energy -495846.686529 kJ/mol
# GULP energy per Si atom -12396.167163 kJ/mol
# Density = 1.866551 g / cm^3
# Si number density = 18.708087 Si / 1000 Ang^3
#
#
#
# Elastic Constant Matrix: (Units=GPa)
#
#
# Indices 1 2 3 4 5 6 
#
# 1 64.6966 40.9395 51.0469 0.0000 0.0000 0.0000
# 2 40.9395 119.7945 90.6429 0.0000 0.0000 0.0000
# 3 51.0469 90.6429 177.0298 0.0000 0.0000 0.0000
# 4 0.0000 0.0000 0.0000 11.7951 0.0000 0.0000
# 5 0.0000 0.0000 0.0000 0.0000 24.3849 0.0000
# 6 0.0000 0.0000 0.0000 0.0000 0.0000 12.0424
#
#
#
# Elastic Compliance Matrix: (Units=1/GPa)
#
#
# Indices 1 2 3 4 5 6 
#
# 1 0.021281 -0.004293 -0.003938 0.000000 0.000000 0.000000
# 2 -0.004293 0.014493 -0.006183 0.000000 0.000000 0.000000
# 3 -0.003938 -0.006183 0.009950 0.000000 0.000000 0.000000
# 4 0.000000 0.000000 0.000000 0.084781 0.000000 0.000000
# 5 0.000000 0.000000 0.000000 0.000000 0.041009 0.000000
# 6 0.000000 0.000000 0.000000 0.000000 0.000000 0.083040
#
#
# Mechanical properties :
#
#
# Convention : Reuss Voigt Hill
#
# Bulk Modulus (GPa) = 59.18596 80.75327 69.96961
# Shear Modulus (GPa) = 17.30023 21.57058 19.43540
#
# Velocity S-wave (km/s) = 3.04426 3.39928 3.22666
# Velocity P-wave (km/s) = 6.63792 7.65934 7.16685
#
# Compressibility (1/GPa) = 0.01689590
#
# Stress axis : x y z
#
# Youngs Moduli (GPa) = 46.99126 68.99918 100.50071
#
# Poissons Ratio (x) = 0.29619 0.39581
# Poissons Ratio (y) = 0.20171 0.62139
# Poissons Ratio (z) = 0.18507 0.42661
#
# Static dielectric constant tensor:
#      x y z
#    x 3.365400 0.000000 0.000000 
#    y 0.000000 3.303820 0.000000 
#    z 0.000000 0.000000 3.733670 
# 
# 
# High freq. dielectric constant tensor:
#      x y z
#    x 1.709000 0.000000 0.000000 
#    y 0.000000 1.704000 0.000000 
#    z 0.000000 0.000000 1.747070 
# 
# From -- ./inp_files/43203.got.cif
#   From: 2010.03.12/outbox.cif.g09.slc.cpg/sg67_22_cif.got.tgz:43203.got - 2010.04.10 22:41:39.
