data_PCOD8279488
_publ_section_title
;
Structure prediction by ZEFSAII (Michael W. Deem and Ramdas Pophale) SiO2 
 PCOD8279488
Probable space group: C M M A
;
_chemical_formula_sum "Si O2"
_cell_formula_units_Z 96
_cell_length_a 8.970178
_cell_length_b 26.102055
_cell_length_c 25.088709
_cell_angle_alpha 90.000000
_cell_angle_beta 90.000000
_cell_angle_gamma 90.000000
_cell_volume 5874.272320
_symmetry_space_group_name_H-M "C M M A"
_symmetry_group_IT_number 67
_symmetry_cell_setting 'orthorhombic'
loop_
_space_group_symop_operation_xyz
x,y,z
-x,1/2-y,z
x,-y,-z
-x,1/2+y,-z
-x,-y,-z
x,1/2+y,-z
-x,y,z
x,1/2-y,z
1/2+x,1/2+y,z
1/2-x,-y,z
1/2+x,1/2-y,-z
1/2-x,y,-z
1/2-x,1/2-y,-z
1/2+x,y,-z
1/2-x,1/2+y,z
1/2+x,-y,z
loop_
_atom_site_type_symbol
_atom_site_label
_atom_site_fract_x
_atom_site_fract_y
_atom_site_fract_z
Si Si1 0.662010 0.308231 0.951847
Si Si2 0.668319 0.311118 0.552773
Si Si3 0.823127 0.946678 0.055889
Si Si4 0.832880 0.689365 0.342918
Si Si5 0.674354 0.855814 0.863549
Si Si6 0.676331 0.809219 0.234466
O O1 0.500000 0.335074 0.944265
O O2 0.634293 0.250000 0.967720
O O3 0.760317 0.309641 0.898724
O O4 0.750000 0.336312 0.000000
O O5 0.500000 0.332145 0.553255
O O6 0.668528 0.250000 0.553480
O O7 0.750000 0.331843 0.500000
O O8 0.753966 0.333182 0.604398
O O9 0.785593 0.907550 0.104057
O O10 0.000000 0.952499 0.048031
O O11 0.750000 0.000000 0.073841
O O12 0.750000 0.928611 0.000000
O O13 0.840207 0.750000 0.347754
O O14 0.736624 0.673398 0.291798
O O15 0.000000 0.666751 0.338206
O O16 0.500000 0.849069 0.854960
O O17 0.753799 0.850174 0.806629
O O18 0.500000 0.814908 0.233691
O O19 0.722531 0.750000 0.221890
#
# Coordination Sequence:
#
# PCOD8279488 Si02
#       6
#    16  16  16  16  16  16
#     4  10  20  32  45  62  84 110 138 167 201 241
#     4   9  15  22  33  50  72  99 135 179 222 260
#     4  10  21  36  54  73  90 108 132 165 208 257
#     4   9  16  26  39  54  75 105 140 179 220 256
#     4  11  22  33  47  67  87 109 138 170 206 249
#     4  10  20  32  45  62  85 115 149 181 213 251
#
# _framework density 16.342449999999999
#
# number of rings (size 3 to 8) (size 9 to 14) (size 15 to 20)
#    0.000    2.167    0.000    4.500    0.000   12.000 
#    0.000    0.000    0.000    0.000    0.000    0.000 
#    0.000    0.000    0.000    0.000    0.000    0.833 
#
# Total GULP energy -594953.322730 kJ/mol
# GULP energy per Si atom -12394.860890 kJ/mol
# Density = 1.630525 g / cm^3
# Si number density = 16.342450 Si / 1000 Ang^3
#
#
#
# Elastic Constant Matrix: (Units=GPa)
#
#
# Indices 1 2 3 4 5 6 
#
# 1 134.1213 33.7019 73.0531 0.0000 0.0000 0.0000
# 2 33.7019 40.9376 31.7245 0.0000 0.0000 0.0000
# 3 73.0531 31.7245 151.8564 0.0000 0.0000 0.0000
# 4 0.0000 0.0000 0.0000 9.4053 0.0000 0.0000
# 5 0.0000 0.0000 0.0000 0.0000 36.6705 0.0000
# 6 0.0000 0.0000 0.0000 0.0000 0.0000 13.7596
#
#
#
# Elastic Compliance Matrix: (Units=1/GPa)
#
#
# Indices 1 2 3 4 5 6 
#
# 1 0.011228 -0.006034 -0.004141 0.000000 0.000000 0.000000
# 2 -0.006034 0.032389 -0.003864 0.000000 0.000000 0.000000
# 3 -0.004141 -0.003864 0.009384 0.000000 0.000000 0.000000
# 4 0.000000 0.000000 0.000000 0.106323 0.000000 0.000000
# 5 0.000000 0.000000 0.000000 0.000000 0.027270 0.000000
# 6 0.000000 0.000000 0.000000 0.000000 0.000000 0.072677
#
#
# Mechanical properties :
#
#
# Convention : Reuss Voigt Hill
#
# Bulk Modulus (GPa) = 40.12186 67.09715 53.60951
# Shear Modulus (GPa) = 16.91157 24.52947 20.72052
#
# Velocity S-wave (km/s) = 3.22036 3.87843 3.56461
# Velocity P-wave (km/s) = 6.19932 7.82320 7.05812
#
# Compressibility (1/GPa) = 0.02492407
#
# Stress axis : x y z
#
# Youngs Moduli (GPa) = 89.06691 30.87444 106.56232
#
# Poissons Ratio (x) = 0.18631 0.44123
# Poissons Ratio (y) = 0.53746 0.41171
# Poissons Ratio (z) = 0.36879 0.11928
#
# Static dielectric constant tensor:
#      x y z
#    x 3.452840 0.000000 0.000000 
#    y 0.000000 2.601120 0.000000 
#    z 0.000000 0.000000 3.188130 
# 
# 
# High freq. dielectric constant tensor:
#      x y z
#    x 1.655920 0.000000 0.000000 
#    y 0.000000 1.557290 0.000000 
#    z 0.000000 0.000000 1.630220 
# 
# From -- ./inp_files/40906.got.cif
#   From: 2010.03.12/outbox.cif.g09.slc.cpg/sg67_21_cif.got.tgz:40906.got - 2010.04.10 22:41:39.
