data_PCOD8279215
_publ_section_title
;
Structure prediction by ZEFSAII (Michael W. Deem and Ramdas Pophale) SiO2 
 PCOD8279215
Probable space group: C M M A
;
_chemical_formula_sum "Si O2"
_cell_formula_units_Z 80
_cell_length_a 23.980349
_cell_length_b 17.483754
_cell_length_c 9.828782
_cell_angle_alpha 90.000000
_cell_angle_beta 90.000000
_cell_angle_gamma 90.000000
_cell_volume 4120.879252
_symmetry_space_group_name_H-M "C M M A"
_symmetry_group_IT_number 67
_symmetry_cell_setting 'orthorhombic'
loop_
_space_group_symop_operation_xyz
x,y,z
-x,1/2-y,z
x,-y,-z
-x,1/2+y,-z
-x,-y,-z
x,1/2+y,-z
-x,y,z
x,1/2-y,z
1/2+x,1/2+y,z
1/2-x,-y,z
1/2+x,1/2-y,-z
1/2-x,y,-z
1/2-x,1/2-y,-z
1/2+x,y,-z
1/2-x,1/2+y,z
1/2+x,-y,z
loop_
_atom_site_type_symbol
_atom_site_label
_atom_site_fract_x
_atom_site_fract_y
_atom_site_fract_z
Si Si1 0.172096 0.836818 0.548038
Si Si2 0.435410 0.085732 0.040879
Si Si3 0.240158 0.589575 0.764901
Si Si4 0.866248 0.164059 0.171679
Si Si5 0.353782 0.159618 0.249440
O O1 0.192519 0.750000 0.524487
O O2 0.225147 0.884166 0.608946
O O3 0.123372 0.840004 0.664497
O O4 0.146966 0.868896 0.407170
O O5 0.500000 0.096171 0.074837
O O6 0.402123 0.112934 0.173934
O O7 0.420086 0.136178 0.909476
O O8 0.420013 0.000000 0.000000
O O9 0.250000 0.500000 0.772216
O O10 0.188702 0.612855 0.863955
O O11 0.294567 0.635732 0.814789
O O12 0.852800 0.250000 0.125059
O O13 0.364604 0.250000 0.234484
#
# Coordination Sequence:
#
# PCOD8279215 Si02
#       5
#    16  16  16  16  16
#     4   8  18  35  56  88 121 151 189 235 285 347
#     4  11  25  44  60  81 114 154 200 253 303 349
#     4  10  19  33  57  92 127 156 187 229 295 353
#     4   9  19  38  60  84 117 158 200 237 285 354
#     4  11  21  36  61  90 121 154 194 245 294 347
#
# _framework density 19.413330999999999
#
# number of rings (size 3 to 8) (size 9 to 14) (size 15 to 20)
#    1.200    1.000    0.000    3.600    0.000    5.600 
#    0.000    5.000    0.000    6.000    0.000    0.000 
#    0.000    0.000    0.000    0.000    0.000    0.000 
#
# Total GULP energy -495591.416298 kJ/mol
# GULP energy per Si atom -12389.785407 kJ/mol
# Density = 1.936915 g / cm^3
# Si number density = 19.413331 Si / 1000 Ang^3
#
#
#
# Elastic Constant Matrix: (Units=GPa)
#
#
# Indices 1 2 3 4 5 6 
#
# 1 99.1411 54.0936 54.8477 0.0000 0.0000 0.0000
# 2 54.0936 128.5141 36.5161 0.0000 0.0000 0.0000
# 3 54.8477 36.5161 84.5489 0.0000 0.0000 0.0000
# 4 0.0000 0.0000 0.0000 28.3442 0.0000 0.0000
# 5 0.0000 0.0000 0.0000 0.0000 15.4177 0.0000
# 6 0.0000 0.0000 0.0000 0.0000 0.0000 26.1558
#
#
#
# Elastic Compliance Matrix: (Units=1/GPa)
#
#
# Indices 1 2 3 4 5 6 
#
# 1 0.018063 -0.004871 -0.009614 0.000000 0.000000 0.000000
# 2 -0.004871 0.010183 -0.001238 0.000000 0.000000 0.000000
# 3 -0.009614 -0.001238 0.018599 0.000000 0.000000 0.000000
# 4 0.000000 0.000000 0.000000 0.035281 0.000000 0.000000
# 5 0.000000 0.000000 0.000000 0.000000 0.064860 0.000000
# 6 0.000000 0.000000 0.000000 0.000000 0.000000 0.038232
#
#
# Mechanical properties :
#
#
# Convention : Reuss Voigt Hill
#
# Bulk Modulus (GPa) = 64.93986 67.01320 65.97653
# Shear Modulus (GPa) = 22.54300 25.10001 23.82150
#
# Velocity S-wave (km/s) = 3.41135 3.59963 3.50676
# Velocity P-wave (km/s) = 7.00287 7.20212 7.10320
#
# Compressibility (1/GPa) = 0.01539886
#
# Stress axis : x y z
#
# Youngs Moduli (GPa) = 55.36102 98.19827 53.76698
#
# Poissons Ratio (x) = 0.47836 0.51691
# Poissons Ratio (y) = 0.26969 0.06657
# Poissons Ratio (z) = 0.53223 0.12157
#
# Static dielectric constant tensor:
#      x y z
#    x 3.200140 0.000000 0.000000 
#    y 0.000000 3.505220 0.000000 
#    z 0.000000 0.000000 3.659900 
# 
# 
# High freq. dielectric constant tensor:
#      x y z
#    x 1.721460 0.000000 0.000000 
#    y 0.000000 1.761510 0.000000 
#    z 0.000000 0.000000 1.758200 
# 
# From -- ./inp_files/21619.got.cif
#   From: 2010.03.12/outbox.cif.g09.slc.cpg/sg67_11_cif.got.tgz:21619.got - 2010.04.10 22:41:39.
