data_PCOD8279704
_publ_section_title
;
Structure prediction by ZEFSAII (Michael W. Deem and Ramdas Pophale) SiO2 
 PCOD8279704
Probable space group: C M M A
;
_chemical_formula_sum "Si O2"
_cell_formula_units_Z 96
_cell_length_a 19.055911
_cell_length_b 8.984872
_cell_length_c 30.473310
_cell_angle_alpha 90.000000
_cell_angle_beta 90.000000
_cell_angle_gamma 90.000000
_cell_volume 5217.485370
_symmetry_space_group_name_H-M "C M M A"
_symmetry_group_IT_number 67
_symmetry_cell_setting 'orthorhombic'
loop_
_space_group_symop_operation_xyz
x,y,z
-x,1/2-y,z
x,-y,-z
-x,1/2+y,-z
-x,-y,-z
x,1/2+y,-z
-x,y,z
x,1/2-y,z
1/2+x,1/2+y,z
1/2-x,-y,z
1/2+x,1/2-y,-z
1/2-x,y,-z
1/2-x,1/2-y,-z
1/2+x,y,-z
1/2-x,1/2+y,z
1/2+x,-y,z
loop_
_atom_site_type_symbol
_atom_site_label
_atom_site_fract_x
_atom_site_fract_y
_atom_site_fract_z
Si Si1 0.179609 0.576963 0.786662
Si Si2 0.825073 0.076905 0.637927
Si Si3 0.677545 0.573693 0.113482
Si Si4 0.419546 0.075532 0.709112
Si Si5 0.917083 0.420917 0.955722
Si Si6 0.324871 0.077517 0.459370
O O1 0.195156 0.750000 0.784654
O O2 0.250000 0.500000 0.769015
O O3 0.161730 0.528041 0.836231
O O4 0.115157 0.531464 0.755578
O O5 0.813453 0.250000 0.647750
O O6 0.857629 0.052766 0.588945
O O7 0.750000 0.000000 0.644586
O O8 0.882469 0.011464 0.670201
O O9 0.681705 0.750000 0.106910
O O10 0.750000 0.500000 0.097582
O O11 0.614577 0.506857 0.085489
O O12 0.500000 0.025028 0.711429
O O13 0.412087 0.250000 0.699829
O O14 0.892091 0.250000 0.956411
O O15 0.000000 0.433607 0.951249
O O16 0.890419 0.500000 0.000000
O O17 0.316923 0.250000 0.470325
O O18 0.367939 0.000000 0.500000
O O19 0.250000 0.000000 0.457732
#
# Coordination Sequence:
#
# PCOD8279704 Si02
#       6
#    16  16  16  16  16  16
#     4   9  19  35  55  78 104 135 171 212 257 307
#     4  10  20  33  51  76 104 135 171 211 256 305
#     4  10  20  35  56  81 109 139 172 213 260 308
#     4  10  21  36  53  75 104 137 173 213 257 306
#     4  10  21  37  56  79 108 141 178 218 259 306
#     4   9  16  26  43  69  99 128 161 204 251 299
#
# _framework density 18.399667000000001
#
# number of rings (size 3 to 8) (size 9 to 14) (size 15 to 20)
#    0.000    2.333    0.000    3.000    0.000    7.000 
#    0.000    3.333    0.000    0.500    0.000    0.000 
#    0.000    0.000    0.000    0.000    0.000    0.000 
#
# Total GULP energy -595101.692355 kJ/mol
# GULP energy per Si atom -12397.951924 kJ/mol
# Density = 1.835779 g / cm^3
# Si number density = 18.399667 Si / 1000 Ang^3
#
#
#
# Elastic Constant Matrix: (Units=GPa)
#
#
# Indices 1 2 3 4 5 6 
#
# 1 89.6225 48.6119 65.5949 0.0000 0.0000 0.0000
# 2 48.6119 103.0038 64.2799 0.0000 0.0000 0.0000
# 3 65.5949 64.2799 130.7501 0.0000 0.0000 0.0000
# 4 0.0000 0.0000 0.0000 -3.1896 0.0000 0.0000
# 5 0.0000 0.0000 0.0000 0.0000 0.7287 0.0000
# 6 0.0000 0.0000 0.0000 0.0000 0.0000 27.8299
#
#
#
# Elastic Compliance Matrix: (Units=1/GPa)
#
#
# Indices 1 2 3 4 5 6 
#
# 1 0.018881 -0.004327 -0.007345 0.000000 0.000000 0.000000
# 2 -0.004327 0.014997 -0.005202 0.000000 0.000000 0.000000
# 3 -0.007345 -0.005202 0.013890 0.000000 0.000000 0.000000
# 4 0.000000 0.000000 0.000000 -0.313524 0.000000 0.000000
# 5 0.000000 0.000000 0.000000 0.000000 1.372353 0.000000
# 6 0.000000 0.000000 0.000000 0.000000 0.000000 0.035933
#
#
# Mechanical properties :
#
#
# Convention : Reuss Voigt Hill
#
# Bulk Modulus (GPa) = 71.32596 75.59442 73.46019
# Shear Modulus (GPa) = 4.23388 14.73311 9.48349
#
# Velocity S-wave (km/s) = 1.51857 2.83278 2.27274
# Velocity P-wave (km/s) = 6.47485 7.20232 6.84825
#
# Compressibility (1/GPa) = 0.01402014
#
# Stress axis : x y z
#
# Youngs Moduli (GPa) = 52.96448 66.68077 71.99248
#
# Poissons Ratio (x) = 0.28853 0.52877
# Poissons Ratio (y) = 0.22918 0.37451
# Poissons Ratio (z) = 0.38901 0.34687
#
# Static dielectric constant tensor:
#      x y z
#    x 3.137650 0.000000 0.000000 
#    y 0.000000 3.517040 0.000000 
#    z 0.000000 0.000000 4.033160 
# 
# 
# High freq. dielectric constant tensor:
#      x y z
#    x 1.680910 0.000000 0.000000 
#    y 0.000000 1.724860 0.000000 
#    z 0.000000 0.000000 1.732560 
# 
# From -- ./inp_files/44610.got.cif
#   From: 2010.03.12/outbox.cif.g09.slc.cpg/sg67_23_cif.got.tgz:44610.got - 2010.04.10 22:41:39.
