data_PCOD8279275
_publ_section_title
;
Structure prediction by ZEFSAII (Michael W. Deem and Ramdas Pophale) SiO2 
 PCOD8279275
Probable space group: C M M A
;
_chemical_formula_sum "Si O2"
_cell_formula_units_Z 112
_cell_length_a 23.249980
_cell_length_b 15.452308
_cell_length_c 16.050473
_cell_angle_alpha 90.000000
_cell_angle_beta 90.000000
_cell_angle_gamma 90.000000
_cell_volume 5766.386857
_symmetry_space_group_name_H-M "C M M A"
_symmetry_group_IT_number 67
_symmetry_cell_setting 'orthorhombic'
loop_
_space_group_symop_operation_xyz
x,y,z
-x,1/2-y,z
x,-y,-z
-x,1/2+y,-z
-x,-y,-z
x,1/2+y,-z
-x,y,z
x,1/2-y,z
1/2+x,1/2+y,z
1/2-x,-y,z
1/2+x,1/2-y,-z
1/2-x,y,-z
1/2-x,1/2-y,-z
1/2+x,y,-z
1/2-x,1/2+y,z
1/2+x,-y,z
loop_
_atom_site_type_symbol
_atom_site_label
_atom_site_fract_x
_atom_site_fract_y
_atom_site_fract_z
Si Si1 0.730746 0.911342 0.763608
Si Si2 0.153371 0.984845 0.092826
Si Si3 0.563940 0.348888 0.657451
Si Si4 0.352377 0.150373 0.801370
Si Si5 0.879633 0.348078 0.680636
Si Si6 0.066835 0.849689 0.147451
Si Si7 0.437387 0.402142 0.480170
O O1 0.702676 0.939600 0.852020
O O2 0.784924 0.849252 0.778225
O O3 0.686608 0.861734 0.704652
O O4 0.750000 0.000000 0.717860
O O5 0.099626 0.918056 0.088646
O O6 0.135244 0.080035 0.126779
O O7 0.176809 0.000000 0.000000
O O8 0.500000 0.393338 0.664841
O O9 0.556835 0.250000 0.680548
O O10 0.609834 0.385841 0.723609
O O11 0.588406 0.357663 0.563374
O O12 0.368009 0.250000 0.827589
O O13 0.890984 0.250000 0.657054
O O14 0.920392 0.376578 0.756950
O O15 0.894286 0.399904 0.597417
O O16 0.087683 0.750000 0.132039
O O17 0.000000 0.858493 0.128042
O O18 0.447733 0.500000 0.500000
O O19 0.500000 0.359835 0.458337
#
# Coordination Sequence:
#
# PCOD8279275 Si02
#       7
#    16  16  16  16  16  16  16
#     4   9  20  36  57  80 109 146 185 233 282 333
#     4  10  22  38  58  85 115 144 185 234 286 341
#     4   9  19  36  56  79 109 145 183 227 275 327
#     4  10  21  38  60  83 111 148 190 233 282 340
#     4  10  19  34  56  80 109 146 188 231 278 329
#     4   9  19  35  57  85 117 154 192 231 280 336
#     4  10  21  32  51  83 114 143 183 230 275 323
#
# _framework density 19.422908
#
# number of rings (size 3 to 8) (size 9 to 14) (size 15 to 20)
#    0.000    2.429    0.000    1.286    6.000    6.000 
#    0.000    1.429    0.000    4.286    0.000    0.000 
#    0.000    0.000    0.000    0.000    0.000    0.000 
#
# Total GULP energy -694022.517868 kJ/mol
# GULP energy per Si atom -12393.259248 kJ/mol
# Density = 1.937870 g / cm^3
# Si number density = 19.422908 Si / 1000 Ang^3
#
#
#
# Elastic Constant Matrix: (Units=GPa)
#
#
# Indices 1 2 3 4 5 6 
#
# 1 92.3529 23.8766 42.8180 0.0000 0.0000 0.0000
# 2 23.8766 69.2968 23.7839 0.0000 0.0000 0.0000
# 3 42.8180 23.7839 115.8228 0.0000 0.0000 0.0000
# 4 0.0000 0.0000 0.0000 26.0331 0.0000 0.0000
# 5 0.0000 0.0000 0.0000 0.0000 14.7956 0.0000
# 6 0.0000 0.0000 0.0000 0.0000 0.0000 35.0267
#
#
#
# Elastic Compliance Matrix: (Units=1/GPa)
#
#
# Indices 1 2 3 4 5 6 
#
# 1 0.013700 -0.003208 -0.004406 0.000000 0.000000 0.000000
# 2 -0.003208 0.016276 -0.002156 0.000000 0.000000 0.000000
# 3 -0.004406 -0.002156 0.010705 0.000000 0.000000 0.000000
# 4 0.000000 0.000000 0.000000 0.038413 0.000000 0.000000
# 5 0.000000 0.000000 0.000000 0.000000 0.067588 0.000000
# 6 0.000000 0.000000 0.000000 0.000000 0.000000 0.028550
#
#
# Mechanical properties :
#
#
# Convention : Reuss Voigt Hill
#
# Bulk Modulus (GPa) = 47.30154 50.93660 49.11907
# Shear Modulus (GPa) = 24.77457 27.63734 26.20595
#
# Velocity S-wave (km/s) = 3.57534 3.77626 3.67717
# Velocity P-wave (km/s) = 6.43820 6.73019 6.58581
#
# Compressibility (1/GPa) = 0.02114096
#
# Stress axis : x y z
#
# Youngs Moduli (GPa) = 72.99139 61.43952 93.41013
#
# Poissons Ratio (x) = 0.19712 0.41156
# Poissons Ratio (y) = 0.23418 0.20141
# Poissons Ratio (z) = 0.32160 0.13248
#
# Static dielectric constant tensor:
#      x y z
#    x 3.715390 0.000000 0.000000 
#    y 0.000000 3.584050 0.000000 
#    z 0.000000 0.000000 3.421310 
# 
# 
# High freq. dielectric constant tensor:
#      x y z
#    x 1.750110 0.000000 0.000000 
#    y 0.000000 1.764250 0.000000 
#    z 0.000000 0.000000 1.733700 
# 
# From -- ./inp_files/27485.got.cif
#   From: 2010.03.12/outbox.cif.g09.slc.cpg/sg67_14_cif.got.tgz:27485.got - 2010.04.10 22:41:39.
