data_PCOD8279453
_publ_section_title
;
Structure prediction by ZEFSAII (Michael W. Deem and Ramdas Pophale) SiO2 
 PCOD8279453
Probable space group: C M M A
;
_chemical_formula_sum "Si O2"
_cell_formula_units_Z 80
_cell_length_a 30.328110
_cell_length_b 9.201531
_cell_length_c 20.431918
_cell_angle_alpha 90.000000
_cell_angle_beta 90.000000
_cell_angle_gamma 90.000000
_cell_volume 5701.834103
_symmetry_space_group_name_H-M "C M M A"
_symmetry_group_IT_number 67
_symmetry_cell_setting 'orthorhombic'
loop_
_space_group_symop_operation_xyz
x,y,z
-x,1/2-y,z
x,-y,-z
-x,1/2+y,-z
-x,-y,-z
x,1/2+y,-z
-x,y,z
x,1/2-y,z
1/2+x,1/2+y,z
1/2-x,-y,z
1/2+x,1/2-y,-z
1/2-x,y,-z
1/2-x,1/2-y,-z
1/2+x,y,-z
1/2-x,1/2+y,z
1/2+x,-y,z
loop_
_atom_site_type_symbol
_atom_site_label
_atom_site_fract_x
_atom_site_fract_y
_atom_site_fract_z
Si Si1 0.052619 0.087234 0.937394
Si Si2 0.387565 0.581184 0.568552
Si Si3 0.551432 0.081217 0.668579
Si Si4 0.710107 0.080883 0.431038
Si Si5 0.552317 0.089004 0.814906
O O1 0.070989 0.250000 0.941952
O O2 0.000000 0.085623 0.936917
O O3 0.071494 0.017389 0.870473
O O4 0.070690 0.000000 0.000000
O O5 0.392904 0.500000 0.500000
O O6 0.397577 0.750000 0.555856
O O7 0.422176 0.519255 0.619476
O O8 0.338514 0.561167 0.600026
O O9 0.500000 0.052259 0.656880
O O10 0.562663 0.250000 0.656563
O O11 0.565389 0.035289 0.742311
O O12 0.721847 0.250000 0.439352
O O13 0.707953 0.000000 0.500000
O O14 0.750000 0.000000 0.390651
O O15 0.500000 0.096059 0.819896
O O16 0.571532 0.250000 0.827651
#
# Coordination Sequence:
#
# PCOD8279453 Si02
#       5
#    16  16  16  16  16
#     4   9  15  21  31  48  68  89 114 146 183 220
#     4  10  20  31  43  59  77  97 124 158 194 232
#     4   9  18  31  44  56  72  98 131 164 197 230
#     4   9  16  26  41  60  78  95 115 142 181 228
#     4   8  14  25  38  50  66  89 118 152 187 222
#
# _framework density 14.030573
#
# number of rings (size 3 to 8) (size 9 to 14) (size 15 to 20)
#    0.000    3.000    0.000    3.600    0.000    6.400 
#    0.000    2.000    0.000    0.000    0.000    0.000 
#    0.000    0.000    0.000    0.000    0.000    1.000 
#
# Total GULP energy -495611.075968 kJ/mol
# GULP energy per Si atom -12390.276899 kJ/mol
# Density = 1.399864 g / cm^3
# Si number density = 14.030573 Si / 1000 Ang^3
#
#
#
# Elastic Constant Matrix: (Units=GPa)
#
#
# Indices 1 2 3 4 5 6 
#
# 1 46.8719 40.7314 34.3009 0.0000 0.0000 0.0000
# 2 40.7314 118.5568 62.5124 0.0000 0.0000 0.0000
# 3 34.3009 62.5124 94.0315 0.0000 0.0000 0.0000
# 4 0.0000 0.0000 0.0000 26.6222 0.0000 0.0000
# 5 0.0000 0.0000 0.0000 0.0000 -0.7754 0.0000
# 6 0.0000 0.0000 0.0000 0.0000 0.0000 17.5781
#
#
#
# Elastic Compliance Matrix: (Units=1/GPa)
#
#
# Indices 1 2 3 4 5 6 
#
# 1 0.033129 -0.007714 -0.006957 0.000000 0.000000 0.000000
# 2 -0.007714 0.014783 -0.007014 0.000000 0.000000 0.000000
# 3 -0.006957 -0.007014 0.017835 0.000000 0.000000 0.000000
# 4 0.000000 0.000000 0.000000 0.037563 0.000000 0.000000
# 5 0.000000 0.000000 0.000000 0.000000 -1.289721 0.000000
# 6 0.000000 0.000000 0.000000 0.000000 0.000000 0.056889
#
#
# Mechanical properties :
#
#
# Convention : Reuss Voigt Hill
#
# Bulk Modulus (GPa) = 44.68582 59.39441 52.04012
# Shear Modulus (GPa) = -4.63524 16.81270 6.08873
#
# Velocity S-wave (km/s) = -1.81957 3.46539 2.08543
# Velocity P-wave (km/s) = 5.24439 7.64434 6.55513
#
# Compressibility (1/GPa) = 0.02237846
#
# Stress axis : x y z
#
# Youngs Moduli (GPa) = 30.18532 67.64397 56.06802
#
# Poissons Ratio (x) = 0.52178 0.39005
# Poissons Ratio (y) = 0.23284 0.39327
# Poissons Ratio (z) = 0.20999 0.47447
#
# Static dielectric constant tensor:
#      x y z
#    x 2.829820 0.000000 0.000000 
#    y 0.000000 2.979590 0.000000 
#    z 0.000000 0.000000 2.718520 
# 
# 
# High freq. dielectric constant tensor:
#      x y z
#    x 1.486660 0.000000 0.000000 
#    y 0.000000 1.552030 0.000000 
#    z 0.000000 0.000000 1.515680 
# 
# From -- ./inp_files/36063.got.cif
#   From: 2010.03.12/outbox.cif.g09.slc.cpg/sg67_19_cif.got.tgz:36063.got - 2010.04.10 22:41:39.
