data_PCOD8279537
_publ_section_title
;
Structure prediction by ZEFSAII (Michael W. Deem and Ramdas Pophale) SiO2 
 PCOD8279537
Probable space group: C M M A
;
_chemical_formula_sum "Si O2"
_cell_formula_units_Z 96
_cell_length_a 19.503886
_cell_length_b 9.037578
_cell_length_c 31.075988
_cell_angle_alpha 90.000000
_cell_angle_beta 90.000000
_cell_angle_gamma 90.000000
_cell_volume 5477.698866
_symmetry_space_group_name_H-M "C M M A"
_symmetry_group_IT_number 67
_symmetry_cell_setting 'orthorhombic'
loop_
_space_group_symop_operation_xyz
x,y,z
-x,1/2-y,z
x,-y,-z
-x,1/2+y,-z
-x,-y,-z
x,1/2+y,-z
-x,y,z
x,1/2-y,z
1/2+x,1/2+y,z
1/2-x,-y,z
1/2+x,1/2-y,-z
1/2-x,y,-z
1/2-x,1/2-y,-z
1/2+x,y,-z
1/2-x,1/2+y,z
1/2+x,-y,z
loop_
_atom_site_type_symbol
_atom_site_label
_atom_site_fract_x
_atom_site_fract_y
_atom_site_fract_z
Si Si1 0.822829 0.078024 0.634902
Si Si2 0.918501 0.413696 0.203272
Si Si3 0.579113 0.424202 0.701595
Si Si4 0.821903 0.072739 0.955592
Si Si5 0.676999 0.578206 0.539675
Si Si6 0.577267 0.076264 0.119941
O O1 0.810840 0.250000 0.644145
O O2 0.855418 0.054182 0.587018
O O3 0.750000 0.000000 0.640630
O O4 0.877119 0.014512 0.667862
O O5 0.888898 0.250000 0.195178
O O6 0.895367 0.470816 0.250405
O O7 0.891023 0.515775 0.164620
O O8 0.000000 0.409604 0.203315
O O9 0.500000 0.467489 0.694893
O O10 0.589804 0.250000 0.694810
O O11 0.814702 0.250000 0.960315
O O12 0.876591 0.024858 0.919801
O O13 0.750000 0.000000 0.942196
O O14 0.847610 0.000000 0.000000
O O15 0.634935 0.500000 0.500000
O O16 0.684957 0.750000 0.528886
O O17 0.750000 0.500000 0.541398
O O18 0.500000 0.016120 0.112270
O O19 0.577067 0.250000 0.124127
#
# Coordination Sequence:
#
# PCOD8279537 Si02
#       6
#    16  16  16  16  16  16
#     4  10  20  32  48  72 100 128 160 200 244 288
#     4   8  15  29  49  72  96 123 156 193 234 281
#     4   9  18  33  52  73  98 129 164 200 240 289
#     4  10  20  34  51  70  95 127 160 192 229 277
#     4   9  16  26  42  65  91 120 155 194 236 284
#     4   9  18  32  50  73  98 122 153 195 237 275
#
# _framework density 17.525607000000001
#
# number of rings (size 3 to 8) (size 9 to 14) (size 15 to 20)
#    0.000    2.833    0.000    3.500    0.000    4.667 
#    0.000    2.500    0.000    2.500    0.000    0.000 
#    0.000    0.000    0.000    0.000    0.000    0.000 
#
# Total GULP energy -594803.856569 kJ/mol
# GULP energy per Si atom -12391.747012 kJ/mol
# Density = 1.748572 g / cm^3
# Si number density = 17.525607 Si / 1000 Ang^3
#
#
#
# Elastic Constant Matrix: (Units=GPa)
#
#
# Indices 1 2 3 4 5 6 
#
# 1 58.2223 40.7882 70.0877 0.0000 0.0000 0.0000
# 2 40.7882 84.6186 75.9409 0.0000 0.0000 0.0000
# 3 70.0877 75.9409 182.0746 0.0000 0.0000 0.0000
# 4 0.0000 0.0000 0.0000 35.6919 0.0000 0.0000
# 5 0.0000 0.0000 0.0000 0.0000 29.0138 0.0000
# 6 0.0000 0.0000 0.0000 0.0000 0.0000 23.0732
#
#
#
# Elastic Compliance Matrix: (Units=1/GPa)
#
#
# Indices 1 2 3 4 5 6 
#
# 1 0.034818 -0.007599 -0.010233 0.000000 0.000000 0.000000
# 2 -0.007599 0.020546 -0.005644 0.000000 0.000000 0.000000
# 3 -0.010233 -0.005644 0.011786 0.000000 0.000000 0.000000
# 4 0.000000 0.000000 0.000000 0.028018 0.000000 0.000000
# 5 0.000000 0.000000 0.000000 0.000000 0.034466 0.000000
# 6 0.000000 0.000000 0.000000 0.000000 0.000000 0.043340
#
#
# Mechanical properties :
#
#
# Convention : Reuss Voigt Hill
#
# Bulk Modulus (GPa) = 49.51430 77.61658 63.56544
# Shear Modulus (GPa) = 22.05946 26.76236 24.41091
#
# Velocity S-wave (km/s) = 3.55166 3.91198 3.73617
# Velocity P-wave (km/s) = 6.71811 8.04913 7.41355
#
# Compressibility (1/GPa) = 0.02019618
#
# Stress axis : x y z
#
# Youngs Moduli (GPa) = 28.72066 48.67070 84.84923
#
# Poissons Ratio (x) = 0.36986 0.86829
# Poissons Ratio (y) = 0.21826 0.47891
# Poissons Ratio (z) = 0.29391 0.27471
#
# Static dielectric constant tensor:
#      x y z
#    x 2.947910 0.000000 0.000000 
#    y 0.000000 3.334890 0.000000 
#    z 0.000000 0.000000 3.935120 
# 
# 
# High freq. dielectric constant tensor:
#      x y z
#    x 1.630090 0.000000 0.000000 
#    y 0.000000 1.683500 0.000000 
#    z 0.000000 0.000000 1.699160 
# 
# From -- ./inp_files/44571.got.cif
#   From: 2010.03.12/outbox.cif.g09.slc.cpg/sg67_23_cif.got.tgz:44571.got - 2010.04.10 22:41:39.
