data_PCOD8279850
_publ_section_title
;
Structure prediction by ZEFSAII (Michael W. Deem and Ramdas Pophale) SiO2 
 PCOD8279850
Probable space group: C M M A
;
_chemical_formula_sum "Si O2"
_cell_formula_units_Z 72
_cell_length_a 30.556256
_cell_length_b 8.993583
_cell_length_c 14.484662
_cell_angle_alpha 90.000000
_cell_angle_beta 90.000000
_cell_angle_gamma 90.000000
_cell_volume 3980.533216
_symmetry_space_group_name_H-M "C M M A"
_symmetry_group_IT_number 67
_symmetry_cell_setting 'orthorhombic'
loop_
_space_group_symop_operation_xyz
x,y,z
-x,1/2-y,z
x,-y,-z
-x,1/2+y,-z
-x,-y,-z
x,1/2+y,-z
-x,y,z
x,1/2-y,z
1/2+x,1/2+y,z
1/2-x,-y,z
1/2+x,1/2-y,-z
1/2-x,y,-z
1/2-x,1/2-y,-z
1/2+x,y,-z
1/2-x,1/2+y,z
1/2+x,-y,z
loop_
_atom_site_type_symbol
_atom_site_label
_atom_site_fract_x
_atom_site_fract_y
_atom_site_fract_z
Si Si1 0.595088 0.424487 0.900695
Si Si2 0.549340 0.075573 0.403879
Si Si3 0.500000 0.579683 0.095021
Si Si4 0.874384 0.076419 0.728992
Si Si5 0.295203 0.925758 0.595534
O O1 0.603448 0.250000 0.912523
O O2 0.546358 0.460093 0.856815
O O3 0.628793 0.491130 0.826519
O O4 0.602083 0.500000 0.000000
O O5 0.500000 0.033693 0.371890
O O6 0.554597 0.250000 0.419413
O O7 0.583530 0.018169 0.327903
O O8 0.561227 0.000000 0.500000
O O9 0.500000 0.750000 0.068983
O O10 0.500000 0.500000 0.000000
O O11 0.878717 0.250000 0.749818
O O12 0.830704 0.038633 0.673192
O O13 0.289066 0.750000 0.580485
O O14 0.310892 0.000000 0.500000
O O15 0.250000 0.000000 0.628442
#
# Coordination Sequence:
#
# PCOD8279850 Si02
#       5
#    16  16   8  16  16
#     4  10  20  34  52  74 103 138 177 220 263 307
#     4   9  18  32  48  69 100 137 172 207 249 299
#     4   8  16  30  46  68  95 128 171 214 255 296
#     4  10  21  34  51  77 105 136 174 215 260 311
#     4  10  20  35  56  81 109 137 171 215 263 315
#
# _framework density 18.088028999999999
#
# number of rings (size 3 to 8) (size 9 to 14) (size 15 to 20)
#    0.000    2.444    0.000    2.667    1.556    3.556 
#    0.000    0.000    0.000    0.667    0.000    4.667 
#    0.000    0.000    0.000    0.000    0.000    0.000 
#
# Total GULP energy -446182.392368 kJ/mol
# GULP energy per Si atom -12393.955344 kJ/mol
# Density = 1.804686 g / cm^3
# Si number density = 18.088029 Si / 1000 Ang^3
#
#
#
# Elastic Constant Matrix: (Units=GPa)
#
#
# Indices 1 2 3 4 5 6 
#
# 1 97.9971 51.6835 75.0296 0.0000 0.0000 0.0000
# 2 51.6835 75.0014 59.5290 0.0000 0.0000 0.0000
# 3 75.0296 59.5290 127.9306 0.0000 0.0000 0.0000
# 4 0.0000 0.0000 0.0000 33.5934 0.0000 0.0000
# 5 0.0000 0.0000 0.0000 0.0000 24.2275 0.0000
# 6 0.0000 0.0000 0.0000 0.0000 0.0000 23.4501
#
#
#
# Elastic Compliance Matrix: (Units=1/GPa)
#
#
# Indices 1 2 3 4 5 6 
#
# 1 0.020813 -0.007379 -0.008773 0.000000 0.000000 0.000000
# 2 -0.007379 0.023757 -0.006727 0.000000 0.000000 0.000000
# 3 -0.008773 -0.006727 0.016092 0.000000 0.000000 0.000000
# 4 0.000000 0.000000 0.000000 0.029768 0.000000 0.000000
# 5 0.000000 0.000000 0.000000 0.000000 0.041275 0.000000
# 6 0.000000 0.000000 0.000000 0.000000 0.000000 0.042644
#
#
# Mechanical properties :
#
#
# Convention : Reuss Voigt Hill
#
# Bulk Modulus (GPa) = 67.09455 74.82370 70.95913
# Shear Modulus (GPa) = 22.21478 23.89999 23.05738
#
# Velocity S-wave (km/s) = 3.50830 3.63893 3.57421
# Velocity P-wave (km/s) = 7.32016 7.68843 7.50656
#
# Compressibility (1/GPa) = 0.01490434
#
# Stress axis : x y z
#
# Youngs Moduli (GPa) = 48.04731 42.09222 62.14230
#
# Poissons Ratio (x) = 0.31060 0.54516
# Poissons Ratio (y) = 0.35455 0.41804
# Poissons Ratio (z) = 0.42151 0.28316
#
# Static dielectric constant tensor:
#      x y z
#    x 3.387340 0.000000 0.000000 
#    y 0.000000 3.284430 0.000000 
#    z 0.000000 0.000000 3.152920 
# 
# 
# High freq. dielectric constant tensor:
#      x y z
#    x 1.689760 0.000000 0.000000 
#    y 0.000000 1.706450 0.000000 
#    z 0.000000 0.000000 1.689180 
# 
# From -- ./inp_files/25298.got.cif
#   From: 2010.03.12/outbox.cif.g09.slc.cpg/sg67_13_cif.got.tgz:25298.got - 2010.04.10 22:41:39.
