data_PCOD8279677
_publ_section_title
;
Structure prediction by ZEFSAII (Michael W. Deem and Ramdas Pophale) SiO2 
 PCOD8279677
Probable space group: C M M A
;
_chemical_formula_sum "Si O2"
_cell_formula_units_Z 112
_cell_length_a 18.368711
_cell_length_b 27.921637
_cell_length_c 11.237744
_cell_angle_alpha 90.000000
_cell_angle_beta 90.000000
_cell_angle_gamma 90.000000
_cell_volume 5763.664496
_symmetry_space_group_name_H-M "C M M A"
_symmetry_group_IT_number 67
_symmetry_cell_setting 'orthorhombic'
loop_
_space_group_symop_operation_xyz
x,y,z
-x,1/2-y,z
x,-y,-z
-x,1/2+y,-z
-x,-y,-z
x,1/2+y,-z
-x,y,z
x,1/2-y,z
1/2+x,1/2+y,z
1/2-x,-y,z
1/2+x,1/2-y,-z
1/2-x,y,-z
1/2-x,1/2-y,-z
1/2+x,y,-z
1/2-x,1/2+y,z
1/2+x,-y,z
loop_
_atom_site_type_symbol
_atom_site_label
_atom_site_fract_x
_atom_site_fract_y
_atom_site_fract_z
Si Si1 0.286175 0.381447 0.256391
Si Si2 0.201769 0.697500 0.613174
Si Si3 0.582113 0.607081 0.903609
Si Si4 0.415972 0.621739 0.394091
Si Si5 0.646167 0.088870 0.852686
Si Si6 0.151023 0.453963 0.569129
Si Si7 0.580006 0.506372 0.801365
O O1 0.250292 0.331434 0.292271
O O2 0.365738 0.371457 0.199906
O O3 0.233159 0.404217 0.157113
O O4 0.288851 0.418833 0.368937
O O5 0.180901 0.750000 0.666407
O O6 0.250000 0.706070 0.500000
O O7 0.129624 0.669064 0.572664
O O8 0.500000 0.628587 0.890613
O O9 0.579634 0.550015 0.892977
O O10 0.615362 0.617455 0.033334
O O11 0.500000 0.634446 0.409971
O O12 0.397724 0.609177 0.259064
O O13 0.396301 0.577225 0.478153
O O14 0.635360 0.031871 0.855558
O O15 0.186029 0.500000 0.500000
O O16 0.099359 0.474790 0.670770
O O17 0.500000 0.482731 0.793292
#
# Coordination Sequence:
#
# PCOD8279677 Si02
#       7
#    16  16  16  16  16  16  16
#     4  10  23  40  57  87 114 157 195 246 296 359
#     4  10  21  42  64  86 117 150 189 246 312 364
#     4  10  21  37  58  80 113 156 203 248 288 339
#     4  11  22  36  59  88 119 156 200 244 292 358
#     4  11  21  35  54  81 116 157 201 243 290 341
#     4  11  21  35  53  80 125 162 200 237 286 349
#     4  10  20  33  50  76 112 160 203 241 285 336
#
# _framework density 19.432082000000001
#
# number of rings (size 3 to 8) (size 9 to 14) (size 15 to 20)
#    0.000    1.571    2.857    2.571    0.000    4.857 
#    5.143    2.857    0.000    7.286    0.000    0.000 
#    0.000    0.000    0.000    0.000    0.000    0.000 
#
# Total GULP energy -694208.979458 kJ/mol
# GULP energy per Si atom -12396.588919 kJ/mol
# Density = 1.938785 g / cm^3
# Si number density = 19.432082 Si / 1000 Ang^3
#
#
#
# Elastic Constant Matrix: (Units=GPa)
#
#
# Indices 1 2 3 4 5 6 
#
# 1 131.9147 31.4958 28.8755 0.0000 0.0000 0.0000
# 2 31.4958 83.2846 15.3126 0.0000 0.0000 0.0000
# 3 28.8755 15.3126 84.4519 0.0000 0.0000 0.0000
# 4 0.0000 0.0000 0.0000 11.4425 0.0000 0.0000
# 5 0.0000 0.0000 0.0000 0.0000 27.1759 0.0000
# 6 0.0000 0.0000 0.0000 0.0000 0.0000 22.6156
#
#
#
# Elastic Compliance Matrix: (Units=1/GPa)
#
#
# Indices 1 2 3 4 5 6 
#
# 1 0.008812 -0.002874 -0.002492 0.000000 0.000000 0.000000
# 2 -0.002874 0.013359 -0.001439 0.000000 0.000000 0.000000
# 3 -0.002492 -0.001439 0.012954 0.000000 0.000000 0.000000
# 4 0.000000 0.000000 0.000000 0.087393 0.000000 0.000000
# 5 0.000000 0.000000 0.000000 0.000000 0.036797 0.000000
# 6 0.000000 0.000000 0.000000 0.000000 0.000000 0.044217
#
#
# Mechanical properties :
#
#
# Convention : Reuss Voigt Hill
#
# Bulk Modulus (GPa) = 46.48190 50.11323 48.29756
# Shear Modulus (GPa) = 22.29001 27.17796 24.73398
#
# Velocity S-wave (km/s) = 3.39052 3.74386 3.57156
# Velocity P-wave (km/s) = 6.26894 6.67335 6.47430
#
# Compressibility (1/GPa) = 0.02151375
#
# Stress axis : x y z
#
# Youngs Moduli (GPa) = 113.47617 74.85762 77.19581
#
# Poissons Ratio (x) = 0.21517 0.19237
# Poissons Ratio (y) = 0.32618 0.11111
# Poissons Ratio (z) = 0.28277 0.10775
#
# Static dielectric constant tensor:
#      x y z
#    x 3.739630 0.000000 0.000000 
#    y 0.000000 3.577210 0.000000 
#    z 0.000000 0.000000 3.567710 
# 
# 
# High freq. dielectric constant tensor:
#      x y z
#    x 1.764050 0.000000 0.000000 
#    y 0.000000 1.718220 0.000000 
#    z 0.000000 0.000000 1.761470 
# 
# From -- ./inp_files/21091.got.cif
#   From: 2010.03.12/outbox.cif.g09.slc.cpg/sg67_11_cif.got.tgz:21091.got - 2010.04.10 22:41:39.
