data_PCOD8279971
_publ_section_title
;
Structure prediction by ZEFSAII (Michael W. Deem and Ramdas Pophale) SiO2 
 PCOD8279971
Probable space group: C M M A
;
_chemical_formula_sum "Si O2"
_cell_formula_units_Z 88
_cell_length_a 21.719534
_cell_length_b 8.850920
_cell_length_c 24.131967
_cell_angle_alpha 90.000000
_cell_angle_beta 90.000000
_cell_angle_gamma 90.000000
_cell_volume 4639.077642
_symmetry_space_group_name_H-M "C M M A"
_symmetry_group_IT_number 67
_symmetry_cell_setting 'orthorhombic'
loop_
_space_group_symop_operation_xyz
x,y,z
-x,1/2-y,z
x,-y,-z
-x,1/2+y,-z
-x,-y,-z
x,1/2+y,-z
-x,y,z
x,1/2-y,z
1/2+x,1/2+y,z
1/2-x,-y,z
1/2+x,1/2-y,-z
1/2-x,y,-z
1/2-x,1/2-y,-z
1/2+x,y,-z
1/2-x,1/2+y,z
1/2+x,-y,z
loop_
_atom_site_type_symbol
_atom_site_label
_atom_site_fract_x
_atom_site_fract_y
_atom_site_fract_z
Si Si1 0.071968 0.579807 0.748520
Si Si2 0.570436 0.426617 0.136061
Si Si3 0.610288 0.572510 0.639092
Si Si4 0.815339 0.928309 0.552397
Si Si5 0.686592 0.929646 0.939864
Si Si6 0.000000 0.926506 0.439965
O O1 0.097669 0.750000 0.744778
O O2 0.087795 0.514668 0.808469
O O3 0.102812 0.475832 0.702388
O O4 0.000000 0.575967 0.737529
O O5 0.500000 0.468675 0.115898
O O6 0.573384 0.250000 0.148992
O O7 0.623805 0.473195 0.092750
O O8 0.621656 0.750000 0.637888
O O9 0.666690 0.481267 0.613743
O O10 0.556282 0.520938 0.598042
O O11 0.816333 0.750000 0.547581
O O12 0.854822 0.000000 0.500000
O O13 0.750000 0.000000 0.544117
O O14 0.694668 0.750000 0.943353
O O15 0.750000 0.000000 0.913485
O O16 0.677369 0.000000 0.000000
O O17 0.000000 0.750000 0.449941
O O18 0.000000 0.000000 0.500000
#
# Coordination Sequence:
#
# PCOD8279971 Si02
#       6
#    16  16  16  16  16   8
#     4  10  20  34  54  81 110 143 182 227 277 328
#     4   9  19  36  57  81 111 149 192 236 283 338
#     4  11  21  36  55  78 106 142 179 219 270 327
#     4  11  22  38  57  78 102 135 175 221 272 329
#     4  10  20  35  57  84 116 154 191 231 282 336
#     4  10  22  34  50  76 106 138 171 212 267 322
#
# _framework density 18.969287999999999
#
# number of rings (size 3 to 8) (size 9 to 14) (size 15 to 20)
#    0.000    1.818    0.909    4.909    0.000    5.455 
#    0.000    0.909    0.000    2.182    0.000    0.000 
#    0.000    0.000    0.000    0.000    0.000    0.000 
#
# Total GULP energy -545217.479068 kJ/mol
# GULP energy per Si atom -12391.306342 kJ/mol
# Density = 1.892611 g / cm^3
# Si number density = 18.969288 Si / 1000 Ang^3
#
#
#
# Elastic Constant Matrix: (Units=GPa)
#
#
# Indices 1 2 3 4 5 6 
#
# 1 96.3625 46.9328 62.3052 0.0000 0.0000 0.0000
# 2 46.9328 122.5264 59.0669 0.0000 0.0000 0.0000
# 3 62.3052 59.0669 109.9749 0.0000 0.0000 0.0000
# 4 0.0000 0.0000 0.0000 41.5671 0.0000 0.0000
# 5 0.0000 0.0000 0.0000 0.0000 37.5249 0.0000
# 6 0.0000 0.0000 0.0000 0.0000 0.0000 87.7993
#
#
#
# Elastic Compliance Matrix: (Units=1/GPa)
#
#
# Indices 1 2 3 4 5 6 
#
# 1 0.016930 -0.002511 -0.008243 0.000000 0.000000 0.000000
# 2 -0.002511 0.011386 -0.004692 0.000000 0.000000 0.000000
# 3 -0.008243 -0.004692 0.016283 0.000000 0.000000 0.000000
# 4 0.000000 0.000000 0.000000 0.024057 0.000000 0.000000
# 5 0.000000 0.000000 0.000000 0.000000 0.026649 0.000000
# 6 0.000000 0.000000 0.000000 0.000000 0.000000 0.011390
#
#
# Mechanical properties :
#
#
# Convention : Reuss Voigt Hill
#
# Bulk Modulus (GPa) = 72.96152 73.94151 73.45152
# Shear Modulus (GPa) = 35.17256 44.08220 39.62738
#
# Velocity S-wave (km/s) = 4.31070 4.82589 4.57555
# Velocity P-wave (km/s) = 7.95755 8.37356 8.16820
#
# Compressibility (1/GPa) = 0.01370585
#
# Stress axis : x y z
#
# Youngs Moduli (GPa) = 59.06621 87.83101 61.41340
#
# Poissons Ratio (x) = 0.22057 0.50622
# Poissons Ratio (y) = 0.14833 0.28817
# Poissons Ratio (z) = 0.48687 0.41213
#
# Static dielectric constant tensor:
#      x y z
#    x 3.690270 0.000000 0.000000 
#    y 0.000000 3.567430 0.000000 
#    z 0.000000 0.000000 3.418620 
# 
# 
# High freq. dielectric constant tensor:
#      x y z
#    x 1.729500 0.000000 0.000000 
#    y 0.000000 1.747580 0.000000 
#    z 0.000000 0.000000 1.736640 
# 
# From -- ./inp_files/36962.got.cif
#   From: 2010.03.12/outbox.cif.g09.slc.cpg/sg67_19_cif.got.tgz:36962.got - 2010.04.10 22:41:39.
