data_PCOD8279318
_publ_section_title
;
Structure prediction by ZEFSAII (Michael W. Deem and Ramdas Pophale) SiO2 
 PCOD8279318
Probable space group: C M M A
;
_chemical_formula_sum "Si O2"
_cell_formula_units_Z 88
_cell_length_a 24.000115
_cell_length_b 15.333426
_cell_length_c 11.847822
_cell_angle_alpha 90.000000
_cell_angle_beta 90.000000
_cell_angle_gamma 90.000000
_cell_volume 4360.045737
_symmetry_space_group_name_H-M "C M M A"
_symmetry_group_IT_number 67
_symmetry_cell_setting 'orthorhombic'
loop_
_space_group_symop_operation_xyz
x,y,z
-x,1/2-y,z
x,-y,-z
-x,1/2+y,-z
-x,-y,-z
x,1/2+y,-z
-x,y,z
x,1/2-y,z
1/2+x,1/2+y,z
1/2-x,-y,z
1/2+x,1/2-y,-z
1/2-x,y,-z
1/2-x,1/2-y,-z
1/2+x,y,-z
1/2-x,1/2+y,z
1/2+x,-y,z
loop_
_atom_site_type_symbol
_atom_site_label
_atom_site_fract_x
_atom_site_fract_y
_atom_site_fract_z
Si Si1 0.934801 0.848517 0.748855
Si Si2 0.112350 0.153741 0.709138
Si Si3 0.628472 0.000346 0.129451
Si Si4 0.936244 0.405408 0.490478
Si Si5 0.250000 0.500000 0.212260
Si Si6 0.764130 0.348934 0.627676
O O1 0.925211 0.750000 0.791251
O O2 0.913491 0.853719 0.618636
O O3 0.000000 0.874477 0.762928
O O4 0.895232 0.911164 0.820507
O O5 0.108196 0.250000 0.764497
O O6 0.100618 0.082546 0.805841
O O7 0.068550 0.147195 0.607095
O O8 0.170554 0.138919 0.646509
O O9 0.695404 0.012076 0.135611
O O10 0.610148 0.000000 0.000000
O O11 0.905911 0.500000 0.500000
O O12 0.000000 0.421776 0.463683
O O13 0.265806 0.584010 0.288331
O O14 0.744589 0.250000 0.654704
O O15 0.750000 0.374536 0.500000
#
# Coordination Sequence:
#
# PCOD8279318 Si02
#       6
#    16  16  16  16   8  16
#     4  10  22  40  63  92 122 154 197 246 300 363
#     4  10  21  36  56  83 117 150 188 238 293 353
#     4  11  24  41  61  83 116 160 210 255 296 344
#     4  10  19  34  59  90 121 151 184 232 297 364
#     4  10  22  38  58  82 114 157 203 246 294 350
#     4   9  19  33  52  82 115 145 182 231 291 358
#
# _framework density 20.183274999999998
#
# number of rings (size 3 to 8) (size 9 to 14) (size 15 to 20)
#    0.000    2.000    1.818    1.091    2.545    2.909 
#    0.000    0.000    0.000    5.455    0.000    0.000 
#    0.000    0.000    0.000    0.000    0.000    0.000 
#
# Total GULP energy -545457.919359 kJ/mol
# GULP energy per Si atom -12396.770895 kJ/mol
# Density = 2.013734 g / cm^3
# Si number density = 20.183275 Si / 1000 Ang^3
#
#
#
# Elastic Constant Matrix: (Units=GPa)
#
#
# Indices 1 2 3 4 5 6 
#
# 1 36.2229 28.4721 24.7618 0.0000 0.0000 0.0000
# 2 28.4721 131.1817 57.9307 0.0000 0.0000 0.0000
# 3 24.7618 57.9307 141.8470 0.0000 0.0000 0.0000
# 4 0.0000 0.0000 0.0000 10.3511 0.0000 0.0000
# 5 0.0000 0.0000 0.0000 0.0000 22.7781 0.0000
# 6 0.0000 0.0000 0.0000 0.0000 0.0000 26.8411
#
#
#
# Elastic Compliance Matrix: (Units=1/GPa)
#
#
# Indices 1 2 3 4 5 6 
#
# 1 0.034764 -0.005936 -0.003644 0.000000 0.000000 0.000000
# 2 -0.005936 0.010314 -0.003176 0.000000 0.000000 0.000000
# 3 -0.003644 -0.003176 0.008983 0.000000 0.000000 0.000000
# 4 0.000000 0.000000 0.000000 0.096608 0.000000 0.000000
# 5 0.000000 0.000000 0.000000 0.000000 0.043902 0.000000
# 6 0.000000 0.000000 0.000000 0.000000 0.000000 0.037256
#
#
# Mechanical properties :
#
#
# Convention : Reuss Voigt Hill
#
# Bulk Modulus (GPa) = 35.02829 59.06455 47.04642
# Shear Modulus (GPa) = 18.73672 25.19986 21.96829
#
# Velocity S-wave (km/s) = 3.05015 3.53732 3.30273
# Velocity P-wave (km/s) = 5.45870 6.78315 6.15664
#
# Compressibility (1/GPa) = 0.02854835
#
# Stress axis : x y z
#
# Youngs Moduli (GPa) = 28.76546 96.95645 111.31971
#
# Poissons Ratio (x) = 0.57552 0.40569
# Poissons Ratio (y) = 0.17075 0.35355
# Poissons Ratio (z) = 0.10483 0.30794
#
# Static dielectric constant tensor:
#      x y z
#    x 3.457040 0.000000 0.000000 
#    y 0.000000 3.857400 0.000000 
#    z 0.000000 0.000000 3.463800 
# 
# 
# High freq. dielectric constant tensor:
#      x y z
#    x 1.773980 0.000000 0.000000 
#    y 0.000000 1.801170 0.000000 
#    z 0.000000 0.000000 1.766410 
# 
# From -- ./inp_files/18124.got.cif
#   From: 2010.03.12/outbox.cif.g09.slc.cpg/sg67_10_cif.got.tgz:18124.got - 2010.04.10 22:41:39.
