data_PCOD8279932
_publ_section_title
;
Structure prediction by ZEFSAII (Michael W. Deem and Ramdas Pophale) SiO2 
 PCOD8279932
Probable space group: C M M A
;
_chemical_formula_sum "Si O2"
_cell_formula_units_Z 116
_cell_length_a 9.179276
_cell_length_b 29.097402
_cell_length_c 23.804930
_cell_angle_alpha 90.000000
_cell_angle_beta 90.000000
_cell_angle_gamma 90.000000
_cell_volume 6358.132164
_symmetry_space_group_name_H-M "C M M A"
_symmetry_group_IT_number 67
_symmetry_cell_setting 'orthorhombic'
loop_
_space_group_symop_operation_xyz
x,y,z
-x,1/2-y,z
x,-y,-z
-x,1/2+y,-z
-x,-y,-z
x,1/2+y,-z
-x,y,z
x,1/2-y,z
1/2+x,1/2+y,z
1/2-x,-y,z
1/2+x,1/2-y,-z
1/2-x,y,-z
1/2-x,1/2-y,-z
1/2+x,y,-z
1/2-x,1/2+y,z
1/2+x,-y,z
loop_
_atom_site_type_symbol
_atom_site_label
_atom_site_fract_x
_atom_site_fract_y
_atom_site_fract_z
Si Si1 0.170419 0.196849 0.723607
Si Si2 0.828997 0.640566 0.944249
Si Si3 0.336358 0.957111 0.607610
Si Si4 0.250000 0.500000 0.500000
Si Si5 0.671690 0.883982 0.328035
Si Si6 0.334626 0.803286 0.162899
Si Si7 0.669840 0.545098 0.105220
Si Si8 0.831514 0.044874 0.232619
O O1 0.200010 0.250000 0.708462
O O2 0.255942 0.166253 0.677805
O O3 0.231395 0.185022 0.785105
O O4 0.000000 0.185142 0.722228
O O5 0.774588 0.670100 0.891285
O O6 0.785734 0.587671 0.933736
O O7 0.000000 0.647140 0.952497
O O8 0.750000 0.658557 0.000000
O O9 0.500000 0.953901 0.631972
O O10 0.345334 0.966515 0.540290
O O11 0.247558 0.910412 0.620036
O O12 0.250000 0.000000 0.636546
O O13 0.500000 0.879228 0.339808
O O14 0.707571 0.911731 0.271137
O O15 0.500000 0.819256 0.177894
O O16 0.331110 0.750000 0.147797
O O17 0.500000 0.535082 0.102198
O O18 0.750000 0.500000 0.082132
O O19 0.717316 0.556745 0.169123
O O20 0.000000 0.033120 0.235845
O O21 0.750000 0.000000 0.255262
#
# Coordination Sequence:
#
# PCOD8279932 Si02
#       8
#    16  16  16   4  16  16  16  16
#     4  10  21  36  54  78 107 137 173 219 268 319
#     4  10  21  35  50  70  95 122 157 205 255 306
#     4  10  20  34  53  78 112 151 192 232 270 310
#     4   8  22  36  58  76 116 160 198 236 272 308
#     4  11  21  32  51  78 109 145 182 220 267 318
#     4   9  18  35  57  76  97 128 162 199 254 322
#     4   9  18  33  49  64  88 122 160 199 243 295
#     4   9  18  31  47  70  99 131 165 204 251 308
#
# _framework density 18.244353
#
# number of rings (size 3 to 8) (size 9 to 14) (size 15 to 20)
#    0.414    1.931    0.000    2.690    0.000    6.897 
#    0.000    4.138    0.000    0.000    0.000    0.483 
#    0.000    0.000    0.000    0.000    0.000    0.000 
#
# Total GULP energy -719129.119823 kJ/mol
# GULP energy per Si atom -12398.777928 kJ/mol
# Density = 1.820283 g / cm^3
# Si number density = 18.244353 Si / 1000 Ang^3
#
#
#
# Elastic Constant Matrix: (Units=GPa)
#
#
# Indices 1 2 3 4 5 6 
#
# 1 97.8707 51.9078 38.7979 0.0000 0.0000 0.0000
# 2 51.9078 93.6085 42.5404 0.0000 0.0000 0.0000
# 3 38.7979 42.5404 71.0102 0.0000 0.0000 0.0000
# 4 0.0000 0.0000 0.0000 27.5745 0.0000 0.0000
# 5 0.0000 0.0000 0.0000 0.0000 24.0292 0.0000
# 6 0.0000 0.0000 0.0000 0.0000 0.0000 30.3889
#
#
#
# Elastic Compliance Matrix: (Units=1/GPa)
#
#
# Indices 1 2 3 4 5 6 
#
# 1 0.015477 -0.006512 -0.004555 0.000000 0.000000 0.000000
# 2 -0.006512 0.017420 -0.006877 0.000000 0.000000 0.000000
# 3 -0.004555 -0.006877 0.020691 0.000000 0.000000 0.000000
# 4 0.000000 0.000000 0.000000 0.036265 0.000000 0.000000
# 5 0.000000 0.000000 0.000000 0.000000 0.041616 0.000000
# 6 0.000000 0.000000 0.000000 0.000000 0.000000 0.032907
#
#
# Mechanical properties :
#
#
# Convention : Reuss Voigt Hill
#
# Bulk Modulus (GPa) = 56.50183 58.77573 57.63878
# Shear Modulus (GPa) = 24.25242 25.01473 24.63358
#
# Velocity S-wave (km/s) = 3.64993 3.70685 3.67850
# Velocity P-wave (km/s) = 6.98565 7.11384 7.05004
#
# Compressibility (1/GPa) = 0.01769854
#
# Stress axis : x y z
#
# Youngs Moduli (GPa) = 64.61107 57.40686 48.32980
#
# Poissons Ratio (x) = 0.37386 0.22013
# Poissons Ratio (y) = 0.42078 0.33238
# Poissons Ratio (z) = 0.29429 0.39481
#
# Static dielectric constant tensor:
#      x y z
#    x 3.289520 0.000000 0.000000 
#    y 0.000000 3.419850 0.000000 
#    z 0.000000 0.000000 3.147740 
# 
# 
# High freq. dielectric constant tensor:
#      x y z
#    x 1.706810 0.000000 0.000000 
#    y 0.000000 1.702420 0.000000 
#    z 0.000000 0.000000 1.683380 
# 
# From -- ./inp_files/41219.got.cif
#   From: 2010.03.12/outbox.cif.g09.slc.cpg/sg67_21_cif.got.tgz:41219.got - 2010.04.10 22:41:39.
