data_PCOD8279410
_publ_section_title
;
Structure prediction by ZEFSAII (Michael W. Deem and Ramdas Pophale) SiO2 
 PCOD8279410
Probable space group: C M M A
;
_chemical_formula_sum "Si O2"
_cell_formula_units_Z 88
_cell_length_a 14.201358
_cell_length_b 13.821341
_cell_length_c 20.997123
_cell_angle_alpha 90.000000
_cell_angle_beta 90.000000
_cell_angle_gamma 90.000000
_cell_volume 4121.353340
_symmetry_space_group_name_H-M "C M M A"
_symmetry_group_IT_number 67
_symmetry_cell_setting 'orthorhombic'
loop_
_space_group_symop_operation_xyz
x,y,z
-x,1/2-y,z
x,-y,-z
-x,1/2+y,-z
-x,-y,-z
x,1/2+y,-z
-x,y,z
x,1/2-y,z
1/2+x,1/2+y,z
1/2-x,-y,z
1/2+x,1/2-y,-z
1/2-x,y,-z
1/2-x,1/2-y,-z
1/2+x,y,-z
1/2-x,1/2+y,z
1/2+x,-y,z
loop_
_atom_site_type_symbol
_atom_site_label
_atom_site_fract_x
_atom_site_fract_y
_atom_site_fract_z
Si Si1 0.250000 0.000000 0.201514
Si Si2 0.651362 0.967676 0.599816
Si Si3 0.722923 0.646855 0.102477
Si Si4 0.604273 0.389982 0.016474
Si Si5 0.894572 0.141844 0.480423
Si Si6 0.605226 0.863214 0.723100
O O1 0.189336 0.069645 0.154968
O O2 0.321425 0.067758 0.240378
O O3 0.669831 0.900252 0.537549
O O4 0.595918 0.904863 0.651532
O O5 0.750000 0.000000 0.630112
O O6 0.601647 0.068611 0.579699
O O7 0.728951 0.750000 0.137535
O O8 0.828072 0.622401 0.077097
O O9 0.649756 0.659507 0.045060
O O10 0.500000 0.346308 0.030541
O O11 0.595028 0.500000 0.000000
O O12 0.860588 0.250000 0.460071
O O13 0.000000 0.146661 0.508393
O O14 0.500000 0.870442 0.753046
O O15 0.637959 0.750000 0.722581
#
# Coordination Sequence:
#
# PCOD8279410 Si02
#       6
#     8  16  16  16  16  16
#     4  12  24  45  62  93 126 164 214 278 316 362
#     4  11  21  37  60  89 124 164 207 264 316 379
#     4  11  22  38  62  90 126 165 202 251 313 374
#     4  10  19  36  62  92 128 165 200 245 309 378
#     4  10  20  34  57  91 128 163 202 253 317 386
#     4  11  25  46  70  92 120 168 223 269 319 380
#
# _framework density 21.352208999999998
#
# number of rings (size 3 to 8) (size 9 to 14) (size 15 to 20)
#    0.000    1.273    2.727    6.000    0.000    6.545 
#    0.000    0.000    0.000    2.727    0.000    0.000 
#    0.000    0.000    0.000    0.000    0.000    0.000 
#
# Total GULP energy -545136.658838 kJ/mol
# GULP energy per Si atom -12389.469519 kJ/mol
# Density = 2.130361 g / cm^3
# Si number density = 21.352209 Si / 1000 Ang^3
#
#
#
# Elastic Constant Matrix: (Units=GPa)
#
#
# Indices 1 2 3 4 5 6 
#
# 1 106.5460 34.6910 21.5354 0.0000 0.0000 0.0000
# 2 34.6910 201.1192 60.9650 0.0000 0.0000 0.0000
# 3 21.5354 60.9650 85.4302 0.0000 0.0000 0.0000
# 4 0.0000 0.0000 0.0000 15.0768 0.0000 0.0000
# 5 0.0000 0.0000 0.0000 0.0000 20.1861 0.0000
# 6 0.0000 0.0000 0.0000 0.0000 0.0000 23.1932
#
#
#
# Elastic Compliance Matrix: (Units=1/GPa)
#
#
# Indices 1 2 3 4 5 6 
#
# 1 0.010127 -0.001242 -0.001667 0.000000 0.000000 0.000000
# 2 -0.001242 0.006497 -0.004323 0.000000 0.000000 0.000000
# 3 -0.001667 -0.004323 0.015211 0.000000 0.000000 0.000000
# 4 0.000000 0.000000 0.000000 0.066327 0.000000 0.000000
# 5 0.000000 0.000000 0.000000 0.000000 0.049539 0.000000
# 6 0.000000 0.000000 0.000000 0.000000 0.000000 0.043116
#
#
# Mechanical properties :
#
#
# Convention : Reuss Voigt Hill
#
# Bulk Modulus (GPa) = 57.56664 69.71979 63.64321
# Shear Modulus (GPa) = 23.68878 30.08482 26.88680
#
# Velocity S-wave (km/s) = 3.33442 3.75771 3.55238
# Velocity P-wave (km/s) = 6.46866 7.17986 6.83352
#
# Compressibility (1/GPa) = 0.01737117
#
# Stress axis : x y z
#
# Youngs Moduli (GPa) = 98.74839 153.92069 65.74249
#
# Poissons Ratio (x) = 0.19109 0.10958
# Poissons Ratio (y) = 0.12260 0.28423
# Poissons Ratio (z) = 0.16459 0.66545
#
# Static dielectric constant tensor:
#      x y z
#    x 4.594520 0.000000 0.000000 
#    y 0.000000 4.272920 0.000000 
#    z 0.000000 0.000000 3.601140 
# 
# 
# High freq. dielectric constant tensor:
#      x y z
#    x 1.831460 0.000000 0.000000 
#    y 0.000000 1.865410 0.000000 
#    z 0.000000 0.000000 1.806590 
# 
# From -- ./inp_files/38312.got.cif
#   From: 2010.03.12/outbox.cif.g09.slc.cpg/sg67_20_cif.got.tgz:38312.got - 2010.04.10 22:41:39.
