data_PCOD8279113
_publ_section_title
;
Structure prediction by ZEFSAII (Michael W. Deem and Ramdas Pophale) SiO2 
 PCOD8279113
Probable space group: C M M A
;
_chemical_formula_sum "Si O2"
_cell_formula_units_Z 96
_cell_length_a 8.974369
_cell_length_b 18.817055
_cell_length_c 31.350139
_cell_angle_alpha 90.000000
_cell_angle_beta 90.000000
_cell_angle_gamma 90.000000
_cell_volume 5294.135438
_symmetry_space_group_name_H-M "C M M A"
_symmetry_group_IT_number 67
_symmetry_cell_setting 'orthorhombic'
loop_
_space_group_symop_operation_xyz
x,y,z
-x,1/2-y,z
x,-y,-z
-x,1/2+y,-z
-x,-y,-z
x,1/2+y,-z
-x,y,z
x,1/2-y,z
1/2+x,1/2+y,z
1/2-x,-y,z
1/2+x,1/2-y,-z
1/2-x,y,-z
1/2-x,1/2-y,-z
1/2+x,y,-z
1/2-x,1/2+y,z
1/2+x,-y,z
loop_
_atom_site_type_symbol
_atom_site_label
_atom_site_fract_x
_atom_site_fract_y
_atom_site_fract_z
Si Si1 0.668252 0.334637 0.541943
Si Si2 0.824476 0.422937 0.115559
Si Si3 0.670446 0.426634 0.791944
Si Si4 0.175709 0.922981 0.699410
Si Si5 0.328583 0.833988 0.627157
Si Si6 0.828243 0.833727 0.043153
O O1 0.500000 0.364096 0.543138
O O2 0.668338 0.250000 0.540736
O O3 0.750000 0.364995 0.500000
O O4 0.755801 0.362236 0.583416
O O5 0.750000 0.500000 0.110986
O O6 0.793854 0.387821 0.162927
O O7 0.752310 0.369112 0.082812
O O8 0.000000 0.430345 0.106486
O O9 0.500000 0.447211 0.790821
O O10 0.750000 0.500000 0.793348
O O11 0.710571 0.388894 0.746785
O O12 0.243916 0.868139 0.666519
O O13 0.000000 0.930460 0.691155
O O14 0.250000 0.000000 0.694135
O O15 0.500000 0.857428 0.627396
O O16 0.310551 0.750000 0.631185
O O17 0.809623 0.750000 0.048430
O O18 0.000000 0.856873 0.041664
O O19 0.750000 0.860616 0.000000
#
# Coordination Sequence:
#
# PCOD8279113 Si02
#       6
#    16  16  16  16  16  16
#     4   9  16  27  45  69  96 127 163 203 248 297
#     4  10  19  33  54  79 105 131 164 207 252 295
#     4   8  16  30  49  73  99 129 164 203 246 293
#     4  10  19  33  53  75 100 132 170 207 247 298
#     4  10  20  33  49  72 102 133 167 209 253 294
#     4  10  21  37  55  75 101 134 170 206 247 297
#
# _framework density 18.133272000000002
#
# number of rings (size 3 to 8) (size 9 to 14) (size 15 to 20)
#    0.000    2.500    0.000    2.500    0.000    5.667 
#    0.000    2.500    0.000    5.500    0.000    3.500 
#    0.000    0.000    0.000    0.000    0.000    0.000 
#
# Total GULP energy -594782.899928 kJ/mol
# GULP energy per Si atom -12391.310415 kJ/mol
# Density = 1.809200 g / cm^3
# Si number density = 18.133272 Si / 1000 Ang^3
#
#
#
# Elastic Constant Matrix: (Units=GPa)
#
#
# Indices 1 2 3 4 5 6 
#
# 1 137.5966 31.0424 91.1585 0.0000 0.0000 0.0000
# 2 31.0424 21.3481 37.6388 0.0000 0.0000 0.0000
# 3 91.1585 37.6388 191.9873 0.0000 0.0000 0.0000
# 4 0.0000 0.0000 0.0000 -11.9300 0.0000 0.0000
# 5 0.0000 0.0000 0.0000 0.0000 34.8278 0.0000
# 6 0.0000 0.0000 0.0000 0.0000 0.0000 26.5547
#
#
#
# Elastic Compliance Matrix: (Units=1/GPa)
#
#
# Indices 1 2 3 4 5 6 
#
# 1 0.012211 -0.011513 -0.003541 0.000000 0.000000 0.000000
# 2 -0.011513 0.082442 -0.010696 0.000000 0.000000 0.000000
# 3 -0.003541 -0.010696 0.008987 0.000000 0.000000 0.000000
# 4 0.000000 0.000000 0.000000 -0.083822 0.000000 0.000000
# 5 0.000000 0.000000 0.000000 0.000000 0.028713 0.000000
# 6 0.000000 0.000000 0.000000 0.000000 0.000000 0.037658
#
#
# Mechanical properties :
#
#
# Convention : Reuss Voigt Hill
#
# Bulk Modulus (GPa) = 19.17925 74.51238 46.84581
# Shear Modulus (GPa) = 32.24400 22.62996 27.43698
#
# Velocity S-wave (km/s) = 4.22141 3.53651 3.89405
# Velocity P-wave (km/s) = 5.86175 7.60635 6.79031
#
# Compressibility (1/GPa) = 0.05213967
#
# Stress axis : x y z
#
# Youngs Moduli (GPa) = 81.89486 12.12980 111.27415
#
# Poissons Ratio (x) = 0.13965 0.39399
# Poissons Ratio (y) = 0.94286 1.19019
# Poissons Ratio (z) = 0.28997 0.12974
#
# Static dielectric constant tensor:
#      x y z
#    x 3.604990 0.000000 0.000000 
#    y 0.000000 2.824790 0.000000 
#    z 0.000000 0.000000 4.125960 
# 
# 
# High freq. dielectric constant tensor:
#      x y z
#    x 1.723070 0.000000 0.000000 
#    y 0.000000 1.648120 0.000000 
#    z 0.000000 0.000000 1.729960 
# 
# From -- ./inp_files/43418.got.cif
#   From: 2010.03.12/outbox.cif.g09.slc.cpg/sg67_22_cif.got.tgz:43418.got - 2010.04.10 22:41:39.
