data_PCOD8279521
_publ_section_title
;
Structure prediction by ZEFSAII (Michael W. Deem and Ramdas Pophale) SiO2 
 PCOD8279521
Probable space group: C M M A
;
_chemical_formula_sum "Si O2"
_cell_formula_units_Z 96
_cell_length_a 9.235970
_cell_length_b 19.555132
_cell_length_c 30.494799
_cell_angle_alpha 90.000000
_cell_angle_beta 90.000000
_cell_angle_gamma 90.000000
_cell_volume 5507.684325
_symmetry_space_group_name_H-M "C M M A"
_symmetry_group_IT_number 67
_symmetry_cell_setting 'orthorhombic'
loop_
_space_group_symop_operation_xyz
x,y,z
-x,1/2-y,z
x,-y,-z
-x,1/2+y,-z
-x,-y,-z
x,1/2+y,-z
-x,y,z
x,1/2-y,z
1/2+x,1/2+y,z
1/2-x,-y,z
1/2+x,1/2-y,-z
1/2-x,y,-z
1/2-x,1/2-y,-z
1/2+x,y,-z
1/2-x,1/2+y,z
1/2+x,-y,z
loop_
_atom_site_type_symbol
_atom_site_label
_atom_site_fract_x
_atom_site_fract_y
_atom_site_fract_z
Si Si1 0.832135 0.067117 0.615691
Si Si2 0.838240 0.331333 0.863487
Si Si3 0.832601 0.330797 0.220598
Si Si4 0.668273 0.828728 0.959296
Si Si5 0.829027 0.930405 0.283484
Si Si6 0.669505 0.827879 0.542919
O O1 0.795074 0.085206 0.665786
O O2 0.781164 0.129816 0.585474
O O3 0.000000 0.051649 0.609806
O O4 0.750000 0.000000 0.599618
O O5 0.841752 0.250000 0.866549
O O6 0.724569 0.355894 0.826892
O O7 0.791680 0.360715 0.911476
O O8 0.000000 0.357499 0.851240
O O9 0.810598 0.250000 0.226404
O O10 0.737630 0.366954 0.257568
O O11 0.000000 0.351815 0.224875
O O12 0.500000 0.837020 0.968253
O O13 0.716352 0.750000 0.958242
O O14 0.750000 0.865808 0.000000
O O15 0.000000 0.936770 0.274272
O O16 0.750000 0.000000 0.268489
O O17 0.500000 0.834750 0.534214
O O18 0.715806 0.750000 0.552109
O O19 0.750000 0.856664 0.500000
#
# Coordination Sequence:
#
# PCOD8279521 Si02
#       6
#    16  16  16  16  16  16
#     4   9  19  34  52  73  96 124 157 195 236 280
#     4   8  14  25  39  56  82 117 155 193 234 282
#     4  10  20  32  47  70  98 126 159 200 243 288
#     4   8  13  20  31  49  75 109 148 187 228 277
#     4  10  20  35  54  73  96 127 161 199 244 291
#     4   9  18  33  51  72  99 129 161 195 231 273
#
# _framework density 17.430192000000002
#
# number of rings (size 3 to 8) (size 9 to 14) (size 15 to 20)
#    0.000    3.000    0.000    2.000    0.000    4.000 
#    0.000    6.667    0.000    2.000    0.000    0.000 
#    0.000    0.667    0.000    7.000    0.000   10.167 
#
# Total GULP energy -594996.738684 kJ/mol
# GULP energy per Si atom -12395.765389 kJ/mol
# Density = 1.739052 g / cm^3
# Si number density = 17.430192 Si / 1000 Ang^3
#
#
#
# Elastic Constant Matrix: (Units=GPa)
#
#
# Indices 1 2 3 4 5 6 
#
# 1 78.0165 37.7837 59.1407 0.0000 0.0000 0.0000
# 2 37.7837 51.9858 52.8767 0.0000 0.0000 0.0000
# 3 59.1407 52.8767 123.8663 0.0000 0.0000 0.0000
# 4 0.0000 0.0000 0.0000 4.0525 0.0000 0.0000
# 5 0.0000 0.0000 0.0000 0.0000 34.0261 0.0000
# 6 0.0000 0.0000 0.0000 0.0000 0.0000 23.4839
#
#
#
# Elastic Compliance Matrix: (Units=1/GPa)
#
#
# Indices 1 2 3 4 5 6 
#
# 1 0.022505 -0.009593 -0.006650 0.000000 0.000000 0.000000
# 2 -0.009593 0.038087 -0.011679 0.000000 0.000000 0.000000
# 3 -0.006650 -0.011679 0.016234 0.000000 0.000000 0.000000
# 4 0.000000 0.000000 0.000000 0.246763 0.000000 0.000000
# 5 0.000000 0.000000 0.000000 0.000000 0.029389 0.000000
# 6 0.000000 0.000000 0.000000 0.000000 0.000000 0.042582
#
#
# Mechanical properties :
#
#
# Convention : Reuss Voigt Hill
#
# Bulk Modulus (GPa) = 47.65840 61.49678 54.57759
# Shear Modulus (GPa) = 10.90758 19.25032 15.07895
#
# Velocity S-wave (km/s) = 2.50429 3.32689 2.94446
# Velocity P-wave (km/s) = 5.98028 7.07926 6.55285
#
# Compressibility (1/GPa) = 0.02098266
#
# Stress axis : x y z
#
# Youngs Moduli (GPa) = 44.43530 26.25580 61.59991
#
# Poissons Ratio (x) = 0.25186 0.40964
# Poissons Ratio (y) = 0.42625 0.71941
# Poissons Ratio (z) = 0.29550 0.30663
#
# Static dielectric constant tensor:
#      x y z
#    x 3.271250 0.000000 0.000000 
#    y 0.000000 2.901520 0.000000 
#    z 0.000000 0.000000 3.619210 
# 
# 
# High freq. dielectric constant tensor:
#      x y z
#    x 1.675840 0.000000 0.000000 
#    y 0.000000 1.626550 0.000000 
#    z 0.000000 0.000000 1.686950 
# 
# From -- ./inp_files/43673.got.cif
#   From: 2010.03.12/outbox.cif.g09.slc.cpg/sg67_22_cif.got.tgz:43673.got - 2010.04.10 22:41:39.
