data_PCOD8279776
_publ_section_title
;
Structure prediction by ZEFSAII (Michael W. Deem and Ramdas Pophale) SiO2 
 PCOD8279776
Probable space group: C M M A
;
_chemical_formula_sum "Si O2"
_cell_formula_units_Z 64
_cell_length_a 27.362257
_cell_length_b 10.318731
_cell_length_c 13.659862
_cell_angle_alpha 90.000000
_cell_angle_beta 90.000000
_cell_angle_gamma 90.000000
_cell_volume 3856.776928
_symmetry_space_group_name_H-M "C M M A"
_symmetry_group_IT_number 67
_symmetry_cell_setting 'orthorhombic'
loop_
_space_group_symop_operation_xyz
x,y,z
-x,1/2-y,z
x,-y,-z
-x,1/2+y,-z
-x,-y,-z
x,1/2+y,-z
-x,y,z
x,1/2-y,z
1/2+x,1/2+y,z
1/2-x,-y,z
1/2+x,1/2-y,-z
1/2-x,y,-z
1/2-x,1/2-y,-z
1/2+x,y,-z
1/2-x,1/2+y,z
1/2+x,-y,z
loop_
_atom_site_type_symbol
_atom_site_label
_atom_site_fract_x
_atom_site_fract_y
_atom_site_fract_z
Si Si1 0.608743 0.600880 0.420426
Si Si2 0.221892 0.388270 0.396782
Si Si3 0.941910 0.750000 0.139370
Si Si4 0.942057 0.523581 0.778730
Si Si5 0.442169 0.250000 0.920447
O O1 0.587249 0.500000 0.500000
O O2 0.598958 0.750000 0.452930
O O3 0.665989 0.573262 0.410178
O O4 0.582333 0.572706 0.319558
O O5 0.225773 0.250000 0.341768
O O6 0.250000 0.500000 0.334400
O O7 0.250000 0.378178 0.500000
O O8 0.923834 0.621566 0.196066
O O9 0.000000 0.750000 0.132898
O O10 0.919736 0.750000 0.029603
O O11 0.924787 0.620238 0.864820
O O12 0.000000 0.528727 0.764805
O O13 0.500000 0.250000 0.927509
#
# Coordination Sequence:
#
# PCOD8279776 Si02
#       5
#    16  16   8  16   8
#     4  11  22  33  49  70  99 138 166 200 239 285
#     4   9  16  30  48  68  89 119 156 207 245 275
#     4   9  18  32  53  75  93 126 167 209 250 281
#     4  10  20  34  48  72 105 131 166 202 236 294
#     4   9  16  32  55  71  93 128 163 207 254 283
#
# _framework density 16.594166999999999
#
# number of rings (size 3 to 8) (size 9 to 14) (size 15 to 20)
#    0.000    2.250    3.750    0.750    1.750    3.500 
#    0.000    0.000    0.000    0.000    0.000    0.000 
#    0.000    6.000    0.000    0.000    0.000    0.000 
#
# Total GULP energy -396518.126798 kJ/mol
# GULP energy per Si atom -12391.191462 kJ/mol
# Density = 1.655640 g / cm^3
# Si number density = 16.594167 Si / 1000 Ang^3
#
#
#
# Elastic Constant Matrix: (Units=GPa)
#
#
# Indices 1 2 3 4 5 6 
#
# 1 37.0668 22.1104 23.0751 0.0000 0.0000 0.0000
# 2 22.1104 155.9478 36.3545 0.0000 0.0000 0.0000
# 3 23.0751 36.3545 64.8972 0.0000 0.0000 0.0000
# 4 0.0000 0.0000 0.0000 40.5787 0.0000 0.0000
# 5 0.0000 0.0000 0.0000 0.0000 -5.1675 0.0000
# 6 0.0000 0.0000 0.0000 0.0000 0.0000 27.9565
#
#
#
# Elastic Compliance Matrix: (Units=1/GPa)
#
#
# Indices 1 2 3 4 5 6 
#
# 1 0.035411 -0.002399 -0.011247 0.000000 0.000000 0.000000
# 2 -0.002399 0.007538 -0.003370 0.000000 0.000000 0.000000
# 3 -0.011247 -0.003370 0.021296 0.000000 0.000000 0.000000
# 4 0.000000 0.000000 0.000000 0.024643 0.000000 0.000000
# 5 0.000000 0.000000 0.000000 0.000000 -0.193517 0.000000
# 6 0.000000 0.000000 0.000000 0.000000 0.000000 0.035770
#
#
# Mechanical properties :
#
#
# Convention : Reuss Voigt Hill
#
# Bulk Modulus (GPa) = 33.09788 46.77687 39.93738
# Shear Modulus (GPa) = -201.96867 24.43166 -88.76850
#
# Velocity S-wave (km/s) = -11.04422 3.84122 -7.32188
# Velocity P-wave (km/s) = 11.94338 6.92266 6.88190
#
# Compressibility (1/GPa) = 0.03021341
#
# Stress axis : x y z
#
# Youngs Moduli (GPa) = 28.23998 132.66016 46.95763
#
# Poissons Ratio (x) = 0.31821 0.52814
# Poissons Ratio (y) = 0.06774 0.15824
# Poissons Ratio (z) = 0.31762 0.44704
#
# Static dielectric constant tensor:
#      x y z
#    x 2.927780 0.000000 0.000000 
#    y 0.000000 7.502220 0.000000 
#    z 0.000000 0.000000 2.930900 
# 
# 
# High freq. dielectric constant tensor:
#      x y z
#    x 1.601680 0.000000 0.000000 
#    y 0.000000 1.675190 0.000000 
#    z 0.000000 0.000000 1.604270 
# 
# From -- ./inp_files/6750.got.cif
#   From: 2010.03.12/outbox.cif.g09.slc.cpg/sg67_4_cif.got.tgz:6750.got - 2010.04.10 22:41:39.
