data_PCOD8279884
_publ_section_title
;
Structure prediction by ZEFSAII (Michael W. Deem and Ramdas Pophale) SiO2 
 PCOD8279884
Probable space group: C M M A
;
_chemical_formula_sum "Si O2"
_cell_formula_units_Z 104
_cell_length_a 8.915979
_cell_length_b 30.109975
_cell_length_c 23.014710
_cell_angle_alpha 90.000000
_cell_angle_beta 90.000000
_cell_angle_gamma 90.000000
_cell_volume 6178.526855
_symmetry_space_group_name_H-M "C M M A"
_symmetry_group_IT_number 67
_symmetry_cell_setting 'orthorhombic'
loop_
_space_group_symop_operation_xyz
x,y,z
-x,1/2-y,z
x,-y,-z
-x,1/2+y,-z
-x,-y,-z
x,1/2+y,-z
-x,y,z
x,1/2-y,z
1/2+x,1/2+y,z
1/2-x,-y,z
1/2+x,1/2-y,-z
1/2-x,y,-z
1/2-x,1/2-y,-z
1/2+x,y,-z
1/2-x,1/2+y,z
1/2+x,-y,z
loop_
_atom_site_type_symbol
_atom_site_label
_atom_site_fract_x
_atom_site_fract_y
_atom_site_fract_z
Si Si1 0.822022 0.132258 0.223063
Si Si2 0.175050 0.199539 0.326122
Si Si3 0.830236 0.424274 0.941565
Si Si4 0.171015 0.167920 0.889885
Si Si5 0.673070 0.750000 0.060791
Si Si6 0.832699 0.197251 0.556440
Si Si7 0.319207 0.453482 0.185636
O O1 0.783391 0.163491 0.277512
O O2 0.721540 0.151160 0.171995
O O3 0.759371 0.082021 0.229372
O O4 0.000000 0.132335 0.209649
O O5 0.227864 0.250000 0.308872
O O6 0.251938 0.182224 0.384713
O O7 0.000000 0.200321 0.338239
O O8 0.814821 0.370958 0.937608
O O9 0.767140 0.445107 0.881494
O O10 0.000000 0.439457 0.948616
O O11 0.750000 0.441704 0.000000
O O12 0.283730 0.206913 0.903858
O O13 0.000000 0.185074 0.886989
O O14 0.500000 0.750000 0.048811
O O15 0.750000 0.750000 0.000000
O O16 0.833289 0.250000 0.552403
O O17 0.750000 0.177108 0.500000
O O18 0.000000 0.177906 0.557233
O O19 0.500000 0.451518 0.191477
O O20 0.250000 0.500000 0.205664
#
# Coordination Sequence:
#
# PCOD8279884 Si02
#       7
#    16  16  16  16   8  16  16
#     4  10  20  34  53  75 100 131 164 203 250 296
#     4   9  18  31  47  70 102 137 172 208 242 286
#     4   9  19  33  50  70  93 117 146 186 236 294
#     4  10  21  36  50  68  93 124 160 201 245 290
#     4  12  24  36  50  68  90 120 161 204 247 296
#     4   9  16  26  42  65  95 133 174 211 247 284
#     4  10  21  37  54  73  97 124 158 201 249 305
#
# _framework density 16.832491999999998
#
# number of rings (size 3 to 8) (size 9 to 14) (size 15 to 20)
#    0.000    2.308    0.000    3.923    1.077    8.308 
#    0.000    1.538    0.000    0.000    0.000    0.000 
#    0.000    0.615    0.000    6.462    0.000    3.077 
#
# Total GULP energy -644566.636009 kJ/mol
# GULP energy per Si atom -12395.512231 kJ/mol
# Density = 1.679418 g / cm^3
# Si number density = 16.832492 Si / 1000 Ang^3
#
#
#
# Elastic Constant Matrix: (Units=GPa)
#
#
# Indices 1 2 3 4 5 6 
#
# 1 83.3471 30.3281 38.2608 0.0000 0.0000 0.0000
# 2 30.3281 86.4105 33.8291 0.0000 0.0000 0.0000
# 3 38.2608 33.8291 89.3420 0.0000 0.0000 0.0000
# 4 0.0000 0.0000 0.0000 9.9817 0.0000 0.0000
# 5 0.0000 0.0000 0.0000 0.0000 29.9836 0.0000
# 6 0.0000 0.0000 0.0000 0.0000 0.0000 23.1979
#
#
#
# Elastic Compliance Matrix: (Units=1/GPa)
#
#
# Indices 1 2 3 4 5 6 
#
# 1 0.015735 -0.003387 -0.005456 0.000000 0.000000 0.000000
# 2 -0.003387 0.014316 -0.003970 0.000000 0.000000 0.000000
# 3 -0.005456 -0.003970 0.015033 0.000000 0.000000 0.000000
# 4 0.000000 0.000000 0.000000 0.100184 0.000000 0.000000
# 5 0.000000 0.000000 0.000000 0.000000 0.033352 0.000000
# 6 0.000000 0.000000 0.000000 0.000000 0.000000 0.043107
#
#
# Mechanical properties :
#
#
# Convention : Reuss Voigt Hill
#
# Bulk Modulus (GPa) = 51.39427 51.54841 51.47134
# Shear Modulus (GPa) = 19.69759 23.07805 21.38782
#
# Velocity S-wave (km/s) = 3.42455 3.70678 3.56845
# Velocity P-wave (km/s) = 6.79969 7.00079 6.90097
#
# Compressibility (1/GPa) = 0.01945742
#
# Stress axis : x y z
#
# Youngs Moduli (GPa) = 63.55249 69.85384 66.52068
#
# Poissons Ratio (x) = 0.23656 0.36295
# Poissons Ratio (y) = 0.21522 0.26411
# Poissons Ratio (z) = 0.34676 0.27734
#
# Static dielectric constant tensor:
#      x y z
#    x 3.213200 0.000000 0.000000 
#    y 0.000000 3.181300 0.000000 
#    z 0.000000 0.000000 3.030680 
# 
# 
# High freq. dielectric constant tensor:
#      x y z
#    x 1.662360 0.000000 0.000000 
#    y 0.000000 1.627230 0.000000 
#    z 0.000000 0.000000 1.628650 
# 
# From -- ./inp_files/37517.got.cif
#   From: 2010.03.12/outbox.cif.g09.slc.cpg/sg67_19_cif.got.tgz:37517.got - 2010.04.10 22:41:39.
