data_PCOD8279735
_publ_section_title
;
Structure prediction by ZEFSAII (Michael W. Deem and Ramdas Pophale) SiO2 
 PCOD8279735
Probable space group: C M M A
;
_chemical_formula_sum "Si O2"
_cell_formula_units_Z 72
_cell_length_a 8.829292
_cell_length_b 30.449044
_cell_length_c 14.652940
_cell_angle_alpha 90.000000
_cell_angle_beta 90.000000
_cell_angle_gamma 90.000000
_cell_volume 3939.347684
_symmetry_space_group_name_H-M "C M M A"
_symmetry_group_IT_number 67
_symmetry_cell_setting 'orthorhombic'
loop_
_space_group_symop_operation_xyz
x,y,z
-x,1/2-y,z
x,-y,-z
-x,1/2+y,-z
-x,-y,-z
x,1/2+y,-z
-x,y,z
x,1/2-y,z
1/2+x,1/2+y,z
1/2-x,-y,z
1/2+x,1/2-y,-z
1/2-x,y,-z
1/2-x,1/2-y,-z
1/2+x,y,-z
1/2-x,1/2+y,z
1/2+x,-y,z
loop_
_atom_site_type_symbol
_atom_site_label
_atom_site_fract_x
_atom_site_fract_y
_atom_site_fract_z
Si Si1 0.679669 0.046805 0.904880
Si Si2 0.322234 0.700880 0.904484
Si Si3 0.322923 0.655260 0.597053
Si Si4 0.322109 0.750000 0.596974
Si Si5 0.822299 0.119123 0.784564
O O1 0.500000 0.042636 0.914713
O O2 0.721834 0.080435 0.825443
O O3 0.750000 0.000000 0.878825
O O4 0.750000 0.063951 0.000000
O O5 0.500000 0.700572 0.918715
O O6 0.268629 0.750000 0.874227
O O7 0.273558 0.665519 0.828968
O O8 0.250000 0.686858 0.000000
O O9 0.500000 0.655952 0.577906
O O10 0.250000 0.642528 0.500000
O O11 0.271060 0.703118 0.639403
O O12 0.283265 0.620493 0.676405
O O13 0.500000 0.750000 0.590082
O O14 0.250000 0.750000 0.500000
O O15 0.000000 0.109853 0.801209
#
# Coordination Sequence:
#
# PCOD8279735 Si02
#       5
#    16  16  16   8  16
#     4  11  22  38  60  84 110 137 169 213 264 319
#     4   9  18  31  47  68  99 138 176 212 252 303
#     4   9  18  31  49  72 103 140 181 225 267 311
#     4   8  14  26  44  66  93 132 177 220 263 302
#     4  10  20  33  52  78 106 140 179 219 264 316
#
# _framework density 18.277138999999998
#
# number of rings (size 3 to 8) (size 9 to 14) (size 15 to 20)
#    0.000    2.444    0.000    3.333    1.556    3.556 
#    0.000    0.000    0.000    0.667    0.000    4.667 
#    0.000    0.000    0.000    0.000    0.000    0.000 
#
# Total GULP energy -446035.845130 kJ/mol
# GULP energy per Si atom -12389.884587 kJ/mol
# Density = 1.823554 g / cm^3
# Si number density = 18.277139 Si / 1000 Ang^3
#
#
#
# Elastic Constant Matrix: (Units=GPa)
#
#
# Indices 1 2 3 4 5 6 
#
# 1 64.1767 41.2329 41.0505 0.0000 0.0000 0.0000
# 2 41.2329 87.0314 63.5366 0.0000 0.0000 0.0000
# 3 41.0505 63.5366 116.0655 0.0000 0.0000 0.0000
# 4 0.0000 0.0000 0.0000 10.9360 0.0000 0.0000
# 5 0.0000 0.0000 0.0000 0.0000 26.1701 0.0000
# 6 0.0000 0.0000 0.0000 0.0000 0.0000 24.6256
#
#
#
# Elastic Compliance Matrix: (Units=1/GPa)
#
#
# Indices 1 2 3 4 5 6 
#
# 1 0.023298 -0.008366 -0.003661 0.000000 0.000000 0.000000
# 2 -0.008366 0.022142 -0.009162 0.000000 0.000000 0.000000
# 3 -0.003661 -0.009162 0.014926 0.000000 0.000000 0.000000
# 4 0.000000 0.000000 0.000000 0.091441 0.000000 0.000000
# 5 0.000000 0.000000 0.000000 0.000000 0.038212 0.000000
# 6 0.000000 0.000000 0.000000 0.000000 0.000000 0.040608
#
#
# Mechanical properties :
#
#
# Convention : Reuss Voigt Hill
#
# Bulk Modulus (GPa) = 55.58790 62.10149 58.84469
# Shear Modulus (GPa) = 17.92100 20.44325 19.18212
#
# Velocity S-wave (km/s) = 3.13471 3.34805 3.24314
# Velocity P-wave (km/s) = 6.60165 6.99981 6.80365
#
# Compressibility (1/GPa) = 0.01798953
#
# Stress axis : x y z
#
# Youngs Moduli (GPa) = 42.92147 45.16220 66.99589
#
# Poissons Ratio (x) = 0.37781 0.24526
# Poissons Ratio (y) = 0.35906 0.61385
# Poissons Ratio (z) = 0.15713 0.41380
#
# Static dielectric constant tensor:
#      x y z
#    x 3.262490 0.000000 0.000000 
#    y 0.000000 3.342170 0.000000 
#    z 0.000000 0.000000 3.247120 
# 
# 
# High freq. dielectric constant tensor:
#      x y z
#    x 1.699900 0.000000 0.000000 
#    y 0.000000 1.698980 0.000000 
#    z 0.000000 0.000000 1.699710 
# 
# From -- ./inp_files/25076.got.cif
#   From: 2010.03.12/outbox.cif.g09.slc.cpg/sg67_13_cif.got.tgz:25076.got - 2010.04.10 22:41:39.
