data_PCOD8279564
_publ_section_title
;
Structure prediction by ZEFSAII (Michael W. Deem and Ramdas Pophale) SiO2 
 PCOD8279564
Probable space group: C M M A
;
_chemical_formula_sum "Si O2"
_cell_formula_units_Z 104
_cell_length_a 27.046420
_cell_length_b 9.088467
_cell_length_c 23.635102
_cell_angle_alpha 90.000000
_cell_angle_beta 90.000000
_cell_angle_gamma 90.000000
_cell_volume 5809.756137
_symmetry_space_group_name_H-M "C M M A"
_symmetry_group_IT_number 67
_symmetry_cell_setting 'orthorhombic'
loop_
_space_group_symop_operation_xyz
x,y,z
-x,1/2-y,z
x,-y,-z
-x,1/2+y,-z
-x,-y,-z
x,1/2+y,-z
-x,y,z
x,1/2-y,z
1/2+x,1/2+y,z
1/2-x,-y,z
1/2+x,1/2-y,-z
1/2-x,y,-z
1/2-x,1/2-y,-z
1/2+x,y,-z
1/2-x,1/2+y,z
1/2+x,-y,z
loop_
_atom_site_type_symbol
_atom_site_label
_atom_site_fract_x
_atom_site_fract_y
_atom_site_fract_z
Si Si1 0.056145 0.917222 0.726964
Si Si2 0.645025 0.078072 0.324545
Si Si3 0.107280 0.078546 0.558862
Si Si4 0.700410 0.922857 0.229725
Si Si5 0.604712 0.916191 0.158057
Si Si6 0.943366 0.077581 0.942542
Si Si7 0.000000 0.921233 0.441549
O O1 0.070456 0.750000 0.708817
O O2 0.062437 0.931058 0.794528
O O3 0.000000 0.954675 0.710478
O O4 0.090635 0.034769 0.696718
O O5 0.653356 0.250000 0.312780
O O6 0.647204 0.042221 0.391989
O O7 0.686680 0.985920 0.291795
O O8 0.107606 0.250000 0.544655
O O9 0.052981 0.032756 0.585780
O O10 0.120873 0.000000 0.500000
O O11 0.708737 0.750000 0.235969
O O12 0.657492 0.960424 0.185047
O O13 0.750000 0.000000 0.207448
O O14 0.606602 0.750000 0.134439
O O15 0.592577 0.025627 0.107306
O O16 0.937041 0.250000 0.950730
O O17 0.000000 0.034650 0.928222
O O18 0.926130 0.000000 0.000000
O O19 0.000000 0.750000 0.452349
O O20 0.000000 0.000000 0.500000
#
# Coordination Sequence:
#
# PCOD8279564 Si02
#       7
#    16  16  16  16  16  16   8
#     4   9  18  31  46  68 100 137 172 208 253 302
#     4  10  20  32  49  74 101 130 165 207 255 307
#     4   9  18  30  46  66  94 130 168 207 247 295
#     4  10  21  38  59  80 102 129 164 209 262 316
#     4   9  18  33  52  74 102 134 169 210 255 302
#     4  10  20  32  49  76 110 148 186 217 247 287
#     4   8  14  26  40  58  86 122 164 200 231 272
#
# _framework density 17.900922999999999
#
# number of rings (size 3 to 8) (size 9 to 14) (size 15 to 20)
#    0.000    2.615    0.000    2.769    1.077    6.154 
#    0.000    0.000    0.000    0.923    0.000    6.462 
#    0.000    0.000    0.000    0.000    0.000    0.000 
#
# Total GULP energy -644448.689212 kJ/mol
# GULP energy per Si atom -12393.244023 kJ/mol
# Density = 1.786018 g / cm^3
# Si number density = 17.900923 Si / 1000 Ang^3
#
#
#
# Elastic Constant Matrix: (Units=GPa)
#
#
# Indices 1 2 3 4 5 6 
#
# 1 65.5336 30.7954 28.5577 0.0000 0.0000 0.0000
# 2 30.7954 71.7376 41.9268 0.0000 0.0000 0.0000
# 3 28.5577 41.9268 89.3613 0.0000 0.0000 0.0000
# 4 0.0000 0.0000 0.0000 31.5917 0.0000 0.0000
# 5 0.0000 0.0000 0.0000 0.0000 17.0606 0.0000
# 6 0.0000 0.0000 0.0000 0.0000 0.0000 28.2293
#
#
#
# Elastic Compliance Matrix: (Units=1/GPa)
#
#
# Indices 1 2 3 4 5 6 
#
# 1 0.019765 -0.006604 -0.003218 0.000000 0.000000 0.000000
# 2 -0.006604 0.021413 -0.007936 0.000000 0.000000 0.000000
# 3 -0.003218 -0.007936 0.015942 0.000000 0.000000 0.000000
# 4 0.000000 0.000000 0.000000 0.031654 0.000000 0.000000
# 5 0.000000 0.000000 0.000000 0.000000 0.058615 0.000000
# 6 0.000000 0.000000 0.000000 0.000000 0.000000 0.035424
#
#
# Mechanical properties :
#
#
# Convention : Reuss Voigt Hill
#
# Bulk Modulus (GPa) = 46.28722 47.68802 46.98762
# Shear Modulus (GPa) = 22.16999 23.73317 22.95158
#
# Velocity S-wave (km/s) = 3.52303 3.64511 3.58459
# Velocity P-wave (km/s) = 6.51633 6.66435 6.59076
#
# Compressibility (1/GPa) = 0.02160423
#
# Stress axis : x y z
#
# Youngs Moduli (GPa) = 50.59464 46.70096 62.72590
#
# Poissons Ratio (x) = 0.30841 0.20185
# Poissons Ratio (y) = 0.33412 0.49780
# Poissons Ratio (z) = 0.16281 0.37062
#
# Static dielectric constant tensor:
#      x y z
#    x 2.999350 0.000000 0.000000 
#    y 0.000000 3.281490 0.000000 
#    z 0.000000 0.000000 3.171690 
# 
# 
# High freq. dielectric constant tensor:
#      x y z
#    x 1.669240 0.000000 0.000000 
#    y 0.000000 1.698910 0.000000 
#    z 0.000000 0.000000 1.682230 
# 
# From -- ./inp_files/42935.got.cif
#   From: 2010.03.12/outbox.cif.g09.slc.cpg/sg67_22_cif.got.tgz:42935.got - 2010.04.10 22:41:39.
