data_PCOD8279712
_publ_section_title
;
Structure prediction by ZEFSAII (Michael W. Deem and Ramdas Pophale) SiO2 
 PCOD8279712
Probable space group: C M M A
;
_chemical_formula_sum "Si O2"
_cell_formula_units_Z 96
_cell_length_a 9.088915
_cell_length_b 19.631770
_cell_length_c 30.191122
_cell_angle_alpha 90.000000
_cell_angle_beta 90.000000
_cell_angle_gamma 90.000000
_cell_volume 5387.046848
_symmetry_space_group_name_H-M "C M M A"
_symmetry_group_IT_number 67
_symmetry_cell_setting 'orthorhombic'
loop_
_space_group_symop_operation_xyz
x,y,z
-x,1/2-y,z
x,-y,-z
-x,1/2+y,-z
-x,-y,-z
x,1/2+y,-z
-x,y,z
x,1/2-y,z
1/2+x,1/2+y,z
1/2-x,-y,z
1/2+x,1/2-y,-z
1/2-x,y,-z
1/2-x,1/2-y,-z
1/2+x,y,-z
1/2-x,1/2+y,z
1/2+x,-y,z
loop_
_atom_site_type_symbol
_atom_site_label
_atom_site_fract_x
_atom_site_fract_y
_atom_site_fract_z
Si Si1 0.329795 0.931856 0.298900
Si Si2 0.328025 0.930692 0.195532
Si Si3 0.328280 0.670760 0.638998
Si Si4 0.171423 0.830133 0.131648
Si Si5 0.166445 0.330997 0.043058
Si Si6 0.337612 0.330946 0.458745
O O1 0.500000 0.940113 0.309894
O O2 0.301338 0.918892 0.247306
O O3 0.266123 0.868000 0.324846
O O4 0.250000 0.000000 0.315275
O O5 0.500000 0.934545 0.183607
O O6 0.252740 0.866999 0.171803
O O7 0.250000 0.000000 0.179516
O O8 0.500000 0.652936 0.644055
O O9 0.301112 0.750000 0.647482
O O10 0.271936 0.650002 0.589557
O O11 0.194771 0.750000 0.138468
O O12 0.244498 0.855627 0.086033
O O13 0.000000 0.849422 0.130801
O O14 0.162998 0.250000 0.040887
O O15 0.000000 0.359853 0.044574
O O16 0.250000 0.360373 0.000000
O O17 0.500000 0.361623 0.462265
O O18 0.342829 0.250000 0.462900
O O19 0.250000 0.363359 0.500000
#
# Coordination Sequence:
#
# PCOD8279712 Si02
#       6
#    16  16  16  16  16  16
#     4  10  21  36  54  74  97 129 168 207 249 300
#     4  10  21  37  55  74  98 130 168 208 251 301
#     4   9  18  32  50  74 104 134 164 202 248 294
#     4  10  20  33  51  77 106 135 169 208 250 295
#     4   9  16  27  45  70 101 135 169 206 248 293
#     4   8  14  25  42  66  96 129 162 196 237 286
#
# _framework density 17.820525
#
# number of rings (size 3 to 8) (size 9 to 14) (size 15 to 20)
#    0.000    2.667    0.000    3.000    0.000    6.667 
#    0.000    5.000    0.000    1.000    0.000    7.000 
#    0.000    0.000    0.000    0.000    0.000    0.000 
#
# Total GULP energy -595129.693888 kJ/mol
# GULP energy per Si atom -12398.535289 kJ/mol
# Density = 1.777996 g / cm^3
# Si number density = 17.820525 Si / 1000 Ang^3
#
#
#
# Elastic Constant Matrix: (Units=GPa)
#
#
# Indices 1 2 3 4 5 6 
#
# 1 134.6428 48.7501 72.2196 0.0000 0.0000 0.0000
# 2 48.7501 50.6310 48.8802 0.0000 0.0000 0.0000
# 3 72.2196 48.8802 100.0536 0.0000 0.0000 0.0000
# 4 0.0000 0.0000 0.0000 2.5761 0.0000 0.0000
# 5 0.0000 0.0000 0.0000 0.0000 38.4522 0.0000
# 6 0.0000 0.0000 0.0000 0.0000 0.0000 27.8960
#
#
#
# Elastic Compliance Matrix: (Units=1/GPa)
#
#
# Indices 1 2 3 4 5 6 
#
# 1 0.013204 -0.006648 -0.006283 0.000000 0.000000 0.000000
# 2 -0.006648 0.040728 -0.015099 0.000000 0.000000 0.000000
# 3 -0.006283 -0.015099 0.021906 0.000000 0.000000 0.000000
# 4 0.000000 0.000000 0.000000 0.388190 0.000000 0.000000
# 5 0.000000 0.000000 0.000000 0.000000 0.026006 0.000000
# 6 0.000000 0.000000 0.000000 0.000000 0.000000 0.035847
#
#
# Mechanical properties :
#
#
# Convention : Reuss Voigt Hill
#
# Bulk Modulus (GPa) = 50.55862 69.44746 60.00304
# Shear Modulus (GPa) = 8.49566 21.48335 14.98950
#
# Velocity S-wave (km/s) = 2.18579 3.47586 2.90338
# Velocity P-wave (km/s) = 5.89939 7.42724 6.70696
#
# Compressibility (1/GPa) = 0.01977902
#
# Stress axis : x y z
#
# Youngs Moduli (GPa) = 75.73354 24.55285 45.64868
#
# Poissons Ratio (x) = 0.16322 0.28682
# Poissons Ratio (y) = 0.50346 0.68925
# Poissons Ratio (z) = 0.47585 0.37073
#
# Static dielectric constant tensor:
#      x y z
#    x 3.506580 0.000000 0.000000 
#    y 0.000000 2.912830 0.000000 
#    z 0.000000 0.000000 3.435360 
# 
# 
# High freq. dielectric constant tensor:
#      x y z
#    x 1.701000 0.000000 0.000000 
#    y 0.000000 1.647810 0.000000 
#    z 0.000000 0.000000 1.699320 
# 
# From -- ./inp_files/43444.got.cif
#   From: 2010.03.12/outbox.cif.g09.slc.cpg/sg67_22_cif.got.tgz:43444.got - 2010.04.10 22:41:39.
