data_PCOD8279726
_publ_section_title
;
Structure prediction by ZEFSAII (Michael W. Deem and Ramdas Pophale) SiO2 
 PCOD8279726
Probable space group: C M M A
;
_chemical_formula_sum "Si O2"
_cell_formula_units_Z 128
_cell_length_a 17.240303
_cell_length_b 23.889873
_cell_length_c 16.697123
_cell_angle_alpha 90.000000
_cell_angle_beta 90.000000
_cell_angle_gamma 90.000000
_cell_volume 6877.021495
_symmetry_space_group_name_H-M "C M M A"
_symmetry_group_IT_number 67
_symmetry_cell_setting 'orthorhombic'
loop_
_space_group_symop_operation_xyz
x,y,z
-x,1/2-y,z
x,-y,-z
-x,1/2+y,-z
-x,-y,-z
x,1/2+y,-z
-x,y,z
x,1/2-y,z
1/2+x,1/2+y,z
1/2-x,-y,z
1/2+x,1/2-y,-z
1/2-x,y,-z
1/2-x,1/2-y,-z
1/2+x,y,-z
1/2-x,1/2+y,z
1/2+x,-y,z
loop_
_atom_site_type_symbol
_atom_site_label
_atom_site_fract_x
_atom_site_fract_y
_atom_site_fract_z
Si Si1 0.591807 0.686255 0.754778
Si Si2 0.338840 0.018237 0.811140
Si Si3 0.409351 0.589121 0.865118
Si Si4 0.410032 0.189446 0.861159
Si Si5 0.328461 0.685296 0.597011
Si Si6 0.409045 0.915264 0.043400
Si Si7 0.149702 0.315732 0.420219
Si Si8 0.410063 0.614570 0.280645
O O1 0.500000 0.683562 0.746348
O O2 0.620127 0.750000 0.770458
O O3 0.622223 0.647376 0.827586
O O4 0.626828 0.659756 0.672982
O O5 0.358586 0.048484 0.895128
O O6 0.361826 0.057259 0.735089
O O7 0.250000 0.000000 0.807140
O O8 0.388460 0.961423 0.805918
O O9 0.500000 0.595219 0.875303
O O10 0.375478 0.576728 0.953895
O O11 0.500000 0.198984 0.845753
O O12 0.369438 0.250000 0.874325
O O13 0.397045 0.150473 0.938210
O O14 0.375987 0.159907 0.781950
O O15 0.347890 0.750000 0.594382
O O16 0.237563 0.675236 0.607679
O O17 0.359529 0.662505 0.511643
O O18 0.500000 0.932633 0.051965
O O19 0.125514 0.250000 0.409934
O O20 0.098071 0.358335 0.368287
O O21 0.500000 0.600618 0.263633
#
# Coordination Sequence:
#
# PCOD8279726 Si02
#       8
#    16  16  16  16  16  16  16  16
#     4   9  18  32  52  79 108 137 174 219 262 312
#     4  11  23  36  53  74  98 134 180 221 271 318
#     4  10  20  34  54  75  99 136 175 218 269 313
#     4   8  14  26  45  71 104 136 161 196 252 310
#     4   8  16  31  50  77 114 147 177 212 254 311
#     4   9  18  33  52  74 102 135 173 220 263 305
#     4   9  17  30  53  82 111 146 177 208 259 320
#     4  10  20  33  51  79 110 136 173 224 264 312
#
# _framework density 18.61271
#
# number of rings (size 3 to 8) (size 9 to 14) (size 15 to 20)
#    0.000    2.750    0.000    3.375    1.750    3.750 
#    0.000    3.750    0.000    0.750    0.000    5.250 
#    0.000    0.000    0.000    0.000    0.000    0.000 
#
# Total GULP energy -793086.902156 kJ/mol
# GULP energy per Si atom -12391.982846 kJ/mol
# Density = 1.857035 g / cm^3
# Si number density = 18.612710 Si / 1000 Ang^3
#
#
#
# Elastic Constant Matrix: (Units=GPa)
#
#
# Indices 1 2 3 4 5 6 
#
# 1 42.9235 27.1007 28.0882 0.0000 0.0000 0.0000
# 2 27.1007 102.7119 32.8411 0.0000 0.0000 0.0000
# 3 28.0882 32.8411 81.3376 0.0000 0.0000 0.0000
# 4 0.0000 0.0000 0.0000 21.8484 0.0000 0.0000
# 5 0.0000 0.0000 0.0000 0.0000 22.9409 0.0000
# 6 0.0000 0.0000 0.0000 0.0000 0.0000 20.2034
#
#
#
# Elastic Compliance Matrix: (Units=1/GPa)
#
#
# Indices 1 2 3 4 5 6 
#
# 1 0.032844 -0.005786 -0.009005 0.000000 0.000000 0.000000
# 2 -0.005786 0.012199 -0.002927 0.000000 0.000000 0.000000
# 3 -0.009005 -0.002927 0.016586 0.000000 0.000000 0.000000
# 4 0.000000 0.000000 0.000000 0.045770 0.000000 0.000000
# 5 0.000000 0.000000 0.000000 0.000000 0.043590 0.000000
# 6 0.000000 0.000000 0.000000 0.000000 0.000000 0.049497
#
#
# Mechanical properties :
#
#
# Convention : Reuss Voigt Hill
#
# Bulk Modulus (GPa) = 38.18206 44.78145 41.48175
# Shear Modulus (GPa) = 20.43705 22.26139 21.34922
#
# Velocity S-wave (km/s) = 3.31723 3.46212 3.39045
# Velocity P-wave (km/s) = 5.93553 6.33195 6.13694
#
# Compressibility (1/GPa) = 0.02619031
#
# Stress axis : x y z
#
# Youngs Moduli (GPa) = 30.44729 81.97617 60.29119
#
# Poissons Ratio (x) = 0.47435 0.54295
# Poissons Ratio (y) = 0.17618 0.17648
# Poissons Ratio (z) = 0.27419 0.23996
#
# Static dielectric constant tensor:
#      x y z
#    x 3.316340 0.000000 0.000000 
#    y 0.000000 3.568590 0.000000 
#    z 0.000000 0.000000 3.780180 
# 
# 
# High freq. dielectric constant tensor:
#      x y z
#    x 1.696860 0.000000 0.000000 
#    y 0.000000 1.712230 0.000000 
#    z 0.000000 0.000000 1.715250 
# 
# From -- ./inp_files/34585.got.cif
#   From: 2010.03.12/outbox.cif.g09.slc.cpg/sg67_18_cif.got.tgz:34585.got - 2010.04.10 22:41:39.
