data_PCOD8279990
_publ_section_title
;
Structure prediction by ZEFSAII (Michael W. Deem and Ramdas Pophale) SiO2 
 PCOD8279990
Probable space group: C M M A
;
_chemical_formula_sum "Si O2"
_cell_formula_units_Z 96
_cell_length_a 8.923148
_cell_length_b 19.043305
_cell_length_c 31.151568
_cell_angle_alpha 90.000000
_cell_angle_beta 90.000000
_cell_angle_gamma 90.000000
_cell_volume 5293.468475
_symmetry_space_group_name_H-M "C M M A"
_symmetry_group_IT_number 67
_symmetry_cell_setting 'orthorhombic'
loop_
_space_group_symop_operation_xyz
x,y,z
-x,1/2-y,z
x,-y,-z
-x,1/2+y,-z
-x,-y,-z
x,1/2+y,-z
-x,y,z
x,1/2-y,z
1/2+x,1/2+y,z
1/2-x,-y,z
1/2+x,1/2-y,-z
1/2-x,y,-z
1/2-x,1/2-y,-z
1/2+x,y,-z
1/2-x,1/2+y,z
1/2+x,-y,z
loop_
_atom_site_type_symbol
_atom_site_label
_atom_site_fract_x
_atom_site_fract_y
_atom_site_fract_z
Si Si1 0.664383 0.333177 0.540483
Si Si2 0.825685 0.424392 0.115038
Si Si3 0.673859 0.425268 0.789959
Si Si4 0.677548 0.923354 0.706995
Si Si5 0.824543 0.831693 0.635449
Si Si6 0.826209 0.832277 0.043719
O O1 0.500000 0.366138 0.538688
O O2 0.656213 0.250000 0.535172
O O3 0.750000 0.367183 0.500000
O O4 0.733485 0.350623 0.587270
O O5 0.750000 0.500000 0.110309
O O6 0.805901 0.390905 0.162951
O O7 0.749780 0.369836 0.083534
O O8 0.000000 0.433230 0.103792
O O9 0.500000 0.432614 0.777758
O O10 0.750000 0.500000 0.793589
O O11 0.758735 0.385886 0.750724
O O12 0.500000 0.929934 0.709566
O O13 0.722559 0.876081 0.667044
O O14 0.750000 0.000000 0.701779
O O15 0.798717 0.750000 0.645248
O O16 0.000000 0.850450 0.640595
O O17 0.799468 0.750000 0.049854
O O18 0.000000 0.851985 0.041802
O O19 0.750000 0.859146 0.000000
#
# Coordination Sequence:
#
# PCOD8279990 Si02
#       6
#    16  16  16  16  16  16
#     4   8  14  25  43  67  94 125 159 196 240 291
#     4  10  20  34  55  81 106 132 166 209 253 297
#     4   9  17  31  51  74 100 131 166 205 249 296
#     4  11  21  33  52  75 100 132 170 208 247 297
#     4   9  18  33  51  72 101 133 164 203 251 297
#     4  10  21  37  56  77 104 138 173 209 250 298
#
# _framework density 18.135558
#
# number of rings (size 3 to 8) (size 9 to 14) (size 15 to 20)
#    0.000    2.500    0.000    5.000    0.000    4.333 
#    0.000    4.167    0.000    1.500    0.000    3.500 
#    0.000    0.000    0.000    0.000    0.000    0.000 
#
# Total GULP energy -594836.885378 kJ/mol
# GULP energy per Si atom -12392.435112 kJ/mol
# Density = 1.809428 g / cm^3
# Si number density = 18.135558 Si / 1000 Ang^3
#
#
#
# Elastic Constant Matrix: (Units=GPa)
#
#
# Indices 1 2 3 4 5 6 
#
# 1 144.5013 41.3948 89.5138 0.0000 0.0000 0.0000
# 2 41.3948 35.6048 47.9895 0.0000 0.0000 0.0000
# 3 89.5138 47.9895 174.9922 0.0000 0.0000 0.0000
# 4 0.0000 0.0000 0.0000 29.7622 0.0000 0.0000
# 5 0.0000 0.0000 0.0000 0.0000 37.3210 0.0000
# 6 0.0000 0.0000 0.0000 0.0000 0.0000 24.7157
#
#
#
# Elastic Compliance Matrix: (Units=1/GPa)
#
#
# Indices 1 2 3 4 5 6 
#
# 1 0.011619 -0.008721 -0.003552 0.000000 0.000000 0.000000
# 2 -0.008721 0.051101 -0.009553 0.000000 0.000000 0.000000
# 3 -0.003552 -0.009553 0.010151 0.000000 0.000000 0.000000
# 4 0.000000 0.000000 0.000000 0.033600 0.000000 0.000000
# 5 0.000000 0.000000 0.000000 0.000000 0.026795 0.000000
# 6 0.000000 0.000000 0.000000 0.000000 0.000000 0.040460
#
#
# Mechanical properties :
#
#
# Convention : Reuss Voigt Hill
#
# Bulk Modulus (GPa) = 34.22346 79.21050 56.71698
# Shear Modulus (GPa) = 22.01518 30.10647 26.06082
#
# Velocity S-wave (km/s) = 3.48792 4.07883 3.79489
# Velocity P-wave (km/s) = 5.92728 8.12122 7.10939
#
# Compressibility (1/GPa) = 0.02921972
#
# Stress axis : x y z
#
# Youngs Moduli (GPa) = 86.06713 19.56914 98.51183
#
# Poissons Ratio (x) = 0.17066 0.34989
# Poissons Ratio (y) = 0.75060 0.94105
# Poissons Ratio (z) = 0.30569 0.18694
#
# Static dielectric constant tensor:
#      x y z
#    x 3.533540 0.000000 0.000000 
#    y 0.000000 2.887060 0.000000 
#    z 0.000000 0.000000 3.996200 
# 
# 
# High freq. dielectric constant tensor:
#      x y z
#    x 1.713110 0.000000 0.000000 
#    y 0.000000 1.651260 0.000000 
#    z 0.000000 0.000000 1.727560 
# 
# From -- ./inp_files/43417.got.cif
#   From: 2010.03.12/outbox.cif.g09.slc.cpg/sg67_22_cif.got.tgz:43417.got - 2010.04.10 22:41:39.
