data_PCOD8279483
_publ_section_title
;
Structure prediction by ZEFSAII (Michael W. Deem and Ramdas Pophale) SiO2 
 PCOD8279483
Probable space group: C M M A
;
_chemical_formula_sum "Si O2"
_cell_formula_units_Z 72
_cell_length_a 9.196668
_cell_length_b 25.461054
_cell_length_c 19.623455
_cell_angle_alpha 90.000000
_cell_angle_beta 90.000000
_cell_angle_gamma 90.000000
_cell_volume 4594.966616
_symmetry_space_group_name_H-M "C M M A"
_symmetry_group_IT_number 67
_symmetry_cell_setting 'orthorhombic'
loop_
_space_group_symop_operation_xyz
x,y,z
-x,1/2-y,z
x,-y,-z
-x,1/2+y,-z
-x,-y,-z
x,1/2+y,-z
-x,y,z
x,1/2-y,z
1/2+x,1/2+y,z
1/2-x,-y,z
1/2+x,1/2-y,-z
1/2-x,y,-z
1/2-x,1/2-y,-z
1/2+x,y,-z
1/2-x,1/2+y,z
1/2+x,-y,z
loop_
_atom_site_type_symbol
_atom_site_label
_atom_site_fract_x
_atom_site_fract_y
_atom_site_fract_z
Si Si1 0.339454 0.687507 0.437165
Si Si2 0.168342 0.348055 0.838488
Si Si3 0.672669 0.809703 0.287326
Si Si4 0.827886 0.946969 0.069562
Si Si5 0.828622 0.250000 0.928455
O O1 0.500000 0.663710 0.443736
O O2 0.345388 0.750000 0.442600
O O3 0.250000 0.662996 0.500000
O O4 0.273759 0.672617 0.362931
O O5 0.255530 0.347837 0.767821
O O6 0.200165 0.403321 0.873790
O O7 0.222484 0.301366 0.887395
O O8 0.000000 0.340334 0.821338
O O9 0.500000 0.814024 0.283309
O O10 0.722900 0.750000 0.272605
O O11 0.000000 0.955801 0.056902
O O12 0.750000 0.000000 0.095532
O O13 0.750000 0.928583 0.000000
O O14 0.000000 0.250000 0.941723
O O15 0.750000 0.250000 0.000000
#
# Coordination Sequence:
#
# PCOD8279483 Si02
#       5
#    16  16  16  16   8
#     4   8  14  24  37  56  82 113 150 184 212 249
#     4  10  20  32  46  65  90 117 148 183 222 267
#     4   9  17  28  42  62  89 120 152 183 218 261
#     4  10  20  34  51  69  87 112 147 188 230 272
#     4  10  20  32  44  62  87 114 145 180 215 260
#
# _framework density 15.669320000000001
#
# number of rings (size 3 to 8) (size 9 to 14) (size 15 to 20)
#    0.000    2.667    1.111    3.333    0.000    3.556 
#    0.000    2.222    0.000    0.000    0.000    0.000 
#    0.000    0.889    0.000    9.778    0.000    7.556 
#
# Total GULP energy -446266.263534 kJ/mol
# GULP energy per Si atom -12396.285098 kJ/mol
# Density = 1.563366 g / cm^3
# Si number density = 15.669320 Si / 1000 Ang^3
#
#
#
# Elastic Constant Matrix: (Units=GPa)
#
#
# Indices 1 2 3 4 5 6 
#
# 1 64.5473 32.3872 60.2468 0.0000 0.0000 0.0000
# 2 32.3872 60.8180 52.3203 0.0000 0.0000 0.0000
# 3 60.2468 52.3203 150.5107 0.0000 0.0000 0.0000
# 4 0.0000 0.0000 0.0000 16.2108 0.0000 0.0000
# 5 0.0000 0.0000 0.0000 0.0000 32.8688 0.0000
# 6 0.0000 0.0000 0.0000 0.0000 0.0000 19.4754
#
#
#
# Elastic Compliance Matrix: (Units=1/GPa)
#
#
# Indices 1 2 3 4 5 6 
#
# 1 0.026767 -0.007186 -0.008216 0.000000 0.000000 0.000000
# 2 -0.007186 0.025386 -0.005948 0.000000 0.000000 0.000000
# 3 -0.008216 -0.005948 0.012001 0.000000 0.000000 0.000000
# 4 0.000000 0.000000 0.000000 0.061687 0.000000 0.000000
# 5 0.000000 0.000000 0.000000 0.000000 0.030424 0.000000
# 6 0.000000 0.000000 0.000000 0.000000 0.000000 0.051347
#
#
# Mechanical properties :
#
#
# Convention : Reuss Voigt Hill
#
# Bulk Modulus (GPa) = 46.61380 62.86496 54.73938
# Shear Modulus (GPa) = 19.42014 22.43912 20.92963
#
# Velocity S-wave (km/s) = 3.52429 3.78834 3.65870
# Velocity P-wave (km/s) = 6.80984 7.70339 7.27035
#
# Compressibility (1/GPa) = 0.02145287
#
# Stress axis : x y z
#
# Youngs Moduli (GPa) = 37.35931 39.39110 83.32809
#
# Poissons Ratio (x) = 0.28305 0.68466
# Poissons Ratio (y) = 0.26845 0.49567
# Poissons Ratio (z) = 0.30696 0.23432
#
# Static dielectric constant tensor:
#      x y z
#    x 3.055990 0.000000 0.000000 
#    y 0.000000 2.688590 0.000000 
#    z 0.000000 0.000000 3.119990 
# 
# 
# High freq. dielectric constant tensor:
#      x y z
#    x 1.603840 0.000000 0.000000 
#    y 0.000000 1.555970 0.000000 
#    z 0.000000 0.000000 1.608240 
# 
# From -- ./inp_files/32064.got.cif
#   From: 2010.03.12/outbox.cif.g09.slc.cpg/sg67_17_cif.got.tgz:32064.got - 2010.04.10 22:41:39.
