data_PCOD8279573
_publ_section_title
;
Structure prediction by ZEFSAII (Michael W. Deem and Ramdas Pophale) SiO2 
 PCOD8279573
Probable space group: C M M A
;
_chemical_formula_sum "Si O2"
_cell_formula_units_Z 72
_cell_length_a 15.634690
_cell_length_b 8.921571
_cell_length_c 24.685926
_cell_angle_alpha 90.000000
_cell_angle_beta 90.000000
_cell_angle_gamma 90.000000
_cell_volume 3443.340997
_symmetry_space_group_name_H-M "C M M A"
_symmetry_group_IT_number 67
_symmetry_cell_setting 'orthorhombic'
loop_
_space_group_symop_operation_xyz
x,y,z
-x,1/2-y,z
x,-y,-z
-x,1/2+y,-z
-x,-y,-z
x,1/2+y,-z
-x,y,z
x,1/2-y,z
1/2+x,1/2+y,z
1/2-x,-y,z
1/2+x,1/2-y,-z
1/2-x,y,-z
1/2-x,1/2-y,-z
1/2+x,y,-z
1/2-x,1/2+y,z
1/2+x,-y,z
loop_
_atom_site_type_symbol
_atom_site_label
_atom_site_fract_x
_atom_site_fract_y
_atom_site_fract_z
Si Si1 0.658147 0.927256 0.621232
Si Si2 0.838742 0.924094 0.254540
Si Si3 0.903095 0.086856 0.156528
Si Si4 0.000000 0.069681 0.441000
Si Si5 0.102232 0.417420 0.946503
O O1 0.660575 0.750000 0.607604
O O2 0.634010 0.955887 0.683751
O O3 0.750000 0.000000 0.606997
O O4 0.585450 0.010796 0.587677
O O5 0.831676 0.750000 0.243350
O O6 0.750000 0.000000 0.240346
O O7 0.905173 0.995794 0.212933
O O8 0.858689 0.250000 0.163929
O O9 0.000000 0.112038 0.139240
O O10 0.858901 0.997476 0.107121
O O11 0.000000 0.250000 0.442451
O O12 0.000000 0.000000 0.500000
O O13 0.138789 0.250000 0.947256
O O14 0.000000 0.415827 0.945285
O O15 0.136471 0.500000 0.000000
#
# Coordination Sequence:
#
# PCOD8279573 Si02
#       5
#    16  16  16   8  16
#     4  10  22  42  66  95 129 168 212 259 312 371
#     4  10  21  37  58  82 113 150 189 234 287 346
#     4  10  20  32  49  77 109 142 184 233 283 340
#     4  12  26  44  68  98 132 170 213 260 309 364
#     4   9  16  27  44  67  98 136 178 227 283 341
#
# _framework density 20.909924
#
# number of rings (size 3 to 8) (size 9 to 14) (size 15 to 20)
#    0.000    2.000    0.000    3.667    1.556    7.111 
#    0.000    2.222    0.000    0.667    0.000    4.667 
#    0.000    0.000    0.000    0.000    0.000    0.000 
#
# Total GULP energy -446303.757835 kJ/mol
# GULP energy per Si atom -12397.326607 kJ/mol
# Density = 2.086233 g / cm^3
# Si number density = 20.909924 Si / 1000 Ang^3
#
#
#
# Elastic Constant Matrix: (Units=GPa)
#
#
# Indices 1 2 3 4 5 6 
#
# 1 68.7605 56.7005 54.6099 0.0000 0.0000 0.0000
# 2 56.7005 203.6902 100.5691 0.0000 0.0000 0.0000
# 3 54.6099 100.5691 155.6643 0.0000 0.0000 0.0000
# 4 0.0000 0.0000 0.0000 40.1315 0.0000 0.0000
# 5 0.0000 0.0000 0.0000 0.0000 -8.7989 0.0000
# 6 0.0000 0.0000 0.0000 0.0000 0.0000 31.1141
#
#
#
# Elastic Compliance Matrix: (Units=1/GPa)
#
#
# Indices 1 2 3 4 5 6 
#
# 1 0.021601 -0.003335 -0.005423 0.000000 0.000000 0.000000
# 2 -0.003335 0.007724 -0.003820 0.000000 0.000000 0.000000
# 3 -0.005423 -0.003820 0.010795 0.000000 0.000000 0.000000
# 4 0.000000 0.000000 0.000000 0.024918 0.000000 0.000000
# 5 0.000000 0.000000 0.000000 0.000000 -0.113650 0.000000
# 6 0.000000 0.000000 0.000000 0.000000 0.000000 0.032140
#
#
# Mechanical properties :
#
#
# Convention : Reuss Voigt Hill
#
# Bulk Modulus (GPa) = 66.83492 94.65268 80.74380
# Shear Modulus (GPa) = 365.73622 26.90502 196.32062
#
# Velocity S-wave (km/s) = 13.23972 3.59097 9.70013
# Velocity P-wave (km/s) = 16.30192 7.90939 12.81232
#
# Compressibility (1/GPa) = 0.01496224
#
# Stress axis : x y z
#
# Youngs Moduli (GPa) = 46.29504 129.46708 92.63882
#
# Poissons Ratio (x) = 0.43181 0.50239
# Poissons Ratio (y) = 0.15441 0.35389
# Poissons Ratio (z) = 0.25106 0.49458
#
# Static dielectric constant tensor:
#      x y z
#    x 3.387460 0.000000 0.000000 
#    y 0.000000 4.160670 0.000000 
#    z 0.000000 0.000000 3.916260 
# 
# 
# High freq. dielectric constant tensor:
#      x y z
#    x 1.790150 0.000000 0.000000 
#    y 0.000000 1.841060 0.000000 
#    z 0.000000 0.000000 1.826450 
# 
# From -- ./inp_files/42130.got.cif
#   From: 2010.03.12/outbox.cif.g09.slc.cpg/sg67_22_cif.got.tgz:42130.got - 2010.04.10 22:41:39.
