data_PCOD8279978
_publ_section_title
;
Structure prediction by ZEFSAII (Michael W. Deem and Ramdas Pophale) SiO2 
 PCOD8279978
Probable space group: C M M A
;
_chemical_formula_sum "Si O2"
_cell_formula_units_Z 104
_cell_length_a 27.467183
_cell_length_b 9.115923
_cell_length_c 21.027956
_cell_angle_alpha 90.000000
_cell_angle_beta 90.000000
_cell_angle_gamma 90.000000
_cell_volume 5265.163098
_symmetry_space_group_name_H-M "C M M A"
_symmetry_group_IT_number 67
_symmetry_cell_setting 'orthorhombic'
loop_
_space_group_symop_operation_xyz
x,y,z
-x,1/2-y,z
x,-y,-z
-x,1/2+y,-z
-x,-y,-z
x,1/2+y,-z
-x,y,z
x,1/2-y,z
1/2+x,1/2+y,z
1/2-x,-y,z
1/2+x,1/2-y,-z
1/2-x,y,-z
1/2-x,1/2-y,-z
1/2+x,y,-z
1/2-x,1/2+y,z
1/2+x,-y,z
loop_
_atom_site_type_symbol
_atom_site_label
_atom_site_fract_x
_atom_site_fract_y
_atom_site_fract_z
Si Si1 0.125062 0.000000 0.000000
Si Si2 0.134812 0.080661 0.658753
Si Si3 0.553467 0.413523 0.103977
Si Si4 0.198089 0.074769 0.438678
Si Si5 0.134385 0.423732 0.805536
Si Si6 0.445706 0.418426 0.439415
Si Si7 0.298544 0.915760 0.101064
O O1 0.160591 0.907600 0.954244
O O2 0.087747 0.095974 0.958316
O O3 0.151911 0.250000 0.650888
O O4 0.131037 0.035720 0.731909
O O5 0.082927 0.054238 0.625792
O O6 0.171901 0.968624 0.626364
O O7 0.500000 0.492322 0.094015
O O8 0.541593 0.250000 0.124787
O O9 0.584965 0.486075 0.161109
O O10 0.201125 0.250000 0.446304
O O11 0.171294 0.000000 0.500000
O O12 0.250000 0.000000 0.434615
O O13 0.139968 0.250000 0.817178
O O14 0.181054 0.502640 0.836409
O O15 0.421921 0.500000 0.500000
O O16 0.500000 0.478277 0.426941
O O17 0.445633 0.250000 0.458532
O O18 0.284306 0.750000 0.119044
O O19 0.250000 0.000000 0.077523
#
# Coordination Sequence:
#
# PCOD8279978 Si02
#       7
#     8  16  16  16  16  16  16
#     4  10  20  34  54  82 114 142 176 218 268 320
#     4  10  20  35  55  79 108 144 184 226 271 319
#     4   9  17  31  53  80 109 142 180 220 262 311
#     4  11  22  37  57  81 109 140 177 223 275 330
#     4   9  20  37  55  78 110 145 184 226 267 318
#     4   9  18  32  51  77 108 141 179 223 270 320
#     4  11  23  38  58  81 109 144 181 223 271 322
#
# _framework density 19.752476000000001
#
# number of rings (size 3 to 8) (size 9 to 14) (size 15 to 20)
#    0.000    2.154    0.000    3.692    0.000    6.154 
#    0.000    3.077    0.000    4.154    0.000    4.308 
#    0.000    0.000    0.000    0.000    0.000    0.000 
#
# Total GULP energy -644375.493892 kJ/mol
# GULP energy per Si atom -12391.836421 kJ/mol
# Density = 1.970752 g / cm^3
# Si number density = 19.752476 Si / 1000 Ang^3
#
#
#
# Elastic Constant Matrix: (Units=GPa)
#
#
# Indices 1 2 3 4 5 6 
#
# 1 123.2722 45.6370 60.2679 0.0000 0.0000 0.0000
# 2 45.6370 95.9932 45.1451 0.0000 0.0000 0.0000
# 3 60.2679 45.1451 154.0492 0.0000 0.0000 0.0000
# 4 0.0000 0.0000 0.0000 24.3507 0.0000 0.0000
# 5 0.0000 0.0000 0.0000 0.0000 23.7676 0.0000
# 6 0.0000 0.0000 0.0000 0.0000 0.0000 21.9532
#
#
#
# Elastic Compliance Matrix: (Units=1/GPa)
#
#
# Indices 1 2 3 4 5 6 
#
# 1 0.011082 -0.003746 -0.003238 0.000000 0.000000 0.000000
# 2 -0.003746 0.013349 -0.002447 0.000000 0.000000 0.000000
# 3 -0.003238 -0.002447 0.008475 0.000000 0.000000 0.000000
# 4 0.000000 0.000000 0.000000 0.041067 0.000000 0.000000
# 5 0.000000 0.000000 0.000000 0.000000 0.042074 0.000000
# 6 0.000000 0.000000 0.000000 0.000000 0.000000 0.045552
#
#
# Mechanical properties :
#
#
# Convention : Reuss Voigt Hill
#
# Bulk Modulus (GPa) = 71.19670 75.04606 73.12138
# Shear Modulus (GPa) = 27.00661 28.83194 27.91927
#
# Velocity S-wave (km/s) = 3.70165 3.82470 3.76368
# Velocity P-wave (km/s) = 7.37511 7.58816 7.48239
#
# Compressibility (1/GPa) = 0.01404560
#
# Stress axis : x y z
#
# Youngs Moduli (GPa) = 90.23787 74.91302 117.99290
#
# Poissons Ratio (x) = 0.28061 0.38203
# Poissons Ratio (y) = 0.33801 0.28867
# Poissons Ratio (z) = 0.29217 0.18327
#
# Static dielectric constant tensor:
#      x y z
#    x 3.961210 0.000000 0.000000 
#    y 0.000000 3.362810 0.000000 
#    z 0.000000 0.000000 3.720930 
# 
# 
# High freq. dielectric constant tensor:
#      x y z
#    x 1.782050 0.000000 0.000000 
#    y 0.000000 1.747690 0.000000 
#    z 0.000000 0.000000 1.766980 
# 
# From -- ./inp_files/39978.got.cif
#   From: 2010.03.12/outbox.cif.g09.slc.cpg/sg67_20_cif.got.tgz:39978.got - 2010.04.10 22:41:39.
