data_PCOD8279306
_publ_section_title
;
Structure prediction by ZEFSAII (Michael W. Deem and Ramdas Pophale) SiO2 
 PCOD8279306
Probable space group: C M M A
;
_chemical_formula_sum "Si O2"
_cell_formula_units_Z 96
_cell_length_a 18.003191
_cell_length_b 17.114444
_cell_length_c 17.226874
_cell_angle_alpha 90.000000
_cell_angle_beta 90.000000
_cell_angle_gamma 90.000000
_cell_volume 5307.851464
_symmetry_space_group_name_H-M "C M M A"
_symmetry_group_IT_number 67
_symmetry_cell_setting 'orthorhombic'
loop_
_space_group_symop_operation_xyz
x,y,z
-x,1/2-y,z
x,-y,-z
-x,1/2+y,-z
-x,-y,-z
x,1/2+y,-z
-x,y,z
x,1/2-y,z
1/2+x,1/2+y,z
1/2-x,-y,z
1/2+x,1/2-y,-z
1/2-x,y,-z
1/2-x,1/2-y,-z
1/2+x,y,-z
1/2-x,1/2+y,z
1/2+x,-y,z
loop_
_atom_site_type_symbol
_atom_site_label
_atom_site_fract_x
_atom_site_fract_y
_atom_site_fract_z
Si Si1 0.418149 0.408441 0.991724
Si Si2 0.295922 0.161645 0.070579
Si Si3 0.710903 0.158767 0.419084
Si Si4 0.341244 0.159267 0.838257
Si Si5 0.810670 0.936399 0.693794
Si Si6 0.085740 0.535754 0.415016
O O1 0.500000 0.372824 0.995526
O O2 0.383262 0.377052 0.911639
O O3 0.419665 0.500000 0.000000
O O4 0.375079 0.381149 0.069981
O O5 0.313172 0.250000 0.047832
O O6 0.248536 0.154547 0.149128
O O7 0.250000 0.122460 0.000000
O O8 0.696064 0.250000 0.408083
O O9 0.750000 0.138555 0.500000
O O10 0.767212 0.129861 0.353411
O O11 0.630947 0.116922 0.413861
O O12 0.365376 0.250000 0.826110
O O13 0.355331 0.105975 0.763345
O O14 0.750000 0.000000 0.722878
O O15 0.875315 0.975424 0.643255
O O16 0.089175 0.500000 0.500000
O O17 0.000000 0.550660 0.390031
#
# Coordination Sequence:
#
# PCOD8279306 Si02
#       6
#    16  16  16  16  16  16
#     4  10  21  34  52  77 108 144 183 222 267 328
#     4   8  16  31  51  73  98 130 172 217 260 316
#     4  10  19  34  58  83 111 147 193 239 277 331
#     4  10  21  36  56  84 112 140 179 229 285 334
#     4  10  21  34  58  84 111 147 186 233 284 334
#     4  10  20  36  56  81 116 152 188 230 281 341
#
# _framework density 18.086414999999999
#
# number of rings (size 3 to 8) (size 9 to 14) (size 15 to 20)
#    0.000    2.333    1.667    2.000    2.333    4.667 
#    0.000    0.000    0.000    1.500    0.000    2.333 
#    0.000    0.000    0.000    0.000    0.000    0.000 
#
# Total GULP energy -594803.772399 kJ/mol
# GULP energy per Si atom -12391.745258 kJ/mol
# Density = 1.804525 g / cm^3
# Si number density = 18.086415 Si / 1000 Ang^3
#
#
#
# Elastic Constant Matrix: (Units=GPa)
#
#
# Indices 1 2 3 4 5 6 
#
# 1 135.5040 54.5732 28.0913 0.0000 0.0000 0.0000
# 2 54.5732 92.0898 36.9544 0.0000 0.0000 0.0000
# 3 28.0913 36.9544 55.5873 0.0000 0.0000 0.0000
# 4 0.0000 0.0000 0.0000 32.6308 0.0000 0.0000
# 5 0.0000 0.0000 0.0000 0.0000 15.9389 0.0000
# 6 0.0000 0.0000 0.0000 0.0000 0.0000 23.0172
#
#
#
# Elastic Compliance Matrix: (Units=1/GPa)
#
#
# Indices 1 2 3 4 5 6 
#
# 1 0.009783 -0.005201 -0.001486 0.000000 0.000000 0.000000
# 2 -0.005201 0.017575 -0.009056 0.000000 0.000000 0.000000
# 3 -0.001486 -0.009056 0.024761 0.000000 0.000000 0.000000
# 4 0.000000 0.000000 0.000000 0.030646 0.000000 0.000000
# 5 0.000000 0.000000 0.000000 0.000000 0.062740 0.000000
# 6 0.000000 0.000000 0.000000 0.000000 0.000000 0.043446
#
#
# Mechanical properties :
#
#
# Convention : Reuss Voigt Hill
#
# Bulk Modulus (GPa) = 48.46532 58.04654 53.25593
# Shear Modulus (GPa) = 21.99617 25.22153 23.60885
#
# Velocity S-wave (km/s) = 3.49115 3.73835 3.61686
# Velocity P-wave (km/s) = 6.56548 7.12723 6.85211
#
# Compressibility (1/GPa) = 0.02063331
#
# Stress axis : x y z
#
# Youngs Moduli (GPa) = 102.22284 56.89934 40.38634
#
# Poissons Ratio (x) = 0.29593 0.06002
# Poissons Ratio (y) = 0.53165 0.36572
# Poissons Ratio (z) = 0.15192 0.51525
#
# Static dielectric constant tensor:
#      x y z
#    x 3.644880 0.000000 0.000000 
#    y 0.000000 3.329570 0.000000 
#    z 0.000000 0.000000 3.194000 
# 
# 
# High freq. dielectric constant tensor:
#      x y z
#    x 1.696320 0.000000 0.000000 
#    y 0.000000 1.708210 0.000000 
#    z 0.000000 0.000000 1.685910 
# 
# From -- ./inp_files/34258.got.cif
#   From: 2010.03.12/outbox.cif.g09.slc.cpg/sg67_18_cif.got.tgz:34258.got - 2010.04.10 22:41:39.
