data_PCOD8279249
_publ_section_title
;
Structure prediction by ZEFSAII (Michael W. Deem and Ramdas Pophale) SiO2 
 PCOD8279249
Probable space group: C M M A
;
_chemical_formula_sum "Si O2"
_cell_formula_units_Z 80
_cell_length_a 15.381333
_cell_length_b 26.024889
_cell_length_c 9.013740
_cell_angle_alpha 90.000000
_cell_angle_beta 90.000000
_cell_angle_gamma 90.000000
_cell_volume 3608.177443
_symmetry_space_group_name_H-M "C M M A"
_symmetry_group_IT_number 67
_symmetry_cell_setting 'orthorhombic'
loop_
_space_group_symop_operation_xyz
x,y,z
-x,1/2-y,z
x,-y,-z
-x,1/2+y,-z
-x,-y,-z
x,1/2+y,-z
-x,y,z
x,1/2-y,z
1/2+x,1/2+y,z
1/2-x,-y,z
1/2+x,1/2-y,-z
1/2-x,y,-z
1/2-x,1/2-y,-z
1/2+x,y,-z
1/2-x,1/2+y,z
1/2+x,-y,z
loop_
_atom_site_type_symbol
_atom_site_label
_atom_site_fract_x
_atom_site_fract_y
_atom_site_fract_z
Si Si1 0.346508 0.250000 0.559921
Si Si2 0.896425 0.651950 0.077568
Si Si3 0.396301 0.449813 0.916161
Si Si4 0.896153 0.449036 0.418236
Si Si5 0.900415 0.148103 0.593024
Si Si6 0.896375 0.750000 0.893070
O O1 0.250000 0.250000 0.500000
O O2 0.395087 0.300264 0.501673
O O3 0.347668 0.250000 0.736783
O O4 0.857310 0.654935 0.244478
O O5 0.000000 0.652994 0.082051
O O6 0.861035 0.600336 0.000918
O O7 0.863714 0.700569 0.983991
O O8 0.500000 0.450176 0.916171
O O9 0.359971 0.449162 0.749014
O O10 0.360027 0.500000 0.000000
O O11 0.862175 0.500000 0.500000
O O12 0.857216 0.399315 0.503686
O O13 0.000000 0.447300 0.415595
O O14 0.000000 0.133511 0.618361
O O15 0.000000 0.750000 0.867227
#
# Coordination Sequence:
#
# PCOD8279249 Si02
#       6
#     8  16  16  16  16   8
#     4  12  25  38  52  74 104 136 175 218 262 312
#     4   9  17  29  49  76 101 130 169 211 253 303
#     4   9  15  23  37  64 104 139 164 198 248 301
#     4   9  16  26  45  76 109 138 168 206 253 304
#     4  10  19  34  55  77 104 137 174 214 260 312
#     4  10  19  34  55  76  99 130 171 214 260 310
#
# _framework density 22.171859000000001
#
# number of rings (size 3 to 8) (size 9 to 14) (size 15 to 20)
#    0.000    2.400    0.000    3.900    0.000    9.600 
#    0.000    2.000    0.000    0.600    0.000    0.000 
#    0.000    1.600    0.000    0.000    0.000    0.000 
#
# Total GULP energy -496029.300712 kJ/mol
# GULP energy per Si atom -12400.732518 kJ/mol
# Density = 2.212139 g / cm^3
# Si number density = 22.171859 Si / 1000 Ang^3
#
#
#
# Elastic Constant Matrix: (Units=GPa)
#
#
# Indices 1 2 3 4 5 6 
#
# 1 13.0098 -3.8114 8.5283 0.0000 0.0000 0.0000
# 2 -3.8114 236.2967 125.1943 0.0000 0.0000 0.0000
# 3 8.5283 125.1943 249.0177 0.0000 0.0000 0.0000
# 4 0.0000 0.0000 0.0000 53.5859 0.0000 0.0000
# 5 0.0000 0.0000 0.0000 0.0000 8.2317 0.0000
# 6 0.0000 0.0000 0.0000 0.0000 0.0000 -7.1819
#
#
#
# Elastic Compliance Matrix: (Units=1/GPa)
#
#
# Indices 1 2 3 4 5 6 
#
# 1 0.081042 0.003786 -0.004679 0.000000 0.000000 0.000000
# 2 0.003786 0.005945 -0.003119 0.000000 0.000000 0.000000
# 3 -0.004679 -0.003119 0.005744 0.000000 0.000000 0.000000
# 4 0.000000 0.000000 0.000000 0.018662 0.000000 0.000000
# 5 0.000000 0.000000 0.000000 0.000000 0.121482 0.000000
# 6 0.000000 0.000000 0.000000 0.000000 0.000000 -0.139239
#
#
# Mechanical properties :
#
#
# Convention : Reuss Voigt Hill
#
# Bulk Modulus (GPa) = 11.80527 84.23851 48.02189
# Shear Modulus (GPa) = 38.49256 35.48799 36.99027
#
# Velocity S-wave (km/s) = 4.17117 4.00507 4.08897
# Velocity P-wave (km/s) = 5.34175 7.71125 6.63316
#
# Compressibility (1/GPa) = 0.08470790
#
# Stress axis : x y z
#
# Youngs Moduli (GPa) = 12.33934 168.19713 174.09529
#
# Poissons Ratio (x) = -0.63683 0.81460
# Poissons Ratio (y) = -0.04672 0.54296
# Poissons Ratio (z) = 0.05774 0.52456
#
# Static dielectric constant tensor:
#      x y z
#    x 3.145300 0.000000 0.000000 
#    y 0.000000 4.374430 0.000000 
#    z 0.000000 0.000000 4.290360 
# 
# 
# High freq. dielectric constant tensor:
#      x y z
#    x 1.806950 0.000000 0.000000 
#    y 0.000000 1.888790 0.000000 
#    z 0.000000 0.000000 1.892130 
# 
# From -- ./inp_files/10019.got.cif
#   From: 2010.03.12/outbox.cif.g09.slc.cpg/sg67_6_cif.got.tgz:10019.got - 2010.04.10 22:41:39.
