data_PCOD8279417
_publ_section_title
;
Structure prediction by ZEFSAII (Michael W. Deem and Ramdas Pophale) SiO2 
 PCOD8279417
Probable space group: C M M A
;
_chemical_formula_sum "Si O2"
_cell_formula_units_Z 80
_cell_length_a 9.543912
_cell_length_b 23.256786
_cell_length_c 20.207330
_cell_angle_alpha 90.000000
_cell_angle_beta 90.000000
_cell_angle_gamma 90.000000
_cell_volume 4485.233496
_symmetry_space_group_name_H-M "C M M A"
_symmetry_group_IT_number 67
_symmetry_cell_setting 'orthorhombic'
loop_
_space_group_symop_operation_xyz
x,y,z
-x,1/2-y,z
x,-y,-z
-x,1/2+y,-z
-x,-y,-z
x,1/2+y,-z
-x,y,z
x,1/2-y,z
1/2+x,1/2+y,z
1/2-x,-y,z
1/2+x,1/2-y,-z
1/2-x,y,-z
1/2-x,1/2-y,-z
1/2+x,y,-z
1/2-x,1/2+y,z
1/2+x,-y,z
loop_
_atom_site_type_symbol
_atom_site_label
_atom_site_fract_x
_atom_site_fract_y
_atom_site_fract_z
Si Si1 0.840654 0.184066 0.939442
Si Si2 0.167404 0.750000 0.733876
Si Si3 0.838889 0.557133 0.309471
Si Si4 0.660214 0.650205 0.796215
Si Si5 0.842818 0.250000 0.605960
Si Si6 0.841192 0.624750 0.439680
O O1 0.798518 0.250000 0.922150
O O2 0.815750 0.144315 0.875002
O O3 0.000000 0.181017 0.963040
O O4 0.750000 0.159533 0.000000
O O5 0.225929 0.805904 0.769594
O O6 0.220276 0.750000 0.659177
O O7 0.000000 0.750000 0.735867
O O8 0.750000 0.500000 0.309575
O O9 0.814304 0.589598 0.239891
O O10 0.790539 0.598191 0.369880
O O11 0.000000 0.539741 0.317836
O O12 0.500000 0.671715 0.782310
O O13 0.825089 0.306424 0.561413
O O14 0.000000 0.250000 0.638463
O O15 0.750000 0.599630 0.500000
O O16 0.000000 0.606499 0.453994
#
# Coordination Sequence:
#
# PCOD8279417 Si02
#       6
#    16   8  16  16   8  16
#     4   9  17  29  50  78 110 145 174 209 254 313
#     4  12  22  29  50  87 113 135 173 229 272 304
#     4  10  22  39  59  78 101 138 185 230 271 316
#     4  10  19  37  58  75 106 151 184 209 264 333
#     4  10  19  37  57  75 109 147 176 205 262 340
#     4  10  21  36  57  80 106 142 175 216 266 322
#
# _framework density 17.836306
#
# number of rings (size 3 to 8) (size 9 to 14) (size 15 to 20)
#    0.000    2.000    3.000    1.200    0.000    3.600 
#    0.000    2.000    0.000    0.600    0.000    4.200 
#    0.000    0.000    0.000    0.000    0.000    0.000 
#
# Total GULP energy -495959.360380 kJ/mol
# GULP energy per Si atom -12398.984010 kJ/mol
# Density = 1.779571 g / cm^3
# Si number density = 17.836306 Si / 1000 Ang^3
#
#
#
# Elastic Constant Matrix: (Units=GPa)
#
#
# Indices 1 2 3 4 5 6 
#
# 1 100.3756 44.3756 59.3496 0.0000 0.0000 0.0000
# 2 44.3756 86.3503 43.9442 0.0000 0.0000 0.0000
# 3 59.3496 43.9442 135.7592 0.0000 0.0000 0.0000
# 4 0.0000 0.0000 0.0000 12.7942 0.0000 0.0000
# 5 0.0000 0.0000 0.0000 0.0000 32.3676 0.0000
# 6 0.0000 0.0000 0.0000 0.0000 0.0000 25.3117
#
#
#
# Elastic Compliance Matrix: (Units=1/GPa)
#
#
# Indices 1 2 3 4 5 6 
#
# 1 0.015232 -0.005315 -0.004939 0.000000 0.000000 0.000000
# 2 -0.005315 0.015719 -0.002765 0.000000 0.000000 0.000000
# 3 -0.004939 -0.002765 0.010420 0.000000 0.000000 0.000000
# 4 0.000000 0.000000 0.000000 0.078160 0.000000 0.000000
# 5 0.000000 0.000000 0.000000 0.000000 0.030895 0.000000
# 6 0.000000 0.000000 0.000000 0.000000 0.000000 0.039507
#
#
# Mechanical properties :
#
#
# Convention : Reuss Voigt Hill
#
# Bulk Modulus (GPa) = 65.21015 68.64709 66.92862
# Shear Modulus (GPa) = 22.61607 25.74909 24.18258
#
# Velocity S-wave (km/s) = 3.56473 3.80364 3.68612
# Velocity P-wave (km/s) = 7.32003 7.60665 7.46471
#
# Compressibility (1/GPa) = 0.01533504
#
# Stress axis : x y z
#
# Youngs Moduli (GPa) = 65.65002 63.61783 95.96937
#
# Poissons Ratio (x) = 0.33810 0.47397
# Poissons Ratio (y) = 0.34890 0.26533
# Poissons Ratio (z) = 0.32423 0.17589
#
# Static dielectric constant tensor:
#      x y z
#    x 3.278380 0.000000 0.000000 
#    y 0.000000 2.993920 0.000000 
#    z 0.000000 0.000000 3.357980 
# 
# 
# High freq. dielectric constant tensor:
#      x y z
#    x 1.687720 0.000000 0.000000 
#    y 0.000000 1.658250 0.000000 
#    z 0.000000 0.000000 1.694070 
# 
# From -- ./inp_files/36873.got.cif
#   From: 2010.03.12/outbox.cif.g09.slc.cpg/sg67_19_cif.got.tgz:36873.got - 2010.04.10 22:41:39.
