data_PCOD8279357
_publ_section_title
;
Structure prediction by ZEFSAII (Michael W. Deem and Ramdas Pophale) SiO2 
 PCOD8279357
Probable space group: C M M A
;
_chemical_formula_sum "Si O2"
_cell_formula_units_Z 104
_cell_length_a 9.311682
_cell_length_b 29.333640
_cell_length_c 19.902567
_cell_angle_alpha 90.000000
_cell_angle_beta 90.000000
_cell_angle_gamma 90.000000
_cell_volume 5436.297163
_symmetry_space_group_name_H-M "C M M A"
_symmetry_group_IT_number 67
_symmetry_cell_setting 'orthorhombic'
loop_
_space_group_symop_operation_xyz
x,y,z
-x,1/2-y,z
x,-y,-z
-x,1/2+y,-z
-x,-y,-z
x,1/2+y,-z
-x,y,z
x,1/2-y,z
1/2+x,1/2+y,z
1/2-x,-y,z
1/2+x,1/2-y,-z
1/2-x,y,-z
1/2-x,1/2-y,-z
1/2+x,y,-z
1/2-x,1/2+y,z
1/2+x,-y,z
loop_
_atom_site_type_symbol
_atom_site_label
_atom_site_fract_x
_atom_site_fract_y
_atom_site_fract_z
Si Si1 0.161517 0.750000 0.065544
Si Si2 0.670726 0.128211 0.212254
Si Si3 0.332397 0.303578 0.698971
Si Si4 0.164658 0.848661 0.068232
Si Si5 0.660016 0.041336 0.746080
Si Si6 0.669828 0.642396 0.434655
Si Si7 0.156805 0.040703 0.410159
O O1 0.195248 0.798103 0.101217
O O2 0.000000 0.750000 0.040888
O O3 0.250000 0.750000 0.000000
O O4 0.500000 0.127784 0.225508
O O5 0.737101 0.174885 0.241510
O O6 0.703839 0.120562 0.132415
O O7 0.749536 0.087210 0.248747
O O8 0.500000 0.313029 0.714099
O O9 0.299071 0.250000 0.695510
O O10 0.286879 0.326474 0.628552
O O11 0.000000 0.854496 0.047205
O O12 0.250000 0.860335 0.000000
O O13 0.500000 0.045374 0.778989
O O14 0.640221 0.031212 0.668305
O O15 0.750000 0.000000 0.780244
O O16 0.500000 0.643987 0.446071
O O17 0.750000 0.662439 0.500000
O O18 0.725594 0.590537 0.422981
O O19 0.000000 0.038958 0.443981
O O20 0.250000 0.000000 0.442892
#
# Coordination Sequence:
#
# PCOD8279357 Si02
#       7
#     8  16  16  16  16  16  16
#     4   8  14  28  46  66  98 138 175 216 261 310
#     4  11  22  35  57  87 117 148 185 233 283 333
#     4  10  22  41  60  79 109 149 192 237 284 335
#     4   9  19  33  51  76 110 148 187 228 275 330
#     4  10  19  35  58  84 114 147 185 228 279 336
#     4  10  21  38  56  79 109 144 185 232 280 334
#     4   9  18  33  53  77 109 141 175 220 272 330
#
# _framework density 19.130669000000001
#
# number of rings (size 3 to 8) (size 9 to 14) (size 15 to 20)
#    0.000    2.308    1.538    0.923    1.077    4.000 
#    0.000    1.538    0.000    0.462    0.000    3.231 
#    0.000    0.000    0.000    0.000    0.000    0.000 
#
# Total GULP energy -644289.745320 kJ/mol
# GULP energy per Si atom -12390.187410 kJ/mol
# Density = 1.908713 g / cm^3
# Si number density = 19.130669 Si / 1000 Ang^3
#
#
#
# Elastic Constant Matrix: (Units=GPa)
#
#
# Indices 1 2 3 4 5 6 
#
# 1 95.6630 48.4095 46.3175 0.0000 0.0000 0.0000
# 2 48.4095 101.0729 26.2800 0.0000 0.0000 0.0000
# 3 46.3175 26.2800 83.5884 0.0000 0.0000 0.0000
# 4 0.0000 0.0000 0.0000 5.2929 0.0000 0.0000
# 5 0.0000 0.0000 0.0000 0.0000 26.7378 0.0000
# 6 0.0000 0.0000 0.0000 0.0000 0.0000 26.2987
#
#
#
# Elastic Compliance Matrix: (Units=1/GPa)
#
#
# Indices 1 2 3 4 5 6 
#
# 1 0.017345 -0.006326 -0.007622 0.000000 0.000000 0.000000
# 2 -0.006326 0.013082 -0.000608 0.000000 0.000000 0.000000
# 3 -0.007622 -0.000608 0.016378 0.000000 0.000000 0.000000
# 4 0.000000 0.000000 0.000000 0.188934 0.000000 0.000000
# 5 0.000000 0.000000 0.000000 0.000000 0.037400 0.000000
# 6 0.000000 0.000000 0.000000 0.000000 0.000000 0.038025
#
#
# Mechanical properties :
#
#
# Convention : Reuss Voigt Hill
#
# Bulk Modulus (GPa) = 56.51853 58.03760 57.27806
# Shear Modulus (GPa) = 14.44368 22.28705 18.36536
#
# Velocity S-wave (km/s) = 2.75071 3.41690 3.10174
# Velocity P-wave (km/s) = 6.30048 6.78014 6.54471
#
# Compressibility (1/GPa) = 0.01769331
#
# Stress axis : x y z
#
# Youngs Moduli (GPa) = 57.65400 76.44373 61.05731
#
# Poissons Ratio (x) = 0.48355 0.46540
# Poissons Ratio (y) = 0.36469 0.03711
# Poissons Ratio (z) = 0.43945 0.04646
#
# Static dielectric constant tensor:
#      x y z
#    x 3.693410 0.000000 0.000000 
#    y 0.000000 3.456250 0.000000 
#    z 0.000000 0.000000 3.239240 
# 
# 
# High freq. dielectric constant tensor:
#      x y z
#    x 1.747290 0.000000 0.000000 
#    y 0.000000 1.738100 0.000000 
#    z 0.000000 0.000000 1.726340 
# 
# From -- ./inp_files/37338.got.cif
#   From: 2010.03.12/outbox.cif.g09.slc.cpg/sg67_19_cif.got.tgz:37338.got - 2010.04.10 22:41:39.
