data_PCOD8279261
_publ_section_title
;
Structure prediction by ZEFSAII (Michael W. Deem and Ramdas Pophale) SiO2 
 PCOD8279261
Probable space group: C M M A
;
_chemical_formula_sum "Si O2"
_cell_formula_units_Z 80
_cell_length_a 15.955706
_cell_length_b 19.474775
_cell_length_c 13.699104
_cell_angle_alpha 90.000000
_cell_angle_beta 90.000000
_cell_angle_gamma 90.000000
_cell_volume 4256.774428
_symmetry_space_group_name_H-M "C M M A"
_symmetry_group_IT_number 67
_symmetry_cell_setting 'orthorhombic'
loop_
_space_group_symop_operation_xyz
x,y,z
-x,1/2-y,z
x,-y,-z
-x,1/2+y,-z
-x,-y,-z
x,1/2+y,-z
-x,y,z
x,1/2-y,z
1/2+x,1/2+y,z
1/2-x,-y,z
1/2+x,1/2-y,-z
1/2-x,y,-z
1/2-x,1/2-y,-z
1/2+x,y,-z
1/2-x,1/2+y,z
1/2+x,-y,z
loop_
_atom_site_type_symbol
_atom_site_label
_atom_site_fract_x
_atom_site_fract_y
_atom_site_fract_z
Si Si1 0.000000 0.420015 0.395661
Si Si2 0.157457 0.919407 0.261444
Si Si3 0.592701 0.672609 0.118265
Si Si4 0.500000 0.583074 0.613653
Si Si5 0.842627 0.577208 0.729449
Si Si6 0.827037 0.672251 0.071641
O O1 0.085990 0.394803 0.344088
O O2 0.000000 0.387206 0.503853
O O3 0.000000 0.501693 0.396313
O O4 0.083698 0.890406 0.330920
O O5 0.248618 0.913743 0.314857
O O6 0.158665 0.879528 0.159851
O O7 0.138895 0.999124 0.239348
O O8 0.500000 0.654688 0.155482
O O9 0.618555 0.750000 0.147120
O O10 0.657100 0.622156 0.172007
O O11 0.593768 0.664746 0.000883
O O12 0.818043 0.750000 0.112722
O O13 0.750000 0.653734 0.000000
#
# Coordination Sequence:
#
# PCOD8279261 Si02
#       6
#     8  16  16   8  16  16
#     4   9  18  36  58  77 106 138 181 233 282 333
#     4  10  21  34  52  81 112 142 180 224 274 324
#     4  10  20  34  53  79 107 144 188 224 268 325
#     4   9  20  36  54  79 108 144 179 225 282 335
#     4  10  19  34  55  81 109 137 179 232 275 323
#     4  10  20  35  53  75 109 150 187 218 262 327
#
# _framework density 18.793572999999999
#
# number of rings (size 3 to 8) (size 9 to 14) (size 15 to 20)
#    0.000    2.200    3.000    0.000    1.400    1.600 
#    0.000    5.000    0.000    2.400    0.000    2.800 
#    0.000    0.000    0.000    0.000    0.000    0.000 
#
# Total GULP energy -495691.551827 kJ/mol
# GULP energy per Si atom -12392.288796 kJ/mol
# Density = 1.875080 g / cm^3
# Si number density = 18.793573 Si / 1000 Ang^3
#
#
#
# Elastic Constant Matrix: (Units=GPa)
#
#
# Indices 1 2 3 4 5 6 
#
# 1 137.5207 40.0900 67.4666 0.0000 0.0000 0.0000
# 2 40.0900 54.0216 44.3613 0.0000 0.0000 0.0000
# 3 67.4666 44.3613 121.8473 0.0000 0.0000 0.0000
# 4 0.0000 0.0000 0.0000 4.7393 0.0000 0.0000
# 5 0.0000 0.0000 0.0000 0.0000 28.0894 0.0000
# 6 0.0000 0.0000 0.0000 0.0000 0.0000 18.9454
#
#
#
# Elastic Compliance Matrix: (Units=1/GPa)
#
#
# Indices 1 2 3 4 5 6 
#
# 1 0.010661 -0.004371 -0.004312 0.000000 0.000000 0.000000
# 2 -0.004371 0.028198 -0.007846 0.000000 0.000000 0.000000
# 3 -0.004312 -0.007846 0.013451 0.000000 0.000000 0.000000
# 4 0.000000 0.000000 0.000000 0.211003 0.000000 0.000000
# 5 0.000000 0.000000 0.000000 0.000000 0.035601 0.000000
# 6 0.000000 0.000000 0.000000 0.000000 0.000000 0.052783
#
#
# Mechanical properties :
#
#
# Convention : Reuss Voigt Hill
#
# Bulk Modulus (GPa) = 51.94101 68.58059 60.26080
# Shear Modulus (GPa) = 12.78214 21.11959 16.95087
#
# Velocity S-wave (km/s) = 2.61077 3.35590 3.00651
# Velocity P-wave (km/s) = 6.06513 7.18240 6.64728
#
# Compressibility (1/GPa) = 0.01925261
#
# Stress axis : x y z
#
# Youngs Moduli (GPa) = 93.79831 35.46384 74.34517
#
# Poissons Ratio (x) = 0.15502 0.32055
# Poissons Ratio (y) = 0.41001 0.58329
# Poissons Ratio (z) = 0.40443 0.27824
#
# Static dielectric constant tensor:
#      x y z
#    x 3.838220 0.000000 0.000000 
#    y 0.000000 3.172230 0.000000 
#    z 0.000000 0.000000 3.400230 
# 
# 
# High freq. dielectric constant tensor:
#      x y z
#    x 1.752890 0.000000 0.000000 
#    y 0.000000 1.701560 0.000000 
#    z 0.000000 0.000000 1.708010 
# 
# From -- ./inp_files/19348.got.cif
#   From: 2010.03.12/outbox.cif.g09.slc.cpg/sg67_10_cif.got.tgz:19348.got - 2010.04.10 22:41:39.
