data_PCOD8279454
_publ_section_title
;
Structure prediction by ZEFSAII (Michael W. Deem and Ramdas Pophale) SiO2 
 PCOD8279454
Probable space group: C M M A
;
_chemical_formula_sum "Si O2"
_cell_formula_units_Z 96
_cell_length_a 9.507378
_cell_length_b 25.897578
_cell_length_c 25.163047
_cell_angle_alpha 90.000000
_cell_angle_beta 90.000000
_cell_angle_gamma 90.000000
_cell_volume 6195.596700
_symmetry_space_group_name_H-M "C M M A"
_symmetry_group_IT_number 67
_symmetry_cell_setting 'orthorhombic'
loop_
_space_group_symop_operation_xyz
x,y,z
-x,1/2-y,z
x,-y,-z
-x,1/2+y,-z
-x,-y,-z
x,1/2+y,-z
-x,y,z
x,1/2-y,z
1/2+x,1/2+y,z
1/2-x,-y,z
1/2+x,1/2-y,-z
1/2-x,y,-z
1/2-x,1/2-y,-z
1/2+x,y,-z
1/2-x,1/2+y,z
1/2+x,-y,z
loop_
_atom_site_type_symbol
_atom_site_label
_atom_site_fract_x
_atom_site_fract_y
_atom_site_fract_z
Si Si1 0.659766 0.147266 0.373035
Si Si2 0.661278 0.309219 0.261327
Si Si3 0.653280 0.809106 0.455162
Si Si4 0.841924 0.188546 0.047463
Si Si5 0.832168 0.551447 0.446939
Si Si6 0.342140 0.688671 0.164105
O O1 0.500000 0.165105 0.385336
O O2 0.689057 0.151570 0.310232
O O3 0.768298 0.187112 0.399172
O O4 0.687783 0.090851 0.397783
O O5 0.500000 0.309899 0.244348
O O6 0.706212 0.250000 0.275627
O O7 0.745736 0.332783 0.211467
O O8 0.500000 0.836655 0.453983
O O9 0.630209 0.750000 0.470052
O O10 0.750000 0.836413 0.500000
O O11 0.837007 0.250000 0.044490
O O12 0.787025 0.170430 0.105824
O O13 0.000000 0.168698 0.039240
O O14 0.750000 0.163909 0.000000
O O15 0.750000 0.500000 0.428585
O O16 0.750000 0.571251 0.500000
O O17 0.000000 0.542269 0.457896
O O18 0.500000 0.668181 0.173214
O O19 0.339641 0.750000 0.165724
#
# Coordination Sequence:
#
# PCOD8279454 Si02
#       6
#    16  16  16  16  16  16
#     4  10  20  32  46  63  82 104 130 161 196 234
#     4   9  17  28  41  57  78 105 135 164 193 227
#     4  10  20  31  43  60  81 105 131 158 190 228
#     4   8  13  20  30  45  65  90 123 164 204 235
#     4  10  20  34  51  68  84 101 123 155 197 243
#     4   8  14  24  35  48  70  99 130 165 201 232
#
# _framework density 15.494875
#
# number of rings (size 3 to 8) (size 9 to 14) (size 15 to 20)
#    0.000    2.833    0.000    3.500    0.000    5.667 
#    0.000    5.000    0.000    0.000    0.000    0.000 
#    0.000    0.000    0.000    0.000    0.000    0.833 
#
# Total GULP energy -594651.314103 kJ/mol
# GULP energy per Si atom -12388.569044 kJ/mol
# Density = 1.545961 g / cm^3
# Si number density = 15.494875 Si / 1000 Ang^3
#
#
#
# Elastic Constant Matrix: (Units=GPa)
#
#
# Indices 1 2 3 4 5 6 
#
# 1 109.0043 21.2162 78.1936 0.0000 0.0000 0.0000
# 2 21.2162 35.4573 29.9346 0.0000 0.0000 0.0000
# 3 78.1936 29.9346 149.1248 0.0000 0.0000 0.0000
# 4 0.0000 0.0000 0.0000 10.4224 0.0000 0.0000
# 5 0.0000 0.0000 0.0000 0.0000 32.2466 0.0000
# 6 0.0000 0.0000 0.0000 0.0000 0.0000 10.9046
#
#
#
# Elastic Compliance Matrix: (Units=1/GPa)
#
#
# Indices 1 2 3 4 5 6 
#
# 1 0.014932 -0.002799 -0.007268 0.000000 0.000000 0.000000
# 2 -0.002799 0.034482 -0.005454 0.000000 0.000000 0.000000
# 3 -0.007268 -0.005454 0.011612 0.000000 0.000000 0.000000
# 4 0.000000 0.000000 0.000000 0.095947 0.000000 0.000000
# 5 0.000000 0.000000 0.000000 0.000000 0.031011 0.000000
# 6 0.000000 0.000000 0.000000 0.000000 0.000000 0.091704
#
#
# Mechanical properties :
#
#
# Convention : Reuss Voigt Hill
#
# Bulk Modulus (GPa) = 33.35097 61.36391 47.35744
# Shear Modulus (GPa) = 15.58963 21.66418 18.62690
#
# Velocity S-wave (km/s) = 3.17537 3.74324 3.47094
# Velocity P-wave (km/s) = 5.91731 7.64010 6.83322
#
# Compressibility (1/GPa) = 0.02998413
#
# Stress axis : x y z
#
# Youngs Moduli (GPa) = 66.96871 29.00028 86.12094
#
# Poissons Ratio (x) = 0.08117 0.62592
# Poissons Ratio (y) = 0.18745 0.46972
# Poissons Ratio (z) = 0.48672 0.15817
#
# Static dielectric constant tensor:
#      x y z
#    x 3.283200 0.000000 0.000000 
#    y 0.000000 2.484880 0.000000 
#    z 0.000000 0.000000 3.187460 
# 
# 
# High freq. dielectric constant tensor:
#      x y z
#    x 1.607800 0.000000 0.000000 
#    y 0.000000 1.528700 0.000000 
#    z 0.000000 0.000000 1.591930 
# 
# From -- ./inp_files/43811.got.cif
#   From: 2010.03.12/outbox.cif.g09.slc.cpg/sg67_22_cif.got.tgz:43811.got - 2010.04.10 22:41:39.
