data_PCOD8279686
_publ_section_title
;
Structure prediction by ZEFSAII (Michael W. Deem and Ramdas Pophale) SiO2 
 PCOD8279686
Probable space group: C M M A
;
_chemical_formula_sum "Si O2"
_cell_formula_units_Z 96
_cell_length_a 9.007427
_cell_length_b 18.707752
_cell_length_c 30.561558
_cell_angle_alpha 90.000000
_cell_angle_beta 90.000000
_cell_angle_gamma 90.000000
_cell_volume 5149.888729
_symmetry_space_group_name_H-M "C M M A"
_symmetry_group_IT_number 67
_symmetry_cell_setting 'orthorhombic'
loop_
_space_group_symop_operation_xyz
x,y,z
-x,1/2-y,z
x,-y,-z
-x,1/2+y,-z
-x,-y,-z
x,1/2+y,-z
-x,y,z
x,1/2-y,z
1/2+x,1/2+y,z
1/2-x,-y,z
1/2+x,1/2-y,-z
1/2-x,y,-z
1/2-x,1/2-y,-z
1/2+x,y,-z
1/2-x,1/2+y,z
1/2+x,-y,z
loop_
_atom_site_type_symbol
_atom_site_label
_atom_site_fract_x
_atom_site_fract_y
_atom_site_fract_z
Si Si1 0.675183 0.574129 0.885728
Si Si2 0.673452 0.927234 0.785954
Si Si3 0.823730 0.670273 0.291799
Si Si4 0.669374 0.165317 0.956383
Si Si5 0.323795 0.923179 0.626980
Si Si6 0.825494 0.668522 0.455696
O O1 0.500000 0.568805 0.893357
O O2 0.750000 0.500000 0.899962
O O3 0.715382 0.592951 0.835614
O O4 0.743272 0.636973 0.914462
O O5 0.500000 0.940370 0.780883
O O6 0.728312 0.863929 0.754224
O O7 0.750000 0.000000 0.770822
O O8 0.755744 0.750000 0.295131
O O9 0.764874 0.622080 0.331663
O O10 0.000000 0.674868 0.294118
O O11 0.500000 0.137726 0.956457
O O12 0.676162 0.250000 0.954169
O O13 0.750000 0.136643 0.000000
O O14 0.500000 0.932120 0.628418
O O15 0.271237 0.881473 0.583700
O O16 0.250000 0.000000 0.627873
O O17 0.777311 0.750000 0.445326
O O18 0.750000 0.640537 0.500000
O O19 0.000000 0.663188 0.462141
#
# Coordination Sequence:
#
# PCOD8279686 Si02
#       6
#    16  16  16  16  16  16
#     4  10  20  34  53  78 107 138 173 212 254 303
#     4   9  18  32  52  76 102 133 166 204 249 297
#     4   9  17  31  52  76 100 129 168 209 247 292
#     4  10  21  37  56  78 105 137 173 214 260 308
#     4  10  20  33  51  74 100 131 166 206 250 297
#     4   9  18  33  52  73  97 128 166 206 249 296
#
# _framework density 18.641181
#
# number of rings (size 3 to 8) (size 9 to 14) (size 15 to 20)
#    0.000    2.500    0.000    2.000    0.000    5.667 
#    0.000    5.000    0.000    3.000    0.000    0.000 
#    0.000    0.000    0.000    0.000    0.000    0.000 
#
# Total GULP energy -595272.316852 kJ/mol
# GULP energy per Si atom -12401.506601 kJ/mol
# Density = 1.859875 g / cm^3
# Si number density = 18.641181 Si / 1000 Ang^3
#
#
#
# Elastic Constant Matrix: (Units=GPa)
#
#
# Indices 1 2 3 4 5 6 
#
# 1 54.1331 34.9001 41.0664 0.0000 0.0000 0.0000
# 2 34.9001 116.9410 78.6182 0.0000 0.0000 0.0000
# 3 41.0664 78.6182 139.9295 0.0000 0.0000 0.0000
# 4 0.0000 0.0000 0.0000 34.8964 0.0000 0.0000
# 5 0.0000 0.0000 0.0000 0.0000 23.0186 0.0000
# 6 0.0000 0.0000 0.0000 0.0000 0.0000 30.5694
#
#
#
# Elastic Compliance Matrix: (Units=1/GPa)
#
#
# Indices 1 2 3 4 5 6 
#
# 1 0.024901 -0.004047 -0.005034 0.000000 0.000000 0.000000
# 2 -0.004047 0.014400 -0.006903 0.000000 0.000000 0.000000
# 3 -0.005034 -0.006903 0.012502 0.000000 0.000000 0.000000
# 4 0.000000 0.000000 0.000000 0.028656 0.000000 0.000000
# 5 0.000000 0.000000 0.000000 0.000000 0.043443 0.000000
# 6 0.000000 0.000000 0.000000 0.000000 0.000000 0.032712
#
#
# Mechanical properties :
#
#
# Convention : Reuss Voigt Hill
#
# Bulk Modulus (GPa) = 50.41548 68.90811 59.66180
# Shear Modulus (GPa) = 25.61551 28.12481 26.87016
#
# Velocity S-wave (km/s) = 3.71095 3.88847 3.80075
# Velocity P-wave (km/s) = 6.74281 7.56347 7.16490
#
# Compressibility (1/GPa) = 0.01983518
#
# Stress axis : x y z
#
# Youngs Moduli (GPa) = 40.15871 69.44585 79.98704
#
# Poissons Ratio (x) = 0.28106 0.40266
# Poissons Ratio (y) = 0.16253 0.55212
# Poissons Ratio (z) = 0.20216 0.47936
#
# Static dielectric constant tensor:
#      x y z
#    x 3.297790 0.000000 0.000000 
#    y 0.000000 3.456870 0.000000 
#    z 0.000000 0.000000 3.635190 
# 
# 
# High freq. dielectric constant tensor:
#      x y z
#    x 1.705240 0.000000 0.000000 
#    y 0.000000 1.722140 0.000000 
#    z 0.000000 0.000000 1.737220 
# 
# From -- ./inp_files/43466.got.cif
#   From: 2010.03.12/outbox.cif.g09.slc.cpg/sg67_22_cif.got.tgz:43466.got - 2010.04.10 22:41:39.
