data_PCOD8279563
_publ_section_title
;
Structure prediction by ZEFSAII (Michael W. Deem and Ramdas Pophale) SiO2 
 PCOD8279563
Probable space group: C M M A
;
_chemical_formula_sum "Si O2"
_cell_formula_units_Z 80
_cell_length_a 24.181846
_cell_length_b 31.250927
_cell_length_c 5.137414
_cell_angle_alpha 90.000000
_cell_angle_beta 90.000000
_cell_angle_gamma 90.000000
_cell_volume 3882.369982
_symmetry_space_group_name_H-M "C M M A"
_symmetry_group_IT_number 67
_symmetry_cell_setting 'orthorhombic'
loop_
_space_group_symop_operation_xyz
x,y,z
-x,1/2-y,z
x,-y,-z
-x,1/2+y,-z
-x,-y,-z
x,1/2+y,-z
-x,y,z
x,1/2-y,z
1/2+x,1/2+y,z
1/2-x,-y,z
1/2+x,1/2-y,-z
1/2-x,y,-z
1/2-x,1/2-y,-z
1/2+x,y,-z
1/2-x,1/2+y,z
1/2+x,-y,z
loop_
_atom_site_type_symbol
_atom_site_label
_atom_site_fract_x
_atom_site_fract_y
_atom_site_fract_z
Si Si1 0.811684 0.675354 0.605506
Si Si2 0.622308 0.090426 0.621313
Si Si3 0.936088 0.617618 0.109444
Si Si4 0.724979 0.952441 0.253693
Si Si5 0.370189 0.702736 0.898351
O O1 0.750000 0.677344 0.500000
O O2 0.831704 0.627064 0.644626
O O3 0.821192 0.697229 0.887562
O O4 0.847542 0.700220 0.393099
O O5 0.596774 0.091002 0.332081
O O6 0.658034 0.048229 0.706620
O O7 0.573549 0.094830 0.832392
O O8 0.000000 0.616552 0.183238
O O9 0.917476 0.666780 0.075726
O O10 0.750000 0.927367 0.500000
O O11 0.750000 0.000000 0.247959
O O12 0.750000 0.928388 0.000000
O O13 0.396643 0.750000 0.934086
#
# Coordination Sequence:
#
# PCOD8279563 Si02
#       5
#    16  16  16  16  16
#     4  10  20  32  49  73 105 143 177 217 273 335
#     4  10  20  35  55  81 112 140 181 228 264 325
#     4  10  21  37  56  78 104 143 192 237 279 314
#     4  10  20  34  56  89 119 144 169 206 266 328
#     4  10  21  34  49  73 103 139 186 233 276 326
#
# _framework density 20.605972000000001
#
# number of rings (size 3 to 8) (size 9 to 14) (size 15 to 20)
#    0.000    2.000    0.000    3.600    0.000    6.000 
#    0.000    0.000    0.000    7.200    0.000   56.000 
#    0.000    0.000    0.000    0.000    0.000    0.000 
#
# Total GULP energy -495545.806538 kJ/mol
# GULP energy per Si atom -12388.645163 kJ/mol
# Density = 2.055907 g / cm^3
# Si number density = 20.605972 Si / 1000 Ang^3
#
#
#
# Elastic Constant Matrix: (Units=GPa)
#
#
# Indices 1 2 3 4 5 6 
#
# 1 113.6352 33.7878 26.9190 0.0000 0.0000 0.0000
# 2 33.7878 62.9772 17.0731 0.0000 0.0000 0.0000
# 3 26.9190 17.0731 147.4454 0.0000 0.0000 0.0000
# 4 0.0000 0.0000 0.0000 8.0113 0.0000 0.0000
# 5 0.0000 0.0000 0.0000 0.0000 30.6723 0.0000
# 6 0.0000 0.0000 0.0000 0.0000 0.0000 22.8477
#
#
#
# Elastic Compliance Matrix: (Units=1/GPa)
#
#
# Indices 1 2 3 4 5 6 
#
# 1 0.010718 -0.005389 -0.001333 0.000000 0.000000 0.000000
# 2 -0.005389 0.019103 -0.001228 0.000000 0.000000 0.000000
# 3 -0.001333 -0.001228 0.007168 0.000000 0.000000 0.000000
# 4 0.000000 0.000000 0.000000 0.124824 0.000000 0.000000
# 5 0.000000 0.000000 0.000000 0.000000 0.032603 0.000000
# 6 0.000000 0.000000 0.000000 0.000000 0.000000 0.043768
#
#
# Mechanical properties :
#
#
# Convention : Reuss Voigt Hill
#
# Bulk Modulus (GPa) = 47.41828 53.29084 50.35456
# Shear Modulus (GPa) = 19.14879 28.72479 23.93679
#
# Velocity S-wave (km/s) = 3.05172 3.73769 3.41199
# Velocity P-wave (km/s) = 5.95644 6.67421 6.32551
#
# Compressibility (1/GPa) = 0.02108891
#
# Stress axis : x y z
#
# Youngs Moduli (GPa) = 93.29940 52.34788 139.51463
#
# Poissons Ratio (x) = 0.28211 0.18594
# Poissons Ratio (y) = 0.50280 0.17134
# Poissons Ratio (z) = 0.12435 0.06429
#
# Static dielectric constant tensor:
#      x y z
#    x 3.453720 0.000000 0.000000 
#    y 0.000000 3.581820 0.000000 
#    z 0.000000 0.000000 -4.351450 
# 
# 
# High freq. dielectric constant tensor:
#      x y z
#    x 1.779980 0.000000 0.000000 
#    y 0.000000 1.780550 0.000000 
#    z 0.000000 0.000000 1.838390 
# 
# From -- ./inp_files/3545.got.cif
#   From: 2010.03.12/outbox.cif.g09.slc.cpg/sg67_2_cif.got.tgz:3545.got - 2010.04.10 22:41:39.
