data_PCOD8279648
_publ_section_title
;
Structure prediction by ZEFSAII (Michael W. Deem and Ramdas Pophale) SiO2 
 PCOD8279648
Probable space group: C M M A
;
_chemical_formula_sum "Si O2"
_cell_formula_units_Z 96
_cell_length_a 18.650442
_cell_length_b 9.109964
_cell_length_c 30.737665
_cell_angle_alpha 90.000000
_cell_angle_beta 90.000000
_cell_angle_gamma 90.000000
_cell_volume 5222.478521
_symmetry_space_group_name_H-M "C M M A"
_symmetry_group_IT_number 67
_symmetry_cell_setting 'orthorhombic'
loop_
_space_group_symop_operation_xyz
x,y,z
-x,1/2-y,z
x,-y,-z
-x,1/2+y,-z
-x,-y,-z
x,1/2+y,-z
-x,y,z
x,1/2-y,z
1/2+x,1/2+y,z
1/2-x,-y,z
1/2+x,1/2-y,-z
1/2-x,y,-z
1/2-x,1/2-y,-z
1/2+x,y,-z
1/2-x,1/2+y,z
1/2+x,-y,z
loop_
_atom_site_type_symbol
_atom_site_label
_atom_site_fract_x
_atom_site_fract_y
_atom_site_fract_z
Si Si1 0.418041 0.921811 0.456862
Si Si2 0.174328 0.424092 0.374454
Si Si3 0.918207 0.922086 0.043451
Si Si4 0.920877 0.923346 0.704037
Si Si5 0.416012 0.919211 0.197884
Si Si6 0.173676 0.076208 0.873947
O O1 0.500000 0.968298 0.447903
O O2 0.410993 0.750000 0.464505
O O3 0.372081 0.973694 0.415795
O O4 0.387949 0.000000 0.500000
O O5 0.184218 0.250000 0.372682
O O6 0.250000 0.500000 0.378142
O O7 0.135155 0.485211 0.331103
O O8 0.912276 0.750000 0.035827
O O9 0.869416 0.974320 0.083322
O O10 0.000000 0.969460 0.053482
O O11 0.889544 0.000000 0.000000
O O12 0.926993 0.750000 0.698770
O O13 0.895185 0.962010 0.752722
O O14 0.000000 0.991026 0.695401
O O15 0.500000 0.945991 0.189739
O O16 0.396262 0.750000 0.188168
O O17 0.370532 0.026164 0.167882
O O18 0.183641 0.250000 0.872037
O O19 0.250000 0.000000 0.874745
#
# Coordination Sequence:
#
# PCOD8279648 Si02
#       6
#    16  16  16  16  16  16
#     4   9  18  33  53  74  95 125 166 208 249 294
#     4  10  20  33  50  73 102 134 166 202 248 300
#     4   9  19  36  57  79 102 132 171 214 259 306
#     4   8  15  31  55  78  99 128 169 212 249 293
#     4   9  18  34  57  82 105 133 172 215 259 308
#     4  11  23  37  53  76 109 144 177 214 258 308
#
# _framework density 18.382076999999999
#
# number of rings (size 3 to 8) (size 9 to 14) (size 15 to 20)
#    0.000    2.667    0.000    2.500    0.000    6.333 
#    0.000    7.500    0.000    2.500    0.000    0.000 
#    0.000    0.000    0.000    0.000    0.000    0.000 
#
# Total GULP energy -595214.233734 kJ/mol
# GULP energy per Si atom -12400.296536 kJ/mol
# Density = 1.834024 g / cm^3
# Si number density = 18.382077 Si / 1000 Ang^3
#
#
#
# Elastic Constant Matrix: (Units=GPa)
#
#
# Indices 1 2 3 4 5 6 
#
# 1 115.3961 42.6424 93.7867 0.0000 0.0000 0.0000
# 2 42.6424 41.2355 51.4560 0.0000 0.0000 0.0000
# 3 93.7867 51.4560 172.4688 0.0000 0.0000 0.0000
# 4 0.0000 0.0000 0.0000 28.1014 0.0000 0.0000
# 5 0.0000 0.0000 0.0000 0.0000 8.9718 0.0000
# 6 0.0000 0.0000 0.0000 0.0000 0.0000 25.7279
#
#
#
# Elastic Compliance Matrix: (Units=1/GPa)
#
#
# Indices 1 2 3 4 5 6 
#
# 1 0.017828 -0.010098 -0.006682 0.000000 0.000000 0.000000
# 2 -0.010098 0.044354 -0.007742 0.000000 0.000000 0.000000
# 3 -0.006682 -0.007742 0.011741 0.000000 0.000000 0.000000
# 4 0.000000 0.000000 0.000000 0.035585 0.000000 0.000000
# 5 0.000000 0.000000 0.000000 0.000000 0.111461 0.000000
# 6 0.000000 0.000000 0.000000 0.000000 0.000000 0.038868
#
#
# Mechanical properties :
#
#
# Convention : Reuss Voigt Hill
#
# Bulk Modulus (GPa) = 40.19288 78.31897 59.25592
# Shear Modulus (GPa) = 15.76414 21.97456 18.86935
#
# Velocity S-wave (km/s) = 2.93163 3.46126 3.20739
# Velocity P-wave (km/s) = 5.77685 7.65979 6.78396
#
# Compressibility (1/GPa) = 0.02488003
#
# Stress axis : x y z
#
# Youngs Moduli (GPa) = 56.09140 22.54564 85.16839
#
# Poissons Ratio (x) = 0.22767 0.56908
# Poissons Ratio (y) = 0.56643 0.65936
# Poissons Ratio (z) = 0.37480 0.17454
#
# Static dielectric constant tensor:
#      x y z
#    x 3.435630 0.000000 0.000000 
#    y 0.000000 3.130790 0.000000 
#    z 0.000000 0.000000 3.640770 
# 
# 
# High freq. dielectric constant tensor:
#      x y z
#    x 1.711410 0.000000 0.000000 
#    y 0.000000 1.689080 0.000000 
#    z 0.000000 0.000000 1.727850 
# 
# From -- ./inp_files/43515.got.cif
#   From: 2010.03.12/outbox.cif.g09.slc.cpg/sg67_22_cif.got.tgz:43515.got - 2010.04.10 22:41:39.
