data_PCOD8279086
_publ_section_title
;
Structure prediction by ZEFSAII (Michael W. Deem and Ramdas Pophale) SiO2 
 PCOD8279086
Probable space group: C M M A
;
_chemical_formula_sum "Si O2"
_cell_formula_units_Z 120
_cell_length_a 8.854758
_cell_length_b 26.819608
_cell_length_c 29.057760
_cell_angle_alpha 90.000000
_cell_angle_beta 90.000000
_cell_angle_gamma 90.000000
_cell_volume 6900.669927
_symmetry_space_group_name_H-M "C M M A"
_symmetry_group_IT_number 67
_symmetry_cell_setting 'orthorhombic'
loop_
_space_group_symop_operation_xyz
x,y,z
-x,1/2-y,z
x,-y,-z
-x,1/2+y,-z
-x,-y,-z
x,1/2+y,-z
-x,y,z
x,1/2-y,z
1/2+x,1/2+y,z
1/2-x,-y,z
1/2+x,1/2-y,-z
1/2-x,y,-z
1/2-x,1/2-y,-z
1/2+x,y,-z
1/2-x,1/2+y,z
1/2+x,-y,z
loop_
_atom_site_type_symbol
_atom_site_label
_atom_site_fract_x
_atom_site_fract_y
_atom_site_fract_z
Si Si1 0.322104 0.949471 0.379735
Si Si2 0.823066 0.191962 0.139483
Si Si3 0.178389 0.550167 0.725211
Si Si4 0.831833 0.694252 0.698382
Si Si5 0.830316 0.690858 0.045383
Si Si6 0.321980 0.750000 0.549742
Si Si7 0.826717 0.657643 0.599614
Si Si8 0.676088 0.858337 0.774906
O O1 0.500000 0.956483 0.380406
O O2 0.264680 0.942062 0.327280
O O3 0.278753 0.900164 0.410498
O O4 0.250000 0.000000 0.401121
O O5 0.785575 0.250000 0.148310
O O6 0.767174 0.174697 0.089420
O O7 0.733276 0.158560 0.175558
O O8 0.000000 0.181637 0.143683
O O9 0.250000 0.500000 0.745450
O O10 0.233800 0.593694 0.758216
O O11 0.000000 0.547172 0.727596
O O12 0.813996 0.750000 0.679829
O O13 0.807565 0.659424 0.654585
O O14 0.709120 0.685008 0.737807
O O15 0.000000 0.685091 0.719118
O O16 0.836743 0.750000 0.041643
O O17 0.000000 0.669207 0.049256
O O18 0.750000 0.668540 0.000000
O O19 0.500000 0.750000 0.545304
O O20 0.250000 0.750000 0.500000
O O21 0.275647 0.801149 0.575130
O O22 0.000000 0.668064 0.585122
O O23 0.500000 0.869830 0.777331
#
# Coordination Sequence:
#
# PCOD8279086 Si02
#       8
#    16  16  16  16  16   8  16  16
#     4   9  18  32  54  80 109 141 175 215 261 307
#     4  10  20  33  47  64  91 131 173 212 258 308
#     4  10  19  34  51  71  98 132 172 211 255 302
#     4  10  19  33  51  70  99 140 177 210 253 303
#     4   9  16  27  44  65  89 119 159 207 255 305
#     4  12  26  42  62  88 114 144 178 222 269 316
#     4  10  19  37  59  81 109 144 178 216 262 313
#     4  12  23  32  45  68 100 136 172 212 255 304
#
# _framework density 17.389617000000001
#
# number of rings (size 3 to 8) (size 9 to 14) (size 15 to 20)
#    0.000    1.867    2.000    3.400    0.000    5.867 
#    0.000    0.000    0.000    0.400    0.000    2.800 
#    0.000    0.533    0.000    5.333    0.000    3.467 
#
# Total GULP energy -743834.788635 kJ/mol
# GULP energy per Si atom -12397.246477 kJ/mol
# Density = 1.735004 g / cm^3
# Si number density = 17.389617 Si / 1000 Ang^3
#
#
#
# Elastic Constant Matrix: (Units=GPa)
#
#
# Indices 1 2 3 4 5 6 
#
# 1 91.9672 38.9490 27.8217 0.0000 0.0000 0.0000
# 2 38.9490 109.0415 32.7614 0.0000 0.0000 0.0000
# 3 27.8217 32.7614 60.0247 0.0000 0.0000 0.0000
# 4 0.0000 0.0000 0.0000 0.6917 0.0000 0.0000
# 5 0.0000 0.0000 0.0000 0.0000 27.9528 0.0000
# 6 0.0000 0.0000 0.0000 0.0000 0.0000 28.1753
#
#
#
# Elastic Compliance Matrix: (Units=1/GPa)
#
#
# Indices 1 2 3 4 5 6 
#
# 1 0.013722 -0.003577 -0.004408 0.000000 0.000000 0.000000
# 2 -0.003577 0.011902 -0.004838 0.000000 0.000000 0.000000
# 3 -0.004408 -0.004838 0.021344 0.000000 0.000000 0.000000
# 4 0.000000 0.000000 0.000000 1.445640 0.000000 0.000000
# 5 0.000000 0.000000 0.000000 0.000000 0.035775 0.000000
# 6 0.000000 0.000000 0.000000 0.000000 0.000000 0.035492
#
#
# Mechanical properties :
#
#
# Convention : Reuss Voigt Hill
#
# Bulk Modulus (GPa) = 46.90116 51.12195 49.01156
# Shear Modulus (GPa) = 3.13160 22.13072 12.63116
#
# Velocity S-wave (km/s) = 1.34341 3.57128 2.69803
# Velocity P-wave (km/s) = 5.42547 6.81668 6.16047
#
# Compressibility (1/GPa) = 0.02132143
#
# Stress axis : x y z
#
# Youngs Moduli (GPa) = 72.87681 84.01851 46.85262
#
# Poissons Ratio (x) = 0.30054 0.20652
# Poissons Ratio (y) = 0.26068 0.22668
# Poissons Ratio (z) = 0.32122 0.40650
#
# Static dielectric constant tensor:
#      x y z
#    x 3.314520 0.000000 0.000000 
#    y 0.000000 3.475650 0.000000 
#    z 0.000000 0.000000 3.103650 
# 
# 
# High freq. dielectric constant tensor:
#      x y z
#    x 1.677260 0.000000 0.000000 
#    y 0.000000 1.657280 0.000000 
#    z 0.000000 0.000000 1.648180 
# 
# From -- ./inp_files/43939.got.cif
#   From: 2010.03.12/outbox.cif.g09.slc.cpg/sg67_22_cif.got.tgz:43939.got - 2010.04.10 22:41:39.
