data_PCOD8279227
_publ_section_title
;
Structure prediction by ZEFSAII (Michael W. Deem and Ramdas Pophale) SiO2 
 PCOD8279227
Probable space group: C M M A
;
_chemical_formula_sum "Si O2"
_cell_formula_units_Z 84
_cell_length_a 19.061066
_cell_length_b 18.435861
_cell_length_c 12.894396
_cell_angle_alpha 90.000000
_cell_angle_beta 90.000000
_cell_angle_gamma 90.000000
_cell_volume 4531.183121
_symmetry_space_group_name_H-M "C M M A"
_symmetry_group_IT_number 67
_symmetry_cell_setting 'orthorhombic'
loop_
_space_group_symop_operation_xyz
x,y,z
-x,1/2-y,z
x,-y,-z
-x,1/2+y,-z
-x,-y,-z
x,1/2+y,-z
-x,y,z
x,1/2-y,z
1/2+x,1/2+y,z
1/2-x,-y,z
1/2+x,1/2-y,-z
1/2-x,y,-z
1/2-x,1/2-y,-z
1/2+x,y,-z
1/2-x,1/2+y,z
1/2+x,-y,z
loop_
_atom_site_type_symbol
_atom_site_label
_atom_site_fract_x
_atom_site_fract_y
_atom_site_fract_z
Si Si1 0.627854 0.924366 0.099797
Si Si2 0.418287 0.334592 0.314442
Si Si3 0.581292 0.163880 0.706946
Si Si4 0.829525 0.836034 0.510919
Si Si5 0.921522 0.082401 0.880269
Si Si6 0.750000 0.500000 0.000000
O O1 0.617787 0.865981 0.189198
O O2 0.582397 0.995418 0.127221
O O3 0.707278 0.950245 0.080619
O O4 0.605917 0.888658 0.990389
O O5 0.500000 0.352070 0.336143
O O6 0.406688 0.250000 0.293258
O O7 0.374378 0.361850 0.412835
O O8 0.384621 0.378312 0.217220
O O9 0.500000 0.137824 0.695908
O O10 0.583418 0.250000 0.712970
O O11 0.628961 0.134465 0.612139
O O12 0.826638 0.750000 0.517621
O O13 0.750000 0.867138 0.500000
O O14 0.000000 0.109415 0.871728
#
# Coordination Sequence:
#
# PCOD8279227 Si02
#       6
#    16  16  16  16  16   4
#     4  10  19  34  52  73 104 137 171 210 253 309
#     4   9  17  30  49  73 100 130 170 217 259 307
#     4  10  20  34  55  81 107 137 174 218 266 313
#     4   9  18  32  50  72 100 135 172 212 262 315
#     4   9  17  30  50  72  95 130 168 205 254 303
#     4   8  20  36  52  72 102 144 180 208 256 314
#
# _framework density 18.538205000000001
#
# number of rings (size 3 to 8) (size 9 to 14) (size 15 to 20)
#    0.000    2.857    0.000    2.857    0.000    6.095 
#    0.000    3.333    0.000    4.571    0.000    0.000 
#    0.000    0.000    0.000    0.000    0.000    0.000 
#
# Total GULP energy -520454.155321 kJ/mol
# GULP energy per Si atom -12391.765603 kJ/mol
# Density = 1.849601 g / cm^3
# Si number density = 18.538205 Si / 1000 Ang^3
#
#
#
# Elastic Constant Matrix: (Units=GPa)
#
#
# Indices 1 2 3 4 5 6 
#
# 1 125.0403 24.5833 71.1473 0.0000 0.0000 0.0000
# 2 24.5833 26.7303 43.2703 0.0000 0.0000 0.0000
# 3 71.1473 43.2703 180.0357 0.0000 0.0000 0.0000
# 4 0.0000 0.0000 0.0000 15.3702 0.0000 0.0000
# 5 0.0000 0.0000 0.0000 0.0000 355.3879 0.0000
# 6 0.0000 0.0000 0.0000 0.0000 0.0000 9.6627
#
#
#
# Elastic Compliance Matrix: (Units=1/GPa)
#
#
# Indices 1 2 3 4 5 6 
#
# 1 0.010696 -0.004901 -0.003049 0.000000 0.000000 0.000000
# 2 -0.004901 0.063481 -0.013320 0.000000 0.000000 0.000000
# 3 -0.003049 -0.013320 0.009961 0.000000 0.000000 0.000000
# 4 0.000000 0.000000 0.000000 0.065061 0.000000 0.000000
# 5 0.000000 0.000000 0.000000 0.000000 0.002814 0.000000
# 6 0.000000 0.000000 0.000000 0.000000 0.000000 0.103491
#
#
# Mechanical properties :
#
#
# Convention : Reuss Voigt Hill
#
# Bulk Modulus (GPa) = 24.04045 67.75645 45.89845
# Shear Modulus (GPa) = 16.03029 88.93784 52.48406
#
# Velocity S-wave (km/s) = 2.94380 6.93394 5.32661
# Velocity P-wave (km/s) = 4.95488 10.03669 7.91473
#
# Compressibility (1/GPa) = 0.04159656
#
# Stress axis : x y z
#
# Youngs Moduli (GPa) = 93.49455 15.75277 100.39454
#
# Poissons Ratio (x) = 0.07721 0.30608
# Poissons Ratio (y) = 0.45826 1.33728
# Poissons Ratio (z) = 0.28505 0.20983
#
# Static dielectric constant tensor:
#      x y z
#    x 3.546940 0.000000 0.000000 
#    y 0.000000 3.162420 0.000000 
#    z 0.000000 0.000000 3.632860 
# 
# 
# High freq. dielectric constant tensor:
#      x y z
#    x 1.722560 0.000000 0.000000 
#    y 0.000000 1.679370 0.000000 
#    z 0.000000 0.000000 1.732610 
# 
# From -- ./inp_files/20768.got.cif
#   From: 2010.03.12/outbox.cif.g09.slc.cpg/sg67_11_cif.got.tgz:20768.got - 2010.04.10 22:41:39.
