data_PCOD8279623
_publ_section_title
;
Structure prediction by ZEFSAII (Michael W. Deem and Ramdas Pophale) SiO2 
 PCOD8279623
Probable space group: C M M A
;
_chemical_formula_sum "Si O2"
_cell_formula_units_Z 80
_cell_length_a 9.373355
_cell_length_b 18.604650
_cell_length_c 25.911091
_cell_angle_alpha 90.000000
_cell_angle_beta 90.000000
_cell_angle_gamma 90.000000
_cell_volume 4518.583055
_symmetry_space_group_name_H-M "C M M A"
_symmetry_group_IT_number 67
_symmetry_cell_setting 'orthorhombic'
loop_
_space_group_symop_operation_xyz
x,y,z
-x,1/2-y,z
x,-y,-z
-x,1/2+y,-z
-x,-y,-z
x,1/2+y,-z
-x,y,z
x,1/2-y,z
1/2+x,1/2+y,z
1/2-x,-y,z
1/2+x,1/2-y,-z
1/2-x,y,-z
1/2-x,1/2-y,-z
1/2+x,y,-z
1/2-x,1/2+y,z
1/2+x,-y,z
loop_
_atom_site_type_symbol
_atom_site_label
_atom_site_fract_x
_atom_site_fract_y
_atom_site_fract_z
Si Si1 0.665575 0.667538 0.549719
Si Si2 0.668687 0.925895 0.648104
Si Si3 0.339028 0.835747 0.048813
Si Si4 0.659142 0.664441 0.855650
Si Si5 0.169504 0.170047 0.741925
O O1 0.500000 0.658768 0.537255
O O2 0.705262 0.750000 0.561846
O O3 0.750000 0.638716 0.500000
O O4 0.711146 0.621286 0.598827
O O5 0.500000 0.939522 0.650993
O O6 0.726421 0.884511 0.698743
O O7 0.750000 0.000000 0.643834
O O8 0.500000 0.865584 0.045603
O O9 0.339501 0.750000 0.049030
O O10 0.266085 0.865933 0.100984
O O11 0.250000 0.864735 0.000000
O O12 0.500000 0.633902 0.866157
O O13 0.652894 0.750000 0.857930
O O14 0.714983 0.641351 0.798767
O O15 0.232797 0.250000 0.731821
O O16 0.000000 0.175210 0.739234
#
# Coordination Sequence:
#
# PCOD8279623 Si02
#       5
#    16  16  16  16  16
#     4   9  18  33  53  74  95 122 157 194 229 268
#     4  10  20  33  49  70  96 124 154 189 230 275
#     4   9  15  21  30  47  75 110 143 175 215 264
#     4   8  13  22  37  56  76 101 138 182 223 262
#     4   8  14  27  48  68  85 113 155 195 227 267
#
# _framework density 17.704664000000001
#
# number of rings (size 3 to 8) (size 9 to 14) (size 15 to 20)
#    0.000    3.200    0.000    2.400    0.000    6.000 
#    0.000    3.000    0.000    3.000    0.000    0.000 
#    0.000    0.800    0.000    9.200    0.000   11.200 
#
# Total GULP energy -495838.037554 kJ/mol
# GULP energy per Si atom -12395.950939 kJ/mol
# Density = 1.766437 g / cm^3
# Si number density = 17.704664 Si / 1000 Ang^3
#
#
#
# Elastic Constant Matrix: (Units=GPa)
#
#
# Indices 1 2 3 4 5 6 
#
# 1 77.6847 32.2372 74.6379 0.0000 0.0000 0.0000
# 2 32.2372 58.7435 59.3785 0.0000 0.0000 0.0000
# 3 74.6379 59.3785 191.1913 0.0000 0.0000 0.0000
# 4 0.0000 0.0000 0.0000 2.0618 0.0000 0.0000
# 5 0.0000 0.0000 0.0000 0.0000 28.8031 0.0000
# 6 0.0000 0.0000 0.0000 0.0000 0.0000 17.8594
#
#
#
# Elastic Compliance Matrix: (Units=1/GPa)
#
#
# Indices 1 2 3 4 5 6 
#
# 1 0.021500 -0.004831 -0.006893 0.000000 0.000000 0.000000
# 2 -0.004831 0.025898 -0.006157 0.000000 0.000000 0.000000
# 3 -0.006893 -0.006157 0.009833 0.000000 0.000000 0.000000
# 4 0.000000 0.000000 0.000000 0.485024 0.000000 0.000000
# 5 0.000000 0.000000 0.000000 0.000000 0.034718 0.000000
# 6 0.000000 0.000000 0.000000 0.000000 0.000000 0.055993
#
#
# Mechanical properties :
#
#
# Convention : Reuss Voigt Hill
#
# Bulk Modulus (GPa) = 46.57897 73.34739 59.96318
# Shear Modulus (GPa) = 7.39770 20.50259 13.95014
#
# Velocity S-wave (km/s) = 2.04633 3.40668 2.81007
# Velocity P-wave (km/s) = 5.65237 7.54932 6.66864
#
# Compressibility (1/GPa) = 0.02146892
#
# Stress axis : x y z
#
# Youngs Moduli (GPa) = 46.51205 38.61271 101.69469
#
# Poissons Ratio (x) = 0.18656 0.70095
# Poissons Ratio (y) = 0.22472 0.62614
# Poissons Ratio (z) = 0.32059 0.23774
#
# Static dielectric constant tensor:
#      x y z
#    x 3.162740 0.000000 0.000000 
#    y 0.000000 2.856720 0.000000 
#    z 0.000000 0.000000 3.700960 
# 
# 
# High freq. dielectric constant tensor:
#      x y z
#    x 1.662600 0.000000 0.000000 
#    y 0.000000 1.631660 0.000000 
#    z 0.000000 0.000000 1.705150 
# 
# From -- ./inp_files/43218.got.cif
#   From: 2010.03.12/outbox.cif.g09.slc.cpg/sg67_22_cif.got.tgz:43218.got - 2010.04.10 22:41:39.
