data_PCOD8279842
_publ_section_title
;
Structure prediction by ZEFSAII (Michael W. Deem and Ramdas Pophale) SiO2 
 PCOD8279842
Probable space group: C M M A
;
_chemical_formula_sum "Si O2"
_cell_formula_units_Z 96
_cell_length_a 19.645400
_cell_length_b 8.635451
_cell_length_c 30.514940
_cell_angle_alpha 90.000000
_cell_angle_beta 90.000000
_cell_angle_gamma 90.000000
_cell_volume 5176.764641
_symmetry_space_group_name_H-M "C M M A"
_symmetry_group_IT_number 67
_symmetry_cell_setting 'orthorhombic'
loop_
_space_group_symop_operation_xyz
x,y,z
-x,1/2-y,z
x,-y,-z
-x,1/2+y,-z
-x,-y,-z
x,1/2+y,-z
-x,y,z
x,1/2-y,z
1/2+x,1/2+y,z
1/2-x,-y,z
1/2+x,1/2-y,-z
1/2-x,y,-z
1/2-x,1/2-y,-z
1/2+x,y,-z
1/2-x,1/2+y,z
1/2+x,-y,z
loop_
_atom_site_type_symbol
_atom_site_label
_atom_site_fract_x
_atom_site_fract_y
_atom_site_fract_z
Si Si1 0.923109 0.932952 0.377641
Si Si2 0.923095 0.432935 0.286635
Si Si3 0.920540 0.929774 0.953403
Si Si4 0.177292 0.066013 0.211240
Si Si5 0.177318 0.567168 0.117629
Si Si6 0.323345 0.565968 0.546468
O O1 0.920793 0.750000 0.374857
O O2 0.876479 0.993217 0.417227
O O3 0.000000 0.992893 0.385811
O O4 0.894282 0.999533 0.332080
O O5 0.920256 0.250000 0.289691
O O6 0.877156 0.493256 0.246718
O O7 0.000000 0.492134 0.278465
O O8 0.900444 0.750000 0.952394
O O9 0.000000 0.954720 0.943991
O O10 0.879929 0.022454 0.916876
O O11 0.899779 0.000000 0.000000
O O12 0.180881 0.250000 0.208622
O O13 0.250000 0.000000 0.225559
O O14 0.154747 0.001430 0.164255
O O15 0.183815 0.750000 0.121496
O O16 0.250000 0.500000 0.102582
O O17 0.348222 0.500000 0.500000
O O18 0.319439 0.750000 0.543733
O O19 0.250000 0.500000 0.559374
#
# Coordination Sequence:
#
# PCOD8279842 Si02
#       6
#    16  16  16  16  16  16
#     4   9  19  35  53  74 101 132 167 208 253 301
#     4   9  19  35  54  76 102 134 172 212 255 305
#     4  10  21  38  59  83 112 144 179 221 268 317
#     4  10  20  35  54  77 106 138 174 216 262 311
#     4  11  22  37  57  81 110 143 182 223 267 318
#     4  10  20  34  52  74 101 132 167 207 251 300
#
# _framework density 18.544401000000001
#
# number of rings (size 3 to 8) (size 9 to 14) (size 15 to 20)
#    0.000    2.167    0.000    4.500    0.000    5.667 
#    0.000    6.667    0.000    0.000    0.000    0.000 
#    0.000    0.000    0.000    0.000    0.000    0.000 
#
# Total GULP energy -595332.499915 kJ/mol
# GULP energy per Si atom -12402.760415 kJ/mol
# Density = 1.850219 g / cm^3
# Si number density = 18.544401 Si / 1000 Ang^3
#
#
#
# Elastic Constant Matrix: (Units=GPa)
#
#
# Indices 1 2 3 4 5 6 
#
# 1 95.0413 34.8592 95.2847 0.0000 0.0000 0.0000
# 2 34.8592 77.5725 45.8474 0.0000 0.0000 0.0000
# 3 95.2847 45.8474 158.6239 0.0000 0.0000 0.0000
# 4 0.0000 0.0000 0.0000 34.6977 0.0000 0.0000
# 5 0.0000 0.0000 0.0000 0.0000 66.4754 0.0000
# 6 0.0000 0.0000 0.0000 0.0000 0.0000 27.8141
#
#
#
# Elastic Compliance Matrix: (Units=1/GPa)
#
#
# Indices 1 2 3 4 5 6 
#
# 1 0.027048 -0.003078 -0.015358 0.000000 0.000000 0.000000
# 2 -0.003078 0.015897 -0.002746 0.000000 0.000000 0.000000
# 3 -0.015358 -0.002746 0.016323 0.000000 0.000000 0.000000
# 4 0.000000 0.000000 0.000000 0.028820 0.000000 0.000000
# 5 0.000000 0.000000 0.000000 0.000000 0.015043 0.000000
# 6 0.000000 0.000000 0.000000 0.000000 0.000000 0.035953
#
#
# Mechanical properties :
#
#
# Convention : Reuss Voigt Hill
#
# Bulk Modulus (GPa) = 59.15399 75.91334 67.53367
# Shear Modulus (GPa) = 26.72602 36.14719 31.43660
#
# Velocity S-wave (km/s) = 3.80042 4.41979 4.12176
# Velocity P-wave (km/s) = 7.15719 8.18968 7.69078
#
# Compressibility (1/GPa) = 0.01690503
#
# Stress axis : x y z
#
# Youngs Moduli (GPa) = 36.97141 62.90417 61.26169
#
# Poissons Ratio (x) = 0.19360 0.94086
# Poissons Ratio (y) = 0.11379 0.16823
# Poissons Ratio (z) = 0.56781 0.17274
#
# Static dielectric constant tensor:
#      x y z
#    x 3.530320 0.000000 0.000000 
#    y 0.000000 3.431390 0.000000 
#    z 0.000000 0.000000 3.554650 
# 
# 
# High freq. dielectric constant tensor:
#      x y z
#    x 1.717690 0.000000 0.000000 
#    y 0.000000 1.727810 0.000000 
#    z 0.000000 0.000000 1.727990 
# 
# From -- ./inp_files/44568.got.cif
#   From: 2010.03.12/outbox.cif.g09.slc.cpg/sg67_23_cif.got.tgz:44568.got - 2010.04.10 22:41:39.
