data_PCOD8279235
_publ_section_title
;
Structure prediction by ZEFSAII (Michael W. Deem and Ramdas Pophale) SiO2 
 PCOD8279235
Probable space group: C M M A
;
_chemical_formula_sum "Si O2"
_cell_formula_units_Z 88
_cell_length_a 26.670969
_cell_length_b 8.881038
_cell_length_c 18.988892
_cell_angle_alpha 90.000000
_cell_angle_beta 90.000000
_cell_angle_gamma 90.000000
_cell_volume 4497.820788
_symmetry_space_group_name_H-M "C M M A"
_symmetry_group_IT_number 67
_symmetry_cell_setting 'orthorhombic'
loop_
_space_group_symop_operation_xyz
x,y,z
-x,1/2-y,z
x,-y,-z
-x,1/2+y,-z
-x,-y,-z
x,1/2+y,-z
-x,y,z
x,1/2-y,z
1/2+x,1/2+y,z
1/2-x,-y,z
1/2+x,1/2-y,-z
1/2-x,y,-z
1/2-x,1/2-y,-z
1/2+x,y,-z
1/2-x,1/2+y,z
1/2+x,-y,z
loop_
_atom_site_type_symbol
_atom_site_label
_atom_site_fract_x
_atom_site_fract_y
_atom_site_fract_z
Si Si1 0.108456 0.424819 0.071832
Si Si2 0.590860 0.075704 0.342139
Si Si3 0.300981 0.428422 0.150922
Si Si4 0.057673 0.417448 0.211911
Si Si5 0.199450 0.573968 0.311506
Si Si6 0.500000 0.428265 0.576156
O O1 0.119733 0.250000 0.058926
O O2 0.157554 0.506522 0.099572
O O3 0.065012 0.451065 0.129521
O O4 0.089520 0.500000 0.000000
O O5 0.579317 0.250000 0.357222
O O6 0.649591 0.036627 0.358608
O O7 0.585142 0.042430 0.259032
O O8 0.551446 0.976495 0.385556
O O9 0.299618 0.250000 0.144654
O O10 0.250000 0.500000 0.122513
O O11 0.309779 0.482697 0.231553
O O12 0.078660 0.250000 0.229932
O O13 0.000000 0.425561 0.231530
O O14 0.209174 0.750000 0.311218
O O15 0.250000 0.500000 0.343886
O O16 0.500000 0.250000 0.570356
O O17 0.500000 0.500000 0.500000
#
# Coordination Sequence:
#
# PCOD8279235 Si02
#       6
#    16  16  16  16  16   8
#     4  11  23  37  53  74 105 146 193 246 301 359
#     4  11  21  37  62  94 126 161 200 245 294 351
#     4  10  19  34  53  77 107 142 186 239 297 354
#     4  10  21  37  57  82 110 146 194 243 294 356
#     4   9  19  33  55  87 122 156 198 245 296 350
#     4  12  26  44  66  98 133 168 201 240 290 346
#
# _framework density 19.56503
#
# number of rings (size 3 to 8) (size 9 to 14) (size 15 to 20)
#    0.000    1.636    2.727    2.455    0.000    3.636 
#    0.000    1.818    0.000    0.545    0.000    3.818 
#    0.000    0.000    0.000    0.000    0.000    0.000 
#
# Total GULP energy -545464.333114 kJ/mol
# GULP energy per Si atom -12396.916662 kJ/mol
# Density = 1.952050 g / cm^3
# Si number density = 19.565030 Si / 1000 Ang^3
#
#
#
# Elastic Constant Matrix: (Units=GPa)
#
#
# Indices 1 2 3 4 5 6 
#
# 1 108.2457 49.1239 40.4863 0.0000 0.0000 0.0000
# 2 49.1239 102.0924 36.9442 0.0000 0.0000 0.0000
# 3 40.4863 36.9442 69.8527 0.0000 0.0000 0.0000
# 4 0.0000 0.0000 0.0000 30.3542 0.0000 0.0000
# 5 0.0000 0.0000 0.0000 0.0000 18.7000 0.0000
# 6 0.0000 0.0000 0.0000 0.0000 0.0000 30.5870
#
#
#
# Elastic Compliance Matrix: (Units=1/GPa)
#
#
# Indices 1 2 3 4 5 6 
#
# 1 0.013249 -0.004447 -0.005327 0.000000 0.000000 0.000000
# 2 -0.004447 0.013606 -0.004619 0.000000 0.000000 0.000000
# 3 -0.005327 -0.004619 0.019846 0.000000 0.000000 0.000000
# 4 0.000000 0.000000 0.000000 0.032944 0.000000 0.000000
# 5 0.000000 0.000000 0.000000 0.000000 0.053476 0.000000
# 6 0.000000 0.000000 0.000000 0.000000 0.000000 0.032694
#
#
# Mechanical properties :
#
#
# Convention : Reuss Voigt Hill
#
# Bulk Modulus (GPa) = 55.81707 59.25549 57.53628
# Shear Modulus (GPa) = 24.92866 26.17066 25.54966
#
# Velocity S-wave (km/s) = 3.57339 3.66132 3.61762
# Velocity P-wave (km/s) = 6.75399 6.94449 6.84990
#
# Compressibility (1/GPa) = 0.01791567
#
# Stress axis : x y z
#
# Youngs Moduli (GPa) = 75.47802 73.49545 50.38815
#
# Poissons Ratio (x) = 0.32686 0.26841
# Poissons Ratio (y) = 0.33568 0.23272
# Poissons Ratio (z) = 0.40206 0.33944
#
# Static dielectric constant tensor:
#      x y z
#    x 3.943530 0.000000 0.000000 
#    y 0.000000 3.616470 0.000000 
#    z 0.000000 0.000000 3.410060 
# 
# 
# High freq. dielectric constant tensor:
#      x y z
#    x 1.773690 0.000000 0.000000 
#    y 0.000000 1.768750 0.000000 
#    z 0.000000 0.000000 1.728220 
# 
# From -- ./inp_files/36180.got.cif
#   From: 2010.03.12/outbox.cif.g09.slc.cpg/sg67_19_cif.got.tgz:36180.got - 2010.04.10 22:41:39.
