data_PCOD8279476
_publ_section_title
;
Structure prediction by ZEFSAII (Michael W. Deem and Ramdas Pophale) SiO2 
 PCOD8279476
Probable space group: C M M A
;
_chemical_formula_sum "Si O2"
_cell_formula_units_Z 96
_cell_length_a 29.578752
_cell_length_b 9.144958
_cell_length_c 25.915811
_cell_angle_alpha 90.000000
_cell_angle_beta 90.000000
_cell_angle_gamma 90.000000
_cell_volume 7010.134738
_symmetry_space_group_name_H-M "C M M A"
_symmetry_group_IT_number 67
_symmetry_cell_setting 'orthorhombic'
loop_
_space_group_symop_operation_xyz
x,y,z
-x,1/2-y,z
x,-y,-z
-x,1/2+y,-z
-x,-y,-z
x,1/2+y,-z
-x,y,z
x,1/2-y,z
1/2+x,1/2+y,z
1/2-x,-y,z
1/2+x,1/2-y,-z
1/2-x,y,-z
1/2-x,1/2-y,-z
1/2+x,y,-z
1/2-x,1/2+y,z
1/2+x,-y,z
loop_
_atom_site_type_symbol
_atom_site_label
_atom_site_fract_x
_atom_site_fract_y
_atom_site_fract_z
Si Si1 0.108730 0.920590 0.054599
Si Si2 0.553722 0.086281 0.548084
Si Si3 0.053848 0.585803 0.241033
Si Si4 0.446375 0.582872 0.140125
Si Si5 0.553752 0.414831 0.661035
Si Si6 0.208885 0.580340 0.054507
O O1 0.097118 0.750000 0.046880
O O2 0.159135 0.938748 0.079388
O O3 0.073185 0.992433 0.092772
O O4 0.104424 0.000000 0.000000
O O5 0.500000 0.082354 0.543856
O O6 0.571892 0.250000 0.543548
O O7 0.568347 0.023411 0.604411
O O8 0.575714 0.000000 0.500000
O O9 0.072792 0.750000 0.235041
O O10 0.071004 0.488780 0.193288
O O11 0.073669 0.517784 0.294051
O O12 0.000000 0.587011 0.242755
O O13 0.500000 0.574214 0.136147
O O14 0.429436 0.750000 0.138276
O O15 0.500000 0.411547 0.664635
O O16 0.572149 0.250000 0.668722
O O17 0.221000 0.750000 0.047747
O O18 0.250000 0.500000 0.086248
O O19 0.206492 0.500000 0.000000
#
# Coordination Sequence:
#
# PCOD8279476 Si02
#       6
#    16  16  16  16  16  16
#     4  10  20  32  45  61  79  98 120 145 175 213
#     4   8  13  19  26  37  54  75  97 123 158 200
#     4   9  16  25  37  51  64  80 106 141 177 210
#     4  10  20  32  44  56  71  94 122 151 184 219
#     4   8  13  21  31  42  57  77 101 130 165 205
#     4   9  16  26  42  62  81  99 117 138 166 202
#
# _framework density 13.694457999999999
#
# number of rings (size 3 to 8) (size 9 to 14) (size 15 to 20)
#    0.000    3.000    0.000    3.500    0.000    6.000 
#    0.000    3.333    0.000    0.000    0.000    0.000 
#    0.000    0.000    0.000    0.000    0.000    0.000 
#
# Total GULP energy -594681.845572 kJ/mol
# GULP energy per Si atom -12389.205116 kJ/mol
# Density = 1.366329 g / cm^3
# Si number density = 13.694458 Si / 1000 Ang^3
#
#
#
# Elastic Constant Matrix: (Units=GPa)
#
#
# Indices 1 2 3 4 5 6 
#
# 1 16.8455 19.6206 18.5501 0.0000 0.0000 0.0000
# 2 19.6206 109.1339 56.2175 0.0000 0.0000 0.0000
# 3 18.5501 56.2175 104.4295 0.0000 0.0000 0.0000
# 4 0.0000 0.0000 0.0000 26.2544 0.0000 0.0000
# 5 0.0000 0.0000 0.0000 0.0000 -0.0078 0.0000
# 6 0.0000 0.0000 0.0000 0.0000 0.0000 13.5999
#
#
#
# Elastic Compliance Matrix: (Units=1/GPa)
#
#
# Indices 1 2 3 4 5 6 
#
# 1 0.080818 -0.009873 -0.009041 0.000000 0.000000 0.000000
# 2 -0.009873 0.013885 -0.005721 0.000000 0.000000 0.000000
# 3 -0.009041 -0.005721 0.014262 0.000000 0.000000 0.000000
# 4 0.000000 0.000000 0.000000 0.038089 0.000000 0.000000
# 5 0.000000 0.000000 0.000000 0.000000********** 0.000000
# 6 0.000000 0.000000 0.000000 0.000000 0.000000 0.073530
#
#
# Mechanical properties :
#
#
# Convention : Reuss Voigt Hill
#
# Bulk Modulus (GPa) = 16.75174 46.57615 31.66394
# Shear Modulus (GPa) = -0.03909 17.03733 8.49912
#
# Velocity S-wave (km/s) = -0.16914 3.53101 2.49394
# Velocity P-wave (km/s) = 3.49584 7.12101 5.60936
#
# Compressibility (1/GPa) = 0.05969528
#
# Stress axis : x y z
#
# Youngs Moduli (GPa) = 12.37344 72.01992 70.11800
#
# Poissons Ratio (x) = 0.71102 0.63396
# Poissons Ratio (y) = 0.12216 0.40115
# Poissons Ratio (z) = 0.11187 0.41203
#
# Static dielectric constant tensor:
#      x y z
#    x 2.570760 0.000000 0.000000 
#    y 0.000000 2.959170 0.000000 
#    z 0.000000 0.000000 2.833000 
# 
# 
# High freq. dielectric constant tensor:
#      x y z
#    x 1.453120 0.000000 0.000000 
#    y 0.000000 1.539510 0.000000 
#    z 0.000000 0.000000 1.513760 
# 
# From -- ./inp_files/44780.got.cif
#   From: 2010.03.12/outbox.cif.g09.slc.cpg/sg67_23_cif.got.tgz:44780.got - 2010.04.10 22:41:39.
