data_PCOD8279717
_publ_section_title
;
Structure prediction by ZEFSAII (Michael W. Deem and Ramdas Pophale) SiO2 
 PCOD8279717
Probable space group: C M M A
;
_chemical_formula_sum "Si O2"
_cell_formula_units_Z 88
_cell_length_a 10.167567
_cell_length_b 25.725463
_cell_length_c 18.115354
_cell_angle_alpha 90.000000
_cell_angle_beta 90.000000
_cell_angle_gamma 90.000000
_cell_volume 4738.349247
_symmetry_space_group_name_H-M "C M M A"
_symmetry_group_IT_number 67
_symmetry_cell_setting 'orthorhombic'
loop_
_space_group_symop_operation_xyz
x,y,z
-x,1/2-y,z
x,-y,-z
-x,1/2+y,-z
-x,-y,-z
x,1/2+y,-z
-x,y,z
x,1/2-y,z
1/2+x,1/2+y,z
1/2-x,-y,z
1/2+x,1/2-y,-z
1/2-x,y,-z
1/2-x,1/2-y,-z
1/2+x,y,-z
1/2-x,1/2+y,z
1/2+x,-y,z
loop_
_atom_site_type_symbol
_atom_site_label
_atom_site_fract_x
_atom_site_fract_y
_atom_site_fract_z
Si Si1 0.500000 0.885117 0.424234
Si Si2 0.141357 0.750000 0.941081
Si Si3 0.000000 0.810797 0.708519
Si Si4 0.500000 0.381458 0.409169
Si Si5 0.500000 0.687445 0.730837
Si Si6 0.347728 0.636184 0.069876
Si Si7 0.239486 0.132680 0.223309
Si Si8 0.753618 0.438683 0.359465
O O1 0.500000 0.834812 0.372836
O O2 0.500000 0.861875 0.506708
O O3 0.374532 0.921083 0.409705
O O4 0.155302 0.695775 0.897991
O O5 0.000000 0.750000 0.981933
O O6 0.250000 0.750000 0.000000
O O7 0.872782 0.827314 0.753694
O O8 0.000000 0.750000 0.697968
O O9 0.500000 0.331701 0.354490
O O10 0.624171 0.417873 0.397986
O O11 0.500000 0.750000 0.732561
O O12 0.624481 0.664325 0.774237
O O13 0.500000 0.619896 0.050643
O O14 0.289273 0.607503 0.141883
O O15 0.250000 0.627178 0.000000
O O16 0.237609 0.083122 0.276587
O O17 0.750000 0.500000 0.353947
#
# Coordination Sequence:
#
# PCOD8279717 Si02
#       8
#     8   8   8   8   8  16  16  16
#     4  10  21  35  56  86 109 139 182 225 271 331
#     4   8  16  28  42  66  98 130 161 199 252 304
#     4  10  20  34  56  78 107 145 187 220 262 319
#     4  10  21  37  54  82 117 137 178 229 271 327
#     4  10  22  36  52  76 109 155 187 216 264 321
#     4  10  20  33  51  77 108 140 176 224 273 319
#     4  10  21  36  53  78 108 144 187 227 264 324
#     4  10  21  37  57  81 108 142 181 226 281 326
#
# _framework density 18.571870000000001
#
# number of rings (size 3 to 8) (size 9 to 14) (size 15 to 20)
#    0.000    2.182    0.909    1.636    3.818    2.545 
#    0.000    0.000    0.000    7.091    0.000    1.273 
#    0.000    0.000    0.000    0.000    0.000    0.000 
#
# Total GULP energy -545241.019007 kJ/mol
# GULP energy per Si atom -12391.841341 kJ/mol
# Density = 1.852960 g / cm^3
# Si number density = 18.571870 Si / 1000 Ang^3
#
#
#
# Elastic Constant Matrix: (Units=GPa)
#
#
# Indices 1 2 3 4 5 6 
#
# 1 157.0899 25.8184 57.6090 0.0000 0.0000 0.0000
# 2 25.8184 63.1044 23.5362 0.0000 0.0000 0.0000
# 3 57.6090 23.5362 149.5166 0.0000 0.0000 0.0000
# 4 0.0000 0.0000 0.0000 11.6636 0.0000 0.0000
# 5 0.0000 0.0000 0.0000 0.0000 -45.0841 0.0000
# 6 0.0000 0.0000 0.0000 0.0000 0.0000 13.9493
#
#
#
# Elastic Compliance Matrix: (Units=1/GPa)
#
#
# Indices 1 2 3 4 5 6 
#
# 1 0.007682 -0.002166 -0.002619 0.000000 0.000000 0.000000
# 2 -0.002166 0.017446 -0.001912 0.000000 0.000000 0.000000
# 3 -0.002619 -0.001912 0.007998 0.000000 0.000000 0.000000
# 4 0.000000 0.000000 0.000000 0.085737 0.000000 0.000000
# 5 0.000000 0.000000 0.000000 0.000000 -0.022181 0.000000
# 6 0.000000 0.000000 0.000000 0.000000 0.000000 0.071688
#
#
# Mechanical properties :
#
#
# Convention : Reuss Voigt Hill
#
# Bulk Modulus (GPa) = 50.67709 64.84870 57.76289
# Shear Modulus (GPa) = 26.54744 13.62226 20.08485
#
# Velocity S-wave (km/s) = 3.78490 2.71124 3.29213
# Velocity P-wave (km/s) = 6.81519 6.69288 6.75431
#
# Compressibility (1/GPa) = 0.01973278
#
# Stress axis : x y z
#
# Youngs Moduli (GPa) = 130.16985 57.31963 125.02759
#
# Poissons Ratio (x) = 0.12417 0.32745
# Poissons Ratio (y) = 0.28199 0.23900
# Poissons Ratio (z) = 0.34091 0.10957
#
# Static dielectric constant tensor:
#      x y z
#    x 3.789890 0.000000 0.000000 
#    y 0.000000 2.904760 0.000000 
#    z 0.000000 0.000000 3.323510 
# 
# 
# High freq. dielectric constant tensor:
#      x y z
#    x 1.747560 0.000000 0.000000 
#    y 0.000000 1.687520 0.000000 
#    z 0.000000 0.000000 1.722510 
# 
# From -- ./inp_files/32509.got.cif
#   From: 2010.03.12/outbox.cif.g09.slc.cpg/sg67_17_cif.got.tgz:32509.got - 2010.04.10 22:41:39.
