data_PCOD8279707
_publ_section_title
;
Structure prediction by ZEFSAII (Michael W. Deem and Ramdas Pophale) SiO2 
 PCOD8279707
Probable space group: C M M A
;
_chemical_formula_sum "Si O2"
_cell_formula_units_Z 72
_cell_length_a 8.550448
_cell_length_b 16.397839
_cell_length_c 24.889737
_cell_angle_alpha 90.000000
_cell_angle_beta 90.000000
_cell_angle_gamma 90.000000
_cell_volume 3489.761891
_symmetry_space_group_name_H-M "C M M A"
_symmetry_group_IT_number 67
_symmetry_cell_setting 'orthorhombic'
loop_
_space_group_symop_operation_xyz
x,y,z
-x,1/2-y,z
x,-y,-z
-x,1/2+y,-z
-x,-y,-z
x,1/2+y,-z
-x,y,z
x,1/2-y,z
1/2+x,1/2+y,z
1/2-x,-y,z
1/2+x,1/2-y,-z
1/2-x,y,-z
1/2-x,1/2-y,-z
1/2+x,y,-z
1/2-x,1/2+y,z
1/2+x,-y,z
loop_
_atom_site_type_symbol
_atom_site_label
_atom_site_fract_x
_atom_site_fract_y
_atom_site_fract_z
Si Si1 0.814572 0.087810 0.116927
Si Si2 0.315595 0.657207 0.445582
Si Si3 0.314771 0.839106 0.225837
Si Si4 0.185931 0.412707 0.334822
Si Si5 0.313980 0.250000 0.059589
O O1 0.763970 0.097256 0.179637
O O2 0.745620 0.165965 0.086251
O O3 0.000000 0.088757 0.108900
O O4 0.750000 0.000000 0.096180
O O5 0.500000 0.649497 0.446060
O O6 0.258276 0.750000 0.444167
O O7 0.250000 0.614857 0.500000
O O8 0.244625 0.616434 0.392019
O O9 0.500000 0.837520 0.229155
O O10 0.250011 0.750000 0.209705
O O11 0.249119 0.859671 0.285059
O O12 0.250000 0.500000 0.321908
O O13 0.000000 0.410625 0.337189
O O14 0.500000 0.250000 0.060573
O O15 0.250000 0.250000 0.000000
#
# Coordination Sequence:
#
# PCOD8279707 Si02
#       5
#    16  16  16  16   8
#     4  11  22  40  66  98 133 171 213 260 315 374
#     4   9  18  33  52  72  95 131 179 229 281 342
#     4   9  17  33  59  86 115 154 197 243 296 358
#     4  10  20  33  51  76 107 142 184 231 285 348
#     4  12  26  46  70  98 132 172 217 264 311 366
#
# _framework density 20.631782000000001
#
# number of rings (size 3 to 8) (size 9 to 14) (size 15 to 20)
#    0.000    2.000    1.111    3.000    0.000    4.444 
#    0.000    5.556    0.000    1.333    0.000    0.000 
#    0.000    0.000    0.000    0.000    0.000    0.000 
#
# Total GULP energy -446133.535122 kJ/mol
# GULP energy per Si atom -12392.598198 kJ/mol
# Density = 2.058482 g / cm^3
# Si number density = 20.631782 Si / 1000 Ang^3
#
#
#
# Elastic Constant Matrix: (Units=GPa)
#
#
# Indices 1 2 3 4 5 6 
#
# 1 60.8620 35.9639 38.3497 0.0000 0.0000 0.0000
# 2 35.9639 145.4823 64.1556 0.0000 0.0000 0.0000
# 3 38.3497 64.1556 155.2436 0.0000 0.0000 0.0000
# 4 0.0000 0.0000 0.0000 25.6905 0.0000 0.0000
# 5 0.0000 0.0000 0.0000 0.0000 24.7614 0.0000
# 6 0.0000 0.0000 0.0000 0.0000 0.0000 31.9484
#
#
#
# Elastic Compliance Matrix: (Units=1/GPa)
#
#
# Indices 1 2 3 4 5 6 
#
# 1 0.020839 -0.003523 -0.003692 0.000000 0.000000 0.000000
# 2 -0.003523 0.009001 -0.002849 0.000000 0.000000 0.000000
# 3 -0.003692 -0.002849 0.008531 0.000000 0.000000 0.000000
# 4 0.000000 0.000000 0.000000 0.038925 0.000000 0.000000
# 5 0.000000 0.000000 0.000000 0.000000 0.040385 0.000000
# 6 0.000000 0.000000 0.000000 0.000000 0.000000 0.031300
#
#
# Mechanical properties :
#
#
# Convention : Reuss Voigt Hill
#
# Bulk Modulus (GPa) = 54.81894 70.94737 62.88315
# Shear Modulus (GPa) = 28.54016 31.35464 29.94740
#
# Velocity S-wave (km/s) = 3.72332 3.90259 3.81401
# Velocity P-wave (km/s) = 6.71655 7.40061 7.06686
#
# Compressibility (1/GPa) = 0.01824187
#
# Stress axis : x y z
#
# Youngs Moduli (GPa) = 47.98736 111.09539 117.21957
#
# Poissons Ratio (x) = 0.39144 0.43274
# Poissons Ratio (y) = 0.16908 0.33401
# Poissons Ratio (z) = 0.17715 0.31656
#
# Static dielectric constant tensor:
#      x y z
#    x 3.451830 0.000000 0.000000 
#    y 0.000000 3.815120 0.000000 
#    z 0.000000 0.000000 4.138280 
# 
# 
# High freq. dielectric constant tensor:
#      x y z
#    x 1.776360 0.000000 0.000000 
#    y 0.000000 1.810250 0.000000 
#    z 0.000000 0.000000 1.825230 
# 
# From -- ./inp_files/42109.got.cif
#   From: 2010.03.12/outbox.cif.g09.slc.cpg/sg67_22_cif.got.tgz:42109.got - 2010.04.10 22:41:39.
