data_PCOD8279089
_publ_section_title
;
Structure prediction by ZEFSAII (Michael W. Deem and Ramdas Pophale) SiO2 
 PCOD8279089
Probable space group: C M M A
;
_chemical_formula_sum "Si O2"
_cell_formula_units_Z 80
_cell_length_a 27.553343
_cell_length_b 9.150234
_cell_length_c 17.733808
_cell_angle_alpha 90.000000
_cell_angle_beta 90.000000
_cell_angle_gamma 90.000000
_cell_volume 4471.039443
_symmetry_space_group_name_H-M "C M M A"
_symmetry_group_IT_number 67
_symmetry_cell_setting 'orthorhombic'
loop_
_space_group_symop_operation_xyz
x,y,z
-x,1/2-y,z
x,-y,-z
-x,1/2+y,-z
-x,-y,-z
x,1/2+y,-z
-x,y,z
x,1/2-y,z
1/2+x,1/2+y,z
1/2-x,-y,z
1/2+x,1/2-y,-z
1/2-x,y,-z
1/2-x,1/2-y,-z
1/2+x,y,-z
1/2-x,1/2+y,z
1/2+x,-y,z
loop_
_atom_site_type_symbol
_atom_site_label
_atom_site_fract_x
_atom_site_fract_y
_atom_site_fract_z
Si Si1 0.838305 0.413085 0.211906
Si Si2 0.750000 0.500000 0.693107
Si Si3 0.898400 0.579974 0.646722
Si Si4 0.683179 0.410429 0.432080
Si Si5 0.500000 0.579814 0.420048
Si Si6 0.698081 0.425759 0.075549
O O1 0.846769 0.250000 0.179221
O O2 0.786960 0.407798 0.255944
O O3 0.882383 0.458816 0.267467
O O4 0.837187 0.531784 0.144654
O O5 0.718896 0.605809 0.639261
O O6 0.888262 0.750000 0.632188
O O7 0.866841 0.489625 0.587993
O O8 0.954056 0.536833 0.631758
O O9 0.708199 0.500000 0.500000
O O10 0.670497 0.250000 0.461659
O O11 0.500000 0.750000 0.439228
O O12 0.500000 0.500000 0.500000
O O13 0.702513 0.250000 0.067978
O O14 0.750000 0.500000 0.091341
O O15 0.676409 0.500000 0.000000
#
# Coordination Sequence:
#
# PCOD8279089 Si02
#       6
#    16   8  16  16   8  16
#     4  10  19  33  51  73 102 133 168 208 252 300
#     4  10  21  32  49  66  94 130 170 204 247 296
#     4   9  20  36  54  75 100 130 167 212 261 313
#     4  11  22  34  48  68  94 128 169 212 255 303
#     4  10  20  36  56  78 103 134 171 216 269 316
#     4  11  21  33  51  75 105 140 175 209 246 292
#
# _framework density 17.892931000000001
#
# number of rings (size 3 to 8) (size 9 to 14) (size 15 to 20)
#    0.000    1.800    1.000    4.500    0.000    8.800 
#    0.000    0.000    0.000    0.000    0.000    0.700 
#    0.000    0.000    0.000    0.000    0.000    0.000 
#
# Total GULP energy -495839.777125 kJ/mol
# GULP energy per Si atom -12395.994428 kJ/mol
# Density = 1.785221 g / cm^3
# Si number density = 17.892931 Si / 1000 Ang^3
#
#
#
# Elastic Constant Matrix: (Units=GPa)
#
#
# Indices 1 2 3 4 5 6 
#
# 1 103.4426 29.6384 48.8722 0.0000 0.0000 0.0000
# 2 29.6384 119.8294 56.5580 0.0000 0.0000 0.0000
# 3 48.8722 56.5580 122.6761 0.0000 0.0000 0.0000
# 4 0.0000 0.0000 0.0000 29.0500 0.0000 0.0000
# 5 0.0000 0.0000 0.0000 0.0000 21.7180 0.0000
# 6 0.0000 0.0000 0.0000 0.0000 0.0000 13.3818
#
#
#
# Elastic Compliance Matrix: (Units=1/GPa)
#
#
# Indices 1 2 3 4 5 6 
#
# 1 0.011986 -0.000908 -0.004356 0.000000 0.000000 0.000000
# 2 -0.000908 0.010735 -0.004587 0.000000 0.000000 0.000000
# 3 -0.004356 -0.004587 0.012002 0.000000 0.000000 0.000000
# 4 0.000000 0.000000 0.000000 0.034423 0.000000 0.000000
# 5 0.000000 0.000000 0.000000 0.000000 0.046045 0.000000
# 6 0.000000 0.000000 0.000000 0.000000 0.000000 0.074728
#
#
# Mechanical properties :
#
#
# Convention : Reuss Voigt Hill
#
# Bulk Modulus (GPa) = 66.58325 68.45393 67.51859
# Shear Modulus (GPa) = 23.29605 26.88860 25.09233
#
# Velocity S-wave (km/s) = 3.61220 3.88074 3.74887
# Velocity P-wave (km/s) = 7.39528 7.64335 7.52033
#
# Compressibility (1/GPa) = 0.01501879
#
# Stress axis : x y z
#
# Youngs Moduli (GPa) = 83.43400 93.15271 83.32072
#
# Poissons Ratio (x) = 0.08463 0.36294
# Poissons Ratio (y) = 0.07580 0.38222
# Poissons Ratio (z) = 0.36344 0.42732
#
# Static dielectric constant tensor:
#      x y z
#    x 3.167630 0.000000 0.000000 
#    y 0.000000 3.251900 0.000000 
#    z 0.000000 0.000000 3.517980 
# 
# 
# High freq. dielectric constant tensor:
#      x y z
#    x 1.655550 0.000000 0.000000 
#    y 0.000000 1.696290 0.000000 
#    z 0.000000 0.000000 1.692990 
# 
# From -- ./inp_files/35775.got.cif
#   From: 2010.03.12/outbox.cif.g09.slc.cpg/sg67_18_cif.got.tgz:35775.got - 2010.04.10 22:41:39.
