data_PCOD8279020
_publ_section_title
;
Structure prediction by ZEFSAII (Michael W. Deem and Ramdas Pophale) SiO2 
 PCOD8279020
Probable space group: C M M A
;
_chemical_formula_sum "Si O2"
_cell_formula_units_Z 96
_cell_length_a 14.935856
_cell_length_b 26.610505
_cell_length_c 13.885200
_cell_angle_alpha 90.000000
_cell_angle_beta 90.000000
_cell_angle_gamma 90.000000
_cell_volume 5518.682054
_symmetry_space_group_name_H-M "C M M A"
_symmetry_group_IT_number 67
_symmetry_cell_setting 'orthorhombic'
loop_
_space_group_symop_operation_xyz
x,y,z
-x,1/2-y,z
x,-y,-z
-x,1/2+y,-z
-x,-y,-z
x,1/2+y,-z
-x,y,z
x,1/2-y,z
1/2+x,1/2+y,z
1/2-x,-y,z
1/2+x,1/2-y,-z
1/2-x,y,-z
1/2-x,1/2-y,-z
1/2+x,y,-z
1/2-x,1/2+y,z
1/2+x,-y,z
loop_
_atom_site_type_symbol
_atom_site_label
_atom_site_fract_x
_atom_site_fract_y
_atom_site_fract_z
Si Si1 0.263147 0.118509 0.606636
Si Si2 0.100857 0.429649 0.706029
Si Si3 0.102407 0.807936 0.943076
Si Si4 0.897663 0.526999 0.600649
Si Si5 0.772415 0.807385 0.769676
Si Si6 0.898524 0.149427 0.854532
O O1 0.250000 0.140078 0.500000
O O2 0.164899 0.101389 0.637127
O O3 0.332459 0.073196 0.614245
O O4 0.300144 0.162257 0.674833
O O5 0.119619 0.489086 0.691347
O O6 0.113040 0.408659 0.816293
O O7 0.000000 0.418705 0.670010
O O8 0.123813 0.750000 0.972692
O O9 0.166076 0.826521 0.857595
O O10 0.000000 0.812917 0.908871
O O11 0.122608 0.845240 0.032262
O O12 0.874135 0.500000 0.500000
O O13 0.000000 0.546003 0.600253
O O14 0.792746 0.750000 0.746879
O O15 0.668242 0.814832 0.795500
O O16 0.000000 0.168321 0.835093
#
# Coordination Sequence:
#
# PCOD8279020 Si02
#       6
#    16  16  16  16  16  16
#     4  11  21  32  51  73  99 135 173 210 252 302
#     4   9  18  31  48  76 106 127 156 208 261 304
#     4   9  17  31  52  74  97 132 176 216 253 300
#     4  10  19  32  53  76  98 126 165 210 254 302
#     4  10  21  34  48  72 104 136 171 212 253 297
#     4   9  17  30  51  77 103 130 164 206 255 303
#
# _framework density 17.395457
#
# number of rings (size 3 to 8) (size 9 to 14) (size 15 to 20)
#    0.000    2.333    1.667    1.500    0.000    3.333 
#    0.000    0.000    0.000    1.000    0.000   14.000 
#    0.000    0.000    0.000    0.000    0.000    0.000 
#
# Total GULP energy -594921.839589 kJ/mol
# GULP energy per Si atom -12394.204991 kJ/mol
# Density = 1.735586 g / cm^3
# Si number density = 17.395457 Si / 1000 Ang^3
#
#
#
# Elastic Constant Matrix: (Units=GPa)
#
#
# Indices 1 2 3 4 5 6 
#
# 1 80.4022 44.2624 56.4376 0.0000 0.0000 0.0000
# 2 44.2624 86.5512 75.8238 0.0000 0.0000 0.0000
# 3 56.4376 75.8238 139.0665 0.0000 0.0000 0.0000
# 4 0.0000 0.0000 0.0000 34.1580 0.0000 0.0000
# 5 0.0000 0.0000 0.0000 0.0000 23.3284 0.0000
# 6 0.0000 0.0000 0.0000 0.0000 0.0000 18.4979
#
#
#
# Elastic Compliance Matrix: (Units=1/GPa)
#
#
# Indices 1 2 3 4 5 6 
#
# 1 0.018701 -0.005581 -0.004547 0.000000 0.000000 0.000000
# 2 -0.005581 0.023785 -0.010703 0.000000 0.000000 0.000000
# 3 -0.004547 -0.010703 0.014872 0.000000 0.000000 0.000000
# 4 0.000000 0.000000 0.000000 0.029276 0.000000 0.000000
# 5 0.000000 0.000000 0.000000 0.000000 0.042866 0.000000
# 6 0.000000 0.000000 0.000000 0.000000 0.000000 0.054060
#
#
# Mechanical properties :
#
#
# Convention : Reuss Voigt Hill
#
# Bulk Modulus (GPa) = 63.70993 73.22973 68.46983
# Shear Modulus (GPa) = 21.69637 23.82994 22.76315
#
# Velocity S-wave (km/s) = 3.53546 3.70522 3.62134
# Velocity P-wave (km/s) = 7.30548 7.77775 7.54531
#
# Compressibility (1/GPa) = 0.01569614
#
# Stress axis : x y z
#
# Youngs Moduli (GPa) = 53.47231 42.04413 67.24083
#
# Poissons Ratio (x) = 0.23463 0.30573
# Poissons Ratio (y) = 0.29840 0.71970
# Poissons Ratio (z) = 0.24313 0.45001
#
# Static dielectric constant tensor:
#      x y z
#    x 3.426570 0.000000 0.000000 
#    y 0.000000 3.195550 0.000000 
#    z 0.000000 0.000000 3.354510 
# 
# 
# High freq. dielectric constant tensor:
#      x y z
#    x 1.690890 0.000000 0.000000 
#    y 0.000000 1.645340 0.000000 
#    z 0.000000 0.000000 1.659390 
# 
# From -- ./inp_files/27822.got.cif
#   From: 2010.03.12/outbox.cif.g09.slc.cpg/sg67_14_cif.got.tgz:27822.got - 2010.04.10 22:41:39.
