data_PCOD8279782
_publ_section_title
;
Structure prediction by ZEFSAII (Michael W. Deem and Ramdas Pophale) SiO2 
 PCOD8279782
Probable space group: C M M A
;
_chemical_formula_sum "Si O2"
_cell_formula_units_Z 96
_cell_length_a 9.073722
_cell_length_b 26.968193
_cell_length_c 24.017608
_cell_angle_alpha 90.000000
_cell_angle_beta 90.000000
_cell_angle_gamma 90.000000
_cell_volume 5877.153978
_symmetry_space_group_name_H-M "C M M A"
_symmetry_group_IT_number 67
_symmetry_cell_setting 'orthorhombic'
loop_
_space_group_symop_operation_xyz
x,y,z
-x,1/2-y,z
x,-y,-z
-x,1/2+y,-z
-x,-y,-z
x,1/2+y,-z
-x,y,z
x,1/2-y,z
1/2+x,1/2+y,z
1/2-x,-y,z
1/2+x,1/2-y,-z
1/2-x,y,-z
1/2-x,1/2-y,-z
1/2+x,y,-z
1/2-x,1/2+y,z
1/2+x,-y,z
loop_
_atom_site_type_symbol
_atom_site_label
_atom_site_fract_x
_atom_site_fract_y
_atom_site_fract_z
Si Si1 0.325087 0.901899 0.441903
Si Si2 0.173783 0.950643 0.338953
Si Si3 0.666069 0.190931 0.946124
Si Si4 0.828969 0.149239 0.721159
Si Si5 0.670428 0.194985 0.620576
Si Si6 0.671977 0.307407 0.163711
O O1 0.500000 0.910791 0.445094
O O2 0.250000 0.914761 0.500000
O O3 0.253752 0.938307 0.396886
O O4 0.284357 0.845092 0.426099
O O5 0.204918 0.907796 0.293787
O O6 0.000000 0.958101 0.349115
O O7 0.250000 0.000000 0.314732
O O8 0.500000 0.170850 0.947424
O O9 0.671045 0.250000 0.947391
O O10 0.743237 0.171608 0.889997
O O11 0.750000 0.169342 0.000000
O O12 0.752992 0.186221 0.678211
O O13 0.772728 0.160762 0.783369
O O14 0.000000 0.161544 0.716866
O O15 0.500000 0.189343 0.634802
O O16 0.708861 0.250000 0.597909
O O17 0.500000 0.314742 0.152156
O O18 0.709704 0.250000 0.175004
#
# Coordination Sequence:
#
# PCOD8279782 Si02
#       6
#    16  16  16  16  16  16
#     4  10  20  34  50  69  92 116 145 180 217 260
#     4  10  20  35  53  71  90 113 142 178 224 272
#     4   9  16  25  37  55  82 118 157 191 220 250
#     4   9  18  31  47  67  90 116 148 184 220 263
#     4   9  18  31  46  65  91 121 149 179 216 256
#     4   9  16  26  41  62  89 120 151 182 215 251
#
# _framework density 16.334437000000001
#
# number of rings (size 3 to 8) (size 9 to 14) (size 15 to 20)
#    0.000    2.667    0.000    2.000    0.000    5.667 
#    0.000    3.333    0.000    0.000    0.000    0.000 
#    0.000    0.667    0.000    7.667    0.000    2.667 
#
# Total GULP energy -595179.957139 kJ/mol
# GULP energy per Si atom -12399.582440 kJ/mol
# Density = 1.629726 g / cm^3
# Si number density = 16.334437 Si / 1000 Ang^3
#
#
#
# Elastic Constant Matrix: (Units=GPa)
#
#
# Indices 1 2 3 4 5 6 
#
# 1 75.4577 25.9971 48.2985 0.0000 0.0000 0.0000
# 2 25.9971 61.4214 25.8243 0.0000 0.0000 0.0000
# 3 48.2985 25.8243 121.4342 0.0000 0.0000 0.0000
# 4 0.0000 0.0000 0.0000 14.3365 0.0000 0.0000
# 5 0.0000 0.0000 0.0000 0.0000 29.7096 0.0000
# 6 0.0000 0.0000 0.0000 0.0000 0.0000 19.8027
#
#
#
# Elastic Compliance Matrix: (Units=1/GPa)
#
#
# Indices 1 2 3 4 5 6 
#
# 1 0.019295 -0.005425 -0.006521 0.000000 0.000000 0.000000
# 2 -0.005425 0.019405 -0.001969 0.000000 0.000000 0.000000
# 3 -0.006521 -0.001969 0.011247 0.000000 0.000000 0.000000
# 4 0.000000 0.000000 0.000000 0.069752 0.000000 0.000000
# 5 0.000000 0.000000 0.000000 0.000000 0.033659 0.000000
# 6 0.000000 0.000000 0.000000 0.000000 0.000000 0.050498
#
#
# Mechanical properties :
#
#
# Convention : Reuss Voigt Hill
#
# Bulk Modulus (GPa) = 45.21241 50.95034 48.08138
# Shear Modulus (GPa) = 20.91533 23.31599 22.11566
#
# Velocity S-wave (km/s) = 3.58221 3.78221 3.68357
# Velocity P-wave (km/s) = 6.69694 7.09459 6.89863
#
# Compressibility (1/GPa) = 0.02211782
#
# Stress axis : x y z
#
# Youngs Moduli (GPa) = 51.82610 51.53288 88.91190
#
# Poissons Ratio (x) = 0.27958 0.57976
# Poissons Ratio (y) = 0.28117 0.17506
# Poissons Ratio (z) = 0.33794 0.10146
#
# Static dielectric constant tensor:
#      x y z
#    x 3.165690 0.000000 0.000000 
#    y 0.000000 2.997870 0.000000 
#    z 0.000000 0.000000 3.106810 
# 
# 
# High freq. dielectric constant tensor:
#      x y z
#    x 1.638520 0.000000 0.000000 
#    y 0.000000 1.596470 0.000000 
#    z 0.000000 0.000000 1.622280 
# 
# From -- ./inp_files/40780.got.cif
#   From: 2010.03.12/outbox.cif.g09.slc.cpg/sg67_21_cif.got.tgz:40780.got - 2010.04.10 22:41:39.
