data_PCOD8279527
_publ_section_title
;
Structure prediction by ZEFSAII (Michael W. Deem and Ramdas Pophale) SiO2 
 PCOD8279527
Probable space group: C M M A
;
_chemical_formula_sum "Si O2"
_cell_formula_units_Z 128
_cell_length_a 23.372011
_cell_length_b 17.587148
_cell_length_c 17.978850
_cell_angle_alpha 90.000000
_cell_angle_beta 90.000000
_cell_angle_gamma 90.000000
_cell_volume 7390.152653
_symmetry_space_group_name_H-M "C M M A"
_symmetry_group_IT_number 67
_symmetry_cell_setting 'orthorhombic'
loop_
_space_group_symop_operation_xyz
x,y,z
-x,1/2-y,z
x,-y,-z
-x,1/2+y,-z
-x,-y,-z
x,1/2+y,-z
-x,y,z
x,1/2-y,z
1/2+x,1/2+y,z
1/2-x,-y,z
1/2+x,1/2-y,-z
1/2-x,y,-z
1/2-x,1/2-y,-z
1/2+x,y,-z
1/2-x,1/2+y,z
1/2+x,-y,z
loop_
_atom_site_type_symbol
_atom_site_label
_atom_site_fract_x
_atom_site_fract_y
_atom_site_fract_z
Si Si1 0.566778 0.161842 0.229843
Si Si2 0.933251 0.338145 0.229616
Si Si3 0.864777 0.909993 0.639364
Si Si4 0.936628 0.909708 0.499953
Si Si5 0.364573 0.410320 0.360672
Si Si6 0.749995 0.159938 0.585471
Si Si7 0.432220 0.585176 0.918569
Si Si8 0.932222 0.585220 0.918759
O O1 0.500000 0.140561 0.240935
O O2 0.577767 0.250000 0.245181
O O3 0.605055 0.111872 0.284358
O O4 0.587943 0.142130 0.146288
O O5 0.922365 0.250000 0.245042
O O6 0.894910 0.388043 0.284105
O O7 0.912086 0.357743 0.146039
O O8 0.000000 0.359585 0.240675
O O9 0.904622 0.879746 0.572804
O O10 0.804169 0.869693 0.630993
O O11 0.855769 0.999816 0.635916
O O12 0.904038 0.879831 0.427512
O O13 0.000000 0.874210 0.499512
O O14 0.939688 0.000000 0.500000
O O15 0.303741 0.370540 0.368680
O O16 0.750490 0.250000 0.586013
O O17 0.750000 0.129318 0.500000
O O18 0.500000 0.584324 0.921322
O O19 0.409704 0.499958 0.901518
O O20 0.409026 0.612269 0.999900
O O21 0.000000 0.584289 0.921613
#
# Coordination Sequence:
#
# PCOD8279527 Si02
#       8
#    16  16  16  16  16  16  16  16
#     4  10  20  32  47  73 109 142 171 207 257 311
#     4  10  20  32  47  73 109 142 171 207 257 311
#     4  11  21  35  55  75  99 131 174 217 254 299
#     4   9  18  31  49  74 100 127 162 205 250 295
#     4  11  21  35  55  75  99 131 174 217 254 299
#     4  11  23  39  57  75 100 129 164 213 267 313
#     4   8  14  26  45  69  98 134 174 211 248 295
#     4   8  14  26  45  69  98 134 174 211 248 295
#
# _framework density 17.320345
#
# number of rings (size 3 to 8) (size 9 to 14) (size 15 to 20)
#    0.000    2.250    1.250    3.375    0.000    3.500 
#    0.000    2.500    0.000    3.000    0.000    0.875 
#    0.000    7.000    0.000    0.000    0.000    0.000 
#
# Total GULP energy -793483.475821 kJ/mol
# GULP energy per Si atom -12398.179310 kJ/mol
# Density = 1.728092 g / cm^3
# Si number density = 17.320345 Si / 1000 Ang^3
#
#
#
# Elastic Constant Matrix: (Units=GPa)
#
#
# Indices 1 2 3 4 5 6 
#
# 1 91.4948 27.2644 44.0653 0.0000 0.0000 0.0000
# 2 27.2644 59.1149 29.8903 0.0000 0.0000 0.0000
# 3 44.0653 29.8903 121.9064 0.0000 0.0000 0.0000
# 4 0.0000 0.0000 0.0000 26.3329 0.0000 0.0000
# 5 0.0000 0.0000 0.0000 0.0000 1.1392 0.0000
# 6 0.0000 0.0000 0.0000 0.0000 0.0000 20.5909
#
#
#
# Elastic Compliance Matrix: (Units=1/GPa)
#
#
# Indices 1 2 3 4 5 6 
#
# 1 0.014218 -0.004519 -0.004031 0.000000 0.000000 0.000000
# 2 -0.004519 0.020747 -0.003453 0.000000 0.000000 0.000000
# 3 -0.004031 -0.003453 0.010507 0.000000 0.000000 0.000000
# 4 0.000000 0.000000 0.000000 0.037975 0.000000 0.000000
# 5 0.000000 0.000000 0.000000 0.000000 0.877833 0.000000
# 6 0.000000 0.000000 0.000000 0.000000 0.000000 0.048565
#
#
# Mechanical properties :
#
#
# Convention : Reuss Voigt Hill
#
# Bulk Modulus (GPa) = 46.58985 52.77290 49.68138
# Shear Modulus (GPa) = 4.80304 21.03233 12.91769
#
# Velocity S-wave (km/s) = 1.66706 3.48848 2.73392
# Velocity P-wave (km/s) = 5.53740 6.83819 6.22188
#
# Compressibility (1/GPa) = 0.02146390
#
# Stress axis : x y z
#
# Youngs Moduli (GPa) = 70.33491 48.20075 95.17547
#
# Poissons Ratio (x) = 0.21782 0.38367
# Poissons Ratio (y) = 0.31785 0.32868
# Poissons Ratio (z) = 0.28354 0.16646
#
# Static dielectric constant tensor:
#      x y z
#    x 2.988100 0.000000 0.000000 
#    y 0.000000 3.133770 0.000000 
#    z 0.000000 0.000000 3.570970 
# 
# 
# High freq. dielectric constant tensor:
#      x y z
#    x 1.631010 0.000000 0.000000 
#    y 0.000000 1.665110 0.000000 
#    z 0.000000 0.000000 1.679230 
# 
# From -- ./inp_files/35605.got.cif
#   From: 2010.03.12/outbox.cif.g09.slc.cpg/sg67_18_cif.got.tgz:35605.got - 2010.04.10 22:41:39.
