data_PCOD8279259
_publ_section_title
;
Structure prediction by ZEFSAII (Michael W. Deem and Ramdas Pophale) SiO2 
 PCOD8279259
Probable space group: C M M A
;
_chemical_formula_sum "Si O2"
_cell_formula_units_Z 80
_cell_length_a 8.611928
_cell_length_b 25.959115
_cell_length_c 19.775382
_cell_angle_alpha 90.000000
_cell_angle_beta 90.000000
_cell_angle_gamma 90.000000
_cell_volume 4420.945429
_symmetry_space_group_name_H-M "C M M A"
_symmetry_group_IT_number 67
_symmetry_cell_setting 'orthorhombic'
loop_
_space_group_symop_operation_xyz
x,y,z
-x,1/2-y,z
x,-y,-z
-x,1/2+y,-z
-x,-y,-z
x,1/2+y,-z
-x,y,z
x,1/2-y,z
1/2+x,1/2+y,z
1/2-x,-y,z
1/2+x,1/2-y,-z
1/2-x,y,-z
1/2-x,1/2-y,-z
1/2+x,y,-z
1/2-x,1/2+y,z
1/2+x,-y,z
loop_
_atom_site_type_symbol
_atom_site_label
_atom_site_fract_x
_atom_site_fract_y
_atom_site_fract_z
Si Si1 0.816686 0.445011 0.675023
Si Si2 0.683809 0.638878 0.074558
Si Si3 0.315406 0.944816 0.180214
Si Si4 0.184040 0.861694 0.575423
Si Si5 0.179677 0.250000 0.427374
Si Si6 0.182105 0.750000 0.926718
O O1 0.750000 0.500000 0.651771
O O2 0.746084 0.428024 0.746644
O O3 0.771947 0.403155 0.619922
O O4 0.000000 0.449631 0.681916
O O5 0.500000 0.634773 0.068985
O O6 0.748342 0.596064 0.125705
O O7 0.734102 0.695251 0.106136
O O8 0.750000 0.629301 0.000000
O O9 0.500000 0.946762 0.182597
O O10 0.250000 0.000000 0.158330
O O11 0.250000 0.865850 0.500000
O O12 0.223817 0.804664 0.607941
O O13 0.000000 0.872405 0.575386
O O14 0.250000 0.250000 0.500000
O O15 0.000000 0.250000 0.440564
O O16 0.000000 0.750000 0.933007
O O17 0.250000 0.750000 0.000000
#
# Coordination Sequence:
#
# PCOD8279259 Si02
#       6
#    16  16  16  16   8   8
#     4  11  22  37  55  75 100 135 172 212 258 306
#     4   9  18  31  51  75 100 128 163 203 246 293
#     4  10  20  35  52  72  98 132 168 206 250 301
#     4  10  19  34  55  81 108 136 170 209 250 298
#     4   8  16  30  51  76 105 137 167 201 247 296
#     4   8  14  28  47  70  97 127 159 197 243 292
#
# _framework density 18.095676000000001
#
# number of rings (size 3 to 8) (size 9 to 14) (size 15 to 20)
#    0.000    2.400    0.000    4.200    0.000    3.200 
#    0.000    5.000    0.000    3.600    0.000    0.000 
#    0.000    0.000    0.000    0.000    0.000    0.000 
#
# Total GULP energy -495530.130788 kJ/mol
# GULP energy per Si atom -12388.253270 kJ/mol
# Density = 1.805449 g / cm^3
# Si number density = 18.095676 Si / 1000 Ang^3
#
#
#
# Elastic Constant Matrix: (Units=GPa)
#
#
# Indices 1 2 3 4 5 6 
#
# 1 65.2407 40.1621 26.0107 0.0000 0.0000 0.0000
# 2 40.1621 164.1683 85.8767 0.0000 0.0000 0.0000
# 3 26.0107 85.8767 84.5488 0.0000 0.0000 0.0000
# 4 0.0000 0.0000 0.0000 0.3774 0.0000 0.0000
# 5 0.0000 0.0000 0.0000 0.0000 27.2895 0.0000
# 6 0.0000 0.0000 0.0000 0.0000 0.0000 23.2678
#
#
#
# Elastic Compliance Matrix: (Units=1/GPa)
#
#
# Indices 1 2 3 4 5 6 
#
# 1 0.018253 -0.003260 -0.002304 0.000000 0.000000 0.000000
# 2 -0.003260 0.013579 -0.012789 0.000000 0.000000 0.000000
# 3 -0.002304 -0.012789 0.025526 0.000000 0.000000 0.000000
# 4 0.000000 0.000000 0.000000 2.649745 0.000000 0.000000
# 5 0.000000 0.000000 0.000000 0.000000 0.036644 0.000000
# 6 0.000000 0.000000 0.000000 0.000000 0.000000 0.042978
#
#
# Mechanical properties :
#
#
# Convention : Reuss Voigt Hill
#
# Bulk Modulus (GPa) = 48.42204 68.67297 58.54750
# Shear Modulus (GPa) = 1.76659 20.98082 11.37370
#
# Velocity S-wave (km/s) = 0.98912 3.40875 2.50977
# Velocity P-wave (km/s) = 5.30297 7.31608 6.38931
#
# Compressibility (1/GPa) = 0.02065175
#
# Stress axis : x y z
#
# Youngs Moduli (GPa) = 54.78404 73.64330 39.17515
#
# Poissons Ratio (x) = 0.24010 0.09026
# Poissons Ratio (y) = 0.17861 0.50102
# Poissons Ratio (z) = 0.12622 0.94184
#
# Static dielectric constant tensor:
#      x y z
#    x 3.376920 0.000000 0.000000 
#    y 0.000000 4.198870 0.000000 
#    z 0.000000 0.000000 3.151380 
# 
# 
# High freq. dielectric constant tensor:
#      x y z
#    x 1.709430 0.000000 0.000000 
#    y 0.000000 1.725940 0.000000 
#    z 0.000000 0.000000 1.669520 
# 
# From -- ./inp_files/36902.got.cif
#   From: 2010.03.12/outbox.cif.g09.slc.cpg/sg67_19_cif.got.tgz:36902.got - 2010.04.10 22:41:39.
