data_PCOD8279330
_publ_section_title
;
Structure prediction by ZEFSAII (Michael W. Deem and Ramdas Pophale) SiO2 
 PCOD8279330
Probable space group: C M M A
;
_chemical_formula_sum "Si O2"
_cell_formula_units_Z 80
_cell_length_a 7.787784
_cell_length_b 29.036709
_cell_length_c 19.328064
_cell_angle_alpha 90.000000
_cell_angle_beta 90.000000
_cell_angle_gamma 90.000000
_cell_volume 4370.686381
_symmetry_space_group_name_H-M "C M M A"
_symmetry_group_IT_number 67
_symmetry_cell_setting 'orthorhombic'
loop_
_space_group_symop_operation_xyz
x,y,z
-x,1/2-y,z
x,-y,-z
-x,1/2+y,-z
-x,-y,-z
x,1/2+y,-z
-x,y,z
x,1/2-y,z
1/2+x,1/2+y,z
1/2-x,-y,z
1/2+x,1/2-y,-z
1/2-x,y,-z
1/2-x,1/2-y,-z
1/2+x,y,-z
1/2-x,1/2+y,z
1/2+x,-y,z
loop_
_atom_site_type_symbol
_atom_site_label
_atom_site_fract_x
_atom_site_fract_y
_atom_site_fract_z
Si Si1 0.800145 0.448794 0.078935
Si Si2 0.500000 0.698479 0.163764
Si Si3 0.000000 0.199069 0.327641
Si Si4 0.299695 0.367157 0.328081
Si Si5 0.801216 0.550899 0.421846
Si Si6 0.308528 0.134524 0.167669
O O1 0.750000 0.500000 0.102716
O O2 0.698684 0.412901 0.125906
O O3 0.000000 0.440651 0.089696
O O4 0.750000 0.440389 0.000000
O O5 0.500000 0.750000 0.131236
O O6 0.500000 0.702311 0.245519
O O7 0.670678 0.671361 0.138715
O O8 0.176029 0.174444 0.352106
O O9 0.000000 0.250000 0.360525
O O10 0.500000 0.355311 0.344547
O O11 0.225937 0.411397 0.369385
O O12 0.272073 0.377603 0.247407
O O13 0.750000 0.500000 0.398128
O O14 0.750000 0.561901 0.500000
O O15 0.000000 0.555034 0.415708
O O16 0.500000 0.155651 0.159219
#
# Coordination Sequence:
#
# PCOD8279330 Si02
#       6
#    16   8   8  16  16  16
#     4  11  21  35  53  79 108 143 183 216 255 316
#     4   9  18  34  54  81 106 136 177 218 264 318
#     4   9  18  32  56  79 102 136 173 216 268 310
#     4   9  20  34  52  79 109 136 174 217 263 311
#     4  10  20  33  50  76 103 140 179 213 256 312
#     4  10  19  35  54  80 110 139 174 219 266 311
#
# _framework density 18.30376
#
# number of rings (size 3 to 8) (size 9 to 14) (size 15 to 20)
#    0.000    2.200    1.000    3.600    2.800    1.600 
#    0.000    6.000    0.000    1.200    0.000    0.000 
#    0.000    0.000    0.000    0.000    0.000    0.000 
#
# Total GULP energy -495889.697357 kJ/mol
# GULP energy per Si atom -12397.242434 kJ/mol
# Density = 1.826210 g / cm^3
# Si number density = 18.303760 Si / 1000 Ang^3
#
#
#
# Elastic Constant Matrix: (Units=GPa)
#
#
# Indices 1 2 3 4 5 6 
#
# 1 108.5381 62.7610 25.6771 0.0000 0.0000 0.0000
# 2 62.7610 161.6528 57.0227 0.0000 0.0000 0.0000
# 3 25.6771 57.0227 44.6372 0.0000 0.0000 0.0000
# 4 0.0000 0.0000 0.0000 12.7441 0.0000 0.0000
# 5 0.0000 0.0000 0.0000 0.0000 16.2657 0.0000
# 6 0.0000 0.0000 0.0000 0.0000 0.0000 30.2898
#
#
#
# Elastic Compliance Matrix: (Units=1/GPa)
#
#
# Indices 1 2 3 4 5 6 
#
# 1 0.011953 -0.004032 -0.001725 0.000000 0.000000 0.000000
# 2 -0.004032 0.012621 -0.013803 0.000000 0.000000 0.000000
# 3 -0.001725 -0.013803 0.041028 0.000000 0.000000 0.000000
# 4 0.000000 0.000000 0.000000 0.078468 0.000000 0.000000
# 5 0.000000 0.000000 0.000000 0.000000 0.061479 0.000000
# 6 0.000000 0.000000 0.000000 0.000000 0.000000 0.033014
#
#
# Mechanical properties :
#
#
# Convention : Reuss Voigt Hill
#
# Bulk Modulus (GPa) = 37.76214 67.30554 52.53384
# Shear Modulus (GPa) = 17.45146 23.15107 20.30126
#
# Velocity S-wave (km/s) = 3.09112 3.56030 3.33397
# Velocity P-wave (km/s) = 5.78063 7.33159 6.60181
#
# Compressibility (1/GPa) = 0.02648155
#
# Stress axis : x y z
#
# Youngs Moduli (GPa) = 83.66090 79.23580 24.37381
#
# Poissons Ratio (x) = 0.31951 0.04204
# Poissons Ratio (y) = 0.33735 0.33643
# Poissons Ratio (z) = 0.14429 1.09368
#
# Static dielectric constant tensor:
#      x y z
#    x 3.616010 0.000000 0.000000 
#    y 0.000000 3.350690 0.000000 
#    z 0.000000 0.000000 3.066930 
# 
# 
# High freq. dielectric constant tensor:
#      x y z
#    x 1.730900 0.000000 0.000000 
#    y 0.000000 1.704710 0.000000 
#    z 0.000000 0.000000 1.680850 
# 
# From -- ./inp_files/32168.got.cif
#   From: 2010.03.12/outbox.cif.g09.slc.cpg/sg67_17_cif.got.tgz:32168.got - 2010.04.10 22:41:39.
