data_PCOD8279786
_publ_section_title
;
Structure prediction by ZEFSAII (Michael W. Deem and Ramdas Pophale) SiO2 
 PCOD8279786
Probable space group: C M M A
;
_chemical_formula_sum "Si O2"
_cell_formula_units_Z 80
_cell_length_a 27.417189
_cell_length_b 8.666810
_cell_length_c 18.676993
_cell_angle_alpha 90.000000
_cell_angle_beta 90.000000
_cell_angle_gamma 90.000000
_cell_volume 4438.019004
_symmetry_space_group_name_H-M "C M M A"
_symmetry_group_IT_number 67
_symmetry_cell_setting 'orthorhombic'
loop_
_space_group_symop_operation_xyz
x,y,z
-x,1/2-y,z
x,-y,-z
-x,1/2+y,-z
-x,-y,-z
x,1/2+y,-z
-x,y,z
x,1/2-y,z
1/2+x,1/2+y,z
1/2-x,-y,z
1/2+x,1/2-y,-z
1/2-x,y,-z
1/2-x,1/2-y,-z
1/2+x,y,-z
1/2-x,1/2+y,z
1/2+x,-y,z
loop_
_atom_site_type_symbol
_atom_site_label
_atom_site_fract_x
_atom_site_fract_y
_atom_site_fract_z
Si Si1 0.355488 0.931812 0.206455
Si Si2 0.894960 0.928596 0.424713
Si Si3 0.801982 0.433056 0.923255
Si Si4 0.198785 0.068529 0.660577
Si Si5 0.944184 0.568545 0.281998
O O1 0.350891 0.750000 0.197019
O O2 0.343126 0.015409 0.132372
O O3 0.317663 0.987736 0.266436
O O4 0.410848 0.977338 0.225856
O O5 0.902284 0.750000 0.434998
O O6 0.839534 0.969263 0.402414
O O7 0.931294 0.988108 0.362423
O O8 0.909453 0.000000 0.500000
O O9 0.798478 0.250000 0.927657
O O10 0.750000 0.500000 0.898170
O O11 0.817066 0.500000 0.000000
O O12 0.202549 0.250000 0.675102
O O13 0.250000 0.000000 0.634853
O O14 0.932568 0.750000 0.275174
O O15 0.000000 0.529643 0.264682
#
# Coordination Sequence:
#
# PCOD8279786 Si02
#       5
#    16  16  16  16  16
#     4  11  21  34  53  78 106 136 172 213 256 303
#     4   9  19  33  49  71 100 132 167 209 257 310
#     4  11  21  35  54  80 113 146 178 210 249 295
#     4  10  20  34  50  71  99 134 174 213 256 304
#     4   9  19  37  57  76 100 132 170 213 262 311
#
# _framework density 18.026060000000001
#
# number of rings (size 3 to 8) (size 9 to 14) (size 15 to 20)
#    0.000    2.000    0.000    6.600    0.000    5.200 
#    0.000    2.000    0.000    0.600    0.000    0.000 
#    0.000    0.000    0.000    0.000    0.000    0.000 
#
# Total GULP energy -496080.558137 kJ/mol
# GULP energy per Si atom -12402.013953 kJ/mol
# Density = 1.798503 g / cm^3
# Si number density = 18.026060 Si / 1000 Ang^3
#
#
#
# Elastic Constant Matrix: (Units=GPa)
#
#
# Indices 1 2 3 4 5 6 
#
# 1 84.7578 33.7293 39.5412 0.0000 0.0000 0.0000
# 2 33.7293 109.3588 44.0980 0.0000 0.0000 0.0000
# 3 39.5412 44.0980 112.3722 0.0000 0.0000 0.0000
# 4 0.0000 0.0000 0.0000 32.0955 0.0000 0.0000
# 5 0.0000 0.0000 0.0000 0.0000 17.0826 0.0000
# 6 0.0000 0.0000 0.0000 0.0000 0.0000 27.2321
#
#
#
# Elastic Compliance Matrix: (Units=1/GPa)
#
#
# Indices 1 2 3 4 5 6 
#
# 1 0.014872 -0.002942 -0.004078 0.000000 0.000000 0.000000
# 2 -0.002942 0.011445 -0.003456 0.000000 0.000000 0.000000
# 3 -0.004078 -0.003456 0.011690 0.000000 0.000000 0.000000
# 4 0.000000 0.000000 0.000000 0.031157 0.000000 0.000000
# 5 0.000000 0.000000 0.000000 0.000000 0.058539 0.000000
# 6 0.000000 0.000000 0.000000 0.000000 0.000000 0.036721
#
#
# Mechanical properties :
#
#
# Convention : Reuss Voigt Hill
#
# Bulk Modulus (GPa) = 58.63773 60.13619 59.38696
# Shear Modulus (GPa) = 26.16931 27.89005 27.02968
#
# Velocity S-wave (km/s) = 3.81432 3.93772 3.87651
# Velocity P-wave (km/s) = 7.21101 7.35577 7.28375
#
# Compressibility (1/GPa) = 0.01705387
#
# Stress axis : x y z
#
# Youngs Moduli (GPa) = 67.24098 87.37157 85.54033
#
# Poissons Ratio (x) = 0.25707 0.34887
# Poissons Ratio (y) = 0.19784 0.29564
# Poissons Ratio (z) = 0.27424 0.30197
#
# Static dielectric constant tensor:
#      x y z
#    x 3.364840 0.000000 0.000000 
#    y 0.000000 3.351990 0.000000 
#    z 0.000000 0.000000 3.359040 
# 
# 
# High freq. dielectric constant tensor:
#      x y z
#    x 1.689540 0.000000 0.000000 
#    y 0.000000 1.706760 0.000000 
#    z 0.000000 0.000000 1.690980 
# 
# From -- ./inp_files/32135.got.cif
#   From: 2010.03.12/outbox.cif.g09.slc.cpg/sg67_17_cif.got.tgz:32135.got - 2010.04.10 22:41:39.
