data_PCOD8279457
_publ_section_title
;
Structure prediction by ZEFSAII (Michael W. Deem and Ramdas Pophale) SiO2 
 PCOD8279457
Probable space group: C M M A
;
_chemical_formula_sum "Si O2"
_cell_formula_units_Z 96
_cell_length_a 9.110365
_cell_length_b 25.935950
_cell_length_c 25.211156
_cell_angle_alpha 90.000000
_cell_angle_beta 90.000000
_cell_angle_gamma 90.000000
_cell_volume 5957.042479
_symmetry_space_group_name_H-M "C M M A"
_symmetry_group_IT_number 67
_symmetry_cell_setting 'orthorhombic'
loop_
_space_group_symop_operation_xyz
x,y,z
-x,1/2-y,z
x,-y,-z
-x,1/2+y,-z
-x,-y,-z
x,1/2+y,-z
-x,y,z
x,1/2-y,z
1/2+x,1/2+y,z
1/2-x,-y,z
1/2+x,1/2-y,-z
1/2-x,y,-z
1/2-x,1/2-y,-z
1/2+x,y,-z
1/2-x,1/2+y,z
1/2+x,-y,z
loop_
_atom_site_type_symbol
_atom_site_label
_atom_site_fract_x
_atom_site_fract_y
_atom_site_fract_z
Si Si1 0.171533 0.808860 0.950054
Si Si2 0.827613 0.810039 0.269096
Si Si3 0.659500 0.691481 0.546985
Si Si4 0.836789 0.811085 0.834737
Si Si5 0.325818 0.446991 0.554923
Si Si6 0.671596 0.354577 0.634415
O O1 0.226317 0.750000 0.949028
O O2 0.211759 0.833891 0.892446
O O3 0.000000 0.812888 0.959688
O O4 0.250000 0.837406 0.000000
O O5 0.784267 0.750000 0.279901
O O6 0.779529 0.827117 0.210118
O O7 0.744738 0.850021 0.307896
O O8 0.000000 0.818034 0.275502
O O9 0.500000 0.664115 0.553214
O O10 0.631920 0.750000 0.530685
O O11 0.750000 0.663195 0.500000
O O12 0.752579 0.690618 0.600682
O O13 0.844451 0.750000 0.840682
O O14 0.000000 0.831401 0.819413
O O15 0.500000 0.454007 0.546003
O O16 0.250000 0.500000 0.573103
O O17 0.250000 0.428424 0.500000
O O18 0.293838 0.407529 0.603156
O O19 0.500000 0.344267 0.639753
#
# Coordination Sequence:
#
# PCOD8279457 Si02
#       6
#    16  16  16  16  16  16
#     4   8  13  20  31  48  69  95 130 172 215 252
#     4  10  20  31  43  61  84 112 146 180 212 246
#     4  10  20  32  45  62  84 109 136 165 198 236
#     4   8  14  25  38  51  72 104 139 175 214 251
#     4  10  21  36  54  73  89 106 129 160 202 250
#     4  11  22  33  47  66  85 108 137 166 201 245
#
# _framework density 16.115379999999998
#
# number of rings (size 3 to 8) (size 9 to 14) (size 15 to 20)
#    0.000    2.500    0.000    4.500    0.000    8.667 
#    0.000    3.333    0.000    0.000    0.000    0.000 
#    0.000    0.000    0.000    0.000    0.000    0.833 
#
# Total GULP energy -594694.206359 kJ/mol
# GULP energy per Si atom -12389.462632 kJ/mol
# Density = 1.607870 g / cm^3
# Si number density = 16.115380 Si / 1000 Ang^3
#
#
#
# Elastic Constant Matrix: (Units=GPa)
#
#
# Indices 1 2 3 4 5 6 
#
# 1 111.5035 30.9118 68.4967 0.0000 0.0000 0.0000
# 2 30.9118 39.0270 27.8732 0.0000 0.0000 0.0000
# 3 68.4967 27.8732 140.8749 0.0000 0.0000 0.0000
# 4 0.0000 0.0000 0.0000 8.7341 0.0000 0.0000
# 5 0.0000 0.0000 0.0000 0.0000 33.8013 0.0000
# 6 0.0000 0.0000 0.0000 0.0000 0.0000 13.2931
#
#
#
# Elastic Compliance Matrix: (Units=1/GPa)
#
#
# Indices 1 2 3 4 5 6 
#
# 1 0.014449 -0.007485 -0.005545 0.000000 0.000000 0.000000
# 2 -0.007485 0.033717 -0.003032 0.000000 0.000000 0.000000
# 3 -0.005545 -0.003032 0.010394 0.000000 0.000000 0.000000
# 4 0.000000 0.000000 0.000000 0.114494 0.000000 0.000000
# 5 0.000000 0.000000 0.000000 0.000000 0.029585 0.000000
# 6 0.000000 0.000000 0.000000 0.000000 0.000000 0.075227
#
#
# Mechanical properties :
#
#
# Convention : Reuss Voigt Hill
#
# Bulk Modulus (GPa) = 37.82430 60.66319 49.24374
# Shear Modulus (GPa) = 15.68371 22.10729 18.89550
#
# Velocity S-wave (km/s) = 3.12302 3.70782 3.42791
# Velocity P-wave (km/s) = 6.04369 7.48701 6.80373
#
# Compressibility (1/GPa) = 0.02643803
#
# Stress axis : x y z
#
# Youngs Moduli (GPa) = 69.20671 29.65854 96.20599
#
# Poissons Ratio (x) = 0.22199 0.53344
# Poissons Ratio (y) = 0.51800 0.29169
# Poissons Ratio (z) = 0.38373 0.08992
#
# Static dielectric constant tensor:
#      x y z
#    x 3.277040 0.000000 0.000000 
#    y 0.000000 2.565480 0.000000 
#    z 0.000000 0.000000 3.342100 
# 
# 
# High freq. dielectric constant tensor:
#      x y z
#    x 1.635930 0.000000 0.000000 
#    y 0.000000 1.548370 0.000000 
#    z 0.000000 0.000000 1.624140 
# 
# From -- ./inp_files/40923.got.cif
#   From: 2010.03.12/outbox.cif.g09.slc.cpg/sg67_21_cif.got.tgz:40923.got - 2010.04.10 22:41:39.
