data_PCOD8279889
_publ_section_title
;
Structure prediction by ZEFSAII (Michael W. Deem and Ramdas Pophale) SiO2 
 PCOD8279889
Probable space group: C M M A
;
_chemical_formula_sum "Si O2"
_cell_formula_units_Z 96
_cell_length_a 9.440502
_cell_length_b 30.872796
_cell_length_c 16.570697
_cell_angle_alpha 90.000000
_cell_angle_beta 90.000000
_cell_angle_gamma 90.000000
_cell_volume 4829.607397
_symmetry_space_group_name_H-M "C M M A"
_symmetry_group_IT_number 67
_symmetry_cell_setting 'orthorhombic'
loop_
_space_group_symop_operation_xyz
x,y,z
-x,1/2-y,z
x,-y,-z
-x,1/2+y,-z
-x,-y,-z
x,1/2+y,-z
-x,y,z
x,1/2-y,z
1/2+x,1/2+y,z
1/2-x,-y,z
1/2+x,1/2-y,-z
1/2-x,y,-z
1/2-x,1/2-y,-z
1/2+x,y,-z
1/2-x,1/2+y,z
1/2+x,-y,z
loop_
_atom_site_type_symbol
_atom_site_label
_atom_site_fract_x
_atom_site_fract_y
_atom_site_fract_z
Si Si1 0.166810 0.700750 0.083039
Si Si2 0.834623 0.040931 0.243858
Si Si3 0.155726 0.366862 0.184114
Si Si4 0.000000 0.301349 0.635535
Si Si5 0.000000 0.298192 0.458913
Si Si6 0.667418 0.568719 0.422612
Si Si7 0.282474 0.158372 0.645701
O O1 0.188771 0.750000 0.116827
O O2 0.231220 0.664358 0.141711
O O3 0.000000 0.691518 0.070536
O O4 0.250000 0.695961 0.000000
O O5 0.787417 0.083526 0.192274
O O6 0.799753 0.043609 0.339507
O O7 0.000000 0.033184 0.230750
O O8 0.750000 0.000000 0.208088
O O9 0.126678 0.352069 0.275576
O O10 0.000000 0.364888 0.141344
O O11 0.864185 0.322023 0.678284
O O12 0.000000 0.250000 0.647079
O O13 0.000000 0.321979 0.545073
O O14 0.140144 0.305690 0.407428
O O15 0.000000 0.250000 0.489224
O O16 0.500000 0.569982 0.440898
O O17 0.750000 0.547948 0.500000
O O18 0.730211 0.616632 0.411203
#
# Coordination Sequence:
#
# PCOD8279889 Si02
#       7
#    16  16  16   8   8  16  16
#     4  10  22  40  64  96 130 161 195 233 279 340
#     4   9  20  38  57  82 115 150 194 245 298 357
#     4  10  21  40  61  85 118 156 195 237 292 352
#     4  11  24  34  46  68 100 140 190 249 296 340
#     4  11  20  34  50  66  94 142 192 239 294 346
#     4  10  20  34  53  75 102 140 188 243 300 357
#     4  11  21  36  50  72 103 141 192 242 295 347
#
# _framework density 19.877393000000001
#
# number of rings (size 3 to 8) (size 9 to 14) (size 15 to 20)
#    0.000    1.833    1.667    3.500    2.333    5.333 
#    3.000    1.667    0.000    0.500    0.000    3.500 
#    0.000    0.000    0.000    0.000    0.000    0.000 
#
# Total GULP energy -594826.260228 kJ/mol
# GULP energy per Si atom -12392.213755 kJ/mol
# Density = 1.983215 g / cm^3
# Si number density = 19.877393 Si / 1000 Ang^3
#
#
#
# Elastic Constant Matrix: (Units=GPa)
#
#
# Indices 1 2 3 4 5 6 
#
# 1 115.1706 63.4446 22.5568 0.0000 0.0000 0.0000
# 2 63.4446 126.8738 39.2641 0.0000 0.0000 0.0000
# 3 22.5568 39.2641 55.6577 0.0000 0.0000 0.0000
# 4 0.0000 0.0000 0.0000 19.3141 0.0000 0.0000
# 5 0.0000 0.0000 0.0000 0.0000 28.4926 0.0000
# 6 0.0000 0.0000 0.0000 0.0000 0.0000 30.0648
#
#
#
# Elastic Compliance Matrix: (Units=1/GPa)
#
#
# Indices 1 2 3 4 5 6 
#
# 1 0.012012 -0.005757 -0.000807 0.000000 0.000000 0.000000
# 2 -0.005757 0.012842 -0.006727 0.000000 0.000000 0.000000
# 3 -0.000807 -0.006727 0.023039 0.000000 0.000000 0.000000
# 4 0.000000 0.000000 0.000000 0.051776 0.000000 0.000000
# 5 0.000000 0.000000 0.000000 0.000000 0.035097 0.000000
# 6 0.000000 0.000000 0.000000 0.000000 0.000000 0.033261
#
#
# Mechanical properties :
#
#
# Convention : Reuss Voigt Hill
#
# Bulk Modulus (GPa) = 46.92008 60.91478 53.91743
# Shear Modulus (GPa) = 24.78763 27.07007 25.92885
#
# Velocity S-wave (km/s) = 3.53516 3.69433 3.61562
# Velocity P-wave (km/s) = 6.34973 6.99351 6.67938
#
# Compressibility (1/GPa) = 0.02131284
#
# Stress axis : x y z
#
# Youngs Moduli (GPa) = 83.24817 77.86661 43.40413
#
# Poissons Ratio (x) = 0.44829 0.03502
# Poissons Ratio (y) = 0.47927 0.29196
# Poissons Ratio (z) = 0.06717 0.52377
#
# Static dielectric constant tensor:
#      x y z
#    x 3.727250 0.000000 0.000000 
#    y 0.000000 3.595870 0.000000 
#    z 0.000000 0.000000 3.324390 
# 
# 
# High freq. dielectric constant tensor:
#      x y z
#    x 1.781590 0.000000 0.000000 
#    y 0.000000 1.773110 0.000000 
#    z 0.000000 0.000000 1.743610 
# 
# From -- ./inp_files/26403.got.cif
#   From: 2010.03.12/outbox.cif.g09.slc.cpg/sg67_14_cif.got.tgz:26403.got - 2010.04.10 22:41:39.
