data_PCOD8279939
_publ_section_title
;
Structure prediction by ZEFSAII (Michael W. Deem and Ramdas Pophale) SiO2 
 PCOD8279939
Probable space group: C M M A
;
_chemical_formula_sum "Si O2"
_cell_formula_units_Z 96
_cell_length_a 8.694915
_cell_length_b 28.509588
_cell_length_c 20.648805
_cell_angle_alpha 90.000000
_cell_angle_beta 90.000000
_cell_angle_gamma 90.000000
_cell_volume 5118.600149
_symmetry_space_group_name_H-M "C M M A"
_symmetry_group_IT_number 67
_symmetry_cell_setting 'orthorhombic'
loop_
_space_group_symop_operation_xyz
x,y,z
-x,1/2-y,z
x,-y,-z
-x,1/2+y,-z
-x,-y,-z
x,1/2+y,-z
-x,y,z
x,1/2-y,z
1/2+x,1/2+y,z
1/2-x,-y,z
1/2+x,1/2-y,-z
1/2-x,y,-z
1/2-x,1/2-y,-z
1/2+x,y,-z
1/2-x,1/2+y,z
1/2+x,-y,z
loop_
_atom_site_type_symbol
_atom_site_label
_atom_site_fract_x
_atom_site_fract_y
_atom_site_fract_z
Si Si1 0.677903 0.897762 0.304829
Si Si2 0.180872 0.449694 0.432878
Si Si3 0.680796 0.948813 0.814936
Si Si4 0.679882 0.606798 0.065991
Si Si5 0.675541 0.698187 0.246536
Si Si6 0.322116 0.303056 0.110655
O O1 0.500000 0.909833 0.291011
O O2 0.725755 0.913055 0.376859
O O3 0.778626 0.926184 0.253745
O O4 0.709580 0.841879 0.299678
O O5 0.250000 0.500000 0.414501
O O6 0.250000 0.430402 0.500000
O O7 0.000000 0.455341 0.440881
O O8 0.500000 0.952253 0.822214
O O9 0.745524 0.917151 0.872165
O O10 0.750000 0.000000 0.820449
O O11 0.500000 0.597724 0.066568
O O12 0.717493 0.662273 0.068357
O O13 0.750000 0.585312 0.000000
O O14 0.500000 0.693798 0.221261
O O15 0.703574 0.750000 0.277272
O O16 0.787759 0.690058 0.186446
O O17 0.500000 0.315406 0.098926
O O18 0.283230 0.250000 0.089182
#
# Coordination Sequence:
#
# PCOD8279939 Si02
#       6
#    16  16  16  16  16  16
#     4  10  20  35  57  86 116 148 187 232 279 332
#     4  10  20  34  53  79 113 150 189 231 280 334
#     4  12  25  41  61  85 112 145 185 232 283 335
#     4  12  25  42  61  82 111 147 189 233 284 341
#     4   9  17  31  54  82 112 147 185 227 276 329
#     4  10  20  35  56  84 115 146 184 230 282 337
#
# _framework density 18.755127999999999
#
# number of rings (size 3 to 8) (size 9 to 14) (size 15 to 20)
#    0.000    1.500    1.667    5.000    0.000    4.333 
#    0.000    1.667    0.000    0.500    0.000    0.000 
#    0.000    0.000    0.000    0.000    0.000    0.667 
#
# Total GULP energy -595298.652925 kJ/mol
# GULP energy per Si atom -12402.055269 kJ/mol
# Density = 1.871244 g / cm^3
# Si number density = 18.755128 Si / 1000 Ang^3
#
#
#
# Elastic Constant Matrix: (Units=GPa)
#
#
# Indices 1 2 3 4 5 6 
#
# 1 117.8537 34.9609 43.9659 0.0000 0.0000 0.0000
# 2 34.9609 83.9217 36.1631 0.0000 0.0000 0.0000
# 3 43.9659 36.1631 102.9050 0.0000 0.0000 0.0000
# 4 0.0000 0.0000 0.0000 20.8172 0.0000 0.0000
# 5 0.0000 0.0000 0.0000 0.0000 28.2032 0.0000
# 6 0.0000 0.0000 0.0000 0.0000 0.0000 102.2628
#
#
#
# Elastic Compliance Matrix: (Units=1/GPa)
#
#
# Indices 1 2 3 4 5 6 
#
# 1 0.010670 -0.002923 -0.003531 0.000000 0.000000 0.000000
# 2 -0.002923 0.014843 -0.003967 0.000000 0.000000 0.000000
# 3 -0.003531 -0.003967 0.012621 0.000000 0.000000 0.000000
# 4 0.000000 0.000000 0.000000 0.048037 0.000000 0.000000
# 5 0.000000 0.000000 0.000000 0.000000 0.035457 0.000000
# 6 0.000000 0.000000 0.000000 0.000000 0.000000 0.009779
#
#
# Mechanical properties :
#
#
# Convention : Reuss Voigt Hill
#
# Bulk Modulus (GPa) = 57.83723 59.42892 58.63307
# Shear Modulus (GPa) = 31.64290 42.89599 37.26945
#
# Velocity S-wave (km/s) = 4.11196 4.78762 4.46259
# Velocity P-wave (km/s) = 7.31091 7.89413 7.60811
#
# Compressibility (1/GPa) = 0.01728990
#
# Stress axis : x y z
#
# Youngs Moduli (GPa) = 93.72408 67.37086 79.23520
#
# Poissons Ratio (x) = 0.19694 0.27980
# Poissons Ratio (y) = 0.27397 0.31435
# Poissons Ratio (z) = 0.33097 0.26728
#
# Static dielectric constant tensor:
#      x y z
#    x 3.534560 0.000000 0.000000 
#    y 0.000000 3.602040 0.000000 
#    z 0.000000 0.000000 3.379020 
# 
# 
# High freq. dielectric constant tensor:
#      x y z
#    x 1.738100 0.000000 0.000000 
#    y 0.000000 1.732730 0.000000 
#    z 0.000000 0.000000 1.711660 
# 
# From -- ./inp_files/37208.got.cif
#   From: 2010.03.12/outbox.cif.g09.slc.cpg/sg67_19_cif.got.tgz:37208.got - 2010.04.10 22:41:39.
