data_PCOD8279511
_publ_section_title
;
Structure prediction by ZEFSAII (Michael W. Deem and Ramdas Pophale) SiO2 
 PCOD8279511
Probable space group: C M M A
;
_chemical_formula_sum "Si O2"
_cell_formula_units_Z 104
_cell_length_a 9.533401
_cell_length_b 26.196932
_cell_length_c 26.378839
_cell_angle_alpha 90.000000
_cell_angle_beta 90.000000
_cell_angle_gamma 90.000000
_cell_volume 6588.005772
_symmetry_space_group_name_H-M "C M M A"
_symmetry_group_IT_number 67
_symmetry_cell_setting 'orthorhombic'
loop_
_space_group_symop_operation_xyz
x,y,z
-x,1/2-y,z
x,-y,-z
-x,1/2+y,-z
-x,-y,-z
x,1/2+y,-z
-x,y,z
x,1/2-y,z
1/2+x,1/2+y,z
1/2-x,-y,z
1/2+x,1/2-y,-z
1/2-x,y,-z
1/2-x,1/2-y,-z
1/2+x,y,-z
1/2-x,1/2+y,z
1/2+x,-y,z
loop_
_atom_site_type_symbol
_atom_site_label
_atom_site_fract_x
_atom_site_fract_y
_atom_site_fract_z
Si Si1 0.161851 0.690681 0.739181
Si Si2 0.657658 0.450117 0.907578
Si Si3 0.160939 0.810790 0.548122
Si Si4 0.659747 0.310566 0.357103
Si Si5 0.250000 0.386131 0.000000
Si Si6 0.847472 0.193978 0.925088
Si Si7 0.836741 0.355333 0.154979
O O1 0.186385 0.750000 0.752939
O O2 0.264453 0.672328 0.694569
O O3 0.202900 0.655397 0.786877
O O4 0.000000 0.682217 0.722776
O O5 0.500000 0.468336 0.898222
O O6 0.750000 0.500000 0.907117
O O7 0.707737 0.412529 0.862110
O O8 0.663281 0.421659 0.961681
O O9 0.155278 0.750000 0.548833
O O10 0.250000 0.830377 0.500000
O O11 0.244990 0.831916 0.596982
O O12 0.000000 0.831808 0.546945
O O13 0.500000 0.332308 0.359450
O O14 0.654345 0.250000 0.360686
O O15 0.351056 0.348937 0.031435
O O16 0.818581 0.250000 0.948963
O O17 0.735919 0.185518 0.881027
O O18 0.000000 0.192305 0.899135
O O19 0.000000 0.347205 0.145703
#
# Coordination Sequence:
#
# PCOD8279511 Si02
#       7
#    16  16  16  16   8  16  16
#     4   9  16  27  43  60  79 105 136 168 202 243
#     4  10  21  35  51  68  85 106 134 169 208 250
#     4   9  15  22  32  46  67  98 137 179 218 251
#     4   9  16  24  34  51  75 102 134 172 211 247
#     4  10  20  34  50  66  88 114 140 164 198 246
#     4  10  20  32  47  68  91 113 138 168 201 239
#     4   9  19  34  49  65  85 111 140 168 205 254
#
# _framework density 15.786263
#
# number of rings (size 3 to 8) (size 9 to 14) (size 15 to 20)
#    0.000    2.615    0.000    2.308    0.000    9.538 
#    0.000    1.538    0.000    0.000    0.000    0.000 
#    0.000    0.000    0.000    0.000    0.000    0.769 
#
# Total GULP energy -644505.532479 kJ/mol
# GULP energy per Si atom -12394.337163 kJ/mol
# Density = 1.575033 g / cm^3
# Si number density = 15.786263 Si / 1000 Ang^3
#
#
#
# Elastic Constant Matrix: (Units=GPa)
#
#
# Indices 1 2 3 4 5 6 
#
# 1 101.4514 38.0340 64.3523 0.0000 0.0000 0.0000
# 2 38.0340 67.7336 39.0648 0.0000 0.0000 0.0000
# 3 64.3523 39.0648 125.4096 0.0000 0.0000 0.0000
# 4 0.0000 0.0000 0.0000 7.2039 0.0000 0.0000
# 5 0.0000 0.0000 0.0000 0.0000 26.8130 0.0000
# 6 0.0000 0.0000 0.0000 0.0000 0.0000 19.3738
#
#
#
# Elastic Compliance Matrix: (Units=1/GPa)
#
#
# Indices 1 2 3 4 5 6 
#
# 1 0.015973 -0.005171 -0.006586 0.000000 0.000000 0.000000
# 2 -0.005171 0.019671 -0.003474 0.000000 0.000000 0.000000
# 3 -0.006586 -0.003474 0.012435 0.000000 0.000000 0.000000
# 4 0.000000 0.000000 0.000000 0.138813 0.000000 0.000000
# 5 0.000000 0.000000 0.000000 0.000000 0.037295 0.000000
# 6 0.000000 0.000000 0.000000 0.000000 0.000000 0.051616
#
#
# Mechanical properties :
#
#
# Convention : Reuss Voigt Hill
#
# Bulk Modulus (GPa) = 56.75998 64.16632 60.46315
# Shear Modulus (GPa) = 16.01859 20.88771 18.45315
#
# Velocity S-wave (km/s) = 3.18892 3.64147 3.42268
# Velocity P-wave (km/s) = 7.04218 7.64301 7.34874
#
# Compressibility (1/GPa) = 0.01761805
#
# Stress axis : x y z
#
# Youngs Moduli (GPa) = 62.60630 50.83627 80.41625
#
# Poissons Ratio (x) = 0.26287 0.52958
# Poissons Ratio (y) = 0.32374 0.27937
# Poissons Ratio (z) = 0.41229 0.17661
#
# Static dielectric constant tensor:
#      x y z
#    x 3.139890 0.000000 0.000000 
#    y 0.000000 2.687980 0.000000 
#    z 0.000000 0.000000 3.081710 
# 
# 
# High freq. dielectric constant tensor:
#      x y z
#    x 1.620290 0.000000 0.000000 
#    y 0.000000 1.550360 0.000000 
#    z 0.000000 0.000000 1.601800 
# 
# From -- ./inp_files/43847.got.cif
#   From: 2010.03.12/outbox.cif.g09.slc.cpg/sg67_22_cif.got.tgz:43847.got - 2010.04.10 22:41:39.
