data_PCOD8280381
_publ_section_title
;
Structure prediction by ZEFSAII (Michael W. Deem and Ramdas Pophale) SiO2 
 PCOD8280381
Probable space group: C M M A
;
_chemical_formula_sum "Si O2"
_cell_formula_units_Z 100
_cell_length_a 9.095401
_cell_length_b 29.274534
_cell_length_c 19.815148
_cell_angle_alpha 90.000000
_cell_angle_beta 90.000000
_cell_angle_gamma 90.000000
_cell_volume 5276.053153
_symmetry_space_group_name_H-M "C M M A"
_symmetry_group_IT_number 67
_symmetry_cell_setting 'orthorhombic'
loop_
_space_group_symop_operation_xyz
x,y,z
-x,1/2-y,z
x,-y,-z
-x,1/2+y,-z
-x,-y,-z
x,1/2+y,-z
-x,y,z
x,1/2-y,z
1/2+x,1/2+y,z
1/2-x,-y,z
1/2+x,1/2-y,-z
1/2-x,y,-z
1/2-x,1/2-y,-z
1/2+x,y,-z
1/2-x,1/2+y,z
1/2+x,-y,z
loop_
_atom_site_type_symbol
_atom_site_label
_atom_site_fract_x
_atom_site_fract_y
_atom_site_fract_z
Si Si1 0.336377 0.069292 0.108920
Si Si2 0.750000 0.000000 0.000000
Si Si3 0.824107 0.546217 0.256512
Si Si4 0.173744 0.333802 0.933184
Si Si5 0.326891 0.633156 0.309685
Si Si6 0.827078 0.698140 0.568898
Si Si7 0.665703 0.800561 0.189936
O O1 0.500000 0.083395 0.129058
O O2 0.263554 0.052835 0.179214
O O3 0.260284 0.115219 0.081127
O O4 0.345036 0.031239 0.050205
O O5 0.750000 0.500000 0.284006
O O6 0.766729 0.586784 0.304636
O O7 0.000000 0.542458 0.260817
O O8 0.221207 0.301796 0.871841
O O9 0.000000 0.332731 0.943278
O O10 0.250000 0.314494 0.000000
O O11 0.500000 0.621968 0.312157
O O12 0.276096 0.662100 0.374577
O O13 0.284632 0.663189 0.245155
O O14 0.781320 0.750000 0.589429
O O15 0.750000 0.683148 0.500000
O O16 0.000000 0.695394 0.558009
O O17 0.500000 0.811136 0.164799
O O18 0.672877 0.750000 0.222271
#
# Coordination Sequence:
#
# PCOD8280381 Si02
#       7
#    16   4  16  16  16  16  16
#     4  10  21  33  49  73 102 134 173 223 281 340
#     4  12  18  36  52  74 102 136 176 232 294 356
#     4  11  22  38  56  81 112 146 189 237 284 338
#     4  11  22  38  54  74 102 137 180 229 285 343
#     4  10  20  36  59  86 116 154 190 231 282 336
#     4   9  18  34  58  90 127 161 194 231 275 333
#     4  10  21  37  57  81 107 141 186 231 279 337
#
# _framework density 18.953561000000001
#
# number of rings (size 3 to 8) (size 9 to 14) (size 15 to 20)
#    0.000    1.760    3.200    1.680    0.000    3.200 
#    0.000    0.000    0.000    3.360    0.000    3.360 
#    0.000    0.000    0.000    0.000    0.000    0.000 
#
# Total GULP energy -619900.778564 kJ/mol
# GULP energy per Si atom -12398.015571 kJ/mol
# Density = 1.891042 g / cm^3
# Si number density = 18.953561 Si / 1000 Ang^3
#
#
#
# Elastic Constant Matrix: (Units=GPa)
#
#
# Indices 1 2 3 4 5 6 
#
# 1 72.0202 40.3020 42.7281 0.0000 0.0000 0.0000
# 2 40.3020 117.7054 55.8239 0.0000 0.0000 0.0000
# 3 42.7281 55.8239 116.4067 0.0000 0.0000 0.0000
# 4 0.0000 0.0000 0.0000 31.2768 0.0000 0.0000
# 5 0.0000 0.0000 0.0000 0.0000 27.1982 0.0000
# 6 0.0000 0.0000 0.0000 0.0000 0.0000 26.0097
#
#
#
# Elastic Compliance Matrix: (Units=1/GPa)
#
#
# Indices 1 2 3 4 5 6 
#
# 1 0.019223 -0.004188 -0.005048 0.000000 0.000000 0.000000
# 2 -0.004188 0.011909 -0.004174 0.000000 0.000000 0.000000
# 3 -0.005048 -0.004174 0.012445 0.000000 0.000000 0.000000
# 4 0.000000 0.000000 0.000000 0.031973 0.000000 0.000000
# 5 0.000000 0.000000 0.000000 0.000000 0.036767 0.000000
# 6 0.000000 0.000000 0.000000 0.000000 0.000000 0.038447
#
#
# Mechanical properties :
#
#
# Convention : Reuss Voigt Hill
#
# Bulk Modulus (GPa) = 59.67198 64.87114 62.27156
# Shear Modulus (GPa) = 27.29705 28.04883 27.67294
#
# Velocity S-wave (km/s) = 3.79912 3.85108 3.82519
# Velocity P-wave (km/s) = 7.12713 7.35358 7.24124
#
# Compressibility (1/GPa) = 0.01675828
#
# Stress axis : x y z
#
# Youngs Moduli (GPa) = 52.02028 83.96765 80.35338
#
# Poissons Ratio (x) = 0.35166 0.40560
# Poissons Ratio (y) = 0.21786 0.33539
# Poissons Ratio (z) = 0.26258 0.35048
#
# Static dielectric constant tensor:
#      x y z
#    x 3.219900 0.000000 0.000000 
#    y 0.000000 3.538270 0.000000 
#    z 0.000000 0.000000 3.344170 
# 
# 
# High freq. dielectric constant tensor:
#      x y z
#    x 1.722690 0.000000 0.000000 
#    y 0.000000 1.741770 0.000000 
#    z 0.000000 0.000000 1.717570 
# 
# From -- ./inp_files/37574.got.cif
#   From: 2010.03.12/outbox.cif.g09.slc.cpg/sg67_19_cif.got.tgz:37574.got - 2010.04.10 22:41:39.
