data_PCOD8280707
_publ_section_title
;
Structure prediction by ZEFSAII (Michael W. Deem and Ramdas Pophale) SiO2 
 PCOD8280707
Probable space group: C M M A
;
_chemical_formula_sum "Si O2"
_cell_formula_units_Z 100
_cell_length_a 9.485912
_cell_length_b 21.429357
_cell_length_c 26.324778
_cell_angle_alpha 90.000000
_cell_angle_beta 90.000000
_cell_angle_gamma 90.000000
_cell_volume 5351.221758
_symmetry_space_group_name_H-M "C M M A"
_symmetry_group_IT_number 67
_symmetry_cell_setting 'orthorhombic'
loop_
_space_group_symop_operation_xyz
x,y,z
-x,1/2-y,z
x,-y,-z
-x,1/2+y,-z
-x,-y,-z
x,1/2+y,-z
-x,y,z
x,1/2-y,z
1/2+x,1/2+y,z
1/2-x,-y,z
1/2+x,1/2-y,-z
1/2-x,y,-z
1/2-x,1/2-y,-z
1/2+x,y,-z
1/2-x,1/2+y,z
1/2+x,-y,z
loop_
_atom_site_type_symbol
_atom_site_label
_atom_site_fract_x
_atom_site_fract_y
_atom_site_fract_z
Si Si1 0.250000 0.500000 0.000000
Si Si2 0.840539 0.676657 0.357103
Si Si3 0.161307 0.824347 0.548464
Si Si4 0.652221 0.415586 0.911856
Si Si5 0.842435 0.819176 0.049870
Si Si6 0.335861 0.678817 0.257666
Si Si7 0.842842 0.444591 0.200382
O O1 0.343846 0.458071 0.962431
O O2 0.852418 0.750000 0.364805
O O3 0.745046 0.648910 0.402598
O O4 0.761638 0.660816 0.304971
O O5 0.000000 0.648271 0.357265
O O6 0.155580 0.750000 0.549818
O O7 0.250000 0.847919 0.500000
O O8 0.000000 0.850217 0.547111
O O9 0.500000 0.381464 0.912583
O O10 0.777074 0.365221 0.908939
O O11 0.666117 0.454457 0.860309
O O12 0.840053 0.750000 0.072943
O O13 0.000000 0.840544 0.036359
O O14 0.750000 0.824059 0.000000
O O15 0.500000 0.675092 0.273656
O O16 0.302647 0.750000 0.238331
O O17 0.297939 0.626472 0.215210
O O18 0.750000 0.500000 0.225382
O O19 0.000000 0.456318 0.220441
#
# Coordination Sequence:
#
# PCOD8280707 Si02
#       7
#     4  16  16  16  16  16  16
#     4  12  22  36  58  82 106 132 170 206 248 308
#     4   9  16  26  42  66  96 131 174 221 269 319
#     4   9  15  22  34  56  91 135 179 221 267 317
#     4  11  23  37  57  82 106 135 169 207 253 307
#     4  10  21  36  54  77 104 132 162 198 241 291
#     4   9  18  34  55  76 101 136 179 222 265 317
#     4  10  22  39  57  81 108 138 172 214 267 317
#
# _framework density 18.687322000000002
#
# number of rings (size 3 to 8) (size 9 to 14) (size 15 to 20)
#    0.000    2.240    1.600    1.680    0.000    7.360 
#    0.000    1.600    0.000    1.920    0.000    0.000 
#    0.000    0.640    0.000    6.720    0.000   10.080 
#
# Total GULP energy -619547.729140 kJ/mol
# GULP energy per Si atom -12390.954583 kJ/mol
# Density = 1.864479 g / cm^3
# Si number density = 18.687322 Si / 1000 Ang^3
#
#
#
# Elastic Constant Matrix: (Units=GPa)
#
#
# Indices 1 2 3 4 5 6 
#
# 1 147.2343 49.6605 44.8369 0.0000 0.0000 0.0000
# 2 49.6605 86.6548 31.0101 0.0000 0.0000 0.0000
# 3 44.8369 31.0101 89.2107 0.0000 0.0000 0.0000
# 4 0.0000 0.0000 0.0000 6.8820 0.0000 0.0000
# 5 0.0000 0.0000 0.0000 0.0000 28.4868 0.0000
# 6 0.0000 0.0000 0.0000 0.0000 0.0000 -6.0176
#
#
#
# Elastic Compliance Matrix: (Units=1/GPa)
#
#
# Indices 1 2 3 4 5 6 
#
# 1 0.009141 -0.004105 -0.003167 0.000000 0.000000 0.000000
# 2 -0.004105 0.015023 -0.003159 0.000000 0.000000 0.000000
# 3 -0.003167 -0.003159 0.013899 0.000000 0.000000 0.000000
# 4 0.000000 0.000000 0.000000 0.145306 0.000000 0.000000
# 5 0.000000 0.000000 0.000000 0.000000 0.035104 0.000000
# 6 0.000000 0.000000 0.000000 0.000000 0.000000 -0.166178
#
#
# Mechanical properties :
#
#
# Convention : Reuss Voigt Hill
#
# Bulk Modulus (GPa) = 58.13669 63.79053 60.96361
# Shear Modulus (GPa) = 63.37834 19.04306 41.21070
#
# Velocity S-wave (km/s) = 5.82999 3.19570 4.70113
# Velocity P-wave (km/s) = 8.74621 6.91567 7.88424
#
# Compressibility (1/GPa) = 0.01720084
#
# Stress axis : x y z
#
# Youngs Moduli (GPa) = 109.39671 66.56425 71.94602
#
# Poissons Ratio (x) = 0.27326 0.22787
# Poissons Ratio (y) = 0.44909 0.22727
# Poissons Ratio (z) = 0.34649 0.21027
#
# Static dielectric constant tensor:
#      x y z
#    x 3.827840 0.000000 0.000000 
#    y 0.000000 3.228970 0.000000 
#    z 0.000000 0.000000 3.286250 
# 
# 
# High freq. dielectric constant tensor:
#      x y z
#    x 1.742410 0.000000 0.000000 
#    y 0.000000 1.680420 0.000000 
#    z 0.000000 0.000000 1.707770 
# 
# From -- ./inp_files/45316.got.cif
#   From: 2010.03.12/outbox.cif.g09.slc.cpg/sg67_23_cif.got.tgz:45316.got - 2010.04.10 22:41:39.
