data_PCOD8280655
_publ_section_title
;
Structure prediction by ZEFSAII (Michael W. Deem and Ramdas Pophale) SiO2 
 PCOD8280655
Probable space group: C M M A
;
_chemical_formula_sum "Si O2"
_cell_formula_units_Z 104
_cell_length_a 19.348928
_cell_length_b 9.810194
_cell_length_c 29.563104
_cell_angle_alpha 90.000000
_cell_angle_beta 90.000000
_cell_angle_gamma 90.000000
_cell_volume 5611.571948
_symmetry_space_group_name_H-M "C M M A"
_symmetry_group_IT_number 67
_symmetry_cell_setting 'orthorhombic'
loop_
_space_group_symop_operation_xyz
x,y,z
-x,1/2-y,z
x,-y,-z
-x,1/2+y,-z
-x,-y,-z
x,1/2+y,-z
-x,y,z
x,1/2-y,z
1/2+x,1/2+y,z
1/2-x,-y,z
1/2+x,1/2-y,-z
1/2-x,y,-z
1/2-x,1/2-y,-z
1/2+x,y,-z
1/2-x,1/2+y,z
1/2+x,-y,z
loop_
_atom_site_type_symbol
_atom_site_label
_atom_site_fract_x
_atom_site_fract_y
_atom_site_fract_z
Si Si1 0.921333 0.594286 0.710747
Si Si2 0.180676 0.090590 0.875954
Si Si3 0.807779 0.593514 0.640507
Si Si4 0.500000 0.898359 0.460422
Si Si5 0.920530 0.592177 0.206086
Si Si6 0.850314 0.594928 0.543590
Si Si7 0.578752 0.092874 0.042674
O O1 0.910123 0.750000 0.726642
O O2 0.879393 0.561169 0.665328
O O3 0.897179 0.497319 0.751273
O O4 0.000000 0.565082 0.697526
O O5 0.201566 0.250000 0.875767
O O6 0.132311 0.054135 0.833557
O O7 0.134131 0.053980 0.919240
O O8 0.250000 0.000000 0.875479
O O9 0.787033 0.750000 0.646872
O O10 0.750000 0.500000 0.663962
O O11 0.806602 0.554197 0.587231
O O12 0.500000 0.750000 0.483097
O O13 0.427839 0.918966 0.434549
O O14 0.500000 0.000000 0.500000
O O15 0.913974 0.750000 0.219492
O O16 0.000000 0.558924 0.191666
O O17 0.834920 0.500000 0.500000
O O18 0.835618 0.750000 0.527811
O O19 0.500000 0.066259 0.059930
O O20 0.586993 0.250000 0.028245
O O21 0.596371 0.000000 0.000000
#
# Coordination Sequence:
#
# PCOD8280655 Si02
#       7
#    16  16  16   8  16  16  16
#     4   9  19  36  58  81 103 131 170 214 258 305
#     4  10  21  35  52  77 109 144 178 216 264 317
#     4  10  22  37  53  75 104 138 170 204 251 305
#     4   8  14  26  46  70  94 118 152 196 240 282
#     4   9  18  35  58  80 103 134 173 215 260 309
#     4   9  18  32  51  74  99 130 166 205 248 295
#     4   9  18  34  55  77 103 139 184 228 269 313
#
# _framework density 18.533131999999998
#
# number of rings (size 3 to 8) (size 9 to 14) (size 15 to 20)
#    0.000    2.769    0.000    0.462    1.077    5.538 
#    0.000    6.154    0.000    4.615    0.000    0.000 
#    0.000    0.000    0.000    0.000    0.000    0.000 
#
# Total GULP energy -644301.797685 kJ/mol
# GULP energy per Si atom -12390.419186 kJ/mol
# Density = 1.849095 g / cm^3
# Si number density = 18.533132 Si / 1000 Ang^3
#
#
#
# Elastic Constant Matrix: (Units=GPa)
#
#
# Indices 1 2 3 4 5 6 
#
# 1 108.2797 66.0241 62.9129 0.0000 0.0000 0.0000
# 2 66.0241 88.1032 71.7467 0.0000 0.0000 0.0000
# 3 62.9129 71.7467 118.9991 0.0000 0.0000 0.0000
# 4 0.0000 0.0000 0.0000 30.9370 0.0000 0.0000
# 5 0.0000 0.0000 0.0000 0.0000 14.2750 0.0000
# 6 0.0000 0.0000 0.0000 0.0000 0.0000 33.1302
#
#
#
# Elastic Compliance Matrix: (Units=1/GPa)
#
#
# Indices 1 2 3 4 5 6 
#
# 1 0.017415 -0.010910 -0.002630 0.000000 0.000000 0.000000
# 2 -0.010910 0.029133 -0.011797 0.000000 0.000000 0.000000
# 3 -0.002630 -0.011797 0.016906 0.000000 0.000000 0.000000
# 4 0.000000 0.000000 0.000000 0.032324 0.000000 0.000000
# 5 0.000000 0.000000 0.000000 0.000000 0.070052 0.000000
# 6 0.000000 0.000000 0.000000 0.000000 0.000000 0.030184
#
#
# Mechanical properties :
#
#
# Convention : Reuss Voigt Hill
#
# Bulk Modulus (GPa) = 78.23461 79.63883 78.93672
# Shear Modulus (GPa) = 19.92450 23.31499 21.61975
#
# Velocity S-wave (km/s) = 3.28239 3.55070 3.41918
# Velocity P-wave (km/s) = 7.52798 7.73785 7.63364
#
# Compressibility (1/GPa) = 0.01278207
#
# Stress axis : x y z
#
# Youngs Moduli (GPa) = 57.42047 34.32575 59.14967
#
# Poissons Ratio (x) = 0.37448 0.15555
# Poissons Ratio (y) = 0.62643 0.69778
# Poissons Ratio (z) = 0.15100 0.40494
#
# Static dielectric constant tensor:
#      x y z
#    x 3.404780 0.000000 0.000000 
#    y 0.000000 3.439420 0.000000 
#    z 0.000000 0.000000 3.227650 
# 
# 
# High freq. dielectric constant tensor:
#      x y z
#    x 1.728120 0.000000 0.000000 
#    y 0.000000 1.719080 0.000000 
#    z 0.000000 0.000000 1.705330 
# 
# From -- ./inp_files/45923.got.cif
#   From: 2010.03.12/outbox.cif.g09.slc.cpg/sg67_23_cif.got.tgz:45923.got - 2010.04.10 22:41:39.
