data_PCOD8280798
_publ_section_title
;
Structure prediction by ZEFSAII (Michael W. Deem and Ramdas Pophale) SiO2 
 PCOD8280798
Probable space group: C M M A
;
_chemical_formula_sum "Si O2"
_cell_formula_units_Z 64
_cell_length_a 14.943411
_cell_length_b 21.186857
_cell_length_c 8.923095
_cell_angle_alpha 90.000000
_cell_angle_beta 90.000000
_cell_angle_gamma 90.000000
_cell_volume 2825.086784
_symmetry_space_group_name_H-M "C M M A"
_symmetry_group_IT_number 67
_symmetry_cell_setting 'orthorhombic'
loop_
_space_group_symop_operation_xyz
x,y,z
-x,1/2-y,z
x,-y,-z
-x,1/2+y,-z
-x,-y,-z
x,1/2+y,-z
-x,y,z
x,1/2-y,z
1/2+x,1/2+y,z
1/2-x,-y,z
1/2+x,1/2-y,-z
1/2-x,y,-z
1/2-x,1/2-y,-z
1/2+x,y,-z
1/2-x,1/2+y,z
1/2+x,-y,z
loop_
_atom_site_type_symbol
_atom_site_label
_atom_site_fract_x
_atom_site_fract_y
_atom_site_fract_z
Si Si1 0.105365 0.061285 0.095139
Si Si2 0.848698 0.561024 0.570694
Si Si3 0.104448 0.679003 0.102902
Si Si4 0.151821 0.182274 0.566624
O O1 0.157177 0.056531 0.251233
O O2 0.000000 0.061954 0.127266
O O3 0.136616 0.126014 0.014706
O O4 0.133162 0.000000 0.000000
O O5 0.898815 0.500000 0.500000
O O6 0.750000 0.563923 0.500000
O O7 0.899807 0.625271 0.518800
O O8 0.123245 0.750000 0.039393
O O9 0.157994 0.667638 0.256482
O O10 0.000000 0.669927 0.138604
O O11 0.101955 0.250000 0.542696
O O12 0.250000 0.188003 0.500000
#
# Coordination Sequence:
#
# PCOD8280798 Si02
#       4
#    16  16  16  16
#     4  10  21  37  58  82 108 140 179 224 271 319
#     4  10  21  37  54  78 111 144 180 220 265 321
#     4   9  18  34  56  81 109 141 178 222 270 318
#     4   9  18  34  54  78 110 144 179 218 264 320
#
# _framework density 22.654171999999999
#
# number of rings (size 3 to 8) (size 9 to 14) (size 15 to 20)
#    0.000    2.500    0.000    1.500    0.000    2.500 
#    0.000   17.500    0.000   13.500    0.000    0.000 
#    0.000    0.000    0.000    0.000    0.000    0.000 
#
# Total GULP energy -396549.220498 kJ/mol
# GULP energy per Si atom -12392.163141 kJ/mol
# Density = 2.260261 g / cm^3
# Si number density = 22.654172 Si / 1000 Ang^3
#
#
#
# Elastic Constant Matrix: (Units=GPa)
#
#
# Indices 1 2 3 4 5 6 
#
# 1 37.3871 7.8946 37.9836 0.0000 0.0000 0.0000
# 2 7.8946 259.6164 120.7418 0.0000 0.0000 0.0000
# 3 37.9836 120.7418 208.9256 0.0000 0.0000 0.0000
# 4 0.0000 0.0000 0.0000 49.5656 0.0000 0.0000
# 5 0.0000 0.0000 0.0000 0.0000 19.0109 0.0000
# 6 0.0000 0.0000 0.0000 0.0000 0.0000 -0.4411
#
#
#
# Elastic Compliance Matrix: (Units=1/GPa)
#
#
# Indices 1 2 3 4 5 6 
#
# 1 0.033967 0.002515 -0.007629 0.000000 0.000000 0.000000
# 2 0.002515 0.005454 -0.003609 0.000000 0.000000 0.000000
# 3 -0.007629 -0.003609 0.008259 0.000000 0.000000 0.000000
# 4 0.000000 0.000000 0.000000 0.020175 0.000000 0.000000
# 5 0.000000 0.000000 0.000000 0.000000 0.052601 0.000000
# 6 0.000000 0.000000 0.000000 0.000000 0.000000 -2.267045
#
#
# Mechanical properties :
#
#
# Convention : Reuss Voigt Hill
#
# Bulk Modulus (GPa) = 33.07538 93.24102 63.15820
# Shear Modulus (GPa) = -2.35953 36.24769 16.94408
#
# Velocity S-wave (km/s) = -1.02167 4.00440 2.73783
# Velocity P-wave (km/s) = 3.63869 7.91379 6.15906
#
# Compressibility (1/GPa) = 0.03023397
#
# Stress axis : x y z
#
# Youngs Moduli (GPa) = 29.44064 183.35517 121.07801
#
# Poissons Ratio (x) = -0.46116 0.92368
# Poissons Ratio (y) = -0.07405 0.43699
# Poissons Ratio (z) = 0.22460 0.66176
#
# Static dielectric constant tensor:
#      x y z
#    x 3.517220 0.000000 0.000000 
#    y 0.000000 7.655990 0.000000 
#    z 0.000000 0.000000 3.906120 
# 
# 
# High freq. dielectric constant tensor:
#      x y z
#    x 1.851960 0.000000 0.000000 
#    y 0.000000 1.933590 0.000000 
#    z 0.000000 0.000000 1.887450 
# 
# From -- ./inp_files/2736.got.cif
#   From: 2010.03.12/outbox.cif.g09.slc.cpg/sg67_2_cif.got.tgz:2736.got - 2010.04.10 22:41:39.
