data_PCOD8280310
_publ_section_title
;
Structure prediction by ZEFSAII (Michael W. Deem and Ramdas Pophale) SiO2 
 PCOD8280310
Probable space group: C M M A
;
_chemical_formula_sum "Si O2"
_cell_formula_units_Z 96
_cell_length_a 16.911660
_cell_length_b 22.148943
_cell_length_c 12.687321
_cell_angle_alpha 90.000000
_cell_angle_beta 90.000000
_cell_angle_gamma 90.000000
_cell_volume 4752.358254
_symmetry_space_group_name_H-M "C M M A"
_symmetry_group_IT_number 67
_symmetry_cell_setting 'orthorhombic'
loop_
_space_group_symop_operation_xyz
x,y,z
-x,1/2-y,z
x,-y,-z
-x,1/2+y,-z
-x,-y,-z
x,1/2+y,-z
-x,y,z
x,1/2-y,z
1/2+x,1/2+y,z
1/2-x,-y,z
1/2+x,1/2-y,-z
1/2-x,y,-z
1/2-x,1/2-y,-z
1/2+x,y,-z
1/2-x,1/2+y,z
1/2+x,-y,z
loop_
_atom_site_type_symbol
_atom_site_label
_atom_site_fract_x
_atom_site_fract_y
_atom_site_fract_z
Si Si1 0.086648 0.679792 0.164431
Si Si2 0.592969 0.988884 0.622712
Si Si3 0.405789 0.681917 0.066243
Si Si4 0.656474 0.320234 0.580904
Si Si5 0.588263 0.894451 0.255069
Si Si6 0.675076 0.865340 0.640245
O O1 0.074572 0.750000 0.147962
O O2 0.151122 0.668944 0.253800
O O3 0.000000 0.651554 0.193729
O O4 0.116427 0.656055 0.049926
O O5 0.500000 0.976010 0.642033
O O6 0.647514 0.933590 0.657117
O O7 0.608802 0.000000 0.500000
O O8 0.625146 0.044719 0.694116
O O9 0.500000 0.684461 0.079502
O O10 0.371635 0.750000 0.085470
O O11 0.368932 0.634216 0.151577
O O12 0.675926 0.250000 0.591990
O O13 0.585742 0.341710 0.655716
O O14 0.632203 0.335430 0.461050
O O15 0.731511 0.359362 0.621339
O O16 0.500000 0.911217 0.223030
#
# Coordination Sequence:
#
# PCOD8280310 Si02
#       6
#    16  16  16  16  16  16
#     4   9  17  31  54  81 108 144 186 227 278 336
#     4  10  20  36  56  80 108 142 186 228 267 324
#     4   8  15  30  53  80 109 141 180 228 281 333
#     4  11  23  36  53  80 111 144 183 227 278 337
#     4  10  20  36  56  80 109 141 184 235 275 319
#     4  11  21  36  52  74 113 146 177 226 276 327
#
# _framework density 20.200498
#
# number of rings (size 3 to 8) (size 9 to 14) (size 15 to 20)
#    0.000    2.167    1.667    4.000    0.000    2.333 
#    0.000    1.667    0.000    7.000    0.000    2.333 
#    0.000    0.000    0.000    0.000    0.000    0.000 
#
# Total GULP energy -594747.589950 kJ/mol
# GULP energy per Si atom -12390.574791 kJ/mol
# Density = 2.015452 g / cm^3
# Si number density = 20.200498 Si / 1000 Ang^3
#
#
#
# Elastic Constant Matrix: (Units=GPa)
#
#
# Indices 1 2 3 4 5 6 
#
# 1 24.3244 29.2809 21.2434 0.0000 0.0000 0.0000
# 2 29.2809 112.4690 59.7487 0.0000 0.0000 0.0000
# 3 21.2434 59.7487 154.4281 0.0000 0.0000 0.0000
# 4 0.0000 0.0000 0.0000 29.7220 0.0000 0.0000
# 5 0.0000 0.0000 0.0000 0.0000 9.5346 0.0000
# 6 0.0000 0.0000 0.0000 0.0000 0.0000 14.5896
#
#
#
# Elastic Compliance Matrix: (Units=1/GPa)
#
#
# Indices 1 2 3 4 5 6 
#
# 1 0.060836 -0.014340 -0.002820 0.000000 0.000000 0.000000
# 2 -0.014340 0.014572 -0.003665 0.000000 0.000000 0.000000
# 3 -0.002820 -0.003665 0.008282 0.000000 0.000000 0.000000
# 4 0.000000 0.000000 0.000000 0.033645 0.000000 0.000000
# 5 0.000000 0.000000 0.000000 0.000000 0.104882 0.000000
# 6 0.000000 0.000000 0.000000 0.000000 0.000000 0.068542
#
#
# Mechanical properties :
#
#
# Convention : Reuss Voigt Hill
#
# Bulk Modulus (GPa) = 23.78800 56.86304 40.32552
# Shear Modulus (GPa) = 14.43324 22.83247 18.63285
#
# Velocity S-wave (km/s) = 2.67591 3.36563 3.04039
# Velocity P-wave (km/s) = 4.62048 6.58132 5.68606
#
# Compressibility (1/GPa) = 0.04203801
#
# Stress axis : x y z
#
# Youngs Moduli (GPa) = 16.43757 68.62527 120.74966
#
# Poissons Ratio (x) = 0.98409 0.34057
# Poissons Ratio (y) = 0.23572 0.44258
# Poissons Ratio (z) = 0.04636 0.25153
#
# Static dielectric constant tensor:
#      x y z
#    x 3.323330 0.000000 0.000000 
#    y 0.000000 3.710730 0.000000 
#    z 0.000000 0.000000 4.066510 
# 
# 
# High freq. dielectric constant tensor:
#      x y z
#    x 1.752870 0.000000 0.000000 
#    y 0.000000 1.777550 0.000000 
#    z 0.000000 0.000000 1.797510 
# 
# From -- ./inp_files/19672.got.cif
#   From: 2010.03.12/outbox.cif.g09.slc.cpg/sg67_10_cif.got.tgz:19672.got - 2010.04.10 22:41:39.
