data_PCOD8280276
_publ_section_title
;
Structure prediction by ZEFSAII (Michael W. Deem and Ramdas Pophale) SiO2 
 PCOD8280276
Probable space group: C M M A
;
_chemical_formula_sum "Si O2"
_cell_formula_units_Z 88
_cell_length_a 25.037574
_cell_length_b 20.114487
_cell_length_c 7.478044
_cell_angle_alpha 90.000000
_cell_angle_beta 90.000000
_cell_angle_gamma 90.000000
_cell_volume 3766.077240
_symmetry_space_group_name_H-M "C M M A"
_symmetry_group_IT_number 67
_symmetry_cell_setting 'orthorhombic'
loop_
_space_group_symop_operation_xyz
x,y,z
-x,1/2-y,z
x,-y,-z
-x,1/2+y,-z
-x,-y,-z
x,1/2+y,-z
-x,y,z
x,1/2-y,z
1/2+x,1/2+y,z
1/2-x,-y,z
1/2+x,1/2-y,-z
1/2-x,y,-z
1/2-x,1/2-y,-z
1/2+x,y,-z
1/2-x,1/2+y,z
1/2+x,-y,z
loop_
_atom_site_type_symbol
_atom_site_label
_atom_site_fract_x
_atom_site_fract_y
_atom_site_fract_z
Si Si1 0.292903 0.054395 0.325312
Si Si2 0.938718 0.896819 0.061490
Si Si3 0.858387 0.000000 0.000000
Si Si4 0.228976 0.824540 0.800811
Si Si5 0.105558 0.825225 0.763907
Si Si6 0.403582 0.573396 0.537277
O O1 0.263197 0.124756 0.316567
O O2 0.339275 0.065065 0.472146
O O3 0.250000 0.000000 0.386912
O O4 0.319800 0.029167 0.146097
O O5 0.900416 0.943718 0.936911
O O6 0.921024 0.897929 0.268607
O O7 0.000000 0.918471 0.048622
O O8 0.927502 0.828516 0.953346
O O9 0.238223 0.750000 0.726011
O O10 0.167028 0.844263 0.799518
O O11 0.250000 0.830574 0.000000
O O12 0.100507 0.750000 0.693003
O O13 0.079390 0.873269 0.612505
O O14 0.429340 0.500000 0.500000
#
# Coordination Sequence:
#
# PCOD8280276 Si02
#       6
#    16  16   8  16  16  16
#     4  11  20  34  60  92 131 176 221 265 319 392
#     4  11  24  44  70  95 125 169 220 277 344 408
#     4  10  20  36  62  96 130 166 212 274 336 394
#     4  10  20  35  59  92 131 177 224 267 319 389
#     4  11  25  45  67  96 137 180 225 281 339 397
#     4  11  25  42  65 101 137 174 224 281 339 400
#
# _framework density 23.366489999999999
#
# number of rings (size 3 to 8) (size 9 to 14) (size 15 to 20)
#    0.000    1.273    0.000    8.182    0.000    5.455 
#    0.000    1.818    0.000    0.000    0.000    0.000 
#    0.000    0.000    0.000    0.000    0.000    0.000 
#
# Total GULP energy -545222.861025 kJ/mol
# GULP energy per Si atom -12391.428660 kJ/mol
# Density = 2.331331 g / cm^3
# Si number density = 23.366490 Si / 1000 Ang^3
#
#
#
# Elastic Constant Matrix: (Units=GPa)
#
#
# Indices 1 2 3 4 5 6 
#
# 1 120.9232 45.5961 38.6892 0.0000 0.0000 0.0000
# 2 45.5961 138.4193 74.7829 0.0000 0.0000 0.0000
# 3 38.6892 74.7829 115.4081 0.0000 0.0000 0.0000
# 4 0.0000 0.0000 0.0000 41.2078 0.0000 0.0000
# 5 0.0000 0.0000 0.0000 0.0000 23.5483 0.0000
# 6 0.0000 0.0000 0.0000 0.0000 0.0000 -89.6999
#
#
#
# Elastic Compliance Matrix: (Units=1/GPa)
#
#
# Indices 1 2 3 4 5 6 
#
# 1 0.009683 -0.002209 -0.001815 0.000000 0.000000 0.000000
# 2 -0.002209 0.011620 -0.006789 0.000000 0.000000 0.000000
# 3 -0.001815 -0.006789 0.013672 0.000000 0.000000 0.000000
# 4 0.000000 0.000000 0.000000 0.024267 0.000000 0.000000
# 5 0.000000 0.000000 0.000000 0.000000 0.042466 0.000000
# 6 0.000000 0.000000 0.000000 0.000000 0.000000 -0.011148
#
#
# Mechanical properties :
#
#
# Convention : Reuss Voigt Hill
#
# Bulk Modulus (GPa) = 74.90683 76.98745 75.94714
# Shear Modulus (GPa) = 42.86823 9.39007 26.12915
#
# Velocity S-wave (km/s) = 4.28787 2.00682 3.34762
# Velocity P-wave (km/s) = 7.52605 6.19589 6.89313
#
# Compressibility (1/GPa) = 0.01334992
#
# Stress axis : x y z
#
# Youngs Moduli (GPa) = 103.26971 86.05816 73.14026
#
# Poissons Ratio (x) = 0.19014 0.13272
# Poissons Ratio (y) = 0.22817 0.49655
# Poissons Ratio (z) = 0.18739 0.58424
#
# Static dielectric constant tensor:
#      x y z
#    x 4.236610 0.000000 0.000000 
#    y 0.000000 4.504780 0.000000 
#    z 0.000000 0.000000 4.120520 
# 
# 
# High freq. dielectric constant tensor:
#      x y z
#    x 1.917970 0.000000 0.000000 
#    y 0.000000 1.925470 0.000000 
#    z 0.000000 0.000000 1.935680 
# 
# From -- ./inp_files/12429.got.cif
#   From: 2010.03.12/outbox.cif.g09.slc.cpg/sg67_7_cif.got.tgz:12429.got - 2010.04.10 22:41:39.
