data_PCOD8280667
_publ_section_title
;
Structure prediction by ZEFSAII (Michael W. Deem and Ramdas Pophale) SiO2 
 PCOD8280667
Probable space group: C M M A
;
_chemical_formula_sum "Si O2"
_cell_formula_units_Z 88
_cell_length_a 9.482141
_cell_length_b 16.371025
_cell_length_c 29.393752
_cell_angle_alpha 90.000000
_cell_angle_beta 90.000000
_cell_angle_gamma 90.000000
_cell_volume 4562.861709
_symmetry_space_group_name_H-M "C M M A"
_symmetry_group_IT_number 67
_symmetry_cell_setting 'orthorhombic'
loop_
_space_group_symop_operation_xyz
x,y,z
-x,1/2-y,z
x,-y,-z
-x,1/2+y,-z
-x,-y,-z
x,1/2+y,-z
-x,y,z
x,1/2-y,z
1/2+x,1/2+y,z
1/2-x,-y,z
1/2+x,1/2-y,-z
1/2-x,y,-z
1/2-x,1/2-y,-z
1/2+x,y,-z
1/2-x,1/2+y,z
1/2+x,-y,z
loop_
_atom_site_type_symbol
_atom_site_label
_atom_site_fract_x
_atom_site_fract_y
_atom_site_fract_z
Si Si1 0.166675 0.250000 0.046525
Si Si2 0.841869 0.343330 0.291792
Si Si3 0.346339 0.154799 0.460970
Si Si4 0.833534 0.079341 0.631396
Si Si5 0.660532 0.424351 0.798960
Si Si6 0.834175 0.917417 0.901876
O O1 0.210752 0.334278 0.072096
O O2 0.000000 0.250000 0.037820
O O3 0.250000 0.250000 0.000000
O O4 0.826761 0.250000 0.304883
O O5 0.725737 0.391212 0.320342
O O6 0.814395 0.352632 0.237635
O O7 0.000000 0.375242 0.303618
O O8 0.500000 0.114131 0.466510
O O9 0.354429 0.250000 0.470386
O O10 0.250000 0.113486 0.500000
O O11 0.295319 0.142014 0.409142
O O12 0.000000 0.064381 0.637119
O O13 0.750000 0.000000 0.616243
O O14 0.500000 0.453452 0.800116
O O15 0.750000 0.500000 0.781265
O O16 0.705508 0.397004 0.849560
O O17 0.000000 0.935285 0.908764
O O18 0.750000 0.000000 0.918014
#
# Coordination Sequence:
#
# PCOD8280667 Si02
#       6
#     8  16  16  16  16  16
#     4  10  22  38  58  84 114 152 194 238 289 344
#     4  10  21  35  54  81 109 141 180 221 267 322
#     4   9  19  36  57  79 102 132 170 214 265 318
#     4  11  23  38  55  76 107 143 179 220 267 319
#     4   9  18  33  54  79 108 141 180 224 270 324
#     4   9  19  36  58  83 113 151 192 235 288 342
#
# _framework density 19.286142000000002
#
# number of rings (size 3 to 8) (size 9 to 14) (size 15 to 20)
#    0.000    2.364    0.000    1.636    1.273    6.182 
#    0.000    5.455    0.000    0.000    0.000    0.000 
#    0.000    0.000    0.000    0.000    0.000    0.000 
#
# Total GULP energy -545294.667252 kJ/mol
# GULP energy per Si atom -12393.060619 kJ/mol
# Density = 1.924225 g / cm^3
# Si number density = 19.286142 Si / 1000 Ang^3
#
#
#
# Elastic Constant Matrix: (Units=GPa)
#
#
# Indices 1 2 3 4 5 6 
#
# 1 86.3442 46.6011 56.8872 0.0000 0.0000 0.0000
# 2 46.6011 85.1366 45.3943 0.0000 0.0000 0.0000
# 3 56.8872 45.3943 117.8447 0.0000 0.0000 0.0000
# 4 0.0000 0.0000 0.0000 27.8032 0.0000 0.0000
# 5 0.0000 0.0000 0.0000 0.0000 31.9187 0.0000
# 6 0.0000 0.0000 0.0000 0.0000 0.0000 28.0474
#
#
#
# Elastic Compliance Matrix: (Units=1/GPa)
#
#
# Indices 1 2 3 4 5 6 
#
# 1 0.020051 -0.007317 -0.006860 0.000000 0.000000 0.000000
# 2 -0.007317 0.017452 -0.003190 0.000000 0.000000 0.000000
# 3 -0.006860 -0.003190 0.013026 0.000000 0.000000 0.000000
# 4 0.000000 0.000000 0.000000 0.035967 0.000000 0.000000
# 5 0.000000 0.000000 0.000000 0.000000 0.031330 0.000000
# 6 0.000000 0.000000 0.000000 0.000000 0.000000 0.035654
#
#
# Mechanical properties :
#
#
# Convention : Reuss Voigt Hill
#
# Bulk Modulus (GPa) = 63.31848 65.23230 64.27539
# Shear Modulus (GPa) = 25.84241 26.91672 26.37957
#
# Velocity S-wave (km/s) = 3.66450 3.73989 3.70239
# Velocity P-wave (km/s) = 7.12791 7.24886 7.18864
#
# Compressibility (1/GPa) = 0.01579318
#
# Stress axis : x y z
#
# Youngs Moduli (GPa) = 49.87354 57.29953 76.76683
#
# Poissons Ratio (x) = 0.41927 0.52666
# Poissons Ratio (y) = 0.36493 0.24492
# Poissons Ratio (z) = 0.34216 0.18281
#
# Static dielectric constant tensor:
#      x y z
#    x 3.726940 0.000000 0.000000 
#    y 0.000000 3.522010 0.000000 
#    z 0.000000 0.000000 3.560510 
# 
# 
# High freq. dielectric constant tensor:
#      x y z
#    x 1.748600 0.000000 0.000000 
#    y 0.000000 1.741110 0.000000 
#    z 0.000000 0.000000 1.756490 
# 
# From -- ./inp_files/45202.got.cif
#   From: 2010.03.12/outbox.cif.g09.slc.cpg/sg67_23_cif.got.tgz:45202.got - 2010.04.10 22:41:39.
