data_PCOD8280415
_publ_section_title
;
Structure prediction by ZEFSAII (Michael W. Deem and Ramdas Pophale) SiO2 
 PCOD8280415
Probable space group: C M M A
;
_chemical_formula_sum "Si O2"
_cell_formula_units_Z 80
_cell_length_a 8.608555
_cell_length_b 23.561609
_cell_length_c 20.344423
_cell_angle_alpha 90.000000
_cell_angle_beta 90.000000
_cell_angle_gamma 90.000000
_cell_volume 4126.487941
_symmetry_space_group_name_H-M "C M M A"
_symmetry_group_IT_number 67
_symmetry_cell_setting 'orthorhombic'
loop_
_space_group_symop_operation_xyz
x,y,z
-x,1/2-y,z
x,-y,-z
-x,1/2+y,-z
-x,-y,-z
x,1/2+y,-z
-x,y,z
x,1/2-y,z
1/2+x,1/2+y,z
1/2-x,-y,z
1/2+x,1/2-y,-z
1/2-x,y,-z
1/2-x,1/2-y,-z
1/2+x,y,-z
1/2-x,1/2+y,z
1/2+x,-y,z
loop_
_atom_site_type_symbol
_atom_site_label
_atom_site_fract_x
_atom_site_fract_y
_atom_site_fract_z
Si Si1 0.316746 0.061180 0.569086
Si Si2 0.682373 0.561292 0.184915
Si Si3 0.818844 0.638069 0.690150
Si Si4 0.179635 0.750000 0.264703
Si Si5 0.316526 0.866225 0.930133
Si Si6 0.182544 0.250000 0.122578
O O1 0.500000 0.055561 0.563864
O O2 0.250000 0.083433 0.500000
O O3 0.265936 0.104966 0.625130
O O4 0.250000 0.000000 0.587783
O O5 0.500000 0.557585 0.171583
O O6 0.750000 0.500000 0.201075
O O7 0.721469 0.600765 0.246527
O O8 0.765589 0.586300 0.121319
O O9 0.718660 0.695169 0.691894
O O10 0.000000 0.653551 0.688087
O O11 0.284140 0.750000 0.199758
O O12 0.000000 0.750000 0.244183
O O13 0.500000 0.862976 0.933113
O O14 0.252271 0.804941 0.911396
O O15 0.250000 0.885340 0.000000
O O16 0.000000 0.250000 0.111379
#
# Coordination Sequence:
#
# PCOD8280415 Si02
#       6
#    16  16  16   8  16   8
#     4  10  20  36  60  91 124 164 202 246 296 349
#     4  11  23  40  62  88 119 158 199 249 303 360
#     4  10  22  40  62  87 122 161 200 245 303 356
#     4  12  24  37  62  93 120 155 200 247 300 355
#     4  12  25  42  63  90 120 156 201 249 303 361
#     4  12  23  41  64  89 122 157 196 247 302 357
#
# _framework density 19.386945999999998
#
# number of rings (size 3 to 8) (size 9 to 14) (size 15 to 20)
#    0.000    1.000    2.000    6.300    0.000    2.800 
#    0.000    2.500    0.000    0.000    0.000    0.000 
#    0.000    0.000    0.000    0.000    0.000    0.000 
#
# Total GULP energy -496278.999213 kJ/mol
# GULP energy per Si atom -12406.974980 kJ/mol
# Density = 1.934282 g / cm^3
# Si number density = 19.386946 Si / 1000 Ang^3
#
#
#
# Elastic Constant Matrix: (Units=GPa)
#
#
# Indices 1 2 3 4 5 6 
#
# 1 133.2730 57.2565 55.9521 0.0000 0.0000 0.0000
# 2 57.2565 121.9799 57.9217 0.0000 0.0000 0.0000
# 3 55.9521 57.9217 139.5450 0.0000 0.0000 0.0000
# 4 0.0000 0.0000 0.0000 33.3694 0.0000 0.0000
# 5 0.0000 0.0000 0.0000 0.0000 29.3936 0.0000
# 6 0.0000 0.0000 0.0000 0.0000 0.0000 39.7562
#
#
#
# Elastic Compliance Matrix: (Units=1/GPa)
#
#
# Indices 1 2 3 4 5 6 
#
# 1 0.010100 -0.003510 -0.002593 0.000000 0.000000 0.000000
# 2 -0.003510 0.011430 -0.003337 0.000000 0.000000 0.000000
# 3 -0.002593 -0.003337 0.009591 0.000000 0.000000 0.000000
# 4 0.000000 0.000000 0.000000 0.029968 0.000000 0.000000
# 5 0.000000 0.000000 0.000000 0.000000 0.034021 0.000000
# 6 0.000000 0.000000 0.000000 0.000000 0.000000 0.025153
#
#
# Mechanical properties :
#
#
# Convention : Reuss Voigt Hill
#
# Bulk Modulus (GPa) = 81.68849 81.89541 81.79195
# Shear Modulus (GPa) = 34.91076 35.41500 35.16288
#
# Velocity S-wave (km/s) = 4.24811 4.27868 4.26342
# Velocity P-wave (km/s) = 8.14182 8.16968 8.15576
#
# Compressibility (1/GPa) = 0.01224163
#
# Stress axis : x y z
#
# Youngs Moduli (GPa) = 99.01267 87.48869 104.26485
#
# Poissons Ratio (x) = 0.30704 0.27035
# Poissons Ratio (y) = 0.34749 0.34795
# Poissons Ratio (z) = 0.25673 0.29196
#
# Static dielectric constant tensor:
#      x y z
#    x 3.640140 0.000000 0.000000 
#    y 0.000000 3.624530 0.000000 
#    z 0.000000 0.000000 3.730780 
# 
# 
# High freq. dielectric constant tensor:
#      x y z
#    x 1.769250 0.000000 0.000000 
#    y 0.000000 1.759310 0.000000 
#    z 0.000000 0.000000 1.761370 
# 
# From -- ./inp_files/36897.got.cif
#   From: 2010.03.12/outbox.cif.g09.slc.cpg/sg67_19_cif.got.tgz:36897.got - 2010.04.10 22:41:39.
