data_PCOD8280685
_publ_section_title
;
Structure prediction by ZEFSAII (Michael W. Deem and Ramdas Pophale) SiO2 
 PCOD8280685
Probable space group: C M M A
;
_chemical_formula_sum "Si O2"
_cell_formula_units_Z 72
_cell_length_a 8.653623
_cell_length_b 30.518473
_cell_length_c 14.606343
_cell_angle_alpha 90.000000
_cell_angle_beta 90.000000
_cell_angle_gamma 90.000000
_cell_volume 3857.467411
_symmetry_space_group_name_H-M "C M M A"
_symmetry_group_IT_number 67
_symmetry_cell_setting 'orthorhombic'
loop_
_space_group_symop_operation_xyz
x,y,z
-x,1/2-y,z
x,-y,-z
-x,1/2+y,-z
-x,-y,-z
x,1/2+y,-z
-x,y,z
x,1/2-y,z
1/2+x,1/2+y,z
1/2-x,-y,z
1/2+x,1/2-y,-z
1/2-x,y,-z
1/2-x,1/2-y,-z
1/2+x,y,-z
1/2-x,1/2+y,z
1/2+x,-y,z
loop_
_atom_site_type_symbol
_atom_site_label
_atom_site_fract_x
_atom_site_fract_y
_atom_site_fract_z
Si Si1 0.818917 0.199687 0.400614
Si Si2 0.680878 0.877637 0.712246
Si Si3 0.818378 0.953657 0.597296
Si Si4 0.319634 0.155852 0.097838
Si Si5 0.182144 0.750000 0.098945
O O1 0.787814 0.250000 0.371195
O O2 0.750000 0.190197 0.500000
O O3 0.732747 0.168643 0.329318
O O4 0.000000 0.188819 0.402533
O O5 0.500000 0.884340 0.692642
O O6 0.777771 0.917391 0.671626
O O7 0.717179 0.878484 0.821379
O O8 0.750000 0.938887 0.500000
O O9 0.000000 0.958407 0.587177
O O10 0.750000 0.000000 0.629497
O O11 0.500000 0.159118 0.079318
O O12 0.259040 0.203215 0.138618
O O13 0.250000 0.141522 0.000000
O O14 0.000000 0.750000 0.099745
O O15 0.250000 0.750000 0.000000
#
# Coordination Sequence:
#
# PCOD8280685 Si02
#       5
#    16  16  16  16   8
#     4  10  21  36  52  74 106 145 186 227 271 322
#     4  11  22  35  55  82 111 146 184 225 274 330
#     4  11  22  39  62  87 115 143 177 223 274 330
#     4   9  19  33  52  75 106 143 185 230 275 322
#     4   8  14  28  46  68  95 132 177 222 267 308
#
# _framework density 18.665095000000001
#
# number of rings (size 3 to 8) (size 9 to 14) (size 15 to 20)
#    0.000    2.000    0.000    4.667    1.556    3.111 
#    0.000    0.000    0.000    0.667    0.000    4.667 
#    0.000    0.000    0.000    0.000    0.000    0.000 
#
# Total GULP energy -446108.242719 kJ/mol
# GULP energy per Si atom -12391.895631 kJ/mol
# Density = 1.862261 g / cm^3
# Si number density = 18.665095 Si / 1000 Ang^3
#
#
#
# Elastic Constant Matrix: (Units=GPa)
#
#
# Indices 1 2 3 4 5 6 
#
# 1 92.1296 35.3154 35.4903 0.0000 0.0000 0.0000
# 2 35.3154 92.0090 57.9812 0.0000 0.0000 0.0000
# 3 35.4903 57.9812 103.1064 0.0000 0.0000 0.0000
# 4 0.0000 0.0000 0.0000 17.9336 0.0000 0.0000
# 5 0.0000 0.0000 0.0000 0.0000 27.8601 0.0000
# 6 0.0000 0.0000 0.0000 0.0000 0.0000 29.8454
#
#
#
# Elastic Compliance Matrix: (Units=1/GPa)
#
#
# Indices 1 2 3 4 5 6 
#
# 1 0.013168 -0.003404 -0.002618 0.000000 0.000000 0.000000
# 2 -0.003404 0.017714 -0.008790 0.000000 0.000000 0.000000
# 3 -0.002618 -0.008790 0.015543 0.000000 0.000000 0.000000
# 4 0.000000 0.000000 0.000000 0.055761 0.000000 0.000000
# 5 0.000000 0.000000 0.000000 0.000000 0.035894 0.000000
# 6 0.000000 0.000000 0.000000 0.000000 0.000000 0.033506
#
#
# Mechanical properties :
#
#
# Convention : Reuss Voigt Hill
#
# Bulk Modulus (GPa) = 59.52190 60.53542 60.02866
# Shear Modulus (GPa) = 24.17684 25.69171 24.93427
#
# Velocity S-wave (km/s) = 3.60293 3.71409 3.65893
# Velocity P-wave (km/s) = 7.01903 7.13410 7.07680
#
# Compressibility (1/GPa) = 0.01680054
#
# Stress axis : x y z
#
# Youngs Moduli (GPa) = 75.94303 56.45228 64.33897
#
# Poissons Ratio (x) = 0.19218 0.16845
# Poissons Ratio (y) = 0.25853 0.56551
# Poissons Ratio (z) = 0.19883 0.49619
#
# Static dielectric constant tensor:
#      x y z
#    x 3.392340 0.000000 0.000000 
#    y 0.000000 3.279360 0.000000 
#    z 0.000000 0.000000 3.127500 
# 
# 
# High freq. dielectric constant tensor:
#      x y z
#    x 1.733550 0.000000 0.000000 
#    y 0.000000 1.713290 0.000000 
#    z 0.000000 0.000000 1.716620 
# 
# From -- ./inp_files/25077.got.cif
#   From: 2010.03.12/outbox.cif.g09.slc.cpg/sg67_13_cif.got.tgz:25077.got - 2010.04.10 22:41:39.
