data_PCOD8280289
_publ_section_title
;
Structure prediction by ZEFSAII (Michael W. Deem and Ramdas Pophale) SiO2 
 PCOD8280289
Probable space group: C M M A
;
_chemical_formula_sum "Si O2"
_cell_formula_units_Z 112
_cell_length_a 19.435682
_cell_length_b 26.436720
_cell_length_c 11.639258
_cell_angle_alpha 90.000000
_cell_angle_beta 90.000000
_cell_angle_gamma 90.000000
_cell_volume 5980.433299
_symmetry_space_group_name_H-M "C M M A"
_symmetry_group_IT_number 67
_symmetry_cell_setting 'orthorhombic'
loop_
_space_group_symop_operation_xyz
x,y,z
-x,1/2-y,z
x,-y,-z
-x,1/2+y,-z
-x,-y,-z
x,1/2+y,-z
-x,y,z
x,1/2-y,z
1/2+x,1/2+y,z
1/2-x,-y,z
1/2+x,1/2-y,-z
1/2-x,y,-z
1/2-x,1/2-y,-z
1/2+x,y,-z
1/2-x,1/2+y,z
1/2+x,-y,z
loop_
_atom_site_type_symbol
_atom_site_label
_atom_site_fract_x
_atom_site_fract_y
_atom_site_fract_z
Si Si1 0.706749 0.953278 0.666405
Si Si2 0.278958 0.597006 0.118670
Si Si3 0.739209 0.694457 0.773849
Si Si4 0.316589 0.348544 0.437179
Si Si5 0.077054 0.993507 0.634106
Si Si6 0.424663 0.602306 0.218078
Si Si7 0.382472 0.306688 0.644663
O O1 0.748988 0.934794 0.776442
O O2 0.693991 0.909003 0.573998
O O3 0.631061 0.972455 0.705198
O O4 0.750000 0.000000 0.611216
O O5 0.249599 0.654373 0.124029
O O6 0.362657 0.596084 0.125667
O O7 0.250000 0.573601 0.000000
O O8 0.723183 0.750000 0.825555
O O9 0.676913 0.676821 0.689391
O O10 0.806855 0.694687 0.696841
O O11 0.250000 0.325731 0.500000
O O12 0.381014 0.332294 0.517006
O O13 0.000000 0.013226 0.659480
O O14 0.094968 0.000000 0.500000
O O15 0.086224 0.935780 0.675035
O O16 0.500000 0.592770 0.159333
O O17 0.427768 0.658426 0.271978
O O18 0.413814 0.250000 0.637564
#
# Coordination Sequence:
#
# PCOD8280289 Si02
#       7
#    16  16  16  16  16  16  16
#     4  11  21  32  51  76 101 140 183 225 261 310
#     4  10  21  37  53  76 102 132 181 234 277 317
#     4   8  15  28  47  72 102 133 165 211 265 312
#     4   9  17  26  43  74 107 136 172 209 251 308
#     4  10  21  35  52  76 109 142 171 209 260 318
#     4  10  20  36  52  75 107 136 172 218 268 323
#     4   9  16  28  47  73 105 139 167 201 252 318
#
# _framework density 18.727740000000001
#
# number of rings (size 3 to 8) (size 9 to 14) (size 15 to 20)
#    0.000    2.429    1.429    2.143    2.000    2.571 
#    0.000    0.714    0.000    1.714    0.000    0.000 
#    0.000   10.857    0.000    0.000    0.000    0.000 
#
# Total GULP energy -693778.495865 kJ/mol
# GULP energy per Si atom -12388.901712 kJ/mol
# Density = 1.868512 g / cm^3
# Si number density = 18.727740 Si / 1000 Ang^3
#
#
#
# Elastic Constant Matrix: (Units=GPa)
#
#
# Indices 1 2 3 4 5 6 
#
# 1 102.7866 24.5266 30.2940 0.0000 0.0000 0.0000
# 2 24.5266 86.7049 13.1865 0.0000 0.0000 0.0000
# 3 30.2940 13.1865 51.5378 0.0000 0.0000 0.0000
# 4 0.0000 0.0000 0.0000 11.3128 0.0000 0.0000
# 5 0.0000 0.0000 0.0000 0.0000 14.7137 0.0000
# 6 0.0000 0.0000 0.0000 0.0000 0.0000 17.1509
#
#
#
# Elastic Compliance Matrix: (Units=1/GPa)
#
#
# Indices 1 2 3 4 5 6 
#
# 1 0.012255 -0.002467 -0.006572 0.000000 0.000000 0.000000
# 2 -0.002467 0.012497 -0.001747 0.000000 0.000000 0.000000
# 3 -0.006572 -0.001747 0.023713 0.000000 0.000000 0.000000
# 4 0.000000 0.000000 0.000000 0.088395 0.000000 0.000000
# 5 0.000000 0.000000 0.000000 0.000000 0.067964 0.000000
# 6 0.000000 0.000000 0.000000 0.000000 0.000000 0.058306
#
#
# Mechanical properties :
#
#
# Convention : Reuss Voigt Hill
#
# Bulk Modulus (GPa) = 37.18569 41.89374 39.53972
# Shear Modulus (GPa) = 17.02610 20.17030 18.59820
#
# Velocity S-wave (km/s) = 3.01846 3.28537 3.15474
# Velocity P-wave (km/s) = 5.66103 6.06712 5.86759
#
# Compressibility (1/GPa) = 0.02689206
#
# Stress axis : x y z
#
# Youngs Moduli (GPa) = 81.60257 80.01941 42.17031
#
# Poissons Ratio (x) = 0.19741 0.27714
# Poissons Ratio (y) = 0.20131 0.07369
# Poissons Ratio (z) = 0.53629 0.13982
#
# Static dielectric constant tensor:
#      x y z
#    x 3.317450 0.000000 0.000000 
#    y 0.000000 3.821750 0.000000 
#    z 0.000000 0.000000 3.034390 
# 
# 
# High freq. dielectric constant tensor:
#      x y z
#    x 1.701480 0.000000 0.000000 
#    y 0.000000 1.739100 0.000000 
#    z 0.000000 0.000000 1.684940 
# 
# From -- ./inp_files/21246.got.cif
#   From: 2010.03.12/outbox.cif.g09.slc.cpg/sg67_11_cif.got.tgz:21246.got - 2010.04.10 22:41:39.
