data_PCOD8280932
_publ_section_title
;
Structure prediction by ZEFSAII (Michael W. Deem and Ramdas Pophale) SiO2 
 PCOD8280932
Probable space group: C M M A
;
_chemical_formula_sum "Si O2"
_cell_formula_units_Z 88
_cell_length_a 27.091104
_cell_length_b 25.076823
_cell_length_c 6.100394
_cell_angle_alpha 90.000000
_cell_angle_beta 90.000000
_cell_angle_gamma 90.000000
_cell_volume 4144.356469
_symmetry_space_group_name_H-M "C M M A"
_symmetry_group_IT_number 67
_symmetry_cell_setting 'orthorhombic'
loop_
_space_group_symop_operation_xyz
x,y,z
-x,1/2-y,z
x,-y,-z
-x,1/2+y,-z
-x,-y,-z
x,1/2+y,-z
-x,y,z
x,1/2-y,z
1/2+x,1/2+y,z
1/2-x,-y,z
1/2+x,1/2-y,-z
1/2-x,y,-z
1/2-x,1/2-y,-z
1/2+x,y,-z
1/2-x,1/2+y,z
1/2+x,-y,z
loop_
_atom_site_type_symbol
_atom_site_label
_atom_site_fract_x
_atom_site_fract_y
_atom_site_fract_z
Si Si1 0.443578 0.089702 0.829122
Si Si2 0.301581 0.859916 0.120654
Si Si3 0.773950 0.250000 0.255495
Si Si4 0.885965 0.129518 0.794103
Si Si5 0.055949 0.691102 0.540415
Si Si6 0.647271 0.443154 0.582009
O O1 0.500000 0.069281 0.805779
O O2 0.435205 0.148895 0.732637
O O3 0.406206 0.049900 0.702746
O O4 0.428314 0.094801 0.082619
O O5 0.302460 0.806335 0.268561
O O6 0.313719 0.913149 0.260455
O O7 0.250000 0.870565 0.000000
O O8 0.345072 0.847071 0.953089
O O9 0.750000 0.250000 0.500000
O O10 0.750000 0.250000 0.000000
O O11 0.910368 0.178826 0.668699
O O12 0.857547 0.090623 0.634682
O O13 0.069014 0.750000 0.630337
O O14 0.000000 0.688258 0.456814
O O15 0.667740 0.500000 0.500000
#
# Coordination Sequence:
#
# PCOD8280932 Si02
#       6
#    16  16   8  16  16  16
#     4   9  19  37  57  87 125 166 214 262 323 396
#     4  10  24  43  66  95 126 170 216 272 341 407
#     4  10  24  44  74 100 135 172 221 288 342 416
#     4  10  21  38  59  89 123 165 214 267 328 390
#     4   9  18  33  56  86 124 166 207 258 319 391
#     4  10  23  43  65  90 129 167 214 279 328 395
#
# _framework density 21.233694
#
# number of rings (size 3 to 8) (size 9 to 14) (size 15 to 20)
#    0.000    2.364    0.000    0.545    6.364    4.727 
#   13.091    5.455    0.000    0.000    0.000    0.000 
#    0.000    0.000    0.000    0.000    0.000    0.000 
#
# Total GULP energy -545118.967535 kJ/mol
# GULP energy per Si atom -12389.067444 kJ/mol
# Density = 2.118537 g / cm^3
# Si number density = 21.233694 Si / 1000 Ang^3
#
#
#
# Elastic Constant Matrix: (Units=GPa)
#
#
# Indices 1 2 3 4 5 6 
#
# 1 100.5352 39.4049 38.3613 0.0000 0.0000 0.0000
# 2 39.4049 112.0832 27.8810 0.0000 0.0000 0.0000
# 3 38.3613 27.8810 102.3295 0.0000 0.0000 0.0000
# 4 0.0000 0.0000 0.0000 22.4302 0.0000 0.0000
# 5 0.0000 0.0000 0.0000 0.0000 27.9208 0.0000
# 6 0.0000 0.0000 0.0000 0.0000 0.0000 27.3022
#
#
#
# Elastic Compliance Matrix: (Units=1/GPa)
#
#
# Indices 1 2 3 4 5 6 
#
# 1 0.012799 -0.003547 -0.003832 0.000000 0.000000 0.000000
# 2 -0.003547 0.010553 -0.001546 0.000000 0.000000 0.000000
# 3 -0.003832 -0.001546 0.011630 0.000000 0.000000 0.000000
# 4 0.000000 0.000000 0.000000 0.044583 0.000000 0.000000
# 5 0.000000 0.000000 0.000000 0.000000 0.035816 0.000000
# 6 0.000000 0.000000 0.000000 0.000000 0.000000 0.036627
#
#
# Mechanical properties :
#
#
# Convention : Reuss Voigt Hill
#
# Bulk Modulus (GPa) = 58.36377 58.47139 58.41758
# Shear Modulus (GPa) = 28.47911 29.48402 28.98156
#
# Velocity S-wave (km/s) = 3.66624 3.73037 3.69844
# Velocity P-wave (km/s) = 6.74299 6.79346 6.76827
#
# Compressibility (1/GPa) = 0.01713392
#
# Stress axis : x y z
#
# Youngs Moduli (GPa) = 78.13156 94.75684 85.98451
#
# Poissons Ratio (x) = 0.33606 0.32947
# Poissons Ratio (y) = 0.27710 0.13292
# Poissons Ratio (z) = 0.29938 0.14648
#
# Static dielectric constant tensor:
#      x y z
#    x 3.947190 0.000000 0.000000 
#    y 0.000000 3.803540 0.000000 
#    z 0.000000 0.000000 4.164770 
# 
# 
# High freq. dielectric constant tensor:
#      x y z
#    x 1.829060 0.000000 0.000000 
#    y 0.000000 1.820340 0.000000 
#    z 0.000000 0.000000 1.842040 
# 
# From -- ./inp_files/3620.got.cif
#   From: 2010.03.12/outbox.cif.g09.slc.cpg/sg67_2_cif.got.tgz:3620.got - 2010.04.10 22:41:39.
