data_PCOD8280504
_publ_section_title
;
Structure prediction by ZEFSAII (Michael W. Deem and Ramdas Pophale) SiO2 
 PCOD8280504
Probable space group: C M M A
;
_chemical_formula_sum "Si O2"
_cell_formula_units_Z 104
_cell_length_a 8.550017
_cell_length_b 30.254487
_cell_length_c 20.287121
_cell_angle_alpha 90.000000
_cell_angle_beta 90.000000
_cell_angle_gamma 90.000000
_cell_volume 5247.798984
_symmetry_space_group_name_H-M "C M M A"
_symmetry_group_IT_number 67
_symmetry_cell_setting 'orthorhombic'
loop_
_space_group_symop_operation_xyz
x,y,z
-x,1/2-y,z
x,-y,-z
-x,1/2+y,-z
-x,-y,-z
x,1/2+y,-z
-x,y,z
x,1/2-y,z
1/2+x,1/2+y,z
1/2-x,-y,z
1/2+x,1/2-y,-z
1/2-x,y,-z
1/2-x,1/2-y,-z
1/2+x,y,-z
1/2-x,1/2+y,z
1/2+x,-y,z
loop_
_atom_site_type_symbol
_atom_site_label
_atom_site_fract_x
_atom_site_fract_y
_atom_site_fract_z
Si Si1 0.188370 0.250000 0.071127
Si Si2 0.316502 0.666230 0.862792
Si Si3 0.683717 0.700325 0.724123
Si Si4 0.682675 0.891950 0.678682
Si Si5 0.182210 0.046680 0.429595
Si Si6 0.317041 0.955054 0.797137
Si Si7 0.682750 0.919303 0.073004
O O1 0.280887 0.290544 0.098797
O O2 0.000000 0.250000 0.080949
O O3 0.250000 0.250000 0.000000
O O4 0.500000 0.653053 0.861731
O O5 0.251338 0.677766 0.790310
O O6 0.220450 0.629233 0.900817
O O7 0.500000 0.707099 0.731199
O O8 0.756116 0.750000 0.709100
O O9 0.721586 0.660999 0.671988
O O10 0.500000 0.900325 0.665591
O O11 0.782037 0.915262 0.622538
O O12 0.726688 0.912936 0.750621
O O13 0.250000 0.060881 0.500000
O O14 0.000000 0.040710 0.437658
O O15 0.250000 0.000000 0.404807
O O16 0.500000 0.959397 0.803422
O O17 0.249201 0.951822 0.871052
O O18 0.250000 0.000000 0.764526
O O19 0.500000 0.926353 0.067243
O O20 0.750000 0.928552 0.000000
#
# Coordination Sequence:
#
# PCOD8280504 Si02
#       7
#     8  16  16  16  16  16  16
#     4  12  24  36  50  76 106 142 185 240 303 368
#     4  11  20  37  59  80 107 144 189 242 302 365
#     4   9  17  33  60  89 116 153 196 240 292 349
#     4  10  20  37  62  92 126 161 198 243 293 350
#     4  11  22  38  62  94 131 168 204 244 290 347
#     4  11  23  40  61  87 117 153 197 246 300 359
#     4  12  25  41  59  80 109 147 194 247 305 366
#
# _framework density 19.817833
#
# number of rings (size 3 to 8) (size 9 to 14) (size 15 to 20)
#    0.000    1.231    2.308    5.769    0.000    2.769 
#    0.000    1.538    0.000    0.462    0.000    0.000 
#    0.000    0.000    0.000    0.000    0.000    0.000 
#
# Total GULP energy -644244.344454 kJ/mol
# GULP energy per Si atom -12389.314316 kJ/mol
# Density = 1.977273 g / cm^3
# Si number density = 19.817833 Si / 1000 Ang^3
#
#
#
# Elastic Constant Matrix: (Units=GPa)
#
#
# Indices 1 2 3 4 5 6 
#
# 1 96.5735 33.1422 40.6408 0.0000 0.0000 0.0000
# 2 33.1422 131.6775 39.6817 0.0000 0.0000 0.0000
# 3 40.6408 39.6817 95.1633 0.0000 0.0000 0.0000
# 4 0.0000 0.0000 0.0000 26.0749 0.0000 0.0000
# 5 0.0000 0.0000 0.0000 0.0000 21.7054 0.0000
# 6 0.0000 0.0000 0.0000 0.0000 0.0000 31.0112
#
#
#
# Elastic Compliance Matrix: (Units=1/GPa)
#
#
# Indices 1 2 3 4 5 6 
#
# 1 0.012997 -0.001828 -0.004788 0.000000 0.000000 0.000000
# 2 -0.001828 0.008943 -0.002948 0.000000 0.000000 0.000000
# 3 -0.004788 -0.002948 0.013783 0.000000 0.000000 0.000000
# 4 0.000000 0.000000 0.000000 0.038351 0.000000 0.000000
# 5 0.000000 0.000000 0.000000 0.000000 0.046071 0.000000
# 6 0.000000 0.000000 0.000000 0.000000 0.000000 0.032246
#
#
# Mechanical properties :
#
#
# Convention : Reuss Voigt Hill
#
# Bulk Modulus (GPa) = 60.26631 61.14930 60.70781
# Shear Modulus (GPa) = 28.24023 29.75496 28.99759
#
# Velocity S-wave (km/s) = 3.77900 3.87902 3.82934
# Velocity P-wave (km/s) = 7.03685 7.14039 7.08881
#
# Compressibility (1/GPa) = 0.01659302
#
# Stress axis : x y z
#
# Youngs Moduli (GPa) = 76.93900 111.81968 72.55557
#
# Poissons Ratio (x) = 0.20445 0.34742
# Poissons Ratio (y) = 0.14067 0.21391
# Poissons Ratio (z) = 0.36841 0.32967
#
# Static dielectric constant tensor:
#      x y z
#    x 3.414970 0.000000 0.000000 
#    y 0.000000 4.175430 0.000000 
#    z 0.000000 0.000000 3.664060 
# 
# 
# High freq. dielectric constant tensor:
#      x y z
#    x 1.762410 0.000000 0.000000 
#    y 0.000000 1.789210 0.000000 
#    z 0.000000 0.000000 1.756920 
# 
# From -- ./inp_files/37554.got.cif
#   From: 2010.03.12/outbox.cif.g09.slc.cpg/sg67_19_cif.got.tgz:37554.got - 2010.04.10 22:41:39.
