data_PCOD8280689
_publ_section_title
;
Structure prediction by ZEFSAII (Michael W. Deem and Ramdas Pophale) SiO2 
 PCOD8280689
Probable space group: C M M A
;
_chemical_formula_sum "Si O2"
_cell_formula_units_Z 96
_cell_length_a 19.074724
_cell_length_b 8.988899
_cell_length_c 30.320261
_cell_angle_alpha 90.000000
_cell_angle_beta 90.000000
_cell_angle_gamma 90.000000
_cell_volume 5198.735222
_symmetry_space_group_name_H-M "C M M A"
_symmetry_group_IT_number 67
_symmetry_cell_setting 'orthorhombic'
loop_
_space_group_symop_operation_xyz
x,y,z
-x,1/2-y,z
x,-y,-z
-x,1/2+y,-z
-x,-y,-z
x,1/2+y,-z
-x,y,z
x,1/2-y,z
1/2+x,1/2+y,z
1/2-x,-y,z
1/2+x,1/2-y,-z
1/2-x,y,-z
1/2-x,1/2-y,-z
1/2+x,y,-z
1/2-x,1/2+y,z
1/2+x,-y,z
loop_
_atom_site_type_symbol
_atom_site_label
_atom_site_fract_x
_atom_site_fract_y
_atom_site_fract_z
Si Si1 0.178444 0.576853 0.785309
Si Si2 0.824240 0.076922 0.638172
Si Si3 0.678509 0.576434 0.112030
Si Si4 0.419475 0.925352 0.718158
Si Si5 0.917232 0.079234 0.955641
Si Si6 0.325256 0.076181 0.458831
O O1 0.184881 0.750000 0.774638
O O2 0.250000 0.500000 0.768891
O O3 0.165446 0.545680 0.836620
O O4 0.112579 0.507996 0.760169
O O5 0.809157 0.250000 0.643757
O O6 0.879991 0.020216 0.673990
O O7 0.858186 0.045495 0.589586
O O8 0.750000 0.000000 0.645891
O O9 0.682789 0.750000 0.101238
O O10 0.750000 0.500000 0.095952
O O11 0.614301 0.503256 0.086451
O O12 0.500000 0.973134 0.713637
O O13 0.411597 0.750000 0.725296
O O14 0.892790 0.250000 0.956726
O O15 0.000000 0.064782 0.951287
O O16 0.890028 0.000000 0.000000
O O17 0.318562 0.250000 0.468485
O O18 0.367820 0.000000 0.500000
O O19 0.250000 0.000000 0.457539
#
# Coordination Sequence:
#
# PCOD8280689 Si02
#       6
#    16  16  16  16  16  16
#     4  10  21  37  57  80 106 136 171 213 260 309
#     4   9  18  31  48  71  97 128 165 205 251 301
#     4  10  21  37  57  81 109 139 173 215 261 309
#     4  10  21  36  53  74 102 136 173 212 255 305
#     4  10  21  37  57  81 110 144 181 219 259 305
#     4   9  15  24  40  64  93 121 154 198 246 295
#
# _framework density 18.46603
#
# number of rings (size 3 to 8) (size 9 to 14) (size 15 to 20)
#    0.000    2.333    0.000    3.000    0.000    7.000 
#    0.000    5.000    0.000    0.500    0.000    0.000 
#    0.000    0.000    0.000    0.000    0.000    4.500 
#
# Total GULP energy -595132.458762 kJ/mol
# GULP energy per Si atom -12398.592891 kJ/mol
# Density = 1.842400 g / cm^3
# Si number density = 18.466030 Si / 1000 Ang^3
#
#
#
# Elastic Constant Matrix: (Units=GPa)
#
#
# Indices 1 2 3 4 5 6 
#
# 1 87.7368 46.9518 60.8904 0.0000 0.0000 0.0000
# 2 46.9518 102.6007 61.4672 0.0000 0.0000 0.0000
# 3 60.8904 61.4672 110.8116 0.0000 0.0000 0.0000
# 4 0.0000 0.0000 0.0000 28.9748 0.0000 0.0000
# 5 0.0000 0.0000 0.0000 0.0000 13.9106 0.0000
# 6 0.0000 0.0000 0.0000 0.0000 0.0000 27.1923
#
#
#
# Elastic Compliance Matrix: (Units=1/GPa)
#
#
# Indices 1 2 3 4 5 6 
#
# 1 0.019326 -0.003717 -0.008558 0.000000 0.000000 0.000000
# 2 -0.003717 0.015312 -0.006451 0.000000 0.000000 0.000000
# 3 -0.008558 -0.006451 0.017305 0.000000 0.000000 0.000000
# 4 0.000000 0.000000 0.000000 0.034513 0.000000 0.000000
# 5 0.000000 0.000000 0.000000 0.000000 0.071887 0.000000
# 6 0.000000 0.000000 0.000000 0.000000 0.000000 0.036775
#
#
# Mechanical properties :
#
#
# Convention : Reuss Voigt Hill
#
# Bulk Modulus (GPa) = 69.00543 71.08531 70.04537
# Shear Modulus (GPa) = 21.06135 22.80487 21.93311
#
# Velocity S-wave (km/s) = 3.38086 3.51802 3.45012
# Velocity P-wave (km/s) = 7.25881 7.42164 7.34067
#
# Compressibility (1/GPa) = 0.01449161
#
# Stress axis : x y z
#
# Youngs Moduli (GPa) = 51.74363 65.30647 57.78584
#
# Poissons Ratio (x) = 0.24275 0.49451
# Poissons Ratio (y) = 0.19233 0.37279
# Poissons Ratio (z) = 0.44281 0.42131
#
# Static dielectric constant tensor:
#      x y z
#    x 3.136750 0.000000 0.000000 
#    y 0.000000 3.506340 0.000000 
#    z 0.000000 0.000000 4.006240 
# 
# 
# High freq. dielectric constant tensor:
#      x y z
#    x 1.683910 0.000000 0.000000 
#    y 0.000000 1.726370 0.000000 
#    z 0.000000 0.000000 1.734880 
# 
# From -- ./inp_files/44611.got.cif
#   From: 2010.03.12/outbox.cif.g09.slc.cpg/sg67_23_cif.got.tgz:44611.got - 2010.04.10 22:41:39.
