data_PCOD8280268
_publ_section_title
;
Structure prediction by ZEFSAII (Michael W. Deem and Ramdas Pophale) SiO2 
 PCOD8280268
Probable space group: C M M A
;
_chemical_formula_sum "Si O2"
_cell_formula_units_Z 64
_cell_length_a 8.592970
_cell_length_b 15.445490
_cell_length_c 23.677502
_cell_angle_alpha 90.000000
_cell_angle_beta 90.000000
_cell_angle_gamma 90.000000
_cell_volume 3142.540389
_symmetry_space_group_name_H-M "C M M A"
_symmetry_group_IT_number 67
_symmetry_cell_setting 'orthorhombic'
loop_
_space_group_symop_operation_xyz
x,y,z
-x,1/2-y,z
x,-y,-z
-x,1/2+y,-z
-x,-y,-z
x,1/2+y,-z
-x,y,z
x,1/2-y,z
1/2+x,1/2+y,z
1/2-x,-y,z
1/2+x,1/2-y,-z
1/2-x,y,-z
1/2-x,1/2-y,-z
1/2+x,y,-z
1/2-x,1/2+y,z
1/2+x,-y,z
loop_
_atom_site_type_symbol
_atom_site_label
_atom_site_fract_x
_atom_site_fract_y
_atom_site_fract_z
Si Si1 0.317121 0.412104 0.672258
Si Si2 0.316574 0.651283 0.558451
Si Si3 0.182798 0.750000 0.130408
Si Si4 0.184999 0.092880 0.061205
Si Si5 0.316555 0.750000 0.252421
O O1 0.500000 0.417217 0.667470
O O2 0.250000 0.500000 0.699682
O O3 0.248342 0.404070 0.609823
O O4 0.265662 0.333347 0.711851
O O5 0.500000 0.644355 0.557368
O O6 0.258937 0.750000 0.565998
O O7 0.250000 0.612998 0.500000
O O8 0.260941 0.835522 0.105237
O O9 0.214013 0.750000 0.196617
O O10 0.000000 0.750000 0.117501
O O11 0.000000 0.088821 0.058656
O O12 0.250000 0.000000 0.080970
O O13 0.250000 0.118358 0.000000
O O14 0.500000 0.750000 0.238027
#
# Coordination Sequence:
#
# PCOD8280268 Si02
#       5
#    16  16   8  16   8
#     4  11  23  41  64  89 119 156 200 249 305 364
#     4  10  20  35  59  89 121 155 194 242 300 364
#     4  12  25  41  64  93 126 168 213 258 308 366
#     4  11  22  40  65  96 133 169 209 256 309 367
#     4  10  24  45  64  85 120 162 205 258 309 360
#
# _framework density 20.365690000000001
#
# number of rings (size 3 to 8) (size 9 to 14) (size 15 to 20)
#    0.000    1.250    1.250    6.000    0.000    4.500 
#    0.000    5.000    0.000    0.000    0.000    0.000 
#    0.000    0.000    0.000    0.000    0.000    0.000 
#
# Total GULP energy -396995.309669 kJ/mol
# GULP energy per Si atom -12406.103427 kJ/mol
# Density = 2.031934 g / cm^3
# Si number density = 20.365690 Si / 1000 Ang^3
#
#
#
# Elastic Constant Matrix: (Units=GPa)
#
#
# Indices 1 2 3 4 5 6 
#
# 1 132.7275 54.0749 50.4618 0.0000 0.0000 0.0000
# 2 54.0749 148.8263 71.8071 0.0000 0.0000 0.0000
# 3 50.4618 71.8071 122.1103 0.0000 0.0000 0.0000
# 4 0.0000 0.0000 0.0000 1.9765 0.0000 0.0000
# 5 0.0000 0.0000 0.0000 0.0000 37.5150 0.0000
# 6 0.0000 0.0000 0.0000 0.0000 0.0000 33.3669
#
#
#
# Elastic Compliance Matrix: (Units=1/GPa)
#
#
# Indices 1 2 3 4 5 6 
#
# 1 0.009408 -0.002154 -0.002622 0.000000 0.000000 0.000000
# 2 -0.002154 0.009874 -0.004916 0.000000 0.000000 0.000000
# 3 -0.002622 -0.004916 0.012164 0.000000 0.000000 0.000000
# 4 0.000000 0.000000 0.000000 0.505956 0.000000 0.000000
# 5 0.000000 0.000000 0.000000 0.000000 0.026656 0.000000
# 6 0.000000 0.000000 0.000000 0.000000 0.000000 0.029970
#
#
# Mechanical properties :
#
#
# Convention : Reuss Voigt Hill
#
# Bulk Modulus (GPa) = 82.89868 84.03906 83.46887
# Shear Modulus (GPa) = 8.09807 29.72637 18.91222
#
# Velocity S-wave (km/s) = 1.99624 3.82466 3.05065
# Velocity P-wave (km/s) = 6.79019 7.80119 7.31318
#
# Compressibility (1/GPa) = 0.01206292
#
# Stress axis : x y z
#
# Youngs Moduli (GPa) = 106.28892 101.27807 82.21160
#
# Poissons Ratio (x) = 0.21811 0.21552
# Poissons Ratio (y) = 0.22890 0.40418
# Poissons Ratio (z) = 0.27864 0.49792
#
# Static dielectric constant tensor:
#      x y z
#    x 3.743000 0.000000 0.000000 
#    y 0.000000 3.794890 0.000000 
#    z 0.000000 0.000000 3.479320 
# 
# 
# High freq. dielectric constant tensor:
#      x y z
#    x 1.809310 0.000000 0.000000 
#    y 0.000000 1.808200 0.000000 
#    z 0.000000 0.000000 1.791490 
# 
# From -- ./inp_files/40432.got.cif
#   From: 2010.03.12/outbox.cif.g09.slc.cpg/sg67_21_cif.got.tgz:40432.got - 2010.04.10 22:41:39.
