data_PCOD8280939
_publ_section_title
;
Structure prediction by ZEFSAII (Michael W. Deem and Ramdas Pophale) SiO2 
 PCOD8280939
Probable space group: C M M A
;
_chemical_formula_sum "Si O2"
_cell_formula_units_Z 72
_cell_length_a 15.938327
_cell_length_b 8.985937
_cell_length_c 24.402383
_cell_angle_alpha 90.000000
_cell_angle_beta 90.000000
_cell_angle_gamma 90.000000
_cell_volume 3494.928871
_symmetry_space_group_name_H-M "C M M A"
_symmetry_group_IT_number 67
_symmetry_cell_setting 'orthorhombic'
loop_
_space_group_symop_operation_xyz
x,y,z
-x,1/2-y,z
x,-y,-z
-x,1/2+y,-z
-x,-y,-z
x,1/2+y,-z
-x,y,z
x,1/2-y,z
1/2+x,1/2+y,z
1/2-x,-y,z
1/2+x,1/2-y,-z
1/2-x,y,-z
1/2-x,1/2-y,-z
1/2+x,y,-z
1/2-x,1/2+y,z
1/2+x,-y,z
loop_
_atom_site_type_symbol
_atom_site_label
_atom_site_fract_x
_atom_site_fract_y
_atom_site_fract_z
Si Si1 0.597937 0.414979 0.552077
Si Si2 0.000000 0.926149 0.941324
Si Si3 0.404055 0.920786 0.775380
Si Si4 0.165321 0.925409 0.875920
Si Si5 0.338681 0.924269 0.657464
O O1 0.638942 0.500000 0.500000
O O2 0.500000 0.398108 0.541940
O O3 0.638603 0.250000 0.557072
O O4 0.612035 0.508405 0.606626
O O5 0.083989 0.979638 0.909943
O O6 0.000000 0.750000 0.947607
O O7 0.000000 0.000000 0.000000
O O8 0.500000 0.952878 0.790506
O O9 0.379516 0.750000 0.787061
O O10 0.391207 0.960068 0.711912
O O11 0.345970 0.024658 0.812912
O O12 0.176300 0.750000 0.878650
O O13 0.250000 0.000000 0.900204
O O14 0.327584 0.750000 0.647763
O O15 0.250000 0.000000 0.663955
#
# Coordination Sequence:
#
# PCOD8280939 Si02
#       5
#    16   8  16  16  16
#     4  10  21  38  60  84 110 145 190 240 298 361
#     4  10  24  44  66  94 130 170 215 262 313 368
#     4  10  21  38  62  91 122 160 203 250 308 368
#     4  11  23  41  64  95 130 168 213 262 314 372
#     4  11  23  38  56  83 118 153 195 245 297 360
#
# _framework density 20.601278000000001
#
# number of rings (size 3 to 8) (size 9 to 14) (size 15 to 20)
#    0.000    1.556    1.111    3.333    0.000    8.444 
#    0.000    4.444    0.000    0.000    0.000    0.000 
#    0.000    0.000    0.000    0.000    0.000    0.000 
#
# Total GULP energy -446513.378545 kJ/mol
# GULP energy per Si atom -12403.149404 kJ/mol
# Density = 2.055439 g / cm^3
# Si number density = 20.601278 Si / 1000 Ang^3
#
#
#
# Elastic Constant Matrix: (Units=GPa)
#
#
# Indices 1 2 3 4 5 6 
#
# 1 106.1452 44.3504 48.7800 0.0000 0.0000 0.0000
# 2 44.3504 110.1656 63.8694 0.0000 0.0000 0.0000
# 3 48.7800 63.8694 128.0529 0.0000 0.0000 0.0000
# 4 0.0000 0.0000 0.0000 37.2538 0.0000 0.0000
# 5 0.0000 0.0000 0.0000 0.0000 22.2131 0.0000
# 6 0.0000 0.0000 0.0000 0.0000 0.0000 34.2892
#
#
#
# Elastic Compliance Matrix: (Units=1/GPa)
#
#
# Indices 1 2 3 4 5 6 
#
# 1 0.012129 -0.003101 -0.003074 0.000000 0.000000 0.000000
# 2 -0.003101 0.013563 -0.005583 0.000000 0.000000 0.000000
# 3 -0.003074 -0.005583 0.011765 0.000000 0.000000 0.000000
# 4 0.000000 0.000000 0.000000 0.026843 0.000000 0.000000
# 5 0.000000 0.000000 0.000000 0.000000 0.045019 0.000000
# 6 0.000000 0.000000 0.000000 0.000000 0.000000 0.029164
#
#
# Mechanical properties :
#
#
# Convention : Reuss Voigt Hill
#
# Bulk Modulus (GPa) = 71.73267 73.15147 72.44207
# Shear Modulus (GPa) = 30.00380 31.24213 30.62297
#
# Velocity S-wave (km/s) = 3.82043 3.89847 3.85965
# Velocity P-wave (km/s) = 7.37265 7.47324 7.42312
#
# Compressibility (1/GPa) = 0.01394065
#
# Stress axis : x y z
#
# Youngs Moduli (GPa) = 82.44483 73.73179 84.99728
#
# Poissons Ratio (x) = 0.22864 0.26127
# Poissons Ratio (y) = 0.25566 0.47458
# Poissons Ratio (z) = 0.25342 0.41168
#
# Static dielectric constant tensor:
#      x y z
#    x 3.951310 0.000000 0.000000 
#    y 0.000000 3.894530 0.000000 
#    z 0.000000 0.000000 3.874340 
# 
# 
# High freq. dielectric constant tensor:
#      x y z
#    x 1.809610 0.000000 0.000000 
#    y 0.000000 1.812190 0.000000 
#    z 0.000000 0.000000 1.807530 
# 
# From -- ./inp_files/40487.got.cif
#   From: 2010.03.12/outbox.cif.g09.slc.cpg/sg67_21_cif.got.tgz:40487.got - 2010.04.10 22:41:39.
