data_PCOD8280803
_publ_section_title
;
Structure prediction by ZEFSAII (Michael W. Deem and Ramdas Pophale) SiO2 
 PCOD8280803
Probable space group: C M M A
;
_chemical_formula_sum "Si O2"
_cell_formula_units_Z 64
_cell_length_a 8.783373
_cell_length_b 18.826278
_cell_length_c 20.700165
_cell_angle_alpha 90.000000
_cell_angle_beta 90.000000
_cell_angle_gamma 90.000000
_cell_volume 3422.942477
_symmetry_space_group_name_H-M "C M M A"
_symmetry_group_IT_number 67
_symmetry_cell_setting 'orthorhombic'
loop_
_space_group_symop_operation_xyz
x,y,z
-x,1/2-y,z
x,-y,-z
-x,1/2+y,-z
-x,-y,-z
x,1/2+y,-z
-x,y,z
x,1/2-y,z
1/2+x,1/2+y,z
1/2-x,-y,z
1/2+x,1/2-y,-z
1/2-x,y,-z
1/2-x,1/2-y,-z
1/2+x,y,-z
1/2-x,1/2+y,z
1/2+x,-y,z
loop_
_atom_site_type_symbol
_atom_site_label
_atom_site_fract_x
_atom_site_fract_y
_atom_site_fract_z
Si Si1 0.677945 0.832568 0.323676
Si Si2 0.321791 0.922597 0.061802
Si Si3 0.180479 0.425810 0.569175
Si Si4 0.178012 0.923582 0.796796
O O1 0.500000 0.846838 0.336580
O O2 0.714510 0.750000 0.317988
O O3 0.775928 0.863492 0.382135
O O4 0.734230 0.868542 0.257186
O O5 0.500000 0.927258 0.050588
O O6 0.281978 0.889871 0.132394
O O7 0.250000 0.000000 0.062260
O O8 0.250000 0.879958 0.000000
O O9 0.250000 0.500000 0.594738
O O10 0.250000 0.406093 0.500000
O O11 0.000000 0.433084 0.563307
O O12 0.000000 0.936206 0.791763
O O13 0.250000 0.000000 0.784378
#
# Coordination Sequence:
#
# PCOD8280803 Si02
#       4
#    16  16  16  16
#     4  10  21  37  55  76 105 140 176 214 257 305
#     4   9  15  24  40  65  95 124 159 203 253 303
#     4  11  22  38  60  84 109 136 170 210 254 304
#     4   9  18  31  49  73  99 131 169 210 256 306
#
# _framework density 18.697362999999999
#
# number of rings (size 3 to 8) (size 9 to 14) (size 15 to 20)
#    0.000    2.250    0.000    5.250    0.000    5.000 
#    0.000    0.000    0.000    0.750    0.000    0.000 
#    0.000    0.000    0.000    0.000    0.000    6.750 
#
# Total GULP energy -396616.731876 kJ/mol
# GULP energy per Si atom -12394.272871 kJ/mol
# Density = 1.865481 g / cm^3
# Si number density = 18.697363 Si / 1000 Ang^3
#
#
#
# Elastic Constant Matrix: (Units=GPa)
#
#
# Indices 1 2 3 4 5 6 
#
# 1 96.8662 40.6889 62.1156 0.0000 0.0000 0.0000
# 2 40.6889 91.2999 76.2786 0.0000 0.0000 0.0000
# 3 62.1156 76.2786 161.2784 0.0000 0.0000 0.0000
# 4 0.0000 0.0000 0.0000 1.7865 0.0000 0.0000
# 5 0.0000 0.0000 0.0000 0.0000 42.5967 0.0000
# 6 0.0000 0.0000 0.0000 0.0000 0.0000 19.6814
#
#
#
# Elastic Compliance Matrix: (Units=1/GPa)
#
#
# Indices 1 2 3 4 5 6 
#
# 1 0.014159 -0.002900 -0.004082 0.000000 0.000000 0.000000
# 2 -0.002900 0.018702 -0.007729 0.000000 0.000000 0.000000
# 3 -0.004082 -0.007729 0.011428 0.000000 0.000000 0.000000
# 4 0.000000 0.000000 0.000000 0.559763 0.000000 0.000000
# 5 0.000000 0.000000 0.000000 0.000000 0.023476 0.000000
# 6 0.000000 0.000000 0.000000 0.000000 0.000000 0.050809
#
#
# Mechanical properties :
#
#
# Convention : Reuss Voigt Hill
#
# Bulk Modulus (GPa) = 67.25548 78.62340 72.93944
# Shear Modulus (GPa) = 7.01544 24.17034 15.59289
#
# Velocity S-wave (km/s) = 1.93913 3.59933 2.89097
# Velocity P-wave (km/s) = 6.40799 7.70814 7.08794
#
# Compressibility (1/GPa) = 0.01486868
#
# Stress axis : x y z
#
# Youngs Moduli (GPa) = 70.62610 53.46912 87.50555
#
# Poissons Ratio (x) = 0.15506 0.35717
# Poissons Ratio (y) = 0.20482 0.67630
# Poissons Ratio (z) = 0.28827 0.41324
#
# Static dielectric constant tensor:
#      x y z
#    x 3.497670 0.000000 0.000000 
#    y 0.000000 3.071780 0.000000 
#    z 0.000000 0.000000 4.567630 
# 
# 
# High freq. dielectric constant tensor:
#      x y z
#    x 1.729220 0.000000 0.000000 
#    y 0.000000 1.679580 0.000000 
#    z 0.000000 0.000000 1.754850 
# 
# From -- ./inp_files/31741.got.cif
#   From: 2010.03.12/outbox.cif.g09.slc.cpg/sg67_16_cif.got.tgz:31741.got - 2010.04.10 22:41:39.
