data_PCOD8280505
_publ_section_title
;
Structure prediction by ZEFSAII (Michael W. Deem and Ramdas Pophale) SiO2 
 PCOD8280505
Probable space group: C M M A
;
_chemical_formula_sum "Si O2"
_cell_formula_units_Z 80
_cell_length_a 14.406428
_cell_length_b 23.266288
_cell_length_c 11.082506
_cell_angle_alpha 90.000000
_cell_angle_beta 90.000000
_cell_angle_gamma 90.000000
_cell_volume 3714.679831
_symmetry_space_group_name_H-M "C M M A"
_symmetry_group_IT_number 67
_symmetry_cell_setting 'orthorhombic'
loop_
_space_group_symop_operation_xyz
x,y,z
-x,1/2-y,z
x,-y,-z
-x,1/2+y,-z
-x,-y,-z
x,1/2+y,-z
-x,y,z
x,1/2-y,z
1/2+x,1/2+y,z
1/2-x,-y,z
1/2+x,1/2-y,-z
1/2-x,y,-z
1/2-x,1/2-y,-z
1/2+x,y,-z
1/2-x,1/2+y,z
1/2+x,-y,z
loop_
_atom_site_type_symbol
_atom_site_label
_atom_site_fract_x
_atom_site_fract_y
_atom_site_fract_z
Si Si1 0.668579 0.107348 0.797379
Si Si2 0.815526 0.380865 0.612940
Si Si3 0.389957 0.016118 0.282246
Si Si4 0.000000 0.682746 0.722365
Si Si5 0.000000 0.183548 0.559740
Si Si6 0.898010 0.435067 0.963664
O O1 0.760217 0.133954 0.736902
O O2 0.651479 0.047346 0.725672
O O3 0.588916 0.153569 0.779919
O O4 0.673051 0.095314 0.942046
O O5 0.750000 0.366009 0.500000
O O6 0.848672 0.448202 0.604763
O O7 0.907333 0.342425 0.617488
O O8 0.500000 0.010240 0.287544
O O9 0.357728 0.059239 0.171776
O O10 0.000000 0.750000 0.753161
O O11 0.000000 0.670524 0.581063
O O12 0.000000 0.250000 0.590683
O O13 0.000000 0.404437 0.966963
O O14 0.915230 0.500000 0.000000
#
# Coordination Sequence:
#
# PCOD8280505 Si02
#       6
#    16  16  16   8   8  16
#     4  11  20  37  62  96 131 165 208 261 319 381
#     4  12  25  40  62  95 124 162 209 264 327 374
#     4  10  20  37  62  92 135 173 201 249 322 397
#     4  11  22  39  63  91 123 163 218 281 320 367
#     4  11  26  49  66  83 120 171 227 270 315 380
#     4   8  15  31  59  90 124 169 206 238 297 377
#
# _framework density 21.536175
#
# number of rings (size 3 to 8) (size 9 to 14) (size 15 to 20)
#    0.000    1.600    5.000    1.800    0.000    3.600 
#    0.000    5.000    0.000    2.400    0.000    2.800 
#    0.000    0.000    0.000    0.000    0.000    0.000 
#
# Total GULP energy -495626.463330 kJ/mol
# GULP energy per Si atom -12390.661583 kJ/mol
# Density = 2.148716 g / cm^3
# Si number density = 21.536175 Si / 1000 Ang^3
#
#
#
# Elastic Constant Matrix: (Units=GPa)
#
#
# Indices 1 2 3 4 5 6 
#
# 1 124.3504 41.3930 54.6102 0.0000 0.0000 0.0000
# 2 41.3930 88.8374 27.9408 0.0000 0.0000 0.0000
# 3 54.6102 27.9408 50.2467 0.0000 0.0000 0.0000
# 4 0.0000 0.0000 0.0000 23.8916 0.0000 0.0000
# 5 0.0000 0.0000 0.0000 0.0000 5.1130 0.0000
# 6 0.0000 0.0000 0.0000 0.0000 0.0000 0.9265
#
#
#
# Elastic Compliance Matrix: (Units=1/GPa)
#
#
# Indices 1 2 3 4 5 6 
#
# 1 0.015788 -0.002375 -0.015838 0.000000 0.000000 0.000000
# 2 -0.002375 0.014000 -0.005204 0.000000 0.000000 0.000000
# 3 -0.015838 -0.005204 0.040009 0.000000 0.000000 0.000000
# 4 0.000000 0.000000 0.000000 0.041856 0.000000 0.000000
# 5 0.000000 0.000000 0.000000 0.000000 0.195580 0.000000
# 6 0.000000 0.000000 0.000000 0.000000 0.000000 1.079345
#
#
# Mechanical properties :
#
#
# Convention : Reuss Voigt Hill
#
# Bulk Modulus (GPa) = 43.54848 56.81362 50.18105
# Shear Modulus (GPa) = 3.46965 15.28558 9.37762
#
# Velocity S-wave (km/s) = 1.27066 2.66703 2.08897
# Velocity P-wave (km/s) = 4.73474 5.99349 5.40091
#
# Compressibility (1/GPa) = 0.02296291
#
# Stress axis : x y z
#
# Youngs Moduli (GPa) = 63.33936 71.42997 24.99412
#
# Poissons Ratio (x) = 0.16963 0.39587
# Poissons Ratio (y) = 0.15042 0.13007
# Poissons Ratio (z) = 1.00320 0.37171
#
# Static dielectric constant tensor:
#      x y z
#    x 4.078430 0.000000 0.000000 
#    y 0.000000 3.548420 0.000000 
#    z 0.000000 0.000000 5.229030 
# 
# 
# High freq. dielectric constant tensor:
#      x y z
#    x 1.871830 0.000000 0.000000 
#    y 0.000000 1.797290 0.000000 
#    z 0.000000 0.000000 1.841290 
# 
# From -- ./inp_files/18269.got.cif
#   From: 2010.03.12/outbox.cif.g09.slc.cpg/sg67_10_cif.got.tgz:18269.got - 2010.04.10 22:41:39.
