data_PCOD8280931
_publ_section_title
;
Structure prediction by ZEFSAII (Michael W. Deem and Ramdas Pophale) SiO2 
 PCOD8280931
Probable space group: C M M A
;
_chemical_formula_sum "Si O2"
_cell_formula_units_Z 96
_cell_length_a 14.903546
_cell_length_b 15.737763
_cell_length_c 20.758809
_cell_angle_alpha 90.000000
_cell_angle_beta 90.000000
_cell_angle_gamma 90.000000
_cell_volume 4868.946990
_symmetry_space_group_name_H-M "C M M A"
_symmetry_group_IT_number 67
_symmetry_cell_setting 'orthorhombic'
loop_
_space_group_symop_operation_xyz
x,y,z
-x,1/2-y,z
x,-y,-z
-x,1/2+y,-z
-x,-y,-z
x,1/2+y,-z
-x,y,z
x,1/2-y,z
1/2+x,1/2+y,z
1/2-x,-y,z
1/2+x,1/2-y,-z
1/2-x,y,-z
1/2-x,1/2-y,-z
1/2+x,y,-z
1/2-x,1/2+y,z
1/2+x,-y,z
loop_
_atom_site_type_symbol
_atom_site_label
_atom_site_fract_x
_atom_site_fract_y
_atom_site_fract_z
Si Si1 0.750000 0.899138 0.742406
Si Si2 0.750000 0.900470 0.402363
Si Si3 0.899420 0.154950 0.837894
Si Si4 0.600953 0.651224 0.500000
Si Si5 0.600580 0.654950 0.162106
Si Si6 0.644361 0.500000 0.927077
O O1 0.750000 0.863257 0.669770
O O2 0.662151 0.864688 0.777179
O O3 0.837849 0.864688 0.777179
O O4 0.750000 0.000000 0.745717
O O5 0.658382 0.872913 0.437199
O O6 0.841618 0.872913 0.437199
O O7 0.750000 0.000000 0.399773
O O8 0.877592 0.250000 0.864867
O O9 0.000000 0.150964 0.811097
O O10 0.889685 0.086140 0.894293
O O11 0.500000 0.609070 0.500000
O O12 0.586605 0.750000 0.500000
O O13 0.500000 0.650964 0.188903
O O14 0.622408 0.750000 0.135133
O O15 0.610315 0.586140 0.105707
O O16 0.750000 0.500000 0.922858
O O17 0.608757 0.500000 0.000000
#
# Coordination Sequence:
#
# PCOD8280931 Si02
#       6
#    16  16  16  16  16  16
#     4  11  22  40  61  86 121 158 199 248 303 356
#     4  10  22  37  60  88 116 156 198 243 296 347
#     4  11  23  39  62  89 119 159 202 247 302 359
#     4  10  21  38  59  85 120 158 197 243 294 349
#     4  11  23  39  62  89 119 159 202 247 302 359
#     4  11  23  41  65  90 121 159 198 248 303 357
#
# _framework density 19.716788999999999
#
# number of rings (size 3 to 8) (size 9 to 14) (size 15 to 20)
#    0.000    1.333    3.333    3.000    0.000    7.333 
#    0.000   10.000    0.000    0.000    0.000    0.000 
#    0.000    0.000    0.000    0.000    0.000    0.000 
#
# Total GULP energy -595074.990036 kJ/mol
# GULP energy per Si atom -12397.395626 kJ/mol
# Density = 1.967191 g / cm^3
# Si number density = 19.716789 Si / 1000 Ang^3
#
#
#
# Elastic Constant Matrix: (Units=GPa)
#
#
# Indices 1 2 3 4 5 6 
#
# 1 164.0505 45.9397 81.3430 0.0000 0.0000 0.0000
# 2 45.9397 136.9923 71.4854 0.0000 0.0000 0.0000
# 3 81.3430 71.4854 172.1221 0.0000 0.0000 0.0000
# 4 0.0000 0.0000 0.0000 5.0229 0.0000 0.0000
# 5 0.0000 0.0000 0.0000 0.0000 311.1694 0.0000
# 6 0.0000 0.0000 0.0000 0.0000 0.0000 24.0975
#
#
#
# Elastic Compliance Matrix: (Units=1/GPa)
#
#
# Indices 1 2 3 4 5 6 
#
# 1 0.008049 -0.000912 -0.003425 0.000000 0.000000 0.000000
# 2 -0.000912 0.009423 -0.003482 0.000000 0.000000 0.000000
# 3 -0.003425 -0.003482 0.008875 0.000000 0.000000 0.000000
# 4 0.000000 0.000000 0.000000 0.199090 0.000000 0.000000
# 5 0.000000 0.000000 0.000000 0.000000 0.003214 0.000000
# 6 0.000000 0.000000 0.000000 0.000000 0.000000 0.041498
#
#
# Mechanical properties :
#
#
# Convention : Reuss Voigt Hill
#
# Bulk Modulus (GPa) = 93.39116 96.74457 95.06787
# Shear Modulus (GPa) = 17.27967 86.35108 51.81538
#
# Velocity S-wave (km/s) = 2.96361 6.62501 5.13195
# Velocity P-wave (km/s) = 7.69284 10.37760 9.13440
#
# Compressibility (1/GPa) = 0.01070765
#
# Stress axis : x y z
#
# Youngs Moduli (GPa) = 124.23146 106.12660 112.67687
#
# Poissons Ratio (x) = 0.09678 0.38596
# Poissons Ratio (y) = 0.11329 0.39239
# Poissons Ratio (z) = 0.42554 0.36958
#
# Static dielectric constant tensor:
#      x y z
#    x 4.065680 0.000000 0.000000 
#    y 0.000000 3.567550 0.000000 
#    z 0.000000 0.000000 0.933780 
# 
# 
# High freq. dielectric constant tensor:
#      x y z
#    x 1.786130 0.000000 0.000000 
#    y 0.000000 1.787110 0.000000 
#    z 0.000000 0.000000 1.757030 
# 
# From -- ./inp_files/38380.got.cif
#   From: 2010.03.12/outbox.cif.g09.slc.cpg/sg67_20_cif.got.tgz:38380.got - 2010.04.10 22:41:39.
