data_PCOD8280130
_publ_section_title
;
Structure prediction by ZEFSAII (Michael W. Deem and Ramdas Pophale) SiO2 
 PCOD8280130
Probable space group: C M M A
;
_chemical_formula_sum "Si O2"
_cell_formula_units_Z 96
_cell_length_a 18.596335
_cell_length_b 8.711522
_cell_length_c 30.719708
_cell_angle_alpha 90.000000
_cell_angle_beta 90.000000
_cell_angle_gamma 90.000000
_cell_volume 4976.665854
_symmetry_space_group_name_H-M "C M M A"
_symmetry_group_IT_number 67
_symmetry_cell_setting 'orthorhombic'
loop_
_space_group_symop_operation_xyz
x,y,z
-x,1/2-y,z
x,-y,-z
-x,1/2+y,-z
-x,-y,-z
x,1/2+y,-z
-x,y,z
x,1/2-y,z
1/2+x,1/2+y,z
1/2-x,-y,z
1/2+x,1/2-y,-z
1/2-x,y,-z
1/2-x,1/2-y,-z
1/2+x,y,-z
1/2-x,1/2+y,z
1/2+x,-y,z
loop_
_atom_site_type_symbol
_atom_site_label
_atom_site_fract_x
_atom_site_fract_y
_atom_site_fract_z
Si Si1 0.828022 0.569508 0.123455
Si Si2 0.172617 0.069306 0.283868
Si Si3 0.581882 0.068998 0.953730
Si Si4 0.418509 0.068993 0.455961
Si Si5 0.583629 0.427771 0.208781
Si Si6 0.327404 0.932523 0.625549
O O1 0.821246 0.750000 0.116995
O O2 0.750000 0.500000 0.131645
O O3 0.863552 0.498434 0.080994
O O4 0.877435 0.526087 0.164296
O O5 0.181580 0.250000 0.289124
O O6 0.250000 0.000000 0.271159
O O7 0.114896 0.031664 0.247082
O O8 0.143179 0.998516 0.328935
O O9 0.500000 0.021997 0.941748
O O10 0.590932 0.250000 0.955759
O O11 0.603912 0.000000 0.000000
O O12 0.500000 0.010520 0.451510
O O13 0.413407 0.250000 0.459153
O O14 0.377751 0.008717 0.413374
O O15 0.383645 0.000000 0.500000
O O16 0.500000 0.465710 0.203161
O O17 0.596674 0.250000 0.220319
O O18 0.324407 0.750000 0.628663
O O19 0.250000 0.000000 0.615381
#
# Coordination Sequence:
#
# PCOD8280130 Si02
#       6
#    16  16  16  16  16  16
#     4  11  23  39  60  86 116 151 191 233 280 333
#     4  11  22  37  58  83 112 146 185 228 276 329
#     4  10  21  38  61  88 118 152 190 234 283 334
#     4   9  19  35  54  76 103 138 178 220 268 321
#     4  10  22  40  61  85 114 148 185 228 279 333
#     4  10  20  35  55  79 108 142 180 222 271 326
#
# _framework density 19.290023999999999
#
# number of rings (size 3 to 8) (size 9 to 14) (size 15 to 20)
#    0.000    1.833    0.000    5.000    0.000    7.333 
#    0.000    5.000    0.000    0.000    0.000    0.000 
#    0.000    0.000    0.000    0.000    0.000    0.000 
#
# Total GULP energy -595387.749438 kJ/mol
# GULP energy per Si atom -12403.911447 kJ/mol
# Density = 1.924612 g / cm^3
# Si number density = 19.290024 Si / 1000 Ang^3
#
#
#
# Elastic Constant Matrix: (Units=GPa)
#
#
# Indices 1 2 3 4 5 6 
#
# 1 107.0629 43.6785 81.8067 0.0000 0.0000 0.0000
# 2 43.6785 90.1054 58.2461 0.0000 0.0000 0.0000
# 3 81.8067 58.2461 155.7953 0.0000 0.0000 0.0000
# 4 0.0000 0.0000 0.0000 34.1802 0.0000 0.0000
# 5 0.0000 0.0000 0.0000 0.0000 44.4305 0.0000
# 6 0.0000 0.0000 0.0000 0.0000 0.0000 30.8874
#
#
#
# Elastic Compliance Matrix: (Units=1/GPa)
#
#
# Indices 1 2 3 4 5 6 
#
# 1 0.016234 -0.003111 -0.007361 0.000000 0.000000 0.000000
# 2 -0.003111 0.015231 -0.004061 0.000000 0.000000 0.000000
# 3 -0.007361 -0.004061 0.011802 0.000000 0.000000 0.000000
# 4 0.000000 0.000000 0.000000 0.029257 0.000000 0.000000
# 5 0.000000 0.000000 0.000000 0.000000 0.022507 0.000000
# 6 0.000000 0.000000 0.000000 0.000000 0.000000 0.032376
#
#
# Mechanical properties :
#
#
# Convention : Reuss Voigt Hill
#
# Bulk Modulus (GPa) = 70.41594 80.04737 75.23165
# Shear Modulus (GPa) = 31.01592 33.18177 32.09885
#
# Velocity S-wave (km/s) = 4.01418 4.15197 4.08366
# Velocity P-wave (km/s) = 7.62023 8.03567 7.83071
#
# Compressibility (1/GPa) = 0.01420133
#
# Stress axis : x y z
#
# Youngs Moduli (GPa) = 61.59775 65.65487 84.72926
#
# Poissons Ratio (x) = 0.20425 0.62373
# Poissons Ratio (y) = 0.19163 0.34407
# Poissons Ratio (z) = 0.45345 0.26661
#
# Static dielectric constant tensor:
#      x y z
#    x 3.533770 0.000000 0.000000 
#    y 0.000000 3.544010 0.000000 
#    z 0.000000 0.000000 3.731520 
# 
# 
# High freq. dielectric constant tensor:
#      x y z
#    x 1.748260 0.000000 0.000000 
#    y 0.000000 1.757410 0.000000 
#    z 0.000000 0.000000 1.765960 
# 
# From -- ./inp_files/44606.got.cif
#   From: 2010.03.12/outbox.cif.g09.slc.cpg/sg67_23_cif.got.tgz:44606.got - 2010.04.10 22:41:39.
