data_PCOD8280836
_publ_section_title
;
Structure prediction by ZEFSAII (Michael W. Deem and Ramdas Pophale) SiO2 
 PCOD8280836
Probable space group: C M M A
;
_chemical_formula_sum "Si O2"
_cell_formula_units_Z 96
_cell_length_a 18.491197
_cell_length_b 8.862415
_cell_length_c 30.286041
_cell_angle_alpha 90.000000
_cell_angle_beta 90.000000
_cell_angle_gamma 90.000000
_cell_volume 4963.175294
_symmetry_space_group_name_H-M "C M M A"
_symmetry_group_IT_number 67
_symmetry_cell_setting 'orthorhombic'
loop_
_space_group_symop_operation_xyz
x,y,z
-x,1/2-y,z
x,-y,-z
-x,1/2+y,-z
-x,-y,-z
x,1/2+y,-z
-x,y,z
x,1/2-y,z
1/2+x,1/2+y,z
1/2-x,-y,z
1/2+x,1/2-y,-z
1/2-x,y,-z
1/2-x,1/2-y,-z
1/2+x,y,-z
1/2-x,1/2+y,z
1/2+x,-y,z
loop_
_atom_site_type_symbol
_atom_site_label
_atom_site_fract_x
_atom_site_fract_y
_atom_site_fract_z
Si Si1 0.582151 0.072176 0.454938
Si Si2 0.328584 0.070836 0.370422
Si Si3 0.824533 0.073994 0.883917
Si Si4 0.915240 0.574086 0.708793
Si Si5 0.174369 0.927521 0.218029
Si Si6 0.085655 0.420276 0.043951
O O1 0.500000 0.017900 0.445783
O O2 0.585677 0.250000 0.460072
O O3 0.632177 0.015789 0.415046
O O4 0.612149 0.000000 0.500000
O O5 0.322617 0.250000 0.368050
O O6 0.250000 0.000000 0.368697
O O7 0.375076 0.014321 0.329635
O O8 0.818726 0.250000 0.892352
O O9 0.840827 0.036395 0.833035
O O10 0.750000 0.000000 0.899560
O O11 0.889227 0.007208 0.912540
O O12 0.895576 0.750000 0.706620
O O13 0.890255 0.505637 0.755399
O O14 0.000000 0.545813 0.703719
O O15 0.176958 0.750000 0.227768
O O16 0.250000 0.000000 0.233486
O O17 0.115147 0.250000 0.044775
O O18 0.000000 0.424566 0.043931
O O19 0.116535 0.500000 0.000000
#
# Coordination Sequence:
#
# PCOD8280836 Si02
#       6
#    16  16  16  16  16  16
#     4   9  19  36  58  83 111 146 186 229 278 330
#     4  11  23  39  59  83 114 150 189 232 279 332
#     4  10  21  37  58  84 113 146 185 228 275 329
#     4  11  24  40  59  84 113 146 186 231 278 330
#     4  10  21  38  60  84 113 148 184 226 276 330
#     4  10  21  37  57  81 111 147 186 230 279 330
#
# _framework density 19.342455999999999
#
# number of rings (size 3 to 8) (size 9 to 14) (size 15 to 20)
#    0.000    1.833    0.000    3.500    0.000    7.667 
#    0.000    8.333    0.000    0.000    0.000    0.000 
#    0.000    0.000    0.000    0.000    0.000    0.000 
#
# Total GULP energy -595445.450724 kJ/mol
# GULP energy per Si atom -12405.113557 kJ/mol
# Density = 1.929843 g / cm^3
# Si number density = 19.342456 Si / 1000 Ang^3
#
#
#
# Elastic Constant Matrix: (Units=GPa)
#
#
# Indices 1 2 3 4 5 6 
#
# 1 84.2682 45.9253 57.6877 0.0000 0.0000 0.0000
# 2 45.9253 99.8943 57.2589 0.0000 0.0000 0.0000
# 3 57.6877 57.2589 121.9785 0.0000 0.0000 0.0000
# 4 0.0000 0.0000 0.0000 37.8925 0.0000 0.0000
# 5 0.0000 0.0000 0.0000 0.0000 44.7569 0.0000
# 6 0.0000 0.0000 0.0000 0.0000 0.0000 28.2624
#
#
#
# Elastic Compliance Matrix: (Units=1/GPa)
#
#
# Indices 1 2 3 4 5 6 
#
# 1 0.019186 -0.004952 -0.006749 0.000000 0.000000 0.000000
# 2 -0.004952 0.014974 -0.004687 0.000000 0.000000 0.000000
# 3 -0.006749 -0.004687 0.013590 0.000000 0.000000 0.000000
# 4 0.000000 0.000000 0.000000 0.026390 0.000000 0.000000
# 5 0.000000 0.000000 0.000000 0.000000 0.022343 0.000000
# 6 0.000000 0.000000 0.000000 0.000000 0.000000 0.035383
#
#
# Mechanical properties :
#
#
# Convention : Reuss Voigt Hill
#
# Bulk Modulus (GPa) = 66.78366 69.76496 68.27431
# Shear Modulus (GPa) = 29.47537 31.86699 30.67118
#
# Velocity S-wave (km/s) = 3.90791 4.06336 3.98640
# Velocity P-wave (km/s) = 7.41379 7.62635 7.52082
#
# Compressibility (1/GPa) = 0.01497372
#
# Stress axis : x y z
#
# Youngs Moduli (GPa) = 52.12170 66.78361 73.58241
#
# Poissons Ratio (x) = 0.33071 0.49662
# Poissons Ratio (y) = 0.25810 0.34488
# Poissons Ratio (z) = 0.35177 0.31302
#
# Static dielectric constant tensor:
#      x y z
#    x 3.496910 0.000000 0.000000 
#    y 0.000000 3.703430 0.000000 
#    z 0.000000 0.000000 3.670140 
# 
# 
# High freq. dielectric constant tensor:
#      x y z
#    x 1.749560 0.000000 0.000000 
#    y 0.000000 1.766620 0.000000 
#    z 0.000000 0.000000 1.765030 
# 
# From -- ./inp_files/44595.got.cif
#   From: 2010.03.12/outbox.cif.g09.slc.cpg/sg67_23_cif.got.tgz:44595.got - 2010.04.10 22:41:39.
