data_PCOD8280916
_publ_section_title
;
Structure prediction by ZEFSAII (Michael W. Deem and Ramdas Pophale) SiO2 
 PCOD8280916
Probable space group: C M M A
;
_chemical_formula_sum "Si O2"
_cell_formula_units_Z 96
_cell_length_a 14.643645
_cell_length_b 15.558305
_cell_length_c 20.825767
_cell_angle_alpha 90.000000
_cell_angle_beta 90.000000
_cell_angle_gamma 90.000000
_cell_volume 4744.740644
_symmetry_space_group_name_H-M "C M M A"
_symmetry_group_IT_number 67
_symmetry_cell_setting 'orthorhombic'
loop_
_space_group_symop_operation_xyz
x,y,z
-x,1/2-y,z
x,-y,-z
-x,1/2+y,-z
-x,-y,-z
x,1/2+y,-z
-x,y,z
x,1/2-y,z
1/2+x,1/2+y,z
1/2-x,-y,z
1/2+x,1/2-y,-z
1/2-x,y,-z
1/2-x,1/2-y,-z
1/2+x,y,-z
1/2-x,1/2+y,z
1/2+x,-y,z
loop_
_atom_site_type_symbol
_atom_site_label
_atom_site_fract_x
_atom_site_fract_y
_atom_site_fract_z
Si Si1 0.750000 0.601690 0.398770
Si Si2 0.891833 0.750000 0.928596
Si Si3 0.250000 0.847898 0.745310
Si Si4 0.102650 0.398152 0.500000
Si Si5 0.395354 0.403331 0.839334
Si Si6 0.895354 0.903328 0.160664
Si Si7 0.608167 0.750000 0.928599
O O1 0.750000 0.500000 0.389090
O O2 0.750002 0.648009 0.330967
O O3 0.840898 0.631544 0.437125
O O4 0.659101 0.631544 0.437124
O O5 0.858032 0.835958 0.892123
O O6 0.000000 0.750000 0.933128
O O7 0.849102 0.750000 0.999998
O O8 0.249995 0.750000 0.767839
O O9 0.160322 0.894057 0.773407
O O10 0.339680 0.894051 0.773409
O O11 0.096508 0.500000 0.500000
O O12 0.000000 0.358195 0.500000
O O13 0.500000 0.383611 0.822050
O O14 0.383461 0.500001 0.866775
O O15 0.858032 0.835957 0.107874
O O16 0.000000 0.883608 0.177947
O O17 0.500000 0.750000 0.933133
#
# Coordination Sequence:
#
# PCOD8280916 Si02
#       7
#    16   8  16  16  16  16   8
#     4   9  18  32  52  80 107 138 188 233 274 337
#     4   9  18  35  59  87 118 149 187 237 292 349
#     4  12  23  37  57  80 116 156 191 239 291 341
#     4   8  15  31  54  78 108 142 178 229 282 329
#     4  10  21  38  59  83 114 152 195 241 289 344
#     4  10  21  38  59  83 114 152 195 241 289 344
#     4   9  18  35  59  87 118 149 187 237 292 349
#
# _framework density 20.232928000000001
#
# number of rings (size 3 to 8) (size 9 to 14) (size 15 to 20)
#    0.000    2.333    1.667    2.500    0.000    2.000 
#    0.000   10.000    0.000    3.000    0.000    0.000 
#    0.000    0.000    0.000    0.000    0.000    0.000 
#
# Total GULP energy -595100.560149 kJ/mol
# GULP energy per Si atom -12397.928336 kJ/mol
# Density = 2.018688 g / cm^3
# Si number density = 20.232928 Si / 1000 Ang^3
#
#
#
# Elastic Constant Matrix: (Units=GPa)
#
#
# Indices 1 2 3 4 5 6 
#
# 1 131.3048 31.1956 60.4441 0.0000 0.0000 0.0000
# 2 31.1956 114.7543 46.9728 0.0000 0.0000 0.0000
# 3 60.4441 46.9728 156.0556 0.0000 0.0000 0.0000
# 4 0.0000 0.0000 0.0000 29.3125 0.0000 0.0000
# 5 0.0000 0.0000 0.0000 0.0000 -312.1508 0.0000
# 6 0.0000 0.0000 0.0000 0.0000 0.0000 14.5599
#
#
#
# Elastic Compliance Matrix: (Units=1/GPa)
#
#
# Indices 1 2 3 4 5 6 
#
# 1 0.009415 -0.001217 -0.003280 0.000000 0.000000 0.000000
# 2 -0.001217 0.010096 -0.002568 0.000000 0.000000 0.000000
# 3 -0.003280 -0.002568 0.008451 0.000000 0.000000 0.000000
# 4 0.000000 0.000000 0.000000 0.034115 0.000000 0.000000
# 5 0.000000 0.000000 0.000000 0.000000 -0.003204 0.000000
# 6 0.000000 0.000000 0.000000 0.000000 0.000000 0.068682
#
#
# Mechanical properties :
#
#
# Convention : Reuss Voigt Hill
#
# Bulk Modulus (GPa) = 72.29111 75.48218 73.88664
# Shear Modulus (GPa) = 34.17714 -36.08888 -0.95587
#
# Velocity S-wave (km/s) = 4.11443 -4.22793 -0.68808
# Velocity P-wave (km/s) = 7.64057 3.68153 5.99717
#
# Compressibility (1/GPa) = 0.01383296
#
# Stress axis : x y z
#
# Youngs Moduli (GPa) = 106.21320 99.04868 118.32295
#
# Poissons Ratio (x) = 0.12051 0.38815
# Poissons Ratio (y) = 0.12922 0.30382
# Poissons Ratio (z) = 0.34843 0.25433
#
# Static dielectric constant tensor:
#      x y z
#    x 3.851510 0.000000 0.000000 
#    y 0.000000 3.635230 0.000000 
#    z 0.000000 0.000000 3.597370 
# 
# 
# High freq. dielectric constant tensor:
#      x y z
#    x 1.792800 0.000000 0.000000 
#    y 0.000000 1.788780 0.000000 
#    z 0.000000 0.000000 1.775090 
# 
# From -- ./inp_files/38550.got.cif
#   From: 2010.03.12/outbox.cif.g09.slc.cpg/sg67_20_cif.got.tgz:38550.got - 2010.04.10 22:41:39.
