data_PCOD8280996
_publ_section_title
;
Structure prediction by ZEFSAII (Michael W. Deem and Ramdas Pophale) SiO2 
 PCOD8280996
Probable space group: C M M A
;
_chemical_formula_sum "Si O2"
_cell_formula_units_Z 96
_cell_length_a 14.639317
_cell_length_b 17.297389
_cell_length_c 18.929363
_cell_angle_alpha 90.000000
_cell_angle_beta 90.000000
_cell_angle_gamma 90.000000
_cell_volume 4793.330416
_symmetry_space_group_name_H-M "C M M A"
_symmetry_group_IT_number 67
_symmetry_cell_setting 'orthorhombic'
loop_
_space_group_symop_operation_xyz
x,y,z
-x,1/2-y,z
x,-y,-z
-x,1/2+y,-z
-x,-y,-z
x,1/2+y,-z
-x,y,z
x,1/2-y,z
1/2+x,1/2+y,z
1/2-x,-y,z
1/2+x,1/2-y,-z
1/2-x,y,-z
1/2-x,1/2-y,-z
1/2+x,y,-z
1/2-x,1/2+y,z
1/2+x,-y,z
loop_
_atom_site_type_symbol
_atom_site_label
_atom_site_fract_x
_atom_site_fract_y
_atom_site_fract_z
Si Si1 0.602751 0.433080 0.855718
Si Si2 0.260064 0.837873 0.235865
Si Si3 0.601311 0.108105 0.142104
Si Si4 0.393968 0.591787 0.498291
Si Si5 0.751965 0.841390 0.397143
Si Si6 0.644594 0.838324 0.008536
O O1 0.500000 0.432296 0.826617
O O2 0.663350 0.390903 0.798055
O O3 0.638324 0.520624 0.864215
O O4 0.603863 0.392699 0.931600
O O5 0.295076 0.750000 0.233624
O O6 0.166275 0.842899 0.192641
O O7 0.243347 0.865427 0.315543
O O8 0.500000 0.110716 0.175039
O O9 0.595295 0.145854 0.065023
O O10 0.387350 0.500000 0.500000
O O11 0.500000 0.618928 0.496571
O O12 0.340688 0.622878 0.429517
O O13 0.343631 0.625304 0.567295
O O14 0.749803 0.750000 0.408722
O O15 0.628746 0.750000 0.031965
O O16 0.750000 0.857934 0.000000
#
# Coordination Sequence:
#
# PCOD8280996 Si02
#       6
#    16  16  16  16  16  16
#     4  11  24  40  60  86 115 152 197 244 296 351
#     4  11  24  41  60  86 119 156 196 239 290 345
#     4  11  24  40  60  86 115 152 197 244 296 351
#     4  10  21  38  63  93 122 154 193 235 282 339
#     4  10  22  39  61  89 121 156 195 238 284 339
#     4  11  22  37  60  87 114 149 194 245 299 351
#
# _framework density 20.027826999999998
#
# number of rings (size 3 to 8) (size 9 to 14) (size 15 to 20)
#    0.000    1.333    1.667    4.500    0.000   10.667 
#    0.000    6.667    0.000    0.000    0.000    0.000 
#    0.000    0.000    0.000    0.000    0.000    0.000 
#
# Total GULP energy -595385.020216 kJ/mol
# GULP energy per Si atom -12403.854588 kJ/mol
# Density = 1.998224 g / cm^3
# Si number density = 20.027827 Si / 1000 Ang^3
#
#
#
# Elastic Constant Matrix: (Units=GPa)
#
#
# Indices 1 2 3 4 5 6 
#
# 1 117.9514 31.4844 33.4911 0.0000 0.0000 0.0000
# 2 31.4844 67.4155 20.2537 0.0000 0.0000 0.0000
# 3 33.4911 20.2537 130.5825 0.0000 0.0000 0.0000
# 4 0.0000 0.0000 0.0000 -21.6154 0.0000 0.0000
# 5 0.0000 0.0000 0.0000 0.0000 -23.8968 0.0000
# 6 0.0000 0.0000 0.0000 0.0000 0.0000 7.1880
#
#
#
# Elastic Compliance Matrix: (Units=1/GPa)
#
#
# Indices 1 2 3 4 5 6 
#
# 1 0.010141 -0.004148 -0.001958 0.000000 0.000000 0.000000
# 2 -0.004148 0.017255 -0.001612 0.000000 0.000000 0.000000
# 3 -0.001958 -0.001612 0.008410 0.000000 0.000000 0.000000
# 4 0.000000 0.000000 0.000000 -0.046263 0.000000 0.000000
# 5 0.000000 0.000000 0.000000 0.000000 -0.041847 0.000000
# 6 0.000000 0.000000 0.000000 0.000000 0.000000 0.139121
#
#
# Mechanical properties :
#
#
# Convention : Reuss Voigt Hill
#
# Bulk Modulus (GPa) = 49.09117 54.04530 51.56824
# Shear Modulus (GPa) = 45.85349 7.71652 26.78500
#
# Velocity S-wave (km/s) = 4.79005 1.96501 3.66100
# Velocity P-wave (km/s) = 7.42681 5.67380 6.60869
#
# Compressibility (1/GPa) = 0.02037026
#
# Stress axis : x y z
#
# Youngs Moduli (GPa) = 98.60860 57.95425 118.90388
#
# Poissons Ratio (x) = 0.24039 0.23276
# Poissons Ratio (y) = 0.40903 0.19173
# Poissons Ratio (z) = 0.19303 0.09345
#
# Static dielectric constant tensor:
#      x y z
#    x 3.789790 0.000000 0.000000 
#    y 0.000000 3.764900 0.000000 
#    z 0.000000 0.000000 3.612520 
# 
# 
# High freq. dielectric constant tensor:
#      x y z
#    x 1.791360 0.000000 0.000000 
#    y 0.000000 1.798220 0.000000 
#    z 0.000000 0.000000 1.774310 
# 
# From -- ./inp_files/38491.got.cif
#   From: 2010.03.12/outbox.cif.g09.slc.cpg/sg67_20_cif.got.tgz:38491.got - 2010.04.10 22:41:39.
