data_PCOD8280375
_publ_section_title
;
Structure prediction by ZEFSAII (Michael W. Deem and Ramdas Pophale) SiO2 
 PCOD8280375
Probable space group: C M M A
;
_chemical_formula_sum "Si O2"
_cell_formula_units_Z 72
_cell_length_a 15.351197
_cell_length_b 8.726217
_cell_length_c 27.828397
_cell_angle_alpha 90.000000
_cell_angle_beta 90.000000
_cell_angle_gamma 90.000000
_cell_volume 3727.832961
_symmetry_space_group_name_H-M "C M M A"
_symmetry_group_IT_number 67
_symmetry_cell_setting 'orthorhombic'
loop_
_space_group_symop_operation_xyz
x,y,z
-x,1/2-y,z
x,-y,-z
-x,1/2+y,-z
-x,-y,-z
x,1/2+y,-z
-x,y,z
x,1/2-y,z
1/2+x,1/2+y,z
1/2-x,-y,z
1/2+x,1/2-y,-z
1/2-x,y,-z
1/2-x,1/2-y,-z
1/2+x,y,-z
1/2-x,1/2+y,z
1/2+x,-y,z
loop_
_atom_site_type_symbol
_atom_site_label
_atom_site_fract_x
_atom_site_fract_y
_atom_site_fract_z
Si Si1 0.500000 0.928544 0.119293
Si Si2 0.500000 0.068590 0.447407
Si Si3 0.841451 0.571307 0.721745
Si Si4 0.342196 0.929714 0.389458
Si Si5 0.000000 0.429439 0.778079
Si Si6 0.840875 0.069828 0.051083
O O1 0.500000 0.750000 0.133589
O O2 0.585261 0.972270 0.089163
O O3 0.500000 0.032549 0.166024
O O4 0.500000 0.250000 0.450288
O O5 0.500000 0.000000 0.500000
O O6 0.414799 0.013056 0.420097
O O7 0.837983 0.750000 0.732269
O O8 0.750000 0.500000 0.737359
O O9 0.861997 0.536667 0.666207
O O10 0.914878 0.497999 0.754047
O O11 0.342594 0.750000 0.400740
O O12 0.250000 0.000000 0.404782
O O13 0.000000 0.250000 0.769917
O O14 0.830165 0.250000 0.044614
O O15 0.750000 0.000000 0.069774
O O16 0.867957 0.000000 0.000000
#
# Coordination Sequence:
#
# PCOD8280375 Si02
#       6
#     8   8  16  16   8  16
#     4  10  23  40  56  78 113 153 189 230 283 337
#     4  12  25  40  59  85 119 157 195 238 287 343
#     4  10  21  39  63  88 117 151 191 239 287 340
#     4  10  21  39  63  90 117 150 192 238 288 341
#     4  12  25  38  57  85 118 156 195 236 287 344
#     4  10  20  36  59  84 110 143 183 230 280 334
#
# _framework density 19.314170000000001
#
# number of rings (size 3 to 8) (size 9 to 14) (size 15 to 20)
#    0.000    1.556    0.000    5.667    0.000    8.444 
#    0.000    4.444    0.000    0.000    0.000    0.000 
#    0.000    0.000    0.000    0.000    0.000    0.000 
#
# Total GULP energy -446592.881022 kJ/mol
# GULP energy per Si atom -12405.357806 kJ/mol
# Density = 1.927021 g / cm^3
# Si number density = 19.314170 Si / 1000 Ang^3
#
#
#
# Elastic Constant Matrix: (Units=GPa)
#
#
# Indices 1 2 3 4 5 6 
#
# 1 180.6914 89.8812 103.1011 0.0000 0.0000 0.0000
# 2 89.8812 134.5529 76.3469 0.0000 0.0000 0.0000
# 3 103.1011 76.3469 117.5855 0.0000 0.0000 0.0000
# 4 0.0000 0.0000 0.0000 33.7371 0.0000 0.0000
# 5 0.0000 0.0000 0.0000 0.0000 3.2480 0.0000
# 6 0.0000 0.0000 0.0000 0.0000 0.0000 30.1148
#
#
#
# Elastic Compliance Matrix: (Units=1/GPa)
#
#
# Indices 1 2 3 4 5 6 
#
# 1 0.011891 -0.003210 -0.008342 0.000000 0.000000 0.000000
# 2 -0.003210 0.012634 -0.005389 0.000000 0.000000 0.000000
# 3 -0.008342 -0.005389 0.019318 0.000000 0.000000 0.000000
# 4 0.000000 0.000000 0.000000 0.029641 0.000000 0.000000
# 5 0.000000 0.000000 0.000000 0.000000 0.307882 0.000000
# 6 0.000000 0.000000 0.000000 0.000000 0.000000 0.033206
#
#
# Mechanical properties :
#
#
# Convention : Reuss Voigt Hill
#
# Bulk Modulus (GPa) = 100.38678 107.94315 104.16496
# Shear Modulus (GPa) = 11.06753 24.32002 17.69378
#
# Velocity S-wave (km/s) = 2.39639 3.55234 3.03000
# Velocity P-wave (km/s) = 7.72952 8.53434 8.14188
#
# Compressibility (1/GPa) = 0.00996147
#
# Stress axis : x y z
#
# Youngs Moduli (GPa) = 84.09874 79.15395 51.76608
#
# Poissons Ratio (x) = 0.25406 0.43184
# Poissons Ratio (y) = 0.26993 0.27895
# Poissons Ratio (z) = 0.70156 0.42653
#
# Static dielectric constant tensor:
#      x y z
#    x 3.951030 0.000000 0.000000 
#    y 0.000000 3.707690 0.000000 
#    z 0.000000 0.000000 3.483670 
# 
# 
# High freq. dielectric constant tensor:
#      x y z
#    x 1.770620 0.000000 0.000000 
#    y 0.000000 1.769050 0.000000 
#    z 0.000000 0.000000 1.749470 
# 
# From -- ./inp_files/44264.got.cif
#   From: 2010.03.12/outbox.cif.g09.slc.cpg/sg67_23_cif.got.tgz:44264.got - 2010.04.10 22:41:39.
