data_PCOD8280223
_publ_section_title
;
Structure prediction by ZEFSAII (Michael W. Deem and Ramdas Pophale) SiO2 
 PCOD8280223
Probable space group: C M M A
;
_chemical_formula_sum "Si O2"
_cell_formula_units_Z 96
_cell_length_a 14.389201
_cell_length_b 16.673200
_cell_length_c 20.221521
_cell_angle_alpha 90.000000
_cell_angle_beta 90.000000
_cell_angle_gamma 90.000000
_cell_volume 4851.426517
_symmetry_space_group_name_H-M "C M M A"
_symmetry_group_IT_number 67
_symmetry_cell_setting 'orthorhombic'
loop_
_space_group_symop_operation_xyz
x,y,z
-x,1/2-y,z
x,-y,-z
-x,1/2+y,-z
-x,-y,-z
x,1/2+y,-z
-x,y,z
x,1/2-y,z
1/2+x,1/2+y,z
1/2-x,-y,z
1/2+x,1/2-y,-z
1/2-x,y,-z
1/2-x,1/2-y,-z
1/2+x,y,-z
1/2-x,1/2+y,z
1/2+x,-y,z
loop_
_atom_site_type_symbol
_atom_site_label
_atom_site_fract_x
_atom_site_fract_y
_atom_site_fract_z
Si Si1 0.000000 0.565114 0.213275
Si Si2 0.500000 0.058583 0.438105
Si Si3 0.812384 0.344360 0.561771
Si Si4 0.000000 0.941119 0.682938
Si Si5 0.208586 0.588304 0.207060
Si Si6 0.684344 0.341631 0.679695
Si Si7 0.500000 0.161093 0.088547
Si Si8 0.299690 0.158766 0.063616
O O1 0.000000 0.474234 0.240943
O O2 0.101833 0.600686 0.234344
O O3 0.000000 0.581932 0.135077
O O4 0.410676 0.113830 0.443070
O O5 0.500000 0.000000 0.500000
O O6 0.500000 0.015146 0.367403
O O7 0.830372 0.250000 0.563282
O O8 0.750000 0.370356 0.500000
O O9 0.758987 0.374344 0.627140
O O10 0.910081 0.889022 0.670274
O O11 0.250000 0.500000 0.219838
O O12 0.272451 0.649508 0.247502
O O13 0.219062 0.608440 0.129736
O O14 0.659748 0.250000 0.665630
O O15 0.500000 0.250000 0.125948
O O16 0.408508 0.156770 0.044028
O O17 0.264822 0.250000 0.074793
O O18 0.250000 0.119433 0.000000
#
# Coordination Sequence:
#
# PCOD8280223 Si02
#       8
#     8   8  16   8  16  16   8  16
#     4  10  20  35  57  85 113 156 188 242 304 345
#     4  12  25  38  62  94 121 156 201 251 308 357
#     4  10  23  43  64  88 123 162 204 251 301 360
#     4  12  23  39  60  86 122 156 197 250 300 362
#     4  11  21  37  60  85 121 153 197 249 300 356
#     4  11  24  41  62  87 118 162 203 245 301 362
#     4   8  16  32  55  83 116 149 192 243 293 354
#     4   9  18  34  56  83 114 152 197 241 293 355
#
# _framework density 19.787996
#
# number of rings (size 3 to 8) (size 9 to 14) (size 15 to 20)
#    0.000    1.667    1.667    3.000    0.000    2.667 
#    0.000    6.667    0.000    5.000    0.000    0.000 
#    0.000    0.000    0.000    0.000    0.000    0.000 
#
# Total GULP energy -594775.069480 kJ/mol
# GULP energy per Si atom -12391.147281 kJ/mol
# Density = 1.974296 g / cm^3
# Si number density = 19.787996 Si / 1000 Ang^3
#
#
#
# Elastic Constant Matrix: (Units=GPa)
#
#
# Indices 1 2 3 4 5 6 
#
# 1 179.5203 60.1393 68.0739 0.0000 0.0000 0.0000
# 2 60.1393 69.4975 39.3379 0.0000 0.0000 0.0000
# 3 68.0739 39.3379 109.5360 0.0000 0.0000 0.0000
# 4 0.0000 0.0000 0.0000 28.0188 0.0000 0.0000
# 5 0.0000 0.0000 0.0000 0.0000 29.6509 0.0000
# 6 0.0000 0.0000 0.0000 0.0000 0.0000 6.2984
#
#
#
# Elastic Compliance Matrix: (Units=1/GPa)
#
#
# Indices 1 2 3 4 5 6 
#
# 1 0.008756 -0.005644 -0.003415 0.000000 0.000000 0.000000
# 2 -0.005644 0.021699 -0.004285 0.000000 0.000000 0.000000
# 3 -0.003415 -0.004285 0.012790 0.000000 0.000000 0.000000
# 4 0.000000 0.000000 0.000000 0.035690 0.000000 0.000000
# 5 0.000000 0.000000 0.000000 0.000000 0.033726 0.000000
# 6 0.000000 0.000000 0.000000 0.000000 0.000000 0.158770
#
#
# Mechanical properties :
#
#
# Convention : Reuss Voigt Hill
#
# Bulk Modulus (GPa) = 60.39571 77.07291 68.73431
# Shear Modulus (GPa) = 16.46701 25.52714 20.99707
#
# Velocity S-wave (km/s) = 2.88787 3.59560 3.26099
# Velocity P-wave (km/s) = 6.45812 7.50144 6.99925
#
# Compressibility (1/GPa) = 0.01655747
#
# Stress axis : x y z
#
# Youngs Moduli (GPa) = 114.20700 46.08595 78.18364
#
# Poissons Ratio (x) = 0.26012 0.26697
# Poissons Ratio (y) = 0.64460 0.33501
# Poissons Ratio (z) = 0.38998 0.19748
#
# Static dielectric constant tensor:
#      x y z
#    x 3.864600 0.000000 0.000000 
#    y 0.000000 3.533510 0.000000 
#    z 0.000000 0.000000 3.568750 
# 
# 
# High freq. dielectric constant tensor:
#      x y z
#    x 1.793410 0.000000 0.000000 
#    y 0.000000 1.761970 0.000000 
#    z 0.000000 0.000000 1.762290 
# 
# From -- ./inp_files/38599.got.cif
#   From: 2010.03.12/outbox.cif.g09.slc.cpg/sg67_20_cif.got.tgz:38599.got - 2010.04.10 22:41:39.
