data_PCOD8280309
_publ_section_title
;
Structure prediction by ZEFSAII (Michael W. Deem and Ramdas Pophale) SiO2 
 PCOD8280309
Probable space group: C M M A
;
_chemical_formula_sum "Si O2"
_cell_formula_units_Z 104
_cell_length_a 9.078133
_cell_length_b 20.901128
_cell_length_c 30.388688
_cell_angle_alpha 90.000000
_cell_angle_beta 90.000000
_cell_angle_gamma 90.000000
_cell_volume 5766.047508
_symmetry_space_group_name_H-M "C M M A"
_symmetry_group_IT_number 67
_symmetry_cell_setting 'orthorhombic'
loop_
_space_group_symop_operation_xyz
x,y,z
-x,1/2-y,z
x,-y,-z
-x,1/2+y,-z
-x,-y,-z
x,1/2+y,-z
-x,y,z
x,1/2-y,z
1/2+x,1/2+y,z
1/2-x,-y,z
1/2+x,1/2-y,-z
1/2-x,y,-z
1/2-x,1/2-y,-z
1/2+x,y,-z
1/2-x,1/2+y,z
1/2+x,-y,z
loop_
_atom_site_type_symbol
_atom_site_label
_atom_site_fract_x
_atom_site_fract_y
_atom_site_fract_z
Si Si1 0.664989 0.673631 0.128381
Si Si2 0.837028 0.825505 0.211917
Si Si3 0.665919 0.673726 0.957180
Si Si4 0.324721 0.178791 0.309093
Si Si5 0.674234 0.111308 0.547558
Si Si6 0.323955 0.062724 0.369811
Si Si7 0.833845 0.750000 0.544381
O O1 0.500000 0.647022 0.124659
O O2 0.665687 0.750000 0.128774
O O3 0.734451 0.645947 0.173508
O O4 0.755906 0.647506 0.086727
O O5 0.850030 0.750000 0.206057
O O6 0.768562 0.840378 0.260146
O O7 0.000000 0.856006 0.207261
O O8 0.500000 0.647424 0.958069
O O9 0.667445 0.750000 0.957387
O O10 0.750000 0.647080 0.000000
O O11 0.500000 0.181391 0.307825
O O12 0.265321 0.250000 0.322557
O O13 0.269774 0.125045 0.342967
O O14 0.500000 0.095061 0.544239
O O15 0.750000 0.103757 0.500000
O O16 0.757614 0.064912 0.580968
O O17 0.700922 0.182933 0.568593
O O18 0.500000 0.056750 0.371061
O O19 0.250000 0.000000 0.347549
O O20 0.750000 0.750000 0.500000
O O21 0.000000 0.750000 0.528761
#
# Coordination Sequence:
#
# PCOD8280309 Si02
#       7
#    16  16  16  16  16  16   8
#     4   9  15  21  30  47  72 100 132 174 225 277
#     4   8  13  24  42  61  80 103 138 184 230 275
#     4   9  15  21  28  39  59  92 135 180 225 272
#     4   8  16  32  54  77  97 123 162 204 244 290
#     4  10  20  36  56  80 107 135 167 201 241 286
#     4  11  23  38  56  78 106 137 168 203 245 294
#     4   8  16  30  50  76 106 132 158 196 238 280
#
# _framework density 18.036619999999999
#
# number of rings (size 3 to 8) (size 9 to 14) (size 15 to 20)
#    0.000    2.923    0.000    2.769    1.077    4.615 
#    0.000    3.077    0.000    1.846    0.000    0.000 
#    0.000    0.000    0.000    0.000    0.000    0.769 
#
# Total GULP energy -644293.146894 kJ/mol
# GULP energy per Si atom -12390.252825 kJ/mol
# Density = 1.799557 g / cm^3
# Si number density = 18.036620 Si / 1000 Ang^3
#
#
#
# Elastic Constant Matrix: (Units=GPa)
#
#
# Indices 1 2 3 4 5 6 
#
# 1 109.1064 29.1285 56.4262 0.0000 0.0000 0.0000
# 2 29.1285 61.8164 42.8920 0.0000 0.0000 0.0000
# 3 56.4262 42.8920 129.7605 0.0000 0.0000 0.0000
# 4 0.0000 0.0000 0.0000 4.0063 0.0000 0.0000
# 5 0.0000 0.0000 0.0000 0.0000 25.5854 0.0000
# 6 0.0000 0.0000 0.0000 0.0000 0.0000 15.7399
#
#
#
# Elastic Compliance Matrix: (Units=1/GPa)
#
#
# Indices 1 2 3 4 5 6 
#
# 1 0.012156 -0.002673 -0.004402 0.000000 0.000000 0.000000
# 2 -0.002673 0.021579 -0.005970 0.000000 0.000000 0.000000
# 3 -0.004402 -0.005970 0.011594 0.000000 0.000000 0.000000
# 4 0.000000 0.000000 0.000000 0.249609 0.000000 0.000000
# 5 0.000000 0.000000 0.000000 0.000000 0.039085 0.000000
# 6 0.000000 0.000000 0.000000 0.000000 0.000000 0.063533
#
#
# Mechanical properties :
#
#
# Convention : Reuss Voigt Hill
#
# Bulk Modulus (GPa) = 51.98246 61.95297 56.96771
# Shear Modulus (GPa) = 11.62626 20.54876 16.08751
#
# Velocity S-wave (km/s) = 2.54164 3.37898 2.98977
# Velocity P-wave (km/s) = 6.12342 7.04602 6.60086
#
# Compressibility (1/GPa) = 0.01923726
#
# Stress axis : x y z
#
# Youngs Moduli (GPa) = 82.26538 46.34064 86.24899
#
# Poissons Ratio (x) = 0.12389 0.37969
# Poissons Ratio (y) = 0.21993 0.51495
# Poissons Ratio (z) = 0.36215 0.27668
#
# Static dielectric constant tensor:
#      x y z
#    x 3.363720 0.000000 0.000000 
#    y 0.000000 3.073990 0.000000 
#    z 0.000000 0.000000 3.445320 
# 
# 
# High freq. dielectric constant tensor:
#      x y z
#    x 1.696130 0.000000 0.000000 
#    y 0.000000 1.636580 0.000000 
#    z 0.000000 0.000000 1.700730 
# 
# From -- ./inp_files/45342.got.cif
#   From: 2010.03.12/outbox.cif.g09.slc.cpg/sg67_23_cif.got.tgz:45342.got - 2010.04.10 22:41:39.
