data_PCOD8280733
_publ_section_title
;
Structure prediction by ZEFSAII (Michael W. Deem and Ramdas Pophale) SiO2 
 PCOD8280733
Probable space group: C M M A
;
_chemical_formula_sum "Si O2"
_cell_formula_units_Z 96
_cell_length_a 17.068937
_cell_length_b 14.200914
_cell_length_c 21.267010
_cell_angle_alpha 90.000000
_cell_angle_beta 90.000000
_cell_angle_gamma 90.000000
_cell_volume 5155.006392
_symmetry_space_group_name_H-M "C M M A"
_symmetry_group_IT_number 67
_symmetry_cell_setting 'orthorhombic'
loop_
_space_group_symop_operation_xyz
x,y,z
-x,1/2-y,z
x,-y,-z
-x,1/2+y,-z
-x,-y,-z
x,1/2+y,-z
-x,y,z
x,1/2-y,z
1/2+x,1/2+y,z
1/2-x,-y,z
1/2+x,1/2-y,-z
1/2-x,y,-z
1/2-x,1/2-y,-z
1/2+x,y,-z
1/2-x,1/2+y,z
1/2+x,-y,z
loop_
_atom_site_type_symbol
_atom_site_label
_atom_site_fract_x
_atom_site_fract_y
_atom_site_fract_z
Si Si1 0.909230 0.006544 0.739386
Si Si2 0.342770 0.146031 0.500303
Si Si3 0.144869 0.357772 0.166436
Si Si4 0.157419 0.999574 0.397263
Si Si5 0.669639 0.357969 0.166474
Si Si6 0.908541 0.006591 0.928718
O O1 0.861094 0.091546 0.770718
O O2 0.000000 0.027628 0.750372
O O3 0.886932 0.907051 0.770646
O O4 0.890807 0.001113 0.666309
O O5 0.380832 0.250000 0.500453
O O6 0.250000 0.151721 0.500000
O O7 0.368668 0.091376 0.563207
O O8 0.368688 0.091648 0.437341
O O9 0.116902 0.250000 0.166639
O O10 0.237665 0.366932 0.164894
O O11 0.109038 0.407778 0.105190
O O12 0.250000 0.000000 0.383229
O O13 0.642068 0.250000 0.167301
O O14 0.636222 0.407795 0.104528
O O15 0.000000 0.029437 0.925765
O O16 0.878363 0.000000 0.000000
#
# Coordination Sequence:
#
# PCOD8280733 Si02
#       6
#    16  16  16  16  16  16
#     4  11  22  35  53  77 108 142 173 211 261 316
#     4   8  15  29  50  74  98 128 168 213 256 297
#     4  10  21  37  57  79 103 135 177 222 262 302
#     4   9  17  31  51  74 100 130 170 215 253 299
#     4  10  21  37  57  79 103 135 177 222 262 302
#     4  10  21  36  55  80 110 142 172 207 256 313
#
# _framework density 18.622672999999999
#
# number of rings (size 3 to 8) (size 9 to 14) (size 15 to 20)
#    0.000    2.333    0.000    6.000    0.000    6.000 
#    0.000    8.333    0.000    1.000    0.000    0.000 
#    0.000    0.000    0.000    0.000    0.000    0.000 
#
# Total GULP energy -595231.511044 kJ/mol
# GULP energy per Si atom -12400.656480 kJ/mol
# Density = 1.858029 g / cm^3
# Si number density = 18.622673 Si / 1000 Ang^3
#
#
#
# Elastic Constant Matrix: (Units=GPa)
#
#
# Indices 1 2 3 4 5 6 
#
# 1 41.6953 8.3060 19.3754 0.0000 0.0000 0.0000
# 2 8.3060 145.7480 64.3673 0.0000 0.0000 0.0000
# 3 19.3754 64.3673 157.0005 0.0000 0.0000 0.0000
# 4 0.0000 0.0000 0.0000 12.3202 0.0000 0.0000
# 5 0.0000 0.0000 0.0000 0.0000 -593.9223 0.0000
# 6 0.0000 0.0000 0.0000 0.0000 0.0000 7.6544
#
#
#
# Elastic Compliance Matrix: (Units=1/GPa)
#
#
# Indices 1 2 3 4 5 6 
#
# 1 0.025443 -0.000077 -0.003108 0.000000 0.000000 0.000000
# 2 -0.000077 0.008378 -0.003425 0.000000 0.000000 0.000000
# 3 -0.003108 -0.003425 0.008157 0.000000 0.000000 0.000000
# 4 0.000000 0.000000 0.000000 0.081168 0.000000 0.000000
# 5 0.000000 0.000000 0.000000 0.000000 -0.001684 0.000000
# 6 0.000000 0.000000 0.000000 0.000000 0.000000 0.130645
#
#
# Mechanical properties :
#
#
# Convention : Reuss Voigt Hill
#
# Bulk Modulus (GPa) = 34.77404 58.72682 46.75043
# Shear Modulus (GPa) = 18.18743 -97.96322 -39.88790
#
# Velocity S-wave (km/s) = 3.12850 -7.26075 -4.63309
# Velocity P-wave (km/s) = 5.63591 6.21995 1.86068
#
# Compressibility (1/GPa) = 0.02875708
#
# Stress axis : x y z
#
# Youngs Moduli (GPa) = 39.30303 119.35529 122.58864
#
# Poissons Ratio (x) = 0.00922 0.38104
# Poissons Ratio (y) = 0.00304 0.41992
# Poissons Ratio (z) = 0.12216 0.40884
#
# Static dielectric constant tensor:
#      x y z
#    x 3.266670 0.000000 0.000000 
#    y 0.000000 3.879050 0.000000 
#    z 0.000000 0.000000 3.436510 
# 
# 
# High freq. dielectric constant tensor:
#      x y z
#    x 1.714520 0.000000 0.000000 
#    y 0.000000 1.727090 0.000000 
#    z 0.000000 0.000000 1.726430 
# 
# From -- ./inp_files/38436.got.cif
#   From: 2010.03.12/outbox.cif.g09.slc.cpg/sg67_20_cif.got.tgz:38436.got - 2010.04.10 22:41:39.
