data_PCOD8280856
_publ_section_title
;
Structure prediction by ZEFSAII (Michael W. Deem and Ramdas Pophale) SiO2 
 PCOD8280856
Probable space group: C M M A
;
_chemical_formula_sum "Si O2"
_cell_formula_units_Z 112
_cell_length_a 15.374843
_cell_length_b 23.892694
_cell_length_c 15.860039
_cell_angle_alpha 90.000000
_cell_angle_beta 90.000000
_cell_angle_gamma 90.000000
_cell_volume 5826.128533
_symmetry_space_group_name_H-M "C M M A"
_symmetry_group_IT_number 67
_symmetry_cell_setting 'orthorhombic'
loop_
_space_group_symop_operation_xyz
x,y,z
-x,1/2-y,z
x,-y,-z
-x,1/2+y,-z
-x,-y,-z
x,1/2+y,-z
-x,y,z
x,1/2-y,z
1/2+x,1/2+y,z
1/2-x,-y,z
1/2+x,1/2-y,-z
1/2-x,y,-z
1/2-x,1/2-y,-z
1/2+x,y,-z
1/2-x,1/2+y,z
1/2+x,-y,z
loop_
_atom_site_type_symbol
_atom_site_label
_atom_site_fract_x
_atom_site_fract_y
_atom_site_fract_z
Si Si1 0.843681 0.087909 0.473994
Si Si2 0.349069 0.519521 0.312709
Si Si3 0.601696 0.313481 0.217443
Si Si4 0.740202 0.314304 0.902915
Si Si5 0.406253 0.097327 0.341122
Si Si6 0.400350 0.186914 0.625749
Si Si7 0.600656 0.623787 0.204731
O O1 0.750000 0.066232 0.500000
O O2 0.880478 0.045755 0.402695
O O3 0.896356 0.089794 0.559595
O O4 0.839352 0.149637 0.433913
O O5 0.250000 0.500000 0.317104
O O6 0.401246 0.462788 0.295816
O O7 0.368254 0.562900 0.238017
O O8 0.500000 0.325640 0.192064
O O9 0.610415 0.250000 0.250816
O O10 0.664430 0.323682 0.137661
O O11 0.645356 0.354205 0.290207
O O12 0.709741 0.250000 0.890628
O O13 0.665264 0.355807 0.868247
O O14 0.750000 0.329942 0.000000
O O15 0.500000 0.122739 0.327317
O O16 0.500000 0.179236 0.596059
O O17 0.368004 0.250000 0.615922
O O18 0.390782 0.169542 0.722256
O O19 0.500000 0.619902 0.173508
#
# Coordination Sequence:
#
# PCOD8280856 Si02
#       7
#    16  16  16  16  16  16  16
#     4  11  22  33  49  78 110 147 190 238 285 328
#     4  11  21  36  56  78 111 150 195 244 287 337
#     4   9  20  39  60  84 115 150 189 236 290 351
#     4  10  21  37  61  92 120 149 186 230 286 351
#     4  11  22  35  55  79 106 148 192 235 283 336
#     4   9  19  35  52  73 108 151 191 232 278 331
#     4  10  21  37  58  86 118 152 192 239 291 348
#
# _framework density 19.223742999999999
#
# number of rings (size 3 to 8) (size 9 to 14) (size 15 to 20)
#    0.000    1.857    1.429    2.571    2.000    4.571 
#    0.000    2.857    0.000    3.857    0.000    6.000 
#    0.000    0.000    0.000    0.000    0.000    0.000 
#
# Total GULP energy -693852.393399 kJ/mol
# GULP energy per Si atom -12390.221311 kJ/mol
# Density = 1.917999 g / cm^3
# Si number density = 19.223743 Si / 1000 Ang^3
#
#
#
# Elastic Constant Matrix: (Units=GPa)
#
#
# Indices 1 2 3 4 5 6 
#
# 1 81.1133 36.2722 48.8571 0.0000 0.0000 0.0000
# 2 36.2722 132.0470 69.4951 0.0000 0.0000 0.0000
# 3 48.8571 69.4951 112.8594 0.0000 0.0000 0.0000
# 4 0.0000 0.0000 0.0000 21.6231 0.0000 0.0000
# 5 0.0000 0.0000 0.0000 0.0000 3.0635 0.0000
# 6 0.0000 0.0000 0.0000 0.0000 0.0000 29.5521
#
#
#
# Elastic Compliance Matrix: (Units=1/GPa)
#
#
# Indices 1 2 3 4 5 6 
#
# 1 0.016797 -0.001164 -0.006554 0.000000 0.000000 0.000000
# 2 -0.001164 0.011285 -0.006445 0.000000 0.000000 0.000000
# 3 -0.006554 -0.006445 0.015666 0.000000 0.000000 0.000000
# 4 0.000000 0.000000 0.000000 0.046247 0.000000 0.000000
# 5 0.000000 0.000000 0.000000 0.000000 0.326422 0.000000
# 6 0.000000 0.000000 0.000000 0.000000 0.000000 0.033839
#
#
# Mechanical properties :
#
#
# Convention : Reuss Voigt Hill
#
# Bulk Modulus (GPa) = 64.84632 70.58539 67.71585
# Shear Modulus (GPa) = 10.33650 22.27411 16.30530
#
# Velocity S-wave (km/s) = 2.32134 3.40763 2.91552
# Velocity P-wave (km/s) = 6.40238 7.23050 6.82900
#
# Compressibility (1/GPa) = 0.01542108
#
# Stress axis : x y z
#
# Youngs Moduli (GPa) = 59.53403 88.61574 63.83082
#
# Poissons Ratio (x) = 0.10319 0.41838
# Poissons Ratio (y) = 0.06933 0.41137
# Poissons Ratio (z) = 0.39021 0.57110
#
# Static dielectric constant tensor:
#      x y z
#    x 3.565510 0.000000 0.000000 
#    y 0.000000 3.787390 0.000000 
#    z 0.000000 0.000000 2.932100 
# 
# 
# High freq. dielectric constant tensor:
#      x y z
#    x 1.751490 0.000000 0.000000 
#    y 0.000000 1.758250 0.000000 
#    z 0.000000 0.000000 1.719420 
# 
# From -- ./inp_files/27567.got.cif
#   From: 2010.03.12/outbox.cif.g09.slc.cpg/sg67_14_cif.got.tgz:27567.got - 2010.04.10 22:41:39.
