data_PCOD8280592
_publ_section_title
;
Structure prediction by ZEFSAII (Michael W. Deem and Ramdas Pophale) SiO2 
 PCOD8280592
Probable space group: C M M A
;
_chemical_formula_sum "Si O2"
_cell_formula_units_Z 96
_cell_length_a 23.415804
_cell_length_b 18.061100
_cell_length_c 12.209097
_cell_angle_alpha 90.000000
_cell_angle_beta 90.000000
_cell_angle_gamma 90.000000
_cell_volume 5163.412426
_symmetry_space_group_name_H-M "C M M A"
_symmetry_group_IT_number 67
_symmetry_cell_setting 'orthorhombic'
loop_
_space_group_symop_operation_xyz
x,y,z
-x,1/2-y,z
x,-y,-z
-x,1/2+y,-z
-x,-y,-z
x,1/2+y,-z
-x,y,z
x,1/2-y,z
1/2+x,1/2+y,z
1/2-x,-y,z
1/2+x,1/2-y,-z
1/2-x,y,-z
1/2-x,1/2-y,-z
1/2+x,y,-z
1/2-x,1/2+y,z
1/2+x,-y,z
loop_
_atom_site_type_symbol
_atom_site_label
_atom_site_fract_x
_atom_site_fract_y
_atom_site_fract_z
Si Si1 0.688249 0.663065 0.651158
Si Si2 0.121275 0.581635 0.537061
Si Si3 0.382284 0.163732 0.139766
Si Si4 0.310702 0.584574 0.033324
Si Si5 0.289845 0.926319 0.280756
Si Si6 0.500000 0.663094 0.751258
Si Si7 0.500000 0.087683 0.484564
O O1 0.682393 0.750000 0.633670
O O2 0.662625 0.624378 0.545094
O O3 0.656268 0.634998 0.760004
O O4 0.753962 0.640853 0.667079
O O5 0.107874 0.500000 0.500000
O O6 0.151786 0.570501 0.652450
O O7 0.058141 0.620582 0.541163
O O8 0.373813 0.250000 0.121092
O O9 0.446789 0.143586 0.171082
O O10 0.363194 0.124768 0.027199
O O11 0.314771 0.592892 0.162709
O O12 0.312473 0.500000 0.000000
O O13 0.250000 0.620755 0.000000
O O14 0.250000 0.000000 0.283975
O O15 0.500000 0.750000 0.716195
O O16 0.500000 0.612280 0.643350
O O17 0.500000 0.000000 0.500000
#
# Coordination Sequence:
#
# PCOD8280592 Si02
#       7
#    16  16  16  16  16   8   8
#     4  11  22  36  59  90 118 148 199 253 297 360
#     4  11  23  37  58  84 118 160 198 242 302 360
#     4  10  21  38  63  90 116 152 203 252 298 353
#     4  11  21  36  58  85 119 156 199 244 291 360
#     4  12  22  37  58  86 122 166 196 238 311 372
#     4  10  20  40  66  88 118 160 205 254 304 357
#     4  10  22  36  57  88 117 154 202 254 289 356
#
# _framework density 18.592355000000001
#
# number of rings (size 3 to 8) (size 9 to 14) (size 15 to 20)
#    0.000    1.167    6.667    0.500    0.000    2.333 
#    0.000    1.250    0.000    0.000    0.000    0.000 
#    0.000    0.000    0.000    0.000    0.000    0.000 
#
# Total GULP energy -594956.417593 kJ/mol
# GULP energy per Si atom -12394.925367 kJ/mol
# Density = 1.855004 g / cm^3
# Si number density = 18.592355 Si / 1000 Ang^3
#
#
#
# Elastic Constant Matrix: (Units=GPa)
#
#
# Indices 1 2 3 4 5 6 
#
# 1 140.3366 24.9274 79.3580 0.0000 0.0000 0.0000
# 2 24.9274 53.0448 36.8698 0.0000 0.0000 0.0000
# 3 79.3580 36.8698 145.0885 0.0000 0.0000 0.0000
# 4 0.0000 0.0000 0.0000 27.5544 0.0000 0.0000
# 5 0.0000 0.0000 0.0000 0.0000 43.9529 0.0000
# 6 0.0000 0.0000 0.0000 0.0000 0.0000 23.0652
#
#
#
# Elastic Compliance Matrix: (Units=1/GPa)
#
#
# Indices 1 2 3 4 5 6 
#
# 1 0.010372 -0.001131 -0.005386 0.000000 0.000000 0.000000
# 2 -0.001131 0.023019 -0.005231 0.000000 0.000000 0.000000
# 3 -0.005386 -0.005231 0.011168 0.000000 0.000000 0.000000
# 4 0.000000 0.000000 0.000000 0.036292 0.000000 0.000000
# 5 0.000000 0.000000 0.000000 0.000000 0.022752 0.000000
# 6 0.000000 0.000000 0.000000 0.000000 0.000000 0.043355
#
#
# Mechanical properties :
#
#
# Convention : Reuss Voigt Hill
#
# Bulk Modulus (GPa) = 47.47524 68.97560 58.22542
# Shear Modulus (GPa) = 28.17303 32.06883 30.12093
#
# Velocity S-wave (km/s) = 3.89691 4.15762 4.02938
# Velocity P-wave (km/s) = 6.77039 7.76062 7.28235
#
# Compressibility (1/GPa) = 0.02106361
#
# Stress axis : x y z
#
# Youngs Moduli (GPa) = 96.41176 43.44159 89.54489
#
# Poissons Ratio (x) = 0.04912 0.48228
# Poissons Ratio (y) = 0.10901 0.46843
# Poissons Ratio (z) = 0.51926 0.22725
#
# Static dielectric constant tensor:
#      x y z
#    x 3.852040 0.000000 0.000000 
#    y 0.000000 3.332570 0.000000 
#    z 0.000000 0.000000 3.463700 
# 
# 
# High freq. dielectric constant tensor:
#      x y z
#    x 1.729940 0.000000 0.000000 
#    y 0.000000 1.709470 0.000000 
#    z 0.000000 0.000000 1.717370 
# 
# From -- ./inp_files/21996.got.cif
#   From: 2010.03.12/outbox.cif.g09.slc.cpg/sg67_11_cif.got.tgz:21996.got - 2010.04.10 22:41:39.
