data_PCOD8280547
_publ_section_title
;
Structure prediction by ZEFSAII (Michael W. Deem and Ramdas Pophale) SiO2 
 PCOD8280547
Probable space group: C M M A
;
_chemical_formula_sum "Si O2"
_cell_formula_units_Z 72
_cell_length_a 8.552830
_cell_length_b 15.390207
_cell_length_c 28.010958
_cell_angle_alpha 90.000000
_cell_angle_beta 90.000000
_cell_angle_gamma 90.000000
_cell_volume 3687.077475
_symmetry_space_group_name_H-M "C M M A"
_symmetry_group_IT_number 67
_symmetry_cell_setting 'orthorhombic'
loop_
_space_group_symop_operation_xyz
x,y,z
-x,1/2-y,z
x,-y,-z
-x,1/2+y,-z
-x,-y,-z
x,1/2+y,-z
-x,y,z
x,1/2-y,z
1/2+x,1/2+y,z
1/2-x,-y,z
1/2+x,1/2-y,-z
1/2-x,y,-z
1/2-x,1/2-y,-z
1/2+x,y,-z
1/2-x,1/2+y,z
1/2+x,-y,z
loop_
_atom_site_type_symbol
_atom_site_label
_atom_site_fract_x
_atom_site_fract_y
_atom_site_fract_z
Si Si1 0.814588 0.093527 0.551642
Si Si2 0.185521 0.407965 0.887687
Si Si3 0.185743 0.750000 0.284839
Si Si4 0.816427 0.250000 0.388826
Si Si5 0.315635 0.750000 0.052740
Si Si6 0.316023 0.590408 0.779564
O O1 0.750000 0.120437 0.500000
O O2 0.760850 0.164176 0.589585
O O3 0.000000 0.089459 0.549324
O O4 0.750000 0.000000 0.567771
O O5 0.250000 0.500000 0.906085
O O6 0.257198 0.334954 0.920609
O O7 0.243400 0.391577 0.833363
O O8 0.000000 0.405625 0.891694
O O9 0.282986 0.750000 0.333033
O O10 0.240941 0.666522 0.254999
O O11 0.000000 0.750000 0.294791
O O12 0.000000 0.250000 0.399290
O O13 0.500000 0.750000 0.050925
O O14 0.250000 0.750000 0.000000
O O15 0.500000 0.584528 0.779758
O O16 0.250000 0.500000 0.759496
#
# Coordination Sequence:
#
# PCOD8280547 Si02
#       6
#    16  16   8   8   8  16
#     4  11  22  40  64  90 117 150 191 239 288 342
#     4  10  20  38  62  89 117 150 190 237 286 340
#     4  10  21  38  56  80 115 156 192 232 286 342
#     4  12  25  40  57  84 119 158 197 238 287 342
#     4  12  25  40  58  84 116 154 193 236 287 344
#     4   9  19  36  60  85 113 147 188 234 284 337
#
# _framework density 19.527660999999998
#
# number of rings (size 3 to 8) (size 9 to 14) (size 15 to 20)
#    0.000    1.556    0.000    6.333    0.000    4.889 
#    0.000    5.556    0.000    0.000    0.000    0.000 
#    0.000    0.000    0.000    0.000    0.000    0.000 
#
# Total GULP energy -446557.549837 kJ/mol
# GULP energy per Si atom -12404.376384 kJ/mol
# Density = 1.948321 g / cm^3
# Si number density = 19.527661 Si / 1000 Ang^3
#
#
#
# Elastic Constant Matrix: (Units=GPa)
#
#
# Indices 1 2 3 4 5 6 
#
# 1 123.9036 58.1765 48.1586 0.0000 0.0000 0.0000
# 2 58.1765 182.0402 100.6111 0.0000 0.0000 0.0000
# 3 48.1586 100.6111 125.9525 0.0000 0.0000 0.0000
# 4 0.0000 0.0000 0.0000 36.1558 0.0000 0.0000
# 5 0.0000 0.0000 0.0000 0.0000 32.4458 0.0000
# 6 0.0000 0.0000 0.0000 0.0000 0.0000 35.1995
#
#
#
# Elastic Compliance Matrix: (Units=1/GPa)
#
#
# Indices 1 2 3 4 5 6 
#
# 1 0.009836 -0.001906 -0.002238 0.000000 0.000000 0.000000
# 2 -0.001906 0.010205 -0.007423 0.000000 0.000000 0.000000
# 3 -0.002238 -0.007423 0.014725 0.000000 0.000000 0.000000
# 4 0.000000 0.000000 0.000000 0.027658 0.000000 0.000000
# 5 0.000000 0.000000 0.000000 0.000000 0.030821 0.000000
# 6 0.000000 0.000000 0.000000 0.000000 0.000000 0.028409
#
#
# Mechanical properties :
#
#
# Convention : Reuss Voigt Hill
#
# Bulk Modulus (GPa) = 85.97738 93.97653 89.97695
# Shear Modulus (GPa) = 33.63264 35.75689 34.69477
#
# Velocity S-wave (km/s) = 4.15457 4.28377 4.21966
# Velocity P-wave (km/s) = 8.19378 8.52624 8.36166
#
# Compressibility (1/GPa) = 0.01163097
#
# Stress axis : x y z
#
# Youngs Moduli (GPa) = 101.66995 97.99014 67.91367
#
# Poissons Ratio (x) = 0.18682 0.15198
# Poissons Ratio (y) = 0.19383 0.50412
# Poissons Ratio (z) = 0.22752 0.72737
#
# Static dielectric constant tensor:
#      x y z
#    x 3.634370 0.000000 0.000000 
#    y 0.000000 3.754210 0.000000 
#    z 0.000000 0.000000 3.632990 
# 
# 
# High freq. dielectric constant tensor:
#      x y z
#    x 1.769770 0.000000 0.000000 
#    y 0.000000 1.778370 0.000000 
#    z 0.000000 0.000000 1.758290 
# 
# From -- ./inp_files/43152.got.cif
#   From: 2010.03.12/outbox.cif.g09.slc.cpg/sg67_22_cif.got.tgz:43152.got - 2010.04.10 22:41:39.
