data_PCOD8280972
_publ_section_title
;
Structure prediction by ZEFSAII (Michael W. Deem and Ramdas Pophale) SiO2 
 PCOD8280972
Probable space group: C M M A
;
_chemical_formula_sum "Si O2"
_cell_formula_units_Z 64
_cell_length_a 8.716383
_cell_length_b 18.411928
_cell_length_c 20.309410
_cell_angle_alpha 90.000000
_cell_angle_beta 90.000000
_cell_angle_gamma 90.000000
_cell_volume 3259.364117
_symmetry_space_group_name_H-M "C M M A"
_symmetry_group_IT_number 67
_symmetry_cell_setting 'orthorhombic'
loop_
_space_group_symop_operation_xyz
x,y,z
-x,1/2-y,z
x,-y,-z
-x,1/2+y,-z
-x,-y,-z
x,1/2+y,-z
-x,y,z
x,1/2-y,z
1/2+x,1/2+y,z
1/2-x,-y,z
1/2+x,1/2-y,-z
1/2-x,y,-z
1/2-x,1/2-y,-z
1/2+x,y,-z
1/2-x,1/2+y,z
1/2+x,-y,z
loop_
_atom_site_type_symbol
_atom_site_label
_atom_site_fract_x
_atom_site_fract_y
_atom_site_fract_z
Si Si1 0.180790 0.832976 0.430479
Si Si2 0.180472 0.076578 0.930271
Si Si3 0.822883 0.834384 0.817645
Si Si4 0.180818 0.921295 0.688170
O O1 0.227610 0.750000 0.414363
O O2 0.250000 0.857298 0.500000
O O3 0.249296 0.885391 0.376168
O O4 0.000000 0.842809 0.433259
O O5 0.219185 0.137750 0.877282
O O6 0.000000 0.067936 0.937893
O O7 0.250000 0.000000 0.906588
O O8 0.250000 0.100745 0.000000
O O9 0.790168 0.750000 0.807672
O O10 0.772209 0.873474 0.750837
O O11 0.000000 0.850161 0.834368
O O12 0.000000 0.926707 0.679408
O O13 0.250000 0.000000 0.699313
#
# Coordination Sequence:
#
# PCOD8280972 Si02
#       4
#    16  16  16  16
#     4  10  21  38  61  88 118 152 191 236 286 342
#     4  11  22  38  61  87 117 153 193 237 286 341
#     4  10  22  40  61  86 117 152 191 237 288 342
#     4  11  23  39  60  86 117 153 193 238 288 341
#
# _framework density 19.635732000000001
#
# number of rings (size 3 to 8) (size 9 to 14) (size 15 to 20)
#    0.000    1.500    0.000    6.000    0.000    8.000 
#    0.000    2.500    0.000    0.000    0.000    0.000 
#    0.000    0.000    0.000    0.000    0.000    0.000 
#
# Total GULP energy -397014.741721 kJ/mol
# GULP energy per Si atom -12406.710679 kJ/mol
# Density = 1.959104 g / cm^3
# Si number density = 19.635732 Si / 1000 Ang^3
#
#
#
# Elastic Constant Matrix: (Units=GPa)
#
#
# Indices 1 2 3 4 5 6 
#
# 1 118.1353 57.6281 64.0906 0.0000 0.0000 0.0000
# 2 57.6281 131.0415 84.6863 0.0000 0.0000 0.0000
# 3 64.0906 84.6863 140.6104 0.0000 0.0000 0.0000
# 4 0.0000 0.0000 0.0000 40.6491 0.0000 0.0000
# 5 0.0000 0.0000 0.0000 0.0000 34.2193 0.0000
# 6 0.0000 0.0000 0.0000 0.0000 0.0000 29.4201
#
#
#
# Elastic Compliance Matrix: (Units=1/GPa)
#
#
# Indices 1 2 3 4 5 6 
#
# 1 0.011848 -0.002817 -0.003704 0.000000 0.000000 0.000000
# 2 -0.002817 0.013164 -0.006644 0.000000 0.000000 0.000000
# 3 -0.003704 -0.006644 0.012802 0.000000 0.000000 0.000000
# 4 0.000000 0.000000 0.000000 0.024601 0.000000 0.000000
# 5 0.000000 0.000000 0.000000 0.000000 0.029223 0.000000
# 6 0.000000 0.000000 0.000000 0.000000 0.000000 0.033990
#
#
# Mechanical properties :
#
#
# Convention : Reuss Voigt Hill
#
# Bulk Modulus (GPa) = 87.07956 89.17748 88.12852
# Shear Modulus (GPa) = 32.09506 33.08318 32.58912
#
# Velocity S-wave (km/s) = 4.04731 4.10914 4.07834
# Velocity P-wave (km/s) = 8.14154 8.24790 8.19490
#
# Compressibility (1/GPa) = 0.01148375
#
# Stress axis : x y z
#
# Youngs Moduli (GPa) = 84.39903 75.96526 78.11328
#
# Poissons Ratio (x) = 0.21398 0.28934
# Poissons Ratio (y) = 0.23774 0.51902
# Poissons Ratio (z) = 0.31262 0.50474
#
# Static dielectric constant tensor:
#      x y z
#    x 3.620080 0.000000 0.000000 
#    y 0.000000 3.594230 0.000000 
#    z 0.000000 0.000000 3.663490 
# 
# 
# High freq. dielectric constant tensor:
#      x y z
#    x 1.776060 0.000000 0.000000 
#    y 0.000000 1.768890 0.000000 
#    z 0.000000 0.000000 1.778640 
# 
# From -- ./inp_files/31734.got.cif
#   From: 2010.03.12/outbox.cif.g09.slc.cpg/sg67_16_cif.got.tgz:31734.got - 2010.04.10 22:41:39.
