data_PCOD8280329
_publ_section_title
;
Structure prediction by ZEFSAII (Michael W. Deem and Ramdas Pophale) SiO2 
 PCOD8280329
Probable space group: C M M A
;
_chemical_formula_sum "Si O2"
_cell_formula_units_Z 116
_cell_length_a 26.567143
_cell_length_b 24.342313
_cell_length_c 9.684446
_cell_angle_alpha 90.000000
_cell_angle_beta 90.000000
_cell_angle_gamma 90.000000
_cell_volume 6262.986530
_symmetry_space_group_name_H-M "C M M A"
_symmetry_group_IT_number 67
_symmetry_cell_setting 'orthorhombic'
loop_
_space_group_symop_operation_xyz
x,y,z
-x,1/2-y,z
x,-y,-z
-x,1/2+y,-z
-x,-y,-z
x,1/2+y,-z
-x,y,z
x,1/2-y,z
1/2+x,1/2+y,z
1/2-x,-y,z
1/2+x,1/2-y,-z
1/2-x,y,-z
1/2-x,1/2-y,-z
1/2+x,y,-z
1/2-x,1/2+y,z
1/2+x,-y,z
loop_
_atom_site_type_symbol
_atom_site_label
_atom_site_fract_x
_atom_site_fract_y
_atom_site_fract_z
Si Si1 0.284886 0.141352 0.881891
Si Si2 0.796955 0.090508 0.689593
Si Si3 0.941686 0.125318 0.041429
Si Si4 0.358031 0.314664 0.433174
Si Si5 0.250000 0.000000 0.500000
Si Si6 0.622628 0.188508 0.748212
Si Si7 0.854120 0.059958 0.951598
Si Si8 0.054666 0.185684 0.767710
O O1 0.252887 0.106781 0.772636
O O2 0.320318 0.185624 0.807114
O O3 0.250000 0.170093 0.000000
O O4 0.321281 0.099743 0.956833
O O5 0.811670 0.145318 0.603293
O O6 0.841586 0.070249 0.790905
O O7 0.785706 0.039121 0.590928
O O8 0.913058 0.071180 0.984642
O O9 0.932751 0.171871 0.926021
O O10 0.000000 0.111101 0.067528
O O11 0.916945 0.147034 0.182706
O O12 0.343582 0.250000 0.409838
O O13 0.375899 0.326011 0.587498
O O14 0.402966 0.335837 0.335298
O O15 0.602608 0.250000 0.770987
O O16 0.839203 0.000000 0.000000
O O17 0.052043 0.250000 0.753408
O O18 0.000000 0.160001 0.727993
#
# Coordination Sequence:
#
# PCOD8280329 Si02
#       8
#    16  16  16  16   4  16  16  16
#     4   9  20  36  54  77 106 142 184 229 276 324
#     4  11  21  38  56  83 112 152 192 240 280 339
#     4  10  20  36  57  82 108 141 184 232 277 328
#     4  10  21  36  56  82 116 151 184 228 288 345
#     4  12  24  32  56  80 110 152 200 232 280 344
#     4  10  21  35  52  81 115 145 178 222 275 335
#     4  10  20  36  58  81 108 142 185 238 287 328
#     4   9  17  32  55  81 107 140 182 224 272 333
#
# _framework density 18.521514
#
# number of rings (size 3 to 8) (size 9 to 14) (size 15 to 20)
#    0.000    2.069    1.379    2.069    0.000    5.517 
#    0.000    3.103    0.000    0.000    0.000    1.931 
#    0.000    0.000    0.000    0.000    0.000    0.000 
#
# Total GULP energy -719002.087615 kJ/mol
# GULP energy per Si atom -12396.587718 kJ/mol
# Density = 1.847936 g / cm^3
# Si number density = 18.521514 Si / 1000 Ang^3
#
#
#
# Elastic Constant Matrix: (Units=GPa)
#
#
# Indices 1 2 3 4 5 6 
#
# 1 85.0464 22.9684 38.9850 0.0000 0.0000 0.0000
# 2 22.9684 66.7929 35.6330 0.0000 0.0000 0.0000
# 3 38.9850 35.6330 102.5140 0.0000 0.0000 0.0000
# 4 0.0000 0.0000 0.0000 19.6604 0.0000 0.0000
# 5 0.0000 0.0000 0.0000 0.0000 417.6805 0.0000
# 6 0.0000 0.0000 0.0000 0.0000 0.0000 -0.6644
#
#
#
# Elastic Compliance Matrix: (Units=1/GPa)
#
#
# Indices 1 2 3 4 5 6 
#
# 1 0.014579 -0.002524 -0.004667 0.000000 0.000000 0.000000
# 2 -0.002524 0.018817 -0.005581 0.000000 0.000000 0.000000
# 3 -0.004667 -0.005581 0.013469 0.000000 0.000000 0.000000
# 4 0.000000 0.000000 0.000000 0.050864 0.000000 0.000000
# 5 0.000000 0.000000 0.000000 0.000000 0.002394 0.000000
# 6 0.000000 0.000000 0.000000 0.000000 0.000000 -1.505215
#
#
# Mechanical properties :
#
#
# Convention : Reuss Voigt Hill
#
# Bulk Modulus (GPa) = 46.89924 49.94733 48.42329
# Shear Modulus (GPa) = -3.64314 97.78642 47.07164
#
# Velocity S-wave (km/s) = -1.40401 7.27398 5.04676
# Velocity P-wave (km/s) = 4.76950 9.87792 7.75634
#
# Compressibility (1/GPa) = 0.02132231
#
# Stress axis : x y z
#
# Youngs Moduli (GPa) = 68.59074 53.14418 74.24184
#
# Poissons Ratio (x) = 0.13411 0.34650
# Poissons Ratio (y) = 0.17309 0.41433
# Poissons Ratio (z) = 0.32012 0.29659
#
# Static dielectric constant tensor:
#      x y z
#    x 3.770090 0.000000 0.000000 
#    y 0.000000 3.714490 0.000000 
#    z 0.000000 0.000000 3.579490 
# 
# 
# High freq. dielectric constant tensor:
#      x y z
#    x 1.719750 0.000000 0.000000 
#    y 0.000000 1.699810 0.000000 
#    z 0.000000 0.000000 1.727800 
# 
# From -- ./inp_files/14041.got.cif
#   From: 2010.03.12/outbox.cif.g09.slc.cpg/sg67_8_cif.got.tgz:14041.got - 2010.04.10 22:41:39.
