data_PCOD8280870
_publ_section_title
;
Structure prediction by ZEFSAII (Michael W. Deem and Ramdas Pophale) SiO2 
 PCOD8280870
Probable space group: C M M A
;
_chemical_formula_sum "Si O2"
_cell_formula_units_Z 112
_cell_length_a 14.555454
_cell_length_b 23.553270
_cell_length_c 15.566517
_cell_angle_alpha 90.000000
_cell_angle_beta 90.000000
_cell_angle_gamma 90.000000
_cell_volume 5336.646265
_symmetry_space_group_name_H-M "C M M A"
_symmetry_group_IT_number 67
_symmetry_cell_setting 'orthorhombic'
loop_
_space_group_symop_operation_xyz
x,y,z
-x,1/2-y,z
x,-y,-z
-x,1/2+y,-z
-x,-y,-z
x,1/2+y,-z
-x,y,z
x,1/2-y,z
1/2+x,1/2+y,z
1/2-x,-y,z
1/2+x,1/2-y,-z
1/2-x,y,-z
1/2-x,1/2-y,-z
1/2+x,y,-z
1/2-x,1/2+y,z
1/2+x,-y,z
loop_
_atom_site_type_symbol
_atom_site_label
_atom_site_fract_x
_atom_site_fract_y
_atom_site_fract_z
Si Si1 0.601145 0.186867 0.693148
Si Si2 0.233085 0.584780 0.100369
Si Si3 0.892938 0.017983 0.166662
Si Si4 0.215003 0.685361 0.217951
Si Si5 0.604807 0.504585 0.363623
Si Si6 0.348612 0.389125 0.534973
Si Si7 0.101148 0.380263 0.644111
O O1 0.500000 0.173436 0.732085
O O2 0.604224 0.250000 0.653606
O O3 0.675925 0.181943 0.767915
O O4 0.621630 0.143750 0.618275
O O5 0.157471 0.538426 0.130159
O O6 0.335726 0.571559 0.133365
O O7 0.194660 0.644566 0.137163
O O8 0.250000 0.588452 0.000000
O O9 0.886426 0.028684 0.268157
O O10 0.000000 0.017547 0.136482
O O11 0.183446 0.750000 0.197776
O O12 0.163008 0.664336 0.304165
O O13 0.500000 0.494864 0.390576
O O14 0.647702 0.544370 0.437658
O O15 0.652319 0.442134 0.357494
O O16 0.250000 0.372311 0.500000
O O17 0.413527 0.367765 0.457091
O O18 0.000000 0.382052 0.688446
#
# Coordination Sequence:
#
# PCOD8280870 Si02
#       7
#    16  16  16  16  16  16  16
#     4  10  22  42  64  85 116 160 213 267 311 362
#     4  11  24  40  64  99 131 162 206 259 324 397
#     4  10  21  40  68  96 131 170 207 254 313 384
#     4  11  24  44  67  91 122 166 217 267 322 381
#     4  10  21  37  59  87 125 168 210 252 307 368
#     4  12  23  35  58  92 127 166 210 260 317 368
#     4  11  23  40  58  86 127 171 215 260 305 367
#
# _framework density 20.986964
#
# number of rings (size 3 to 8) (size 9 to 14) (size 15 to 20)
#    0.000    1.286    2.857    3.429    0.000    6.571 
#    0.000    0.000    0.000    0.000    0.000    4.000 
#    0.000    0.000    0.000    0.000    0.000    0.000 
#
# Total GULP energy -693852.180158 kJ/mol
# GULP energy per Si atom -12390.217503 kJ/mol
# Density = 2.093920 g / cm^3
# Si number density = 20.986964 Si / 1000 Ang^3
#
#
#
# Elastic Constant Matrix: (Units=GPa)
#
#
# Indices 1 2 3 4 5 6 
#
# 1 108.4622 22.4591 12.8402 0.0000 0.0000 0.0000
# 2 22.4591 106.4925 17.1833 0.0000 0.0000 0.0000
# 3 12.8402 17.1833 66.6175 0.0000 0.0000 0.0000
# 4 0.0000 0.0000 0.0000 10.5072 0.0000 0.0000
# 5 0.0000 0.0000 0.0000 0.0000 16.4652 0.0000
# 6 0.0000 0.0000 0.0000 0.0000 0.0000 22.6574
#
#
#
# Elastic Compliance Matrix: (Units=1/GPa)
#
#
# Indices 1 2 3 4 5 6 
#
# 1 0.009766 -0.001832 -0.001410 0.000000 0.000000 0.000000
# 2 -0.001832 0.010142 -0.002263 0.000000 0.000000 0.000000
# 3 -0.001410 -0.002263 0.015866 0.000000 0.000000 0.000000
# 4 0.000000 0.000000 0.000000 0.095173 0.000000 0.000000
# 5 0.000000 0.000000 0.000000 0.000000 0.060734 0.000000
# 6 0.000000 0.000000 0.000000 0.000000 0.000000 0.044136
#
#
# Mechanical properties :
#
#
# Convention : Reuss Voigt Hill
#
# Bulk Modulus (GPa) = 40.37984 42.94858 41.66421
# Shear Modulus (GPa) = 19.60158 25.19861 22.40009
#
# Velocity S-wave (km/s) = 3.05944 3.46884 3.27055
# Velocity P-wave (km/s) = 5.63582 6.04588 5.84444
#
# Compressibility (1/GPa) = 0.02476483
#
# Stress axis : x y z
#
# Youngs Moduli (GPa) = 102.39521 98.60122 63.02601
#
# Poissons Ratio (x) = 0.18065 0.08885
# Poissons Ratio (y) = 0.18761 0.14262
# Poissons Ratio (z) = 0.14435 0.22312
#
# Static dielectric constant tensor:
#      x y z
#    x 4.099500 0.000000 0.000000 
#    y 0.000000 3.935700 0.000000 
#    z 0.000000 0.000000 3.762910 
# 
# 
# High freq. dielectric constant tensor:
#      x y z
#    x 1.831440 0.000000 0.000000 
#    y 0.000000 1.816870 0.000000 
#    z 0.000000 0.000000 1.803330 
# 
# From -- ./inp_files/27473.got.cif
#   From: 2010.03.12/outbox.cif.g09.slc.cpg/sg67_14_cif.got.tgz:27473.got - 2010.04.10 22:41:39.
