data_PCOD8280920
_publ_section_title
;
Structure prediction by ZEFSAII (Michael W. Deem and Ramdas Pophale) SiO2 
 PCOD8280920
Probable space group: C M M A
;
_chemical_formula_sum "Si O2"
_cell_formula_units_Z 64
_cell_length_a 8.392171
_cell_length_b 27.832947
_cell_length_c 13.869597
_cell_angle_alpha 90.000000
_cell_angle_beta 90.000000
_cell_angle_gamma 90.000000
_cell_volume 3239.644526
_symmetry_space_group_name_H-M "C M M A"
_symmetry_group_IT_number 67
_symmetry_cell_setting 'orthorhombic'
loop_
_space_group_symop_operation_xyz
x,y,z
-x,1/2-y,z
x,-y,-z
-x,1/2+y,-z
-x,-y,-z
x,1/2+y,-z
-x,y,z
x,1/2-y,z
1/2+x,1/2+y,z
1/2-x,-y,z
1/2+x,1/2-y,-z
1/2-x,y,-z
1/2-x,1/2-y,-z
1/2+x,y,-z
1/2-x,1/2+y,z
1/2+x,-y,z
loop_
_atom_site_type_symbol
_atom_site_label
_atom_site_fract_x
_atom_site_fract_y
_atom_site_fract_z
Si Si1 0.314396 0.133946 0.103600
Si Si2 0.813521 0.614627 0.395927
Si Si3 0.185269 0.804763 0.731231
Si Si4 0.313705 0.947893 0.229023
O O1 0.500000 0.121927 0.099342
O O2 0.285230 0.177954 0.176441
O O3 0.220943 0.086687 0.138799
O O4 0.250000 0.149705 0.000000
O O5 0.750000 0.599587 0.500000
O O6 0.727618 0.663487 0.361925
O O7 0.776519 0.571022 0.323760
O O8 0.000000 0.624223 0.398958
O O9 0.230153 0.750000 0.707784
O O10 0.000000 0.810948 0.755761
O O11 0.500000 0.949190 0.250897
O O12 0.250000 0.000000 0.201421
#
# Coordination Sequence:
#
# PCOD8280920 Si02
#       4
#    16  16  16  16
#     4  11  22  38  59  84 114 149 188 231 280 331
#     4  11  22  38  59  84 114 149 188 231 280 331
#     4  10  21  38  59  84 114 148 187 232 281 333
#     4  11  22  39  60  85 115 147 186 230 279 333
#
# _framework density 19.755254999999998
#
# number of rings (size 3 to 8) (size 9 to 14) (size 15 to 20)
#    0.000    1.250    0.000   10.500    0.000    4.000 
#    0.000    5.000    0.000    0.000    0.000    0.000 
#    0.000    0.000    0.000    0.000    0.000    0.000 
#
# Total GULP energy -397007.536004 kJ/mol
# GULP energy per Si atom -12406.485500 kJ/mol
# Density = 1.971029 g / cm^3
# Si number density = 19.755255 Si / 1000 Ang^3
#
#
#
# Elastic Constant Matrix: (Units=GPa)
#
#
# Indices 1 2 3 4 5 6 
#
# 1 93.7927 25.6198 16.3132 0.0000 0.0000 0.0000
# 2 25.6198 73.4701 -18.5887 0.0000 0.0000 0.0000
# 3 16.3132 -18.5887 69.7183 0.0000 0.0000 0.0000
# 4 0.0000 0.0000 0.0000 74.5105 0.0000 0.0000
# 5 0.0000 0.0000 0.0000 0.0000 36.5666 0.0000
# 6 0.0000 0.0000 0.0000 0.0000 0.0000 34.0880
#
#
#
# Elastic Compliance Matrix: (Units=1/GPa)
#
#
# Indices 1 2 3 4 5 6 
#
# 1 0.013010 -0.005691 -0.004561 0.000000 0.000000 0.000000
# 2 -0.005691 0.017085 0.005887 0.000000 0.000000 0.000000
# 3 -0.004561 0.005887 0.016980 0.000000 0.000000 0.000000
# 4 0.000000 0.000000 0.000000 0.013421 0.000000 0.000000
# 5 0.000000 0.000000 0.000000 0.000000 0.027347 0.000000
# 6 0.000000 0.000000 0.000000 0.000000 0.000000 0.029336
#
#
# Mechanical properties :
#
#
# Convention : Reuss Voigt Hill
#
# Bulk Modulus (GPa) = 26.07950 31.51884 28.79917
# Shear Modulus (GPa) = 36.05145 43.27547 39.66346
#
# Velocity S-wave (km/s) = 4.27652 4.68544 4.48564
# Velocity P-wave (km/s) = 6.13309 6.72759 6.43721
#
# Compressibility (1/GPa) = 0.03834429
#
# Stress axis : x y z
#
# Youngs Moduli (GPa) = 76.86646 58.53155 58.89170
#
# Poissons Ratio (x) = 0.33308 0.26863
# Poissons Ratio (y) = 0.43742 -0.34668
# Poissons Ratio (z) = 0.35062 -0.34456
#
# Static dielectric constant tensor:
#      x y z
#    x 3.808540 0.000000 0.000000 
#    y 0.000000 3.657840 0.000000 
#    z 0.000000 0.000000 3.733070 
# 
# 
# High freq. dielectric constant tensor:
#      x y z
#    x 1.792050 0.000000 0.000000 
#    y 0.000000 1.767400 0.000000 
#    z 0.000000 0.000000 1.767830 
# 
# From -- ./inp_files/24822.got.cif
#   From: 2010.03.12/outbox.cif.g09.slc.cpg/sg67_13_cif.got.tgz:24822.got - 2010.04.10 22:41:39.
