data_PCOD8280182
_publ_section_title
;
Structure prediction by ZEFSAII (Michael W. Deem and Ramdas Pophale) SiO2 
 PCOD8280182
Probable space group: C M M A
;
_chemical_formula_sum "Si O2"
_cell_formula_units_Z 80
_cell_length_a 19.136309
_cell_length_b 8.796721
_cell_length_c 25.011335
_cell_angle_alpha 90.000000
_cell_angle_beta 90.000000
_cell_angle_gamma 90.000000
_cell_volume 4210.327378
_symmetry_space_group_name_H-M "C M M A"
_symmetry_group_IT_number 67
_symmetry_cell_setting 'orthorhombic'
loop_
_space_group_symop_operation_xyz
x,y,z
-x,1/2-y,z
x,-y,-z
-x,1/2+y,-z
-x,-y,-z
x,1/2+y,-z
-x,y,z
x,1/2-y,z
1/2+x,1/2+y,z
1/2-x,-y,z
1/2+x,1/2-y,-z
1/2-x,y,-z
1/2-x,1/2-y,-z
1/2+x,y,-z
1/2-x,1/2+y,z
1/2+x,-y,z
loop_
_atom_site_type_symbol
_atom_site_label
_atom_site_fract_x
_atom_site_fract_y
_atom_site_fract_z
Si Si1 0.322837 0.930238 0.057287
Si Si2 0.821219 0.927503 0.238616
Si Si3 0.417605 0.075556 0.554607
Si Si4 0.918993 0.927450 0.143451
Si Si5 0.822649 0.929757 0.359332
O O1 0.315401 0.750000 0.052461
O O2 0.250000 0.000000 0.078733
O O3 0.384960 0.972611 0.097076
O O4 0.341708 0.000000 0.000000
O O5 0.808415 0.750000 0.238822
O O6 0.884994 0.973197 0.200177
O O7 0.837989 0.984417 0.298609
O O8 0.750000 0.000000 0.216360
O O9 0.500000 0.056774 0.559800
O O10 0.394080 0.250000 0.554553
O O11 0.390132 0.000000 0.500000
O O12 0.385331 0.990232 0.604923
O O13 0.907232 0.750000 0.130723
O O14 0.000000 0.969560 0.146883
O O15 0.818516 0.750000 0.364052
O O16 0.750000 0.000000 0.379869
#
# Coordination Sequence:
#
# PCOD8280182 Si02
#       5
#    16  16  16  16  16
#     4  11  22  38  60  84 110 142 183 226 271 323
#     4   9  19  35  56  80 107 143 182 222 268 319
#     4  10  21  37  56  79 108 142 180 222 270 324
#     4  10  21  37  56  81 114 148 182 222 269 320
#     4  10  20  35  56  82 111 142 180 224 270 320
#
# _framework density 19.000896999999998
#
# number of rings (size 3 to 8) (size 9 to 14) (size 15 to 20)
#    0.000    2.000    0.000    4.200    0.000    6.400 
#    0.000    4.000    0.000    0.000    0.000    0.000 
#    0.000    0.000    0.000    0.000    0.000    0.000 
#
# Total GULP energy -496158.798648 kJ/mol
# GULP energy per Si atom -12403.969966 kJ/mol
# Density = 1.895765 g / cm^3
# Si number density = 19.000897 Si / 1000 Ang^3
#
#
#
# Elastic Constant Matrix: (Units=GPa)
#
#
# Indices 1 2 3 4 5 6 
#
# 1 106.0129 50.0478 69.2781 0.0000 0.0000 0.0000
# 2 50.0478 103.5492 52.5005 0.0000 0.0000 0.0000
# 3 69.2781 52.5005 112.2059 0.0000 0.0000 0.0000
# 4 0.0000 0.0000 0.0000 29.8653 0.0000 0.0000
# 5 0.0000 0.0000 0.0000 0.0000 34.7615 0.0000
# 6 0.0000 0.0000 0.0000 0.0000 0.0000 32.3073
#
#
#
# Elastic Compliance Matrix: (Units=1/GPa)
#
#
# Indices 1 2 3 4 5 6 
#
# 1 0.016863 -0.003765 -0.008650 0.000000 0.000000 0.000000
# 2 -0.003765 0.013501 -0.003993 0.000000 0.000000 0.000000
# 3 -0.008650 -0.003993 0.016121 0.000000 0.000000 0.000000
# 4 0.000000 0.000000 0.000000 0.033484 0.000000 0.000000
# 5 0.000000 0.000000 0.000000 0.000000 0.028767 0.000000
# 6 0.000000 0.000000 0.000000 0.000000 0.000000 0.030953
#
#
# Mechanical properties :
#
#
# Convention : Reuss Voigt Hill
#
# Bulk Modulus (GPa) = 73.15136 73.93564 73.54350
# Shear Modulus (GPa) = 28.23904 29.38294 28.81099
#
# Velocity S-wave (km/s) = 3.85930 3.93669 3.89819
# Velocity P-wave (km/s) = 7.64470 7.72396 7.68443
#
# Compressibility (1/GPa) = 0.01367029
#
# Stress axis : x y z
#
# Youngs Moduli (GPa) = 59.30279 74.06790 62.03074
#
# Poissons Ratio (x) = 0.27883 0.53656
# Poissons Ratio (y) = 0.22325 0.24768
# Poissons Ratio (z) = 0.51296 0.29574
#
# Static dielectric constant tensor:
#      x y z
#    x 3.421040 0.000000 0.000000 
#    y 0.000000 3.531100 0.000000 
#    z 0.000000 0.000000 3.663190 
# 
# 
# High freq. dielectric constant tensor:
#      x y z
#    x 1.733230 0.000000 0.000000 
#    y 0.000000 1.744510 0.000000 
#    z 0.000000 0.000000 1.747750 
# 
# From -- ./inp_files/44423.got.cif
#   From: 2010.03.12/outbox.cif.g09.slc.cpg/sg67_23_cif.got.tgz:44423.got - 2010.04.10 22:41:39.
