data_PCOD8280878
_publ_section_title
;
Structure prediction by ZEFSAII (Michael W. Deem and Ramdas Pophale) SiO2 
 PCOD8280878
Probable space group: C M M A
;
_chemical_formula_sum "Si O2"
_cell_formula_units_Z 104
_cell_length_a 26.494889
_cell_length_b 8.672245
_cell_length_c 22.610435
_cell_angle_alpha 90.000000
_cell_angle_beta 90.000000
_cell_angle_gamma 90.000000
_cell_volume 5195.203463
_symmetry_space_group_name_H-M "C M M A"
_symmetry_group_IT_number 67
_symmetry_cell_setting 'orthorhombic'
loop_
_space_group_symop_operation_xyz
x,y,z
-x,1/2-y,z
x,-y,-z
-x,1/2+y,-z
-x,-y,-z
x,1/2+y,-z
-x,y,z
x,1/2-y,z
1/2+x,1/2+y,z
1/2-x,-y,z
1/2+x,1/2-y,-z
1/2-x,y,-z
1/2-x,1/2-y,-z
1/2+x,y,-z
1/2-x,1/2+y,z
1/2+x,-y,z
loop_
_atom_site_type_symbol
_atom_site_label
_atom_site_fract_x
_atom_site_fract_y
_atom_site_fract_z
Si Si1 0.648860 0.926251 0.439214
Si Si2 0.897592 0.430524 0.742650
Si Si3 0.500000 0.068137 0.064635
Si Si4 0.302835 0.432657 0.935431
Si Si5 0.697474 0.570596 0.317989
Si Si6 0.904645 0.569009 0.869378
Si Si7 0.943753 0.928561 0.633150
O O1 0.641500 0.750000 0.454362
O O2 0.690229 0.954303 0.388316
O O3 0.595047 0.993431 0.416096
O O4 0.667425 0.000000 0.500000
O O5 0.900371 0.250000 0.756281
O O6 0.843015 0.475817 0.718673
O O7 0.909232 0.525269 0.801219
O O8 0.939124 0.476215 0.693755
O O9 0.500000 0.250000 0.060983
O O10 0.449206 0.016191 0.096814
O O11 0.500000 0.000000 0.000000
O O12 0.297639 0.250000 0.939699
O O13 0.250000 0.500000 0.909709
O O14 0.349598 0.482065 0.893807
O O15 0.313618 0.500000 0.000000
O O16 0.693987 0.750000 0.301081
O O17 0.750000 0.500000 0.298311
O O18 0.912460 0.750000 0.877685
O O19 0.930113 0.750000 0.647178
O O20 0.000000 0.947178 0.607899
#
# Coordination Sequence:
#
# PCOD8280878 Si02
#       7
#    16  16   8  16  16  16  16
#     4   9  19  34  53  80 113 148 190 237 288 349
#     4  11  23  38  58  86 117 149 191 242 291 347
#     4  12  26  44  66  94 126 164 207 254 307 366
#     4  10  21  37  61  88 117 153 193 237 290 347
#     4  10  21  39  60  83 114 153 195 239 295 355
#     4  11  24  42  63  89 122 163 204 248 302 359
#     4   9  19  37  58  78 108 151 191 234 290 348
#
# _framework density 20.018466
#
# number of rings (size 3 to 8) (size 9 to 14) (size 15 to 20)
#    0.000    1.846    0.000    5.308    1.077    8.308 
#    0.000    3.077    0.000    0.000    0.000    0.000 
#    0.000    0.000    0.000    0.000    0.000    0.000 
#
# Total GULP energy -644836.099533 kJ/mol
# GULP energy per Si atom -12400.694222 kJ/mol
# Density = 1.997290 g / cm^3
# Si number density = 20.018466 Si / 1000 Ang^3
#
#
#
# Elastic Constant Matrix: (Units=GPa)
#
#
# Indices 1 2 3 4 5 6 
#
# 1 89.2235 29.8711 8.4112 0.0000 0.0000 0.0000
# 2 29.8711 84.3459 21.0536 0.0000 0.0000 0.0000
# 3 8.4112 21.0536 86.1872 0.0000 0.0000 0.0000
# 4 0.0000 0.0000 0.0000 31.7568 0.0000 0.0000
# 5 0.0000 0.0000 0.0000 0.0000 4.5192 0.0000
# 6 0.0000 0.0000 0.0000 0.0000 0.0000 29.8749
#
#
#
# Elastic Compliance Matrix: (Units=1/GPa)
#
#
# Indices 1 2 3 4 5 6 
#
# 1 0.012717 -0.004466 -0.000150 0.000000 0.000000 0.000000
# 2 -0.004466 0.014194 -0.003031 0.000000 0.000000 0.000000
# 3 -0.000150 -0.003031 0.012358 0.000000 0.000000 0.000000
# 4 0.000000 0.000000 0.000000 0.031489 0.000000 0.000000
# 5 0.000000 0.000000 0.000000 0.000000 0.221280 0.000000
# 6 0.000000 0.000000 0.000000 0.000000 0.000000 0.033473
#
#
# Mechanical properties :
#
#
# Convention : Reuss Voigt Hill
#
# Bulk Modulus (GPa) = 41.71250 42.04759 41.88005
# Shear Modulus (GPa) = 14.33493 26.59157 20.46325
#
# Velocity S-wave (km/s) = 2.67888 3.64861 3.20068
# Velocity P-wave (km/s) = 5.51822 6.22895 5.88433
#
# Compressibility (1/GPa) = 0.02397363
#
# Stress axis : x y z
#
# Youngs Moduli (GPa) = 78.63344 70.45040 80.92039
#
# Poissons Ratio (x) = 0.31466 0.01214
# Poissons Ratio (y) = 0.35120 0.24531
# Poissons Ratio (z) = 0.01180 0.21357
#
# Static dielectric constant tensor:
#      x y z
#    x 3.741700 0.000000 0.000000 
#    y 0.000000 3.605840 0.000000 
#    z 0.000000 0.000000 3.644040 
# 
# 
# High freq. dielectric constant tensor:
#      x y z
#    x 1.791480 0.000000 0.000000 
#    y 0.000000 1.784850 0.000000 
#    z 0.000000 0.000000 1.776980 
# 
# From -- ./inp_files/39943.got.cif
#   From: 2010.03.12/outbox.cif.g09.slc.cpg/sg67_20_cif.got.tgz:39943.got - 2010.04.10 22:41:39.
