data_PCOD8280249
_publ_section_title
;
Structure prediction by ZEFSAII (Michael W. Deem and Ramdas Pophale) SiO2 
 PCOD8280249
Probable space group: C M M A
;
_chemical_formula_sum "Si O2"
_cell_formula_units_Z 80
_cell_length_a 9.723151
_cell_length_b 17.767149
_cell_length_c 23.861984
_cell_angle_alpha 90.000000
_cell_angle_beta 90.000000
_cell_angle_gamma 90.000000
_cell_volume 4122.221509
_symmetry_space_group_name_H-M "C M M A"
_symmetry_group_IT_number 67
_symmetry_cell_setting 'orthorhombic'
loop_
_space_group_symop_operation_xyz
x,y,z
-x,1/2-y,z
x,-y,-z
-x,1/2+y,-z
-x,-y,-z
x,1/2+y,-z
-x,y,z
x,1/2-y,z
1/2+x,1/2+y,z
1/2-x,-y,z
1/2+x,1/2-y,-z
1/2-x,y,-z
1/2-x,1/2-y,-z
1/2+x,y,-z
1/2-x,1/2+y,z
1/2+x,-y,z
loop_
_atom_site_type_symbol
_atom_site_label
_atom_site_fract_x
_atom_site_fract_y
_atom_site_fract_z
Si Si1 0.285685 0.838920 0.630060
Si Si2 0.841851 0.927276 0.260274
Si Si3 0.151515 0.339419 0.047278
Si Si4 0.341213 0.661542 0.173458
Si Si5 0.000000 0.161310 0.539538
Si Si6 0.000000 0.339287 0.415207
O O1 0.298062 0.750000 0.639966
O O2 0.349053 0.878682 0.683593
O O3 0.365968 0.863854 0.574078
O O4 0.130004 0.866150 0.620718
O O5 0.767937 0.880642 0.211660
O O6 0.000000 0.946841 0.243045
O O7 0.750000 0.000000 0.271835
O O8 0.150259 0.250000 0.042734
O O9 0.197166 0.362021 0.109919
O O10 0.000000 0.371403 0.035154
O O11 0.250000 0.375227 0.000000
O O12 0.500000 0.639282 0.187076
O O13 0.322435 0.750000 0.182991
O O14 0.000000 0.250000 0.531785
O O15 0.000000 0.124225 0.477622
O O16 0.000000 0.250000 0.421587
#
# Coordination Sequence:
#
# PCOD8280249 Si02
#       6
#    16  16  16  16   8   8
#     4  10  20  35  58  86 112 141 180 225 273 330
#     4  12  26  41  57  77 108 149 191 238 286 332
#     4   8  14  26  47  79 116 149 179 217 267 320
#     4   9  19  36  59  86 116 149 187 230 275 328
#     4   9  16  32  55  85 117 139 172 223 272 323
#     4   9  18  30  55  89 115 141 172 215 274 331
#
# _framework density 19.407012000000002
#
# number of rings (size 3 to 8) (size 9 to 14) (size 15 to 20)
#    0.000    2.400    1.000    3.000    2.800    4.400 
#    0.000    2.000    0.000    4.200    0.000    4.200 
#    0.000    0.000    0.000    0.000    0.000    0.000 
#
# Total GULP energy -495821.833034 kJ/mol
# GULP energy per Si atom -12395.545826 kJ/mol
# Density = 1.936284 g / cm^3
# Si number density = 19.407012 Si / 1000 Ang^3
#
#
#
# Elastic Constant Matrix: (Units=GPa)
#
#
# Indices 1 2 3 4 5 6 
#
# 1 138.0127 31.1451 48.8145 0.0000 0.0000 0.0000
# 2 31.1451 40.5922 27.0866 0.0000 0.0000 0.0000
# 3 48.8145 27.0866 110.2160 0.0000 0.0000 0.0000
# 4 0.0000 0.0000 0.0000 -6.5403 0.0000 0.0000
# 5 0.0000 0.0000 0.0000 0.0000 74.3033 0.0000
# 6 0.0000 0.0000 0.0000 0.0000 0.0000 21.8957
#
#
#
# Elastic Compliance Matrix: (Units=1/GPa)
#
#
# Indices 1 2 3 4 5 6 
#
# 1 0.009471 -0.005344 -0.002881 0.000000 0.000000 0.000000
# 2 -0.005344 0.032483 -0.005616 0.000000 0.000000 0.000000
# 3 -0.002881 -0.005616 0.011729 0.000000 0.000000 0.000000
# 4 0.000000 0.000000 0.000000 -0.152897 0.000000 0.000000
# 5 0.000000 0.000000 0.000000 0.000000 0.013458 0.000000
# 6 0.000000 0.000000 0.000000 0.000000 0.000000 0.045671
#
#
# Mechanical properties :
#
#
# Convention : Reuss Voigt Hill
#
# Bulk Modulus (GPa) = 38.46081 55.87925 47.17003
# Shear Modulus (GPa) = -1338.84168 30.05004 -654.39582
#
# Velocity S-wave (km/s) = -26.29397 3.93925 -18.38281
# Velocity P-wave (km/s) = 30.03281 7.03890 20.64489
#
# Compressibility (1/GPa) = 0.02600049
#
# Stress axis : x y z
#
# Youngs Moduli (GPa) = 105.58801 30.78514 85.25575
#
# Poissons Ratio (x) = 0.16452 0.24564
# Poissons Ratio (y) = 0.56426 0.47881
# Poissons Ratio (z) = 0.30422 0.17289
#
# Static dielectric constant tensor:
#      x y z
#    x 3.811240 0.000000 0.000000 
#    y 0.000000 3.075370 0.000000 
#    z 0.000000 0.000000 3.701440 
# 
# 
# High freq. dielectric constant tensor:
#      x y z
#    x 1.769160 0.000000 0.000000 
#    y 0.000000 1.703050 0.000000 
#    z 0.000000 0.000000 1.766230 
# 
# From -- ./inp_files/40591.got.cif
#   From: 2010.03.12/outbox.cif.g09.slc.cpg/sg67_21_cif.got.tgz:40591.got - 2010.04.10 22:41:39.
