data_PCOD8280961
_publ_section_title
;
Structure prediction by ZEFSAII (Michael W. Deem and Ramdas Pophale) SiO2 
 PCOD8280961
Probable space group: C M M A
;
_chemical_formula_sum "Si O2"
_cell_formula_units_Z 80
_cell_length_a 17.590771
_cell_length_b 9.946479
_cell_length_c 23.886303
_cell_angle_alpha 90.000000
_cell_angle_beta 90.000000
_cell_angle_gamma 90.000000
_cell_volume 4179.296488
_symmetry_space_group_name_H-M "C M M A"
_symmetry_group_IT_number 67
_symmetry_cell_setting 'orthorhombic'
loop_
_space_group_symop_operation_xyz
x,y,z
-x,1/2-y,z
x,-y,-z
-x,1/2+y,-z
-x,-y,-z
x,1/2+y,-z
-x,y,z
x,1/2-y,z
1/2+x,1/2+y,z
1/2-x,-y,z
1/2+x,1/2-y,-z
1/2-x,y,-z
1/2-x,1/2-y,-z
1/2+x,y,-z
1/2-x,1/2+y,z
1/2+x,-y,z
loop_
_atom_site_type_symbol
_atom_site_label
_atom_site_fract_x
_atom_site_fract_y
_atom_site_fract_z
Si Si1 0.679399 0.904875 0.779468
Si Si2 0.411717 0.505546 0.880987
Si Si3 0.349213 0.750000 0.944932
Si Si4 0.089217 0.599049 0.453526
Si Si5 0.675182 0.250000 0.923877
Si Si6 0.681616 0.903421 0.653176
O O1 0.704613 0.750000 0.787799
O O2 0.608805 0.938867 0.819536
O O3 0.651374 0.931429 0.715963
O O4 0.750000 0.000000 0.794742
O O5 0.500000 0.464774 0.882474
O O6 0.395639 0.618831 0.927112
O O7 0.359278 0.379153 0.894188
O O8 0.266222 0.750000 0.915890
O O9 0.344894 0.750000 0.011214
O O10 0.125641 0.500000 0.500000
O O11 0.113404 0.750000 0.470211
O O12 0.115875 0.563257 0.391000
O O13 0.000000 0.581030 0.452506
O O14 0.709952 0.750000 0.647858
O O15 0.750000 0.000000 0.637695
#
# Coordination Sequence:
#
# PCOD8280961 Si02
#       6
#    16  16   8  16   8  16
#     4  10  21  38  61  84 112 152 195 236 284 348
#     4  12  25  39  60  91 121 150 189 241 295 340
#     4  11  23  43  67  87 113 153 202 233 276 349
#     4   9  18  33  53  77 108 147 188 230 280 335
#     4  11  25  43  63  87 117 157 192 233 286 351
#     4   9  19  35  55  82 110 144 187 233 280 328
#
# _framework density 19.141977000000001
#
# number of rings (size 3 to 8) (size 9 to 14) (size 15 to 20)
#    0.000    1.800    1.000    3.000    1.400    6.000 
#    0.000    4.000    0.000    0.000    0.000    0.000 
#    0.000    0.000    0.000    0.000    0.000    0.000 
#
# Total GULP energy -496072.978608 kJ/mol
# GULP energy per Si atom -12401.824465 kJ/mol
# Density = 1.909841 g / cm^3
# Si number density = 19.141977 Si / 1000 Ang^3
#
#
#
# Elastic Constant Matrix: (Units=GPa)
#
#
# Indices 1 2 3 4 5 6 
#
# 1 60.9067 23.9343 32.8217 0.0000 0.0000 0.0000
# 2 23.9343 100.8124 39.2562 0.0000 0.0000 0.0000
# 3 32.8217 39.2562 103.9983 0.0000 0.0000 0.0000
# 4 0.0000 0.0000 0.0000 33.3636 0.0000 0.0000
# 5 0.0000 0.0000 0.0000 0.0000 29.9161 0.0000
# 6 0.0000 0.0000 0.0000 0.0000 0.0000 25.5993
#
#
#
# Elastic Compliance Matrix: (Units=1/GPa)
#
#
# Indices 1 2 3 4 5 6 
#
# 1 0.020409 -0.002740 -0.005407 0.000000 0.000000 0.000000
# 2 -0.002740 0.011997 -0.003664 0.000000 0.000000 0.000000
# 3 -0.005407 -0.003664 0.012705 0.000000 0.000000 0.000000
# 4 0.000000 0.000000 0.000000 0.029973 0.000000 0.000000
# 5 0.000000 0.000000 0.000000 0.000000 0.033427 0.000000
# 6 0.000000 0.000000 0.000000 0.000000 0.000000 0.039064
#
#
# Mechanical properties :
#
#
# Convention : Reuss Voigt Hill
#
# Bulk Modulus (GPa) = 46.53421 50.86019 48.69720
# Shear Modulus (GPa) = 28.03364 29.08949 28.56156
#
# Velocity S-wave (km/s) = 3.83104 3.90252 3.86695
# Velocity P-wave (km/s) = 6.62812 6.85083 6.74040
#
# Compressibility (1/GPa) = 0.02148957
#
# Stress axis : x y z
#
# Youngs Moduli (GPa) = 48.99831 83.35752 78.71049
#
# Poissons Ratio (x) = 0.22840 0.42557
# Poissons Ratio (y) = 0.13425 0.28836
# Poissons Ratio (z) = 0.26492 0.30539
#
# Static dielectric constant tensor:
#      x y z
#    x 3.289110 0.000000 0.000000 
#    y 0.000000 3.671900 0.000000 
#    z 0.000000 0.000000 3.717700 
# 
# 
# High freq. dielectric constant tensor:
#      x y z
#    x 1.724460 0.000000 0.000000 
#    y 0.000000 1.757000 0.000000 
#    z 0.000000 0.000000 1.759810 
# 
# From -- ./inp_files/44467.got.cif
#   From: 2010.03.12/outbox.cif.g09.slc.cpg/sg67_23_cif.got.tgz:44467.got - 2010.04.10 22:41:39.
