data_PCOD8280282
_publ_section_title
;
Structure prediction by ZEFSAII (Michael W. Deem and Ramdas Pophale) SiO2 
 PCOD8280282
Probable space group: C M M A
;
_chemical_formula_sum "Si O2"
_cell_formula_units_Z 112
_cell_length_a 21.972489
_cell_length_b 23.255154
_cell_length_c 11.099329
_cell_angle_alpha 90.000000
_cell_angle_beta 90.000000
_cell_angle_gamma 90.000000
_cell_volume 5671.464268
_symmetry_space_group_name_H-M "C M M A"
_symmetry_group_IT_number 67
_symmetry_cell_setting 'orthorhombic'
loop_
_space_group_symop_operation_xyz
x,y,z
-x,1/2-y,z
x,-y,-z
-x,1/2+y,-z
-x,-y,-z
x,1/2+y,-z
-x,y,z
x,1/2-y,z
1/2+x,1/2+y,z
1/2-x,-y,z
1/2+x,1/2-y,-z
1/2-x,y,-z
1/2-x,1/2-y,-z
1/2+x,y,-z
1/2-x,1/2+y,z
1/2+x,-y,z
loop_
_atom_site_type_symbol
_atom_site_label
_atom_site_fract_x
_atom_site_fract_y
_atom_site_fract_z
Si Si1 0.872501 0.909488 0.252144
Si Si2 0.929675 0.578549 0.000378
Si Si3 0.071389 0.682529 0.410154
Si Si4 0.876831 0.371855 0.355205
Si Si5 0.068531 0.021137 0.248895
Si Si6 0.748173 0.565962 0.357223
Si Si7 0.931096 0.812483 0.851052
O O1 0.883554 0.924549 0.112091
O O2 0.912262 0.853653 0.290053
O O3 0.802693 0.899755 0.290888
O O4 0.893108 0.970113 0.313123
O O5 0.000000 0.571377 0.041607
O O6 0.914441 0.532670 0.893583
O O7 0.916914 0.642271 0.953384
O O8 0.088043 0.750000 0.393451
O O9 0.114033 0.652949 0.511321
O O10 0.000000 0.676174 0.440964
O O11 0.926100 0.421342 0.327486
O O12 0.812396 0.400137 0.322445
O O13 0.887274 0.319337 0.264083
O O14 0.000000 0.999855 0.253550
O O15 0.750000 0.500000 0.311119
O O16 0.750000 0.568232 0.500000
O O17 0.919562 0.750000 0.908045
O O18 0.000000 0.819373 0.803379
#
# Coordination Sequence:
#
# PCOD8280282 Si02
#       7
#    16  16  16  16  16  16  16
#     4  12  22  38  60  85 120 162 198 239 302 358
#     4   9  19  35  58  90 126 157 192 243 300 361
#     4  11  24  39  58  89 123 153 194 250 304 356
#     4  11  20  38  60  85 117 156 199 249 298 349
#     4  10  20  35  60  92 121 150 192 247 308 364
#     4  11  23  42  59  82 118 162 200 244 291 352
#     4   9  18  35  62  91 119 156 197 242 298 354
#
# _framework density 19.747986999999998
#
# number of rings (size 3 to 8) (size 9 to 14) (size 15 to 20)
#    0.000    1.571    2.857    4.286    0.000    3.429 
#    0.000    7.857    0.000    0.857    0.000    0.000 
#    0.000    0.000    0.000    0.000    0.000    0.000 
#
# Total GULP energy -694042.564157 kJ/mol
# GULP energy per Si atom -12393.617217 kJ/mol
# Density = 1.970304 g / cm^3
# Si number density = 19.747987 Si / 1000 Ang^3
#
#
#
# Elastic Constant Matrix: (Units=GPa)
#
#
# Indices 1 2 3 4 5 6 
#
# 1 95.8407 42.3770 31.7716 0.0000 0.0000 0.0000
# 2 42.3770 102.5014 31.9357 0.0000 0.0000 0.0000
# 3 31.7716 31.9357 66.0288 0.0000 0.0000 0.0000
# 4 0.0000 0.0000 0.0000 9.6179 0.0000 0.0000
# 5 0.0000 0.0000 0.0000 0.0000 22.8963 0.0000
# 6 0.0000 0.0000 0.0000 0.0000 0.0000 24.2303
#
#
#
# Elastic Compliance Matrix: (Units=1/GPa)
#
#
# Indices 1 2 3 4 5 6 
#
# 1 0.013856 -0.004299 -0.004588 0.000000 0.000000 0.000000
# 2 -0.004299 0.012821 -0.004132 0.000000 0.000000 0.000000
# 3 -0.004588 -0.004132 0.019351 0.000000 0.000000 0.000000
# 4 0.000000 0.000000 0.000000 0.103973 0.000000 0.000000
# 5 0.000000 0.000000 0.000000 0.000000 0.043675 0.000000
# 6 0.000000 0.000000 0.000000 0.000000 0.000000 0.041271
#
#
# Mechanical properties :
#
#
# Convention : Reuss Voigt Hill
#
# Bulk Modulus (GPa) = 50.02669 52.94884 51.48777
# Shear Modulus (GPa) = 18.68129 21.90135 20.29132
#
# Velocity S-wave (km/s) = 3.07902 3.33384 3.20896
# Velocity P-wave (km/s) = 6.16669 6.45676 6.31339
#
# Compressibility (1/GPa) = 0.01998933
#
# Stress axis : x y z
#
# Youngs Moduli (GPa) = 72.17258 77.99848 51.67652
#
# Poissons Ratio (x) = 0.33531 0.23708
# Poissons Ratio (y) = 0.31026 0.21355
# Poissons Ratio (z) = 0.33111 0.32232
#
# Static dielectric constant tensor:
#      x y z
#    x 3.480360 0.000000 0.000000 
#    y 0.000000 4.247560 0.000000 
#    z 0.000000 0.000000 3.447060 
# 
# 
# High freq. dielectric constant tensor:
#      x y z
#    x 1.747110 0.000000 0.000000 
#    y 0.000000 1.784970 0.000000 
#    z 0.000000 0.000000 1.756320 
# 
# From -- ./inp_files/21084.got.cif
#   From: 2010.03.12/outbox.cif.g09.slc.cpg/sg67_11_cif.got.tgz:21084.got - 2010.04.10 22:41:39.
