data_PCOD8280697
_publ_section_title
;
Structure prediction by ZEFSAII (Michael W. Deem and Ramdas Pophale) SiO2 
 PCOD8280697
Probable space group: C M M A
;
_chemical_formula_sum "Si O2"
_cell_formula_units_Z 116
_cell_length_a 25.279717
_cell_length_b 9.138782
_cell_length_c 25.698391
_cell_angle_alpha 90.000000
_cell_angle_beta 90.000000
_cell_angle_gamma 90.000000
_cell_volume 5936.991922
_symmetry_space_group_name_H-M "C M M A"
_symmetry_group_IT_number 67
_symmetry_cell_setting 'orthorhombic'
loop_
_space_group_symop_operation_xyz
x,y,z
-x,1/2-y,z
x,-y,-z
-x,1/2+y,-z
-x,-y,-z
x,1/2+y,-z
-x,y,z
x,1/2-y,z
1/2+x,1/2+y,z
1/2-x,-y,z
1/2+x,1/2-y,-z
1/2-x,y,-z
1/2-x,1/2-y,-z
1/2+x,y,-z
1/2-x,1/2+y,z
1/2+x,-y,z
loop_
_atom_site_type_symbol
_atom_site_label
_atom_site_fract_x
_atom_site_fract_y
_atom_site_fract_z
Si Si1 0.941578 0.921371 0.554338
Si Si2 0.094405 0.579976 0.946049
Si Si3 0.300432 0.914794 0.114119
Si Si4 0.197312 0.921388 0.302232
Si Si5 0.663031 0.413378 0.417080
Si Si6 0.440727 0.087759 0.151371
Si Si7 0.750000 0.000000 0.500000
Si Si8 0.861343 0.423787 0.215734
O O1 0.932088 0.750000 0.546354
O O2 0.000000 0.947289 0.582120
O O3 0.944804 0.000000 0.500000
O O4 0.888480 0.982288 0.581294
O O5 0.077312 0.750000 0.949533
O O6 0.155384 0.565548 0.929753
O O7 0.059855 0.496956 0.903322
O O8 0.084161 0.500000 0.000000
O O9 0.282387 0.750000 0.120018
O O10 0.319696 0.969677 0.170774
O O11 0.250000 0.000000 0.093986
O O12 0.200080 0.750000 0.289557
O O13 0.190960 0.952958 0.363172
O O14 0.250000 0.000000 0.282443
O O15 0.150468 0.997195 0.270170
O O16 0.640041 0.250000 0.416678
O O17 0.708247 0.416648 0.462371
O O18 0.500000 0.110914 0.169049
O O19 0.413639 0.250000 0.146785
O O20 0.416770 0.987300 0.196654
O O21 0.865124 0.250000 0.223392
#
# Coordination Sequence:
#
# PCOD8280697 Si02
#       8
#    16  16  16  16  16  16   4  16
#     4  10  21  37  59  85 113 148 192 240 288 342
#     4  10  21  36  53  78 113 151 193 239 287 344
#     4   9  19  33  51  76 105 140 184 228 275 332
#     4  11  23  39  58  87 122 156 195 239 292 349
#     4  11  24  39  60  90 123 161 203 248 299 356
#     4  10  21  38  61  87 113 146 189 238 296 356
#     4  12  22  40  62  90 126 164 206 246 300 360
#     4  10  21  38  59  84 112 147 189 235 287 345
#
# _framework density 19.538515
#
# number of rings (size 3 to 8) (size 9 to 14) (size 15 to 20)
#    0.000    1.793    1.379    3.517    0.000    8.552 
#    0.000    2.069    0.000    0.828    0.000    0.000 
#    0.000    0.000    0.000    0.000    0.000    0.000 
#
# Total GULP energy -718699.661632 kJ/mol
# GULP energy per Si atom -12391.373476 kJ/mol
# Density = 1.949404 g / cm^3
# Si number density = 19.538515 Si / 1000 Ang^3
#
#
#
# Elastic Constant Matrix: (Units=GPa)
#
#
# Indices 1 2 3 4 5 6 
#
# 1 99.7240 52.9124 25.6252 0.0000 0.0000 0.0000
# 2 52.9124 131.5939 48.9026 0.0000 0.0000 0.0000
# 3 25.6252 48.9026 108.9809 0.0000 0.0000 0.0000
# 4 0.0000 0.0000 0.0000 32.3132 0.0000 0.0000
# 5 0.0000 0.0000 0.0000 0.0000 -0.3116 0.0000
# 6 0.0000 0.0000 0.0000 0.0000 0.0000 29.0748
#
#
#
# Elastic Compliance Matrix: (Units=1/GPa)
#
#
# Indices 1 2 3 4 5 6 
#
# 1 0.012811 -0.004839 -0.000841 0.000000 0.000000 0.000000
# 2 -0.004839 0.010947 -0.003775 0.000000 0.000000 0.000000
# 3 -0.000841 -0.003775 0.011067 0.000000 0.000000 0.000000
# 4 0.000000 0.000000 0.000000 0.030947 0.000000 0.000000
# 5 0.000000 0.000000 0.000000 0.000000 -3.209451 0.000000
# 6 0.000000 0.000000 0.000000 0.000000 0.000000 0.034394
#
#
# Mechanical properties :
#
#
# Convention : Reuss Voigt Hill
#
# Bulk Modulus (GPa) = 62.82508 66.13101 64.47804
# Shear Modulus (GPa) = -1.62071 26.40584 12.39257
#
# Velocity S-wave (km/s) = -0.91175 3.68023 2.52119
# Velocity P-wave (km/s) = 5.57816 7.20963 6.44572
#
# Compressibility (1/GPa) = 0.01591721
#
# Stress axis : x y z
#
# Youngs Moduli (GPa) = 78.05702 91.34561 90.35480
#
# Poissons Ratio (x) = 0.44199 0.07600
# Poissons Ratio (y) = 0.37769 0.34106
# Poissons Ratio (z) = 0.06565 0.34480
#
# Static dielectric constant tensor:
#      x y z
#    x 3.806820 0.000000 0.000000 
#    y 0.000000 3.775170 0.000000 
#    z 0.000000 0.000000 3.434240 
# 
# 
# High freq. dielectric constant tensor:
#      x y z
#    x 1.761960 0.000000 0.000000 
#    y 0.000000 1.776080 0.000000 
#    z 0.000000 0.000000 1.746160 
# 
# From -- ./inp_files/42834.got.cif
#   From: 2010.03.12/outbox.cif.g09.slc.cpg/sg67_22_cif.got.tgz:42834.got - 2010.04.10 22:41:39.
