data_PCOD8280463
_publ_section_title
;
Structure prediction by ZEFSAII (Michael W. Deem and Ramdas Pophale) SiO2 
 PCOD8280463
Probable space group: C M M A
;
_chemical_formula_sum "Si O2"
_cell_formula_units_Z 72
_cell_length_a 9.256206
_cell_length_b 26.078676
_cell_length_c 14.389292
_cell_angle_alpha 90.000000
_cell_angle_beta 90.000000
_cell_angle_gamma 90.000000
_cell_volume 3473.425401
_symmetry_space_group_name_H-M "C M M A"
_symmetry_group_IT_number 67
_symmetry_cell_setting 'orthorhombic'
loop_
_space_group_symop_operation_xyz
x,y,z
-x,1/2-y,z
x,-y,-z
-x,1/2+y,-z
-x,-y,-z
x,1/2+y,-z
-x,y,z
x,1/2-y,z
1/2+x,1/2+y,z
1/2-x,-y,z
1/2+x,1/2-y,-z
1/2-x,y,-z
1/2-x,1/2-y,-z
1/2+x,y,-z
1/2-x,1/2+y,z
1/2+x,-y,z
loop_
_atom_site_type_symbol
_atom_site_label
_atom_site_fract_x
_atom_site_fract_y
_atom_site_fract_z
Si Si1 0.330179 0.349978 0.710661
Si Si2 0.166750 0.691105 0.909131
Si Si3 0.837335 0.052414 0.921264
Si Si4 0.335080 0.946851 0.711625
Si Si5 0.669926 0.250000 0.596760
O O1 0.500000 0.360327 0.701331
O O2 0.288720 0.341945 0.819068
O O3 0.247709 0.398961 0.664274
O O4 0.282321 0.299995 0.653957
O O5 0.203976 0.750000 0.886281
O O6 0.000000 0.683990 0.932403
O O7 0.250000 0.671576 0.000000
O O8 0.835954 0.073427 0.817517
O O9 0.000000 0.044770 0.957043
O O10 0.750000 0.000000 0.915062
O O11 0.750000 0.086115 0.000000
O O12 0.500000 0.953411 0.675127
O O13 0.250000 0.000000 0.694509
O O14 0.500000 0.250000 0.579160
O O15 0.750000 0.250000 0.500000
#
# Coordination Sequence:
#
# PCOD8280463 Si02
#       5
#    16  16  16  16   8
#     4  10  20  37  60  84 117 157 194 235 288 346
#     4   9  17  31  51  77 112 154 196 237 283 338
#     4   9  16  26  41  62  93 135 185 236 279 321
#     4  10  21  35  52  78 111 149 194 238 285 339
#     4  10  22  42  67  94 120 148 185 232 291 352
#
# _framework density 20.728816999999999
#
# number of rings (size 3 to 8) (size 9 to 14) (size 15 to 20)
#    0.000    2.444    1.111    2.000    0.000    5.333 
#    0.000    4.444    0.000    0.667    0.000    4.667 
#    0.000    0.000    0.000    0.000    0.000    0.000 
#
# Total GULP energy -445974.550376 kJ/mol
# GULP energy per Si atom -12388.181955 kJ/mol
# Density = 2.068164 g / cm^3
# Si number density = 20.728817 Si / 1000 Ang^3
#
#
#
# Elastic Constant Matrix: (Units=GPa)
#
#
# Indices 1 2 3 4 5 6 
#
# 1 124.9021 77.5104 30.3625 0.0000 0.0000 0.0000
# 2 77.5104 158.1676 31.5086 0.0000 0.0000 0.0000
# 3 30.3625 31.5086 65.3723 0.0000 0.0000 0.0000
# 4 0.0000 0.0000 0.0000 -1.3849 0.0000 0.0000
# 5 0.0000 0.0000 0.0000 0.0000 7.8563 0.0000
# 6 0.0000 0.0000 0.0000 0.0000 0.0000 30.1960
#
#
#
# Elastic Compliance Matrix: (Units=1/GPa)
#
#
# Indices 1 2 3 4 5 6 
#
# 1 0.012026 -0.005289 -0.003037 0.000000 0.000000 0.000000
# 2 -0.005289 0.009320 -0.002036 0.000000 0.000000 0.000000
# 3 -0.003037 -0.002036 0.017689 0.000000 0.000000 0.000000
# 4 0.000000 0.000000 0.000000 -0.722090 0.000000 0.000000
# 5 0.000000 0.000000 0.000000 0.000000 0.127287 0.000000
# 6 0.000000 0.000000 0.000000 0.000000 0.000000 0.033117
#
#
# Mechanical properties :
#
#
# Convention : Reuss Voigt Hill
#
# Bulk Modulus (GPa) = 54.60679 69.68945 62.14812
# Shear Modulus (GPa) = -10.08419 21.27084 5.59333
#
# Velocity S-wave (km/s) = -2.20803 3.20683 1.64444
# Velocity P-wave (km/s) = 4.46095 6.88508 5.80105
#
# Compressibility (1/GPa) = 0.01831274
#
# Stress axis : x y z
#
# Youngs Moduli (GPa) = 83.15023 107.30036 56.53380
#
# Poissons Ratio (x) = 0.56747 0.17168
# Poissons Ratio (y) = 0.43975 0.11508
# Poissons Ratio (z) = 0.25250 0.21842
#
# Static dielectric constant tensor:
#      x y z
#    x 3.782920 0.000000 0.000000 
#    y 0.000000 3.683750 0.000000 
#    z 0.000000 0.000000 4.455570 
# 
# 
# High freq. dielectric constant tensor:
#      x y z
#    x 1.810500 0.000000 0.000000 
#    y 0.000000 1.823540 0.000000 
#    z 0.000000 0.000000 1.769750 
# 
# From -- ./inp_files/25096.got.cif
#   From: 2010.03.12/outbox.cif.g09.slc.cpg/sg67_13_cif.got.tgz:25096.got - 2010.04.10 22:41:39.
