data_PCOD8280250
_publ_section_title
;
Structure prediction by ZEFSAII (Michael W. Deem and Ramdas Pophale) SiO2 
 PCOD8280250
Probable space group: C M M A
;
_chemical_formula_sum "Si O2"
_cell_formula_units_Z 96
_cell_length_a 11.731935
_cell_length_b 16.329329
_cell_length_c 24.869460
_cell_angle_alpha 90.000000
_cell_angle_beta 90.000000
_cell_angle_gamma 90.000000
_cell_volume 4764.357509
_symmetry_space_group_name_H-M "C M M A"
_symmetry_group_IT_number 67
_symmetry_cell_setting 'orthorhombic'
loop_
_space_group_symop_operation_xyz
x,y,z
-x,1/2-y,z
x,-y,-z
-x,1/2+y,-z
-x,-y,-z
x,1/2+y,-z
-x,y,z
x,1/2-y,z
1/2+x,1/2+y,z
1/2-x,-y,z
1/2+x,1/2-y,-z
1/2-x,y,-z
1/2-x,1/2-y,-z
1/2+x,y,-z
1/2-x,1/2+y,z
1/2+x,-y,z
loop_
_atom_site_type_symbol
_atom_site_label
_atom_site_fract_x
_atom_site_fract_y
_atom_site_fract_z
Si Si1 0.870600 0.092194 0.520865
Si Si2 0.267604 0.595859 0.060024
Si Si3 0.628400 0.343131 0.363983
Si Si4 0.500000 0.152721 0.772071
Si Si5 0.625588 0.154042 0.158143
Si Si6 0.758739 0.152401 0.260791
Si Si7 0.000000 0.152677 0.106691
O O1 0.750000 0.134539 0.500000
O O2 0.859416 0.097324 0.585055
O O3 0.000000 0.129365 0.505240
O O4 0.869918 0.000000 0.500000
O O5 0.250000 0.500000 0.062424
O O6 0.181148 0.638588 0.100635
O O7 0.394277 0.616897 0.075752
O O8 0.250000 0.630287 0.000000
O O9 0.500000 0.342576 0.342070
O O10 0.664832 0.250000 0.379802
O O11 0.704630 0.380393 0.316046
O O12 0.500000 0.250000 0.775241
O O13 0.611000 0.121370 0.740368
O O14 0.500000 0.118795 0.832611
O O15 0.500000 0.114354 0.158731
O O16 0.617983 0.250000 0.167274
O O17 0.696707 0.115729 0.207873
O O18 0.750146 0.250000 0.259905
O O19 0.000000 0.250000 0.105535
#
# Coordination Sequence:
#
# PCOD8280250 Si02
#       7
#    16  16  16   8  16  16   8
#     4   9  18  34  55  76 104 145 185 222 269 325
#     4  11  26  41  59  83 120 159 200 247 308 366
#     4   9  17  30  52  82 113 145 185 231 283 343
#     4   9  16  30  53  81 114 147 184 233 292 350
#     4  10  20  35  58  86 114 147 193 245 294 354
#     4   9  16  30  52  82 115 145 181 232 293 346
#     4  11  22  41  67  89 116 158 206 253 310 373
#
# _framework density 20.149622000000001
#
# number of rings (size 3 to 8) (size 9 to 14) (size 15 to 20)
#    0.000    2.333    1.667    1.000    2.333    4.333 
#    1.500    0.000    3.667    0.000    0.000    0.000 
#    0.000    0.000    0.000    0.000    0.000    0.000 
#
# Total GULP energy -594724.398172 kJ/mol
# GULP energy per Si atom -12390.091629 kJ/mol
# Density = 2.010376 g / cm^3
# Si number density = 20.149622 Si / 1000 Ang^3
#
#
#
# Elastic Constant Matrix: (Units=GPa)
#
#
# Indices 1 2 3 4 5 6 
#
# 1 207.2507 16.3152 91.4558 0.0000 0.0000 0.0000
# 2 16.3152 30.5396 28.7592 0.0000 0.0000 0.0000
# 3 91.4558 28.7592 167.3934 0.0000 0.0000 0.0000
# 4 0.0000 0.0000 0.0000 11.6214 0.0000 0.0000
# 5 0.0000 0.0000 0.0000 0.0000 45.2718 0.0000
# 6 0.0000 0.0000 0.0000 0.0000 0.0000 14.8403
#
#
#
# Elastic Compliance Matrix: (Units=1/GPa)
#
#
# Indices 1 2 3 4 5 6 
#
# 1 0.006359 -0.000150 -0.003448 0.000000 0.000000 0.000000
# 2 -0.000150 0.039068 -0.006630 0.000000 0.000000 0.000000
# 3 -0.003448 -0.006630 0.008997 0.000000 0.000000 0.000000
# 4 0.000000 0.000000 0.000000 0.086048 0.000000 0.000000
# 5 0.000000 0.000000 0.000000 0.000000 0.022089 0.000000
# 6 0.000000 0.000000 0.000000 0.000000 0.000000 0.067384
#
#
# Mechanical properties :
#
#
# Convention : Reuss Voigt Hill
#
# Bulk Modulus (GPa) = 29.44028 75.36046 52.40037
# Shear Modulus (GPa) = 19.10410 32.25692 25.68051
#
# Velocity S-wave (km/s) = 3.08248 4.00543 3.57387
# Velocity P-wave (km/s) = 5.22604 7.67287 6.56446
#
# Compressibility (1/GPa) = 0.03396707
#
# Stress axis : x y z
#
# Youngs Moduli (GPa) = 157.26935 25.59632 111.14725
#
# Poissons Ratio (x) = 0.00383 0.38327
# Poissons Ratio (y) = 0.02354 0.73695
# Poissons Ratio (z) = 0.54231 0.16971
#
# Static dielectric constant tensor:
#      x y z
#    x 4.335300 0.000000 0.000000 
#    y 0.000000 3.187740 0.000000 
#    z 0.000000 0.000000 3.756580 
# 
# 
# High freq. dielectric constant tensor:
#      x y z
#    x 1.810220 0.000000 0.000000 
#    y 0.000000 1.739870 0.000000 
#    z 0.000000 0.000000 1.788650 
# 
# From -- ./inp_files/37950.got.cif
#   From: 2010.03.12/outbox.cif.g09.slc.cpg/sg67_19_cif.got.tgz:37950.got - 2010.04.10 22:41:39.
