data_PCOD8280240
_publ_section_title
;
Structure prediction by ZEFSAII (Michael W. Deem and Ramdas Pophale) SiO2 
 PCOD8280240
Probable space group: C M M A
;
_chemical_formula_sum "Si O2"
_cell_formula_units_Z 96
_cell_length_a 23.596073
_cell_length_b 8.634397
_cell_length_c 25.277526
_cell_angle_alpha 90.000000
_cell_angle_beta 90.000000
_cell_angle_gamma 90.000000
_cell_volume 5149.989102
_symmetry_space_group_name_H-M "C M M A"
_symmetry_group_IT_number 67
_symmetry_cell_setting 'orthorhombic'
loop_
_space_group_symop_operation_xyz
x,y,z
-x,1/2-y,z
x,-y,-z
-x,1/2+y,-z
-x,-y,-z
x,1/2+y,-z
-x,y,z
x,1/2-y,z
1/2+x,1/2+y,z
1/2-x,-y,z
1/2+x,1/2-y,-z
1/2-x,y,-z
1/2-x,1/2-y,-z
1/2+x,y,-z
1/2-x,1/2+y,z
1/2+x,-y,z
loop_
_atom_site_type_symbol
_atom_site_label
_atom_site_fract_x
_atom_site_fract_y
_atom_site_fract_z
Si Si1 0.500000 0.567742 0.309090
Si Si2 0.614876 0.432734 0.345393
Si Si3 0.500000 0.934402 0.188232
Si Si4 0.190356 0.934097 0.942182
Si Si5 0.188081 0.432453 0.752341
Si Si6 0.689317 0.567290 0.555933
Si Si7 0.384421 0.933926 0.852416
O O1 0.500000 0.750000 0.307442
O O2 0.553940 0.510325 0.341605
O O3 0.500000 0.503261 0.248843
O O4 0.607132 0.250000 0.340535
O O5 0.654432 0.496829 0.298364
O O6 0.642956 0.481373 0.400809
O O7 0.500000 0.750000 0.186223
O O8 0.446535 0.000909 0.157348
O O9 0.193723 0.750000 0.944030
O O10 0.250000 0.000000 0.920185
O O11 0.139280 0.989574 0.905466
O O12 0.177987 0.000000 0.000000
O O13 0.192755 0.250000 0.749580
O O14 0.250000 0.500000 0.752869
O O15 0.155425 0.487895 0.804407
O O16 0.668792 0.500000 0.500000
O O17 0.695661 0.750000 0.551425
O O18 0.750000 0.500000 0.572914
O O19 0.386451 0.750000 0.858370
#
# Coordination Sequence:
#
# PCOD8280240 Si02
#       7
#     8  16   8  16  16  16  16
#     4  11  23  37  58  85 112 149 192 239 286 336
#     4  10  21  38  57  80 111 151 191 232 283 342
#     4  11  23  39  58  85 116 153 195 239 289 342
#     4  11  22  39  62  89 121 156 196 241 289 345
#     4  10  21  34  53  81 113 146 183 228 282 339
#     4  10  20  35  58  84 114 150 189 233 286 341
#     4  11  22  38  60  85 115 155 195 236 288 344
#
# _framework density 18.640816000000001
#
# number of rings (size 3 to 8) (size 9 to 14) (size 15 to 20)
#    0.000    1.500    1.667    5.000    0.000    5.333 
#    0.000    0.833    0.000    0.000    0.000    0.000 
#    0.000    0.000    0.000    0.000    0.000    0.000 
#
# Total GULP energy -595429.674000 kJ/mol
# GULP energy per Si atom -12404.784875 kJ/mol
# Density = 1.859839 g / cm^3
# Si number density = 18.640816 Si / 1000 Ang^3
#
#
#
# Elastic Constant Matrix: (Units=GPa)
#
#
# Indices 1 2 3 4 5 6 
#
# 1 175.0245 51.7117 89.1746 0.0000 0.0000 0.0000
# 2 51.7117 86.4497 53.2611 0.0000 0.0000 0.0000
# 3 89.1746 53.2611 128.2835 0.0000 0.0000 0.0000
# 4 0.0000 0.0000 0.0000 28.8931 0.0000 0.0000
# 5 0.0000 0.0000 0.0000 0.0000 33.0020 0.0000
# 6 0.0000 0.0000 0.0000 0.0000 0.0000 43.6283
#
#
#
# Elastic Compliance Matrix: (Units=1/GPa)
#
#
# Indices 1 2 3 4 5 6 
#
# 1 0.009117 -0.002081 -0.005474 0.000000 0.000000 0.000000
# 2 -0.002081 0.016018 -0.005204 0.000000 0.000000 0.000000
# 3 -0.005474 -0.005204 0.013761 0.000000 0.000000 0.000000
# 4 0.000000 0.000000 0.000000 0.034610 0.000000 0.000000
# 5 0.000000 0.000000 0.000000 0.000000 0.030301 0.000000
# 6 0.000000 0.000000 0.000000 0.000000 0.000000 0.022921
#
#
# Mechanical properties :
#
#
# Convention : Reuss Voigt Hill
#
# Bulk Modulus (GPa) = 74.74465 86.45030 80.59747
# Shear Modulus (GPa) = 31.90697 34.14538 33.02617
#
# Velocity S-wave (km/s) = 4.14172 4.28454 4.21374
# Velocity P-wave (km/s) = 7.94079 8.42342 8.18566
#
# Compressibility (1/GPa) = 0.01337888
#
# Stress axis : x y z
#
# Youngs Moduli (GPa) = 109.68267 62.42809 72.67140
#
# Poissons Ratio (x) = 0.12994 0.39777
# Poissons Ratio (y) = 0.22830 0.37816
# Poissons Ratio (z) = 0.60035 0.32486
#
# Static dielectric constant tensor:
#      x y z
#    x 3.465310 0.000000 0.000000 
#    y 0.000000 3.449180 0.000000 
#    z 0.000000 0.000000 3.616200 
# 
# 
# High freq. dielectric constant tensor:
#      x y z
#    x 1.727130 0.000000 0.000000 
#    y 0.000000 1.731350 0.000000 
#    z 0.000000 0.000000 1.728180 
# 
# From -- ./inp_files/42586.got.cif
#   From: 2010.03.12/outbox.cif.g09.slc.cpg/sg67_22_cif.got.tgz:42586.got - 2010.04.10 22:41:39.
