data_PCOD8280248
_publ_section_title
;
Structure prediction by ZEFSAII (Michael W. Deem and Ramdas Pophale) SiO2 
 PCOD8280248
Probable space group: C M M A
;
_chemical_formula_sum "Si O2"
_cell_formula_units_Z 96
_cell_length_a 18.811412
_cell_length_b 14.922889
_cell_length_c 16.952033
_cell_angle_alpha 90.000000
_cell_angle_beta 90.000000
_cell_angle_gamma 90.000000
_cell_volume 4758.785099
_symmetry_space_group_name_H-M "C M M A"
_symmetry_group_IT_number 67
_symmetry_cell_setting 'orthorhombic'
loop_
_space_group_symop_operation_xyz
x,y,z
-x,1/2-y,z
x,-y,-z
-x,1/2+y,-z
-x,-y,-z
x,1/2+y,-z
-x,y,z
x,1/2-y,z
1/2+x,1/2+y,z
1/2-x,-y,z
1/2+x,1/2-y,-z
1/2-x,y,-z
1/2-x,1/2-y,-z
1/2+x,y,-z
1/2-x,1/2+y,z
1/2+x,-y,z
loop_
_atom_site_type_symbol
_atom_site_label
_atom_site_fract_x
_atom_site_fract_y
_atom_site_fract_z
Si Si1 0.229355 0.250000 0.593222
Si Si2 0.078308 0.250000 0.539455
Si Si3 0.919981 0.927391 0.559160
Si Si4 0.826453 0.480467 0.155004
Si Si5 0.581347 0.851019 0.049932
Si Si6 0.201449 0.919437 0.673771
Si Si7 0.418049 0.147815 0.135584
O O1 0.250000 0.250000 0.500000
O O2 0.143033 0.250000 0.601796
O O3 0.259886 0.167284 0.640847
O O4 0.085422 0.332643 0.481721
O O5 0.000000 0.250000 0.581949
O O6 0.877327 0.927468 0.639785
O O7 0.000000 0.954402 0.581736
O O8 0.886568 0.000000 0.500000
O O9 0.750000 0.500000 0.114976
O O10 0.871347 0.422321 0.094756
O O11 0.809443 0.421389 0.232411
O O12 0.867601 0.573572 0.177150
O O13 0.500000 0.868174 0.074166
O O14 0.603843 0.750000 0.073299
O O15 0.591387 0.865549 0.957445
O O16 0.250000 0.000000 0.643975
O O17 0.500000 0.131364 0.160060
O O18 0.395847 0.250000 0.159286
#
# Coordination Sequence:
#
# PCOD8280248 Si02
#       7
#     8   8  16  16  16  16  16
#     4  12  22  40  70  92 118 167 208 253 318 398
#     4  10  20  36  60  94 118 146 202 262 310 364
#     4  10  20  35  58  85 115 145 191 258 307 361
#     4  11  24  38  54  90 131 169 202 267 329 378
#     4   9  19  37  64  94 123 167 219 265 314 383
#     4  11  25  40  58  90 120 167 210 251 317 398
#     4   9  19  39  67  93 121 168 227 265 305 383
#
# _framework density 20.173216
#
# number of rings (size 3 to 8) (size 9 to 14) (size 15 to 20)
#    0.000    1.833    1.667    3.000    1.167    4.667 
#    4.500    1.667    0.000    2.000    0.000    0.000 
#    0.000    0.000    0.000    0.000    0.000    0.000 
#
# Total GULP energy -595072.112948 kJ/mol
# GULP energy per Si atom -12397.335686 kJ/mol
# Density = 2.012730 g / cm^3
# Si number density = 20.173216 Si / 1000 Ang^3
#
#
#
# Elastic Constant Matrix: (Units=GPa)
#
#
# Indices 1 2 3 4 5 6 
#
# 1 116.1330 37.9813 33.0860 0.0000 0.0000 0.0000
# 2 37.9813 123.7232 33.4712 0.0000 0.0000 0.0000
# 3 33.0860 33.4712 56.1182 0.0000 0.0000 0.0000
# 4 0.0000 0.0000 0.0000 32.4654 0.0000 0.0000
# 5 0.0000 0.0000 0.0000 0.0000 22.1860 0.0000
# 6 0.0000 0.0000 0.0000 0.0000 0.0000 37.6997
#
#
#
# Elastic Compliance Matrix: (Units=1/GPa)
#
#
# Indices 1 2 3 4 5 6 
#
# 1 0.010705 -0.001883 -0.005188 0.000000 0.000000 0.000000
# 2 -0.001883 0.009969 -0.004836 0.000000 0.000000 0.000000
# 3 -0.005188 -0.004836 0.023763 0.000000 0.000000 0.000000
# 4 0.000000 0.000000 0.000000 0.030802 0.000000 0.000000
# 5 0.000000 0.000000 0.000000 0.000000 0.045074 0.000000
# 6 0.000000 0.000000 0.000000 0.000000 0.000000 0.026525
#
#
# Mechanical properties :
#
#
# Convention : Reuss Voigt Hill
#
# Bulk Modulus (GPa) = 48.49051 56.11682 52.30366
# Shear Modulus (GPa) = 28.16507 31.23262 29.69884
#
# Velocity S-wave (km/s) = 3.74058 3.93901 3.84108
# Velocity P-wave (km/s) = 6.53798 6.96891 6.75688
#
# Compressibility (1/GPa) = 0.02062259
#
# Stress axis : x y z
#
# Youngs Moduli (GPa) = 93.41719 100.31369 42.08262
#
# Poissons Ratio (x) = 0.18885 0.21834
# Poissons Ratio (y) = 0.17586 0.20350
# Poissons Ratio (z) = 0.48469 0.48510
#
# Static dielectric constant tensor:
#      x y z
#    x 4.090880 0.000000 0.000000 
#    y 0.000000 2.654830 0.000000 
#    z 0.000000 0.000000 3.332690 
# 
# 
# High freq. dielectric constant tensor:
#      x y z
#    x 1.801480 0.000000 0.000000 
#    y 0.000000 1.806570 0.000000 
#    z 0.000000 0.000000 1.757720 
# 
# From -- ./inp_files/29357.got.cif
#   From: 2010.03.12/outbox.cif.g09.slc.cpg/sg67_15_cif.got.tgz:29357.got - 2010.04.10 22:41:39.
