data_PCOD8280884
_publ_section_title
;
Structure prediction by ZEFSAII (Michael W. Deem and Ramdas Pophale) SiO2 
 PCOD8280884
Probable space group: C M M A
;
_chemical_formula_sum "Si O2"
_cell_formula_units_Z 96
_cell_length_a 18.153726
_cell_length_b 25.399622
_cell_length_c 8.995536
_cell_angle_alpha 90.000000
_cell_angle_beta 90.000000
_cell_angle_gamma 90.000000
_cell_volume 4147.821664
_symmetry_space_group_name_H-M "C M M A"
_symmetry_group_IT_number 67
_symmetry_cell_setting 'orthorhombic'
loop_
_space_group_symop_operation_xyz
x,y,z
-x,1/2-y,z
x,-y,-z
-x,1/2+y,-z
-x,-y,-z
x,1/2+y,-z
-x,y,z
x,1/2-y,z
1/2+x,1/2+y,z
1/2-x,-y,z
1/2+x,1/2-y,-z
1/2-x,y,-z
1/2-x,1/2-y,-z
1/2+x,y,-z
1/2-x,1/2+y,z
1/2+x,-y,z
loop_
_atom_site_type_symbol
_atom_site_label
_atom_site_fract_x
_atom_site_fract_y
_atom_site_fract_z
Si Si1 0.918508 0.811836 0.685292
Si Si2 0.579548 0.491454 0.672942
Si Si3 0.587781 0.095668 0.151350
Si Si4 0.412692 0.191391 0.357275
Si Si5 0.187946 0.131576 0.099093
Si Si6 0.776181 0.559186 0.660446
O O1 0.927160 0.750000 0.691837
O O2 0.887497 0.827655 0.522027
O O3 0.859736 0.827418 0.809174
O O4 0.000000 0.836851 0.714897
O O5 0.569904 0.500000 0.500000
O O6 0.500000 0.476715 0.743388
O O7 0.610993 0.544652 0.750814
O O8 0.634649 0.442209 0.684154
O O9 0.500000 0.095372 0.122595
O O10 0.613177 0.148613 0.237464
O O11 0.631848 0.094755 0.995953
O O12 0.500000 0.194914 0.360650
O O13 0.380968 0.250000 0.318310
O O14 0.244247 0.097730 0.205534
O O15 0.250000 0.161134 0.000000
O O16 0.750000 0.500000 0.681920
O O17 0.750000 0.580854 0.500000
#
# Coordination Sequence:
#
# PCOD8280884 Si02
#       6
#    16  16  16  16  16  16
#     4   9  20  41  67  94 124 162 210 261 319 384
#     4  10  21  37  62  93 117 154 210 269 319 369
#     4  10  22  40  62  93 128 159 204 261 323 385
#     4   8  16  34  64  95 119 152 200 252 304 372
#     4  12  27  39  60  92 129 170 210 259 318 379
#     4  11  24  44  65  85 120 171 219 261 312 379
#
# _framework density 23.144680000000001
#
# number of rings (size 3 to 8) (size 9 to 14) (size 15 to 20)
#    0.000    2.000    1.667    2.500    2.333    4.667 
#    0.000    3.333    0.000    2.500    0.000    0.000 
#    0.000    0.000    0.000    0.000    0.000    0.000 
#
# Total GULP energy -594786.819286 kJ/mol
# GULP energy per Si atom -12391.392068 kJ/mol
# Density = 2.309200 g / cm^3
# Si number density = 23.144680 Si / 1000 Ang^3
#
#
#
# Elastic Constant Matrix: (Units=GPa)
#
#
# Indices 1 2 3 4 5 6 
#
# 1 63.9417 18.7608 47.9625 0.0000 0.0000 0.0000
# 2 18.7608 39.8692 43.5488 0.0000 0.0000 0.0000
# 3 47.9625 43.5488 136.5321 0.0000 0.0000 0.0000
# 4 0.0000 0.0000 0.0000 27.0211 0.0000 0.0000
# 5 0.0000 0.0000 0.0000 0.0000 39.7852 0.0000
# 6 0.0000 0.0000 0.0000 0.0000 0.0000 27.4736
#
#
#
# Elastic Compliance Matrix: (Units=1/GPa)
#
#
# Indices 1 2 3 4 5 6 
#
# 1 0.021445 -0.002858 -0.006622 0.000000 0.000000 0.000000
# 2 -0.002858 0.038874 -0.011395 0.000000 0.000000 0.000000
# 3 -0.006622 -0.011395 0.013285 0.000000 0.000000 0.000000
# 4 0.000000 0.000000 0.000000 0.037008 0.000000 0.000000
# 5 0.000000 0.000000 0.000000 0.000000 0.025135 0.000000
# 6 0.000000 0.000000 0.000000 0.000000 0.000000 0.036399
#
#
# Mechanical properties :
#
#
# Convention : Reuss Voigt Hill
#
# Bulk Modulus (GPa) = 31.39383 51.20972 41.30177
# Shear Modulus (GPa) = 22.27035 27.52738 24.89887
#
# Velocity S-wave (km/s) = 3.10534 3.45245 3.28349
# Velocity P-wave (km/s) = 5.14306 6.16981 5.67968
#
# Compressibility (1/GPa) = 0.03185339
#
# Stress axis : x y z
#
# Youngs Moduli (GPa) = 46.63143 25.72415 75.27219
#
# Poissons Ratio (x) = 0.07353 0.49843
# Poissons Ratio (y) = 0.13328 0.85775
# Poissons Ratio (z) = 0.30878 0.29314
#
# Static dielectric constant tensor:
#      x y z
#    x 4.753730 0.000000 0.000000 
#    y 0.000000 4.014810 0.000000 
#    z 0.000000 0.000000 4.349180 
# 
# 
# High freq. dielectric constant tensor:
#      x y z
#    x 1.924940 0.000000 0.000000 
#    y 0.000000 1.890700 0.000000 
#    z 0.000000 0.000000 1.916490 
# 
# From -- ./inp_files/11447.got.cif
#   From: 2010.03.12/outbox.cif.g09.slc.cpg/sg67_6_cif.got.tgz:11447.got - 2010.04.10 22:41:39.
