data_PCOD8280875
_publ_section_title
;
Structure prediction by ZEFSAII (Michael W. Deem and Ramdas Pophale) SiO2 
 PCOD8280875
Probable space group: C M M A
;
_chemical_formula_sum "Si O2"
_cell_formula_units_Z 116
_cell_length_a 30.530443
_cell_length_b 16.941345
_cell_length_c 11.383410
_cell_angle_alpha 90.000000
_cell_angle_beta 90.000000
_cell_angle_gamma 90.000000
_cell_volume 5887.804362
_symmetry_space_group_name_H-M "C M M A"
_symmetry_group_IT_number 67
_symmetry_cell_setting 'orthorhombic'
loop_
_space_group_symop_operation_xyz
x,y,z
-x,1/2-y,z
x,-y,-z
-x,1/2+y,-z
-x,-y,-z
x,1/2+y,-z
-x,y,z
x,1/2-y,z
1/2+x,1/2+y,z
1/2-x,-y,z
1/2+x,1/2-y,-z
1/2-x,y,-z
1/2-x,1/2-y,-z
1/2+x,y,-z
1/2-x,1/2+y,z
1/2+x,-y,z
loop_
_atom_site_type_symbol
_atom_site_label
_atom_site_fract_x
_atom_site_fract_y
_atom_site_fract_z
Si Si1 0.375025 0.341862 0.567842
Si Si2 0.117227 0.658304 0.031361
Si Si3 0.290864 0.156966 0.420068
Si Si4 0.949366 0.060794 0.834827
Si Si5 0.750000 0.000000 0.000000
Si Si6 0.122699 0.937643 0.804357
Si Si7 0.812773 0.579567 0.180251
Si Si8 0.950801 0.839077 0.395538
O O1 0.371017 0.250000 0.596573
O O2 0.334446 0.369530 0.488393
O O3 0.377793 0.386625 0.688669
O O4 0.419288 0.363909 0.500367
O O5 0.108581 0.750000 0.010767
O O6 0.071465 0.617145 0.066359
O O7 0.153650 0.645749 0.132301
O O8 0.135023 0.618625 0.912628
O O9 0.290063 0.250000 0.394878
O O10 0.250000 0.130945 0.500000
O O11 0.288370 0.112145 0.295674
O O12 0.943128 0.102402 0.710583
O O13 0.000000 0.045801 0.866341
O O14 0.924401 0.977410 0.829499
O O15 0.722252 0.058869 0.080965
O O16 0.160280 0.001790 0.787954
O O17 0.940325 0.750000 0.351994
O O18 0.000000 0.845297 0.444518
#
# Coordination Sequence:
#
# PCOD8280875 Si02
#       8
#    16  16  16  16   4  16  16  16
#     4  10  21  39  59  83 120 159 198 249 305 366
#     4  11  22  40  63  86 117 159 204 249 303 365
#     4  10  23  41  62  92 124 160 207 254 304 367
#     4  10  21  37  60  88 119 154 200 255 304 362
#     4  12  24  44  64  92 122 156 206 254 296 380
#     4  11  23  39  57  87 123 157 198 248 307 369
#     4  11  23  42  64  88 122 157 199 252 308 357
#     4   9  18  34  57  84 112 149 198 245 292 355
#
# _framework density 19.701740999999998
#
# number of rings (size 3 to 8) (size 9 to 14) (size 15 to 20)
#    0.000    1.655    1.379    4.138    1.931    5.793 
#    0.000    2.759    0.000    2.483    0.000    0.000 
#    0.000    0.000    0.000    0.000    0.000    0.000 
#
# Total GULP energy -719414.554856 kJ/mol
# GULP energy per Si atom -12403.699222 kJ/mol
# Density = 1.965690 g / cm^3
# Si number density = 19.701741 Si / 1000 Ang^3
#
#
#
# Elastic Constant Matrix: (Units=GPa)
#
#
# Indices 1 2 3 4 5 6 
#
# 1 115.9333 39.9637 55.7493 0.0000 0.0000 0.0000
# 2 39.9637 74.1582 63.7865 0.0000 0.0000 0.0000
# 3 55.7493 63.7865 127.4170 0.0000 0.0000 0.0000
# 4 0.0000 0.0000 0.0000 53.1032 0.0000 0.0000
# 5 0.0000 0.0000 0.0000 0.0000 30.0254 0.0000
# 6 0.0000 0.0000 0.0000 0.0000 0.0000 14.6042
#
#
#
# Elastic Compliance Matrix: (Units=1/GPa)
#
#
# Indices 1 2 3 4 5 6 
#
# 1 0.011351 -0.003241 -0.003344 0.000000 0.000000 0.000000
# 2 -0.003241 0.024607 -0.010901 0.000000 0.000000 0.000000
# 3 -0.003344 -0.010901 0.014769 0.000000 0.000000 0.000000
# 4 0.000000 0.000000 0.000000 0.018831 0.000000 0.000000
# 5 0.000000 0.000000 0.000000 0.000000 0.033305 0.000000
# 6 0.000000 0.000000 0.000000 0.000000 0.000000 0.068473
#
#
# Mechanical properties :
#
#
# Convention : Reuss Voigt Hill
#
# Bulk Modulus (GPa) = 63.46953 70.72306 67.09629
# Shear Modulus (GPa) = 23.63404 30.08050 26.85727
#
# Velocity S-wave (km/s) = 3.46727 3.91166 3.69615
# Velocity P-wave (km/s) = 6.95086 7.50841 7.23501
#
# Compressibility (1/GPa) = 0.01575559
#
# Stress axis : x y z
#
# Youngs Moduli (GPa) = 88.09962 40.63839 67.71161
#
# Poissons Ratio (x) = 0.13169 0.22644
# Poissons Ratio (y) = 0.28549 0.73812
# Poissons Ratio (z) = 0.29462 0.44299
#
# Static dielectric constant tensor:
#      x y z
#    x 3.825140 0.000000 0.000000 
#    y 0.000000 3.533590 0.000000 
#    z 0.000000 0.000000 3.576290 
# 
# 
# High freq. dielectric constant tensor:
#      x y z
#    x 1.774570 0.000000 0.000000 
#    y 0.000000 1.765190 0.000000 
#    z 0.000000 0.000000 1.774900 
# 
# From -- ./inp_files/23964.got.cif
#   From: 2010.03.12/outbox.cif.g09.slc.cpg/sg67_12_cif.got.tgz:23964.got - 2010.04.10 22:41:39.
