data_PCOD8280269
_publ_section_title
;
Structure prediction by ZEFSAII (Michael W. Deem and Ramdas Pophale) SiO2 
 PCOD8280269
Probable space group: C M M A
;
_chemical_formula_sum "Si O2"
_cell_formula_units_Z 112
_cell_length_a 28.639919
_cell_length_b 14.881241
_cell_length_c 12.054802
_cell_angle_alpha 90.000000
_cell_angle_beta 90.000000
_cell_angle_gamma 90.000000
_cell_volume 5137.726920
_symmetry_space_group_name_H-M "C M M A"
_symmetry_group_IT_number 67
_symmetry_cell_setting 'orthorhombic'
loop_
_space_group_symop_operation_xyz
x,y,z
-x,1/2-y,z
x,-y,-z
-x,1/2+y,-z
-x,-y,-z
x,1/2+y,-z
-x,y,z
x,1/2-y,z
1/2+x,1/2+y,z
1/2-x,-y,z
1/2+x,1/2-y,-z
1/2-x,y,-z
1/2-x,1/2-y,-z
1/2+x,y,-z
1/2-x,1/2+y,z
1/2+x,-y,z
loop_
_atom_site_type_symbol
_atom_site_label
_atom_site_fract_x
_atom_site_fract_y
_atom_site_fract_z
Si Si1 0.296805 0.355686 0.447855
Si Si2 0.869985 0.404410 0.958258
Si Si3 0.632787 0.356605 0.629175
Si Si4 0.447897 0.511666 0.369459
Si Si5 0.053704 0.149311 0.791456
Si Si6 0.790436 0.643705 0.192361
Si Si7 0.311795 0.351306 0.835678
O O1 0.294547 0.250000 0.466157
O O2 0.250000 0.399093 0.500000
O O3 0.343143 0.389452 0.513810
O O4 0.298618 0.381166 0.319915
O O5 0.914477 0.356864 0.902139
O O6 0.828778 0.416425 0.869314
O O7 0.887810 0.500000 0.000000
O O8 0.847091 0.351403 0.060833
O O9 0.624326 0.250000 0.633156
O O10 0.583714 0.402842 0.655305
O O11 0.665599 0.394531 0.727034
O O12 0.446838 0.500000 0.500000
O O13 0.500000 0.535067 0.328861
O O14 0.430980 0.421667 0.303751
O O15 0.060362 0.250000 0.741826
O O16 0.000000 0.134140 0.827429
O O17 0.799198 0.750000 0.169141
O O18 0.740261 0.608687 0.146110
O O19 0.300839 0.250000 0.801691
#
# Coordination Sequence:
#
# PCOD8280269 Si02
#       7
#    16  16  16  16  16  16  16
#     4   9  16  32  59  93 128 172 222 266 316 382
#     4  12  25  39  60  91 128 166 210 271 331 394
#     4  10  20  36  63  95 133 177 217 264 329 402
#     4  10  23  42  63  92 132 168 209 274 340 398
#     4  10  23  46  73  97 123 167 229 286 339 405
#     4  10  20  35  59  89 125 170 220 265 314 385
#     4  10  20  37  58  85 125 170 215 261 314 381
#
# _framework density 21.799523000000001
#
# number of rings (size 3 to 8) (size 9 to 14) (size 15 to 20)
#    0.000    1.857    1.429    2.571    2.000    3.429 
#    0.000    2.143    0.000    1.286    0.000    0.000 
#    0.000    0.571    0.000    0.000    0.000    0.000 
#
# Total GULP energy -694089.418266 kJ/mol
# GULP energy per Si atom -12394.453898 kJ/mol
# Density = 2.174991 g / cm^3
# Si number density = 21.799523 Si / 1000 Ang^3
#
#
#
# Elastic Constant Matrix: (Units=GPa)
#
#
# Indices 1 2 3 4 5 6 
#
# 1 129.3014 45.1803 47.3912 0.0000 0.0000 0.0000
# 2 45.1803 71.9722 26.3760 0.0000 0.0000 0.0000
# 3 47.3912 26.3760 119.5755 0.0000 0.0000 0.0000
# 4 0.0000 0.0000 0.0000 29.6991 0.0000 0.0000
# 5 0.0000 0.0000 0.0000 0.0000 37.7233 0.0000
# 6 0.0000 0.0000 0.0000 0.0000 0.0000 26.1005
#
#
#
# Elastic Compliance Matrix: (Units=1/GPa)
#
#
# Indices 1 2 3 4 5 6 
#
# 1 0.010835 -0.005688 -0.003040 0.000000 0.000000 0.000000
# 2 -0.005688 0.018102 -0.001739 0.000000 0.000000 0.000000
# 3 -0.003040 -0.001739 0.009951 0.000000 0.000000 0.000000
# 4 0.000000 0.000000 0.000000 0.033671 0.000000 0.000000
# 5 0.000000 0.000000 0.000000 0.000000 0.026509 0.000000
# 6 0.000000 0.000000 0.000000 0.000000 0.000000 0.038313
#
#
# Mechanical properties :
#
#
# Convention : Reuss Voigt Hill
#
# Bulk Modulus (GPa) = 55.69184 62.08268 58.88726
# Shear Modulus (GPa) = 30.43216 32.16470 31.29843
#
# Velocity S-wave (km/s) = 3.74036 3.84536 3.79323
# Velocity P-wave (km/s) = 6.65256 6.94669 6.80121
#
# Compressibility (1/GPa) = 0.01795595
#
# Stress axis : x y z
#
# Youngs Moduli (GPa) = 92.28962 55.24254 100.49069
#
# Poissons Ratio (x) = 0.31422 0.30547
# Poissons Ratio (y) = 0.52494 0.17472
# Poissons Ratio (z) = 0.28054 0.09605
#
# Static dielectric constant tensor:
#      x y z
#    x 4.167190 0.000000 0.000000 
#    y 0.000000 3.702440 0.000000 
#    z 0.000000 0.000000 3.951500 
# 
# 
# High freq. dielectric constant tensor:
#      x y z
#    x 1.860820 0.000000 0.000000 
#    y 0.000000 1.842170 0.000000 
#    z 0.000000 0.000000 1.858200 
# 
# From -- ./inp_files/18563.got.cif
#   From: 2010.03.12/outbox.cif.g09.slc.cpg/sg67_10_cif.got.tgz:18563.got - 2010.04.10 22:41:39.
