data_PCOD8280950
_publ_section_title
;
Structure prediction by ZEFSAII (Michael W. Deem and Ramdas Pophale) SiO2 
 PCOD8280950
Probable space group: C M M A
;
_chemical_formula_sum "Si O2"
_cell_formula_units_Z 96
_cell_length_a 18.174783
_cell_length_b 8.900892
_cell_length_c 31.072764
_cell_angle_alpha 90.000000
_cell_angle_beta 90.000000
_cell_angle_gamma 90.000000
_cell_volume 5026.696361
_symmetry_space_group_name_H-M "C M M A"
_symmetry_group_IT_number 67
_symmetry_cell_setting 'orthorhombic'
loop_
_space_group_symop_operation_xyz
x,y,z
-x,1/2-y,z
x,-y,-z
-x,1/2+y,-z
-x,-y,-z
x,1/2+y,-z
-x,y,z
x,1/2-y,z
1/2+x,1/2+y,z
1/2-x,-y,z
1/2+x,1/2-y,-z
1/2-x,y,-z
1/2-x,1/2-y,-z
1/2+x,y,-z
1/2-x,1/2+y,z
1/2+x,-y,z
loop_
_atom_site_type_symbol
_atom_site_label
_atom_site_fract_x
_atom_site_fract_y
_atom_site_fract_z
Si Si1 0.170850 0.073020 0.288641
Si Si2 0.670830 0.071225 0.877259
Si Si3 0.583387 0.574912 0.541111
Si Si4 0.587156 0.922481 0.635881
Si Si5 0.914903 0.925256 0.045324
Si Si6 0.417613 0.428306 0.793666
O O1 0.180437 0.250000 0.285751
O O2 0.126861 0.009447 0.247372
O O3 0.250000 0.000000 0.289725
O O4 0.126333 0.033377 0.331382
O O5 0.677116 0.250000 0.880206
O O6 0.621702 0.017741 0.837120
O O7 0.750000 0.000000 0.870620
O O8 0.634686 0.008717 0.920204
O O9 0.625097 0.500000 0.500000
O O10 0.500000 0.514590 0.542138
O O11 0.585768 0.750000 0.533371
O O12 0.617632 0.536309 0.587945
O O13 0.500000 0.946863 0.638258
O O14 0.606725 0.750000 0.646966
O O15 0.894657 0.750000 0.043498
O O16 0.000000 0.950219 0.057355
O O17 0.895997 0.000000 0.000000
O O18 0.500000 0.495945 0.792719
O O19 0.421034 0.250000 0.791899
#
# Coordination Sequence:
#
# PCOD8280950 Si02
#       6
#    16  16  16  16  16  16
#     4  11  22  36  55  78 107 142 180 221 266 319
#     4  11  22  37  58  83 115 151 185 224 272 323
#     4   8  14  25  43  69 101 134 168 210 259 310
#     4   9  18  33  52  76 107 140 175 218 267 317
#     4  10  21  38  60  86 115 147 187 232 276 325
#     4   9  19  36  58  83 109 139 178 223 269 319
#
# _framework density 19.098032
#
# number of rings (size 3 to 8) (size 9 to 14) (size 15 to 20)
#    0.000    2.333    0.000    4.000    0.000    3.667 
#    0.000    5.833    0.000    6.500    0.000    3.500 
#    0.000    0.000    0.000    0.000    0.000    0.000 
#
# Total GULP energy -595119.309267 kJ/mol
# GULP energy per Si atom -12398.318943 kJ/mol
# Density = 1.905456 g / cm^3
# Si number density = 19.098032 Si / 1000 Ang^3
#
#
#
# Elastic Constant Matrix: (Units=GPa)
#
#
# Indices 1 2 3 4 5 6 
#
# 1 83.0265 30.2855 54.5430 0.0000 0.0000 0.0000
# 2 30.2855 67.0659 43.5793 0.0000 0.0000 0.0000
# 3 54.5430 43.5793 140.4215 0.0000 0.0000 0.0000
# 4 0.0000 0.0000 0.0000 26.6488 0.0000 0.0000
# 5 0.0000 0.0000 0.0000 0.0000 2.7318 0.0000
# 6 0.0000 0.0000 0.0000 0.0000 0.0000 20.3720
#
#
#
# Elastic Compliance Matrix: (Units=1/GPa)
#
#
# Indices 1 2 3 4 5 6 
#
# 1 0.017092 -0.004264 -0.005315 0.000000 0.000000 0.000000
# 2 -0.004264 0.019741 -0.004470 0.000000 0.000000 0.000000
# 3 -0.005315 -0.004470 0.010573 0.000000 0.000000 0.000000
# 4 0.000000 0.000000 0.000000 0.037525 0.000000 0.000000
# 5 0.000000 0.000000 0.000000 0.000000 0.366053 0.000000
# 6 0.000000 0.000000 0.000000 0.000000 0.000000 0.049087
#
#
# Mechanical properties :
#
#
# Convention : Reuss Voigt Hill
#
# Bulk Modulus (GPa) = 51.79652 60.81439 56.30545
# Shear Modulus (GPa) = 9.35268 20.75761 15.05514
#
# Velocity S-wave (km/s) = 2.21536 3.30039 2.81073
# Velocity P-wave (km/s) = 5.80724 6.81438 6.33087
#
# Compressibility (1/GPa) = 0.01930632
#
# Stress axis : x y z
#
# Youngs Moduli (GPa) = 58.50788 50.65573 94.57723
#
# Poissons Ratio (x) = 0.21601 0.50272
# Poissons Ratio (y) = 0.24949 0.42278
# Poissons Ratio (z) = 0.31099 0.22644
#
# Static dielectric constant tensor:
#      x y z
#    x 3.410480 0.000000 0.000000 
#    y 0.000000 3.370430 0.000000 
#    z 0.000000 0.000000 3.841290 
# 
# 
# High freq. dielectric constant tensor:
#      x y z
#    x 1.725030 0.000000 0.000000 
#    y 0.000000 1.731130 0.000000 
#    z 0.000000 0.000000 1.765020 
# 
# From -- ./inp_files/43482.got.cif
#   From: 2010.03.12/outbox.cif.g09.slc.cpg/sg67_22_cif.got.tgz:43482.got - 2010.04.10 22:41:39.
