data_PCOD8280372
_publ_section_title
;
Structure prediction by ZEFSAII (Michael W. Deem and Ramdas Pophale) SiO2 
 PCOD8280372
Probable space group: C M M A
;
_chemical_formula_sum "Si O2"
_cell_formula_units_Z 96
_cell_length_a 17.607690
_cell_length_b 14.775202
_cell_length_c 19.092796
_cell_angle_alpha 90.000000
_cell_angle_beta 90.000000
_cell_angle_gamma 90.000000
_cell_volume 4967.127899
_symmetry_space_group_name_H-M "C M M A"
_symmetry_group_IT_number 67
_symmetry_cell_setting 'orthorhombic'
loop_
_space_group_symop_operation_xyz
x,y,z
-x,1/2-y,z
x,-y,-z
-x,1/2+y,-z
-x,-y,-z
x,1/2+y,-z
-x,y,z
x,1/2-y,z
1/2+x,1/2+y,z
1/2-x,-y,z
1/2+x,1/2-y,-z
1/2-x,y,-z
1/2-x,1/2-y,-z
1/2+x,y,-z
1/2-x,1/2+y,z
1/2+x,-y,z
loop_
_atom_site_type_symbol
_atom_site_label
_atom_site_fract_x
_atom_site_fract_y
_atom_site_fract_z
Si Si1 0.664930 0.606494 0.003369
Si Si2 0.160092 0.497504 0.610267
Si Si3 0.587628 0.504240 0.240661
Si Si4 0.149632 0.148511 0.854206
Si Si5 0.824651 0.352222 0.153887
Si Si6 0.839686 0.647843 0.502905
O O1 0.632346 0.638572 0.078516
O O2 0.662205 0.500000 0.000000
O O3 0.750000 0.645621 0.000000
O O4 0.620612 0.644803 0.935368
O O5 0.250000 0.500000 0.623986
O O6 0.115385 0.485001 0.681587
O O7 0.134895 0.410407 0.564463
O O8 0.135754 0.591423 0.572086
O O9 0.500000 0.530654 0.241238
O O10 0.598828 0.415370 0.193624
O O11 0.634185 0.588346 0.211326
O O12 0.140716 0.250000 0.825375
O O13 0.237182 0.114904 0.851824
O O14 0.828892 0.250000 0.180707
O O15 0.875341 0.750000 0.503326
O O16 0.750000 0.656073 0.500000
#
# Coordination Sequence:
#
# PCOD8280372 Si02
#       6
#    16  16  16  16  16  16
#     4   9  15  29  57  85 107 130 173 240 295 334
#     4   9  18  34  57  83 109 138 178 221 262 316
#     4  12  25  38  52  76 118 158 187 222 268 326
#     4  10  20  36  59  83 106 139 187 238 285 332
#     4  10  20  36  59  83 106 139 187 238 285 332
#     4   8  15  31  58  88 110 130 166 221 274 315
#
# _framework density 19.327062999999999
#
# number of rings (size 3 to 8) (size 9 to 14) (size 15 to 20)
#    0.000    2.333    1.667    3.000    0.000    4.000 
#    0.000    6.667    0.000    3.000    0.000    0.000 
#    0.000    0.000    0.000    0.000    0.000    0.000 
#
# Total GULP energy -594990.389102 kJ/mol
# GULP energy per Si atom -12395.633106 kJ/mol
# Density = 1.928307 g / cm^3
# Si number density = 19.327063 Si / 1000 Ang^3
#
#
#
# Elastic Constant Matrix: (Units=GPa)
#
#
# Indices 1 2 3 4 5 6 
#
# 1 35.5519 6.6546 11.7166 0.0000 0.0000 0.0000
# 2 6.6546 112.6836 27.3481 0.0000 0.0000 0.0000
# 3 11.7166 27.3481 107.2906 0.0000 0.0000 0.0000
# 4 0.0000 0.0000 0.0000 4.8613 0.0000 0.0000
# 5 0.0000 0.0000 0.0000 0.0000 -1.3941 0.0000
# 6 0.0000 0.0000 0.0000 0.0000 0.0000 28.2590
#
#
#
# Elastic Compliance Matrix: (Units=1/GPa)
#
#
# Indices 1 2 3 4 5 6 
#
# 1 0.029287 -0.001016 -0.002939 0.000000 0.000000 0.000000
# 2 -0.001016 0.009495 -0.002309 0.000000 0.000000 0.000000
# 3 -0.002939 -0.002309 0.010230 0.000000 0.000000 0.000000
# 4 0.000000 0.000000 0.000000 0.205704 0.000000 0.000000
# 5 0.000000 0.000000 0.000000 0.000000 -0.717315 0.000000
# 6 0.000000 0.000000 0.000000 0.000000 0.000000 0.035387
#
#
# Mechanical properties :
#
#
# Convention : Reuss Voigt Hill
#
# Bulk Modulus (GPa) = 27.41050 38.55163 32.98107
# Shear Modulus (GPa) = -12.42167 20.33237 3.95535
#
# Velocity S-wave (km/s) = -2.53792 3.24700 1.43212
# Velocity P-wave (km/s) = 2.37175 5.83503 4.45381
#
# Compressibility (1/GPa) = 0.03648237
#
# Stress axis : x y z
#
# Youngs Moduli (GPa) = 34.14514 105.32004 97.75093
#
# Poissons Ratio (x) = 0.10703 0.28731
# Poissons Ratio (y) = 0.03470 0.22573
# Poissons Ratio (z) = 0.10036 0.24321
#
# Static dielectric constant tensor:
#      x y z
#    x 3.034580 0.000000 0.000000 
#    y 0.000000 3.774440 0.000000 
#    z 0.000000 0.000000 3.590760 
# 
# 
# High freq. dielectric constant tensor:
#      x y z
#    x 1.693430 0.000000 0.000000 
#    y 0.000000 1.765010 0.000000 
#    z 0.000000 0.000000 1.756920 
# 
# From -- ./inp_files/38484.got.cif
#   From: 2010.03.12/outbox.cif.g09.slc.cpg/sg67_20_cif.got.tgz:38484.got - 2010.04.10 22:41:39.
