data_PCOD8280346
_publ_section_title
;
Structure prediction by ZEFSAII (Michael W. Deem and Ramdas Pophale) SiO2 
 PCOD8280346
Probable space group: C M M A
;
_chemical_formula_sum "Si O2"
_cell_formula_units_Z 112
_cell_length_a 17.457728
_cell_length_b 28.852071
_cell_length_c 11.121092
_cell_angle_alpha 90.000000
_cell_angle_beta 90.000000
_cell_angle_gamma 90.000000
_cell_volume 5601.600709
_symmetry_space_group_name_H-M "C M M A"
_symmetry_group_IT_number 67
_symmetry_cell_setting 'orthorhombic'
loop_
_space_group_symop_operation_xyz
x,y,z
-x,1/2-y,z
x,-y,-z
-x,1/2+y,-z
-x,-y,-z
x,1/2+y,-z
-x,y,z
x,1/2-y,z
1/2+x,1/2+y,z
1/2-x,-y,z
1/2+x,1/2-y,-z
1/2-x,y,-z
1/2-x,1/2-y,-z
1/2+x,y,-z
1/2-x,1/2+y,z
1/2+x,-y,z
loop_
_atom_site_type_symbol
_atom_site_label
_atom_site_fract_x
_atom_site_fract_y
_atom_site_fract_z
Si Si1 0.911418 0.879954 0.603975
Si Si2 0.336258 0.048132 0.452159
Si Si3 0.414225 0.877566 0.944319
Si Si4 0.089251 0.067790 0.160621
Si Si5 0.708111 0.196493 0.625646
Si Si6 0.204380 0.303244 0.875168
Si Si7 0.913436 0.532760 0.216174
O O1 0.885014 0.906319 0.484373
O O2 0.888653 0.916533 0.706422
O O3 0.870527 0.831408 0.625955
O O4 0.000000 0.867808 0.597798
O O5 0.250000 0.054474 0.500000
O O6 0.345703 0.044403 0.309599
O O7 0.372062 0.000000 0.500000
O O8 0.500000 0.857679 0.962975
O O9 0.368261 0.836842 0.879438
O O10 0.417297 0.924436 0.870470
O O11 0.373022 0.895199 0.067870
O O12 0.000000 0.072614 0.133362
O O13 0.113199 0.013986 0.145944
O O14 0.685667 0.250000 0.625084
O O15 0.750000 0.183297 0.500000
O O16 0.752524 0.184351 0.749832
O O17 0.176647 0.250000 0.868527
O O18 0.250000 0.310905 0.000000
O O19 0.000000 0.524562 0.271408
#
# Coordination Sequence:
#
# PCOD8280346 Si02
#       7
#    16  16  16  16  16  16  16
#     4  11  22  36  62  88 116 156 200 249 297 352
#     4  11  23  37  54  83 121 161 201 245 288 351
#     4  10  21  36  60  91 117 152 201 249 299 358
#     4   9  18  35  56  84 120 156 193 240 294 348
#     4  10  23  43  64  87 121 161 197 247 315 372
#     4  10  22  42  65  87 117 160 201 248 313 374
#     4  10  20  36  58  82 119 162 200 239 293 359
#
# _framework density 19.994284
#
# number of rings (size 3 to 8) (size 9 to 14) (size 15 to 20)
#    0.000    1.857    1.429    2.143    4.000    2.857 
#    0.000    0.000    0.000    8.571    0.000    0.000 
#    0.000    0.000    0.000    0.000    0.000    0.000 
#
# Total GULP energy -693881.575386 kJ/mol
# GULP energy per Si atom -12390.742418 kJ/mol
# Density = 1.994878 g / cm^3
# Si number density = 19.994284 Si / 1000 Ang^3
#
#
#
# Elastic Constant Matrix: (Units=GPa)
#
#
# Indices 1 2 3 4 5 6 
#
# 1 89.4915 64.5038 35.1100 0.0000 0.0000 0.0000
# 2 64.5038 121.5927 31.4490 0.0000 0.0000 0.0000
# 3 35.1100 31.4490 103.1080 0.0000 0.0000 0.0000
# 4 0.0000 0.0000 0.0000 27.9449 0.0000 0.0000
# 5 0.0000 0.0000 0.0000 0.0000 24.1066 0.0000
# 6 0.0000 0.0000 0.0000 0.0000 0.0000 -17.3135
#
#
#
# Elastic Compliance Matrix: (Units=1/GPa)
#
#
# Indices 1 2 3 4 5 6 
#
# 1 0.019343 -0.009291 -0.003753 0.000000 0.000000 0.000000
# 2 -0.009291 0.013391 -0.000921 0.000000 0.000000 0.000000
# 3 -0.003753 -0.000921 0.011257 0.000000 0.000000 0.000000
# 4 0.000000 0.000000 0.000000 0.035785 0.000000 0.000000
# 5 0.000000 0.000000 0.000000 0.000000 0.041482 0.000000
# 6 0.000000 0.000000 0.000000 0.000000 0.000000 -0.057758
#
#
# Mechanical properties :
#
#
# Convention : Reuss Voigt Hill
#
# Bulk Modulus (GPa) = 62.25585 64.03530 63.14558
# Shear Modulus (GPa) = 51.66182 19.15622 35.40902
#
# Velocity S-wave (km/s) = 5.08865 3.09865 4.21284
# Velocity P-wave (km/s) = 8.10742 6.70064 7.43737
#
# Compressibility (1/GPa) = 0.01606275
#
# Stress axis : x y z
#
# Youngs Moduli (GPa) = 51.69772 74.67721 88.83097
#
# Poissons Ratio (x) = 0.69381 0.33338
# Poissons Ratio (y) = 0.48031 0.08179
# Poissons Ratio (z) = 0.19402 0.06876
#
# Static dielectric constant tensor:
#      x y z
#    x 3.410260 0.000000 0.000000 
#    y 0.000000 3.666620 0.000000 
#    z 0.000000 0.000000 4.007110 
# 
# 
# High freq. dielectric constant tensor:
#      x y z
#    x 1.752730 0.000000 0.000000 
#    y 0.000000 1.791120 0.000000 
#    z 0.000000 0.000000 1.789490 
# 
# From -- ./inp_files/18649.got.cif
#   From: 2010.03.12/outbox.cif.g09.slc.cpg/sg67_10_cif.got.tgz:18649.got - 2010.04.10 22:41:39.
