data_PCOD8280232
_publ_section_title
;
Structure prediction by ZEFSAII (Michael W. Deem and Ramdas Pophale) SiO2 
 PCOD8280232
Probable space group: C M M A
;
_chemical_formula_sum "Si O2"
_cell_formula_units_Z 120
_cell_length_a 22.694945
_cell_length_b 22.496670
_cell_length_c 11.846799
_cell_angle_alpha 90.000000
_cell_angle_beta 90.000000
_cell_angle_gamma 90.000000
_cell_volume 6048.509852
_symmetry_space_group_name_H-M "C M M A"
_symmetry_group_IT_number 67
_symmetry_cell_setting 'orthorhombic'
loop_
_space_group_symop_operation_xyz
x,y,z
-x,1/2-y,z
x,-y,-z
-x,1/2+y,-z
-x,-y,-z
x,1/2+y,-z
-x,y,z
x,1/2-y,z
1/2+x,1/2+y,z
1/2-x,-y,z
1/2+x,1/2-y,-z
1/2-x,y,-z
1/2-x,1/2-y,-z
1/2+x,y,-z
1/2-x,1/2+y,z
1/2+x,-y,z
loop_
_atom_site_type_symbol
_atom_site_label
_atom_site_fract_x
_atom_site_fract_y
_atom_site_fract_z
Si Si1 0.630943 0.316220 0.691561
Si Si2 0.346635 0.128719 0.229706
Si Si3 0.431740 0.019927 0.259479
Si Si4 0.933312 0.896116 0.844432
Si Si5 0.737344 0.683258 0.134289
Si Si6 0.617761 0.500000 0.500000
Si Si7 0.631181 0.684175 0.984212
Si Si8 0.819197 0.876553 0.481913
O O1 0.605700 0.250000 0.691838
O O2 0.578690 0.359906 0.729487
O O3 0.683009 0.324136 0.780646
O O4 0.650459 0.331077 0.565943
O O5 0.382947 0.067677 0.222044
O O6 0.281531 0.129268 0.171188
O O7 0.338988 0.147520 0.359204
O O8 0.381303 0.176156 0.149842
O O9 0.500000 0.041355 0.244474
O O10 0.423651 0.002009 0.390192
O O11 0.417722 0.964741 0.177595
O O12 0.898550 0.869531 0.950069
O O13 0.000000 0.889156 0.879367
O O14 0.764865 0.750000 0.151864
O O15 0.702930 0.678816 0.009573
O O16 0.660346 0.556593 0.495487
O O17 0.609059 0.750000 0.022583
O O18 0.750000 0.873793 0.500000
#
# Coordination Sequence:
#
# PCOD8280232 Si02
#       8
#    16  16  16  16  16   8  16  16
#     4  10  20  35  57  90 122 149 199 255 298 352
#     4  11  22  35  58  89 121 161 198 244 307 370
#     4  10  22  39  62  87 115 156 206 256 304 364
#     4  10  21  41  66  86 112 157 210 260 304 347
#     4   9  18  36  60  83 117 162 202 242 293 361
#     4  10  20  38  62  84 118 164 204 246 300 358
#     4  10  22  39  60  89 123 159 205 252 302 366
#     4  11  21  36  56  90 127 161 197 243 300 366
#
# _framework density 19.839597000000001
#
# number of rings (size 3 to 8) (size 9 to 14) (size 15 to 20)
#    0.000    1.867    2.667    2.400    0.000    4.533 
#    0.000    4.000    0.000    7.600    0.000    1.867 
#    0.000    0.000    0.000    0.000    0.000    0.000 
#
# Total GULP energy -743467.403466 kJ/mol
# GULP energy per Si atom -12391.123391 kJ/mol
# Density = 1.979444 g / cm^3
# Si number density = 19.839597 Si / 1000 Ang^3
#
#
#
# Elastic Constant Matrix: (Units=GPa)
#
#
# Indices 1 2 3 4 5 6 
#
# 1 61.2742 49.3068 35.5392 0.0000 0.0000 0.0000
# 2 49.3068 84.8541 54.7713 0.0000 0.0000 0.0000
# 3 35.5392 54.7713 124.3799 0.0000 0.0000 0.0000
# 4 0.0000 0.0000 0.0000 31.6712 0.0000 0.0000
# 5 0.0000 0.0000 0.0000 0.0000 22.3815 0.0000
# 6 0.0000 0.0000 0.0000 0.0000 0.0000 29.1576
#
#
#
# Elastic Compliance Matrix: (Units=1/GPa)
#
#
# Indices 1 2 3 4 5 6 
#
# 1 0.030799 -0.017068 -0.001284 0.000000 0.000000 0.000000
# 2 -0.017068 0.025923 -0.006539 0.000000 0.000000 0.000000
# 3 -0.001284 -0.006539 0.011286 0.000000 0.000000 0.000000
# 4 0.000000 0.000000 0.000000 0.031574 0.000000 0.000000
# 5 0.000000 0.000000 0.000000 0.000000 0.044680 0.000000
# 6 0.000000 0.000000 0.000000 0.000000 0.000000 0.034296
#
#
# Mechanical properties :
#
#
# Convention : Reuss Voigt Hill
#
# Bulk Modulus (GPa) = 54.86341 61.08253 57.97297
# Shear Modulus (GPa) = 21.32957 25.36812 23.34885
#
# Velocity S-wave (km/s) = 3.28243 3.57972 3.43429
# Velocity P-wave (km/s) = 6.48686 6.92393 6.70896
#
# Compressibility (1/GPa) = 0.01822708
#
# Stress axis : x y z
#
# Youngs Moduli (GPa) = 32.46827 38.57563 88.60382
#
# Poissons Ratio (x) = 0.65840 0.11381
# Poissons Ratio (y) = 0.55416 0.57934
# Poissons Ratio (z) = 0.04170 0.25223
#
# Static dielectric constant tensor:
#      x y z
#    x 3.604790 0.000000 0.000000 
#    y 0.000000 3.601370 0.000000 
#    z 0.000000 0.000000 4.016960 
# 
# 
# High freq. dielectric constant tensor:
#      x y z
#    x 1.768760 0.000000 0.000000 
#    y 0.000000 1.762310 0.000000 
#    z 0.000000 0.000000 1.795610 
# 
# From -- ./inp_files/22215.got.cif
#   From: 2010.03.12/outbox.cif.g09.slc.cpg/sg67_12_cif.got.tgz:22215.got - 2010.04.10 22:41:39.
