data_PCOD8280861
_publ_section_title
;
Structure prediction by ZEFSAII (Michael W. Deem and Ramdas Pophale) SiO2 
 PCOD8280861
Probable space group: C M M A
;
_chemical_formula_sum "Si O2"
_cell_formula_units_Z 56
_cell_length_a 34.177106
_cell_length_b 14.918706
_cell_length_c 4.959918
_cell_angle_alpha 90.000000
_cell_angle_beta 90.000000
_cell_angle_gamma 90.000000
_cell_volume 2528.954044
_symmetry_space_group_name_H-M "C M M A"
_symmetry_group_IT_number 67
_symmetry_cell_setting 'orthorhombic'
loop_
_space_group_symop_operation_xyz
x,y,z
-x,1/2-y,z
x,-y,-z
-x,1/2+y,-z
-x,-y,-z
x,1/2+y,-z
-x,y,z
x,1/2-y,z
1/2+x,1/2+y,z
1/2-x,-y,z
1/2+x,1/2-y,-z
1/2-x,y,-z
1/2-x,1/2-y,-z
1/2+x,y,-z
1/2-x,1/2+y,z
1/2+x,-y,z
loop_
_atom_site_type_symbol
_atom_site_label
_atom_site_fract_x
_atom_site_fract_y
_atom_site_fract_z
Si Si1 0.881390 0.650268 0.917656
Si Si2 0.957182 0.060537 0.255587
Si Si3 0.836249 0.902957 0.401421
Si Si4 0.721946 0.750000 0.746017
O O1 0.878707 0.750000 0.038658
O O2 0.925336 0.635496 0.812115
O O3 0.852509 0.645525 0.664705
O O4 0.869319 0.584077 0.165714
O O5 0.000000 0.103056 0.330352
O O6 0.941163 0.000000 0.500000
O O7 0.963243 0.000000 0.000000
O O8 0.803268 0.841466 0.262119
O O9 0.820459 0.000000 0.500000
O O10 0.750000 0.750000 0.500000
O O11 0.750000 0.750000 0.000000
#
# Coordination Sequence:
#
# PCOD8280861 Si02
#       4
#    16  16  16   8
#     4  12  22  40  66  98 136 176 233 285 332 393
#     4  10  21  37  58  89 131 178 228 281 335 390
#     4  12  25  45  71 101 135 180 226 274 339 408
#     4  12  26  48  74 102 141 172 215 284 342 408
#
# _framework density 22.143540999999999
#
# number of rings (size 3 to 8) (size 9 to 14) (size 15 to 20)
#    0.000    0.571    2.857    6.857    0.000    1.143 
#    0.000    1.429    0.000    8.571    0.000    0.000 
#    0.000    0.000    0.000    0.000    0.000    0.000 
#
# Total GULP energy -347134.373533 kJ/mol
# GULP energy per Si atom -12397.656198 kJ/mol
# Density = 2.209314 g / cm^3
# Si number density = 22.143541 Si / 1000 Ang^3
#
#
#
# Elastic Constant Matrix: (Units=GPa)
#
#
# Indices 1 2 3 4 5 6 
#
# 1 115.9562 62.3144 40.0643 0.0000 0.0000 0.0000
# 2 62.3144 129.1192 39.2163 0.0000 0.0000 0.0000
# 3 40.0643 39.2163 148.9142 0.0000 0.0000 0.0000
# 4 0.0000 0.0000 0.0000 34.5994 0.0000 0.0000
# 5 0.0000 0.0000 0.0000 0.0000 43.0708 0.0000
# 6 0.0000 0.0000 0.0000 0.0000 0.0000 25.2304
#
#
#
# Elastic Compliance Matrix: (Units=1/GPa)
#
#
# Indices 1 2 3 4 5 6 
#
# 1 0.012103 -0.005274 -0.001867 0.000000 0.000000 0.000000
# 2 -0.005274 0.010716 -0.001403 0.000000 0.000000 0.000000
# 3 -0.001867 -0.001403 0.007587 0.000000 0.000000 0.000000
# 4 0.000000 0.000000 0.000000 0.028902 0.000000 0.000000
# 5 0.000000 0.000000 0.000000 0.000000 0.023218 0.000000
# 6 0.000000 0.000000 0.000000 0.000000 0.000000 0.039635
#
#
# Mechanical properties :
#
#
# Convention : Reuss Voigt Hill
#
# Bulk Modulus (GPa) = 75.08860 75.24219 75.16539
# Shear Modulus (GPa) = 34.79714 37.40643 36.10179
#
# Velocity S-wave (km/s) = 3.96843 4.11453 4.04214
# Velocity P-wave (km/s) = 7.41495 7.52500 7.47018
#
# Compressibility (1/GPa) = 0.01331760
#
# Stress axis : x y z
#
# Youngs Moduli (GPa) = 82.62122 93.31593 131.80069
#
# Poissons Ratio (x) = 0.49216 0.24613
# Poissons Ratio (y) = 0.43575 0.18494
# Poissons Ratio (z) = 0.15429 0.13094
#
# Static dielectric constant tensor:
#      x y z
#    x 4.368890 0.000000 0.000000 
#    y 0.000000 3.679850 0.000000 
#    z 0.000000 0.000000 4.177330 
# 
# 
# High freq. dielectric constant tensor:
#      x y z
#    x 1.874600 0.000000 0.000000 
#    y 0.000000 1.852510 0.000000 
#    z 0.000000 0.000000 1.898090 
# 
# From -- ./inp_files/1413.got.cif
#   From: 2010.03.12/outbox.cif.g09.slc.cpg/sg67_1_cif.got.tgz:1413.got - 2010.04.10 22:41:39.
