data_PCOD8280797
_publ_section_title
;
Structure prediction by ZEFSAII (Michael W. Deem and Ramdas Pophale) SiO2 
 PCOD8280797
Probable space group: C M M A
;
_chemical_formula_sum "Si O2"
_cell_formula_units_Z 96
_cell_length_a 23.057413
_cell_length_b 16.267278
_cell_length_c 13.716308
_cell_angle_alpha 90.000000
_cell_angle_beta 90.000000
_cell_angle_gamma 90.000000
_cell_volume 5144.731284
_symmetry_space_group_name_H-M "C M M A"
_symmetry_group_IT_number 67
_symmetry_cell_setting 'orthorhombic'
loop_
_space_group_symop_operation_xyz
x,y,z
-x,1/2-y,z
x,-y,-z
-x,1/2+y,-z
-x,-y,-z
x,1/2+y,-z
-x,y,z
x,1/2-y,z
1/2+x,1/2+y,z
1/2-x,-y,z
1/2+x,1/2-y,-z
1/2-x,y,-z
1/2-x,1/2-y,-z
1/2+x,y,-z
1/2-x,1/2+y,z
1/2+x,-y,z
loop_
_atom_site_type_symbol
_atom_site_label
_atom_site_fract_x
_atom_site_fract_y
_atom_site_fract_z
Si Si1 0.624199 0.653772 0.080324
Si Si2 0.370303 0.099385 0.135386
Si Si3 0.568658 0.919224 0.444874
Si Si4 0.931397 0.250000 0.762013
Si Si5 0.568320 0.250000 0.464258
Si Si6 0.433893 0.052513 0.775740
Si Si7 0.248600 0.840373 0.884453
O O1 0.624544 0.750000 0.054890
O O2 0.572027 0.632282 0.154375
O O3 0.683622 0.627348 0.137928
O O4 0.616636 0.604408 0.979728
O O5 0.404448 0.170063 0.190455
O O6 0.300752 0.102700 0.154762
O O7 0.392023 0.014206 0.177270
O O8 0.500000 0.917727 0.458401
O O9 0.594594 0.833652 0.487830
O O10 0.586879 0.925112 0.332347
O O11 0.593931 0.000000 0.500000
O O12 0.915485 0.250000 0.648635
O O13 0.000000 0.250000 0.779501
O O14 0.500000 0.250000 0.481443
O O15 0.500000 0.021079 0.774577
O O16 0.258677 0.750000 0.838557
O O17 0.250000 0.833495 0.000000
#
# Coordination Sequence:
#
# PCOD8280797 Si02
#       7
#    16  16  16   8   8  16  16
#     4  10  21  37  54  77 109 149 186 222 262 314
#     4  11  19  35  54  79 112 145 178 225 268 314
#     4   9  18  35  54  74 103 140 183 237 277 315
#     4  11  20  30  52  85 111 141 180 218 276 347
#     4   9  18  32  53  75 101 141 191 232 277 325
#     4  11  24  35  50  79 115 145 179 218 270 339
#     4   8  15  32  56  76 101 136 187 234 259 295
#
# _framework density 18.659866999999998
#
# number of rings (size 3 to 8) (size 9 to 14) (size 15 to 20)
#    0.000    2.167    1.667    3.000    1.167    5.667 
#    0.000    2.500    0.000    0.000    0.000    9.333 
#    0.000    0.000    0.000    0.000    0.000    0.000 
#
# Total GULP energy -594933.765216 kJ/mol
# GULP energy per Si atom -12394.453442 kJ/mol
# Density = 1.861740 g / cm^3
# Si number density = 18.659867 Si / 1000 Ang^3
#
#
#
# Elastic Constant Matrix: (Units=GPa)
#
#
# Indices 1 2 3 4 5 6 
#
# 1 64.0070 30.9816 38.9608 0.0000 0.0000 0.0000
# 2 30.9816 98.8346 51.9172 0.0000 0.0000 0.0000
# 3 38.9608 51.9172 114.4862 0.0000 0.0000 0.0000
# 4 0.0000 0.0000 0.0000 97.5168 0.0000 0.0000
# 5 0.0000 0.0000 0.0000 0.0000 4.2900 0.0000
# 6 0.0000 0.0000 0.0000 0.0000 0.0000 24.2636
#
#
#
# Elastic Compliance Matrix: (Units=1/GPa)
#
#
# Indices 1 2 3 4 5 6 
#
# 1 0.020664 -0.003654 -0.005375 0.000000 0.000000 0.000000
# 2 -0.003654 0.013928 -0.005073 0.000000 0.000000 0.000000
# 3 -0.005375 -0.005073 0.012864 0.000000 0.000000 0.000000
# 4 0.000000 0.000000 0.000000 0.010255 0.000000 0.000000
# 5 0.000000 0.000000 0.000000 0.000000 0.233102 0.000000
# 6 0.000000 0.000000 0.000000 0.000000 0.000000 0.041214
#
#
# Mechanical properties :
#
#
# Convention : Reuss Voigt Hill
#
# Bulk Modulus (GPa) = 51.94094 57.89411 54.91753
# Shear Modulus (GPa) = 13.63708 35.57862 24.60785
#
# Velocity S-wave (km/s) = 2.70631 4.37131 3.63541
# Velocity P-wave (km/s) = 6.13690 7.52138 6.86413
#
# Compressibility (1/GPa) = 0.01925263
#
# Stress axis : x y z
#
# Youngs Moduli (GPa) = 48.39406 71.79834 77.73533
#
# Poissons Ratio (x) = 0.26235 0.41783
# Poissons Ratio (y) = 0.17683 0.39432
# Poissons Ratio (z) = 0.26012 0.36420
#
# Static dielectric constant tensor:
#      x y z
#    x 3.664780 0.000000 0.000000 
#    y 0.000000 4.808970 0.000000 
#    z 0.000000 0.000000 3.344040 
# 
# 
# High freq. dielectric constant tensor:
#      x y z
#    x 1.697850 0.000000 0.000000 
#    y 0.000000 1.734770 0.000000 
#    z 0.000000 0.000000 1.708520 
# 
# From -- ./inp_files/19695.got.cif
#   From: 2010.03.12/outbox.cif.g09.slc.cpg/sg67_10_cif.got.tgz:19695.got - 2010.04.10 22:41:39.
