data_PCOD8280877
_publ_section_title
;
Structure prediction by ZEFSAII (Michael W. Deem and Ramdas Pophale) SiO2 
 PCOD8280877
Probable space group: C M M A
;
_chemical_formula_sum "Si O2"
_cell_formula_units_Z 112
_cell_length_a 22.906058
_cell_length_b 18.841378
_cell_length_c 12.097659
_cell_angle_alpha 90.000000
_cell_angle_beta 90.000000
_cell_angle_gamma 90.000000
_cell_volume 5221.128204
_symmetry_space_group_name_H-M "C M M A"
_symmetry_group_IT_number 67
_symmetry_cell_setting 'orthorhombic'
loop_
_space_group_symop_operation_xyz
x,y,z
-x,1/2-y,z
x,-y,-z
-x,1/2+y,-z
-x,-y,-z
x,1/2+y,-z
-x,y,z
x,1/2-y,z
1/2+x,1/2+y,z
1/2-x,-y,z
1/2+x,1/2-y,-z
1/2-x,y,-z
1/2-x,1/2-y,-z
1/2+x,y,-z
1/2-x,1/2+y,z
1/2+x,-y,z
loop_
_atom_site_type_symbol
_atom_site_label
_atom_site_fract_x
_atom_site_fract_y
_atom_site_fract_z
Si Si1 0.251073 0.416539 0.374296
Si Si2 0.135278 0.096736 0.769374
Si Si3 0.186395 0.669760 0.020464
Si Si4 0.564549 0.982111 0.121365
Si Si5 0.408687 0.326635 0.844810
Si Si6 0.434203 0.334100 0.415634
Si Si7 0.356888 0.671122 0.382792
O O1 0.250000 0.500000 0.368961
O O2 0.250000 0.388179 0.500000
O O3 0.307110 0.394601 0.304597
O O4 0.192556 0.379884 0.329501
O O5 0.147990 0.129393 0.888708
O O6 0.085035 0.139104 0.704998
O O7 0.110419 0.016563 0.790523
O O8 0.195128 0.750000 0.063191
O O9 0.250000 0.634128 0.000000
O O10 0.154078 0.666294 0.903415
O O11 0.500000 0.015785 0.138836
O O12 0.555354 0.897260 0.129507
O O13 0.588609 0.000000 0.000000
O O14 0.437130 0.250000 0.883280
O O15 0.404132 0.322230 0.713220
O O16 0.500000 0.361631 0.439165
O O17 0.432888 0.250000 0.417065
O O18 0.389761 0.362876 0.510449
O O19 0.331797 0.750000 0.410959
#
# Coordination Sequence:
#
# PCOD8280877 Si02
#       7
#    16  16  16  16  16  16  16
#     4  11  23  39  60  90 129 168 208 264 321 386
#     4  12  22  40  66  92 128 173 216 266 335 391
#     4  10  21  37  60  93 130 167 211 265 323 391
#     4  11  24  43  64  92 130 168 216 275 327 389
#     4  10  21  41  65  90 124 165 212 265 322 388
#     4  10  22  40  63  95 132 171 220 271 320 386
#     4  10  21  40  66  95 129 169 215 267 324 386
#
# _framework density 21.451301999999998
#
# number of rings (size 3 to 8) (size 9 to 14) (size 15 to 20)
#    0.000    1.429    2.857    2.571    0.000    3.429 
#    0.000    2.143    0.000    2.571    0.000    0.000 
#    0.000    0.000    0.000    0.000    0.000    0.000 
#
# Total GULP energy -693930.417418 kJ/mol
# GULP energy per Si atom -12391.614597 kJ/mol
# Density = 2.140248 g / cm^3
# Si number density = 21.451302 Si / 1000 Ang^3
#
#
#
# Elastic Constant Matrix: (Units=GPa)
#
#
# Indices 1 2 3 4 5 6 
#
# 1 120.8046 38.0094 38.1982 0.0000 0.0000 0.0000
# 2 38.0094 87.6763 33.1199 0.0000 0.0000 0.0000
# 3 38.1982 33.1199 100.2806 0.0000 0.0000 0.0000
# 4 0.0000 0.0000 0.0000 25.8069 0.0000 0.0000
# 5 0.0000 0.0000 0.0000 0.0000 21.3733 0.0000
# 6 0.0000 0.0000 0.0000 0.0000 0.0000 18.3161
#
#
#
# Elastic Compliance Matrix: (Units=1/GPa)
#
#
# Indices 1 2 3 4 5 6 
#
# 1 0.010220 -0.003382 -0.002776 0.000000 0.000000 0.000000
# 2 -0.003382 0.014150 -0.003385 0.000000 0.000000 0.000000
# 3 -0.002776 -0.003385 0.012147 0.000000 0.000000 0.000000
# 4 0.000000 0.000000 0.000000 0.038749 0.000000 0.000000
# 5 0.000000 0.000000 0.000000 0.000000 0.046787 0.000000
# 6 0.000000 0.000000 0.000000 0.000000 0.000000 0.054597
#
#
# Mechanical properties :
#
#
# Convention : Reuss Voigt Hill
#
# Bulk Modulus (GPa) = 57.36730 58.60182 57.98456
# Shear Modulus (GPa) = 24.80805 26.39486 25.60146
#
# Velocity S-wave (km/s) = 3.40440 3.51159 3.45841
# Velocity P-wave (km/s) = 6.50033 6.61963 6.56025
#
# Compressibility (1/GPa) = 0.01743153
#
# Stress axis : x y z
#
# Youngs Moduli (GPa) = 97.85129 70.66895 82.32170
#
# Poissons Ratio (x) = 0.23899 0.22851
# Poissons Ratio (y) = 0.33091 0.27869
# Poissons Ratio (z) = 0.27162 0.23924
#
# Static dielectric constant tensor:
#      x y z
#    x 3.833840 0.000000 0.000000 
#    y 0.000000 3.515940 0.000000 
#    z 0.000000 0.000000 3.899970 
# 
# 
# High freq. dielectric constant tensor:
#      x y z
#    x 1.837540 0.000000 0.000000 
#    y 0.000000 1.835450 0.000000 
#    z 0.000000 0.000000 1.844350 
# 
# From -- ./inp_files/22174.got.cif
#   From: 2010.03.12/outbox.cif.g09.slc.cpg/sg67_12_cif.got.tgz:22174.got - 2010.04.10 22:41:39.
