data_PCOD8280619
_publ_section_title
;
Structure prediction by ZEFSAII (Michael W. Deem and Ramdas Pophale) SiO2 
 PCOD8280619
Probable space group: C M M A
;
_chemical_formula_sum "Si O2"
_cell_formula_units_Z 80
_cell_length_a 33.642297
_cell_length_b 22.241844
_cell_length_c 5.103605
_cell_angle_alpha 90.000000
_cell_angle_beta 90.000000
_cell_angle_gamma 90.000000
_cell_volume 3818.857782
_symmetry_space_group_name_H-M "C M M A"
_symmetry_group_IT_number 67
_symmetry_cell_setting 'orthorhombic'
loop_
_space_group_symop_operation_xyz
x,y,z
-x,1/2-y,z
x,-y,-z
-x,1/2+y,-z
-x,-y,-z
x,1/2+y,-z
-x,y,z
x,1/2-y,z
1/2+x,1/2+y,z
1/2-x,-y,z
1/2+x,1/2-y,-z
1/2-x,y,-z
1/2-x,1/2-y,-z
1/2+x,y,-z
1/2-x,1/2+y,z
1/2+x,-y,z
loop_
_atom_site_type_symbol
_atom_site_label
_atom_site_fract_x
_atom_site_fract_y
_atom_site_fract_z
Si Si1 0.647429 0.109878 0.370694
Si Si2 0.456523 0.368289 0.876558
Si Si3 0.267939 0.567224 0.745744
Si Si4 0.872157 0.318282 0.117296
Si Si5 0.563048 0.437402 0.374467
O O1 0.684797 0.068089 0.293622
O O2 0.646834 0.138655 0.660868
O O3 0.610626 0.064567 0.346360
O O4 0.646312 0.163838 0.161377
O O5 0.500000 0.337246 0.911205
O O6 0.420063 0.322754 0.918817
O O7 0.453385 0.388370 0.575646
O O8 0.454123 0.424037 0.084127
O O9 0.250000 0.500000 0.748222
O O10 0.250000 0.603389 0.500000
O O11 0.250000 0.600739 0.000000
O O12 0.861011 0.250000 0.183681
O O13 0.549176 0.500000 0.500000
#
# Coordination Sequence:
#
# PCOD8280619 Si02
#       5
#    16  16  16  16  16
#     4  10  21  38  58  85 120 145 190 240 276 343
#     4  10  21  36  53  82 115 146 196 247 283 331
#     4  10  21  36  57  89 118 151 176 227 288 343
#     4  10  21  39  62  83 108 155 199 237 290 330
#     4  10  21  34  53  81 113 160 189 224 285 353
#
# _framework density 20.948672999999999
#
# number of rings (size 3 to 8) (size 9 to 14) (size 15 to 20)
#    0.000    2.000    0.000    3.000    2.800    2.800 
#    7.200    0.000    0.000   19.200    0.000    0.000 
#    0.000    0.000    0.000    0.000    0.000    0.000 
#
# Total GULP energy -495564.229570 kJ/mol
# GULP energy per Si atom -12389.105739 kJ/mol
# Density = 2.090099 g / cm^3
# Si number density = 20.948673 Si / 1000 Ang^3
#
#
#
# Elastic Constant Matrix: (Units=GPa)
#
#
# Indices 1 2 3 4 5 6 
#
# 1 138.9912 19.3216 36.1125 0.0000 0.0000 0.0000
# 2 19.3216 53.8932 0.0964 0.0000 0.0000 0.0000
# 3 36.1125 0.0964 138.9688 0.0000 0.0000 0.0000
# 4 0.0000 0.0000 0.0000 18.1098 0.0000 0.0000
# 5 0.0000 0.0000 0.0000 0.0000 18.3460 0.0000
# 6 0.0000 0.0000 0.0000 0.0000 0.0000 12.7951
#
#
#
# Elastic Compliance Matrix: (Units=1/GPa)
#
#
# Indices 1 2 3 4 5 6 
#
# 1 0.008150 -0.002918 -0.002116 0.000000 0.000000 0.000000
# 2 -0.002918 0.019600 0.000745 0.000000 0.000000 0.000000
# 3 -0.002116 0.000745 0.007745 0.000000 0.000000 0.000000
# 4 0.000000 0.000000 0.000000 0.055219 0.000000 0.000000
# 5 0.000000 0.000000 0.000000 0.000000 0.054508 0.000000
# 6 0.000000 0.000000 0.000000 0.000000 0.000000 0.078155
#
#
# Mechanical properties :
#
#
# Convention : Reuss Voigt Hill
#
# Bulk Modulus (GPa) = 37.15158 49.21267 43.18213
# Shear Modulus (GPa) = 20.75313 28.27171 24.51242
#
# Velocity S-wave (km/s) = 3.15090 3.67764 3.42441
# Velocity P-wave (km/s) = 5.56872 6.44797 6.02441
#
# Compressibility (1/GPa) = 0.02691675
#
# Stress axis : x y z
#
# Youngs Moduli (GPa) = 122.69783 51.02022 129.11269
#
# Poissons Ratio (x) = 0.14888 0.27318
# Poissons Ratio (y) = 0.35805 -0.09615
# Poissons Ratio (z) = 0.25961 -0.03800
#
# Static dielectric constant tensor:
#      x y z
#    x 3.921650 0.000000 0.000000 
#    y 0.000000 3.166740 0.000000 
#    z 0.000000 0.000000 -1.594580 
# 
# 
# High freq. dielectric constant tensor:
#      x y z
#    x 1.823350 0.000000 0.000000 
#    y 0.000000 1.761810 0.000000 
#    z 0.000000 0.000000 1.852910 
# 
# From -- ./inp_files/3542.got.cif
#   From: 2010.03.12/outbox.cif.g09.slc.cpg/sg67_2_cif.got.tgz:3542.got - 2010.04.10 22:41:39.
