data_PCOD8280389
_publ_section_title
;
Structure prediction by ZEFSAII (Michael W. Deem and Ramdas Pophale) SiO2 
 PCOD8280389
Probable space group: C M M A
;
_chemical_formula_sum "Si O2"
_cell_formula_units_Z 96
_cell_length_a 14.367574
_cell_length_b 12.759462
_cell_length_c 23.201937
_cell_angle_alpha 90.000000
_cell_angle_beta 90.000000
_cell_angle_gamma 90.000000
_cell_volume 4253.437432
_symmetry_space_group_name_H-M "C M M A"
_symmetry_group_IT_number 67
_symmetry_cell_setting 'orthorhombic'
loop_
_space_group_symop_operation_xyz
x,y,z
-x,1/2-y,z
x,-y,-z
-x,1/2+y,-z
-x,-y,-z
x,1/2+y,-z
-x,y,z
x,1/2-y,z
1/2+x,1/2+y,z
1/2-x,-y,z
1/2+x,1/2-y,-z
1/2-x,y,-z
1/2-x,1/2-y,-z
1/2+x,y,-z
1/2-x,1/2+y,z
1/2+x,-y,z
loop_
_atom_site_type_symbol
_atom_site_label
_atom_site_fract_x
_atom_site_fract_y
_atom_site_fract_z
Si Si1 0.207601 0.874050 0.143997
Si Si2 0.608064 0.959147 0.621585
Si Si3 0.397063 0.124597 0.905210
Si Si4 0.769588 0.134120 0.436123
Si Si5 0.607472 0.632138 0.967196
Si Si6 0.105861 0.869380 0.256263
O O1 0.193625 0.750000 0.142354
O O2 0.316323 0.909251 0.139990
O O3 0.155793 0.924925 0.087933
O O4 0.167886 0.915415 0.204345
O O5 0.500000 0.952521 0.602301
O O6 0.668400 0.865047 0.594509
O O7 0.617608 0.948933 0.690395
O O8 0.654903 0.066141 0.598748
O O9 0.500000 0.087751 0.883977
O O10 0.397050 0.250000 0.911466
O O11 0.376655 0.077598 0.969847
O O12 0.811402 0.250000 0.437998
O O13 0.750000 0.090229 0.500000
O O14 0.500000 0.634994 0.952351
O O15 0.648590 0.750000 0.970881
O O16 0.134843 0.750000 0.273525
O O17 0.000000 0.869230 0.234726
#
# Coordination Sequence:
#
# PCOD8280389 Si02
#       6
#    16  16  16  16  16  16
#     4   9  14  20  32  50  78 121 175 236 294 344
#     4  10  20  36  59  87 123 164 202 244 294 343
#     4   8  13  19  27  43  70 110 167 231 291 355
#     4  10  22  39  61  93 128 160 199 243 286 342
#     4   8  12  17  26  43  70 107 158 225 295 356
#     4   9  17  28  44  69 100 140 194 247 293 347
#
# _framework density 22.569980000000001
#
# number of rings (size 3 to 8) (size 9 to 14) (size 15 to 20)
#    0.000    3.000    0.000    3.500    0.000    6.667 
#    0.000    1.667    0.000    4.000    0.000    4.667 
#    0.000    0.000    0.000   12.000    0.000  151.333 
#
# Total GULP energy -594866.631492 kJ/mol
# GULP energy per Si atom -12393.054823 kJ/mol
# Density = 2.251861 g / cm^3
# Si number density = 22.569980 Si / 1000 Ang^3
#
#
#
# Elastic Constant Matrix: (Units=GPa)
#
#
# Indices 1 2 3 4 5 6 
#
# 1 147.0042 12.0017 92.6558 0.0000 0.0000 0.0000
# 2 12.0017 63.3566 35.9473 0.0000 0.0000 0.0000
# 3 92.6558 35.9473 150.0925 0.0000 0.0000 0.0000
# 4 0.0000 0.0000 0.0000 22.9663 0.0000 0.0000
# 5 0.0000 0.0000 0.0000 0.0000 39.0865 0.0000
# 6 0.0000 0.0000 0.0000 0.0000 0.0000 10.4888
#
#
#
# Elastic Compliance Matrix: (Units=1/GPa)
#
#
# Indices 1 2 3 4 5 6 
#
# 1 0.011375 0.002117 -0.007529 0.000000 0.000000 0.000000
# 2 0.002117 0.018660 -0.005776 0.000000 0.000000 0.000000
# 3 -0.007529 -0.005776 0.012694 0.000000 0.000000 0.000000
# 4 0.000000 0.000000 0.000000 0.043542 0.000000 0.000000
# 5 0.000000 0.000000 0.000000 0.000000 0.025584 0.000000
# 6 0.000000 0.000000 0.000000 0.000000 0.000000 0.095340
#
#
# Mechanical properties :
#
#
# Convention : Reuss Voigt Hill
#
# Bulk Modulus (GPa) = 49.13342 71.29587 60.21464
# Shear Modulus (GPa) = 21.15453 29.16490 25.15972
#
# Velocity S-wave (km/s) = 3.06483 3.59862 3.34240
# Velocity P-wave (km/s) = 5.86011 6.99458 6.45233
#
# Compressibility (1/GPa) = 0.02035275
#
# Stress axis : x y z
#
# Youngs Moduli (GPa) = 87.90900 53.59109 78.77743
#
# Poissons Ratio (x) = -0.11346 0.59315
# Poissons Ratio (y) = -0.18612 0.45502
# Poissons Ratio (z) = 0.66190 0.30954
#
# Static dielectric constant tensor:
#      x y z
#    x 4.122220 0.000000 0.000000 
#    y 0.000000 4.078860 0.000000 
#    z 0.000000 0.000000 3.983940 
# 
# 
# High freq. dielectric constant tensor:
#      x y z
#    x 1.886750 0.000000 0.000000 
#    y 0.000000 1.906310 0.000000 
#    z 0.000000 0.000000 1.874720 
# 
# From -- ./inp_files/38417.got.cif
#   From: 2010.03.12/outbox.cif.g09.slc.cpg/sg67_20_cif.got.tgz:38417.got - 2010.04.10 22:41:39.
