data_PCOD8280968
_publ_section_title
;
Structure prediction by ZEFSAII (Michael W. Deem and Ramdas Pophale) SiO2 
 PCOD8280968
Probable space group: C M M A
;
_chemical_formula_sum "Si O2"
_cell_formula_units_Z 88
_cell_length_a 15.043893
_cell_length_b 17.551033
_cell_length_c 16.870317
_cell_angle_alpha 90.000000
_cell_angle_beta 90.000000
_cell_angle_gamma 90.000000
_cell_volume 4454.368700
_symmetry_space_group_name_H-M "C M M A"
_symmetry_group_IT_number 67
_symmetry_cell_setting 'orthorhombic'
loop_
_space_group_symop_operation_xyz
x,y,z
-x,1/2-y,z
x,-y,-z
-x,1/2+y,-z
-x,-y,-z
x,1/2+y,-z
-x,y,z
x,1/2-y,z
1/2+x,1/2+y,z
1/2-x,-y,z
1/2+x,1/2-y,-z
1/2-x,y,-z
1/2-x,1/2-y,-z
1/2+x,y,-z
1/2-x,1/2+y,z
1/2+x,-y,z
loop_
_atom_site_type_symbol
_atom_site_label
_atom_site_fract_x
_atom_site_fract_y
_atom_site_fract_z
Si Si1 0.340605 0.954630 0.702788
Si Si2 0.500000 0.341014 0.885997
Si Si3 0.101445 0.837112 0.178324
Si Si4 0.849352 0.659893 0.004353
Si Si5 0.500000 0.337651 0.565315
Si Si6 0.000000 0.067079 0.274929
Si Si7 0.150526 0.916142 0.473269
O O1 0.333787 0.889033 0.768951
O O2 0.361714 0.911516 0.620956
O O3 0.250000 0.000000 0.693437
O O4 0.414138 0.014606 0.728438
O O5 0.500000 0.250000 0.878044
O O6 0.500000 0.376940 0.799563
O O7 0.587630 0.370102 0.933497
O O8 0.133905 0.750000 0.186967
O O9 0.107520 0.864154 0.087628
O O10 0.000000 0.846287 0.207430
O O11 0.844332 0.750000 0.997276
O O12 0.750000 0.624576 0.000000
O O13 0.500000 0.250000 0.588869
O O14 0.500000 0.384692 0.645564
O O15 0.587056 0.354828 0.513641
O O16 0.250000 0.897017 0.500000
O O17 0.120958 0.000000 0.500000
#
# Coordination Sequence:
#
# PCOD8280968 Si02
#       7
#    16   8  16  16   8   8  16
#     4  12  24  41  66  92 125 170 213 248 319 385
#     4  10  21  38  61  87 122 167 210 250 308 378
#     4  10  21  40  65  94 124 156 212 277 315 359
#     4   9  18  36  61  86 117 164 209 252 312 375
#     4  12  25  40  66 100 130 162 209 263 313 368
#     4  12  24  41  59  92 133 170 201 256 316 381
#     4  11  21  44  69  88 119 174 216 248 303 376
#
# _framework density 19.755887000000001
#
# number of rings (size 3 to 8) (size 9 to 14) (size 15 to 20)
#    0.000    1.273    5.455    1.091    2.545    1.091 
#    0.000    4.545    0.000    0.000    0.000    0.000 
#    0.000    0.000    0.000    0.000    0.000    0.000 
#
# Total GULP energy -545722.945337 kJ/mol
# GULP energy per Si atom -12402.794212 kJ/mol
# Density = 1.971092 g / cm^3
# Si number density = 19.755887 Si / 1000 Ang^3
#
#
#
# Elastic Constant Matrix: (Units=GPa)
#
#
# Indices 1 2 3 4 5 6 
#
# 1 103.8972 26.1743 39.2429 0.0000 0.0000 0.0000
# 2 26.1743 70.6225 42.7218 0.0000 0.0000 0.0000
# 3 39.2429 42.7218 143.5036 0.0000 0.0000 0.0000
# 4 0.0000 0.0000 0.0000 33.1574 0.0000 0.0000
# 5 0.0000 0.0000 0.0000 0.0000 42.9442 0.0000
# 6 0.0000 0.0000 0.0000 0.0000 0.0000 65.0383
#
#
#
# Elastic Compliance Matrix: (Units=1/GPa)
#
#
# Indices 1 2 3 4 5 6 
#
# 1 0.011168 -0.002795 -0.002222 0.000000 0.000000 0.000000
# 2 -0.002795 0.017969 -0.004585 0.000000 0.000000 0.000000
# 3 -0.002222 -0.004585 0.008941 0.000000 0.000000 0.000000
# 4 0.000000 0.000000 0.000000 0.030159 0.000000 0.000000
# 5 0.000000 0.000000 0.000000 0.000000 0.023286 0.000000
# 6 0.000000 0.000000 0.000000 0.000000 0.000000 0.015376
#
#
# Mechanical properties :
#
#
# Convention : Reuss Voigt Hill
#
# Bulk Modulus (GPa) = 52.98217 59.36682 56.17450
# Shear Modulus (GPa) = 37.76553 42.22026 39.99289
#
# Velocity S-wave (km/s) = 4.37694 4.62789 4.50416
# Velocity P-wave (km/s) = 7.24017 7.65976 7.45292
#
# Compressibility (1/GPa) = 0.01887427
#
# Stress axis : x y z
#
# Youngs Moduli (GPa) = 89.53897 55.64988 111.84228
#
# Poissons Ratio (x) = 0.15555 0.24852
# Poissons Ratio (y) = 0.25027 0.51283
# Poissons Ratio (z) = 0.19896 0.25517
#
# Static dielectric constant tensor:
#      x y z
#    x 3.637080 0.000000 0.000000 
#    y 0.000000 3.345710 0.000000 
#    z 0.000000 0.000000 3.718310 
# 
# 
# High freq. dielectric constant tensor:
#      x y z
#    x 1.779040 0.000000 0.000000 
#    y 0.000000 1.743880 0.000000 
#    z 0.000000 0.000000 1.783760 
# 
# From -- ./inp_files/33630.got.cif
#   From: 2010.03.12/outbox.cif.g09.slc.cpg/sg67_17_cif.got.tgz:33630.got - 2010.04.10 22:41:39.
