data_PCOD8280267
_publ_section_title
;
Structure prediction by ZEFSAII (Michael W. Deem and Ramdas Pophale) SiO2 
 PCOD8280267
Probable space group: C M M A
;
_chemical_formula_sum "Si O2"
_cell_formula_units_Z 112
_cell_length_a 13.364224
_cell_length_b 27.086808
_cell_length_c 14.720198
_cell_angle_alpha 90.000000
_cell_angle_beta 90.000000
_cell_angle_gamma 90.000000
_cell_volume 5328.625851
_symmetry_space_group_name_H-M "C M M A"
_symmetry_group_IT_number 67
_symmetry_cell_setting 'orthorhombic'
loop_
_space_group_symop_operation_xyz
x,y,z
-x,1/2-y,z
x,-y,-z
-x,1/2+y,-z
-x,-y,-z
x,1/2+y,-z
-x,y,z
x,1/2-y,z
1/2+x,1/2+y,z
1/2-x,-y,z
1/2+x,1/2-y,-z
1/2-x,y,-z
1/2-x,1/2-y,-z
1/2+x,y,-z
1/2-x,1/2+y,z
1/2+x,-y,z
loop_
_atom_site_type_symbol
_atom_site_label
_atom_site_fract_x
_atom_site_fract_y
_atom_site_fract_z
Si Si1 0.888339 0.867072 0.397985
Si Si2 0.116487 0.804707 0.854426
Si Si3 0.279477 0.898403 0.097891
Si Si4 0.381261 0.538058 0.245197
Si Si5 0.203257 0.805252 0.658156
Si Si6 0.386874 0.898865 0.412214
Si Si7 0.110633 0.428474 0.779404
O O1 0.814600 0.822851 0.369807
O O2 0.845065 0.898765 0.484174
O O3 0.895667 0.906147 0.319148
O O4 0.000000 0.845621 0.419038
O O5 0.123698 0.750000 0.898958
O O6 0.166172 0.845616 0.919812
O O7 0.185264 0.806166 0.765339
O O8 0.000000 0.817162 0.832965
O O9 0.356010 0.932682 0.153229
O O10 0.177494 0.894308 0.155703
O O11 0.250000 0.920999 0.000000
O O12 0.500000 0.536258 0.255965
O O13 0.333906 0.565926 0.335424
O O14 0.339146 0.482551 0.233362
O O15 0.187906 0.750000 0.619710
O O16 0.121180 0.841603 0.616288
O O17 0.500000 0.916476 0.415258
O O18 0.000000 0.432176 0.823146
#
# Coordination Sequence:
#
# PCOD8280267 Si02
#       7
#    16  16  16  16  16  16  16
#     4  10  21  37  57  85 123 162 202 245 294 356
#     4  10  21  40  67  93 116 148 196 250 299 351
#     4  12  24  39  63  90 120 154 195 244 300 361
#     4  10  21  39  62  87 119 158 205 256 298 342
#     4  11  21  35  58  85 117 157 199 244 295 354
#     4  10  20  35  59  89 118 155 205 254 299 347
#     4  10  22  40  59  84 123 164 200 243 298 356
#
# _framework density 21.018553000000001
#
# number of rings (size 3 to 8) (size 9 to 14) (size 15 to 20)
#    0.000    1.571    2.857    1.714    0.000    5.429 
#    0.000    5.714    0.000    3.857    0.000    0.000 
#    0.000    0.000    0.000    0.000    0.000    0.000 
#
# Total GULP energy -693870.463449 kJ/mol
# GULP energy per Si atom -12390.543990 kJ/mol
# Density = 2.097071 g / cm^3
# Si number density = 21.018553 Si / 1000 Ang^3
#
#
#
# Elastic Constant Matrix: (Units=GPa)
#
#
# Indices 1 2 3 4 5 6 
#
# 1 73.5529 20.7372 12.4238 0.0000 0.0000 0.0000
# 2 20.7372 109.4767 31.4583 0.0000 0.0000 0.0000
# 3 12.4238 31.4583 100.7739 0.0000 0.0000 0.0000
# 4 0.0000 0.0000 0.0000 12.0921 0.0000 0.0000
# 5 0.0000 0.0000 0.0000 0.0000 23.5791 0.0000
# 6 0.0000 0.0000 0.0000 0.0000 0.0000 25.4308
#
#
#
# Elastic Compliance Matrix: (Units=1/GPa)
#
#
# Indices 1 2 3 4 5 6 
#
# 1 0.014457 -0.002446 -0.001019 0.000000 0.000000 0.000000
# 2 -0.002446 0.010448 -0.002960 0.000000 0.000000 0.000000
# 3 -0.001019 -0.002960 0.010973 0.000000 0.000000 0.000000
# 4 0.000000 0.000000 0.000000 0.082698 0.000000 0.000000
# 5 0.000000 0.000000 0.000000 0.000000 0.042410 0.000000
# 6 0.000000 0.000000 0.000000 0.000000 0.000000 0.039322
#
#
# Mechanical properties :
#
#
# Convention : Reuss Voigt Hill
#
# Bulk Modulus (GPa) = 43.42354 45.89360 44.65857
# Shear Modulus (GPa) = 22.64130 26.83269 24.73699
#
# Velocity S-wave (km/s) = 3.28564 3.57686 3.43434
# Velocity P-wave (km/s) = 5.92439 6.24025 6.08437
#
# Compressibility (1/GPa) = 0.02302898
#
# Stress axis : x y z
#
# Youngs Moduli (GPa) = 69.16926 95.71006 91.13404
#
# Poissons Ratio (x) = 0.23408 0.09285
# Poissons Ratio (y) = 0.16917 0.26976
# Poissons Ratio (z) = 0.07047 0.28331
#
# Static dielectric constant tensor:
#      x y z
#    x 4.136330 0.000000 0.000000 
#    y 0.000000 3.949820 0.000000 
#    z 0.000000 0.000000 3.703230 
# 
# 
# High freq. dielectric constant tensor:
#      x y z
#    x 1.838490 0.000000 0.000000 
#    y 0.000000 1.813840 0.000000 
#    z 0.000000 0.000000 1.808250 
# 
# From -- ./inp_files/27750.got.cif
#   From: 2010.03.12/outbox.cif.g09.slc.cpg/sg67_14_cif.got.tgz:27750.got - 2010.04.10 22:41:39.
