data_PCOD8280935
_publ_section_title
;
Structure prediction by ZEFSAII (Michael W. Deem and Ramdas Pophale) SiO2 
 PCOD8280935
Probable space group: C M M A
;
_chemical_formula_sum "Si O2"
_cell_formula_units_Z 96
_cell_length_a 17.172968
_cell_length_b 13.694284
_cell_length_c 20.145321
_cell_angle_alpha 90.000000
_cell_angle_beta 90.000000
_cell_angle_gamma 90.000000
_cell_volume 4737.605376
_symmetry_space_group_name_H-M "C M M A"
_symmetry_group_IT_number 67
_symmetry_cell_setting 'orthorhombic'
loop_
_space_group_symop_operation_xyz
x,y,z
-x,1/2-y,z
x,-y,-z
-x,1/2+y,-z
-x,-y,-z
x,1/2+y,-z
-x,y,z
x,1/2-y,z
1/2+x,1/2+y,z
1/2-x,-y,z
1/2+x,1/2-y,-z
1/2-x,y,-z
1/2-x,1/2-y,-z
1/2+x,y,-z
1/2-x,1/2+y,z
1/2+x,-y,z
loop_
_atom_site_type_symbol
_atom_site_label
_atom_site_fract_x
_atom_site_fract_y
_atom_site_fract_z
Si Si1 0.707989 0.139744 0.934381
Si Si2 0.819750 0.858510 0.189663
Si Si3 0.827802 0.361946 0.271983
Si Si4 0.338293 0.971923 0.405025
Si Si5 0.909524 0.543570 0.844858
Si Si6 0.590186 0.360051 0.476635
O O1 0.676713 0.250000 0.946682
O O2 0.772015 0.138883 0.877707
O O3 0.636525 0.069676 0.912831
O O4 0.750000 0.098164 0.000000
O O5 0.854954 0.750000 0.201028
O O6 0.760836 0.886738 0.249534
O O7 0.888533 0.936777 0.184320
O O8 0.833578 0.250000 0.294603
O O9 0.853306 0.430813 0.332014
O O10 0.887062 0.377238 0.210980
O O11 0.360945 0.890413 0.458826
O O12 0.250000 0.000000 0.417485
O O13 0.390111 0.069429 0.414692
O O14 0.000000 0.547721 0.861507
O O15 0.500000 0.369734 0.494947
O O16 0.612389 0.250000 0.456196
#
# Coordination Sequence:
#
# PCOD8280935 Si02
#       6
#    16  16  16  16  16  16
#     4   9  18  35  59  82 108 148 190 227 273 331
#     4   9  19  37  57  78 110 151 190 226 272 334
#     4  10  21  38  60  83 109 146 191 237 286 343
#     4  11  21  35  59  86 110 141 189 243 287 334
#     4  11  22  35  56  87 119 147 183 238 293 338
#     4  10  22  39  56  78 114 155 189 228 286 351
#
# _framework density 20.263401999999999
#
# number of rings (size 3 to 8) (size 9 to 14) (size 15 to 20)
#    0.000    2.000    0.000    7.000    0.000    6.333 
#    0.000    2.500    0.000    3.000    0.000    0.000 
#    0.000    0.000    0.000    0.000    0.000    0.000 
#
# Total GULP energy -595194.757868 kJ/mol
# GULP energy per Si atom -12399.890789 kJ/mol
# Density = 2.021728 g / cm^3
# Si number density = 20.263402 Si / 1000 Ang^3
#
#
#
# Elastic Constant Matrix: (Units=GPa)
#
#
# Indices 1 2 3 4 5 6 
#
# 1 101.8920 48.2552 37.6996 0.0000 0.0000 0.0000
# 2 48.2552 136.7494 49.4033 0.0000 0.0000 0.0000
# 3 37.6996 49.4033 121.7156 0.0000 0.0000 0.0000
# 4 0.0000 0.0000 0.0000 24.6186 0.0000 0.0000
# 5 0.0000 0.0000 0.0000 0.0000 20.7980 0.0000
# 6 0.0000 0.0000 0.0000 0.0000 0.0000 26.9733
#
#
#
# Elastic Compliance Matrix: (Units=1/GPa)
#
#
# Indices 1 2 3 4 5 6 
#
# 1 0.012359 -0.003490 -0.002412 0.000000 0.000000 0.000000
# 2 -0.003490 0.009555 -0.002797 0.000000 0.000000 0.000000
# 3 -0.002412 -0.002797 0.010098 0.000000 0.000000 0.000000
# 4 0.000000 0.000000 0.000000 0.040620 0.000000 0.000000
# 5 0.000000 0.000000 0.000000 0.000000 0.048082 0.000000
# 6 0.000000 0.000000 0.000000 0.000000 0.000000 0.037074
#
#
# Mechanical properties :
#
#
# Convention : Reuss Voigt Hill
#
# Bulk Modulus (GPa) = 68.42427 70.11924 69.27176
# Shear Modulus (GPa) = 27.76904 29.47790 28.62347
#
# Velocity S-wave (km/s) = 3.70591 3.81824 3.76249
# Velocity P-wave (km/s) = 7.22166 7.35647 7.28938
#
# Compressibility (1/GPa) = 0.01461470
#
# Stress axis : x y z
#
# Youngs Moduli (GPa) = 80.90966 104.66007 99.02780
#
# Poissons Ratio (x) = 0.36527 0.23881
# Poissons Ratio (y) = 0.28238 0.27700
# Poissons Ratio (z) = 0.19512 0.29275
#
# Static dielectric constant tensor:
#      x y z
#    x 3.439340 0.000000 0.000000 
#    y 0.000000 4.099990 0.000000 
#    z 0.000000 0.000000 3.637370 
# 
# 
# High freq. dielectric constant tensor:
#      x y z
#    x 1.763480 0.000000 0.000000 
#    y 0.000000 1.811170 0.000000 
#    z 0.000000 0.000000 1.784360 
# 
# From -- ./inp_files/38505.got.cif
#   From: 2010.03.12/outbox.cif.g09.slc.cpg/sg67_20_cif.got.tgz:38505.got - 2010.04.10 22:41:39.
