data_PCOD8280394
_publ_section_title
;
Structure prediction by ZEFSAII (Michael W. Deem and Ramdas Pophale) SiO2 
 PCOD8280394
Probable space group: C M M A
;
_chemical_formula_sum "Si O2"
_cell_formula_units_Z 96
_cell_length_a 16.676670
_cell_length_b 19.467441
_cell_length_c 14.669287
_cell_angle_alpha 90.000000
_cell_angle_beta 90.000000
_cell_angle_gamma 90.000000
_cell_volume 4762.414673
_symmetry_space_group_name_H-M "C M M A"
_symmetry_group_IT_number 67
_symmetry_cell_setting 'orthorhombic'
loop_
_space_group_symop_operation_xyz
x,y,z
-x,1/2-y,z
x,-y,-z
-x,1/2+y,-z
-x,-y,-z
x,1/2+y,-z
-x,y,z
x,1/2-y,z
1/2+x,1/2+y,z
1/2-x,-y,z
1/2+x,1/2-y,-z
1/2-x,y,-z
1/2-x,1/2-y,-z
1/2+x,y,-z
1/2-x,1/2+y,z
1/2+x,-y,z
loop_
_atom_site_type_symbol
_atom_site_label
_atom_site_fract_x
_atom_site_fract_y
_atom_site_fract_z
Si Si1 0.834574 0.171078 0.953748
Si Si2 0.407993 0.175267 0.861705
Si Si3 0.658463 0.927752 0.469091
Si Si4 0.593920 0.825903 0.608978
Si Si5 0.594372 0.906414 0.785715
Si Si6 0.594680 0.060239 0.727340
O O1 0.836771 0.250000 0.919037
O O2 0.853998 0.120618 0.870602
O O3 0.750000 0.152655 0.000000
O O4 0.900380 0.157508 0.031721
O O5 0.500000 0.180610 0.836146
O O6 0.366403 0.250000 0.842371
O O7 0.371304 0.115697 0.799244
O O8 0.750000 0.924023 0.500000
O O9 0.612562 0.864927 0.515414
O O10 0.647860 0.923948 0.361033
O O11 0.619509 0.000000 0.500000
O O12 0.500000 0.818883 0.618507
O O13 0.633349 0.750000 0.606002
O O14 0.626536 0.867093 0.696266
O O15 0.500000 0.893315 0.803438
O O16 0.612945 0.986315 0.770517
O O17 0.500000 0.067013 0.704866
#
# Coordination Sequence:
#
# PCOD8280394 Si02
#       6
#    16  16  16  16  16  16
#     4  10  21  37  56  82 117 156 190 230 290 349
#     4   9  19  37  59  83 112 149 196 243 285 343
#     4  11  23  39  58  84 119 159 193 236 296 363
#     4  10  21  37  60  89 116 150 201 251 294 348
#     4  10  20  36  60  86 113 149 193 243 292 341
#     4  10  21  38  62  86 112 151 197 244 294 346
#
# _framework density 20.157841000000001
#
# number of rings (size 3 to 8) (size 9 to 14) (size 15 to 20)
#    0.000    2.000    1.667    1.500    0.000    5.333 
#    0.000    6.667    0.000    0.000    0.000    0.000 
#    0.000    0.000    0.000    0.000    0.000    0.000 
#
# Total GULP energy -595110.865870 kJ/mol
# GULP energy per Si atom -12398.143039 kJ/mol
# Density = 2.011196 g / cm^3
# Si number density = 20.157841 Si / 1000 Ang^3
#
#
#
# Elastic Constant Matrix: (Units=GPa)
#
#
# Indices 1 2 3 4 5 6 
#
# 1 42.1215 30.7621 35.1240 0.0000 0.0000 0.0000
# 2 30.7621 167.7558 95.0587 0.0000 0.0000 0.0000
# 3 35.1240 95.0587 155.1659 0.0000 0.0000 0.0000
# 4 0.0000 0.0000 0.0000 -124.3039 0.0000 0.0000
# 5 0.0000 0.0000 0.0000 0.0000 32.9973 0.0000
# 6 0.0000 0.0000 0.0000 0.0000 0.0000 18.1688
#
#
#
# Elastic Compliance Matrix: (Units=1/GPa)
#
#
# Indices 1 2 3 4 5 6 
#
# 1 0.029949 -0.002528 -0.005231 0.000000 0.000000 0.000000
# 2 -0.002528 0.009344 -0.005152 0.000000 0.000000 0.000000
# 3 -0.005231 -0.005152 0.010785 0.000000 0.000000 0.000000
# 4 0.000000 0.000000 0.000000 -0.008045 0.000000 0.000000
# 5 0.000000 0.000000 0.000000 0.000000 0.030306 0.000000
# 6 0.000000 0.000000 0.000000 0.000000 0.000000 0.055039
#
#
# Mechanical properties :
#
#
# Convention : Reuss Voigt Hill
#
# Bulk Modulus (GPa) = 41.22617 76.32587 58.77602
# Shear Modulus (GPa) = 31.00101 -1.02102 14.99000
#
# Velocity S-wave (km/s) = 3.92588 -0.71247 2.72992
# Velocity P-wave (km/s) = 6.40672 6.10487 6.25762
#
# Compressibility (1/GPa) = 0.02425644
#
# Stress axis : x y z
#
# Youngs Moduli (GPa) = 33.39038 107.01944 92.72009
#
# Poissons Ratio (x) = 0.27053 0.48499
# Poissons Ratio (y) = 0.08441 0.47771
# Poissons Ratio (z) = 0.17466 0.55139
#
# Static dielectric constant tensor:
#      x y z
#    x 3.407260 0.000000 0.000000 
#    y 0.000000 4.084080 0.000000 
#    z 0.000000 0.000000 3.641640 
# 
# 
# High freq. dielectric constant tensor:
#      x y z
#    x 1.767250 0.000000 0.000000 
#    y 0.000000 1.797160 0.000000 
#    z 0.000000 0.000000 1.789310 
# 
# From -- ./inp_files/20884.got.cif
#   From: 2010.03.12/outbox.cif.g09.slc.cpg/sg67_11_cif.got.tgz:20884.got - 2010.04.10 22:41:39.
