data_PCOD8280543
_publ_section_title
;
Structure prediction by ZEFSAII (Michael W. Deem and Ramdas Pophale) SiO2 
 PCOD8280543
Probable space group: C M M A
;
_chemical_formula_sum "Si O2"
_cell_formula_units_Z 64
_cell_length_a 14.744701
_cell_length_b 15.298994
_cell_length_c 13.443460
_cell_angle_alpha 90.000000
_cell_angle_beta 90.000000
_cell_angle_gamma 90.000000
_cell_volume 3032.563502
_symmetry_space_group_name_H-M "C M M A"
_symmetry_group_IT_number 67
_symmetry_cell_setting 'orthorhombic'
loop_
_space_group_symop_operation_xyz
x,y,z
-x,1/2-y,z
x,-y,-z
-x,1/2+y,-z
-x,-y,-z
x,1/2+y,-z
-x,y,z
x,1/2-y,z
1/2+x,1/2+y,z
1/2-x,-y,z
1/2+x,1/2-y,-z
1/2-x,y,-z
1/2-x,1/2-y,-z
1/2+x,y,-z
1/2-x,1/2+y,z
1/2+x,-y,z
loop_
_atom_site_type_symbol
_atom_site_label
_atom_site_fract_x
_atom_site_fract_y
_atom_site_fract_z
Si Si1 0.097949 0.750000 0.632482
Si Si2 0.104570 0.915028 0.746027
Si Si3 0.751810 0.648961 0.885325
Si Si4 0.160341 0.250000 0.569935
Si Si5 0.105445 0.611388 0.273175
O O1 0.144226 0.840011 0.671028
O O2 0.083010 0.750000 0.513680
O O3 0.000000 0.750000 0.682691
O O4 0.167456 0.910788 0.842727
O O5 0.000000 0.900604 0.776626
O O6 0.115396 0.010001 0.695963
O O7 0.778128 0.750000 0.871441
O O8 0.655823 0.630046 0.831232
O O9 0.750000 0.622639 0.000000
O O10 0.250000 0.250000 0.500000
O O11 0.153051 0.335115 0.638516
O O12 0.000000 0.638842 0.260968
#
# Coordination Sequence:
#
# PCOD8280543 Si02
#       5
#     8  16  16   8  16
#     4  10  20  38  62  87 119 159 206 256 310 372
#     4  10  22  41  66  94 128 169 215 269 324 384
#     4  11  23  40  65  94 127 170 219 268 324 391
#     4  12  24  40  64  91 125 169 212 258 318 382
#     4  11  24  43  66  95 133 172 214 268 328 386
#
# _framework density 21.104257
#
# number of rings (size 3 to 8) (size 9 to 14) (size 15 to 20)
#    0.000    1.250    2.500    3.375    0.000    4.000 
#    0.000   10.000    0.000    0.000    0.000    0.000 
#    0.000    0.000    0.000    0.000    0.000    0.000 
#
# Total GULP energy -396604.676983 kJ/mol
# GULP energy per Si atom -12393.896156 kJ/mol
# Density = 2.105622 g / cm^3
# Si number density = 21.104257 Si / 1000 Ang^3
#
#
#
# Elastic Constant Matrix: (Units=GPa)
#
#
# Indices 1 2 3 4 5 6 
#
# 1 137.9832 47.3132 67.6274 0.0000 0.0000 0.0000
# 2 47.3132 152.4991 71.1523 0.0000 0.0000 0.0000
# 3 67.6274 71.1523 159.8295 0.0000 0.0000 0.0000
# 4 0.0000 0.0000 0.0000 14.9396 0.0000 0.0000
# 5 0.0000 0.0000 0.0000 0.0000 25.8198 0.0000
# 6 0.0000 0.0000 0.0000 0.0000 0.0000 25.7120
#
#
#
# Elastic Compliance Matrix: (Units=1/GPa)
#
#
# Indices 1 2 3 4 5 6 
#
# 1 0.009353 -0.001332 -0.003364 0.000000 0.000000 0.000000
# 2 -0.001332 0.008466 -0.003205 0.000000 0.000000 0.000000
# 3 -0.003364 -0.003205 0.009107 0.000000 0.000000 0.000000
# 4 0.000000 0.000000 0.000000 0.066936 0.000000 0.000000
# 5 0.000000 0.000000 0.000000 0.000000 0.038730 0.000000
# 6 0.000000 0.000000 0.000000 0.000000 0.000000 0.038892
#
#
# Mechanical properties :
#
#
# Convention : Reuss Voigt Hill
#
# Bulk Modulus (GPa) = 89.90612 91.38864 90.64738
# Shear Modulus (GPa) = 26.17857 30.90887 28.54372
#
# Velocity S-wave (km/s) = 3.52581 3.83113 3.68164
# Velocity P-wave (km/s) = 7.69861 7.93521 7.81780
#
# Compressibility (1/GPa) = 0.01112271
#
# Stress axis : x y z
#
# Youngs Moduli (GPa) = 106.91796 118.11650 109.80316
#
# Poissons Ratio (x) = 0.15733 0.36943
# Poissons Ratio (y) = 0.14241 0.35196
# Poissons Ratio (z) = 0.35972 0.37861
#
# Static dielectric constant tensor:
#      x y z
#    x 4.249200 0.000000 0.000000 
#    y 0.000000 4.098170 0.000000 
#    z 0.000000 0.000000 3.856390 
# 
# 
# High freq. dielectric constant tensor:
#      x y z
#    x 1.840020 0.000000 0.000000 
#    y 0.000000 1.845350 0.000000 
#    z 0.000000 0.000000 1.809610 
# 
# From -- ./inp_files/19014.got.cif
#   From: 2010.03.12/outbox.cif.g09.slc.cpg/sg67_10_cif.got.tgz:19014.got - 2010.04.10 22:41:39.
