data_PCOD8280738
_publ_section_title
;
Structure prediction by ZEFSAII (Michael W. Deem and Ramdas Pophale) SiO2 
 PCOD8280738
Probable space group: C M M A
;
_chemical_formula_sum "Si O2"
_cell_formula_units_Z 104
_cell_length_a 8.642578
_cell_length_b 26.575480
_cell_length_c 22.625999
_cell_angle_alpha 90.000000
_cell_angle_beta 90.000000
_cell_angle_gamma 90.000000
_cell_volume 5196.754356
_symmetry_space_group_name_H-M "C M M A"
_symmetry_group_IT_number 67
_symmetry_cell_setting 'orthorhombic'
loop_
_space_group_symop_operation_xyz
x,y,z
-x,1/2-y,z
x,-y,-z
-x,1/2+y,-z
-x,-y,-z
x,1/2+y,-z
-x,y,z
x,1/2-y,z
1/2+x,1/2+y,z
1/2-x,-y,z
1/2+x,1/2-y,-z
1/2-x,y,-z
1/2-x,1/2-y,-z
1/2+x,y,-z
1/2-x,1/2+y,z
1/2+x,-y,z
loop_
_atom_site_type_symbol
_atom_site_label
_atom_site_fract_x
_atom_site_fract_y
_atom_site_fract_z
Si Si1 0.320093 0.192984 0.123972
Si Si2 0.318639 0.644194 0.754671
Si Si3 0.315875 0.946146 0.564632
Si Si4 0.320000 0.603420 0.061243
Si Si5 0.682088 0.350543 0.629993
Si Si6 0.816367 0.553502 0.818811
Si Si7 0.317014 0.250000 0.564475
O O1 0.500000 0.181334 0.115635
O O2 0.276704 0.250000 0.110234
O O3 0.271526 0.180774 0.191300
O O4 0.228852 0.160322 0.076035
O O5 0.500000 0.646447 0.740465
O O6 0.222493 0.660774 0.697800
O O7 0.268175 0.588278 0.771561
O O8 0.500000 0.949772 0.561718
O O9 0.250000 0.933660 0.500000
O O10 0.267841 0.900986 0.608091
O O11 0.250000 0.000000 0.587348
O O12 0.500000 0.601375 0.053172
O O13 0.264514 0.567692 0.114612
O O14 0.250000 0.583813 0.000000
O O15 0.500000 0.358633 0.621844
O O16 0.742246 0.301009 0.595785
O O17 0.750000 0.500000 0.803163
O O18 0.000000 0.556917 0.810946
O O19 0.500000 0.250000 0.562988
O O20 0.250000 0.250000 0.500000
#
# Coordination Sequence:
#
# PCOD8280738 Si02
#       7
#    16  16  16  16  16  16   8
#     4   9  19  36  57  80 109 145 185 231 283 338
#     4  10  21  37  58  85 114 147 188 235 285 338
#     4  11  22  39  62  89 118 153 193 240 294 350
#     4  10  21  36  55  81 112 146 187 234 283 339
#     4  11  23  40  60  88 122 158 200 245 293 350
#     4  10  21  38  59  83 113 150 190 234 287 344
#     4  10  24  42  62  88 122 162 201 244 295 348
#
# _framework density 20.012492000000002
#
# number of rings (size 3 to 8) (size 9 to 14) (size 15 to 20)
#    0.000    1.846    0.000    4.154    1.077    6.462 
#    0.000    4.615    0.000    0.000    0.000    0.000 
#    0.000    0.000    0.000    0.000    0.000    0.000 
#
# Total GULP energy -644921.979278 kJ/mol
# GULP energy per Si atom -12402.345755 kJ/mol
# Density = 1.996694 g / cm^3
# Si number density = 20.012492 Si / 1000 Ang^3
#
#
#
# Elastic Constant Matrix: (Units=GPa)
#
#
# Indices 1 2 3 4 5 6 
#
# 1 66.8540 19.5288 17.9507 0.0000 0.0000 0.0000
# 2 19.5288 79.5036 14.0610 0.0000 0.0000 0.0000
# 3 17.9507 14.0610 89.1736 0.0000 0.0000 0.0000
# 4 0.0000 0.0000 0.0000 12.4136 0.0000 0.0000
# 5 0.0000 0.0000 0.0000 0.0000 38.1730 0.0000
# 6 0.0000 0.0000 0.0000 0.0000 0.0000 28.8089
#
#
#
# Elastic Compliance Matrix: (Units=1/GPa)
#
#
# Indices 1 2 3 4 5 6 
#
# 1 0.016769 -0.003623 -0.002804 0.000000 0.000000 0.000000
# 2 -0.003623 0.013722 -0.001434 0.000000 0.000000 0.000000
# 3 -0.002804 -0.001434 0.012005 0.000000 0.000000 0.000000
# 4 0.000000 0.000000 0.000000 0.080557 0.000000 0.000000
# 5 0.000000 0.000000 0.000000 0.000000 0.026197 0.000000
# 6 0.000000 0.000000 0.000000 0.000000 0.000000 0.034712
#
#
# Mechanical properties :
#
#
# Convention : Reuss Voigt Hill
#
# Bulk Modulus (GPa) = 37.35226 37.62356 37.48791
# Shear Modulus (GPa) = 23.96837 28.14514 26.05676
#
# Velocity S-wave (km/s) = 3.46449 3.75424 3.61227
# Velocity P-wave (km/s) = 5.89140 6.13460 6.01423
#
# Compressibility (1/GPa) = 0.02677214
#
# Stress axis : x y z
#
# Youngs Moduli (GPa) = 59.63267 72.87730 83.30020
#
# Poissons Ratio (x) = 0.26404 0.23361
# Poissons Ratio (y) = 0.21606 0.11948
# Poissons Ratio (z) = 0.16723 0.10453
#
# Static dielectric constant tensor:
#      x y z
#    x 3.644900 0.000000 0.000000 
#    y 0.000000 3.733660 0.000000 
#    z 0.000000 0.000000 3.849710 
# 
# 
# High freq. dielectric constant tensor:
#      x y z
#    x 1.787030 0.000000 0.000000 
#    y 0.000000 1.785920 0.000000 
#    z 0.000000 0.000000 1.782800 
# 
# From -- ./inp_files/37330.got.cif
#   From: 2010.03.12/outbox.cif.g09.slc.cpg/sg67_19_cif.got.tgz:37330.got - 2010.04.10 22:41:39.
