data_PCOD8280656
_publ_section_title
;
Structure prediction by ZEFSAII (Michael W. Deem and Ramdas Pophale) SiO2 
 PCOD8280656
Probable space group: C M M A
;
_chemical_formula_sum "Si O2"
_cell_formula_units_Z 128
_cell_length_a 19.955556
_cell_length_b 18.887318
_cell_length_c 18.391941
_cell_angle_alpha 90.000000
_cell_angle_beta 90.000000
_cell_angle_gamma 90.000000
_cell_volume 6932.050057
_symmetry_space_group_name_H-M "C M M A"
_symmetry_group_IT_number 67
_symmetry_cell_setting 'orthorhombic'
loop_
_space_group_symop_operation_xyz
x,y,z
-x,1/2-y,z
x,-y,-z
-x,1/2+y,-z
-x,-y,-z
x,1/2+y,-z
-x,y,z
x,1/2-y,z
1/2+x,1/2+y,z
1/2-x,-y,z
1/2+x,1/2-y,-z
1/2-x,y,-z
1/2-x,1/2-y,-z
1/2+x,y,-z
1/2-x,1/2+y,z
1/2+x,-y,z
loop_
_atom_site_type_symbol
_atom_site_label
_atom_site_fract_x
_atom_site_fract_y
_atom_site_fract_z
Si Si1 0.184152 0.166605 0.960690
Si Si2 0.576661 0.831104 0.076428
Si Si3 0.139172 0.509942 0.419609
Si Si4 0.075217 0.440549 0.722928
Si Si5 0.576091 0.911461 0.221255
Si Si6 0.675315 0.333755 0.203278
Si Si7 0.308306 0.328166 0.717664
Si Si8 0.254986 0.384844 0.579249
O O1 0.194353 0.250000 0.954421
O O2 0.170346 0.138187 0.879454
O O3 0.250000 0.133715 0.000000
O O4 0.119704 0.145155 0.007465
O O5 0.500000 0.841133 0.053508
O O6 0.592290 0.750000 0.098523
O O7 0.596726 0.880610 0.143316
O O8 0.105195 0.500000 0.500000
O O9 0.085467 0.520320 0.355394
O O10 0.182709 0.580640 0.410007
O O11 0.187549 0.443329 0.411540
O O12 0.082648 0.503684 0.781778
O O13 0.125265 0.377463 0.744445
O O14 0.000000 0.409223 0.723692
O O15 0.500000 0.888492 0.241879
O O16 0.628232 0.880414 0.280051
O O17 0.658847 0.250000 0.211801
O O18 0.751714 0.350907 0.224788
O O19 0.335227 0.250000 0.734805
O O20 0.271925 0.326403 0.639179
O O21 0.250000 0.348695 0.500000
#
# Coordination Sequence:
#
# PCOD8280656 Si02
#       8
#    16  16  16  16  16  16  16  16
#     4   9  17  32  53  77 105 137 179 227 270 322
#     4   9  17  31  52  75 102 140 178 214 263 319
#     4   9  17  33  56  79 106 141 183 226 269 312
#     4  11  22  36  56  81 109 148 186 224 277 324
#     4  10  21  35  52  80 112 139 179 227 271 326
#     4  10  22  37  55  82 111 141 184 233 277 329
#     4  11  20  32  55  81 108 145 176 214 275 325
#     4   9  17  31  53  79 107 138 176 221 269 314
#
# _framework density 18.464956000000001
#
# number of rings (size 3 to 8) (size 9 to 14) (size 15 to 20)
#    0.000    2.250    2.500    1.875    0.000    4.500 
#    0.000    1.875    0.000    3.000    0.000    0.000 
#    0.000    0.000    0.000    0.000    0.000    0.000 
#
# Total GULP energy -793152.524024 kJ/mol
# GULP energy per Si atom -12393.008188 kJ/mol
# Density = 1.842293 g / cm^3
# Si number density = 18.464956 Si / 1000 Ang^3
#
#
#
# Elastic Constant Matrix: (Units=GPa)
#
#
# Indices 1 2 3 4 5 6 
#
# 1 83.7530 36.5513 37.8348 0.0000 0.0000 0.0000
# 2 36.5513 51.3773 26.3816 0.0000 0.0000 0.0000
# 3 37.8348 26.3816 122.9767 0.0000 0.0000 0.0000
# 4 0.0000 0.0000 0.0000 24.0785 0.0000 0.0000
# 5 0.0000 0.0000 0.0000 0.0000 24.4054 0.0000
# 6 0.0000 0.0000 0.0000 0.0000 0.0000 19.2444
#
#
#
# Elastic Compliance Matrix: (Units=1/GPa)
#
#
# Indices 1 2 3 4 5 6 
#
# 1 0.018373 -0.011427 -0.003201 0.000000 0.000000 0.000000
# 2 -0.011427 0.028981 -0.002701 0.000000 0.000000 0.000000
# 3 -0.003201 -0.002701 0.009696 0.000000 0.000000 0.000000
# 4 0.000000 0.000000 0.000000 0.041531 0.000000 0.000000
# 5 0.000000 0.000000 0.000000 0.000000 0.040975 0.000000
# 6 0.000000 0.000000 0.000000 0.000000 0.000000 0.051963
#
#
# Mechanical properties :
#
#
# Convention : Reuss Voigt Hill
#
# Bulk Modulus (GPa) = 44.66283 51.07136 47.86710
# Shear Modulus (GPa) = 21.40029 24.03493 22.71761
#
# Velocity S-wave (km/s) = 3.40805 3.61175 3.51138
# Velocity P-wave (km/s) = 6.30292 6.71652 6.51300
#
# Compressibility (1/GPa) = 0.02238998
#
# Stress axis : x y z
#
# Youngs Moduli (GPa) = 54.42737 34.50567 103.13528
#
# Poissons Ratio (x) = 0.39431 0.33015
# Poissons Ratio (y) = 0.62196 0.27861
# Poissons Ratio (z) = 0.17423 0.09321
#
# Static dielectric constant tensor:
#      x y z
#    x 3.327760 0.000000 0.000000 
#    y 0.000000 3.117700 0.000000 
#    z 0.000000 0.000000 3.586540 
# 
# 
# High freq. dielectric constant tensor:
#      x y z
#    x 1.711990 0.000000 0.000000 
#    y 0.000000 1.687020 0.000000 
#    z 0.000000 0.000000 1.722780 
# 
# From -- ./inp_files/35230.got.cif
#   From: 2010.03.12/outbox.cif.g09.slc.cpg/sg67_18_cif.got.tgz:35230.got - 2010.04.10 22:41:39.
