data_PCOD8280116
_publ_section_title
;
Structure prediction by ZEFSAII (Michael W. Deem and Ramdas Pophale) SiO2 
 PCOD8280116
Probable space group: C M M A
;
_chemical_formula_sum "Si O2"
_cell_formula_units_Z 96
_cell_length_a 19.700066
_cell_length_b 9.030787
_cell_length_c 30.423066
_cell_angle_alpha 90.000000
_cell_angle_beta 90.000000
_cell_angle_gamma 90.000000
_cell_volume 5412.479443
_symmetry_space_group_name_H-M "C M M A"
_symmetry_group_IT_number 67
_symmetry_cell_setting 'orthorhombic'
loop_
_space_group_symop_operation_xyz
x,y,z
-x,1/2-y,z
x,-y,-z
-x,1/2+y,-z
-x,-y,-z
x,1/2+y,-z
-x,y,z
x,1/2-y,z
1/2+x,1/2+y,z
1/2-x,-y,z
1/2+x,1/2-y,-z
1/2-x,y,-z
1/2-x,1/2-y,-z
1/2+x,y,-z
1/2-x,1/2+y,z
1/2+x,-y,z
loop_
_atom_site_type_symbol
_atom_site_label
_atom_site_fract_x
_atom_site_fract_y
_atom_site_fract_z
Si Si1 0.181987 0.077511 0.211221
Si Si2 0.679885 0.574703 0.110404
Si Si3 0.419026 0.417079 0.543119
Si Si4 0.577377 0.423824 0.716110
Si Si5 0.920565 0.422212 0.954826
Si Si6 0.919158 0.916966 0.371092
O O1 0.194668 0.250000 0.215978
O O2 0.165404 0.034884 0.161100
O O3 0.119784 0.024579 0.241483
O O4 0.250000 0.000000 0.228030
O O5 0.683667 0.750000 0.102070
O O6 0.750000 0.500000 0.094671
O O7 0.618032 0.503798 0.084215
O O8 0.391096 0.500000 0.500000
O O9 0.500000 0.419218 0.543374
O O10 0.391436 0.250000 0.542645
O O11 0.390131 0.498032 0.586405
O O12 0.500000 0.471176 0.725307
O O13 0.583231 0.250000 0.707484
O O14 0.607131 0.504443 0.673121
O O15 0.900276 0.250000 0.957061
O O16 0.000000 0.443050 0.945751
O O17 0.898802 0.500000 0.000000
O O18 0.891487 0.750000 0.372062
O O19 0.000000 0.920937 0.372140
#
# Coordination Sequence:
#
# PCOD8280116 Si02
#       6
#    16  16  16  16  16  16
#     4   9  19  34  52  73  98 129 162 200 244 289
#     4  10  20  35  55  78 104 134 169 208 250 296
#     4   9  15  22  33  50  75 110 149 187 229 279
#     4   9  17  30  47  67  92 123 159 196 236 284
#     4  10  21  37  56  79 107 137 169 206 248 294
#     4   9  16  25  37  56  83 114 149 190 235 281
#
# _framework density 17.736788000000001
#
# number of rings (size 3 to 8) (size 9 to 14) (size 15 to 20)
#    0.000    2.667    0.000    2.000    0.000    7.333 
#    0.000    3.333    0.000    2.000    0.000    0.000 
#    0.000    0.667    0.000    7.000    0.000   10.500 
#
# Total GULP energy -595241.769357 kJ/mol
# GULP energy per Si atom -12400.870195 kJ/mol
# Density = 1.769642 g / cm^3
# Si number density = 17.736788 Si / 1000 Ang^3
#
#
#
# Elastic Constant Matrix: (Units=GPa)
#
#
# Indices 1 2 3 4 5 6 
#
# 1 56.8246 40.0169 58.3406 0.0000 0.0000 0.0000
# 2 40.0169 110.5487 67.1868 0.0000 0.0000 0.0000
# 3 58.3406 67.1868 133.4843 0.0000 0.0000 0.0000
# 4 0.0000 0.0000 0.0000 33.9722 0.0000 0.0000
# 5 0.0000 0.0000 0.0000 0.0000 4.1526 0.0000
# 6 0.0000 0.0000 0.0000 0.0000 0.0000 22.5749
#
#
#
# Elastic Compliance Matrix: (Units=1/GPa)
#
#
# Indices 1 2 3 4 5 6 
#
# 1 0.033504 -0.004651 -0.012302 0.000000 0.000000 0.000000
# 2 -0.004651 0.013678 -0.004852 0.000000 0.000000 0.000000
# 3 -0.012302 -0.004852 0.015310 0.000000 0.000000 0.000000
# 4 0.000000 0.000000 0.000000 0.029436 0.000000 0.000000
# 5 0.000000 0.000000 0.000000 0.000000 0.240812 0.000000
# 6 0.000000 0.000000 0.000000 0.000000 0.000000 0.044297
#
#
# Mechanical properties :
#
#
# Convention : Reuss Voigt Hill
#
# Bulk Modulus (GPa) = 52.96007 70.21625 61.58816
# Shear Modulus (GPa) = 11.71121 21.16083 16.43602
#
# Velocity S-wave (km/s) = 2.57238 3.45780 3.04742
# Velocity P-wave (km/s) = 6.22467 7.45759 6.86885
#
# Compressibility (1/GPa) = 0.01888215
#
# Stress axis : x y z
#
# Youngs Moduli (GPa) = 29.84747 73.10925 65.31541
#
# Poissons Ratio (x) = 0.34004 0.80351
# Poissons Ratio (y) = 0.13882 0.31690
# Poissons Ratio (z) = 0.36718 0.35471
#
# Static dielectric constant tensor:
#      x y z
#    x 2.946630 0.000000 0.000000 
#    y 0.000000 3.421700 0.000000 
#    z 0.000000 0.000000 3.465840 
# 
# 
# High freq. dielectric constant tensor:
#      x y z
#    x 1.639470 0.000000 0.000000 
#    y 0.000000 1.698120 0.000000 
#    z 0.000000 0.000000 1.696960 
# 
# From -- ./inp_files/43431.got.cif
#   From: 2010.03.12/outbox.cif.g09.slc.cpg/sg67_22_cif.got.tgz:43431.got - 2010.04.10 22:41:39.
