data_PCOD8280548
_publ_section_title
;
Structure prediction by ZEFSAII (Michael W. Deem and Ramdas Pophale) SiO2 
 PCOD8280548
Probable space group: C M M A
;
_chemical_formula_sum "Si O2"
_cell_formula_units_Z 80
_cell_length_a 23.756316
_cell_length_b 8.702384
_cell_length_c 20.258420
_cell_angle_alpha 90.000000
_cell_angle_beta 90.000000
_cell_angle_gamma 90.000000
_cell_volume 4188.156553
_symmetry_space_group_name_H-M "C M M A"
_symmetry_group_IT_number 67
_symmetry_cell_setting 'orthorhombic'
loop_
_space_group_symop_operation_xyz
x,y,z
-x,1/2-y,z
x,-y,-z
-x,1/2+y,-z
-x,-y,-z
x,1/2+y,-z
-x,y,z
x,1/2-y,z
1/2+x,1/2+y,z
1/2-x,-y,z
1/2+x,1/2-y,-z
1/2-x,y,-z
1/2-x,1/2-y,-z
1/2+x,y,-z
1/2-x,1/2+y,z
1/2+x,-y,z
loop_
_atom_site_type_symbol
_atom_site_label
_atom_site_fract_x
_atom_site_fract_y
_atom_site_fract_z
Si Si1 0.190954 0.568919 0.929288
Si Si2 0.500000 0.569252 0.377224
Si Si3 0.811172 0.430995 0.690045
Si Si4 0.000000 0.073295 0.764087
Si Si5 0.386150 0.932469 0.569251
Si Si6 0.379677 0.428663 0.182542
O O1 0.197373 0.750000 0.935730
O O2 0.250000 0.500000 0.903273
O O3 0.141423 0.527530 0.879004
O O4 0.174904 0.500000 0.000000
O O5 0.500000 0.750000 0.388196
O O6 0.500000 0.533426 0.299758
O O7 0.553346 0.497904 0.413037
O O8 0.806073 0.250000 0.689839
O O9 0.750000 0.500000 0.695769
O O10 0.841312 0.488953 0.623629
O O11 0.848116 0.486656 0.751895
O O12 0.945870 0.039139 0.809017
O O13 0.000000 0.250000 0.739118
O O14 0.389870 0.750000 0.566117
O O15 0.365060 0.000000 0.500000
O O16 0.367459 0.250000 0.168927
#
# Coordination Sequence:
#
# PCOD8280548 Si02
#       6
#    16   8  16   8  16  16
#     4  11  22  38  61  90 123 159 198 243 287 342
#     4  12  23  37  60  89 116 149 192 243 292 349
#     4  10  22  38  59  83 115 152 193 238 291 350
#     4  10  20  39  64  87 120 157 192 237 292 347
#     4  11  23  41  60  83 114 153 194 242 297 353
#     4  10  20  38  62  89 118 155 194 239 293 345
#
# _framework density 19.101483999999999
#
# number of rings (size 3 to 8) (size 9 to 14) (size 15 to 20)
#    0.000    1.400    2.000    4.800    0.000    5.200 
#    0.000    2.500    0.000    0.000    0.000    0.000 
#    0.000    0.000    0.000    0.000    0.000    0.000 
#
# Total GULP energy -496217.699027 kJ/mol
# GULP energy per Si atom -12405.442476 kJ/mol
# Density = 1.905801 g / cm^3
# Si number density = 19.101484 Si / 1000 Ang^3
#
#
#
# Elastic Constant Matrix: (Units=GPa)
#
#
# Indices 1 2 3 4 5 6 
#
# 1 149.0087 40.5950 70.2379 0.0000 0.0000 0.0000
# 2 40.5950 91.8439 49.4193 0.0000 0.0000 0.0000
# 3 70.2379 49.4193 131.5405 0.0000 0.0000 0.0000
# 4 0.0000 0.0000 0.0000 35.0487 0.0000 0.0000
# 5 0.0000 0.0000 0.0000 0.0000 30.5724 0.0000
# 6 0.0000 0.0000 0.0000 0.0000 0.0000 28.2247
#
#
#
# Elastic Compliance Matrix: (Units=1/GPa)
#
#
# Indices 1 2 3 4 5 6 
#
# 1 0.009195 -0.001783 -0.004240 0.000000 0.000000 0.000000
# 2 -0.001783 0.013992 -0.004305 0.000000 0.000000 0.000000
# 3 -0.004240 -0.004305 0.011484 0.000000 0.000000 0.000000
# 4 0.000000 0.000000 0.000000 0.028532 0.000000 0.000000
# 5 0.000000 0.000000 0.000000 0.000000 0.032709 0.000000
# 6 0.000000 0.000000 0.000000 0.000000 0.000000 0.035430
#
#
# Mechanical properties :
#
#
# Convention : Reuss Voigt Hill
#
# Bulk Modulus (GPa) = 71.34907 76.98859 74.16883
# Shear Modulus (GPa) = 31.91414 32.91189 32.41301
#
# Velocity S-wave (km/s) = 4.09194 4.15541 4.12379
# Velocity P-wave (km/s) = 7.73039 7.96340 7.84776
#
# Compressibility (1/GPa) = 0.01401560
#
# Stress axis : x y z
#
# Youngs Moduli (GPa) = 108.74981 71.46715 87.07989
#
# Poissons Ratio (x) = 0.12741 0.36924
# Poissons Ratio (y) = 0.19388 0.37488
# Poissons Ratio (z) = 0.46112 0.30766
#
# Static dielectric constant tensor:
#      x y z
#    x 3.512390 0.000000 0.000000 
#    y 0.000000 3.473710 0.000000 
#    z 0.000000 0.000000 3.614230 
# 
# 
# High freq. dielectric constant tensor:
#      x y z
#    x 1.746830 0.000000 0.000000 
#    y 0.000000 1.743550 0.000000 
#    z 0.000000 0.000000 1.748870 
# 
# From -- ./inp_files/39512.got.cif
#   From: 2010.03.12/outbox.cif.g09.slc.cpg/sg67_20_cif.got.tgz:39512.got - 2010.04.10 22:41:39.
