data_PCOD8280423
_publ_section_title
;
Structure prediction by ZEFSAII (Michael W. Deem and Ramdas Pophale) SiO2 
 PCOD8280423
Probable space group: C M M A
;
_chemical_formula_sum "Si O2"
_cell_formula_units_Z 96
_cell_length_a 14.986307
_cell_length_b 14.417133
_cell_length_c 19.910263
_cell_angle_alpha 90.000000
_cell_angle_beta 90.000000
_cell_angle_gamma 90.000000
_cell_volume 4301.803085
_symmetry_space_group_name_H-M "C M M A"
_symmetry_group_IT_number 67
_symmetry_cell_setting 'orthorhombic'
loop_
_space_group_symop_operation_xyz
x,y,z
-x,1/2-y,z
x,-y,-z
-x,1/2+y,-z
-x,-y,-z
x,1/2+y,-z
-x,y,z
x,1/2-y,z
1/2+x,1/2+y,z
1/2-x,-y,z
1/2+x,1/2-y,-z
1/2-x,y,-z
1/2-x,1/2-y,-z
1/2+x,y,-z
1/2-x,1/2+y,z
1/2+x,-y,z
loop_
_atom_site_type_symbol
_atom_site_label
_atom_site_fract_x
_atom_site_fract_y
_atom_site_fract_z
Si Si1 0.233280 0.350104 0.336954
Si Si2 0.398370 0.856394 0.981133
Si Si3 0.099312 0.642523 0.774991
Si Si4 0.901674 0.914456 0.406746
Si Si5 0.652280 0.023833 0.897834
Si Si6 0.901871 0.124427 0.447963
O O1 0.266477 0.250000 0.311499
O O2 0.170991 0.395477 0.279315
O O3 0.323199 0.407909 0.351402
O O4 0.174685 0.330727 0.403225
O O5 0.500000 0.853554 0.006438
O O6 0.365927 0.750000 0.965587
O O7 0.393531 0.924953 0.916587
O O8 0.340024 0.904427 0.039559
O O9 0.119050 0.750000 0.794973
O O10 0.099857 0.576043 0.839322
O O11 0.000000 0.635144 0.743398
O O12 0.881292 0.853310 0.473354
O O13 0.000000 0.888368 0.376518
O O14 0.902424 0.016884 0.433505
O O15 0.750000 0.000000 0.871605
O O16 0.000000 0.165430 0.430656
#
# Coordination Sequence:
#
# PCOD8280423 Si02
#       6
#    16  16  16  16  16  16
#     4  11  22  34  53  83 114 145 186 238 295 354
#     4  10  20  36  61  92 125 158 194 240 288 339
#     4  10  22  41  61  80 110 155 206 257 302 352
#     4   9  19  35  55  79 108 147 191 236 290 351
#     4  11  22  35  58  90 121 157 197 238 293 357
#     4   9  18  34  55  78 107 145 191 240 289 346
#
# _framework density 22.316223999999998
#
# number of rings (size 3 to 8) (size 9 to 14) (size 15 to 20)
#    0.000    2.000    0.000    6.000    0.000    8.667 
#    0.000    1.667    0.000    2.000    0.000    0.000 
#    0.000    0.000    0.000    0.000    0.000    0.000 
#
# Total GULP energy -594679.893687 kJ/mol
# GULP energy per Si atom -12389.164452 kJ/mol
# Density = 2.226543 g / cm^3
# Si number density = 22.316224 Si / 1000 Ang^3
#
#
#
# Elastic Constant Matrix: (Units=GPa)
#
#
# Indices 1 2 3 4 5 6 
#
# 1 140.5663 35.1898 53.2565 0.0000 0.0000 0.0000
# 2 35.1898 123.7883 42.5312 0.0000 0.0000 0.0000
# 3 53.2565 42.5312 97.3699 0.0000 0.0000 0.0000
# 4 0.0000 0.0000 0.0000 60.8261 0.0000 0.0000
# 5 0.0000 0.0000 0.0000 0.0000 23.1192 0.0000
# 6 0.0000 0.0000 0.0000 0.0000 0.0000 42.9611
#
#
#
# Elastic Compliance Matrix: (Units=1/GPa)
#
#
# Indices 1 2 3 4 5 6 
#
# 1 0.009084 -0.001030 -0.004519 0.000000 0.000000 0.000000
# 2 -0.001030 0.009621 -0.003639 0.000000 0.000000 0.000000
# 3 -0.004519 -0.003639 0.014331 0.000000 0.000000 0.000000
# 4 0.000000 0.000000 0.000000 0.016440 0.000000 0.000000
# 5 0.000000 0.000000 0.000000 0.000000 0.043254 0.000000
# 6 0.000000 0.000000 0.000000 0.000000 0.000000 0.023277
#
#
# Mechanical properties :
#
#
# Convention : Reuss Voigt Hill
#
# Bulk Modulus (GPa) = 68.20835 69.29773 68.75304
# Shear Modulus (GPa) = 35.90137 40.76441 38.33289
#
# Velocity S-wave (km/s) = 4.01528 4.27859 4.14903
# Velocity P-wave (km/s) = 7.21994 7.45175 7.33676
#
# Compressibility (1/GPa) = 0.01466096
#
# Stress axis : x y z
#
# Youngs Moduli (GPa) = 110.08540 103.93408 69.77753
#
# Poissons Ratio (x) = 0.10703 0.31530
# Poissons Ratio (y) = 0.11337 0.25395
# Poissons Ratio (z) = 0.49743 0.37826
#
# Static dielectric constant tensor:
#      x y z
#    x 4.210090 0.000000 0.000000 
#    y 0.000000 4.178550 0.000000 
#    z 0.000000 0.000000 3.820050 
# 
# 
# High freq. dielectric constant tensor:
#      x y z
#    x 1.884100 0.000000 0.000000 
#    y 0.000000 1.884470 0.000000 
#    z 0.000000 0.000000 1.840660 
# 
# From -- ./inp_files/38482.got.cif
#   From: 2010.03.12/outbox.cif.g09.slc.cpg/sg67_20_cif.got.tgz:38482.got - 2010.04.10 22:41:39.
