data_PCOD8280606
_publ_section_title
;
Structure prediction by ZEFSAII (Michael W. Deem and Ramdas Pophale) SiO2 
 PCOD8280606
Probable space group: C M M A
;
_chemical_formula_sum "Si O2"
_cell_formula_units_Z 80
_cell_length_a 22.439912
_cell_length_b 23.353346
_cell_length_c 7.766022
_cell_angle_alpha 90.000000
_cell_angle_beta 90.000000
_cell_angle_gamma 90.000000
_cell_volume 4069.760757
_symmetry_space_group_name_H-M "C M M A"
_symmetry_group_IT_number 67
_symmetry_cell_setting 'orthorhombic'
loop_
_space_group_symop_operation_xyz
x,y,z
-x,1/2-y,z
x,-y,-z
-x,1/2+y,-z
-x,-y,-z
x,1/2+y,-z
-x,y,z
x,1/2-y,z
1/2+x,1/2+y,z
1/2-x,-y,z
1/2+x,1/2-y,-z
1/2-x,y,-z
1/2-x,1/2-y,-z
1/2+x,y,-z
1/2-x,1/2+y,z
1/2+x,-y,z
loop_
_atom_site_type_symbol
_atom_site_label
_atom_site_fract_x
_atom_site_fract_y
_atom_site_fract_z
Si Si1 0.569966 0.064552 0.554056
Si Si2 0.129487 0.125185 0.126553
Si Si3 0.568560 0.868158 0.774588
Si Si4 0.605423 0.750000 0.639226
Si Si5 0.729376 0.750000 0.760065
Si Si6 0.750000 0.848845 0.000000
Si Si7 0.867056 0.250000 0.269310
O O1 0.500000 0.074854 0.590205
O O2 0.606237 0.083558 0.723532
O O3 0.594911 0.101136 0.394439
O O4 0.583591 0.000000 0.500000
O O5 0.117141 0.192429 0.165029
O O6 0.098420 0.108463 0.947997
O O7 0.200494 0.113577 0.100200
O O8 0.500000 0.884233 0.792800
O O9 0.577928 0.801458 0.746032
O O10 0.677468 0.750000 0.619882
O O11 0.589525 0.750000 0.436587
O O12 0.796191 0.750000 0.686098
O O13 0.715076 0.807011 0.869706
#
# Coordination Sequence:
#
# PCOD8280606 Si02
#       7
#    16  16  16   8   8   8   8
#     4  10  23  43  64  86 113 155 212 256 293 353
#     4  11  20  39  61  90 122 157 197 247 307 360
#     4  11  23  37  58  88 120 154 193 246 307 364
#     4  12  18  35  53  90 123 152 193 241 296 366
#     4   9  17  31  51  85 122 154 197 232 268 361
#     4   9  18  32  58  87 118 154 197 231 286 366
#     4  10  21  32  58  89 120 164 193 234 298 368
#
# _framework density 19.657174999999999
#
# number of rings (size 3 to 8) (size 9 to 14) (size 15 to 20)
#    0.000    1.600    4.000    2.400    0.000    0.800 
#    0.000    5.500    0.000    3.600    0.000    0.000 
#    0.000    0.000    0.000    0.000    0.000    0.000 
#
# Total GULP energy -495803.562836 kJ/mol
# GULP energy per Si atom -12395.089071 kJ/mol
# Density = 1.961243 g / cm^3
# Si number density = 19.657175 Si / 1000 Ang^3
#
#
#
# Elastic Constant Matrix: (Units=GPa)
#
#
# Indices 1 2 3 4 5 6 
#
# 1 77.4001 28.8168 53.6241 0.0000 0.0000 0.0000
# 2 28.8168 89.7709 45.8324 0.0000 0.0000 0.0000
# 3 53.6241 45.8324 155.9451 0.0000 0.0000 0.0000
# 4 0.0000 0.0000 0.0000 23.8468 0.0000 0.0000
# 5 0.0000 0.0000 0.0000 0.0000 33.7474 0.0000
# 6 0.0000 0.0000 0.0000 0.0000 0.0000 21.7742
#
#
#
# Elastic Compliance Matrix: (Units=1/GPa)
#
#
# Indices 1 2 3 4 5 6 
#
# 1 0.017628 -0.003017 -0.005175 0.000000 0.000000 0.000000
# 2 -0.003017 0.013622 -0.002966 0.000000 0.000000 0.000000
# 3 -0.005175 -0.002966 0.009064 0.000000 0.000000 0.000000
# 4 0.000000 0.000000 0.000000 0.041934 0.000000 0.000000
# 5 0.000000 0.000000 0.000000 0.000000 0.029632 0.000000
# 6 0.000000 0.000000 0.000000 0.000000 0.000000 0.045926
#
#
# Mechanical properties :
#
#
# Convention : Reuss Voigt Hill
#
# Bulk Modulus (GPa) = 55.56058 64.40695 59.98376
# Shear Modulus (GPa) = 26.86401 28.86318 27.86360
#
# Velocity S-wave (km/s) = 3.70080 3.83603 3.76902
# Velocity P-wave (km/s) = 6.82550 7.24268 7.03718
#
# Compressibility (1/GPa) = 0.01799837
#
# Stress axis : x y z
#
# Youngs Moduli (GPa) = 56.72635 73.40934 110.32790
#
# Poissons Ratio (x) = 0.22145 0.57097
# Poissons Ratio (y) = 0.17112 0.32726
# Poissons Ratio (z) = 0.29357 0.21775
#
# Static dielectric constant tensor:
#      x y z
#    x 3.484970 0.000000 0.000000 
#    y 0.000000 3.324160 0.000000 
#    z 0.000000 0.000000 3.682570 
# 
# 
# High freq. dielectric constant tensor:
#      x y z
#    x 1.757840 0.000000 0.000000 
#    y 0.000000 1.736040 0.000000 
#    z 0.000000 0.000000 1.781560 
# 
# From -- ./inp_files/12403.got.cif
#   From: 2010.03.12/outbox.cif.g09.slc.cpg/sg67_7_cif.got.tgz:12403.got - 2010.04.10 22:41:39.
