data_PCOD8280424
_publ_section_title
;
Structure prediction by ZEFSAII (Michael W. Deem and Ramdas Pophale) SiO2 
 PCOD8280424
Probable space group: C M M A
;
_chemical_formula_sum "Si O2"
_cell_formula_units_Z 64
_cell_length_a 8.431346
_cell_length_b 15.339182
_cell_length_c 23.532015
_cell_angle_alpha 90.000000
_cell_angle_beta 90.000000
_cell_angle_gamma 90.000000
_cell_volume 3043.394342
_symmetry_space_group_name_H-M "C M M A"
_symmetry_group_IT_number 67
_symmetry_cell_setting 'orthorhombic'
loop_
_space_group_symop_operation_xyz
x,y,z
-x,1/2-y,z
x,-y,-z
-x,1/2+y,-z
-x,-y,-z
x,1/2+y,-z
-x,y,z
x,1/2-y,z
1/2+x,1/2+y,z
1/2-x,-y,z
1/2+x,1/2-y,-z
1/2-x,y,-z
1/2-x,1/2-y,-z
1/2+x,y,-z
1/2-x,1/2+y,z
1/2+x,-y,z
loop_
_atom_site_type_symbol
_atom_site_label
_atom_site_fract_x
_atom_site_fract_y
_atom_site_fract_z
Si Si1 0.313627 0.405747 0.561325
Si Si2 0.816317 0.250000 0.632758
Si Si3 0.683664 0.352640 0.939888
Si Si4 0.682916 0.750000 0.245094
Si Si5 0.314787 0.408009 0.175504
O O1 0.500000 0.411032 0.557477
O O2 0.250000 0.500000 0.579839
O O3 0.250000 0.376502 0.500000
O O4 0.263407 0.336342 0.608073
O O5 0.794249 0.250000 0.700056
O O6 0.000000 0.250000 0.616900
O O7 0.500000 0.377896 0.933801
O O8 0.710659 0.250000 0.933486
O O9 0.784268 0.400998 0.891727
O O10 0.750000 0.385885 0.000000
O O11 0.500000 0.750000 0.263909
O O12 0.716762 0.834401 0.207641
O O13 0.500000 0.398239 0.188838
O O14 0.250000 0.500000 0.198230
#
# Coordination Sequence:
#
# PCOD8280424 Si02
#       5
#    16   8  16   8  16
#     4  11  22  40  65  98 135 174 214 262 316 374
#     4  12  25  43  66  95 128 170 217 264 315 374
#     4  10  20  36  61  92 127 163 203 254 313 377
#     4  12  26  47  68  93 126 164 212 266 318 374
#     4  12  25  43  67  94 125 165 210 259 316 378
#
# _framework density 21.029149
#
# number of rings (size 3 to 8) (size 9 to 14) (size 15 to 20)
#    0.000    0.750    1.250    8.625    0.000    2.500 
#    0.000    7.500    0.000    0.000    0.000    0.000 
#    0.000    0.000    0.000    0.000    0.000    0.000 
#
# Total GULP energy -397071.571743 kJ/mol
# GULP energy per Si atom -12408.486617 kJ/mol
# Density = 2.098129 g / cm^3
# Si number density = 21.029149 Si / 1000 Ang^3
#
#
#
# Elastic Constant Matrix: (Units=GPa)
#
#
# Indices 1 2 3 4 5 6 
#
# 1 148.5105 31.8892 13.6535 0.0000 0.0000 0.0000
# 2 31.8892 124.0872 49.0980 0.0000 0.0000 0.0000
# 3 13.6535 49.0980 101.8283 0.0000 0.0000 0.0000
# 4 0.0000 0.0000 0.0000 -39.0633 0.0000 0.0000
# 5 0.0000 0.0000 0.0000 0.0000 38.1708 0.0000
# 6 0.0000 0.0000 0.0000 0.0000 0.0000 -50.5240
#
#
#
# Elastic Compliance Matrix: (Units=1/GPa)
#
#
# Indices 1 2 3 4 5 6 
#
# 1 0.007127 -0.001796 -0.000090 0.000000 0.000000 0.000000
# 2 -0.001796 0.010411 -0.004779 0.000000 0.000000 0.000000
# 3 -0.000090 -0.004779 0.012137 0.000000 0.000000 0.000000
# 4 0.000000 0.000000 0.000000 -0.025599 0.000000 0.000000
# 5 0.000000 0.000000 0.000000 0.000000 0.026198 0.000000
# 6 0.000000 0.000000 0.000000 0.000000 0.000000 -0.019793
#
#
# Mechanical properties :
#
#
# Convention : Reuss Voigt Hill
#
# Bulk Modulus (GPa) = 61.17814 62.63414 61.90614
# Shear Modulus (GPa) = 170.87952 8.36906 89.62429
#
# Velocity S-wave (km/s) = 9.02412 1.99709 6.53541
# Velocity P-wave (km/s) = 11.73605 5.93017 9.29790
#
# Compressibility (1/GPa) = 0.01634571
#
# Stress axis : x y z
#
# Youngs Moduli (GPa) = 140.30230 96.04796 82.39385
#
# Poissons Ratio (x) = 0.17253 0.00738
# Poissons Ratio (y) = 0.25202 0.39378
# Poissons Ratio (z) = 0.01257 0.45903
#
# Static dielectric constant tensor:
#      x y z
#    x 3.912520 0.000000 0.000000 
#    y 0.000000 3.857650 0.000000 
#    z 0.000000 0.000000 3.775650 
# 
# 
# High freq. dielectric constant tensor:
#      x y z
#    x 1.843050 0.000000 0.000000 
#    y 0.000000 1.833530 0.000000 
#    z 0.000000 0.000000 1.820190 
# 
# From -- ./inp_files/40429.got.cif
#   From: 2010.03.12/outbox.cif.g09.slc.cpg/sg67_21_cif.got.tgz:40429.got - 2010.04.10 22:41:39.
