data_PCOD8280865
_publ_section_title
;
Structure prediction by ZEFSAII (Michael W. Deem and Ramdas Pophale) SiO2 
 PCOD8280865
Probable space group: C M M A
;
_chemical_formula_sum "Si O2"
_cell_formula_units_Z 72
_cell_length_a 7.693717
_cell_length_b 15.492864
_cell_length_c 28.758436
_cell_angle_alpha 90.000000
_cell_angle_beta 90.000000
_cell_angle_gamma 90.000000
_cell_volume 3427.939747
_symmetry_space_group_name_H-M "C M M A"
_symmetry_group_IT_number 67
_symmetry_cell_setting 'orthorhombic'
loop_
_space_group_symop_operation_xyz
x,y,z
-x,1/2-y,z
x,-y,-z
-x,1/2+y,-z
-x,-y,-z
x,1/2+y,-z
-x,y,z
x,1/2-y,z
1/2+x,1/2+y,z
1/2-x,-y,z
1/2+x,1/2-y,-z
1/2-x,y,-z
1/2-x,1/2-y,-z
1/2+x,y,-z
1/2-x,1/2+y,z
1/2+x,-y,z
loop_
_atom_site_type_symbol
_atom_site_label
_atom_site_fract_x
_atom_site_fract_y
_atom_site_fract_z
Si Si1 0.802633 0.147685 0.786182
Si Si2 0.295451 0.250000 0.053548
Si Si3 0.296718 0.405422 0.113610
Si Si4 0.500000 0.352662 0.719565
Si Si5 0.693904 0.352767 0.449629
Si Si6 0.000000 0.853160 0.615258
O O1 0.797025 0.250000 0.791852
O O2 0.727541 0.107328 0.833939
O O3 0.674578 0.114906 0.745527
O O4 0.000000 0.117229 0.774805
O O5 0.500000 0.250000 0.059716
O O6 0.214613 0.334956 0.078434
O O7 0.250000 0.250000 0.000000
O O8 0.500000 0.390769 0.115142
O O9 0.250000 0.500000 0.094709
O O10 0.500000 0.250000 0.718104
O O11 0.500000 0.390587 0.667481
O O12 0.500000 0.385733 0.437256
O O13 0.698464 0.250000 0.450778
O O14 0.750000 0.388783 0.500000
O O15 0.828106 0.387905 0.411051
O O16 0.000000 0.750000 0.615587
#
# Coordination Sequence:
#
# PCOD8280865 Si02
#       6
#    16   8  16   8  16   8
#     4   9  17  33  53  72 102 140 178 229 286 339
#     4  10  22  42  60  84 122 158 190 236 296 345
#     4  10  21  37  59  85 114 148 194 242 287 345
#     4   9  18  28  44  70  94 126 180 225 276 350
#     4   9  14  20  31  45  68 110 160 210 265 319
#     4   9  16  24  32  52  84 110 157 226 265 318
#
# _framework density 21.003869999999999
#
# number of rings (size 3 to 8) (size 9 to 14) (size 15 to 20)
#    0.000    2.667    2.222    0.000    1.556    2.222 
#    0.000    6.667    0.000    0.000    0.000    0.000 
#    0.000    0.000    0.000    0.000    0.000    3.333 
#
# Total GULP energy -446292.799850 kJ/mol
# GULP energy per Si atom -12397.022218 kJ/mol
# Density = 2.095606 g / cm^3
# Si number density = 21.003870 Si / 1000 Ang^3
#
#
#
# Elastic Constant Matrix: (Units=GPa)
#
#
# Indices 1 2 3 4 5 6 
#
# 1 131.9334 21.5356 80.1944 0.0000 0.0000 0.0000
# 2 21.5356 66.9414 48.7135 0.0000 0.0000 0.0000
# 3 80.1944 48.7135 201.0560 0.0000 0.0000 0.0000
# 4 0.0000 0.0000 0.0000 1.6635 0.0000 0.0000
# 5 0.0000 0.0000 0.0000 0.0000 35.3550 0.0000
# 6 0.0000 0.0000 0.0000 0.0000 0.0000 13.6783
#
#
#
# Elastic Compliance Matrix: (Units=1/GPa)
#
#
# Indices 1 2 3 4 5 6 
#
# 1 0.010013 -0.000382 -0.003901 0.000000 0.000000 0.000000
# 2 -0.000382 0.018151 -0.004245 0.000000 0.000000 0.000000
# 3 -0.003901 -0.004245 0.007558 0.000000 0.000000 0.000000
# 4 0.000000 0.000000 0.000000 0.601126 0.000000 0.000000
# 5 0.000000 0.000000 0.000000 0.000000 0.028285 0.000000
# 6 0.000000 0.000000 0.000000 0.000000 0.000000 0.073108
#
#
# Mechanical properties :
#
#
# Convention : Reuss Voigt Hill
#
# Bulk Modulus (GPa) = 53.57711 77.86864 65.72287
# Shear Modulus (GPa) = 6.56581 26.77187 16.66884
#
# Velocity S-wave (km/s) = 1.76997 3.57405 2.82016
# Velocity P-wave (km/s) = 5.45350 7.36110 6.47790
#
# Compressibility (1/GPa) = 0.01866469
#
# Stress axis : x y z
#
# Youngs Moduli (GPa) = 99.86612 55.09434 132.30273
#
# Poissons Ratio (x) = 0.02107 0.51616
# Poissons Ratio (y) = 0.03818 0.56165
# Poissons Ratio (z) = 0.38961 0.23389
#
# Static dielectric constant tensor:
#      x y z
#    x 3.923140 0.000000 0.000000 
#    y 0.000000 3.628820 0.000000 
#    z 0.000000 0.000000 4.595250 
# 
# 
# High freq. dielectric constant tensor:
#      x y z
#    x 1.825030 0.000000 0.000000 
#    y 0.000000 1.784090 0.000000 
#    z 0.000000 0.000000 1.815270 
# 
# From -- ./inp_files/43149.got.cif
#   From: 2010.03.12/outbox.cif.g09.slc.cpg/sg67_22_cif.got.tgz:43149.got - 2010.04.10 22:41:39.
