data_PCOD8280683
_publ_section_title
;
Structure prediction by ZEFSAII (Michael W. Deem and Ramdas Pophale) SiO2 
 PCOD8280683
Probable space group: C M M A
;
_chemical_formula_sum "Si O2"
_cell_formula_units_Z 80
_cell_length_a 21.831879
_cell_length_b 18.033108
_cell_length_c 11.614546
_cell_angle_alpha 90.000000
_cell_angle_beta 90.000000
_cell_angle_gamma 90.000000
_cell_volume 4572.607641
_symmetry_space_group_name_H-M "C M M A"
_symmetry_group_IT_number 67
_symmetry_cell_setting 'orthorhombic'
loop_
_space_group_symop_operation_xyz
x,y,z
-x,1/2-y,z
x,-y,-z
-x,1/2+y,-z
-x,-y,-z
x,1/2+y,-z
-x,y,z
x,1/2-y,z
1/2+x,1/2+y,z
1/2-x,-y,z
1/2+x,1/2-y,-z
1/2-x,y,-z
1/2-x,1/2-y,-z
1/2+x,y,-z
1/2-x,1/2+y,z
1/2+x,-y,z
loop_
_atom_site_type_symbol
_atom_site_label
_atom_site_fract_x
_atom_site_fract_y
_atom_site_fract_z
Si Si1 0.744733 0.165080 0.634874
Si Si2 0.000000 0.165234 0.251036
Si Si3 0.883805 0.916416 0.011283
Si Si4 0.190489 0.951649 0.219711
Si Si5 0.372033 0.402811 0.750727
Si Si6 0.500000 0.332020 0.022678
O O1 0.758398 0.250000 0.667832
O O2 0.750000 0.151879 0.500000
O O3 0.796879 0.112943 0.689291
O O4 0.677309 0.144015 0.679322
O O5 0.060654 0.121437 0.293970
O O6 0.000000 0.250000 0.298186
O O7 0.000000 0.165634 0.114470
O O8 0.827333 0.912897 0.099473
O O9 0.939043 0.871031 0.068726
O O10 0.863582 0.884192 0.886989
O O11 0.908114 0.000000 0.000000
O O12 0.250000 0.000000 0.193479
O O13 0.138191 0.008381 0.267412
O O14 0.500000 0.250000 0.073140
#
# Coordination Sequence:
#
# PCOD8280683 Si02
#       6
#    16   8  16  16  16   8
#     4  10  21  36  52  70  95 129 167 206 251 294
#     4   9  16  29  49  75 104 129 161 202 243 281
#     4   9  17  30  48  71 102 132 159 193 241 289
#     4   9  19  32  49  72 100 130 163 199 240 293
#     4   9  18  31  52  77  99 127 162 202 242 288
#     4   9  17  27  43  70 101 134 165 193 227 281
#
# _framework density 17.495487000000001
#
# number of rings (size 3 to 8) (size 9 to 14) (size 15 to 20)
#    0.000    2.800    0.000    0.900    0.000   16.800 
#    0.000    1.000    0.000    3.600    0.000    4.200 
#    0.000    0.000    0.000    0.000    0.000    0.000 
#
# Total GULP energy -495830.344733 kJ/mol
# GULP energy per Si atom -12395.758618 kJ/mol
# Density = 1.745567 g / cm^3
# Si number density = 17.495487 Si / 1000 Ang^3
#
#
#
# Elastic Constant Matrix: (Units=GPa)
#
#
# Indices 1 2 3 4 5 6 
#
# 1 110.6407 73.3200 48.5870 0.0000 0.0000 0.0000
# 2 73.3200 117.9244 56.3788 0.0000 0.0000 0.0000
# 3 48.5870 56.3788 75.9404 0.0000 0.0000 0.0000
# 4 0.0000 0.0000 0.0000 23.3949 0.0000 0.0000
# 5 0.0000 0.0000 0.0000 0.0000 -0.3485 0.0000
# 6 0.0000 0.0000 0.0000 0.0000 0.0000 24.2988
#
#
#
# Elastic Compliance Matrix: (Units=1/GPa)
#
#
# Indices 1 2 3 4 5 6 
#
# 1 0.016309 -0.007986 -0.004506 0.000000 0.000000 0.000000
# 2 -0.007986 0.017057 -0.007553 0.000000 0.000000 0.000000
# 3 -0.004506 -0.007553 0.021659 0.000000 0.000000 0.000000
# 4 0.000000 0.000000 0.000000 0.042744 0.000000 0.000000
# 5 0.000000 0.000000 0.000000 0.000000 -2.869110 0.000000
# 6 0.000000 0.000000 0.000000 0.000000 0.000000 0.041154
#
#
# Mechanical properties :
#
#
# Convention : Reuss Voigt Hill
#
# Bulk Modulus (GPa) = 66.96134 73.45301 70.20718
# Shear Modulus (GPa) = -1.86212 17.88368 8.01078
#
# Velocity S-wave (km/s) = -1.03279 3.20064 2.14213
# Velocity P-wave (km/s) = 6.07737 7.46551 6.80692
#
# Compressibility (1/GPa) = 0.01493399
#
# Stress axis : x y z
#
# Youngs Moduli (GPa) = 61.31488 58.62804 46.17079
#
# Poissons Ratio (x) = 0.46821 0.20803
# Poissons Ratio (y) = 0.48967 0.34875
# Poissons Ratio (z) = 0.27627 0.44284
#
# Static dielectric constant tensor:
#      x y z
#    x 3.389020 0.000000 0.000000 
#    y 0.000000 3.467960 0.000000 
#    z 0.000000 0.000000 2.983070 
# 
# 
# High freq. dielectric constant tensor:
#      x y z
#    x 1.674630 0.000000 0.000000 
#    y 0.000000 1.681410 0.000000 
#    z 0.000000 0.000000 1.640040 
# 
# From -- ./inp_files/20565.got.cif
#   From: 2010.03.12/outbox.cif.g09.slc.cpg/sg67_11_cif.got.tgz:20565.got - 2010.04.10 22:41:39.
