data_PCOD8280632
_publ_section_title
;
Structure prediction by ZEFSAII (Michael W. Deem and Ramdas Pophale) SiO2 
 PCOD8280632
Probable space group: C M M A
;
_chemical_formula_sum "Si O2"
_cell_formula_units_Z 88
_cell_length_a 9.884447
_cell_length_b 15.663793
_cell_length_c 29.560769
_cell_angle_alpha 90.000000
_cell_angle_beta 90.000000
_cell_angle_gamma 90.000000
_cell_volume 4576.832725
_symmetry_space_group_name_H-M "C M M A"
_symmetry_group_IT_number 67
_symmetry_cell_setting 'orthorhombic'
loop_
_space_group_symop_operation_xyz
x,y,z
-x,1/2-y,z
x,-y,-z
-x,1/2+y,-z
-x,-y,-z
x,1/2+y,-z
-x,y,z
x,1/2-y,z
1/2+x,1/2+y,z
1/2-x,-y,z
1/2+x,1/2-y,-z
1/2-x,y,-z
1/2-x,1/2-y,-z
1/2+x,y,-z
1/2-x,1/2+y,z
1/2+x,-y,z
loop_
_atom_site_type_symbol
_atom_site_label
_atom_site_fract_x
_atom_site_fract_y
_atom_site_fract_z
Si Si1 0.156732 0.079079 0.901179
Si Si2 0.345339 0.849240 0.804097
Si Si3 0.842522 0.579951 0.629937
Si Si4 0.657748 0.750000 0.956289
Si Si5 0.147065 0.848884 0.535539
Si Si6 0.349210 0.850691 0.273844
O O1 0.186514 0.096837 0.848707
O O2 0.193689 0.164983 0.928216
O O3 0.000000 0.054346 0.909022
O O4 0.250000 0.000000 0.917631
O O5 0.500000 0.860745 0.788780
O O6 0.314317 0.750000 0.814190
O O7 0.251920 0.887200 0.764136
O O8 0.750000 0.500000 0.621365
O O9 0.810154 0.641938 0.587915
O O10 0.797248 0.624021 0.676557
O O11 0.000000 0.554338 0.631897
O O12 0.500000 0.750000 0.969823
O O13 0.750000 0.750000 0.000000
O O14 0.138213 0.750000 0.524013
O O15 0.250000 0.893216 0.500000
O O16 0.000000 0.891747 0.527906
O O17 0.500000 0.886784 0.264490
O O18 0.349941 0.750000 0.271141
#
# Coordination Sequence:
#
# PCOD8280632 Si02
#       6
#    16  16  16   8  16  16
#     4  10  21  38  60  86 118 155 194 237 288 343
#     4   9  17  33  56  79 107 145 184 224 273 328
#     4  10  21  35  50  70 101 136 167 205 257 312
#     4  10  22  42  64  86 118 158 196 240 291 342
#     4   9  18  34  55  75  94 122 162 207 254 306
#     4   9  18  33  53  76 102 136 178 221 262 310
#
# _framework density 19.227270000000001
#
# number of rings (size 3 to 8) (size 9 to 14) (size 15 to 20)
#    0.000    2.545    0.909    0.545    0.000    6.545 
#    0.000    7.273    0.000    5.455    0.000    0.000 
#    0.000    0.000    0.000    0.000    0.000    0.000 
#
# Total GULP energy -545457.337757 kJ/mol
# GULP energy per Si atom -12396.757676 kJ/mol
# Density = 1.918351 g / cm^3
# Si number density = 19.227270 Si / 1000 Ang^3
#
#
#
# Elastic Constant Matrix: (Units=GPa)
#
#
# Indices 1 2 3 4 5 6 
#
# 1 91.2971 49.7783 74.7747 0.0000 0.0000 0.0000
# 2 49.7783 67.8403 40.1973 0.0000 0.0000 0.0000
# 3 74.7747 40.1973 133.5589 0.0000 0.0000 0.0000
# 4 0.0000 0.0000 0.0000 10.9055 0.0000 0.0000
# 5 0.0000 0.0000 0.0000 0.0000 40.1107 0.0000
# 6 0.0000 0.0000 0.0000 0.0000 0.0000 26.2131
#
#
#
# Elastic Compliance Matrix: (Units=1/GPa)
#
#
# Indices 1 2 3 4 5 6 
#
# 1 0.027709 -0.013557 -0.011433 0.000000 0.000000 0.000000
# 2 -0.013557 0.024573 0.000195 0.000000 0.000000 0.000000
# 3 -0.011433 0.000195 0.013830 0.000000 0.000000 0.000000
# 4 0.000000 0.000000 0.000000 0.091696 0.000000 0.000000
# 5 0.000000 0.000000 0.000000 0.000000 0.024931 0.000000
# 6 0.000000 0.000000 0.000000 0.000000 0.000000 0.038149
#
#
# Mechanical properties :
#
#
# Convention : Reuss Voigt Hill
#
# Bulk Modulus (GPa) = 60.53187 69.13298 64.83242
# Shear Modulus (GPa) = 18.11682 23.97559 21.04621
#
# Velocity S-wave (km/s) = 3.07293 3.53506 3.31207
# Velocity P-wave (km/s) = 6.64388 7.25920 6.95835
#
# Compressibility (1/GPa) = 0.01652022
#
# Stress axis : x y z
#
# Youngs Moduli (GPa) = 36.08925 40.69491 72.30835
#
# Poissons Ratio (x) = 0.55172 0.82670
# Poissons Ratio (y) = 0.48928 -0.01407
# Poissons Ratio (z) = 0.41261 -0.00792
#
# Static dielectric constant tensor:
#      x y z
#    x 3.474990 0.000000 0.000000 
#    y 0.000000 3.280630 0.000000 
#    z 0.000000 0.000000 3.716370 
# 
# 
# High freq. dielectric constant tensor:
#      x y z
#    x 1.746660 0.000000 0.000000 
#    y 0.000000 1.732520 0.000000 
#    z 0.000000 0.000000 1.753240 
# 
# From -- ./inp_files/41815.got.cif
#   From: 2010.03.12/outbox.cif.g09.slc.cpg/sg67_21_cif.got.tgz:41815.got - 2010.04.10 22:41:39.
