data_PCOD8280141
_publ_section_title
;
Structure prediction by ZEFSAII (Michael W. Deem and Ramdas Pophale) SiO2 
 PCOD8280141
Probable space group: C M M A
;
_chemical_formula_sum "Si O2"
_cell_formula_units_Z 80
_cell_length_a 8.794163
_cell_length_b 30.334423
_cell_length_c 15.481528
_cell_angle_alpha 90.000000
_cell_angle_beta 90.000000
_cell_angle_gamma 90.000000
_cell_volume 4129.943137
_symmetry_space_group_name_H-M "C M M A"
_symmetry_group_IT_number 67
_symmetry_cell_setting 'orthorhombic'
loop_
_space_group_symop_operation_xyz
x,y,z
-x,1/2-y,z
x,-y,-z
-x,1/2+y,-z
-x,-y,-z
x,1/2+y,-z
-x,y,z
x,1/2-y,z
1/2+x,1/2+y,z
1/2-x,-y,z
1/2+x,1/2-y,-z
1/2-x,y,-z
1/2-x,1/2-y,-z
1/2+x,y,-z
1/2-x,1/2+y,z
1/2+x,-y,z
loop_
_atom_site_type_symbol
_atom_site_label
_atom_site_fract_x
_atom_site_fract_y
_atom_site_fract_z
Si Si1 0.178919 0.867579 0.586773
Si Si2 0.324883 0.801965 0.089276
Si Si3 0.332779 0.541576 0.600650
Si Si4 0.664401 0.042162 0.199328
Si Si5 0.681515 0.638331 0.769182
O O1 0.250000 0.844767 0.500000
O O2 0.216985 0.919084 0.581722
O O3 0.252375 0.849019 0.675116
O O4 0.000000 0.858840 0.589116
O O5 0.500000 0.817043 0.090938
O O6 0.308821 0.750000 0.100867
O O7 0.232276 0.823641 0.166678
O O8 0.250000 0.817683 0.000000
O O9 0.500000 0.550824 0.559498
O O10 0.250000 0.500000 0.557251
O O11 0.357407 0.532214 0.700674
O O12 0.500000 0.044070 0.153087
O O13 0.743358 0.090866 0.193648
O O14 0.750000 0.000000 0.156416
O O15 0.500000 0.635626 0.760270
#
# Coordination Sequence:
#
# PCOD8280141 Si02
#       5
#    16  16  16  16  16
#     4  11  21  33  48  69 100 140 185 230 274 322
#     4  10  21  38  62  92 120 144 173 214 269 331
#     4   9  16  27  41  61  90 128 176 229 281 327
#     4   8  15  26  43  68 100 138 180 223 265 313
#     4  10  20  35  55  81 112 147 186 227 275 329
#
# _framework density 19.370726999999999
#
# number of rings (size 3 to 8) (size 9 to 14) (size 15 to 20)
#    0.000    2.400    0.000    4.800    0.000    7.200 
#    0.000    2.000    0.000    1.200    0.000    4.200 
#    0.000    0.000    0.000    0.000    0.000    0.000 
#
# Total GULP energy -495584.264444 kJ/mol
# GULP energy per Si atom -12389.606611 kJ/mol
# Density = 1.932664 g / cm^3
# Si number density = 19.370727 Si / 1000 Ang^3
#
#
#
# Elastic Constant Matrix: (Units=GPa)
#
#
# Indices 1 2 3 4 5 6 
#
# 1 121.9726 26.9898 41.8608 0.0000 0.0000 0.0000
# 2 26.9898 38.7556 37.2433 0.0000 0.0000 0.0000
# 3 41.8608 37.2433 105.6479 0.0000 0.0000 0.0000
# 4 0.0000 0.0000 0.0000 56.1751 0.0000 0.0000
# 5 0.0000 0.0000 0.0000 0.0000 28.1484 0.0000
# 6 0.0000 0.0000 0.0000 0.0000 0.0000 24.3541
#
#
#
# Elastic Compliance Matrix: (Units=1/GPa)
#
#
# Indices 1 2 3 4 5 6 
#
# 1 0.010046 -0.004795 -0.002290 0.000000 0.000000 0.000000
# 2 -0.004795 0.041311 -0.012663 0.000000 0.000000 0.000000
# 3 -0.002290 -0.012663 0.014837 0.000000 0.000000 0.000000
# 4 0.000000 0.000000 0.000000 0.017801 0.000000 0.000000
# 5 0.000000 0.000000 0.000000 0.000000 0.035526 0.000000
# 6 0.000000 0.000000 0.000000 0.000000 0.000000 0.041061
#
#
# Mechanical properties :
#
#
# Convention : Reuss Voigt Hill
#
# Bulk Modulus (GPa) = 37.45749 53.17376 45.31563
# Shear Modulus (GPa) = 23.92603 32.42100 28.17351
#
# Velocity S-wave (km/s) = 3.51830 4.09554 3.81785
# Velocity P-wave (km/s) = 5.99031 7.06221 6.54823
#
# Compressibility (1/GPa) = 0.02669693
#
# Stress axis : x y z
#
# Youngs Moduli (GPa) = 99.54665 24.20651 67.40020
#
# Poissons Ratio (x) = 0.11608 0.15434
# Poissons Ratio (y) = 0.47736 0.85350
# Poissons Ratio (z) = 0.22795 0.30653
#
# Static dielectric constant tensor:
#      x y z
#    x 3.868840 0.000000 0.000000 
#    y 0.000000 3.312510 0.000000 
#    z 0.000000 0.000000 3.521430 
# 
# 
# High freq. dielectric constant tensor:
#      x y z
#    x 1.765670 0.000000 0.000000 
#    y 0.000000 1.719750 0.000000 
#    z 0.000000 0.000000 1.739590 
# 
# From -- ./inp_files/32298.got.cif
#   From: 2010.03.12/outbox.cif.g09.slc.cpg/sg67_17_cif.got.tgz:32298.got - 2010.04.10 22:41:39.
