data_PCOD8280051
_publ_section_title
;
Structure prediction by ZEFSAII (Michael W. Deem and Ramdas Pophale) SiO2 
 PCOD8280051
Probable space group: C M M A
;
_chemical_formula_sum "Si O2"
_cell_formula_units_Z 68
_cell_length_a 17.531181
_cell_length_b 17.201457
_cell_length_c 11.176662
_cell_angle_alpha 90.000000
_cell_angle_beta 90.000000
_cell_angle_gamma 90.000000
_cell_volume 3370.454938
_symmetry_space_group_name_H-M "C M M A"
_symmetry_group_IT_number 67
_symmetry_cell_setting 'orthorhombic'
loop_
_space_group_symop_operation_xyz
x,y,z
-x,1/2-y,z
x,-y,-z
-x,1/2+y,-z
-x,-y,-z
x,1/2+y,-z
-x,y,z
x,1/2-y,z
1/2+x,1/2+y,z
1/2-x,-y,z
1/2+x,1/2-y,-z
1/2-x,y,-z
1/2-x,1/2-y,-z
1/2+x,y,-z
1/2-x,1/2+y,z
1/2+x,-y,z
loop_
_atom_site_type_symbol
_atom_site_label
_atom_site_fract_x
_atom_site_fract_y
_atom_site_fract_z
Si Si1 0.750000 0.000000 0.500000
Si Si2 0.829944 0.840686 0.256012
Si Si3 0.330721 0.599087 0.306625
Si Si4 0.917082 0.661140 0.488606
Si Si5 0.412191 0.021762 0.137315
O O1 0.694143 0.952678 0.416723
O O2 0.847470 0.750000 0.228936
O O3 0.739167 0.854147 0.247428
O O4 0.857818 0.869933 0.387675
O O5 0.872312 0.894672 0.158922
O O6 0.389213 0.656660 0.373501
O O7 0.370997 0.547288 0.207422
O O8 0.928085 0.750000 0.456526
O O9 0.000000 0.619231 0.475512
O O10 0.500000 0.027676 0.177425
O O11 0.404337 0.000000 0.000000
#
# Coordination Sequence:
#
# PCOD8280051 Si02
#       5
#     4  16  16  16  16
#     4  12  20  32  58  92 124 148 192 242 296 364
#     4  11  22  38  63  91 122 157 198 250 308 367
#     4  12  20  38  59  91 125 158 200 249 301 354
#     4  10  20  34  57  91 127 161 196 242 306 369
#     4  11  25  44  64  86 117 163 214 255 294 350
#
# _framework density 20.175318999999998
#
# number of rings (size 3 to 8) (size 9 to 14) (size 15 to 20)
#    0.000    0.941    4.706    2.118    0.000    5.176 
#    0.000    7.059    0.000    2.824    0.000    0.000 
#    0.000    0.000    0.000    0.000    0.000    0.000 
#
# Total GULP energy -421462.363713 kJ/mol
# GULP energy per Si atom -12395.951874 kJ/mol
# Density = 2.012940 g / cm^3
# Si number density = 20.175319 Si / 1000 Ang^3
#
#
#
# Elastic Constant Matrix: (Units=GPa)
#
#
# Indices 1 2 3 4 5 6 
#
# 1 140.8361 44.0356 48.2060 0.0000 0.0000 0.0000
# 2 44.0356 89.1885 38.9422 0.0000 0.0000 0.0000
# 3 48.2060 38.9422 86.5885 0.0000 0.0000 0.0000
# 4 0.0000 0.0000 0.0000 25.8894 0.0000 0.0000
# 5 0.0000 0.0000 0.0000 0.0000 36.0204 0.0000
# 6 0.0000 0.0000 0.0000 0.0000 0.0000 28.9774
#
#
#
# Elastic Compliance Matrix: (Units=1/GPa)
#
#
# Indices 1 2 3 4 5 6 
#
# 1 0.009344 -0.002914 -0.003891 0.000000 0.000000 0.000000
# 2 -0.002914 0.014861 -0.005061 0.000000 0.000000 0.000000
# 3 -0.003891 -0.005061 0.015991 0.000000 0.000000 0.000000
# 4 0.000000 0.000000 0.000000 0.038626 0.000000 0.000000
# 5 0.000000 0.000000 0.000000 0.000000 0.027762 0.000000
# 6 0.000000 0.000000 0.000000 0.000000 0.000000 0.034510
#
#
# Mechanical properties :
#
#
# Convention : Reuss Voigt Hill
#
# Bulk Modulus (GPa) = 60.74291 64.33118 62.53705
# Shear Modulus (GPa) = 29.35756 30.53939 29.94848
#
# Velocity S-wave (km/s) = 3.81875 3.89485 3.85699
# Velocity P-wave (km/s) = 7.04391 7.22370 7.13437
#
# Compressibility (1/GPa) = 0.01646283
#
# Stress axis : x y z
#
# Youngs Moduli (GPa) = 107.02584 67.29069 62.53385
#
# Poissons Ratio (x) = 0.19610 0.24333
# Poissons Ratio (y) = 0.31190 0.31649
# Poissons Ratio (z) = 0.41645 0.34056
#
# Static dielectric constant tensor:
#      x y z
#    x 4.096440 0.000000 0.000000 
#    y 0.000000 4.607430 0.000000 
#    z 0.000000 0.000000 2.799510 
# 
# 
# High freq. dielectric constant tensor:
#      x y z
#    x 1.805610 0.000000 0.000000 
#    y 0.000000 1.785800 0.000000 
#    z 0.000000 0.000000 1.769190 
# 
# From -- ./inp_files/9482.got.cif
#   From: 2010.03.12/outbox.cif.g09.slc.cpg/sg67_5_cif.got.tgz:9482.got - 2010.04.10 22:41:39.
