data_PCOD8280839
_publ_section_title
;
Structure prediction by ZEFSAII (Michael W. Deem and Ramdas Pophale) SiO2 
 PCOD8280839
Probable space group: C M M A
;
_chemical_formula_sum "Si O2"
_cell_formula_units_Z 64
_cell_length_a 9.717061
_cell_length_b 30.119022
_cell_length_c 10.727130
_cell_angle_alpha 90.000000
_cell_angle_beta 90.000000
_cell_angle_gamma 90.000000
_cell_volume 3139.491695
_symmetry_space_group_name_H-M "C M M A"
_symmetry_group_IT_number 67
_symmetry_cell_setting 'orthorhombic'
loop_
_space_group_symop_operation_xyz
x,y,z
-x,1/2-y,z
x,-y,-z
-x,1/2+y,-z
-x,-y,-z
x,1/2+y,-z
-x,y,z
x,1/2-y,z
1/2+x,1/2+y,z
1/2-x,-y,z
1/2+x,1/2-y,-z
1/2-x,y,-z
1/2-x,1/2-y,-z
1/2+x,y,-z
1/2-x,1/2+y,z
1/2+x,-y,z
loop_
_atom_site_type_symbol
_atom_site_label
_atom_site_fract_x
_atom_site_fract_y
_atom_site_fract_z
Si Si1 0.338501 0.086961 0.383673
Si Si2 0.852357 0.962844 0.141666
Si Si3 0.342902 0.750000 0.376239
Si Si4 0.750000 0.617658 0.000000
Si Si5 0.657330 0.157838 0.749396
O O1 0.500000 0.096344 0.414349
O O2 0.250000 0.070257 0.500000
O O3 0.321642 0.047467 0.285285
O O4 0.266961 0.131347 0.332838
O O5 0.855252 0.916184 0.067155
O O6 0.000000 0.985516 0.127351
O O7 0.750000 0.000000 0.089661
O O8 0.500000 0.750000 0.423914
O O9 0.250000 0.750000 0.500000
O O10 0.313625 0.708635 0.285464
O O11 0.678638 0.649189 0.102709
O O12 0.500000 0.144272 0.715762
#
# Coordination Sequence:
#
# PCOD8280839 Si02
#       5
#    16  16   8   8  16
#     4  10  21  37  57  83 114 149 192 238 287 341
#     4  10  22  37  55  81 111 146 188 234 284 337
#     4  10  22  39  60  88 118 149 187 232 281 336
#     4  10  21  37  60  84 112 148 190 235 279 334
#     4  10  21  38  60  85 116 153 191 233 283 337
#
# _framework density 20.385465
#
# number of rings (size 3 to 8) (size 9 to 14) (size 15 to 20)
#    0.000    2.000    0.000    2.625    0.000   12.000 
#    0.000    2.500    0.000    0.000    0.000    0.000 
#    0.000    0.000    0.000    0.000    0.000    0.000 
#
# Total GULP energy -396562.435168 kJ/mol
# GULP energy per Si atom -12392.576099 kJ/mol
# Density = 2.033907 g / cm^3
# Si number density = 20.385465 Si / 1000 Ang^3
#
#
#
# Elastic Constant Matrix: (Units=GPa)
#
#
# Indices 1 2 3 4 5 6 
#
# 1 150.8302 61.3055 65.5396 0.0000 0.0000 0.0000
# 2 61.3055 113.6318 53.8556 0.0000 0.0000 0.0000
# 3 65.5396 53.8556 148.8991 0.0000 0.0000 0.0000
# 4 0.0000 0.0000 0.0000 20.5615 0.0000 0.0000
# 5 0.0000 0.0000 0.0000 0.0000 -9.7303 0.0000
# 6 0.0000 0.0000 0.0000 0.0000 0.0000 26.5348
#
#
#
# Elastic Compliance Matrix: (Units=1/GPa)
#
#
# Indices 1 2 3 4 5 6 
#
# 1 0.009349 -0.003733 -0.002765 0.000000 0.000000 0.000000
# 2 -0.003733 0.012112 -0.002737 0.000000 0.000000 0.000000
# 3 -0.002765 -0.002737 0.008923 0.000000 0.000000 0.000000
# 4 0.000000 0.000000 0.000000 0.048635 0.000000 0.000000
# 5 0.000000 0.000000 0.000000 0.000000 -0.102772 0.000000
# 6 0.000000 0.000000 0.000000 0.000000 0.000000 0.037686
#
#
# Mechanical properties :
#
#
# Convention : Reuss Voigt Hill
#
# Bulk Modulus (GPa) = 83.94463 86.08475 85.01469
# Shear Modulus (GPa) = 137.45735 22.98389 80.22062
#
# Velocity S-wave (km/s) = 8.22043 3.36142 6.27991
# Velocity P-wave (km/s) = 11.46162 7.57533 9.71479
#
# Compressibility (1/GPa) = 0.01191261
#
# Stress axis : x y z
#
# Youngs Moduli (GPa) = 106.96631 82.56255 112.07056
#
# Poissons Ratio (x) = 0.30824 0.30983
# Poissons Ratio (y) = 0.39936 0.30679
# Poissons Ratio (z) = 0.29572 0.22601
#
# Static dielectric constant tensor:
#      x y z
#    x 3.838380 0.000000 0.000000 
#    y 0.000000 3.502820 0.000000 
#    z 0.000000 0.000000 3.961070 
# 
# 
# High freq. dielectric constant tensor:
#      x y z
#    x 1.802960 0.000000 0.000000 
#    y 0.000000 1.782280 0.000000 
#    z 0.000000 0.000000 1.815060 
# 
# From -- ./inp_files/15841.got.cif
#   From: 2010.03.12/outbox.cif.g09.slc.cpg/sg67_8_cif.got.tgz:15841.got - 2010.04.10 22:41:39.
