data_PCOD8280587
_publ_section_title
;
Structure prediction by ZEFSAII (Michael W. Deem and Ramdas Pophale) SiO2 
 PCOD8280587
Probable space group: C M M A
;
_chemical_formula_sum "Si O2"
_cell_formula_units_Z 112
_cell_length_a 29.984569
_cell_length_b 14.393479
_cell_length_c 11.532089
_cell_angle_alpha 90.000000
_cell_angle_beta 90.000000
_cell_angle_gamma 90.000000
_cell_volume 4977.045082
_symmetry_space_group_name_H-M "C M M A"
_symmetry_group_IT_number 67
_symmetry_cell_setting 'orthorhombic'
loop_
_space_group_symop_operation_xyz
x,y,z
-x,1/2-y,z
x,-y,-z
-x,1/2+y,-z
-x,-y,-z
x,1/2+y,-z
-x,y,z
x,1/2-y,z
1/2+x,1/2+y,z
1/2-x,-y,z
1/2+x,1/2-y,-z
1/2-x,y,-z
1/2-x,1/2-y,-z
1/2+x,y,-z
1/2-x,1/2+y,z
1/2+x,-y,z
loop_
_atom_site_type_symbol
_atom_site_label
_atom_site_fract_x
_atom_site_fract_y
_atom_site_fract_z
Si Si1 0.313926 0.353307 0.022221
Si Si2 0.235597 0.599773 0.817340
Si Si3 0.380588 0.524021 0.377883
Si Si4 0.207762 0.146645 0.422529
Si Si5 0.948376 0.146834 0.229736
Si Si6 0.450667 0.892003 0.978747
Si Si7 0.382730 0.357202 0.205099
O O1 0.325232 0.250000 0.978721
O O2 0.271881 0.347049 0.107722
O O3 0.353882 0.394626 0.096774
O O4 0.306097 0.415487 0.906723
O O5 0.250000 0.500000 0.770065
O O6 0.224580 0.662244 0.707946
O O7 0.404070 0.500000 0.500000
O O8 0.333936 0.575260 0.413087
O O9 0.414908 0.584879 0.304864
O O10 0.372613 0.425741 0.312126
O O11 0.193131 0.250000 0.467464
O O12 0.250000 0.109621 0.500000
O O13 0.946784 0.250000 0.282915
O O14 0.000000 0.108698 0.233943
O O15 0.929993 0.151527 0.097030
O O16 0.500000 0.852573 0.968872
O O17 0.431159 0.862951 0.853283
O O18 0.448834 0.000000 0.000000
O O19 0.371801 0.250000 0.242236
#
# Coordination Sequence:
#
# PCOD8280587 Si02
#       7
#    16  16  16  16  16  16  16
#     4  10  21  37  58  89 126 163 210 269 335 408
#     4  11  22  37  62  90 123 163 214 271 338 411
#     4  12  28  46  69  99 139 183 242 298 349 422
#     4  11  27  47  70  95 129 181 238 297 354 416
#     4  10  22  44  75 108 142 182 230 289 356 426
#     4  10  20  39  70 107 146 186 227 278 350 431
#     4  11  25  42  66 101 143 185 228 285 355 429
#
# _framework density 22.503311
#
# number of rings (size 3 to 8) (size 9 to 14) (size 15 to 20)
#    0.000    1.286    1.429    4.286    6.000    3.429 
#    0.000    0.000    0.000    0.429    0.000    0.000 
#    0.000    0.000    0.000    0.000    0.000    0.000 
#
# Total GULP energy -693780.966997 kJ/mol
# GULP energy per Si atom -12388.945839 kJ/mol
# Density = 2.245209 g / cm^3
# Si number density = 22.503311 Si / 1000 Ang^3
#
#
#
# Elastic Constant Matrix: (Units=GPa)
#
#
# Indices 1 2 3 4 5 6 
#
# 1 88.2018 40.1051 46.8176 0.0000 0.0000 0.0000
# 2 40.1051 118.9042 35.5107 0.0000 0.0000 0.0000
# 3 46.8176 35.5107 123.5861 0.0000 0.0000 0.0000
# 4 0.0000 0.0000 0.0000 27.6571 0.0000 0.0000
# 5 0.0000 0.0000 0.0000 0.0000 31.5390 0.0000
# 6 0.0000 0.0000 0.0000 0.0000 0.0000 -20.4428
#
#
#
# Elastic Compliance Matrix: (Units=1/GPa)
#
#
# Indices 1 2 3 4 5 6 
#
# 1 0.015642 -0.003835 -0.004824 0.000000 0.000000 0.000000
# 2 -0.003835 0.010140 -0.001461 0.000000 0.000000 0.000000
# 3 -0.004824 -0.001461 0.010339 0.000000 0.000000 0.000000
# 4 0.000000 0.000000 0.000000 0.036157 0.000000 0.000000
# 5 0.000000 0.000000 0.000000 0.000000 0.031707 0.000000
# 6 0.000000 0.000000 0.000000 0.000000 0.000000 -0.048917
#
#
# Mechanical properties :
#
#
# Convention : Reuss Voigt Hill
#
# Bulk Modulus (GPa) = 62.96689 63.95100 63.45894
# Shear Modulus (GPa) = 62.03475 21.63457 41.83466
#
# Velocity S-wave (km/s) = 5.25612 3.10400 4.31634
# Velocity P-wave (km/s) = 8.05466 6.42858 7.28712
#
# Compressibility (1/GPa) = 0.01588136
#
# Stress axis : x y z
#
# Youngs Moduli (GPa) = 63.93096 98.61963 96.72579
#
# Poissons Ratio (x) = 0.37824 0.46656
# Poissons Ratio (y) = 0.24519 0.14128
# Poissons Ratio (z) = 0.30837 0.14405
#
# Static dielectric constant tensor:
#      x y z
#    x 4.355060 0.000000 0.000000 
#    y 0.000000 3.953800 0.000000 
#    z 0.000000 0.000000 4.077530 
# 
# 
# High freq. dielectric constant tensor:
#      x y z
#    x 1.876280 0.000000 0.000000 
#    y 0.000000 1.898810 0.000000 
#    z 0.000000 0.000000 1.880340 
# 
# From -- ./inp_files/23854.got.cif
#   From: 2010.03.12/outbox.cif.g09.slc.cpg/sg67_12_cif.got.tgz:23854.got - 2010.04.10 22:41:39.
