data_PCOD8280912
_publ_section_title
;
Structure prediction by ZEFSAII (Michael W. Deem and Ramdas Pophale) SiO2 
 PCOD8280912
Probable space group: C M M A
;
_chemical_formula_sum "Si O2"
_cell_formula_units_Z 112
_cell_length_a 15.230230
_cell_length_b 15.314684
_cell_length_c 23.521988
_cell_angle_alpha 90.000000
_cell_angle_beta 90.000000
_cell_angle_gamma 90.000000
_cell_volume 5486.413369
_symmetry_space_group_name_H-M "C M M A"
_symmetry_group_IT_number 67
_symmetry_cell_setting 'orthorhombic'
loop_
_space_group_symop_operation_xyz
x,y,z
-x,1/2-y,z
x,-y,-z
-x,1/2+y,-z
-x,-y,-z
x,1/2+y,-z
-x,y,z
x,1/2-y,z
1/2+x,1/2+y,z
1/2-x,-y,z
1/2+x,1/2-y,-z
1/2-x,y,-z
1/2-x,1/2-y,-z
1/2+x,y,-z
1/2-x,1/2+y,z
1/2+x,-y,z
loop_
_atom_site_type_symbol
_atom_site_label
_atom_site_fract_x
_atom_site_fract_y
_atom_site_fract_z
Si Si1 0.899296 0.848710 0.145690
Si Si2 0.600704 0.151290 0.854310
Si Si3 0.896354 1.000000 0.937059
Si Si4 0.250000 0.896448 0.229072
Si Si5 0.250000 0.104162 0.642379
Si Si6 0.597382 0.896159 0.436617
Si Si7 0.097382 0.103841 0.563383
O O1 0.891921 0.750000 0.122379
O O2 0.838195 0.859843 0.200453
O O3 0.000000 0.870718 0.163031
O O4 0.865210 0.913500 0.096362
O O5 0.500000 0.129282 0.836969
O O6 0.608079 0.250000 0.877621
O O7 0.634790 0.086500 0.903638
O O8 0.661805 0.140157 0.799547
O O9 0.000000 1.000000 0.942893
O O10 0.853525 0.000000 0.000000
O O11 0.250000 0.861071 0.293362
O O12 0.250000 0.000000 0.225786
O O13 0.335200 0.141671 0.609719
O O14 0.164800 0.141671 0.609719
O O15 0.250000 0.000000 0.641866
O O16 0.500000 0.862311 0.420943
O O17 0.623458 0.863936 0.500000
O O18 0.599489 1.000000 0.435641
O O19 0.000000 0.137689 0.579057
#
# Coordination Sequence:
#
# PCOD8280912 Si02
#       7
#    16  16  16  16  16  16  16
#     4  10  21  38  59  82 113 152 189 230 281 333
#     4  10  21  38  59  82 113 152 189 230 281 333
#     4   9  18  35  61  91 118 145 183 230 280 336
#     4  11  21  34  53  76 109 150 192 238 281 329
#     4   9  17  25  38  63  92 131 180 224 268 322
#     4   8  13  22  36  56  88 129 170 216 272 330
#     4   8  13  22  36  56  88 129 170 216 272 330
#
# _framework density 20.414065000000001
#
# number of rings (size 3 to 8) (size 9 to 14) (size 15 to 20)
#    0.000    2.714    1.429    1.714    0.000    3.429 
#    0.000    7.143    0.000    1.714    0.000    0.000 
#    0.000    9.143    0.000   25.143    0.000   20.571 
#
# Total GULP energy -694199.566805 kJ/mol
# GULP energy per Si atom -12396.420836 kJ/mol
# Density = 2.036760 g / cm^3
# Si number density = 20.414065 Si / 1000 Ang^3
#
#
#
# Elastic Constant Matrix: (Units=GPa)
#
#
# Indices 1 2 3 4 5 6 
#
# 1 128.8872 26.7365 93.8050 0.0000 0.0000 0.0000
# 2 26.7365 87.9614 44.2111 0.0000 0.0000 0.0000
# 3 93.8050 44.2111 192.8204 0.0000 0.0000 0.0000
# 4 0.0000 0.0000 0.0000 -0.9854 0.0000 0.0000
# 5 0.0000 0.0000 0.0000 0.0000 24.0969 0.0000
# 6 0.0000 0.0000 0.0000 0.0000 0.0000 13.8784
#
#
#
# Elastic Compliance Matrix: (Units=1/GPa)
#
#
# Indices 1 2 3 4 5 6 
#
# 1 0.012063 -0.000810 -0.005683 0.000000 0.000000 0.000000
# 2 -0.000810 0.012904 -0.002564 0.000000 0.000000 0.000000
# 3 -0.005683 -0.002564 0.008539 0.000000 0.000000 0.000000
# 4 0.000000 0.000000 0.000000 -1.014802 0.000000 0.000000
# 5 0.000000 0.000000 0.000000 0.000000 0.041499 0.000000
# 6 0.000000 0.000000 0.000000 0.000000 0.000000 0.072054
#
#
# Mechanical properties :
#
#
# Convention : Reuss Voigt Hill
#
# Bulk Modulus (GPa) = 64.97531 82.13044 73.55288
# Shear Modulus (GPa) = -5.92067 23.72575 8.90254
#
# Velocity S-wave (km/s) = -1.70487 3.41284 2.09056
# Velocity P-wave (km/s) = 5.29361 7.47326 6.47580
#
# Compressibility (1/GPa) = 0.01539046
#
# Stress axis : x y z
#
# Youngs Moduli (GPa) = 82.90085 77.49612 117.11463
#
# Poissons Ratio (x) = 0.06280 0.66551
# Poissons Ratio (y) = 0.06718 0.30033
# Poissons Ratio (z) = 0.47109 0.19873
#
# Static dielectric constant tensor:
#      x y z
#    x 3.859190 0.000000 0.000000 
#    y 0.000000 3.470390 0.000000 
#    z 0.000000 0.000000 3.860440 
# 
# 
# High freq. dielectric constant tensor:
#      x y z
#    x 1.800900 0.000000 0.000000 
#    y 0.000000 1.778410 0.000000 
#    z 0.000000 0.000000 1.784910 
# 
# From -- ./inp_files/41988.got.cif
#   From: 2010.03.12/outbox.cif.g09.slc.cpg/sg67_21_cif.got.tgz:41988.got - 2010.04.10 22:41:39.
