data_PCOD8280290
_publ_section_title
;
Structure prediction by ZEFSAII (Michael W. Deem and Ramdas Pophale) SiO2 
 PCOD8280290
Probable space group: C M M A
;
_chemical_formula_sum "Si O2"
_cell_formula_units_Z 96
_cell_length_a 17.723199
_cell_length_b 25.112650
_cell_length_c 11.893871
_cell_angle_alpha 90.000000
_cell_angle_beta 90.000000
_cell_angle_gamma 90.000000
_cell_volume 5293.682397
_symmetry_space_group_name_H-M "C M M A"
_symmetry_group_IT_number 67
_symmetry_cell_setting 'orthorhombic'
loop_
_space_group_symop_operation_xyz
x,y,z
-x,1/2-y,z
x,-y,-z
-x,1/2+y,-z
-x,-y,-z
x,1/2+y,-z
-x,y,z
x,1/2-y,z
1/2+x,1/2+y,z
1/2-x,-y,z
1/2+x,1/2-y,-z
1/2-x,y,-z
1/2-x,1/2-y,-z
1/2+x,y,-z
1/2-x,1/2+y,z
1/2+x,-y,z
loop_
_atom_site_type_symbol
_atom_site_label
_atom_site_fract_x
_atom_site_fract_y
_atom_site_fract_z
Si Si1 0.706094 0.598923 0.731033
Si Si2 0.170306 0.059200 0.959162
Si Si3 0.722916 0.189211 0.871990
Si Si4 0.588154 0.065321 0.414432
Si Si5 0.637710 0.551177 0.343021
Si Si6 0.084831 0.381965 0.135948
O O1 0.670749 0.559453 0.825041
O O2 0.725236 0.654837 0.788711
O O3 0.637346 0.611357 0.645430
O O4 0.774882 0.568916 0.667652
O O5 0.250000 0.084800 0.000000
O O6 0.102382 0.092033 0.014627
O O7 0.162887 0.000000 0.000000
O O8 0.727937 0.250000 0.832431
O O9 0.637540 0.169486 0.851232
O O10 0.750000 0.183261 0.000000
O O11 0.500000 0.066669 0.383548
O O12 0.598686 0.075898 0.546443
O O13 0.626888 0.011825 0.363261
O O14 0.595962 0.573362 0.232535
O O15 0.000000 0.361027 0.137027
#
# Coordination Sequence:
#
# PCOD8280290 Si02
#       6
#    16  16  16  16  16  16
#     4  11  20  35  56  80 103 148 186 223 269 329
#     4  11  20  32  50  77 114 146 173 212 257 323
#     4  10  20  39  59  76 103 138 181 230 275 325
#     4  11  22  34  52  81 117 147 183 227 267 311
#     4  10  20  36  53  78 113 153 190 214 255 321
#     4  11  20  34  56  81 110 141 177 224 276 323
#
# _framework density 18.134824999999999
#
# number of rings (size 3 to 8) (size 9 to 14) (size 15 to 20)
#    0.000    1.333    5.000    4.000    2.333    2.667 
#    0.000    0.000    0.000    8.500    0.000    0.000 
#    0.000    0.000    0.000    0.000    0.000    0.000 
#
# Total GULP energy -594834.618524 kJ/mol
# GULP energy per Si atom -12392.387886 kJ/mol
# Density = 1.809355 g / cm^3
# Si number density = 18.134825 Si / 1000 Ang^3
#
#
#
# Elastic Constant Matrix: (Units=GPa)
#
#
# Indices 1 2 3 4 5 6 
#
# 1 128.6819 37.2922 52.9692 0.0000 0.0000 0.0000
# 2 37.2922 85.4142 18.6679 0.0000 0.0000 0.0000
# 3 52.9692 18.6679 65.8597 0.0000 0.0000 0.0000
# 4 0.0000 0.0000 0.0000 22.0100 0.0000 0.0000
# 5 0.0000 0.0000 0.0000 0.0000 26.3048 0.0000
# 6 0.0000 0.0000 0.0000 0.0000 0.0000 7.7689
#
#
#
# Elastic Compliance Matrix: (Units=1/GPa)
#
#
# Indices 1 2 3 4 5 6 
#
# 1 0.012518 -0.003481 -0.009081 0.000000 0.000000 0.000000
# 2 -0.003481 0.013449 -0.001013 0.000000 0.000000 0.000000
# 3 -0.009081 -0.001013 0.022775 0.000000 0.000000 0.000000
# 4 0.000000 0.000000 0.000000 0.045434 0.000000 0.000000
# 5 0.000000 0.000000 0.000000 0.000000 0.038016 0.000000
# 6 0.000000 0.000000 0.000000 0.000000 0.000000 0.128718
#
#
# Mechanical properties :
#
#
# Convention : Reuss Voigt Hill
#
# Bulk Modulus (GPa) = 46.31309 55.31271 50.81290
# Shear Modulus (GPa) = 16.93453 22.61852 19.77652
#
# Velocity S-wave (km/s) = 3.05915 3.53546 3.30590
# Velocity P-wave (km/s) = 6.17021 6.87263 6.53087
#
# Compressibility (1/GPa) = 0.02159217
#
# Stress axis : x y z
#
# Youngs Moduli (GPa) = 79.88571 74.35710 43.90855
#
# Poissons Ratio (x) = 0.25881 0.39874
# Poissons Ratio (y) = 0.27805 0.04446
# Poissons Ratio (z) = 0.72546 0.07530
#
# Static dielectric constant tensor:
#      x y z
#    x 3.386450 0.000000 0.000000 
#    y 0.000000 3.233600 0.000000 
#    z 0.000000 0.000000 3.703890 
# 
# 
# High freq. dielectric constant tensor:
#      x y z
#    x 1.701120 0.000000 0.000000 
#    y 0.000000 1.666790 0.000000 
#    z 0.000000 0.000000 1.713620 
# 
# From -- ./inp_files/19832.got.cif
#   From: 2010.03.12/outbox.cif.g09.slc.cpg/sg67_10_cif.got.tgz:19832.got - 2010.04.10 22:41:39.
