data_PCOD8280687
_publ_section_title
;
Structure prediction by ZEFSAII (Michael W. Deem and Ramdas Pophale) SiO2 
 PCOD8280687
Probable space group: C M M A
;
_chemical_formula_sum "Si O2"
_cell_formula_units_Z 44
_cell_length_a 10.127443
_cell_length_b 27.887392
_cell_length_c 8.868586
_cell_angle_alpha 90.000000
_cell_angle_beta 90.000000
_cell_angle_gamma 90.000000
_cell_volume 2504.736766
_symmetry_space_group_name_H-M "C M M A"
_symmetry_group_IT_number 67
_symmetry_cell_setting 'orthorhombic'
loop_
_space_group_symop_operation_xyz
x,y,z
-x,1/2-y,z
x,-y,-z
-x,1/2+y,-z
-x,-y,-z
x,1/2+y,-z
-x,y,z
x,1/2-y,z
1/2+x,1/2+y,z
1/2-x,-y,z
1/2+x,1/2-y,-z
1/2-x,y,-z
1/2-x,1/2-y,-z
1/2+x,y,-z
1/2-x,1/2+y,z
1/2+x,-y,z
loop_
_atom_site_type_symbol
_atom_site_label
_atom_site_fract_x
_atom_site_fract_y
_atom_site_fract_z
Si Si1 0.150113 0.163597 0.864074
Si Si2 0.250000 0.000000 0.500000
Si Si3 0.848921 0.250000 0.639075
Si Si4 0.647421 0.407850 0.382693
O O1 0.178988 0.203474 0.739407
O O2 0.174385 0.111762 0.785551
O O3 0.000000 0.167829 0.925295
O O4 0.250000 0.170323 0.000000
O O5 0.337433 0.965914 0.610043
O O6 0.750000 0.250000 0.500000
O O7 0.000000 0.250000 0.580065
O O8 0.500000 0.393070 0.432894
O O9 0.750000 0.383525 0.500000
#
# Coordination Sequence:
#
# PCOD8280687 Si02
#       4
#    16   4   8  16
#     4  10  21  36  52  78 109 140 172 211 256 310
#     4   8  18  32  56  74 106 128 176 216 270 294
#     4  10  21  36  56  80 108 136 175 214 252 306
#     4   9  18  32  53  77 101 131 175 216 256 305
#
# _framework density 17.566716
#
# number of rings (size 3 to 8) (size 9 to 14) (size 15 to 20)
#    1.091    1.455    0.000    2.182    0.000    2.909 
#    0.000    0.909    0.000    4.364    0.000    0.000 
#    0.000    0.000    0.000    0.000    0.000    0.000 
#
# Total GULP energy -272592.224814 kJ/mol
# GULP energy per Si atom -12390.555673 kJ/mol
# Density = 1.752673 g / cm^3
# Si number density = 17.566716 Si / 1000 Ang^3
#
#
#
# Elastic Constant Matrix: (Units=GPa)
#
#
# Indices 1 2 3 4 5 6 
#
# 1 148.4116 38.2169 96.9317 0.0000 0.0000 0.0000
# 2 38.2169 96.9508 49.4097 0.0000 0.0000 0.0000
# 3 96.9317 49.4097 114.9761 0.0000 0.0000 0.0000
# 4 0.0000 0.0000 0.0000 13.4913 0.0000 0.0000
# 5 0.0000 0.0000 0.0000 0.0000 41.7045 0.0000
# 6 0.0000 0.0000 0.0000 0.0000 0.0000 21.6051
#
#
#
# Elastic Compliance Matrix: (Units=1/GPa)
#
#
# Indices 1 2 3 4 5 6 
#
# 1 0.015029 0.000682 -0.012964 0.000000 0.000000 0.000000
# 2 0.000682 0.013238 -0.006264 0.000000 0.000000 0.000000
# 3 -0.012964 -0.006264 0.022319 0.000000 0.000000 0.000000
# 4 0.000000 0.000000 0.000000 0.074122 0.000000 0.000000
# 5 0.000000 0.000000 0.000000 0.000000 0.023978 0.000000
# 6 0.000000 0.000000 0.000000 0.000000 0.000000 0.046285
#
#
# Mechanical properties :
#
#
# Convention : Reuss Voigt Hill
#
# Bulk Modulus (GPa) = 74.10282 81.05056 77.57669
# Shear Modulus (GPa) = 21.13616 27.07886 24.10751
#
# Velocity S-wave (km/s) = 3.47247 3.93044 3.70853
# Velocity P-wave (km/s) = 7.63889 8.17537 7.91168
#
# Compressibility (1/GPa) = 0.01349476
#
# Stress axis : x y z
#
# Youngs Moduli (GPa) = 66.53634 75.54028 44.80524
#
# Poissons Ratio (x) = -0.05156 0.58085
# Poissons Ratio (y) = -0.04541 0.28067
# Poissons Ratio (z) = 0.86257 0.47320
#
# Static dielectric constant tensor:
#      x y z
#    x 3.300850 0.000000 0.000000 
#    y 0.000000 3.375870 0.000000 
#    z 0.000000 0.000000 2.941200 
# 
# 
# High freq. dielectric constant tensor:
#      x y z
#    x 1.688370 0.000000 0.000000 
#    y 0.000000 1.684190 0.000000 
#    z 0.000000 0.000000 1.650630 
# 
# From -- ./inp_files/5629.got.cif
#   From: 2010.03.12/outbox.cif.g09.slc.cpg/sg67_3_cif.got.tgz:5629.got - 2010.04.10 22:41:39.
