data_PCOD8280468
_publ_section_title
;
Structure prediction by ZEFSAII (Michael W. Deem and Ramdas Pophale) SiO2 
 PCOD8280468
Probable space group: C M M A
;
_chemical_formula_sum "Si O2"
_cell_formula_units_Z 104
_cell_length_a 25.864600
_cell_length_b 8.990190
_cell_length_c 22.829526
_cell_angle_alpha 90.000000
_cell_angle_beta 90.000000
_cell_angle_gamma 90.000000
_cell_volume 5308.496449
_symmetry_space_group_name_H-M "C M M A"
_symmetry_group_IT_number 67
_symmetry_cell_setting 'orthorhombic'
loop_
_space_group_symop_operation_xyz
x,y,z
-x,1/2-y,z
x,-y,-z
-x,1/2+y,-z
-x,-y,-z
x,1/2+y,-z
-x,y,z
x,1/2-y,z
1/2+x,1/2+y,z
1/2-x,-y,z
1/2+x,1/2-y,-z
1/2-x,y,-z
1/2-x,1/2-y,-z
1/2+x,y,-z
1/2-x,1/2+y,z
1/2+x,-y,z
loop_
_atom_site_type_symbol
_atom_site_label
_atom_site_fract_x
_atom_site_fract_y
_atom_site_fract_z
Si Si1 0.112354 0.926045 0.436340
Si Si2 0.349906 0.924666 0.228036
Si Si3 0.695458 0.426105 0.647122
Si Si4 0.800624 0.420358 0.108715
Si Si5 0.058252 0.579753 0.175371
Si Si6 0.000000 0.919880 0.439562
Si Si7 0.409513 0.923092 0.059161
O O1 0.124099 0.750000 0.440684
O O2 0.054811 0.956225 0.407583
O O3 0.116290 0.000000 0.500000
O O4 0.153245 0.005691 0.395457
O O5 0.361392 0.750000 0.223227
O O6 0.320266 0.967932 0.286888
O O7 0.315288 0.980192 0.173492
O O8 0.404931 0.008091 0.224752
O O9 0.699047 0.250000 0.637665
O O10 0.750000 0.500000 0.632158
O O11 0.785962 0.250000 0.113210
O O12 0.750000 0.500000 0.083794
O O13 0.847998 0.448914 0.064863
O O14 0.074617 0.750000 0.164872
O O15 0.061417 0.493913 0.113996
O O16 0.000000 0.567882 0.199499
O O17 0.000000 0.750000 0.457221
O O18 0.000000 0.000000 0.500000
O O19 0.423575 0.750000 0.057128
O O20 0.429423 0.000000 0.000000
#
# Coordination Sequence:
#
# PCOD8280468 Si02
#       7
#    16  16  16  16  16   8  16
#     4  10  20  37  60  87 119 156 196 241 290 343
#     4   9  20  38  57  79 109 143 183 226 275 333
#     4  11  23  39  59  86 118 154 195 239 288 345
#     4   9  18  32  51  75 101 135 175 218 268 321
#     4  10  21  37  58  83 109 140 180 226 277 332
#     4   8  16  32  56  82 110 146 186 230 279 330
#     4  10  21  36  53  76 107 142 181 224 271 329
#
# _framework density 19.591234
#
# number of rings (size 3 to 8) (size 9 to 14) (size 15 to 20)
#    0.000    2.308    0.000    3.231    0.000    7.077 
#    1.385    3.077    0.000    0.000    0.000    0.000 
#    0.000    0.000    0.000    0.000    0.000    0.000 
#
# Total GULP energy -644649.834317 kJ/mol
# GULP energy per Si atom -12397.112198 kJ/mol
# Density = 1.954664 g / cm^3
# Si number density = 19.591234 Si / 1000 Ang^3
#
#
#
# Elastic Constant Matrix: (Units=GPa)
#
#
# Indices 1 2 3 4 5 6 
#
# 1 123.7414 52.6879 26.1640 0.0000 0.0000 0.0000
# 2 52.6879 92.3194 32.4507 0.0000 0.0000 0.0000
# 3 26.1640 32.4507 61.2931 0.0000 0.0000 0.0000
# 4 0.0000 0.0000 0.0000 30.5201 0.0000 0.0000
# 5 0.0000 0.0000 0.0000 0.0000 19.3484 0.0000
# 6 0.0000 0.0000 0.0000 0.0000 0.0000 34.0849
#
#
#
# Elastic Compliance Matrix: (Units=1/GPa)
#
#
# Indices 1 2 3 4 5 6 
#
# 1 0.010811 -0.005588 -0.001656 0.000000 0.000000 0.000000
# 2 -0.005588 0.016197 -0.006190 0.000000 0.000000 0.000000
# 3 -0.001656 -0.006190 0.020299 0.000000 0.000000 0.000000
# 4 0.000000 0.000000 0.000000 0.032765 0.000000 0.000000
# 5 0.000000 0.000000 0.000000 0.000000 0.051684 0.000000
# 6 0.000000 0.000000 0.000000 0.000000 0.000000 0.029339
#
#
# Mechanical properties :
#
#
# Convention : Reuss Voigt Hill
#
# Bulk Modulus (GPa) = 48.92672 55.55100 52.23886
# Shear Modulus (GPa) = 25.67059 27.86075 26.76567
#
# Velocity S-wave (km/s) = 3.62375 3.77517 3.70023
# Velocity P-wave (km/s) = 6.52202 6.88615 6.70656
#
# Compressibility (1/GPa) = 0.02043873
#
# Stress axis : x y z
#
# Youngs Moduli (GPa) = 92.50046 61.74111 49.26276
#
# Poissons Ratio (x) = 0.34498 0.08160
# Poissons Ratio (y) = 0.51685 0.30493
# Poissons Ratio (z) = 0.15323 0.38217
#
# Static dielectric constant tensor:
#      x y z
#    x 3.814670 0.000000 0.000000 
#    y 0.000000 3.630800 0.000000 
#    z 0.000000 0.000000 3.370380 
# 
# 
# High freq. dielectric constant tensor:
#      x y z
#    x 1.774750 0.000000 0.000000 
#    y 0.000000 1.772370 0.000000 
#    z 0.000000 0.000000 1.741320 
# 
# From -- ./inp_files/39962.got.cif
#   From: 2010.03.12/outbox.cif.g09.slc.cpg/sg67_20_cif.got.tgz:39962.got - 2010.04.10 22:41:39.
