data_PCOD8280926
_publ_section_title
;
Structure prediction by ZEFSAII (Michael W. Deem and Ramdas Pophale) SiO2 
 PCOD8280926
Probable space group: C M M A
;
_chemical_formula_sum "Si O2"
_cell_formula_units_Z 96
_cell_length_a 21.903715
_cell_length_b 24.225105
_cell_length_c 9.225561
_cell_angle_alpha 90.000000
_cell_angle_beta 90.000000
_cell_angle_gamma 90.000000
_cell_volume 4895.265294
_symmetry_space_group_name_H-M "C M M A"
_symmetry_group_IT_number 67
_symmetry_cell_setting 'orthorhombic'
loop_
_space_group_symop_operation_xyz
x,y,z
-x,1/2-y,z
x,-y,-z
-x,1/2+y,-z
-x,-y,-z
x,1/2+y,-z
-x,y,z
x,1/2-y,z
1/2+x,1/2+y,z
1/2-x,-y,z
1/2+x,1/2-y,-z
1/2-x,y,-z
1/2-x,1/2-y,-z
1/2+x,y,-z
1/2-x,1/2+y,z
1/2+x,-y,z
loop_
_atom_site_type_symbol
_atom_site_label
_atom_site_fract_x
_atom_site_fract_y
_atom_site_fract_z
Si Si1 0.571067 0.887187 0.914560
Si Si2 0.848935 0.516982 0.163196
Si Si3 0.263858 0.901255 0.670308
Si Si4 0.069203 0.189704 0.405532
Si Si5 0.133817 0.396642 0.212543
Si Si6 0.865181 0.188523 0.705615
O O1 0.500000 0.890600 0.958779
O O2 0.591910 0.943410 0.835206
O O3 0.582596 0.835021 0.811693
O O4 0.616253 0.880723 0.049881
O O5 0.793153 0.544278 0.254111
O O6 0.872841 0.462092 0.244559
O O7 0.827136 0.500000 0.000000
O O8 0.250000 0.912403 0.500000
O O9 0.203618 0.882126 0.754880
O O10 0.306124 0.849276 0.700310
O O11 0.076538 0.250000 0.327072
O O12 0.088102 0.138368 0.309030
O O13 0.109874 0.190196 0.545732
O O14 0.000000 0.180073 0.452733
O O15 0.847363 0.250000 0.758194
#
# Coordination Sequence:
#
# PCOD8280926 Si02
#       6
#    16  16  16  16  16  16
#     4  10  22  40  61  89 122 159 206 253 303 364
#     4   9  22  39  61  89 122 164 204 247 307 369
#     4  11  22  40  63  93 128 160 206 255 302 367
#     4  10  21  38  59  85 117 155 202 252 302 359
#     4  11  22  37  60  90 122 160 199 250 311 365
#     4  10  22  41  64  87 117 162 205 250 307 364
#
# _framework density 19.610786000000001
#
# number of rings (size 3 to 8) (size 9 to 14) (size 15 to 20)
#    0.000    1.833    1.667    1.500    0.000   15.667 
#    0.000    0.833    0.000    3.000    0.000    0.000 
#    0.000    0.000    0.000    0.000    0.000    0.000 
#
# Total GULP energy -594991.430675 kJ/mol
# GULP energy per Si atom -12395.654806 kJ/mol
# Density = 1.956615 g / cm^3
# Si number density = 19.610786 Si / 1000 Ang^3
#
#
#
# Elastic Constant Matrix: (Units=GPa)
#
#
# Indices 1 2 3 4 5 6 
#
# 1 89.9199 28.9038 25.1312 0.0000 0.0000 0.0000
# 2 28.9038 123.1249 30.0575 0.0000 0.0000 0.0000
# 3 25.1312 30.0575 48.7118 0.0000 0.0000 0.0000
# 4 0.0000 0.0000 0.0000 35.3776 0.0000 0.0000
# 5 0.0000 0.0000 0.0000 0.0000 21.4155 0.0000
# 6 0.0000 0.0000 0.0000 0.0000 0.0000 28.1786
#
#
#
# Elastic Compliance Matrix: (Units=1/GPa)
#
#
# Indices 1 2 3 4 5 6 
#
# 1 0.013291 -0.001703 -0.005806 0.000000 0.000000 0.000000
# 2 -0.001703 0.009780 -0.005157 0.000000 0.000000 0.000000
# 3 -0.005806 -0.005157 0.026706 0.000000 0.000000 0.000000
# 4 0.000000 0.000000 0.000000 0.028266 0.000000 0.000000
# 5 0.000000 0.000000 0.000000 0.000000 0.046695 0.000000
# 6 0.000000 0.000000 0.000000 0.000000 0.000000 0.035488
#
#
# Mechanical properties :
#
#
# Convention : Reuss Voigt Hill
#
# Bulk Modulus (GPa) = 40.90557 47.77129 44.33843
# Shear Modulus (GPa) = 25.81210 28.83861 27.32536
#
# Velocity S-wave (km/s) = 3.63191 3.83893 3.73686
# Velocity P-wave (km/s) = 6.20417 6.63796 6.42472
#
# Compressibility (1/GPa) = 0.02444655
#
# Stress axis : x y z
#
# Youngs Moduli (GPa) = 75.23815 102.24583 37.44425
#
# Poissons Ratio (x) = 0.17409 0.21742
# Poissons Ratio (y) = 0.12810 0.19308
# Poissons Ratio (z) = 0.43687 0.52723
#
# Static dielectric constant tensor:
#      x y z
#    x 3.621460 0.000000 0.000000 
#    y 0.000000 3.803750 0.000000 
#    z 0.000000 0.000000 3.617730 
# 
# 
# High freq. dielectric constant tensor:
#      x y z
#    x 1.766480 0.000000 0.000000 
#    y 0.000000 1.778150 0.000000 
#    z 0.000000 0.000000 1.756770 
# 
# From -- ./inp_files/11474.got.cif
#   From: 2010.03.12/outbox.cif.g09.slc.cpg/sg67_6_cif.got.tgz:11474.got - 2010.04.10 22:41:39.
