data_PCOD8280305
_publ_section_title
;
Structure prediction by ZEFSAII (Michael W. Deem and Ramdas Pophale) SiO2 
 PCOD8280305
Probable space group: C M M A
;
_chemical_formula_sum "Si O2"
_cell_formula_units_Z 96
_cell_length_a 14.047187
_cell_length_b 17.483848
_cell_length_c 20.840442
_cell_angle_alpha 90.000000
_cell_angle_beta 90.000000
_cell_angle_gamma 90.000000
_cell_volume 5118.389263
_symmetry_space_group_name_H-M "C M M A"
_symmetry_group_IT_number 67
_symmetry_cell_setting 'orthorhombic'
loop_
_space_group_symop_operation_xyz
x,y,z
-x,1/2-y,z
x,-y,-z
-x,1/2+y,-z
-x,-y,-z
x,1/2+y,-z
-x,y,z
x,1/2-y,z
1/2+x,1/2+y,z
1/2-x,-y,z
1/2+x,1/2-y,-z
1/2-x,y,-z
1/2-x,1/2-y,-z
1/2+x,y,-z
1/2-x,1/2+y,z
1/2+x,-y,z
loop_
_atom_site_type_symbol
_atom_site_label
_atom_site_fract_x
_atom_site_fract_y
_atom_site_fract_z
Si Si1 0.227150 0.589814 0.906811
Si Si2 0.225077 0.331911 0.572467
Si Si3 0.392125 0.973452 0.568896
Si Si4 0.889352 0.339837 0.979529
Si Si5 0.390798 0.339793 0.794966
Si Si6 0.606584 0.621711 0.349891
O O1 0.250000 0.500000 0.907375
O O2 0.325999 0.636284 0.917895
O O3 0.182325 0.615171 0.839781
O O4 0.149826 0.610515 0.961223
O O5 0.171840 0.250000 0.577528
O O6 0.250000 0.350919 0.500000
O O7 0.159642 0.399696 0.598304
O O8 0.320845 0.323383 0.613908
O O9 0.500000 0.949378 0.557256
O O10 0.349242 0.000000 0.500000
O O11 0.378704 0.036490 0.623359
O O12 0.876395 0.250000 0.994689
O O13 0.000000 0.359548 0.966847
O O14 0.500000 0.351867 0.817871
O O15 0.366168 0.250000 0.794063
O O16 0.374599 0.376786 0.725614
O O17 0.500000 0.651230 0.364838
#
# Coordination Sequence:
#
# PCOD8280305 Si02
#       6
#    16  16  16  16  16  16
#     4  11  22  34  55  87 120 154 191 239 292 347
#     4  11  22  33  52  81 110 142 177 222 278 335
#     4  10  20  36  56  77 105 142 179 224 277 331
#     4  10  20  36  59  85 116 157 201 244 288 333
#     4  10  21  39  61  83 111 149 193 242 291 343
#     4  10  21  37  59  83 108 142 188 235 284 338
#
# _framework density 18.7559
#
# number of rings (size 3 to 8) (size 9 to 14) (size 15 to 20)
#    0.000    1.667    1.667    4.500    0.000    6.000 
#    0.000    1.667    0.000    1.000    0.000    0.000 
#    0.000    0.000    0.000    0.000    0.000    0.000 
#
# Total GULP energy -595069.309302 kJ/mol
# GULP energy per Si atom -12397.277277 kJ/mol
# Density = 1.871321 g / cm^3
# Si number density = 18.755900 Si / 1000 Ang^3
#
#
#
# Elastic Constant Matrix: (Units=GPa)
#
#
# Indices 1 2 3 4 5 6 
#
# 1 120.0719 59.5207 56.2418 0.0000 0.0000 0.0000
# 2 59.5207 137.2556 53.4332 0.0000 0.0000 0.0000
# 3 56.2418 53.4332 109.0633 0.0000 0.0000 0.0000
# 4 0.0000 0.0000 0.0000 27.4388 0.0000 0.0000
# 5 0.0000 0.0000 0.0000 0.0000 21.1368 0.0000
# 6 0.0000 0.0000 0.0000 0.0000 0.0000 24.1913
#
#
#
# Elastic Compliance Matrix: (Units=1/GPa)
#
#
# Indices 1 2 3 4 5 6 
#
# 1 0.012215 -0.003515 -0.004577 0.000000 0.000000 0.000000
# 2 -0.003515 0.010014 -0.003094 0.000000 0.000000 0.000000
# 3 -0.004577 -0.003094 0.013045 0.000000 0.000000 0.000000
# 4 0.000000 0.000000 0.000000 0.036445 0.000000 0.000000
# 5 0.000000 0.000000 0.000000 0.000000 0.047311 0.000000
# 6 0.000000 0.000000 0.000000 0.000000 0.000000 0.041337
#
#
# Mechanical properties :
#
#
# Convention : Reuss Voigt Hill
#
# Bulk Modulus (GPa) = 77.50249 78.30914 77.90582
# Shear Modulus (GPa) = 26.73252 27.69972 27.21612
#
# Velocity S-wave (km/s) = 3.77939 3.84715 3.81342
# Velocity P-wave (km/s) = 7.77537 7.84707 7.81130
#
# Compressibility (1/GPa) = 0.01290281
#
# Stress axis : x y z
#
# Youngs Moduli (GPa) = 81.86975 99.85665 76.65941
#
# Poissons Ratio (x) = 0.35101 0.35084
# Poissons Ratio (y) = 0.28778 0.23716
# Poissons Ratio (z) = 0.37469 0.30892
#
# Static dielectric constant tensor:
#      x y z
#    x 3.632830 0.000000 0.000000 
#    y 0.000000 3.488610 0.000000 
#    z 0.000000 0.000000 3.332930 
# 
# 
# High freq. dielectric constant tensor:
#      x y z
#    x 1.731780 0.000000 0.000000 
#    y 0.000000 1.739030 0.000000 
#    z 0.000000 0.000000 1.710220 
# 
# From -- ./inp_files/38400.got.cif
#   From: 2010.03.12/outbox.cif.g09.slc.cpg/sg67_20_cif.got.tgz:38400.got - 2010.04.10 22:41:39.
