data_PCOD8280746
_publ_section_title
;
Structure prediction by ZEFSAII (Michael W. Deem and Ramdas Pophale) SiO2 
 PCOD8280746
Probable space group: C M M A
;
_chemical_formula_sum "Si O2"
_cell_formula_units_Z 72
_cell_length_a 15.828552
_cell_length_b 8.869804
_cell_length_c 24.894987
_cell_angle_alpha 90.000000
_cell_angle_beta 90.000000
_cell_angle_gamma 90.000000
_cell_volume 3495.160425
_symmetry_space_group_name_H-M "C M M A"
_symmetry_group_IT_number 67
_symmetry_cell_setting 'orthorhombic'
loop_
_space_group_symop_operation_xyz
x,y,z
-x,1/2-y,z
x,-y,-z
-x,1/2+y,-z
-x,-y,-z
x,1/2+y,-z
-x,y,z
x,1/2-y,z
1/2+x,1/2+y,z
1/2-x,-y,z
1/2+x,1/2-y,-z
1/2-x,y,-z
1/2-x,1/2-y,-z
1/2+x,y,-z
1/2-x,1/2+y,z
1/2+x,-y,z
loop_
_atom_site_type_symbol
_atom_site_label
_atom_site_fract_x
_atom_site_fract_y
_atom_site_fract_z
Si Si1 0.337375 0.071546 0.624592
Si Si2 0.500000 0.429136 0.558161
Si Si3 0.902322 0.584467 0.156039
Si Si4 0.400857 0.924293 0.260953
Si Si5 0.841495 0.428671 0.053396
O O1 0.330343 0.250000 0.620828
O O2 0.415878 0.013995 0.588805
O O3 0.353109 0.019130 0.685842
O O4 0.250000 0.000000 0.603324
O O5 0.500000 0.250000 0.554376
O O6 0.500000 0.500000 0.500000
O O7 0.861694 0.750000 0.144565
O O8 0.862181 0.514422 0.210070
O O9 0.893328 0.472533 0.105947
O O10 0.000000 0.603353 0.167663
O O11 0.500000 0.953051 0.269503
O O12 0.383254 0.750000 0.249754
O O13 0.837079 0.250000 0.047074
O O14 0.750000 0.500000 0.060119
O O15 0.884804 0.500000 0.000000
#
# Coordination Sequence:
#
# PCOD8280746 Si02
#       5
#    16   8  16  16  16
#     4  10  21  38  61  89 121 158 202 249 299 358
#     4  10  22  42  64  88 122 164 203 246 299 352
#     4  10  21  36  55  83 116 148 187 236 285 341
#     4   9  17  34  58  80 109 152 194 236 291 352
#     4  11  22  38  58  78 105 143 187 236 291 351
#
# _framework density 20.599910999999999
#
# number of rings (size 3 to 8) (size 9 to 14) (size 15 to 20)
#    0.000    2.000    1.111    3.333    0.000    4.889 
#    0.000    4.444    0.000    0.000    0.000    0.000 
#    0.000    0.000    0.000    0.000    0.000    0.000 
#
# Total GULP energy -446360.299422 kJ/mol
# GULP energy per Si atom -12398.897206 kJ/mol
# Density = 2.055303 g / cm^3
# Si number density = 20.599911 Si / 1000 Ang^3
#
#
#
# Elastic Constant Matrix: (Units=GPa)
#
#
# Indices 1 2 3 4 5 6 
#
# 1 86.6240 34.9404 58.3963 0.0000 0.0000 0.0000
# 2 34.9404 113.1705 58.2056 0.0000 0.0000 0.0000
# 3 58.3963 58.2056 166.1645 0.0000 0.0000 0.0000
# 4 0.0000 0.0000 0.0000 36.1864 0.0000 0.0000
# 5 0.0000 0.0000 0.0000 0.0000 16.7465 0.0000
# 6 0.0000 0.0000 0.0000 0.0000 0.0000 28.9174
#
#
#
# Elastic Compliance Matrix: (Units=1/GPa)
#
#
# Indices 1 2 3 4 5 6 
#
# 1 0.015664 -0.002445 -0.004648 0.000000 0.000000 0.000000
# 2 -0.002445 0.011160 -0.003050 0.000000 0.000000 0.000000
# 3 -0.004648 -0.003050 0.008720 0.000000 0.000000 0.000000
# 4 0.000000 0.000000 0.000000 0.027635 0.000000 0.000000
# 5 0.000000 0.000000 0.000000 0.000000 0.059714 0.000000
# 6 0.000000 0.000000 0.000000 0.000000 0.000000 0.034581
#
#
# Mechanical properties :
#
#
# Convention : Reuss Voigt Hill
#
# Bulk Modulus (GPa) = 65.54410 74.33816 69.94113
# Shear Modulus (GPa) = 27.34537 30.66452 29.00495
#
# Velocity S-wave (km/s) = 3.64737 3.86239 3.75642
# Velocity P-wave (km/s) = 7.04447 7.48704 7.26912
#
# Compressibility (1/GPa) = 0.01525690
#
# Stress axis : x y z
#
# Youngs Moduli (GPa) = 63.84013 89.60769 114.67875
#
# Poissons Ratio (x) = 0.21913 0.53307
# Poissons Ratio (y) = 0.15612 0.34974
# Poissons Ratio (z) = 0.29675 0.27328
#
# Static dielectric constant tensor:
#      x y z
#    x 3.602970 0.000000 0.000000 
#    y 0.000000 3.819150 0.000000 
#    z 0.000000 0.000000 3.976280 
# 
# 
# High freq. dielectric constant tensor:
#      x y z
#    x 1.790930 0.000000 0.000000 
#    y 0.000000 1.802390 0.000000 
#    z 0.000000 0.000000 1.814400 
# 
# From -- ./inp_files/42116.got.cif
#   From: 2010.03.12/outbox.cif.g09.slc.cpg/sg67_22_cif.got.tgz:42116.got - 2010.04.10 22:41:39.
