data_PCOD8280830
_publ_section_title
;
Structure prediction by ZEFSAII (Michael W. Deem and Ramdas Pophale) SiO2 
 PCOD8280830
Probable space group: C M M A
;
_chemical_formula_sum "Si O2"
_cell_formula_units_Z 104
_cell_length_a 21.033924
_cell_length_b 8.978095
_cell_length_c 28.782282
_cell_angle_alpha 90.000000
_cell_angle_beta 90.000000
_cell_angle_gamma 90.000000
_cell_volume 5435.377607
_symmetry_space_group_name_H-M "C M M A"
_symmetry_group_IT_number 67
_symmetry_cell_setting 'orthorhombic'
loop_
_space_group_symop_operation_xyz
x,y,z
-x,1/2-y,z
x,-y,-z
-x,1/2+y,-z
-x,-y,-z
x,1/2+y,-z
-x,y,z
x,1/2-y,z
1/2+x,1/2+y,z
1/2-x,-y,z
1/2+x,1/2-y,-z
1/2-x,y,-z
1/2-x,1/2-y,-z
1/2+x,y,-z
1/2-x,1/2+y,z
1/2+x,-y,z
loop_
_atom_site_type_symbol
_atom_site_label
_atom_site_fract_x
_atom_site_fract_y
_atom_site_fract_z
Si Si1 0.314596 0.925677 0.114149
Si Si2 0.185703 0.424612 0.220244
Si Si3 0.109732 0.075661 0.617982
Si Si4 0.427454 0.576889 0.287604
Si Si5 0.928264 0.074599 0.048602
Si Si6 0.000000 0.580830 0.452144
Si Si7 0.682839 0.427645 0.544347
O O1 0.306492 0.750000 0.109556
O O2 0.325418 0.975657 0.167280
O O3 0.376539 0.981915 0.086020
O O4 0.250000 0.000000 0.094386
O O5 0.196511 0.250000 0.224021
O O6 0.250000 0.500000 0.240469
O O7 0.122653 0.473628 0.248209
O O8 0.126110 0.250000 0.621462
O O9 0.058726 0.036576 0.579253
O O10 0.086740 0.021272 0.667705
O O11 0.166886 0.979428 0.597068
O O12 0.500000 0.546741 0.270487
O O13 0.418453 0.750000 0.300041
O O14 0.923251 0.250000 0.041849
O O15 0.000000 0.030209 0.064801
O O16 0.911132 0.000000 0.000000
O O17 0.000000 0.500000 0.500000
O O18 0.000000 0.750000 0.465957
O O19 0.642728 0.500000 0.500000
O O20 0.681477 0.250000 0.540739
O O21 0.750000 0.500000 0.536772
#
# Coordination Sequence:
#
# PCOD8280830 Si02
#       7
#    16  16  16  16  16   8  16
#     4   9  18  33  53  77 106 140 180 228 278 332
#     4   9  19  36  57  81 108 140 181 227 279 335
#     4  11  22  38  56  79 108 141 176 215 262 316
#     4  10  21  37  57  81 109 142 181 227 277 328
#     4   9  18  32  50  74 106 145 186 228 276 327
#     4  10  22  36  54  78 104 136 172 208 253 304
#     4  11  22  38  58  82 109 141 176 216 261 312
#
# _framework density 19.133904999999999
#
# number of rings (size 3 to 8) (size 9 to 14) (size 15 to 20)
#    0.000    2.154    0.769    2.769    0.000    5.231 
#    0.000    6.154    0.000    0.000    0.000    6.462 
#    0.000    0.000    0.000    0.000    0.000    0.000 
#
# Total GULP energy -644388.606361 kJ/mol
# GULP energy per Si atom -12392.088584 kJ/mol
# Density = 1.909036 g / cm^3
# Si number density = 19.133905 Si / 1000 Ang^3
#
#
#
# Elastic Constant Matrix: (Units=GPa)
#
#
# Indices 1 2 3 4 5 6 
#
# 1 139.3395 49.0176 81.9096 0.0000 0.0000 0.0000
# 2 49.0176 71.8818 45.3286 0.0000 0.0000 0.0000
# 3 81.9096 45.3286 112.3059 0.0000 0.0000 0.0000
# 4 0.0000 0.0000 0.0000 30.7716 0.0000 0.0000
# 5 0.0000 0.0000 0.0000 0.0000 45.6747 0.0000
# 6 0.0000 0.0000 0.0000 0.0000 0.0000 38.4588
#
#
#
# Elastic Compliance Matrix: (Units=1/GPa)
#
#
# Indices 1 2 3 4 5 6 
#
# 1 0.013361 -0.003979 -0.008139 0.000000 0.000000 0.000000
# 2 -0.003979 0.019846 -0.005109 0.000000 0.000000 0.000000
# 3 -0.008139 -0.005109 0.016902 0.000000 0.000000 0.000000
# 4 0.000000 0.000000 0.000000 0.032498 0.000000 0.000000
# 5 0.000000 0.000000 0.000000 0.000000 0.021894 0.000000
# 6 0.000000 0.000000 0.000000 0.000000 0.000000 0.026002
#
#
# Mechanical properties :
#
#
# Convention : Reuss Voigt Hill
#
# Bulk Modulus (GPa) = 63.86793 75.11544 69.49168
# Shear Modulus (GPa) = 29.38193 32.79911 31.09052
#
# Velocity S-wave (km/s) = 3.92292 4.14477 4.03537
# Velocity P-wave (km/s) = 7.34649 7.88977 7.62297
#
# Compressibility (1/GPa) = 0.01565731
#
# Stress axis : x y z
#
# Youngs Moduli (GPa) = 74.84727 50.38737 59.16472
#
# Poissons Ratio (x) = 0.20047 0.48152
# Poissons Ratio (y) = 0.29779 0.30224
# Poissons Ratio (z) = 0.60915 0.25740
#
# Static dielectric constant tensor:
#      x y z
#    x 3.774560 0.000000 0.000000 
#    y 0.000000 3.379420 0.000000 
#    z 0.000000 0.000000 3.537130 
# 
# 
# High freq. dielectric constant tensor:
#      x y z
#    x 1.753530 0.000000 0.000000 
#    y 0.000000 1.738290 0.000000 
#    z 0.000000 0.000000 1.739950 
# 
# From -- ./inp_files/44698.got.cif
#   From: 2010.03.12/outbox.cif.g09.slc.cpg/sg67_23_cif.got.tgz:44698.got - 2010.04.10 22:41:39.
