data_PCOD8280037
_publ_section_title
;
Structure prediction by ZEFSAII (Michael W. Deem and Ramdas Pophale) SiO2 
 PCOD8280037
Probable space group: C M M A
;
_chemical_formula_sum "Si O2"
_cell_formula_units_Z 80
_cell_length_a 9.442531
_cell_length_b 18.147639
_cell_length_c 24.118133
_cell_angle_alpha 90.000000
_cell_angle_beta 90.000000
_cell_angle_gamma 90.000000
_cell_volume 4132.874681
_symmetry_space_group_name_H-M "C M M A"
_symmetry_group_IT_number 67
_symmetry_cell_setting 'orthorhombic'
loop_
_space_group_symop_operation_xyz
x,y,z
-x,1/2-y,z
x,-y,-z
-x,1/2+y,-z
-x,-y,-z
x,1/2+y,-z
-x,y,z
x,1/2-y,z
1/2+x,1/2+y,z
1/2-x,-y,z
1/2+x,1/2-y,-z
1/2-x,y,-z
1/2-x,1/2-y,-z
1/2+x,y,-z
1/2-x,1/2+y,z
1/2+x,-y,z
loop_
_atom_site_type_symbol
_atom_site_label
_atom_site_fract_x
_atom_site_fract_y
_atom_site_fract_z
Si Si1 0.662313 0.074476 0.738170
Si Si2 0.772924 0.913078 0.617949
Si Si3 0.000000 0.162720 0.454999
Si Si4 0.330090 0.422167 0.161922
Si Si5 0.500000 0.664545 0.585075
Si Si6 0.836648 0.834932 0.051962
O O1 0.500000 0.062297 0.758402
O O2 0.657765 0.109799 0.677048
O O3 0.753536 0.118696 0.785281
O O4 0.750000 0.000000 0.730199
O O5 0.863875 0.878155 0.568813
O O6 0.626409 0.872597 0.616993
O O7 0.750000 0.000000 0.608490
O O8 0.000000 0.250000 0.441171
O O9 0.000000 0.148357 0.520097
O O10 0.500000 0.429648 0.170533
O O11 0.250000 0.500000 0.156250
O O12 0.292879 0.376826 0.107369
O O13 0.500000 0.750000 0.597543
O O14 0.798189 0.750000 0.061671
O O15 0.000000 0.846513 0.037741
O O16 0.750000 0.867497 0.000000
#
# Coordination Sequence:
#
# PCOD8280037 Si02
#       6
#    16  16   8  16   8  16
#     4  10  20  35  58  85 115 148 185 236 291 338
#     4  11  23  38  63  91 115 149 199 248 288 346
#     4  11  23  43  61  83 121 159 188 237 300 355
#     4  10  20  34  57  84 115 149 188 233 280 341
#     4  11  25  41  61  85 119 159 192 231 300 363
#     4   9  19  36  56  79 110 150 191 234 283 331
#
# _framework density 19.356985999999999
#
# number of rings (size 3 to 8) (size 9 to 14) (size 15 to 20)
#    0.000    1.800    1.000    4.200    5.600    6.000 
#    0.000    4.000    0.000    0.000    0.000    0.000 
#    0.000    0.000    0.000    0.000    0.000    0.000 
#
# Total GULP energy -495663.936407 kJ/mol
# GULP energy per Si atom -12391.598410 kJ/mol
# Density = 1.931293 g / cm^3
# Si number density = 19.356986 Si / 1000 Ang^3
#
#
#
# Elastic Constant Matrix: (Units=GPa)
#
#
# Indices 1 2 3 4 5 6 
#
# 1 134.9967 32.3272 42.9123 0.0000 0.0000 0.0000
# 2 32.3272 67.4269 49.4949 0.0000 0.0000 0.0000
# 3 42.9123 49.4949 111.5388 0.0000 0.0000 0.0000
# 4 0.0000 0.0000 0.0000 4.2873 0.0000 0.0000
# 5 0.0000 0.0000 0.0000 0.0000 38.7338 0.0000
# 6 0.0000 0.0000 0.0000 0.0000 0.0000 31.2060
#
#
#
# Elastic Compliance Matrix: (Units=1/GPa)
#
#
# Indices 1 2 3 4 5 6 
#
# 1 0.008726 -0.002550 -0.002226 0.000000 0.000000 0.000000
# 2 -0.002550 0.022741 -0.009110 0.000000 0.000000 0.000000
# 3 -0.002226 -0.009110 0.013864 0.000000 0.000000 0.000000
# 4 0.000000 0.000000 0.000000 0.233245 0.000000 0.000000
# 5 0.000000 0.000000 0.000000 0.000000 0.025817 0.000000
# 6 0.000000 0.000000 0.000000 0.000000 0.000000 0.032045
#
#
# Mechanical properties :
#
#
# Convention : Reuss Voigt Hill
#
# Bulk Modulus (GPa) = 56.94848 62.60349 59.77599
# Shear Modulus (GPa) = 13.51125 27.46064 20.48594
#
# Velocity S-wave (km/s) = 2.64484 3.77057 3.25672
# Velocity P-wave (km/s) = 6.22984 7.16715 6.71487
#
# Compressibility (1/GPa) = 0.01755973
#
# Stress axis : x y z
#
# Youngs Moduli (GPa) = 114.60505 43.97417 72.12765
#
# Poissons Ratio (x) = 0.11212 0.16053
# Poissons Ratio (y) = 0.29221 0.65709
# Poissons Ratio (z) = 0.25506 0.40061
#
# Static dielectric constant tensor:
#      x y z
#    x 3.654210 0.000000 0.000000 
#    y 0.000000 1.390320 0.000000 
#    z 0.000000 0.000000 4.287560 
# 
# 
# High freq. dielectric constant tensor:
#      x y z
#    x 1.772680 0.000000 0.000000 
#    y 0.000000 1.723240 0.000000 
#    z 0.000000 0.000000 1.773860 
# 
# From -- ./inp_files/43359.got.cif
#   From: 2010.03.12/outbox.cif.g09.slc.cpg/sg67_22_cif.got.tgz:43359.got - 2010.04.10 22:41:39.
