data_PCOD8280969
_publ_section_title
;
Structure prediction by ZEFSAII (Michael W. Deem and Ramdas Pophale) SiO2 
 PCOD8280969
Probable space group: C M M A
;
_chemical_formula_sum "Si O2"
_cell_formula_units_Z 104
_cell_length_a 19.729334
_cell_length_b 9.055778
_cell_length_c 29.833993
_cell_angle_alpha 90.000000
_cell_angle_beta 90.000000
_cell_angle_gamma 90.000000
_cell_volume 5330.274511
_symmetry_space_group_name_H-M "C M M A"
_symmetry_group_IT_number 67
_symmetry_cell_setting 'orthorhombic'
loop_
_space_group_symop_operation_xyz
x,y,z
-x,1/2-y,z
x,-y,-z
-x,1/2+y,-z
-x,-y,-z
x,1/2+y,-z
-x,y,z
x,1/2-y,z
1/2+x,1/2+y,z
1/2-x,-y,z
1/2+x,1/2-y,-z
1/2-x,y,-z
1/2-x,1/2-y,-z
1/2+x,y,-z
1/2-x,1/2+y,z
1/2+x,-y,z
loop_
_atom_site_type_symbol
_atom_site_label
_atom_site_fract_x
_atom_site_fract_y
_atom_site_fract_z
Si Si1 0.500000 0.584181 0.044810
Si Si2 0.423055 0.081474 0.788179
Si Si3 0.813950 0.924051 0.858425
Si Si4 0.175724 0.073849 0.373921
Si Si5 0.422043 0.923788 0.696307
Si Si6 0.646243 0.078785 0.952742
Si Si7 0.923290 0.422969 0.453985
O O1 0.500000 0.750000 0.028847
O O2 0.429059 0.548995 0.068672
O O3 0.500000 0.500000 0.000000
O O4 0.500000 0.070596 0.804515
O O5 0.405295 0.250000 0.773839
O O6 0.379582 0.027270 0.830515
O O7 0.408964 0.972244 0.747146
O O8 0.806538 0.750000 0.857488
O O9 0.811891 0.980422 0.910355
O O10 0.750000 0.000000 0.834431
O O11 0.183999 0.250000 0.369593
O O12 0.132230 0.028371 0.417558
O O13 0.250000 0.000000 0.376000
O O14 0.132252 0.013567 0.332569
O O15 0.500000 0.962589 0.682418
O O16 0.408439 0.750000 0.691357
O O17 0.659295 0.250000 0.962438
O O18 0.662894 0.000000 0.000000
O O19 0.902348 0.500000 0.500000
O O20 0.920530 0.250000 0.462239
O O21 0.000000 0.470053 0.439184
#
# Coordination Sequence:
#
# PCOD8280969 Si02
#       7
#     8  16  16  16  16  16  16
#     4   8  14  26  46  70  96 122 156 204 250 292
#     4   9  19  37  61  84 106 139 183 227 272 325
#     4  10  22  37  54  78 107 141 177 216 265 321
#     4  11  23  38  57  84 119 157 198 241 289 343
#     4  10  21  38  61  88 116 146 184 232 285 340
#     4   9  18  32  51  75 102 134 172 214 260 310
#     4   9  19  36  58  83 112 151 198 246 293 342
#
# _framework density 19.511189999999999
#
# number of rings (size 3 to 8) (size 9 to 14) (size 15 to 20)
#    0.000    2.462    0.000    1.385    1.077    5.231 
#    0.000    6.154    0.000    0.000    0.000    0.000 
#    0.000    0.000    0.000    0.000    0.000    0.000 
#
# Total GULP energy -644219.394397 kJ/mol
# GULP energy per Si atom -12388.834508 kJ/mol
# Density = 1.946678 g / cm^3
# Si number density = 19.511190 Si / 1000 Ang^3
#
#
#
# Elastic Constant Matrix: (Units=GPa)
#
#
# Indices 1 2 3 4 5 6 
#
# 1 141.6875 52.1582 77.7283 0.0000 0.0000 0.0000
# 2 52.1582 55.7445 45.1179 0.0000 0.0000 0.0000
# 3 77.7283 45.1179 120.2820 0.0000 0.0000 0.0000
# 4 0.0000 0.0000 0.0000 28.9935 0.0000 0.0000
# 5 0.0000 0.0000 0.0000 0.0000 12.0661 0.0000
# 6 0.0000 0.0000 0.0000 0.0000 0.0000 31.5658
#
#
#
# Elastic Compliance Matrix: (Units=1/GPa)
#
#
# Indices 1 2 3 4 5 6 
#
# 1 0.012849 -0.007613 -0.005447 0.000000 0.000000 0.000000
# 2 -0.007613 0.030270 -0.006435 0.000000 0.000000 0.000000
# 3 -0.005447 -0.006435 0.014248 0.000000 0.000000 0.000000
# 4 0.000000 0.000000 0.000000 0.034491 0.000000 0.000000
# 5 0.000000 0.000000 0.000000 0.000000 0.082877 0.000000
# 6 0.000000 0.000000 0.000000 0.000000 0.000000 0.031680
#
#
# Mechanical properties :
#
#
# Convention : Reuss Voigt Hill
#
# Bulk Modulus (GPa) = 54.41786 74.19143 64.30465
# Shear Modulus (GPa) = 19.87834 24.03903 21.95869
#
# Velocity S-wave (km/s) = 3.19535 3.51388 3.35840
# Velocity P-wave (km/s) = 6.44708 7.38721 6.93310
#
# Compressibility (1/GPa) = 0.01837632
#
# Stress axis : x y z
#
# Youngs Moduli (GPa) = 77.82867 33.03554 70.18711
#
# Poissons Ratio (x) = 0.25151 0.38233
# Poissons Ratio (y) = 0.59253 0.45163
# Poissons Ratio (z) = 0.42396 0.21257
#
# Static dielectric constant tensor:
#      x y z
#    x 3.844920 0.000000 0.000000 
#    y 0.000000 3.499560 0.000000 
#    z 0.000000 0.000000 3.471730 
# 
# 
# High freq. dielectric constant tensor:
#      x y z
#    x 1.772490 0.000000 0.000000 
#    y 0.000000 1.753830 0.000000 
#    z 0.000000 0.000000 1.753390 
# 
# From -- ./inp_files/45873.got.cif
#   From: 2010.03.12/outbox.cif.g09.slc.cpg/sg67_23_cif.got.tgz:45873.got - 2010.04.10 22:41:39.
