data_PCOD8280168
_publ_section_title
;
Structure prediction by ZEFSAII (Michael W. Deem and Ramdas Pophale) SiO2 
 PCOD8280168
Probable space group: C M M A
;
_chemical_formula_sum "Si O2"
_cell_formula_units_Z 80
_cell_length_a 8.958037
_cell_length_b 17.761391
_cell_length_c 25.909057
_cell_angle_alpha 90.000000
_cell_angle_beta 90.000000
_cell_angle_gamma 90.000000
_cell_volume 4122.317456
_symmetry_space_group_name_H-M "C M M A"
_symmetry_group_IT_number 67
_symmetry_cell_setting 'orthorhombic'
loop_
_space_group_symop_operation_xyz
x,y,z
-x,1/2-y,z
x,-y,-z
-x,1/2+y,-z
-x,-y,-z
x,1/2+y,-z
-x,y,z
x,1/2-y,z
1/2+x,1/2+y,z
1/2-x,-y,z
1/2+x,1/2-y,-z
1/2-x,y,-z
1/2-x,1/2-y,-z
1/2+x,y,-z
1/2-x,1/2+y,z
1/2+x,-y,z
loop_
_atom_site_type_symbol
_atom_site_label
_atom_site_fract_x
_atom_site_fract_y
_atom_site_fract_z
Si Si1 0.168864 0.660229 0.051120
Si Si2 0.663537 0.160877 0.548430
Si Si3 0.677233 0.420123 0.244882
Si Si4 0.331465 0.160749 0.846864
Si Si5 0.323529 0.836942 0.337296
O O1 0.168795 0.750000 0.050969
O O2 0.258016 0.629053 0.100674
O O3 0.000000 0.629299 0.052618
O O4 0.250000 0.629127 0.000000
O O5 0.500000 0.125083 0.546341
O O6 0.654037 0.250000 0.541768
O O7 0.750000 0.124461 0.500000
O O8 0.733120 0.142986 0.604694
O O9 0.500000 0.426704 0.244284
O O10 0.750000 0.500000 0.233128
O O11 0.731075 0.362965 0.201180
O O12 0.730387 0.390308 0.300144
O O13 0.500000 0.128837 0.841731
O O14 0.335086 0.250000 0.848252
O O15 0.500000 0.852250 0.331412
O O16 0.289227 0.750000 0.324243
#
# Coordination Sequence:
#
# PCOD8280168 Si02
#       5
#    16  16  16  16  16
#     4   9  16  27  46  75 109 141 174 213 257 304
#     4   8  14  25  44  72 105 137 167 203 249 300
#     4  12  25  39  55  75 102 137 177 220 266 315
#     4  10  20  35  56  81 109 140 174 215 262 310
#     4   9  18  34  55  79 108 140 173 212 259 309
#
# _framework density 19.406559999999999
#
# number of rings (size 3 to 8) (size 9 to 14) (size 15 to 20)
#    0.000    2.400    0.000    4.800    0.000    7.200 
#    0.000    2.000    0.000    1.200    0.000    8.400 
#    0.000    0.000    0.000    0.000    0.000    0.000 
#
# Total GULP energy -495898.474477 kJ/mol
# GULP energy per Si atom -12397.461862 kJ/mol
# Density = 1.936239 g / cm^3
# Si number density = 19.406560 Si / 1000 Ang^3
#
#
#
# Elastic Constant Matrix: (Units=GPa)
#
#
# Indices 1 2 3 4 5 6 
#
# 1 135.5073 20.5297 63.6460 0.0000 0.0000 0.0000
# 2 20.5297 18.0525 13.6271 0.0000 0.0000 0.0000
# 3 63.6460 13.6271 151.8535 0.0000 0.0000 0.0000
# 4 0.0000 0.0000 0.0000 0.3303 0.0000 0.0000
# 5 0.0000 0.0000 0.0000 0.0000 38.9012 0.0000
# 6 0.0000 0.0000 0.0000 0.0000 0.0000 21.7698
#
#
#
# Elastic Compliance Matrix: (Units=1/GPa)
#
#
# Indices 1 2 3 4 5 6 
#
# 1 0.010440 -0.009192 -0.003551 0.000000 0.000000 0.000000
# 2 -0.009192 0.067513 -0.002206 0.000000 0.000000 0.000000
# 3 -0.003551 -0.002206 0.008271 0.000000 0.000000 0.000000
# 4 0.000000 0.000000 0.000000 3.027533 0.000000 0.000000
# 5 0.000000 0.000000 0.000000 0.000000 0.025706 0.000000
# 6 0.000000 0.000000 0.000000 0.000000 0.000000 0.045935
#
#
# Mechanical properties :
#
#
# Convention : Reuss Voigt Hill
#
# Bulk Modulus (GPa) = 17.75361 55.66879 36.71120
# Shear Modulus (GPa) = 1.54604 26.04095 13.79349
#
# Velocity S-wave (km/s) = 0.89353 3.66712 2.66891
# Velocity P-wave (km/s) = 3.19885 6.83214 5.33436
#
# Compressibility (1/GPa) = 0.05632656
#
# Stress axis : x y z
#
# Youngs Moduli (GPa) = 95.78423 14.81200 120.89729
#
# Poissons Ratio (x) = 0.13616 0.42929
# Poissons Ratio (y) = 0.88049 0.26667
# Poissons Ratio (z) = 0.34011 0.03267
#
# Static dielectric constant tensor:
#      x y z
#    x 3.806500 0.000000 0.000000 
#    y 0.000000 3.012610 0.000000 
#    z 0.000000 0.000000 3.825240 
# 
# 
# High freq. dielectric constant tensor:
#      x y z
#    x 1.760200 0.000000 0.000000 
#    y 0.000000 1.699520 0.000000 
#    z 0.000000 0.000000 1.777160 
# 
# From -- ./inp_files/43296.got.cif
#   From: 2010.03.12/outbox.cif.g09.slc.cpg/sg67_22_cif.got.tgz:43296.got - 2010.04.10 22:41:39.
