data_PCOD8280196
_publ_section_title
;
Structure prediction by ZEFSAII (Michael W. Deem and Ramdas Pophale) SiO2 
 PCOD8280196
Probable space group: C M M A
;
_chemical_formula_sum "Si O2"
_cell_formula_units_Z 112
_cell_length_a 16.850059
_cell_length_b 24.059498
_cell_length_c 14.004456
_cell_angle_alpha 90.000000
_cell_angle_beta 90.000000
_cell_angle_gamma 90.000000
_cell_volume 5677.461931
_symmetry_space_group_name_H-M "C M M A"
_symmetry_group_IT_number 67
_symmetry_cell_setting 'orthorhombic'
loop_
_space_group_symop_operation_xyz
x,y,z
-x,1/2-y,z
x,-y,-z
-x,1/2+y,-z
-x,-y,-z
x,1/2+y,-z
-x,y,z
x,1/2-y,z
1/2+x,1/2+y,z
1/2-x,-y,z
1/2+x,1/2-y,-z
1/2-x,y,-z
1/2-x,1/2-y,-z
1/2+x,y,-z
1/2-x,1/2+y,z
1/2+x,-y,z
loop_
_atom_site_type_symbol
_atom_site_label
_atom_site_fract_x
_atom_site_fract_y
_atom_site_fract_z
Si Si1 0.406557 0.187581 0.284857
Si Si2 0.656973 0.813185 0.507675
Si Si3 0.406378 0.616385 0.339589
Si Si4 0.340065 0.980920 0.226448
Si Si5 0.407756 0.689658 0.167822
Si Si6 0.906908 0.913902 0.947267
Si Si7 0.591961 0.088613 0.159445
O O1 0.500000 0.179847 0.298985
O O2 0.385648 0.250000 0.250884
O O3 0.366099 0.173455 0.384670
O O4 0.371838 0.144531 0.206684
O O5 0.631000 0.750000 0.479444
O O6 0.750000 0.820739 0.500000
O O7 0.613730 0.859205 0.442960
O O8 0.500000 0.606435 0.328909
O O9 0.363745 0.557419 0.317042
O O10 0.372864 0.660327 0.262269
O O11 0.356015 0.950106 0.126234
O O12 0.250000 0.000000 0.234491
O O13 0.392583 0.036769 0.228852
O O14 0.500000 0.698422 0.185720
O O15 0.366763 0.750000 0.152644
O O16 0.393857 0.651259 0.075506
O O17 0.000000 0.930724 0.936559
O O18 0.872590 0.923117 0.053762
O O19 0.500000 0.099219 0.144351
#
# Coordination Sequence:
#
# PCOD8280196 Si02
#       7
#    16  16  16  16  16  16  16
#     4   9  19  36  58  85 113 146 192 237 280 343
#     4  10  21  36  60  89 119 153 187 230 289 349
#     4  10  20  36  59  86 114 148 192 239 287 342
#     4  11  23  36  56  81 110 149 189 243 290 344
#     4   8  14  26  48  80 113 139 173 225 278 327
#     4   9  18  33  53  80 112 148 191 234 277 337
#     4  10  20  35  57  79 109 151 190 235 284 337
#
# _framework density 19.727125000000001
#
# number of rings (size 3 to 8) (size 9 to 14) (size 15 to 20)
#    0.000    2.429    0.000    3.429    2.000    4.286 
#    0.000    3.571    0.000    2.571    0.000    3.000 
#    0.000    0.000    0.000    0.000    0.000    0.000 
#
# Total GULP energy -694189.120322 kJ/mol
# GULP energy per Si atom -12396.234291 kJ/mol
# Density = 1.968222 g / cm^3
# Si number density = 19.727125 Si / 1000 Ang^3
#
#
#
# Elastic Constant Matrix: (Units=GPa)
#
#
# Indices 1 2 3 4 5 6 
#
# 1 53.1040 29.6965 27.4207 0.0000 0.0000 0.0000
# 2 29.6965 130.3368 39.4160 0.0000 0.0000 0.0000
# 3 27.4207 39.4160 70.6915 0.0000 0.0000 0.0000
# 4 0.0000 0.0000 0.0000 36.2612 0.0000 0.0000
# 5 0.0000 0.0000 0.0000 0.0000 17.4304 0.0000
# 6 0.0000 0.0000 0.0000 0.0000 0.0000 20.8365
#
#
#
# Elastic Compliance Matrix: (Units=1/GPa)
#
#
# Indices 1 2 3 4 5 6 
#
# 1 0.024660 -0.003279 -0.007737 0.000000 0.000000 0.000000
# 2 -0.003279 0.009664 -0.004117 0.000000 0.000000 0.000000
# 3 -0.007737 -0.004117 0.019443 0.000000 0.000000 0.000000
# 4 0.000000 0.000000 0.000000 0.027578 0.000000 0.000000
# 5 0.000000 0.000000 0.000000 0.000000 0.057371 0.000000
# 6 0.000000 0.000000 0.000000 0.000000 0.000000 0.047993
#
#
# Mechanical properties :
#
#
# Convention : Reuss Voigt Hill
#
# Bulk Modulus (GPa) = 42.55096 49.68873 46.11984
# Shear Modulus (GPa) = 22.24126 25.41224 23.82675
#
# Velocity S-wave (km/s) = 3.36139 3.59303 3.47914
# Velocity P-wave (km/s) = 6.05655 6.51581 6.29038
#
# Compressibility (1/GPa) = 0.02350123
#
# Stress axis : x y z
#
# Youngs Moduli (GPa) = 40.55211 103.47161 51.43336
#
# Poissons Ratio (x) = 0.33925 0.39795
# Poissons Ratio (y) = 0.13296 0.21175
# Poissons Ratio (z) = 0.31376 0.42598
#
# Static dielectric constant tensor:
#      x y z
#    x 3.170300 0.000000 0.000000 
#    y 0.000000 3.947220 0.000000 
#    z 0.000000 0.000000 3.596340 
# 
# 
# High freq. dielectric constant tensor:
#      x y z
#    x 1.742130 0.000000 0.000000 
#    y 0.000000 1.780430 0.000000 
#    z 0.000000 0.000000 1.755700 
# 
# From -- ./inp_files/27593.got.cif
#   From: 2010.03.12/outbox.cif.g09.slc.cpg/sg67_14_cif.got.tgz:27593.got - 2010.04.10 22:41:39.
