data_PCOD8280441
_publ_section_title
;
Structure prediction by ZEFSAII (Michael W. Deem and Ramdas Pophale) SiO2 
 PCOD8280441
Probable space group: C M M A
;
_chemical_formula_sum "Si O2"
_cell_formula_units_Z 96
_cell_length_a 22.447785
_cell_length_b 9.884357
_cell_length_c 23.396869
_cell_angle_alpha 90.000000
_cell_angle_beta 90.000000
_cell_angle_gamma 90.000000
_cell_volume 5191.342234
_symmetry_space_group_name_H-M "C M M A"
_symmetry_group_IT_number 67
_symmetry_cell_setting 'orthorhombic'
loop_
_space_group_symop_operation_xyz
x,y,z
-x,1/2-y,z
x,-y,-z
-x,1/2+y,-z
-x,-y,-z
x,1/2+y,-z
-x,y,z
x,1/2-y,z
1/2+x,1/2+y,z
1/2-x,-y,z
1/2+x,1/2-y,-z
1/2-x,y,-z
1/2-x,1/2-y,-z
1/2+x,y,-z
1/2-x,1/2+y,z
1/2+x,-y,z
loop_
_atom_site_type_symbol
_atom_site_label
_atom_site_fract_x
_atom_site_fract_y
_atom_site_fract_z
Si Si1 0.627573 0.990860 0.376240
Si Si2 0.899200 0.903795 0.825520
Si Si3 0.805509 0.097182 0.266765
Si Si4 0.671752 0.250000 0.553916
Si Si5 0.000000 0.597569 0.355058
Si Si6 0.808421 0.750000 0.421175
Si Si7 0.500000 0.595489 0.780109
Si Si8 0.068795 0.596958 0.950299
O O1 0.557913 0.022601 0.378611
O O2 0.668201 0.120450 0.387733
O O3 0.644642 0.932101 0.314465
O O4 0.637885 0.883170 0.425985
O O5 0.923394 0.750000 0.814292
O O6 0.835349 0.922929 0.795414
O O7 0.892125 0.926745 0.893445
O O8 0.942229 0.017238 0.801073
O O9 0.782170 0.250000 0.274091
O O10 0.750000 0.000000 0.273637
O O11 0.737309 0.250000 0.581207
O O12 0.669955 0.250000 0.486018
O O13 0.000000 0.598140 0.287413
O O14 0.000000 0.750000 0.378867
O O15 0.500000 0.750000 0.803839
O O16 0.075070 0.750000 0.972543
O O17 0.000000 0.563078 0.935303
O O18 0.093302 0.500000 0.000000
#
# Coordination Sequence:
#
# PCOD8280441 Si02
#       8
#    16  16  16   8   8   8   8  16
#     4  12  23  41  64  90 121 159 199 242 301 360
#     4  10  20  37  56  82 116 156 196 237 292 349
#     4  11  24  39  61  90 119 151 195 247 300 353
#     4  11  24  43  63 101 111 154 206 249 296 342
#     4  11  24  42  59  87 127 167 193 239 306 359
#     4  11  24  43  69  83 129 154 194 253 296 356
#     4  11  21  33  52  83 119 157 195 234 287 350
#     4   9  17  30  51  77 113 152 191 239 287 339
#
# _framework density 18.492328000000001
#
# number of rings (size 3 to 8) (size 9 to 14) (size 15 to 20)
#    0.000    1.333    4.167    2.250    1.167    3.000 
#    1.500    2.500    0.000    0.500    0.000    3.500 
#    0.000    0.000    0.000    0.000    0.000    0.000 
#
# Total GULP energy -595358.308319 kJ/mol
# GULP energy per Si atom -12403.298090 kJ/mol
# Density = 1.845024 g / cm^3
# Si number density = 18.492328 Si / 1000 Ang^3
#
#
#
# Elastic Constant Matrix: (Units=GPa)
#
#
# Indices 1 2 3 4 5 6 
#
# 1 100.3558 52.2914 34.1053 0.0000 0.0000 0.0000
# 2 52.2914 134.1940 37.8390 0.0000 0.0000 0.0000
# 3 34.1053 37.8390 84.3289 0.0000 0.0000 0.0000
# 4 0.0000 0.0000 0.0000 30.7255 0.0000 0.0000
# 5 0.0000 0.0000 0.0000 0.0000 31.0766 0.0000
# 6 0.0000 0.0000 0.0000 0.0000 0.0000 26.6308
#
#
#
# Elastic Compliance Matrix: (Units=1/GPa)
#
#
# Indices 1 2 3 4 5 6 
#
# 1 0.013353 -0.004214 -0.003510 0.000000 0.000000 0.000000
# 2 -0.004214 0.009861 -0.002721 0.000000 0.000000 0.000000
# 3 -0.003510 -0.002721 0.014498 0.000000 0.000000 0.000000
# 4 0.000000 0.000000 0.000000 0.032546 0.000000 0.000000
# 5 0.000000 0.000000 0.000000 0.000000 0.032179 0.000000
# 6 0.000000 0.000000 0.000000 0.000000 0.000000 0.037551
#
#
# Mechanical properties :
#
#
# Convention : Reuss Voigt Hill
#
# Bulk Modulus (GPa) = 59.43657 63.03889 61.23773
# Shear Modulus (GPa) = 30.03304 30.66278 30.34791
#
# Velocity S-wave (km/s) = 4.03436 4.07644 4.05545
# Velocity P-wave (km/s) = 7.34251 7.50464 7.42402
#
# Compressibility (1/GPa) = 0.01682466
#
# Stress axis : x y z
#
# Youngs Moduli (GPa) = 74.89070 101.41038 68.97277
#
# Poissons Ratio (x) = 0.42730 0.24207
# Poissons Ratio (y) = 0.31556 0.18764
# Poissons Ratio (z) = 0.26284 0.27589
#
# Static dielectric constant tensor:
#      x y z
#    x 3.061710 0.000000 0.000000 
#    y 0.000000 3.616340 0.000000 
#    z 0.000000 0.000000 3.444200 
# 
# 
# High freq. dielectric constant tensor:
#      x y z
#    x 1.693500 0.000000 0.000000 
#    y 0.000000 1.734730 0.000000 
#    z 0.000000 0.000000 1.719640 
# 
# From -- ./inp_files/42625.got.cif
#   From: 2010.03.12/outbox.cif.g09.slc.cpg/sg67_22_cif.got.tgz:42625.got - 2010.04.10 22:41:39.
