data_PCOD8280940
_publ_section_title
;
Structure prediction by ZEFSAII (Michael W. Deem and Ramdas Pophale) SiO2 
 PCOD8280940
Probable space group: C M M A
;
_chemical_formula_sum "Si O2"
_cell_formula_units_Z 72
_cell_length_a 15.845268
_cell_length_b 8.724705
_cell_length_c 24.524536
_cell_angle_alpha 90.000000
_cell_angle_beta 90.000000
_cell_angle_gamma 90.000000
_cell_volume 3390.401566
_symmetry_space_group_name_H-M "C M M A"
_symmetry_group_IT_number 67
_symmetry_cell_setting 'orthorhombic'
loop_
_space_group_symop_operation_xyz
x,y,z
-x,1/2-y,z
x,-y,-z
-x,1/2+y,-z
-x,-y,-z
x,1/2+y,-z
-x,y,z
x,1/2-y,z
1/2+x,1/2+y,z
1/2-x,-y,z
1/2+x,1/2-y,-z
1/2-x,y,-z
1/2-x,1/2-y,-z
1/2+x,y,-z
1/2-x,1/2+y,z
1/2+x,-y,z
loop_
_atom_site_type_symbol
_atom_site_label
_atom_site_fract_x
_atom_site_fract_y
_atom_site_fract_z
Si Si1 0.500000 0.432909 0.440058
Si Si2 0.402553 0.417479 0.947741
Si Si3 0.338544 0.568982 0.379544
Si Si4 0.597533 0.426926 0.275164
Si Si5 0.841289 0.069889 0.841826
O O1 0.500000 0.250000 0.440804
O O2 0.500000 0.500000 0.500000
O O3 0.415727 0.489970 0.410541
O O4 0.500000 0.395331 0.960943
O O5 0.359898 0.250000 0.940056
O O6 0.394910 0.515495 0.893121
O O7 0.359216 0.500000 0.000000
O O8 0.340117 0.750000 0.389676
O O9 0.250000 0.500000 0.401340
O O10 0.347173 0.531580 0.315329
O O11 0.500000 0.448732 0.289952
O O12 0.624850 0.250000 0.282636
O O13 0.613408 0.484194 0.213690
O O14 0.835176 0.250000 0.843653
O O15 0.750000 0.000000 0.845388
#
# Coordination Sequence:
#
# PCOD8280940 Si02
#       5
#     8  16  16  16  16
#     4  12  26  48  74 104 142 182 229 282 333 396
#     4  10  21  38  60  84 111 147 193 248 308 376
#     4  12  25  43  69 103 139 183 230 279 336 396
#     4  10  21  39  64  93 128 169 212 265 326 387
#     4  11  23  38  57  85 120 159 203 254 312 377
#
# _framework density 21.236422000000001
#
# number of rings (size 3 to 8) (size 9 to 14) (size 15 to 20)
#    0.000    1.111    1.111    5.667    0.000    6.667 
#    0.000    4.444    0.000    0.000    0.000    0.000 
#    0.000    0.000    0.000    0.000    0.000    0.000 
#
# Total GULP energy -446501.877939 kJ/mol
# GULP energy per Si atom -12402.829943 kJ/mol
# Density = 2.118809 g / cm^3
# Si number density = 21.236422 Si / 1000 Ang^3
#
#
#
# Elastic Constant Matrix: (Units=GPa)
#
#
# Indices 1 2 3 4 5 6 
#
# 1 105.0455 44.3315 43.4616 0.0000 0.0000 0.0000
# 2 44.3315 126.3463 68.1979 0.0000 0.0000 0.0000
# 3 43.4616 68.1979 142.6324 0.0000 0.0000 0.0000
# 4 0.0000 0.0000 0.0000 37.4972 0.0000 0.0000
# 5 0.0000 0.0000 0.0000 0.0000 12.2267 0.0000
# 6 0.0000 0.0000 0.0000 0.0000 0.0000 28.9228
#
#
#
# Elastic Compliance Matrix: (Units=1/GPa)
#
#
# Indices 1 2 3 4 5 6 
#
# 1 0.011643 -0.002925 -0.002149 0.000000 0.000000 0.000000
# 2 -0.002925 0.011403 -0.004561 0.000000 0.000000 0.000000
# 3 -0.002149 -0.004561 0.009847 0.000000 0.000000 0.000000
# 4 0.000000 0.000000 0.000000 0.026669 0.000000 0.000000
# 5 0.000000 0.000000 0.000000 0.000000 0.081789 0.000000
# 6 0.000000 0.000000 0.000000 0.000000 0.000000 0.034575
#
#
# Mechanical properties :
#
#
# Convention : Reuss Voigt Hill
#
# Bulk Modulus (GPa) = 73.40849 76.22291 74.81570
# Shear Modulus (GPa) = 25.03300 30.26487 27.64893
#
# Velocity S-wave (km/s) = 3.43706 3.77920 3.61218
# Velocity P-wave (km/s) = 7.09883 7.41711 7.25972
#
# Compressibility (1/GPa) = 0.01362240
#
# Stress axis : x y z
#
# Youngs Moduli (GPa) = 85.88532 87.69657 101.55785
#
# Poissons Ratio (x) = 0.25654 0.21827
# Poissons Ratio (y) = 0.25124 0.46319
# Poissons Ratio (z) = 0.18458 0.39997
#
# Static dielectric constant tensor:
#      x y z
#    x 3.790160 0.000000 0.000000 
#    y 0.000000 4.073640 0.000000 
#    z 0.000000 0.000000 4.843680 
# 
# 
# High freq. dielectric constant tensor:
#      x y z
#    x 1.833360 0.000000 0.000000 
#    y 0.000000 1.841790 0.000000 
#    z 0.000000 0.000000 1.841820 
# 
# From -- ./inp_files/44250.got.cif
#   From: 2010.03.12/outbox.cif.g09.slc.cpg/sg67_23_cif.got.tgz:44250.got - 2010.04.10 22:41:39.
