data_PCOD8280341
_publ_section_title
;
Structure prediction by ZEFSAII (Michael W. Deem and Ramdas Pophale) SiO2 
 PCOD8280341
Probable space group: C M M A
;
_chemical_formula_sum "Si O2"
_cell_formula_units_Z 72
_cell_length_a 8.884825
_cell_length_b 14.504958
_cell_length_c 29.259605
_cell_angle_alpha 90.000000
_cell_angle_beta 90.000000
_cell_angle_gamma 90.000000
_cell_volume 3770.802729
_symmetry_space_group_name_H-M "C M M A"
_symmetry_group_IT_number 67
_symmetry_cell_setting 'orthorhombic'
loop_
_space_group_symop_operation_xyz
x,y,z
-x,1/2-y,z
x,-y,-z
-x,1/2+y,-z
-x,-y,-z
x,1/2+y,-z
-x,y,z
x,1/2-y,z
1/2+x,1/2+y,z
1/2-x,-y,z
1/2+x,1/2-y,-z
1/2-x,y,-z
1/2-x,1/2-y,-z
1/2+x,y,-z
1/2-x,1/2+y,z
1/2+x,-y,z
loop_
_atom_site_type_symbol
_atom_site_label
_atom_site_fract_x
_atom_site_fract_y
_atom_site_fract_z
Si Si1 0.821157 0.750000 0.789883
Si Si2 0.174423 0.750000 0.451354
Si Si3 0.179812 0.250000 0.314470
Si Si4 0.675493 0.400454 0.956919
Si Si5 0.175718 0.097705 0.143106
Si Si6 0.320930 0.398867 0.377764
O O1 0.766547 0.750000 0.737901
O O2 0.757539 0.661477 0.816820
O O3 0.000000 0.750000 0.792502
O O4 0.250000 0.750000 0.500000
O O5 0.220182 0.657894 0.423623
O O6 0.000000 0.750000 0.460746
O O7 0.248426 0.343053 0.335833
O O8 0.000000 0.250000 0.320296
O O9 0.500000 0.408494 0.966761
O O10 0.750000 0.500000 0.955159
O O11 0.706257 0.355641 0.906987
O O12 0.750000 0.345134 0.000000
O O13 0.000000 0.082810 0.149593
O O14 0.250000 0.000000 0.148671
O O15 0.500000 0.405586 0.370629
O O16 0.250000 0.500000 0.381261
#
# Coordination Sequence:
#
# PCOD8280341 Si02
#       6
#     8   8   8  16  16  16
#     4   9  19  36  55  75 101 133 169 207 259 321
#     4   9  20  36  55  82 118 155 190 229 270 315
#     4  10  20  36  58  81 106 140 180 228 280 328
#     4   9  15  24  42  65  90 121 156 194 239 291
#     4   9  18  33  51  71  97 129 163 202 249 305
#     4  10  21  38  58  83 114 149 189 231 274 322
#
# _framework density 19.094079000000001
#
# number of rings (size 3 to 8) (size 9 to 14) (size 15 to 20)
#    0.000    2.667    0.000    3.000    0.000    4.889 
#    0.000    7.778    0.000    0.000    0.000    0.000 
#    0.000    0.000    0.000    0.000    0.000    0.000 
#
# Total GULP energy -446064.082656 kJ/mol
# GULP energy per Si atom -12390.668963 kJ/mol
# Density = 1.905062 g / cm^3
# Si number density = 19.094079 Si / 1000 Ang^3
#
#
#
# Elastic Constant Matrix: (Units=GPa)
#
#
# Indices 1 2 3 4 5 6 
#
# 1 81.3820 49.1469 67.2170 0.0000 0.0000 0.0000
# 2 49.1469 139.5729 85.0586 0.0000 0.0000 0.0000
# 3 67.2170 85.0586 201.4946 0.0000 0.0000 0.0000
# 4 0.0000 0.0000 0.0000 24.7124 0.0000 0.0000
# 5 0.0000 0.0000 0.0000 0.0000 27.3740 0.0000
# 6 0.0000 0.0000 0.0000 0.0000 0.0000 22.9528
#
#
#
# Elastic Compliance Matrix: (Units=1/GPa)
#
#
# Indices 1 2 3 4 5 6 
#
# 1 0.018249 -0.003657 -0.004544 0.000000 0.000000 0.000000
# 2 -0.003657 0.010379 -0.003162 0.000000 0.000000 0.000000
# 3 -0.004544 -0.003162 0.007813 0.000000 0.000000 0.000000
# 4 0.000000 0.000000 0.000000 0.040465 0.000000 0.000000
# 5 0.000000 0.000000 0.000000 0.000000 0.036531 0.000000
# 6 0.000000 0.000000 0.000000 0.000000 0.000000 0.043568
#
#
# Mechanical properties :
#
#
# Convention : Reuss Voigt Hill
#
# Bulk Modulus (GPa) = 72.90280 91.69939 82.30110
# Shear Modulus (GPa) = 27.12926 29.74299 28.43613
#
# Velocity S-wave (km/s) = 3.77347 3.95106 3.86329
# Velocity P-wave (km/s) = 7.56632 8.30324 7.94333
#
# Compressibility (1/GPa) = 0.01371690
#
# Stress axis : x y z
#
# Youngs Moduli (GPa) = 54.79682 96.34813 127.98482
#
# Poissons Ratio (x) = 0.35231 0.58159
# Poissons Ratio (y) = 0.20037 0.40463
# Poissons Ratio (z) = 0.24901 0.30461
#
# Static dielectric constant tensor:
#      x y z
#    x 3.449350 0.000000 0.000000 
#    y 0.000000 3.468650 0.000000 
#    z 0.000000 0.000000 4.688640 
# 
# 
# High freq. dielectric constant tensor:
#      x y z
#    x 1.737830 0.000000 0.000000 
#    y 0.000000 1.731520 0.000000 
#    z 0.000000 0.000000 1.753320 
# 
# From -- ./inp_files/45166.got.cif
#   From: 2010.03.12/outbox.cif.g09.slc.cpg/sg67_23_cif.got.tgz:45166.got - 2010.04.10 22:41:39.
