data_PCOD8280429
_publ_section_title
;
Structure prediction by ZEFSAII (Michael W. Deem and Ramdas Pophale) SiO2 
 PCOD8280429
Probable space group: C M M A
;
_chemical_formula_sum "Si O2"
_cell_formula_units_Z 68
_cell_length_a 18.575090
_cell_length_b 15.374470
_cell_length_c 11.536591
_cell_angle_alpha 90.000000
_cell_angle_beta 90.000000
_cell_angle_gamma 90.000000
_cell_volume 3294.644622
_symmetry_space_group_name_H-M "C M M A"
_symmetry_group_IT_number 67
_symmetry_cell_setting 'orthorhombic'
loop_
_space_group_symop_operation_xyz
x,y,z
-x,1/2-y,z
x,-y,-z
-x,1/2+y,-z
-x,-y,-z
x,1/2+y,-z
-x,y,z
x,1/2-y,z
1/2+x,1/2+y,z
1/2-x,-y,z
1/2+x,1/2-y,-z
1/2-x,y,-z
1/2-x,1/2-y,-z
1/2+x,y,-z
1/2-x,1/2+y,z
1/2+x,-y,z
loop_
_atom_site_type_symbol
_atom_site_label
_atom_site_fract_x
_atom_site_fract_y
_atom_site_fract_z
Si Si1 0.750000 0.500000 0.000000
Si Si2 0.580199 0.846401 0.262573
Si Si3 0.166669 0.497318 0.636216
Si Si4 0.613846 0.908454 0.023297
Si Si5 0.584096 0.349054 0.226518
O O1 0.695216 0.564589 0.069256
O O2 0.500000 0.861647 0.311417
O O3 0.607231 0.750000 0.295900
O O4 0.633396 0.915062 0.315544
O O5 0.576400 0.853207 0.122855
O O6 0.154657 0.500000 0.500000
O O7 0.250000 0.500000 0.670634
O O8 0.128606 0.412571 0.689749
O O9 0.614509 0.854532 0.904179
O O10 0.571878 0.000000 0.000000
O O11 0.500000 0.375285 0.229932
O O12 0.594912 0.250000 0.269823
#
# Coordination Sequence:
#
# PCOD8280429 Si02
#       5
#     4  16  16  16  16
#     4   8  20  32  52  88 126 166 210 236 290 362
#     4  11  24  41  66  97 127 164 207 254 310 372
#     4  11  26  46  65  89 124 166 211 262 316 366
#     4  10  20  36  62  93 133 165 199 247 308 372
#     4  11  24  41  66  97 127 164 207 254 310 372
#
# _framework density 20.639555000000001
#
# number of rings (size 3 to 8) (size 9 to 14) (size 15 to 20)
#    0.706    0.706    2.353    2.118    6.588    6.588 
#    0.000    5.882    0.000    0.000    0.000    0.000 
#    0.000    0.000    0.000    0.000    0.000    0.000 
#
# Total GULP energy -421283.591834 kJ/mol
# GULP energy per Si atom -12390.693877 kJ/mol
# Density = 2.059258 g / cm^3
# Si number density = 20.639555 Si / 1000 Ang^3
#
#
#
# Elastic Constant Matrix: (Units=GPa)
#
#
# Indices 1 2 3 4 5 6 
#
# 1 138.7390 80.7958 60.4132 0.0000 0.0000 0.0000
# 2 80.7958 163.4123 59.8948 0.0000 0.0000 0.0000
# 3 60.4132 59.8948 92.5172 0.0000 0.0000 0.0000
# 4 0.0000 0.0000 0.0000 -4.9431 0.0000 0.0000
# 5 0.0000 0.0000 0.0000 0.0000 11.1626 0.0000
# 6 0.0000 0.0000 0.0000 0.0000 0.0000 71.3547
#
#
#
# Elastic Compliance Matrix: (Units=1/GPa)
#
#
# Indices 1 2 3 4 5 6 
#
# 1 0.011717 -0.003919 -0.005114 0.000000 0.000000 0.000000
# 2 -0.003919 0.009334 -0.003484 0.000000 0.000000 0.000000
# 3 -0.005114 -0.003484 0.016404 0.000000 0.000000 0.000000
# 4 0.000000 0.000000 0.000000 -0.202304 0.000000 0.000000
# 5 0.000000 0.000000 0.000000 0.000000 0.089585 0.000000
# 6 0.000000 0.000000 0.000000 0.000000 0.000000 0.014014
#
#
# Mechanical properties :
#
#
# Convention : Reuss Voigt Hill
#
# Bulk Modulus (GPa) = 80.50748 88.54179 84.52464
# Shear Modulus (GPa) = -155.87710 28.41916 -63.72897
#
# Velocity S-wave (km/s) = -8.69985 3.71472 -5.56275
# Velocity P-wave (km/s) = 7.86292 7.83525 0.46605
#
# Compressibility (1/GPa) = 0.01242121
#
# Stress axis : x y z
#
# Youngs Moduli (GPa) = 85.34804 107.13631 60.96212
#
# Poissons Ratio (x) = 0.41983 0.31176
# Poissons Ratio (y) = 0.33445 0.21238
# Poissons Ratio (z) = 0.43647 0.37324
#
# Static dielectric constant tensor:
#      x y z
#    x 3.794030 0.000000 0.000000 
#    y 0.000000 3.846390 0.000000 
#    z 0.000000 0.000000 3.632480 
# 
# 
# High freq. dielectric constant tensor:
#      x y z
#    x 1.814210 0.000000 0.000000 
#    y 0.000000 1.814690 0.000000 
#    z 0.000000 0.000000 1.790220 
# 
# From -- ./inp_files/20436.got.cif
#   From: 2010.03.12/outbox.cif.g09.slc.cpg/sg67_11_cif.got.tgz:20436.got - 2010.04.10 22:41:39.
