data_PCOD8280491
_publ_section_title
;
Structure prediction by ZEFSAII (Michael W. Deem and Ramdas Pophale) SiO2 
 PCOD8280491
Probable space group: C M M A
;
_chemical_formula_sum "Si O2"
_cell_formula_units_Z 88
_cell_length_a 19.092384
_cell_length_b 10.345719
_cell_length_c 23.055118
_cell_angle_alpha 90.000000
_cell_angle_beta 90.000000
_cell_angle_gamma 90.000000
_cell_volume 4553.949270
_symmetry_space_group_name_H-M "C M M A"
_symmetry_group_IT_number 67
_symmetry_cell_setting 'orthorhombic'
loop_
_space_group_symop_operation_xyz
x,y,z
-x,1/2-y,z
x,-y,-z
-x,1/2+y,-z
-x,-y,-z
x,1/2+y,-z
-x,y,z
x,1/2-y,z
1/2+x,1/2+y,z
1/2-x,-y,z
1/2+x,1/2-y,-z
1/2-x,y,-z
1/2-x,1/2-y,-z
1/2+x,y,-z
1/2-x,1/2+y,z
1/2+x,-y,z
loop_
_atom_site_type_symbol
_atom_site_label
_atom_site_fract_x
_atom_site_fract_y
_atom_site_fract_z
Si Si1 0.750000 0.000000 0.640053
Si Si2 0.849995 0.610653 0.547921
Si Si3 0.808889 0.400739 0.853663
Si Si4 0.919294 0.395856 0.952964
Si Si5 0.000000 0.957568 0.565831
Si Si6 0.000000 0.598486 0.319888
Si Si7 0.357283 0.898751 0.729546
O O1 0.703422 0.092846 0.600432
O O2 0.799337 0.087244 0.679948
O O3 0.840380 0.500000 0.500000
O O4 0.833991 0.750000 0.518669
O O5 0.928086 0.620216 0.574983
O O6 0.782755 0.250000 0.852013
O O7 0.750000 0.500000 0.877088
O O8 0.875810 0.414247 0.894612
O O9 0.830957 0.455883 0.790530
O O10 0.908969 0.250000 0.977716
O O11 0.000000 0.421415 0.936788
O O12 0.892968 0.500000 0.000000
O O13 0.000000 0.000000 0.500000
O O14 0.000000 0.075652 0.610964
O O15 0.069284 0.535731 0.290430
O O16 0.000000 0.750000 0.311107
O O17 0.372446 0.750000 0.740339
#
# Coordination Sequence:
#
# PCOD8280491 Si02
#       7
#     8  16  16  16   8   8  16
#     4  12  21  38  60  84 117 148 188 228 288 350
#     4  11  25  41  61  85 114 148 188 237 288 346
#     4  10  21  37  58  87 121 156 195 238 288 342
#     4   9  19  36  59  87 118 156 201 248 290 336
#     4  10  21  39  57  82 110 145 186 235 287 338
#     4  10  20  37  62  86 109 145 194 237 282 343
#     4  10  21  36  58  86 115 149 188 235 285 340
#
# _framework density 19.323886000000002
#
# number of rings (size 3 to 8) (size 9 to 14) (size 15 to 20)
#    0.000    1.818    2.727    1.091    1.273    6.182 
#    0.000    1.818    0.000    0.000    0.000    0.000 
#    0.000    0.000    0.000    0.000    0.000    0.000 
#
# Total GULP energy -545364.766426 kJ/mol
# GULP energy per Si atom -12394.653782 kJ/mol
# Density = 1.927990 g / cm^3
# Si number density = 19.323886 Si / 1000 Ang^3
#
#
#
# Elastic Constant Matrix: (Units=GPa)
#
#
# Indices 1 2 3 4 5 6 
#
# 1 122.2041 39.8908 53.1435 0.0000 0.0000 0.0000
# 2 39.8908 100.1796 49.6673 0.0000 0.0000 0.0000
# 3 53.1435 49.6673 101.6465 0.0000 0.0000 0.0000
# 4 0.0000 0.0000 0.0000 29.3844 0.0000 0.0000
# 5 0.0000 0.0000 0.0000 0.0000 31.7732 0.0000
# 6 0.0000 0.0000 0.0000 0.0000 0.0000 14.9226
#
#
#
# Elastic Compliance Matrix: (Units=1/GPa)
#
#
# Indices 1 2 3 4 5 6 
#
# 1 0.010885 -0.001997 -0.004716 0.000000 0.000000 0.000000
# 2 -0.001997 0.013540 -0.005572 0.000000 0.000000 0.000000
# 3 -0.004716 -0.005572 0.015026 0.000000 0.000000 0.000000
# 4 0.000000 0.000000 0.000000 0.034032 0.000000 0.000000
# 5 0.000000 0.000000 0.000000 0.000000 0.031473 0.000000
# 6 0.000000 0.000000 0.000000 0.000000 0.000000 0.067012
#
#
# Mechanical properties :
#
#
# Convention : Reuss Voigt Hill
#
# Bulk Modulus (GPa) = 67.19162 67.71483 67.45322
# Shear Modulus (GPa) = 24.81422 27.30462 26.05942
#
# Velocity S-wave (km/s) = 3.58735 3.76307 3.67626
# Velocity P-wave (km/s) = 7.21149 7.34840 7.28027
#
# Compressibility (1/GPa) = 0.01488281
#
# Stress axis : x y z
#
# Youngs Moduli (GPa) = 91.86547 73.85754 66.55096
#
# Poissons Ratio (x) = 0.14746 0.31383
# Poissons Ratio (y) = 0.18342 0.37082
# Poissons Ratio (z) = 0.43320 0.41153
#
# Static dielectric constant tensor:
#      x y z
#    x 4.117610 0.000000 0.000000 
#    y 0.000000 3.391930 0.000000 
#    z 0.000000 0.000000 3.475970 
# 
# 
# High freq. dielectric constant tensor:
#      x y z
#    x 1.770560 0.000000 0.000000 
#    y 0.000000 1.732740 0.000000 
#    z 0.000000 0.000000 1.745260 
# 
# From -- ./inp_files/38955.got.cif
#   From: 2010.03.12/outbox.cif.g09.slc.cpg/sg67_20_cif.got.tgz:38955.got - 2010.04.10 22:41:39.
