data_PCOD8280997
_publ_section_title
;
Structure prediction by ZEFSAII (Michael W. Deem and Ramdas Pophale) SiO2 
 PCOD8280997
Probable space group: C M M A
;
_chemical_formula_sum "Si O2"
_cell_formula_units_Z 72
_cell_length_a 19.814835
_cell_length_b 20.579242
_cell_length_c 8.506215
_cell_angle_alpha 90.000000
_cell_angle_beta 90.000000
_cell_angle_gamma 90.000000
_cell_volume 3468.615737
_symmetry_space_group_name_H-M "C M M A"
_symmetry_group_IT_number 67
_symmetry_cell_setting 'orthorhombic'
loop_
_space_group_symop_operation_xyz
x,y,z
-x,1/2-y,z
x,-y,-z
-x,1/2+y,-z
-x,-y,-z
x,1/2+y,-z
-x,y,z
x,1/2-y,z
1/2+x,1/2+y,z
1/2-x,-y,z
1/2+x,1/2-y,-z
1/2-x,y,-z
1/2-x,1/2-y,-z
1/2+x,y,-z
1/2-x,1/2+y,z
1/2+x,-y,z
loop_
_atom_site_type_symbol
_atom_site_label
_atom_site_fract_x
_atom_site_fract_y
_atom_site_fract_z
Si Si1 0.500000 0.181293 0.379662
Si Si2 0.107586 0.382218 0.800086
Si Si3 0.000000 0.372642 0.300093
Si Si4 0.000000 0.015732 0.685173
Si Si5 0.126310 0.824596 0.869873
Si Si6 0.739038 0.675551 0.683621
O O1 0.500000 0.250000 0.468699
O O2 0.565342 0.177859 0.269115
O O3 0.500000 0.123875 0.508498
O O4 0.182663 0.377083 0.730782
O O5 0.067775 0.447520 0.746524
O O6 0.113058 0.374265 0.987488
O O7 0.065541 0.332513 0.251328
O O8 0.000000 0.445353 0.230450
O O9 0.000000 0.000000 0.500000
O O10 0.130134 0.750000 0.928541
O O11 0.194485 0.844107 0.780083
O O12 0.718365 0.750000 0.724811
O O13 0.750000 0.667978 0.500000
#
# Coordination Sequence:
#
# PCOD8280997 Si02
#       6
#     8  16   8   8  16  16
#     4  11  20  33  60  90 120 163 210 262 328 389
#     4  11  22  39  63  89 129 167 209 266 321 386
#     4  12  23  41  62  86 127 168 218 264 312 381
#     4  11  25  45  64  88 122 176 230 268 309 379
#     4  11  23  38  64 101 133 163 207 270 338 398
#     4  10  21  38  63  97 132 165 205 262 335 403
#
# _framework density 20.757560000000002
#
# number of rings (size 3 to 8) (size 9 to 14) (size 15 to 20)
#    0.000    1.111    2.222    6.333    0.000    5.333 
#    0.000    1.111    0.000    2.667    0.000    0.000 
#    0.000    0.000    0.000    0.000    0.000    0.000 
#
# Total GULP energy -446236.165470 kJ/mol
# GULP energy per Si atom -12395.449041 kJ/mol
# Density = 2.071031 g / cm^3
# Si number density = 20.757560 Si / 1000 Ang^3
#
#
#
# Elastic Constant Matrix: (Units=GPa)
#
#
# Indices 1 2 3 4 5 6 
#
# 1 172.5243 40.7783 60.7000 0.0000 0.0000 0.0000
# 2 40.7783 95.1709 30.1478 0.0000 0.0000 0.0000
# 3 60.7000 30.1478 138.2489 0.0000 0.0000 0.0000
# 4 0.0000 0.0000 0.0000 27.5531 0.0000 0.0000
# 5 0.0000 0.0000 0.0000 0.0000 57.2815 0.0000
# 6 0.0000 0.0000 0.0000 0.0000 0.0000 25.9729
#
#
#
# Elastic Compliance Matrix: (Units=1/GPa)
#
#
# Indices 1 2 3 4 5 6 
#
# 1 0.007283 -0.002264 -0.002704 0.000000 0.000000 0.000000
# 2 -0.002264 0.011991 -0.001621 0.000000 0.000000 0.000000
# 3 -0.002704 -0.001621 0.008774 0.000000 0.000000 0.000000
# 4 0.000000 0.000000 0.000000 0.036293 0.000000 0.000000
# 5 0.000000 0.000000 0.000000 0.000000 0.017458 0.000000
# 6 0.000000 0.000000 0.000000 0.000000 0.000000 0.038502
#
#
# Mechanical properties :
#
#
# Convention : Reuss Voigt Hill
#
# Bulk Modulus (GPa) = 67.24826 74.35517 70.80172
# Shear Modulus (GPa) = 36.11819 40.44938 38.28378
#
# Velocity S-wave (km/s) = 4.17586 4.41915 4.29923
# Velocity P-wave (km/s) = 7.46443 7.87001 7.66990
#
# Compressibility (1/GPa) = 0.01487027
#
# Stress axis : x y z
#
# Youngs Moduli (GPa) = 137.31149 83.39659 113.97366
#
# Poissons Ratio (x) = 0.18880 0.30817
# Poissons Ratio (y) = 0.31086 0.18473
# Poissons Ratio (z) = 0.37127 0.13517
#
# Static dielectric constant tensor:
#      x y z
#    x 3.812140 0.000000 0.000000 
#    y 0.000000 3.620480 0.000000 
#    z 0.000000 0.000000 3.757560 
# 
# 
# High freq. dielectric constant tensor:
#      x y z
#    x 1.821300 0.000000 0.000000 
#    y 0.000000 1.790800 0.000000 
#    z 0.000000 0.000000 1.826820 
# 
# From -- ./inp_files/11009.got.cif
#   From: 2010.03.12/outbox.cif.g09.slc.cpg/sg67_6_cif.got.tgz:11009.got - 2010.04.10 22:41:39.
