data_PCOD8280439
_publ_section_title
;
Structure prediction by ZEFSAII (Michael W. Deem and Ramdas Pophale) SiO2 
 PCOD8280439
Probable space group: C M M A
;
_chemical_formula_sum "Si O2"
_cell_formula_units_Z 96
_cell_length_a 23.637395
_cell_length_b 8.932682
_cell_length_c 25.906829
_cell_angle_alpha 90.000000
_cell_angle_beta 90.000000
_cell_angle_gamma 90.000000
_cell_volume 5470.106032
_symmetry_space_group_name_H-M "C M M A"
_symmetry_group_IT_number 67
_symmetry_cell_setting 'orthorhombic'
loop_
_space_group_symop_operation_xyz
x,y,z
-x,1/2-y,z
x,-y,-z
-x,1/2+y,-z
-x,-y,-z
x,1/2+y,-z
-x,y,z
x,1/2-y,z
1/2+x,1/2+y,z
1/2-x,-y,z
1/2+x,1/2-y,-z
1/2-x,y,-z
1/2-x,1/2-y,-z
1/2+x,y,-z
1/2-x,1/2+y,z
1/2+x,-y,z
loop_
_atom_site_type_symbol
_atom_site_label
_atom_site_fract_x
_atom_site_fract_y
_atom_site_fract_z
Si Si1 0.000000 0.426677 0.714762
Si Si2 0.189685 0.924703 0.648526
Si Si3 0.112482 0.427102 0.447112
Si Si4 0.689091 0.424622 0.951558
Si Si5 0.689784 0.424136 0.838070
Si Si6 0.000000 0.072105 0.595603
Si Si7 0.385827 0.072662 0.743794
O O1 0.000000 0.477326 0.655169
O O2 0.945814 0.492257 0.743486
O O3 0.000000 0.250000 0.720021
O O4 0.199459 0.750000 0.654447
O O5 0.159787 0.966308 0.594995
O O6 0.150650 0.983603 0.695073
O O7 0.250000 0.000000 0.651383
O O8 0.134551 0.500000 0.500000
O O9 0.103433 0.250000 0.452845
O O10 0.053965 0.503237 0.432014
O O11 0.694539 0.250000 0.962669
O O12 0.750000 0.500000 0.950078
O O13 0.662402 0.455790 0.894935
O O14 0.654826 0.500000 0.000000
O O15 0.701508 0.250000 0.830523
O O16 0.750000 0.500000 0.829630
O O17 0.645442 0.481459 0.795752
O O18 0.000000 0.250000 0.588755
O O19 0.395438 0.250000 0.742078
#
# Coordination Sequence:
#
# PCOD8280439 Si02
#       7
#     8  16  16  16  16   8  16
#     4  11  23  36  56  83 104 129 166 211 257 302
#     4  10  22  37  56  78 103 136 171 204 248 301
#     4  11  23  39  58  81 106 136 170 208 253 304
#     4   9  15  24  39  64  97 135 174 210 248 293
#     4   9  18  30  48  74 105 139 175 211 252 301
#     4  11  22  38  59  83 106 131 165 211 258 302
#     4  10  20  37  56  76 103 136 170 208 255 308
#
# _framework density 17.549934
#
# number of rings (size 3 to 8) (size 9 to 14) (size 15 to 20)
#    0.000    2.000    1.667    2.750    0.000    4.333 
#    0.000    1.667    0.000    0.000    0.000    0.583 
#    0.000    0.000    0.000    0.000    0.000    0.000 
#
# Total GULP energy -595115.360898 kJ/mol
# GULP energy per Si atom -12398.236685 kJ/mol
# Density = 1.750999 g / cm^3
# Si number density = 17.549934 Si / 1000 Ang^3
#
#
#
# Elastic Constant Matrix: (Units=GPa)
#
#
# Indices 1 2 3 4 5 6 
#
# 1 116.0165 39.5882 66.2762 0.0000 0.0000 0.0000
# 2 39.5882 63.7601 54.5446 0.0000 0.0000 0.0000
# 3 66.2762 54.5446 169.4568 0.0000 0.0000 0.0000
# 4 0.0000 0.0000 0.0000 26.5341 0.0000 0.0000
# 5 0.0000 0.0000 0.0000 0.0000 331.9480 0.0000
# 6 0.0000 0.0000 0.0000 0.0000 0.0000 29.1454
#
#
#
# Elastic Compliance Matrix: (Units=1/GPa)
#
#
# Indices 1 2 3 4 5 6 
#
# 1 0.012065 -0.004767 -0.003184 0.000000 0.000000 0.000000
# 2 -0.004767 0.023527 -0.005708 0.000000 0.000000 0.000000
# 3 -0.003184 -0.005708 0.008984 0.000000 0.000000 0.000000
# 4 0.000000 0.000000 0.000000 0.037687 0.000000 0.000000
# 5 0.000000 0.000000 0.000000 0.000000 0.003013 0.000000
# 6 0.000000 0.000000 0.000000 0.000000 0.000000 0.034311
#
#
# Mechanical properties :
#
#
# Convention : Reuss Voigt Hill
#
# Bulk Modulus (GPa) = 57.94906 74.45015 66.19960
# Shear Modulus (GPa) = 32.75279 90.11382 61.43330
#
# Velocity S-wave (km/s) = 4.32471 7.17346 5.92291
# Velocity P-wave (km/s) = 7.61766 10.54160 9.19658
#
# Compressibility (1/GPa) = 0.01725654
#
# Stress axis : x y z
#
# Youngs Moduli (GPa) = 82.88245 42.50448 111.30808
#
# Poissons Ratio (x) = 0.20262 0.35445
# Poissons Ratio (y) = 0.39511 0.63539
# Poissons Ratio (z) = 0.26393 0.24263
#
# Static dielectric constant tensor:
#      x y z
#    x 2.908760 0.000000 0.000000 
#    y 0.000000 3.297110 0.000000 
#    z 0.000000 0.000000 4.166600 
# 
# 
# High freq. dielectric constant tensor:
#      x y z
#    x 1.647800 0.000000 0.000000 
#    y 0.000000 1.684150 0.000000 
#    z 0.000000 0.000000 1.697380 
# 
# From -- ./inp_files/42572.got.cif
#   From: 2010.03.12/outbox.cif.g09.slc.cpg/sg67_22_cif.got.tgz:42572.got - 2010.04.10 22:41:39.
