data_PCOD8280829
_publ_section_title
;
Structure prediction by ZEFSAII (Michael W. Deem and Ramdas Pophale) SiO2 
 PCOD8280829
Probable space group: C M M A
;
_chemical_formula_sum "Si O2"
_cell_formula_units_Z 96
_cell_length_a 18.839509
_cell_length_b 8.923772
_cell_length_c 31.074040
_cell_angle_alpha 90.000000
_cell_angle_beta 90.000000
_cell_angle_gamma 90.000000
_cell_volume 5224.151537
_symmetry_space_group_name_H-M "C M M A"
_symmetry_group_IT_number 67
_symmetry_cell_setting 'orthorhombic'
loop_
_space_group_symop_operation_xyz
x,y,z
-x,1/2-y,z
x,-y,-z
-x,1/2+y,-z
-x,-y,-z
x,1/2+y,-z
-x,y,z
x,1/2-y,z
1/2+x,1/2+y,z
1/2-x,-y,z
1/2+x,1/2-y,-z
1/2-x,y,-z
1/2-x,1/2-y,-z
1/2+x,y,-z
1/2-x,1/2+y,z
1/2+x,-y,z
loop_
_atom_site_type_symbol
_atom_site_label
_atom_site_fract_x
_atom_site_fract_y
_atom_site_fract_z
Si Si1 0.917931 0.922660 0.786240
Si Si2 0.080678 0.073548 0.456095
Si Si3 0.173297 0.925328 0.959425
Si Si4 0.417461 0.924920 0.698312
Si Si5 0.326963 0.072234 0.624592
Si Si6 0.325445 0.574949 0.134733
O O1 0.899403 0.750000 0.775859
O O2 0.877359 0.984252 0.828144
O O3 0.000000 0.942453 0.796808
O O4 0.895088 0.023862 0.745945
O O5 0.084686 0.250000 0.461744
O O6 0.130826 0.017882 0.417672
O O7 0.000000 0.021554 0.446179
O O8 0.108765 0.000000 0.500000
O O9 0.179709 0.750000 0.968133
O O10 0.139221 0.958747 0.912372
O O11 0.250000 0.000000 0.958215
O O12 0.130604 0.000000 0.000000
O O13 0.500000 0.961918 0.689742
O O14 0.401232 0.750000 0.692975
O O15 0.370409 0.018736 0.665673
O O16 0.319628 0.250000 0.626273
O O17 0.250000 0.000000 0.624036
O O18 0.312723 0.750000 0.139605
O O19 0.250000 0.500000 0.140813
#
# Coordination Sequence:
#
# PCOD8280829 Si02
#       6
#    16  16  16  16  16  16
#     4   9  18  34  54  73  96 130 169 206 247 298
#     4   9  19  36  58  82 107 139 179 219 258 303
#     4   9  15  24  39  61  89 119 154 194 237 286
#     4  10  21  37  57  80 104 133 172 215 258 307
#     4  11  23  38  56  80 111 144 178 216 261 310
#     4   9  18  30  46  70  96 124 159 200 246 294
#
# _framework density 18.376190999999999
#
# number of rings (size 3 to 8) (size 9 to 14) (size 15 to 20)
#    0.000    2.500    0.000    2.500    0.000    5.333 
#    0.000    5.000    0.000    0.500    0.000    0.000 
#    0.000    0.000    0.000    0.000    0.000    4.500 
#
# Total GULP energy -595028.732170 kJ/mol
# GULP energy per Si atom -12396.431920 kJ/mol
# Density = 1.833437 g / cm^3
# Si number density = 18.376191 Si / 1000 Ang^3
#
#
#
# Elastic Constant Matrix: (Units=GPa)
#
#
# Indices 1 2 3 4 5 6 
#
# 1 77.5880 36.1977 78.9733 0.0000 0.0000 0.0000
# 2 36.1977 63.8416 54.3270 0.0000 0.0000 0.0000
# 3 78.9733 54.3270 176.3866 0.0000 0.0000 0.0000
# 4 0.0000 0.0000 0.0000 30.0020 0.0000 0.0000
# 5 0.0000 0.0000 0.0000 0.0000 26.6390 0.0000
# 6 0.0000 0.0000 0.0000 0.0000 0.0000 22.0046
#
#
#
# Elastic Compliance Matrix: (Units=1/GPa)
#
#
# Indices 1 2 3 4 5 6 
#
# 1 0.025486 -0.006424 -0.009432 0.000000 0.000000 0.000000
# 2 -0.006424 0.022847 -0.004161 0.000000 0.000000 0.000000
# 3 -0.009432 -0.004161 0.011174 0.000000 0.000000 0.000000
# 4 0.000000 0.000000 0.000000 0.033331 0.000000 0.000000
# 5 0.000000 0.000000 0.000000 0.000000 0.037539 0.000000
# 6 0.000000 0.000000 0.000000 0.000000 0.000000 0.045445
#
#
# Mechanical properties :
#
#
# Convention : Reuss Voigt Hill
#
# Bulk Modulus (GPa) = 51.35278 72.97912 62.16595
# Shear Modulus (GPa) = 22.48737 25.61699 24.05218
#
# Velocity S-wave (km/s) = 3.50197 3.73772 3.62177
# Velocity P-wave (km/s) = 6.66016 7.64380 7.16887
#
# Compressibility (1/GPa) = 0.01947314
#
# Stress axis : x y z
#
# Youngs Moduli (GPa) = 39.23655 43.77017 89.49372
#
# Poissons Ratio (x) = 0.28118 0.84414
# Poissons Ratio (y) = 0.25205 0.37234
# Poissons Ratio (z) = 0.37010 0.18211
#
# Static dielectric constant tensor:
#      x y z
#    x 3.200130 0.000000 0.000000 
#    y 0.000000 3.393590 0.000000 
#    z 0.000000 0.000000 4.050520 
# 
# 
# High freq. dielectric constant tensor:
#      x y z
#    x 1.681400 0.000000 0.000000 
#    y 0.000000 1.715330 0.000000 
#    z 0.000000 0.000000 1.735270 
# 
# From -- ./inp_files/43516.got.cif
#   From: 2010.03.12/outbox.cif.g09.slc.cpg/sg67_22_cif.got.tgz:43516.got - 2010.04.10 22:41:39.
