data_PCOD8280324
_publ_section_title
;
Structure prediction by ZEFSAII (Michael W. Deem and Ramdas Pophale) SiO2 
 PCOD8280324
Probable space group: C M M A
;
_chemical_formula_sum "Si O2"
_cell_formula_units_Z 96
_cell_length_a 8.754152
_cell_length_b 18.509893
_cell_length_c 30.595828
_cell_angle_alpha 90.000000
_cell_angle_beta 90.000000
_cell_angle_gamma 90.000000
_cell_volume 4957.699531
_symmetry_space_group_name_H-M "C M M A"
_symmetry_group_IT_number 67
_symmetry_cell_setting 'orthorhombic'
loop_
_space_group_symop_operation_xyz
x,y,z
-x,1/2-y,z
x,-y,-z
-x,1/2+y,-z
-x,-y,-z
x,1/2+y,-z
-x,y,z
x,1/2-y,z
1/2+x,1/2+y,z
1/2-x,-y,z
1/2+x,1/2-y,-z
1/2-x,y,-z
1/2-x,1/2-y,-z
1/2+x,y,-z
1/2-x,1/2+y,z
1/2+x,-y,z
loop_
_atom_site_type_symbol
_atom_site_label
_atom_site_fract_x
_atom_site_fract_y
_atom_site_fract_z
Si Si1 0.819262 0.332111 0.045089
Si Si2 0.680738 0.923019 0.379806
Si Si3 0.178640 0.924531 0.288216
Si Si4 0.679597 0.078449 0.872415
Si Si5 0.326305 0.835642 0.544514
Si Si6 0.176456 0.333528 0.795899
O O1 0.763564 0.250000 0.053501
O O2 0.756636 0.381607 0.084365
O O3 0.000000 0.335669 0.041933
O O4 0.750000 0.362230 0.000000
O O5 0.500000 0.928942 0.377864
O O6 0.743229 0.897889 0.332777
O O7 0.729877 0.864157 0.414925
O O8 0.750000 0.000000 0.393224
O O9 0.210727 0.864076 0.252100
O O10 0.000000 0.936239 0.296789
O O11 0.250000 0.000000 0.272001
O O12 0.500000 0.070024 0.875186
O O13 0.719639 0.125560 0.830459
O O14 0.750000 0.000000 0.868240
O O15 0.500000 0.864038 0.546742
O O16 0.320289 0.750000 0.546344
O O17 0.250000 0.864608 0.500000
O O18 0.222509 0.250000 0.795984
O O19 0.000000 0.345219 0.808517
#
# Coordination Sequence:
#
# PCOD8280324 Si02
#       6
#    16  16  16  16  16  16
#     4   9  19  36  57  81 109 143 183 227 276 329
#     4  11  22  37  58  84 114 148 188 230 276 330
#     4  10  20  36  57  81 111 146 184 227 276 328
#     4  11  23  38  57  82 113 148 187 231 278 329
#     4  10  21  38  59  83 113 148 186 230 280 332
#     4  10  22  39  59  84 113 146 185 228 276 331
#
# _framework density 19.36382
#
# number of rings (size 3 to 8) (size 9 to 14) (size 15 to 20)
#    0.000    1.833    0.000    5.000    0.000    7.333 
#    0.000    6.667    0.000    0.000    0.000    0.000 
#    0.000    0.000    0.000    0.000    0.000    0.000 
#
# Total GULP energy -595412.988194 kJ/mol
# GULP energy per Si atom -12404.437254 kJ/mol
# Density = 1.931975 g / cm^3
# Si number density = 19.363820 Si / 1000 Ang^3
#
#
#
# Elastic Constant Matrix: (Units=GPa)
#
#
# Indices 1 2 3 4 5 6 
#
# 1 108.0094 39.4673 56.6023 0.0000 0.0000 0.0000
# 2 39.4673 96.8138 64.8904 0.0000 0.0000 0.0000
# 3 56.6023 64.8904 130.3480 0.0000 0.0000 0.0000
# 4 0.0000 0.0000 0.0000 36.8290 0.0000 0.0000
# 5 0.0000 0.0000 0.0000 0.0000 34.8747 0.0000
# 6 0.0000 0.0000 0.0000 0.0000 0.0000 22.5353
#
#
#
# Elastic Compliance Matrix: (Units=1/GPa)
#
#
# Indices 1 2 3 4 5 6 
#
# 1 0.012277 -0.002148 -0.004261 0.000000 0.000000 0.000000
# 2 -0.002148 0.015878 -0.006971 0.000000 0.000000 0.000000
# 3 -0.004261 -0.006971 0.012993 0.000000 0.000000 0.000000
# 4 0.000000 0.000000 0.000000 0.027153 0.000000 0.000000
# 5 0.000000 0.000000 0.000000 0.000000 0.028674 0.000000
# 6 0.000000 0.000000 0.000000 0.000000 0.000000 0.044375
#
#
# Mechanical properties :
#
#
# Convention : Reuss Voigt Hill
#
# Bulk Modulus (GPa) = 69.51895 73.01014 71.26454
# Shear Modulus (GPa) = 28.91749 30.46188 29.68968
#
# Velocity S-wave (km/s) = 3.86862 3.97058 3.91993
# Velocity P-wave (km/s) = 7.47893 7.66857 7.57434
#
# Compressibility (1/GPa) = 0.01438457
#
# Stress axis : x y z
#
# Youngs Moduli (GPa) = 81.45483 62.98216 76.96598
#
# Poissons Ratio (x) = 0.13531 0.32799
# Poissons Ratio (y) = 0.17500 0.53655
# Poissons Ratio (z) = 0.34712 0.43907
#
# Static dielectric constant tensor:
#      x y z
#    x 3.600500 0.000000 0.000000 
#    y 0.000000 3.490700 0.000000 
#    z 0.000000 0.000000 3.674960 
# 
# 
# High freq. dielectric constant tensor:
#      x y z
#    x 1.761760 0.000000 0.000000 
#    y 0.000000 1.750340 0.000000 
#    z 0.000000 0.000000 1.767000 
# 
# From -- ./inp_files/43465.got.cif
#   From: 2010.03.12/outbox.cif.g09.slc.cpg/sg67_22_cif.got.tgz:43465.got - 2010.04.10 22:41:39.
