data_PCOD8280126
_publ_section_title
;
Structure prediction by ZEFSAII (Michael W. Deem and Ramdas Pophale) SiO2 
 PCOD8280126
Probable space group: C M M A
;
_chemical_formula_sum "Si O2"
_cell_formula_units_Z 104
_cell_length_a 26.231984
_cell_length_b 8.874535
_cell_length_c 22.679807
_cell_angle_alpha 90.000000
_cell_angle_beta 90.000000
_cell_angle_gamma 90.000000
_cell_volume 5279.783322
_symmetry_space_group_name_H-M "C M M A"
_symmetry_group_IT_number 67
_symmetry_cell_setting 'orthorhombic'
loop_
_space_group_symop_operation_xyz
x,y,z
-x,1/2-y,z
x,-y,-z
-x,1/2+y,-z
-x,-y,-z
x,1/2+y,-z
-x,y,z
x,1/2-y,z
1/2+x,1/2+y,z
1/2-x,-y,z
1/2+x,1/2-y,-z
1/2-x,y,-z
1/2-x,1/2-y,-z
1/2+x,y,-z
1/2-x,1/2+y,z
1/2+x,-y,z
loop_
_atom_site_type_symbol
_atom_site_label
_atom_site_fract_x
_atom_site_fract_y
_atom_site_fract_z
Si Si1 0.556734 0.423033 0.828299
Si Si2 0.196520 0.072390 0.652566
Si Si3 0.656987 0.078491 0.766763
Si Si4 0.302578 0.575802 0.104184
Si Si5 0.402723 0.428145 0.059543
Si Si6 0.389610 0.427950 0.436108
Si Si7 0.500000 0.574616 0.562386
O O1 0.500000 0.443005 0.801718
O O2 0.567831 0.250000 0.847035
O O3 0.598033 0.469312 0.778751
O O4 0.561430 0.524979 0.886160
O O5 0.202237 0.250000 0.648490
O O6 0.153347 0.010043 0.608125
O O7 0.250000 0.000000 0.634186
O O8 0.181021 0.031032 0.718822
O O9 0.660447 0.250000 0.743788
O O10 0.689008 0.057067 0.826126
O O11 0.302706 0.750000 0.085609
O O12 0.250000 0.500000 0.085622
O O13 0.345998 0.490348 0.068366
O O14 0.401867 0.250000 0.054069
O O15 0.425750 0.500000 0.000000
O O16 0.381534 0.500000 0.500000
O O17 0.384268 0.250000 0.443625
O O18 0.445690 0.470520 0.407509
O O19 0.500000 0.750000 0.551146
O O20 0.500000 0.500000 0.500000
#
# Coordination Sequence:
#
# PCOD8280126 Si02
#       7
#    16  16  16  16  16  16   8
#     4   9  19  38  61  82 108 141 178 223 274 327
#     4  11  23  37  54  80 112 148 187 229 276 329
#     4   9  19  36  57  80 107 140 178 222 270 323
#     4  10  20  35  55  79 105 138 179 224 275 326
#     4  11  22  36  54  78 109 143 181 223 269 325
#     4   9  19  35  56  81 109 144 184 227 277 329
#     4   8  14  30  54  76 102 134 172 218 265 316
#
# _framework density 19.697778
#
# number of rings (size 3 to 8) (size 9 to 14) (size 15 to 20)
#    0.000    2.308    0.000    3.692    0.000    6.769 
#    1.385    3.077    0.000    0.000    0.000    0.000 
#    0.000    0.000    0.000    0.000    0.000    0.000 
#
# Total GULP energy -644651.937962 kJ/mol
# GULP energy per Si atom -12397.152653 kJ/mol
# Density = 1.965294 g / cm^3
# Si number density = 19.697778 Si / 1000 Ang^3
#
#
#
# Elastic Constant Matrix: (Units=GPa)
#
#
# Indices 1 2 3 4 5 6 
#
# 1 136.6611 32.4076 25.6385 0.0000 0.0000 0.0000
# 2 32.4076 84.8625 23.5724 0.0000 0.0000 0.0000
# 3 25.6385 23.5724 59.7060 0.0000 0.0000 0.0000
# 4 0.0000 0.0000 0.0000 27.5233 0.0000 0.0000
# 5 0.0000 0.0000 0.0000 0.0000 21.8125 0.0000
# 6 0.0000 0.0000 0.0000 0.0000 0.0000 26.3705
#
#
#
# Elastic Compliance Matrix: (Units=1/GPa)
#
#
# Indices 1 2 3 4 5 6 
#
# 1 0.008398 -0.002477 -0.002628 0.000000 0.000000 0.000000
# 2 -0.002477 0.013966 -0.004450 0.000000 0.000000 0.000000
# 3 -0.002628 -0.004450 0.019634 0.000000 0.000000 0.000000
# 4 0.000000 0.000000 0.000000 0.036333 0.000000 0.000000
# 5 0.000000 0.000000 0.000000 0.000000 0.045845 0.000000
# 6 0.000000 0.000000 0.000000 0.000000 0.000000 0.037921
#
#
# Mechanical properties :
#
#
# Convention : Reuss Voigt Hill
#
# Bulk Modulus (GPa) = 43.69246 49.38516 46.53881
# Shear Modulus (GPa) = 26.47789 28.44868 27.46328
#
# Velocity S-wave (km/s) = 3.67032 3.80446 3.73799
# Velocity P-wave (km/s) = 6.33966 6.66517 6.50445
#
# Compressibility (1/GPa) = 0.02288725
#
# Stress axis : x y z
#
# Youngs Moduli (GPa) = 119.07850 71.60344 50.93133
#
# Poissons Ratio (x) = 0.17736 0.13386
# Poissons Ratio (y) = 0.29495 0.22665
# Poissons Ratio (z) = 0.31296 0.31865
#
# Static dielectric constant tensor:
#      x y z
#    x 4.031340 0.000000 0.000000 
#    y 0.000000 3.435220 0.000000 
#    z 0.000000 0.000000 3.354560 
# 
# 
# High freq. dielectric constant tensor:
#      x y z
#    x 1.785080 0.000000 0.000000 
#    y 0.000000 1.766870 0.000000 
#    z 0.000000 0.000000 1.742340 
# 
# From -- ./inp_files/39957.got.cif
#   From: 2010.03.12/outbox.cif.g09.slc.cpg/sg67_20_cif.got.tgz:39957.got - 2010.04.10 22:41:39.
