data_PCOD8280153
_publ_section_title
;
Structure prediction by ZEFSAII (Michael W. Deem and Ramdas Pophale) SiO2 
 PCOD8280153
Probable space group: C M M A
;
_chemical_formula_sum "Si O2"
_cell_formula_units_Z 112
_cell_length_a 13.701715
_cell_length_b 13.566507
_cell_length_c 29.447693
_cell_angle_alpha 90.000000
_cell_angle_beta 90.000000
_cell_angle_gamma 90.000000
_cell_volume 5473.867112
_symmetry_space_group_name_H-M "C M M A"
_symmetry_group_IT_number 67
_symmetry_cell_setting 'orthorhombic'
loop_
_space_group_symop_operation_xyz
x,y,z
-x,1/2-y,z
x,-y,-z
-x,1/2+y,-z
-x,-y,-z
x,1/2+y,-z
-x,y,z
x,1/2-y,z
1/2+x,1/2+y,z
1/2-x,-y,z
1/2+x,1/2-y,-z
1/2-x,y,-z
1/2-x,1/2-y,-z
1/2+x,y,-z
1/2-x,1/2+y,z
1/2+x,-y,z
loop_
_atom_site_type_symbol
_atom_site_label
_atom_site_fract_x
_atom_site_fract_y
_atom_site_fract_z
Si Si1 0.290740 0.364414 0.747022
Si Si2 0.696498 0.132137 0.932354
Si Si3 0.892470 0.632333 0.025656
Si Si4 0.729385 0.361608 0.551495
Si Si5 0.609434 0.866327 0.160720
Si Si6 0.389439 0.033315 0.296126
Si Si7 0.387698 0.533776 0.597766
O O1 0.302523 0.250000 0.737191
O O2 0.315760 0.393108 0.798904
O O3 0.370068 0.419246 0.715787
O O4 0.181290 0.398385 0.734297
O O5 0.695749 0.250000 0.931203
O O6 0.808614 0.094071 0.939528
O O7 0.653510 0.088531 0.885655
O O8 0.630728 0.093928 0.974534
O O9 0.889454 0.750000 0.024832
O O10 0.000000 0.594646 0.040432
O O11 0.690795 0.250000 0.555099
O O12 0.750000 0.393435 0.500000
O O13 0.651670 0.432600 0.575758
O O14 0.833170 0.372298 0.576626
O O15 0.500000 0.909331 0.169532
O O16 0.601040 0.750000 0.156046
O O17 0.500000 0.064130 0.284792
O O18 0.366809 0.041282 0.349019
O O19 0.500000 0.541999 0.585517
#
# Coordination Sequence:
#
# PCOD8280153 Si02
#       7
#    16  16  16  16  16  16  16
#     4  10  20  35  56  79 105 139 177 219 270 327
#     4   8  13  20  31  51  80 115 157 203 251 304
#     4   8  12  18  29  46  74 115 157 197 246 304
#     4  10  21  36  55  82 115 148 183 225 271 317
#     4   9  16  26  42  65  92 123 163 211 261 314
#     4  10  22  38  56  81 110 140 179 227 275 322
#     4  10  21  37  57  80 108 145 186 226 270 321
#
# _framework density 20.460854999999999
#
# number of rings (size 3 to 8) (size 9 to 14) (size 15 to 20)
#    0.000    2.714    0.000    4.286    0.000    6.857 
#    0.000    5.000    0.000    2.571    0.000    0.000 
#    0.000    9.143    0.000   34.286    0.000   76.000 
#
# Total GULP energy -694123.399915 kJ/mol
# GULP energy per Si atom -12395.060713 kJ/mol
# Density = 2.041429 g / cm^3
# Si number density = 20.460855 Si / 1000 Ang^3
#
#
#
# Elastic Constant Matrix: (Units=GPa)
#
#
# Indices 1 2 3 4 5 6 
#
# 1 136.4557 -2.6360 71.2119 0.0000 0.0000 0.0000
# 2 -2.6360 30.1175 15.3787 0.0000 0.0000 0.0000
# 3 71.2119 15.3787 133.3925 0.0000 0.0000 0.0000
# 4 0.0000 0.0000 0.0000 12.4552 0.0000 0.0000
# 5 0.0000 0.0000 0.0000 0.0000 18.8309 0.0000
# 6 0.0000 0.0000 0.0000 0.0000 0.0000 14.1065
#
#
#
# Elastic Compliance Matrix: (Units=1/GPa)
#
#
# Indices 1 2 3 4 5 6 
#
# 1 0.010606 0.004058 -0.006130 0.000000 0.000000 0.000000
# 2 0.004058 0.036833 -0.006413 0.000000 0.000000 0.000000
# 3 -0.006130 -0.006413 0.011508 0.000000 0.000000 0.000000
# 4 0.000000 0.000000 0.000000 0.080288 0.000000 0.000000
# 5 0.000000 0.000000 0.000000 0.000000 0.053104 0.000000
# 6 0.000000 0.000000 0.000000 0.000000 0.000000 0.070890
#
#
# Mechanical properties :
#
#
# Convention : Reuss Voigt Hill
#
# Bulk Modulus (GPa) = 23.82183 51.98610 37.90397
# Shear Modulus (GPa) = 16.99577 23.47923 20.23750
#
# Velocity S-wave (km/s) = 2.88522 3.39118 3.14838
# Velocity P-wave (km/s) = 4.77151 6.38719 5.63753
#
# Compressibility (1/GPa) = 0.04197830
#
# Stress axis : x y z
#
# Youngs Moduli (GPa) = 94.28886 27.14947 86.89302
#
# Poissons Ratio (x) = -0.11018 0.53263
# Poissons Ratio (y) = -0.38265 0.55724
# Poissons Ratio (z) = 0.57797 0.17411
#
# Static dielectric constant tensor:
#      x y z
#    x 3.916840 0.000000 0.000000 
#    y 0.000000 3.468930 0.000000 
#    z 0.000000 0.000000 3.847840 
# 
# 
# High freq. dielectric constant tensor:
#      x y z
#    x 1.805030 0.000000 0.000000 
#    y 0.000000 1.785300 0.000000 
#    z 0.000000 0.000000 1.800450 
# 
# From -- ./inp_files/44370.got.cif
#   From: 2010.03.12/outbox.cif.g09.slc.cpg/sg67_23_cif.got.tgz:44370.got - 2010.04.10 22:41:39.
