data_PCOD8280684
_publ_section_title
;
Structure prediction by ZEFSAII (Michael W. Deem and Ramdas Pophale) SiO2 
 PCOD8280684
Probable space group: C M M A
;
_chemical_formula_sum "Si O2"
_cell_formula_units_Z 96
_cell_length_a 9.071755
_cell_length_b 26.995452
_cell_length_c 24.212029
_cell_angle_alpha 90.000000
_cell_angle_beta 90.000000
_cell_angle_gamma 90.000000
_cell_volume 5929.432121
_symmetry_space_group_name_H-M "C M M A"
_symmetry_group_IT_number 67
_symmetry_cell_setting 'orthorhombic'
loop_
_space_group_symop_operation_xyz
x,y,z
-x,1/2-y,z
x,-y,-z
-x,1/2+y,-z
-x,-y,-z
x,1/2+y,-z
-x,y,z
x,1/2-y,z
1/2+x,1/2+y,z
1/2-x,-y,z
1/2+x,1/2-y,-z
1/2-x,y,-z
1/2-x,1/2-y,-z
1/2+x,y,-z
1/2-x,1/2+y,z
1/2+x,-y,z
loop_
_atom_site_type_symbol
_atom_site_label
_atom_site_fract_x
_atom_site_fract_y
_atom_site_fract_z
Si Si1 0.170861 0.948001 0.172487
Si Si2 0.673901 0.389024 0.277913
Si Si3 0.830316 0.693048 0.660120
Si Si4 0.826912 0.350821 0.557049
Si Si5 0.169433 0.049995 0.616885
Si Si6 0.827840 0.947123 0.051048
O O1 0.224127 0.908552 0.217954
O O2 0.199125 0.923489 0.111766
O O3 0.000000 0.959843 0.180916
O O4 0.250000 0.000000 0.180812
O O5 0.500000 0.377795 0.281685
O O6 0.761507 0.338557 0.289703
O O7 0.719990 0.430127 0.323180
O O8 0.815514 0.750000 0.677362
O O9 0.741034 0.683964 0.603971
O O10 0.000000 0.677758 0.650937
O O11 0.750000 0.336919 0.500000
O O12 0.796131 0.408258 0.571266
O O13 0.000000 0.339756 0.553244
O O14 0.000000 0.036236 0.618420
O O15 0.250000 0.000000 0.599935
O O16 0.000000 0.952511 0.038181
O O17 0.750000 0.000000 0.053213
O O18 0.750000 0.916986 0.000000
#
# Coordination Sequence:
#
# PCOD8280684 Si02
#       6
#    16  16  16  16  16  16
#     4   9  17  27  41  63  91 123 157 190 222 259
#     4   9  18  32  47  66  91 117 148 183 220 264
#     4  10  21  36  53  72  91 112 140 176 221 270
#     4  10  21  36  52  71  93 117 147 180 215 258
#     4   9  18  30  45  65  89 118 148 177 211 252
#     4   9  15  23  35  53  81 118 157 192 222 253
#
# _framework density 16.19042
#
# number of rings (size 3 to 8) (size 9 to 14) (size 15 to 20)
#    0.000    2.667    0.000    3.500    0.000    6.667 
#    0.000    1.667    0.000    0.000    0.000    0.000 
#    0.000    0.667    0.000    1.500    0.000    3.000 
#
# Total GULP energy -594980.561925 kJ/mol
# GULP energy per Si atom -12395.428373 kJ/mol
# Density = 1.615357 g / cm^3
# Si number density = 16.190420 Si / 1000 Ang^3
#
#
#
# Elastic Constant Matrix: (Units=GPa)
#
#
# Indices 1 2 3 4 5 6 
#
# 1 83.1314 38.3127 49.5121 0.0000 0.0000 0.0000
# 2 38.3127 68.2714 34.9360 0.0000 0.0000 0.0000
# 3 49.5121 34.9360 133.0895 0.0000 0.0000 0.0000
# 4 0.0000 0.0000 0.0000 19.3734 0.0000 0.0000
# 5 0.0000 0.0000 0.0000 0.0000 25.3803 0.0000
# 6 0.0000 0.0000 0.0000 0.0000 0.0000 24.3775
#
#
#
# Elastic Compliance Matrix: (Units=1/GPa)
#
#
# Indices 1 2 3 4 5 6 
#
# 1 0.018564 -0.007952 -0.004819 0.000000 0.000000 0.000000
# 2 -0.007952 0.020326 -0.002377 0.000000 0.000000 0.000000
# 3 -0.004819 -0.002377 0.009931 0.000000 0.000000 0.000000
# 4 0.000000 0.000000 0.000000 0.051617 0.000000 0.000000
# 5 0.000000 0.000000 0.000000 0.000000 0.039401 0.000000
# 6 0.000000 0.000000 0.000000 0.000000 0.000000 0.041021
#
#
# Mechanical properties :
#
#
# Convention : Reuss Voigt Hill
#
# Bulk Modulus (GPa) = 53.98199 58.89043 56.43621
# Shear Modulus (GPa) = 23.00636 24.60835 23.80736
#
# Velocity S-wave (km/s) = 3.77369 3.90286 3.83882
# Velocity P-wave (km/s) = 7.23892 7.53408 7.38797
#
# Compressibility (1/GPa) = 0.01852470
#
# Stress axis : x y z
#
# Youngs Moduli (GPa) = 53.86785 49.19699 100.69967
#
# Poissons Ratio (x) = 0.39121 0.48525
# Poissons Ratio (y) = 0.42835 0.23941
# Poissons Ratio (z) = 0.25958 0.11696
#
# Static dielectric constant tensor:
#      x y z
#    x 3.169570 0.000000 0.000000 
#    y 0.000000 2.742730 0.000000 
#    z 0.000000 0.000000 3.659340 
# 
# 
# High freq. dielectric constant tensor:
#      x y z
#    x 1.634030 0.000000 0.000000 
#    y 0.000000 1.580650 0.000000 
#    z 0.000000 0.000000 1.627220 
# 
# From -- ./inp_files/37193.got.cif
#   From: 2010.03.12/outbox.cif.g09.slc.cpg/sg67_19_cif.got.tgz:37193.got - 2010.04.10 22:41:39.
