data_PCOD8280388
_publ_section_title
;
Structure prediction by ZEFSAII (Michael W. Deem and Ramdas Pophale) SiO2 
 PCOD8280388
Probable space group: C M M A
;
_chemical_formula_sum "Si O2"
_cell_formula_units_Z 104
_cell_length_a 26.716419
_cell_length_b 9.274032
_cell_length_c 21.719355
_cell_angle_alpha 90.000000
_cell_angle_beta 90.000000
_cell_angle_gamma 90.000000
_cell_volume 5381.381234
_symmetry_space_group_name_H-M "C M M A"
_symmetry_group_IT_number 67
_symmetry_cell_setting 'orthorhombic'
loop_
_space_group_symop_operation_xyz
x,y,z
-x,1/2-y,z
x,-y,-z
-x,1/2+y,-z
-x,-y,-z
x,1/2+y,-z
-x,y,z
x,1/2-y,z
1/2+x,1/2+y,z
1/2-x,-y,z
1/2+x,1/2-y,-z
1/2-x,y,-z
1/2-x,1/2-y,-z
1/2+x,y,-z
1/2-x,1/2+y,z
1/2+x,-y,z
loop_
_atom_site_type_symbol
_atom_site_label
_atom_site_fract_x
_atom_site_fract_y
_atom_site_fract_z
Si Si1 0.557316 0.413810 0.324323
Si Si2 0.139299 0.036081 0.885009
Si Si3 0.700726 0.915602 0.357855
Si Si4 0.440914 0.250000 0.068452
Si Si5 0.116079 0.750000 0.954550
Si Si6 0.627191 0.914485 0.244057
Si Si7 0.126824 0.919045 0.438743
Si Si8 0.297678 0.750000 0.952128
O O1 0.500000 0.448161 0.335697
O O2 0.566898 0.250000 0.302539
O O3 0.576075 0.519508 0.270725
O O4 0.583519 0.442821 0.389221
O O5 0.087357 0.115703 0.900361
O O6 0.192468 0.107494 0.909309
O O7 0.129450 0.883875 0.914128
O O8 0.145981 0.013447 0.812248
O O9 0.710846 0.750000 0.377347
O O10 0.668033 0.922550 0.296852
O O11 0.750000 0.000000 0.339457
O O12 0.676565 0.001040 0.414905
O O13 0.500000 0.250000 0.085191
O O14 0.436636 0.250000 0.992480
O O15 0.152239 0.750000 0.011309
O O16 0.617415 0.750000 0.222871
O O17 0.137580 0.750000 0.450897
O O18 0.108665 0.000000 0.500000
O O19 0.250000 0.750000 0.000000
#
# Coordination Sequence:
#
# PCOD8280388 Si02
#       8
#    16  16  16   8   8  16  16   8
#     4   9  20  37  59  86 120 161 199 243 295 346
#     4  10  21  39  60  83 114 150 189 240 286 345
#     4  10  21  39  59  83 116 151 191 245 295 348
#     4  10  22  38  58  84 112 150 189 229 292 346
#     4  10  20  38  62  80 114 146 184 238 288 340
#     4  10  21  39  59  83 118 152 193 241 293 351
#     4  10  20  36  59  87 118 159 201 244 293 345
#     4  10  22  40  58  86 114 150 189 234 291 353
#
# _framework density 19.325892
#
# number of rings (size 3 to 8) (size 9 to 14) (size 15 to 20)
#    0.000    2.308    0.769    2.769    2.154    5.231 
#    2.769    1.538    0.000    0.000    0.000    0.000 
#    0.000    0.000    0.000    0.000    0.000    0.000 
#
# Total GULP energy -644255.240691 kJ/mol
# GULP energy per Si atom -12389.523859 kJ/mol
# Density = 1.928191 g / cm^3
# Si number density = 19.325892 Si / 1000 Ang^3
#
#
#
# Elastic Constant Matrix: (Units=GPa)
#
#
# Indices 1 2 3 4 5 6 
#
# 1 82.2546 45.0924 24.3243 0.0000 0.0000 0.0000
# 2 45.0924 150.6234 58.2855 0.0000 0.0000 0.0000
# 3 24.3243 58.2855 104.0680 0.0000 0.0000 0.0000
# 4 0.0000 0.0000 0.0000 73.4543 0.0000 0.0000
# 5 0.0000 0.0000 0.0000 0.0000 13.0468 0.0000
# 6 0.0000 0.0000 0.0000 0.0000 0.0000 24.3292
#
#
#
# Elastic Compliance Matrix: (Units=1/GPa)
#
#
# Indices 1 2 3 4 5 6 
#
# 1 0.014668 -0.003912 -0.001237 0.000000 0.000000 0.000000
# 2 -0.003912 0.009520 -0.004417 0.000000 0.000000 0.000000
# 3 -0.001237 -0.004417 0.012372 0.000000 0.000000 0.000000
# 4 0.000000 0.000000 0.000000 0.013614 0.000000 0.000000
# 5 0.000000 0.000000 0.000000 0.000000 0.076647 0.000000
# 6 0.000000 0.000000 0.000000 0.000000 0.000000 0.041103
#
#
# Mechanical properties :
#
#
# Convention : Reuss Voigt Hill
#
# Bulk Modulus (GPa) = 57.38473 65.81672 61.60072
# Shear Modulus (GPa) = 25.92472 36.11565 31.02018
#
# Velocity S-wave (km/s) = 3.66655 4.32762 4.01073
# Velocity P-wave (km/s) = 6.90525 7.68773 7.30697
#
# Compressibility (1/GPa) = 0.01742624
#
# Stress axis : x y z
#
# Youngs Moduli (GPa) = 68.17534 105.04597 80.82629
#
# Poissons Ratio (x) = 0.41099 0.10000
# Poissons Ratio (y) = 0.26673 0.35703
# Poissons Ratio (z) = 0.08434 0.46401
#
# Static dielectric constant tensor:
#      x y z
#    x 3.443250 0.000000 0.000000 
#    y 0.000000 3.749910 0.000000 
#    z 0.000000 0.000000 3.816910 
# 
# 
# High freq. dielectric constant tensor:
#      x y z
#    x 1.734080 0.000000 0.000000 
#    y 0.000000 1.769500 0.000000 
#    z 0.000000 0.000000 1.757460 
# 
# From -- ./inp_files/40027.got.cif
#   From: 2010.03.12/outbox.cif.g09.slc.cpg/sg67_21_cif.got.tgz:40027.got - 2010.04.10 22:41:39.
