data_PCOD8280158
_publ_section_title
;
Structure prediction by ZEFSAII (Michael W. Deem and Ramdas Pophale) SiO2 
 PCOD8280158
Probable space group: C M M A
;
_chemical_formula_sum "Si O2"
_cell_formula_units_Z 80
_cell_length_a 9.009155
_cell_length_b 18.433879
_cell_length_c 25.754436
_cell_angle_alpha 90.000000
_cell_angle_beta 90.000000
_cell_angle_gamma 90.000000
_cell_volume 4277.133787
_symmetry_space_group_name_H-M "C M M A"
_symmetry_group_IT_number 67
_symmetry_cell_setting 'orthorhombic'
loop_
_space_group_symop_operation_xyz
x,y,z
-x,1/2-y,z
x,-y,-z
-x,1/2+y,-z
-x,-y,-z
x,1/2+y,-z
-x,y,z
x,1/2-y,z
1/2+x,1/2+y,z
1/2-x,-y,z
1/2+x,1/2-y,-z
1/2-x,y,-z
1/2-x,1/2-y,-z
1/2+x,y,-z
1/2-x,1/2+y,z
1/2+x,-y,z
loop_
_atom_site_type_symbol
_atom_site_label
_atom_site_fract_x
_atom_site_fract_y
_atom_site_fract_z
Si Si1 0.663711 0.836326 0.951054
Si Si2 0.177116 0.669037 0.162008
Si Si3 0.675712 0.422734 0.258942
Si Si4 0.173991 0.925246 0.552899
Si Si5 0.829677 0.665589 0.653234
O O1 0.500000 0.869708 0.954212
O O2 0.657776 0.750000 0.955450
O O3 0.736410 0.856407 0.894953
O O4 0.750000 0.870358 0.000000
O O5 0.236762 0.750000 0.175209
O O6 0.234202 0.613480 0.205543
O O7 0.000000 0.671481 0.160036
O O8 0.500000 0.432104 0.258745
O O9 0.750000 0.500000 0.265860
O O10 0.720520 0.371781 0.306293
O O11 0.250000 0.897335 0.500000
O O12 0.202844 0.864914 0.596158
O O13 0.000000 0.938779 0.543481
O O14 0.250000 0.000000 0.571258
O O15 0.792425 0.750000 0.652286
O O16 0.000000 0.650539 0.669371
#
# Coordination Sequence:
#
# PCOD8280158 Si02
#       5
#    16  16  16  16  16
#     4   8  13  23  41  66  95 124 156 198 247 298
#     4   8  15  29  49  72  98 129 166 208 253 303
#     4  11  22  36  55  77 102 136 177 216 259 313
#     4  10  20  35  56  80 108 142 177 213 253 300
#     4  10  22  39  57  80 110 139 170 215 266 309
#
# _framework density 18.704115000000002
#
# number of rings (size 3 to 8) (size 9 to 14) (size 15 to 20)
#    0.000    2.600    0.000    4.200    0.000    4.800 
#    0.000    2.000    0.000    5.400    0.000    4.200 
#    0.000    0.000    0.000    0.000    0.000    0.000 
#
# Total GULP energy -495863.961013 kJ/mol
# GULP energy per Si atom -12396.599025 kJ/mol
# Density = 1.866154 g / cm^3
# Si number density = 18.704115 Si / 1000 Ang^3
#
#
#
# Elastic Constant Matrix: (Units=GPa)
#
#
# Indices 1 2 3 4 5 6 
#
# 1 75.6831 37.9857 53.7965 0.0000 0.0000 0.0000
# 2 37.9857 98.8070 69.7287 0.0000 0.0000 0.0000
# 3 53.7965 69.7287 146.6914 0.0000 0.0000 0.0000
# 4 0.0000 0.0000 0.0000 14.2263 0.0000 0.0000
# 5 0.0000 0.0000 0.0000 0.0000 28.9110 0.0000
# 6 0.0000 0.0000 0.0000 0.0000 0.0000 10.9503
#
#
#
# Elastic Compliance Matrix: (Units=1/GPa)
#
#
# Indices 1 2 3 4 5 6 
#
# 1 0.018654 -0.003527 -0.005165 0.000000 0.000000 0.000000
# 2 -0.003527 0.015896 -0.006263 0.000000 0.000000 0.000000
# 3 -0.005165 -0.006263 0.011688 0.000000 0.000000 0.000000
# 4 0.000000 0.000000 0.000000 0.070292 0.000000 0.000000
# 5 0.000000 0.000000 0.000000 0.000000 0.034589 0.000000
# 6 0.000000 0.000000 0.000000 0.000000 0.000000 0.091321
#
#
# Mechanical properties :
#
#
# Convention : Reuss Voigt Hill
#
# Bulk Modulus (GPa) = 61.23674 71.57815 66.40745
# Shear Modulus (GPa) = 17.99903 21.46225 19.73064
#
# Velocity S-wave (km/s) = 3.10547 3.39109 3.25142
# Velocity P-wave (km/s) = 6.75791 7.32697 7.04818
#
# Compressibility (1/GPa) = 0.01633007
#
# Stress axis : x y z
#
# Youngs Moduli (GPa) = 53.60728 62.90785 85.55735
#
# Poissons Ratio (x) = 0.22186 0.44188
# Poissons Ratio (y) = 0.18906 0.53583
# Poissons Ratio (z) = 0.27686 0.39398
#
# Static dielectric constant tensor:
#      x y z
#    x 3.270410 0.000000 0.000000 
#    y 0.000000 3.236820 0.000000 
#    z 0.000000 0.000000 3.789550 
# 
# 
# High freq. dielectric constant tensor:
#      x y z
#    x 1.709180 0.000000 0.000000 
#    y 0.000000 1.701450 0.000000 
#    z 0.000000 0.000000 1.745770 
# 
# From -- ./inp_files/43293.got.cif
#   From: 2010.03.12/outbox.cif.g09.slc.cpg/sg67_22_cif.got.tgz:43293.got - 2010.04.10 22:41:39.
