data_PCOD8280529
_publ_section_title
;
Structure prediction by ZEFSAII (Michael W. Deem and Ramdas Pophale) SiO2 
 PCOD8280529
Probable space group: C M M A
;
_chemical_formula_sum "Si O2"
_cell_formula_units_Z 56
_cell_length_a 14.439203
_cell_length_b 8.526480
_cell_length_c 23.868028
_cell_angle_alpha 90.000000
_cell_angle_beta 90.000000
_cell_angle_gamma 90.000000
_cell_volume 2938.526006
_symmetry_space_group_name_H-M "C M M A"
_symmetry_group_IT_number 67
_symmetry_cell_setting 'orthorhombic'
loop_
_space_group_symop_operation_xyz
x,y,z
-x,1/2-y,z
x,-y,-z
-x,1/2+y,-z
-x,-y,-z
x,1/2+y,-z
-x,y,z
x,1/2-y,z
1/2+x,1/2+y,z
1/2-x,-y,z
1/2+x,1/2-y,-z
1/2-x,y,-z
1/2-x,1/2-y,-z
1/2+x,y,-z
1/2-x,1/2+y,z
1/2+x,-y,z
loop_
_atom_site_type_symbol
_atom_site_label
_atom_site_fract_x
_atom_site_fract_y
_atom_site_fract_z
Si Si1 0.000000 0.064868 0.765910
Si Si2 0.500000 0.563411 0.640101
Si Si3 0.352017 0.064100 0.558286
Si Si4 0.000000 0.564422 0.937940
Si Si5 0.146842 0.435898 0.854979
O O1 0.091997 0.009250 0.799030
O O2 0.000000 0.250000 0.762073
O O3 0.000000 0.995620 0.703321
O O4 0.500000 0.750000 0.638045
O O5 0.590545 0.497270 0.610496
O O6 0.352596 0.250000 0.556437
O O7 0.394621 0.000000 0.500000
O O8 0.250000 0.000000 0.566675
O O9 0.093342 0.503814 0.908425
O O10 0.000000 0.750000 0.937974
O O11 0.000000 0.500000 0.000000
O O12 0.148496 0.250000 0.860416
O O13 0.250000 0.500000 0.852066
#
# Coordination Sequence:
#
# PCOD8280529 Si02
#       5
#     8   8  16   8  16
#     4   8  19  37  57  80 112 147 186 231 276 323
#     4  11  21  37  58  83 112 146 183 227 277 331
#     4  11  22  38  57  81 109 143 182 227 278 335
#     4  11  22  38  59  87 118 151 187 232 278 326
#     4  10  20  38  60  85 114 150 189 230 276 328
#
# _framework density 19.057172999999999
#
# number of rings (size 3 to 8) (size 9 to 14) (size 15 to 20)
#    0.000    1.714    0.000    7.286    0.000    1.714 
#    0.000   14.286    0.000    0.000    0.000    0.000 
#    0.000    0.000    0.000    0.000    0.000    0.000 
#
# Total GULP energy -347233.191993 kJ/mol
# GULP energy per Si atom -12401.185428 kJ/mol
# Density = 1.901380 g / cm^3
# Si number density = 19.057173 Si / 1000 Ang^3
#
#
#
# Elastic Constant Matrix: (Units=GPa)
#
#
# Indices 1 2 3 4 5 6 
#
# 1 160.4741 55.0069 94.6522 0.0000 0.0000 0.0000
# 2 55.0069 144.5680 64.1671 0.0000 0.0000 0.0000
# 3 94.6522 64.1671 198.4661 0.0000 0.0000 0.0000
# 4 0.0000 0.0000 0.0000 25.8601 0.0000 0.0000
# 5 0.0000 0.0000 0.0000 0.0000 -15.5991 0.0000
# 6 0.0000 0.0000 0.0000 0.0000 0.0000 34.3080
#
#
#
# Elastic Compliance Matrix: (Units=1/GPa)
#
#
# Indices 1 2 3 4 5 6 
#
# 1 0.009048 -0.001783 -0.003739 0.000000 0.000000 0.000000
# 2 -0.001783 0.008428 -0.001874 0.000000 0.000000 0.000000
# 3 -0.003739 -0.001874 0.007428 0.000000 0.000000 0.000000
# 4 0.000000 0.000000 0.000000 0.038670 0.000000 0.000000
# 5 0.000000 0.000000 0.000000 0.000000 -0.064106 0.000000
# 6 0.000000 0.000000 0.000000 0.000000 0.000000 0.029148
#
#
# Mechanical properties :
#
#
# Convention : Reuss Voigt Hill
#
# Bulk Modulus (GPa) = 98.90345 103.46230 101.18287
# Shear Modulus (GPa) = 106.89070 28.22594 67.55832
#
# Velocity S-wave (km/s) = 7.49742 3.85271 5.96048
# Velocity P-wave (km/s) = 11.26762 8.61391 10.02893
#
# Compressibility (1/GPa) = 0.01011087
#
# Stress axis : x y z
#
# Youngs Moduli (GPa) = 110.52276 118.65783 134.63268
#
# Poissons Ratio (x) = 0.21160 0.50333
# Poissons Ratio (y) = 0.19709 0.25234
# Poissons Ratio (z) = 0.41320 0.22240
#
# Static dielectric constant tensor:
#      x y z
#    x 3.560810 0.000000 0.000000 
#    y 0.000000 3.554550 0.000000 
#    z 0.000000 0.000000 3.825990 
# 
# 
# High freq. dielectric constant tensor:
#      x y z
#    x 1.749590 0.000000 0.000000 
#    y 0.000000 1.749670 0.000000 
#    z 0.000000 0.000000 1.746280 
# 
# From -- ./inp_files/36539.got.cif
#   From: 2010.03.12/outbox.cif.g09.slc.cpg/sg67_19_cif.got.tgz:36539.got - 2010.04.10 22:41:39.
