data_PCOD8280921
_publ_section_title
;
Structure prediction by ZEFSAII (Michael W. Deem and Ramdas Pophale) SiO2 
 PCOD8280921
Probable space group: C M M A
;
_chemical_formula_sum "Si O2"
_cell_formula_units_Z 64
_cell_length_a 27.608012
_cell_length_b 9.507404
_cell_length_c 13.224689
_cell_angle_alpha 90.000000
_cell_angle_beta 90.000000
_cell_angle_gamma 90.000000
_cell_volume 3471.223295
_symmetry_space_group_name_H-M "C M M A"
_symmetry_group_IT_number 67
_symmetry_cell_setting 'orthorhombic'
loop_
_space_group_symop_operation_xyz
x,y,z
-x,1/2-y,z
x,-y,-z
-x,1/2+y,-z
-x,-y,-z
x,1/2+y,-z
-x,y,z
x,1/2-y,z
1/2+x,1/2+y,z
1/2-x,-y,z
1/2+x,1/2-y,-z
1/2-x,y,-z
1/2-x,1/2-y,-z
1/2+x,y,-z
1/2-x,1/2+y,z
1/2+x,-y,z
loop_
_atom_site_type_symbol
_atom_site_label
_atom_site_fract_x
_atom_site_fract_y
_atom_site_fract_z
Si Si1 0.854045 0.520484 0.710027
Si Si2 0.695386 0.750000 0.406526
Si Si3 0.800083 0.750000 0.354835
Si Si4 0.444615 0.584998 0.398592
Si Si5 0.202636 0.085206 0.099093
O O1 0.834651 0.612551 0.617671
O O2 0.828419 0.373753 0.697519
O O3 0.912157 0.521551 0.693428
O O4 0.840679 0.581978 0.819563
O O5 0.742633 0.750000 0.331427
O O6 0.702776 0.750000 0.525043
O O7 0.431954 0.500000 0.500000
O O8 0.500000 0.559742 0.366277
O O9 0.434093 0.750000 0.417009
O O10 0.214370 0.250000 0.074999
O O11 0.250000 0.000000 0.139565
O O12 0.184798 0.000000 0.000000
#
# Coordination Sequence:
#
# PCOD8280921 Si02
#       5
#    16   8   8  16  16
#     4  12  23  36  57  83 113 155 194 234 288 341
#     4  11  20  38  50  80 118 151 192 222 278 339
#     4  11  24  32  54  80 118 157 184 230 272 349
#     4  10  21  38  59  84 114 151 195 241 287 339
#     4  11  23  39  60  84 115 149 196 243 289 342
#
# _framework density 18.437304000000001
#
# number of rings (size 3 to 8) (size 9 to 14) (size 15 to 20)
#    0.000    1.000    2.500    6.000    5.250    2.000 
#    0.000    0.000    0.000    0.750    0.000    0.000 
#    0.000    0.000    0.000    0.000    0.000    0.000 
#
# Total GULP energy -396606.247371 kJ/mol
# GULP energy per Si atom -12393.945230 kJ/mol
# Density = 1.839534 g / cm^3
# Si number density = 18.437304 Si / 1000 Ang^3
#
#
#
# Elastic Constant Matrix: (Units=GPa)
#
#
# Indices 1 2 3 4 5 6 
#
# 1 107.3673 20.8848 44.2650 0.0000 0.0000 0.0000
# 2 20.8848 111.0699 17.3951 0.0000 0.0000 0.0000
# 3 44.2650 17.3951 74.2648 0.0000 0.0000 0.0000
# 4 0.0000 0.0000 0.0000 34.6992 0.0000 0.0000
# 5 0.0000 0.0000 0.0000 0.0000 32.9436 0.0000
# 6 0.0000 0.0000 0.0000 0.0000 0.0000 52.1729
#
#
#
# Elastic Compliance Matrix: (Units=1/GPa)
#
#
# Indices 1 2 3 4 5 6 
#
# 1 0.012508 -0.001229 -0.007167 0.000000 0.000000 0.000000
# 2 -0.001229 0.009467 -0.001485 0.000000 0.000000 0.000000
# 3 -0.007167 -0.001485 0.018085 0.000000 0.000000 0.000000
# 4 0.000000 0.000000 0.000000 0.028819 0.000000 0.000000
# 5 0.000000 0.000000 0.000000 0.000000 0.030355 0.000000
# 6 0.000000 0.000000 0.000000 0.000000 0.000000 0.019167
#
#
# Mechanical properties :
#
#
# Convention : Reuss Voigt Hill
#
# Bulk Modulus (GPa) = 49.26770 50.86574 50.06672
# Shear Modulus (GPa) = 34.49953 37.97359 36.23656
#
# Velocity S-wave (km/s) = 4.33041 4.54321 4.43809
# Velocity P-wave (km/s) = 7.19604 7.42761 7.31274
#
# Compressibility (1/GPa) = 0.02029727
#
# Stress axis : x y z
#
# Youngs Moduli (GPa) = 79.94979 105.62969 55.29419
#
# Poissons Ratio (x) = 0.12986 0.39631
# Poissons Ratio (y) = 0.09829 0.08210
# Poissons Ratio (z) = 0.57302 0.15683
#
# Static dielectric constant tensor:
#      x y z
#    x 3.546030 0.000000 0.000000 
#    y 0.000000 3.364010 0.000000 
#    z 0.000000 0.000000 3.226820 
# 
# 
# High freq. dielectric constant tensor:
#      x y z
#    x 1.704310 0.000000 0.000000 
#    y 0.000000 1.736060 0.000000 
#    z 0.000000 0.000000 1.695560 
# 
# From -- ./inp_files/24990.got.cif
#   From: 2010.03.12/outbox.cif.g09.slc.cpg/sg67_13_cif.got.tgz:24990.got - 2010.04.10 22:41:39.
