data_PCOD8280335
_publ_section_title
;
Structure prediction by ZEFSAII (Michael W. Deem and Ramdas Pophale) SiO2 
 PCOD8280335
Probable space group: C M M A
;
_chemical_formula_sum "Si O2"
_cell_formula_units_Z 64
_cell_length_a 14.957409
_cell_length_b 8.748632
_cell_length_c 24.519293
_cell_angle_alpha 90.000000
_cell_angle_beta 90.000000
_cell_angle_gamma 90.000000
_cell_volume 3208.517863
_symmetry_space_group_name_H-M "C M M A"
_symmetry_group_IT_number 67
_symmetry_cell_setting 'orthorhombic'
loop_
_space_group_symop_operation_xyz
x,y,z
-x,1/2-y,z
x,-y,-z
-x,1/2+y,-z
-x,-y,-z
x,1/2+y,-z
-x,y,z
x,1/2-y,z
1/2+x,1/2+y,z
1/2-x,-y,z
1/2+x,1/2-y,-z
1/2-x,y,-z
1/2-x,1/2-y,-z
1/2+x,y,-z
1/2-x,1/2+y,z
1/2+x,-y,z
loop_
_atom_site_type_symbol
_atom_site_label
_atom_site_fract_x
_atom_site_fract_y
_atom_site_fract_z
Si Si1 0.653949 0.572945 0.748020
Si Si2 0.151925 0.930617 0.640358
Si Si3 0.847978 0.928714 0.131622
Si Si4 0.500000 0.569034 0.059574
Si Si5 0.000000 0.569795 0.559272
O O1 0.661573 0.750000 0.733040
O O2 0.750000 0.500000 0.753090
O O3 0.606097 0.488903 0.697174
O O4 0.609180 0.549545 0.807474
O O5 0.159362 0.750000 0.642774
O O6 0.088489 0.985411 0.591242
O O7 0.250000 0.000000 0.631161
O O8 0.842351 0.750000 0.117133
O O9 0.750000 0.000000 0.126806
O O10 0.911288 0.013561 0.089662
O O11 0.500000 0.750000 0.056421
O O12 0.500000 0.500000 0.000000
O O13 0.000000 0.500000 0.500000
O O14 0.000000 0.750000 0.554021
#
# Coordination Sequence:
#
# PCOD8280335 Si02
#       5
#    16  16  16   8   8
#     4   9  17  31  55  86 117 148 182 224 276 335
#     4  10  20  36  57  83 113 145 182 226 277 332
#     4  10  21  39  62  90 122 154 192 237 287 344
#     4  12  26  43  62  85 115 154 200 246 291 340
#     4  10  24  41  56  77 107 144 188 234 277 328
#
# _framework density 19.946904
#
# number of rings (size 3 to 8) (size 9 to 14) (size 15 to 20)
#    0.000    2.000    0.000    4.875    0.000    7.000 
#    0.000    7.500    0.000    0.000    0.000    0.000 
#    0.000    0.000    0.000    0.000    0.000    0.000 
#
# Total GULP energy -396609.110402 kJ/mol
# GULP energy per Si atom -12394.034700 kJ/mol
# Density = 1.990150 g / cm^3
# Si number density = 19.946904 Si / 1000 Ang^3
#
#
#
# Elastic Constant Matrix: (Units=GPa)
#
#
# Indices 1 2 3 4 5 6 
#
# 1 106.9848 53.6482 79.7447 0.0000 0.0000 0.0000
# 2 53.6482 135.8821 77.7134 0.0000 0.0000 0.0000
# 3 79.7447 77.7134 191.2583 0.0000 0.0000 0.0000
# 4 0.0000 0.0000 0.0000 38.6887 0.0000 0.0000
# 5 0.0000 0.0000 0.0000 0.0000 53.0351 0.0000
# 6 0.0000 0.0000 0.0000 0.0000 0.0000 29.3593
#
#
#
# Elastic Compliance Matrix: (Units=1/GPa)
#
#
# Indices 1 2 3 4 5 6 
#
# 1 0.014408 -0.002935 -0.004815 0.000000 0.000000 0.000000
# 2 -0.002935 0.010185 -0.002915 0.000000 0.000000 0.000000
# 3 -0.004815 -0.002915 0.008420 0.000000 0.000000 0.000000
# 4 0.000000 0.000000 0.000000 0.025847 0.000000 0.000000
# 5 0.000000 0.000000 0.000000 0.000000 0.018855 0.000000
# 6 0.000000 0.000000 0.000000 0.000000 0.000000 0.034061
#
#
# Mechanical properties :
#
#
# Convention : Reuss Voigt Hill
#
# Bulk Modulus (GPa) = 85.58381 95.14866 90.36623
# Shear Modulus (GPa) = 36.49638 39.08456 37.79047
#
# Velocity S-wave (km/s) = 4.28211 4.43135 4.35737
# Velocity P-wave (km/s) = 8.21265 8.60157 8.40936
#
# Compressibility (1/GPa) = 0.01168445
#
# Stress axis : x y z
#
# Youngs Moduli (GPa) = 69.40789 98.18341 118.75889
#
# Poissons Ratio (x) = 0.28813 0.57180
# Poissons Ratio (y) = 0.20369 0.34616
# Poissons Ratio (z) = 0.33418 0.28619
#
# Static dielectric constant tensor:
#      x y z
#    x 3.547970 0.000000 0.000000 
#    y 0.000000 3.765800 0.000000 
#    z 0.000000 0.000000 4.658590 
# 
# 
# High freq. dielectric constant tensor:
#      x y z
#    x 1.765780 0.000000 0.000000 
#    y 0.000000 1.791660 0.000000 
#    z 0.000000 0.000000 1.789910 
# 
# From -- ./inp_files/41719.got.cif
#   From: 2010.03.12/outbox.cif.g09.slc.cpg/sg67_21_cif.got.tgz:41719.got - 2010.04.10 22:41:39.
