data_PCOD8280201
_publ_section_title
;
Structure prediction by ZEFSAII (Michael W. Deem and Ramdas Pophale) SiO2 
 PCOD8280201
Probable space group: C M M A
;
_chemical_formula_sum "Si O2"
_cell_formula_units_Z 112
_cell_length_a 26.249409
_cell_length_b 15.543460
_cell_length_c 14.089627
_cell_angle_alpha 90.000000
_cell_angle_beta 90.000000
_cell_angle_gamma 90.000000
_cell_volume 5748.661354
_symmetry_space_group_name_H-M "C M M A"
_symmetry_group_IT_number 67
_symmetry_cell_setting 'orthorhombic'
loop_
_space_group_symop_operation_xyz
x,y,z
-x,1/2-y,z
x,-y,-z
-x,1/2+y,-z
-x,-y,-z
x,1/2+y,-z
-x,y,z
x,1/2-y,z
1/2+x,1/2+y,z
1/2-x,-y,z
1/2+x,1/2-y,-z
1/2-x,y,-z
1/2-x,1/2-y,-z
1/2+x,y,-z
1/2-x,1/2+y,z
1/2+x,-y,z
loop_
_atom_site_type_symbol
_atom_site_label
_atom_site_fract_x
_atom_site_fract_y
_atom_site_fract_z
Si Si1 0.714800 0.345302 0.916747
Si Si2 0.560874 0.501061 0.724925
Si Si3 0.596439 0.652796 0.595993
Si Si4 0.442148 0.844176 0.397350
Si Si5 0.289387 0.651545 0.579556
Si Si6 0.215920 0.418730 0.784646
Si Si7 0.867396 0.486924 0.108860
O O1 0.696441 0.250000 0.945830
O O2 0.753173 0.337954 0.827044
O O3 0.665049 0.399378 0.889513
O O4 0.750000 0.387702 0.000000
O O5 0.500000 0.509171 0.725190
O O6 0.585199 0.588147 0.682089
O O7 0.582740 0.421601 0.662040
O O8 0.580433 0.481178 0.831060
O O9 0.589931 0.750000 0.636674
O O10 0.558377 0.633964 0.509363
O O11 0.652166 0.643634 0.546577
O O12 0.500000 0.838070 0.364063
O O13 0.415848 0.750000 0.378728
O O14 0.274473 0.750000 0.602970
O O15 0.250000 0.615404 0.500000
O O16 0.288842 0.593086 0.672894
O O17 0.250000 0.500000 0.809029
O O18 0.162932 0.433860 0.841117
O O19 0.882959 0.500000 0.000000
#
# Coordination Sequence:
#
# PCOD8280201 Si02
#       7
#    16  16  16  16  16  16  16
#     4  10  20  35  61  89 112 146 195 247 301 364
#     4  11  23  39  61  88 119 162 212 258 315 377
#     4  10  20  36  60  87 120 159 203 254 304 368
#     4   9  19  37  61  85 111 146 193 252 309 365
#     4  10  21  37  54  80 119 159 197 239 293 364
#     4  10  20  35  57  81 114 157 188 237 293 360
#     4  11  22  39  59  85 119 154 202 260 309 359
#
# _framework density 19.482796
#
# number of rings (size 3 to 8) (size 9 to 14) (size 15 to 20)
#    0.000    1.857    2.857    1.286    0.000    5.429 
#    2.571    2.143    0.000    0.000    0.000    2.000 
#    0.000    0.000    0.000    0.000    0.000    0.000 
#
# Total GULP energy -693893.614736 kJ/mol
# GULP energy per Si atom -12390.957406 kJ/mol
# Density = 1.943845 g / cm^3
# Si number density = 19.482796 Si / 1000 Ang^3
#
#
#
# Elastic Constant Matrix: (Units=GPa)
#
#
# Indices 1 2 3 4 5 6 
#
# 1 79.3802 35.9409 38.4852 0.0000 0.0000 0.0000
# 2 35.9409 94.9891 51.7967 0.0000 0.0000 0.0000
# 3 38.4852 51.7967 133.2302 0.0000 0.0000 0.0000
# 4 0.0000 0.0000 0.0000 24.6549 0.0000 0.0000
# 5 0.0000 0.0000 0.0000 0.0000 40.3244 0.0000
# 6 0.0000 0.0000 0.0000 0.0000 0.0000 17.7588
#
#
#
# Elastic Compliance Matrix: (Units=1/GPa)
#
#
# Indices 1 2 3 4 5 6 
#
# 1 0.016030 -0.004493 -0.002884 0.000000 0.000000 0.000000
# 2 -0.004493 0.014619 -0.004386 0.000000 0.000000 0.000000
# 3 -0.002884 -0.004386 0.010044 0.000000 0.000000 0.000000
# 4 0.000000 0.000000 0.000000 0.040560 0.000000 0.000000
# 5 0.000000 0.000000 0.000000 0.000000 0.024799 0.000000
# 6 0.000000 0.000000 0.000000 0.000000 0.000000 0.056310
#
#
# Mechanical properties :
#
#
# Convention : Reuss Voigt Hill
#
# Bulk Modulus (GPa) = 58.24693 62.22724 60.23708
# Shear Modulus (GPa) = 26.09484 28.63940 27.36712
#
# Velocity S-wave (km/s) = 3.66372 3.83820 3.75197
# Velocity P-wave (km/s) = 6.91799 7.18688 7.05372
#
# Compressibility (1/GPa) = 0.01716829
#
# Stress axis : x y z
#
# Youngs Moduli (GPa) = 62.38346 68.40448 99.56318
#
# Poissons Ratio (x) = 0.30732 0.28712
# Poissons Ratio (y) = 0.28027 0.43666
# Poissons Ratio (z) = 0.17990 0.30000
#
# Static dielectric constant tensor:
#      x y z
#    x 3.443900 0.000000 0.000000 
#    y 0.000000 3.630560 0.000000 
#    z 0.000000 0.000000 3.430550 
# 
# 
# High freq. dielectric constant tensor:
#      x y z
#    x 1.744090 0.000000 0.000000 
#    y 0.000000 1.758910 0.000000 
#    z 0.000000 0.000000 1.750550 
# 
# From -- ./inp_files/30129.got.cif
#   From: 2010.03.12/outbox.cif.g09.slc.cpg/sg67_16_cif.got.tgz:30129.got - 2010.04.10 22:41:39.
