data_PCOD8280757
_publ_section_title
;
Structure prediction by ZEFSAII (Michael W. Deem and Ramdas Pophale) SiO2 
 PCOD8280757
Probable space group: C M M A
;
_chemical_formula_sum "Si O2"
_cell_formula_units_Z 96
_cell_length_a 8.944711
_cell_length_b 29.855417
_cell_length_c 19.411367
_cell_angle_alpha 90.000000
_cell_angle_beta 90.000000
_cell_angle_gamma 90.000000
_cell_volume 5183.768226
_symmetry_space_group_name_H-M "C M M A"
_symmetry_group_IT_number 67
_symmetry_cell_setting 'orthorhombic'
loop_
_space_group_symop_operation_xyz
x,y,z
-x,1/2-y,z
x,-y,-z
-x,1/2+y,-z
-x,-y,-z
x,1/2+y,-z
-x,y,z
x,1/2-y,z
1/2+x,1/2+y,z
1/2-x,-y,z
1/2+x,1/2-y,-z
1/2-x,y,-z
1/2-x,1/2-y,-z
1/2+x,y,-z
1/2-x,1/2+y,z
1/2+x,-y,z
loop_
_atom_site_type_symbol
_atom_site_label
_atom_site_fract_x
_atom_site_fract_y
_atom_site_fract_z
Si Si1 0.669054 0.884173 0.788405
Si Si2 0.675690 0.798588 0.574596
Si Si3 0.673593 0.047550 0.692898
Si Si4 0.173936 0.384781 0.426885
Si Si5 0.830861 0.851966 0.068155
Si Si6 0.324491 0.300459 0.824149
O O1 0.500000 0.883184 0.759704
O O2 0.758095 0.925129 0.756243
O O3 0.671436 0.890272 0.871962
O O4 0.747159 0.835888 0.771201
O O5 0.500000 0.807096 0.567730
O O6 0.706837 0.750000 0.610687
O O7 0.750000 0.797898 0.500000
O O8 0.752689 0.841225 0.611778
O O9 0.500000 0.040938 0.708001
O O10 0.702962 0.072888 0.621408
O O11 0.750000 0.000000 0.686829
O O12 0.250000 0.395067 0.500000
O O13 0.000000 0.375500 0.438382
O O14 0.742904 0.808646 0.098930
O O15 0.000000 0.838076 0.050176
O O16 0.750000 0.870384 0.000000
O O17 0.500000 0.309551 0.825608
O O18 0.287452 0.250000 0.800200
#
# Coordination Sequence:
#
# PCOD8280757 Si02
#       6
#    16  16  16  16  16  16
#     4   9  20  36  55  79 108 143 184 226 270 323
#     4   9  16  27  47  75 106 141 176 209 249 301
#     4  11  24  41  62  83 105 137 179 224 279 338
#     4  10  21  36  56  84 113 143 177 220 271 324
#     4   9  18  30  50  79 112 151 190 229 274 321
#     4   9  17  30  50  77 112 152 190 229 272 320
#
# _framework density 18.519347
#
# number of rings (size 3 to 8) (size 9 to 14) (size 15 to 20)
#    1.000    1.500    0.000    3.500    0.000    5.667 
#    0.000    2.500    0.000    1.500    0.000    3.500 
#    0.000    0.000    0.000    0.000    0.000    0.000 
#
# Total GULP energy -594669.406280 kJ/mol
# GULP energy per Si atom -12388.945964 kJ/mol
# Density = 1.847720 g / cm^3
# Si number density = 18.519347 Si / 1000 Ang^3
#
#
#
# Elastic Constant Matrix: (Units=GPa)
#
#
# Indices 1 2 3 4 5 6 
#
# 1 159.7334 89.7880 47.0731 0.0000 0.0000 0.0000
# 2 89.7880 154.0202 49.5955 0.0000 0.0000 0.0000
# 3 47.0731 49.5955 48.3898 0.0000 0.0000 0.0000
# 4 0.0000 0.0000 0.0000 24.3338 0.0000 0.0000
# 5 0.0000 0.0000 0.0000 0.0000 25.2566 0.0000
# 6 0.0000 0.0000 0.0000 0.0000 0.0000 31.7380
#
#
#
# Elastic Compliance Matrix: (Units=1/GPa)
#
#
# Indices 1 2 3 4 5 6 
#
# 1 0.010286 -0.004141 -0.005762 0.000000 0.000000 0.000000
# 2 -0.004141 0.011358 -0.007613 0.000000 0.000000 0.000000
# 3 -0.005762 -0.007613 0.034073 0.000000 0.000000 0.000000
# 4 0.000000 0.000000 0.000000 0.041095 0.000000 0.000000
# 5 0.000000 0.000000 0.000000 0.000000 0.039594 0.000000
# 6 0.000000 0.000000 0.000000 0.000000 0.000000 0.031508
#
#
# Mechanical properties :
#
#
# Convention : Reuss Voigt Hill
#
# Bulk Modulus (GPa) = 48.34238 81.67294 65.00766
# Shear Modulus (GPa) = 23.82755 27.97815 25.90285
#
# Velocity S-wave (km/s) = 3.59085 3.89106 3.74397
# Velocity P-wave (km/s) = 6.58428 8.02398 7.33951
#
# Compressibility (1/GPa) = 0.02068578
#
# Stress axis : x y z
#
# Youngs Moduli (GPa) = 97.21716 88.04311 29.34860
#
# Poissons Ratio (x) = 0.36459 0.16911
# Poissons Ratio (y) = 0.40258 0.22342
# Poissons Ratio (z) = 0.56018 0.67024
#
# Static dielectric constant tensor:
#      x y z
#    x 3.593630 0.000000 0.000000 
#    y 0.000000 3.508720 0.000000 
#    z 0.000000 0.000000 3.116540 
# 
# 
# High freq. dielectric constant tensor:
#      x y z
#    x 1.741070 0.000000 0.000000 
#    y 0.000000 1.700620 0.000000 
#    z 0.000000 0.000000 1.692550 
# 
# From -- ./inp_files/40890.got.cif
#   From: 2010.03.12/outbox.cif.g09.slc.cpg/sg67_21_cif.got.tgz:40890.got - 2010.04.10 22:41:39.
