data_PCOD8280513
_publ_section_title
;
Structure prediction by ZEFSAII (Michael W. Deem and Ramdas Pophale) SiO2 
 PCOD8280513
Probable space group: C M M A
;
_chemical_formula_sum "Si O2"
_cell_formula_units_Z 88
_cell_length_a 14.996552
_cell_length_b 10.186078
_cell_length_c 30.223021
_cell_angle_alpha 90.000000
_cell_angle_beta 90.000000
_cell_angle_gamma 90.000000
_cell_volume 4616.749259
_symmetry_space_group_name_H-M "C M M A"
_symmetry_group_IT_number 67
_symmetry_cell_setting 'orthorhombic'
loop_
_space_group_symop_operation_xyz
x,y,z
-x,1/2-y,z
x,-y,-z
-x,1/2+y,-z
-x,-y,-z
x,1/2+y,-z
-x,y,z
x,1/2-y,z
1/2+x,1/2+y,z
1/2-x,-y,z
1/2+x,1/2-y,-z
1/2-x,y,-z
1/2-x,1/2-y,-z
1/2+x,y,-z
1/2-x,1/2+y,z
1/2+x,-y,z
loop_
_atom_site_type_symbol
_atom_site_label
_atom_site_fract_x
_atom_site_fract_y
_atom_site_fract_z
Si Si1 0.247250 0.250000 0.323088
Si Si2 0.602990 0.402832 0.199024
Si Si3 0.170136 0.901448 0.101036
Si Si4 0.000000 0.599599 0.040211
Si Si5 0.402595 0.750000 0.395614
Si Si6 0.098699 0.250000 0.607111
Si Si7 0.855351 0.500779 0.449918
Si Si8 0.750000 0.500000 0.737840
O O1 0.166557 0.250000 0.356536
O O2 0.338631 0.250000 0.350239
O O3 0.239031 0.375784 0.292890
O O4 0.500000 0.444715 0.203870
O O5 0.615548 0.250000 0.210517
O O6 0.636041 0.433496 0.149915
O O7 0.661592 0.489237 0.232305
O O8 0.202926 0.750000 0.097424
O O9 0.088010 0.927886 0.068637
O O10 0.250000 0.000000 0.088083
O O11 0.000000 0.750000 0.023137
O O12 0.000000 0.500000 0.000000
O O13 0.500000 0.750000 0.373572
O O14 0.393268 0.874336 0.426574
O O15 0.110829 0.373878 0.575962
O O16 0.000000 0.250000 0.627420
O O17 0.891365 0.500000 0.500000
O O18 0.750000 0.500000 0.448896
#
# Coordination Sequence:
#
# PCOD8280513 Si02
#       8
#     8  16  16   8   8   8  16   8
#     4  12  26  44  61  90 130 160 207 250 312 376
#     4  10  20  39  66  95 123 157 209 259 324 376
#     4  10  20  37  64  92 125 169 211 262 318 377
#     4  10  22  40  62  92 132 178 218 260 314 380
#     4  12  25  43  65  88 126 168 196 249 315 362
#     4  12  25  43  67  90 124 168 204 245 303 378
#     4  11  22  41  68  96 124 159 204 254 303 358
#     4  12  24  40  68  90 120 160 204 268 312 370
#
# _framework density 19.061031
#
# number of rings (size 3 to 8) (size 9 to 14) (size 15 to 20)
#    0.000    1.091    4.545    2.182    0.000    6.182 
#    0.000    1.818    0.000    0.000    0.000    0.000 
#    0.000    0.000    0.000    0.000    0.000    0.000 
#
# Total GULP energy -545724.815191 kJ/mol
# GULP energy per Si atom -12402.836709 kJ/mol
# Density = 1.901765 g / cm^3
# Si number density = 19.061031 Si / 1000 Ang^3
#
#
#
# Elastic Constant Matrix: (Units=GPa)
#
#
# Indices 1 2 3 4 5 6 
#
# 1 165.6873 69.7431 74.6530 0.0000 0.0000 0.0000
# 2 69.7431 156.9931 84.9840 0.0000 0.0000 0.0000
# 3 74.6530 84.9840 142.2114 0.0000 0.0000 0.0000
# 4 0.0000 0.0000 0.0000 44.9668 0.0000 0.0000
# 5 0.0000 0.0000 0.0000 0.0000 62.1143 0.0000
# 6 0.0000 0.0000 0.0000 0.0000 0.0000 32.2662
#
#
#
# Elastic Compliance Matrix: (Units=1/GPa)
#
#
# Indices 1 2 3 4 5 6 
#
# 1 0.008295 -0.001963 -0.003182 0.000000 0.000000 0.000000
# 2 -0.001963 0.009880 -0.004874 0.000000 0.000000 0.000000
# 3 -0.003182 -0.004874 0.011614 0.000000 0.000000 0.000000
# 4 0.000000 0.000000 0.000000 0.022239 0.000000 0.000000
# 5 0.000000 0.000000 0.000000 0.000000 0.016099 0.000000
# 6 0.000000 0.000000 0.000000 0.000000 0.000000 0.030992
#
#
# Mechanical properties :
#
#
# Convention : Reuss Voigt Hill
#
# Bulk Modulus (GPa) = 102.52969 102.62801 102.57885
# Shear Modulus (GPa) = 40.84727 43.57023 42.20875
#
# Velocity S-wave (km/s) = 4.63425 4.78622 4.71085
# Velocity P-wave (km/s) = 9.08526 9.19253 9.13905
#
# Compressibility (1/GPa) = 0.00975327
#
# Stress axis : x y z
#
# Youngs Moduli (GPa) = 120.55202 101.21467 86.09969
#
# Poissons Ratio (x) = 0.19867 0.27393
# Poissons Ratio (y) = 0.23662 0.41963
# Poissons Ratio (z) = 0.38354 0.49330
#
# Static dielectric constant tensor:
#      x y z
#    x 4.083300 0.000000 0.000000 
#    y 0.000000 3.533210 0.000000 
#    z 0.000000 0.000000 3.625970 
# 
# 
# High freq. dielectric constant tensor:
#      x y z
#    x 1.756380 0.000000 0.000000 
#    y 0.000000 1.747250 0.000000 
#    z 0.000000 0.000000 1.746530 
# 
# From -- ./inp_files/41878.got.cif
#   From: 2010.03.12/outbox.cif.g09.slc.cpg/sg67_21_cif.got.tgz:41878.got - 2010.04.10 22:41:39.
