data_PCOD8280919
_publ_section_title
;
Structure prediction by ZEFSAII (Michael W. Deem and Ramdas Pophale) SiO2 
 PCOD8280919
Probable space group: C M M A
;
_chemical_formula_sum "Si O2"
_cell_formula_units_Z 64
_cell_length_a 27.661687
_cell_length_b 8.419120
_cell_length_c 14.271252
_cell_angle_alpha 90.000000
_cell_angle_beta 90.000000
_cell_angle_gamma 90.000000
_cell_volume 3323.589953
_symmetry_space_group_name_H-M "C M M A"
_symmetry_group_IT_number 67
_symmetry_cell_setting 'orthorhombic'
loop_
_space_group_symop_operation_xyz
x,y,z
-x,1/2-y,z
x,-y,-z
-x,1/2+y,-z
-x,-y,-z
x,1/2+y,-z
-x,y,z
x,1/2-y,z
1/2+x,1/2+y,z
1/2-x,-y,z
1/2+x,1/2-y,-z
1/2-x,y,-z
1/2-x,1/2-y,-z
1/2+x,y,-z
1/2-x,1/2+y,z
1/2+x,-y,z
loop_
_atom_site_type_symbol
_atom_site_label
_atom_site_fract_x
_atom_site_fract_y
_atom_site_fract_z
Si Si1 0.801663 0.562598 0.604212
Si Si2 0.696768 0.438872 0.906971
Si Si3 0.445240 0.563093 0.100735
Si Si4 0.368399 0.433211 0.243560
O O1 0.808325 0.500000 0.500000
O O2 0.798811 0.750000 0.605493
O O3 0.750000 0.500000 0.645913
O O4 0.850648 0.509554 0.658715
O O5 0.691586 0.250000 0.892916
O O6 0.750000 0.500000 0.918318
O O7 0.677519 0.537182 0.820658
O O8 0.668426 0.500000 0.000000
O O9 0.500000 0.503743 0.117242
O O10 0.441466 0.750000 0.095714
O O11 0.414673 0.508942 0.191438
O O12 0.426155 0.500000 0.000000
O O13 0.379558 0.250000 0.260394
#
# Coordination Sequence:
#
# PCOD8280919 Si02
#       4
#    16  16  16  16
#     4  11  22  39  60  85 115 148 187 230 279 331
#     4  11  21  34  49  71 104 141 179 219 266 321
#     4  10  21  38  59  84 114 148 187 232 281 333
#     4  12  23  36  55  80 109 144 185 227 274 327
#
# _framework density 19.256285999999999
#
# number of rings (size 3 to 8) (size 9 to 14) (size 15 to 20)
#    0.000    1.000    0.000   10.500    0.000    1.500 
#    0.000    0.000    0.000    0.750    0.000    0.000 
#    0.000    0.000    0.000    0.000    0.000    0.000 
#
# Total GULP energy -396470.613449 kJ/mol
# GULP energy per Si atom -12389.706670 kJ/mol
# Density = 1.921246 g / cm^3
# Si number density = 19.256286 Si / 1000 Ang^3
#
#
#
# Elastic Constant Matrix: (Units=GPa)
#
#
# Indices 1 2 3 4 5 6 
#
# 1 111.8785 32.3753 51.2007 0.0000 0.0000 0.0000
# 2 32.3753 119.0713 30.3086 0.0000 0.0000 0.0000
# 3 51.2007 30.3086 96.6146 0.0000 0.0000 0.0000
# 4 0.0000 0.0000 0.0000 32.8445 0.0000 0.0000
# 5 0.0000 0.0000 0.0000 0.0000 36.6192 0.0000
# 6 0.0000 0.0000 0.0000 0.0000 0.0000 28.1329
#
#
#
# Elastic Compliance Matrix: (Units=1/GPa)
#
#
# Indices 1 2 3 4 5 6 
#
# 1 0.012148 -0.001809 -0.005871 0.000000 0.000000 0.000000
# 2 -0.001809 0.009396 -0.001989 0.000000 0.000000 0.000000
# 3 -0.005871 -0.001989 0.014086 0.000000 0.000000 0.000000
# 4 0.000000 0.000000 0.000000 0.030446 0.000000 0.000000
# 5 0.000000 0.000000 0.000000 0.000000 0.027308 0.000000
# 6 0.000000 0.000000 0.000000 0.000000 0.000000 0.035546
#
#
# Mechanical properties :
#
#
# Convention : Reuss Voigt Hill
#
# Bulk Modulus (GPa) = 61.37505 61.70374 61.53939
# Shear Modulus (GPa) = 32.53121 33.76464 33.14792
#
# Velocity S-wave (km/s) = 4.11467 4.19195 4.15349
# Velocity P-wave (km/s) = 7.38349 7.45271 7.41818
#
# Compressibility (1/GPa) = 0.01629327
#
# Stress axis : x y z
#
# Youngs Moduli (GPa) = 82.31584 106.42301 70.99497
#
# Poissons Ratio (x) = 0.19250 0.41678
# Poissons Ratio (y) = 0.14889 0.14122
# Poissons Ratio (z) = 0.48324 0.21169
#
# Static dielectric constant tensor:
#      x y z
#    x 3.680690 0.000000 0.000000 
#    y 0.000000 3.750430 0.000000 
#    z 0.000000 0.000000 3.717310 
# 
# 
# High freq. dielectric constant tensor:
#      x y z
#    x 1.739780 0.000000 0.000000 
#    y 0.000000 1.767960 0.000000 
#    z 0.000000 0.000000 1.745680 
# 
# From -- ./inp_files/30962.got.cif
#   From: 2010.03.12/outbox.cif.g09.slc.cpg/sg67_16_cif.got.tgz:30962.got - 2010.04.10 22:41:39.
