data_PCOD8280676
_publ_section_title
;
Structure prediction by ZEFSAII (Michael W. Deem and Ramdas Pophale) SiO2 
 PCOD8280676
Probable space group: C M M A
;
_chemical_formula_sum "Si O2"
_cell_formula_units_Z 112
_cell_length_a 17.908340
_cell_length_b 19.732855
_cell_length_c 16.278199
_cell_angle_alpha 90.000000
_cell_angle_beta 90.000000
_cell_angle_gamma 90.000000
_cell_volume 5752.433531
_symmetry_space_group_name_H-M "C M M A"
_symmetry_group_IT_number 67
_symmetry_cell_setting 'orthorhombic'
loop_
_space_group_symop_operation_xyz
x,y,z
-x,1/2-y,z
x,-y,-z
-x,1/2+y,-z
-x,-y,-z
x,1/2+y,-z
-x,y,z
x,1/2-y,z
1/2+x,1/2+y,z
1/2-x,-y,z
1/2+x,1/2-y,-z
1/2-x,y,-z
1/2-x,1/2-y,-z
1/2+x,y,-z
1/2-x,1/2+y,z
1/2+x,-y,z
loop_
_atom_site_type_symbol
_atom_site_label
_atom_site_fract_x
_atom_site_fract_y
_atom_site_fract_z
Si Si1 0.781708 0.125366 0.656379
Si Si2 0.184854 0.048149 0.817686
Si Si3 0.773466 0.826647 0.092505
Si Si4 0.084782 0.955090 0.727104
Si Si5 0.161723 0.936550 0.558144
Si Si6 0.340109 0.322712 0.765608
Si Si7 0.586169 0.327976 0.448571
O O1 0.789367 0.070844 0.727757
O O2 0.746561 0.089981 0.574914
O O3 0.721149 0.178546 0.691632
O O4 0.860723 0.158543 0.630742
O O5 0.169689 0.113798 0.876611
O O6 0.250000 0.000000 0.855171
O O7 0.110481 0.004512 0.801638
O O8 0.807620 0.750000 0.102169
O O9 0.699915 0.834562 0.147353
O O10 0.750000 0.841038 0.000000
O O11 0.129855 0.965786 0.643365
O O12 0.095683 0.877942 0.755917
O O13 0.000000 0.971257 0.708523
O O14 0.109468 0.876008 0.524141
O O15 0.162476 0.000000 0.500000
O O16 0.380302 0.250000 0.764762
O O17 0.500000 0.342697 0.423751
O O18 0.595814 0.250000 0.476414
#
# Coordination Sequence:
#
# PCOD8280676 Si02
#       7
#    16  16  16  16  16  16  16
#     4  10  21  35  57  78 104 143 191 235 284 337
#     4  11  19  37  57  86 116 146 183 231 273 327
#     4   9  18  34  61  93 119 146 184 227 270 319
#     4  11  23  37  54  80 112 148 190 234 287 342
#     4  11  23  38  57  78 103 141 189 242 291 340
#     4   9  18  35  57  83 111 143 188 235 275 333
#     4  11  25  39  51  76 112 147 189 239 294 348
#
# _framework density 19.470020999999999
#
# number of rings (size 3 to 8) (size 9 to 14) (size 15 to 20)
#    0.000    1.714    4.286    2.143    0.000    9.143 
#    0.000    0.000    0.000    2.143    0.000    2.000 
#    0.000    0.000    0.000    0.000    0.000    0.000 
#
# Total GULP energy -694078.457111 kJ/mol
# GULP energy per Si atom -12394.258163 kJ/mol
# Density = 1.942571 g / cm^3
# Si number density = 19.470021 Si / 1000 Ang^3
#
#
#
# Elastic Constant Matrix: (Units=GPa)
#
#
# Indices 1 2 3 4 5 6 
#
# 1 96.9231 41.3482 19.5696 0.0000 0.0000 0.0000
# 2 41.3482 143.5337 54.2348 0.0000 0.0000 0.0000
# 3 19.5696 54.2348 91.3298 0.0000 0.0000 0.0000
# 4 0.0000 0.0000 0.0000 22.4180 0.0000 0.0000
# 5 0.0000 0.0000 0.0000 0.0000 9.1769 0.0000
# 6 0.0000 0.0000 0.0000 0.0000 0.0000 19.7092
#
#
#
# Elastic Compliance Matrix: (Units=1/GPa)
#
#
# Indices 1 2 3 4 5 6 
#
# 1 0.011794 -0.003149 -0.000657 0.000000 0.000000 0.000000
# 2 -0.003149 0.009823 -0.005159 0.000000 0.000000 0.000000
# 3 -0.000657 -0.005159 0.014154 0.000000 0.000000 0.000000
# 4 0.000000 0.000000 0.000000 0.044607 0.000000 0.000000
# 5 0.000000 0.000000 0.000000 0.000000 0.108970 0.000000
# 6 0.000000 0.000000 0.000000 0.000000 0.000000 0.050738
#
#
# Mechanical properties :
#
#
# Convention : Reuss Voigt Hill
#
# Bulk Modulus (GPa) = 56.05122 62.45464 59.25293
# Shear Modulus (GPa) = 18.94214 24.70308 21.82261
#
# Velocity S-wave (km/s) = 3.12250 3.56585 3.35151
# Velocity P-wave (km/s) = 6.46923 7.00719 6.74358
#
# Compressibility (1/GPa) = 0.01784083
#
# Stress axis : x y z
#
# Youngs Moduli (GPa) = 84.79198 101.79744 70.65380
#
# Poissons Ratio (x) = 0.32058 0.04642
# Poissons Ratio (y) = 0.26702 0.36448
# Poissons Ratio (z) = 0.05571 0.52514
#
# Static dielectric constant tensor:
#      x y z
#    x 3.372930 0.000000 0.000000 
#    y 0.000000 4.009250 0.000000 
#    z 0.000000 0.000000 3.542720 
# 
# 
# High freq. dielectric constant tensor:
#      x y z
#    x 1.721550 0.000000 0.000000 
#    y 0.000000 1.782360 0.000000 
#    z 0.000000 0.000000 1.743950 
# 
# From -- ./inp_files/34466.got.cif
#   From: 2010.03.12/outbox.cif.g09.slc.cpg/sg67_18_cif.got.tgz:34466.got - 2010.04.10 22:41:39.
