data_PCOD8280311
_publ_section_title
;
Structure prediction by ZEFSAII (Michael W. Deem and Ramdas Pophale) SiO2 
 PCOD8280311
Probable space group: C M M A
;
_chemical_formula_sum "Si O2"
_cell_formula_units_Z 72
_cell_length_a 9.626030
_cell_length_b 14.134316
_cell_length_c 27.322375
_cell_angle_alpha 90.000000
_cell_angle_beta 90.000000
_cell_angle_gamma 90.000000
_cell_volume 3717.409934
_symmetry_space_group_name_H-M "C M M A"
_symmetry_group_IT_number 67
_symmetry_cell_setting 'orthorhombic'
loop_
_space_group_symop_operation_xyz
x,y,z
-x,1/2-y,z
x,-y,-z
-x,1/2+y,-z
-x,-y,-z
x,1/2+y,-z
-x,y,z
x,1/2-y,z
1/2+x,1/2+y,z
1/2-x,-y,z
1/2+x,1/2-y,-z
1/2-x,y,-z
1/2-x,1/2-y,-z
1/2+x,y,-z
1/2-x,1/2+y,z
1/2+x,-y,z
loop_
_atom_site_type_symbol
_atom_site_label
_atom_site_fract_x
_atom_site_fract_y
_atom_site_fract_z
Si Si1 0.667278 0.401674 0.628828
Si Si2 0.000000 0.612868 0.943151
Si Si3 0.155837 0.250000 0.452922
Si Si4 0.661835 0.750000 0.803502
Si Si5 0.167436 0.250000 0.688879
Si Si6 0.000000 0.889232 0.051852
Si Si7 0.254234 0.889121 0.880893
O O1 0.500000 0.413628 0.641208
O O2 0.750000 0.500000 0.623127
O O3 0.683570 0.344402 0.578416
O O4 0.751566 0.342898 0.669797
O O5 0.000000 0.501580 0.951098
O O6 0.124330 0.649197 0.910320
O O7 0.000000 0.657113 0.997693
O O8 0.250000 0.250000 0.500000
O O9 0.000000 0.250000 0.472653
O O10 0.500000 0.750000 0.814686
O O11 0.691287 0.750000 0.746432
O O12 0.731274 0.657538 0.827627
O O13 0.000000 0.250000 0.675762
O O14 0.871351 0.853386 0.082574
O O15 0.250000 0.000000 0.871027
#
# Coordination Sequence:
#
# PCOD8280311 Si02
#       7
#    16   8   8   8   8   8  16
#     4  10  21  40  63  92 125 163 212 263 307 360
#     4   9  18  31  53  85 106 139 183 220 269 335
#     4   9  20  36  57  90 136 177 214 254 299 350
#     4  11  23  41  60  81 113 148 182 229 296 359
#     4  10  22  40  62  85 113 157 204 256 315 368
#     4   9  16  33  57  75 110 147 175 216 277 335
#     4  10  20  36  56  80 110 143 179 226 276 342
#
# _framework density 19.368324000000001
#
# number of rings (size 3 to 8) (size 9 to 14) (size 15 to 20)
#    0.000    2.222    1.111    2.333    0.000    7.111 
#    4.000    5.556    0.000    0.000    0.000    0.000 
#    0.000    0.000    0.000    0.000    0.000    0.000 
#
# Total GULP energy -445996.176388 kJ/mol
# GULP energy per Si atom -12388.782677 kJ/mol
# Density = 1.932424 g / cm^3
# Si number density = 19.368324 Si / 1000 Ang^3
#
#
#
# Elastic Constant Matrix: (Units=GPa)
#
#
# Indices 1 2 3 4 5 6 
#
# 1 178.0301 58.8865 86.6389 0.0000 0.0000 0.0000
# 2 58.8865 129.3328 56.1099 0.0000 0.0000 0.0000
# 3 86.6389 56.1099 155.4732 0.0000 0.0000 0.0000
# 4 0.0000 0.0000 0.0000 20.9036 0.0000 0.0000
# 5 0.0000 0.0000 0.0000 0.0000 40.1309 0.0000
# 6 0.0000 0.0000 0.0000 0.0000 0.0000 16.2015
#
#
#
# Elastic Compliance Matrix: (Units=1/GPa)
#
#
# Indices 1 2 3 4 5 6 
#
# 1 0.008146 -0.002063 -0.003795 0.000000 0.000000 0.000000
# 2 -0.002063 0.009690 -0.002348 0.000000 0.000000 0.000000
# 3 -0.003795 -0.002348 0.009394 0.000000 0.000000 0.000000
# 4 0.000000 0.000000 0.000000 0.047839 0.000000 0.000000
# 5 0.000000 0.000000 0.000000 0.000000 0.024918 0.000000
# 6 0.000000 0.000000 0.000000 0.000000 0.000000 0.061723
#
#
# Mechanical properties :
#
#
# Convention : Reuss Voigt Hill
#
# Bulk Modulus (GPa) = 92.42754 96.23408 94.33081
# Shear Modulus (GPa) = 27.51389 32.86059 30.18724
#
# Velocity S-wave (km/s) = 3.77312 4.12347 3.95218
# Velocity P-wave (km/s) = 8.17352 8.51263 8.34480
#
# Compressibility (1/GPa) = 0.01081929
#
# Stress axis : x y z
#
# Youngs Moduli (GPa) = 122.75688 103.20391 106.44970
#
# Poissons Ratio (x) = 0.21286 0.40400
# Poissons Ratio (y) = 0.25319 0.24990
# Poissons Ratio (z) = 0.46588 0.24228
#
# Static dielectric constant tensor:
#      x y z
#    x 3.905440 0.000000 0.000000 
#    y 0.000000 3.454090 0.000000 
#    z 0.000000 0.000000 3.425560 
# 
# 
# High freq. dielectric constant tensor:
#      x y z
#    x 1.771760 0.000000 0.000000 
#    y 0.000000 1.760770 0.000000 
#    z 0.000000 0.000000 1.743990 
# 
# From -- ./inp_files/43175.got.cif
#   From: 2010.03.12/outbox.cif.g09.slc.cpg/sg67_22_cif.got.tgz:43175.got - 2010.04.10 22:41:39.
