data_PCOD8280219
_publ_section_title
;
Structure prediction by ZEFSAII (Michael W. Deem and Ramdas Pophale) SiO2 
 PCOD8280219
Probable space group: C M M A
;
_chemical_formula_sum "Si O2"
_cell_formula_units_Z 76
_cell_length_a 9.160603
_cell_length_b 24.425960
_cell_length_c 17.369885
_cell_angle_alpha 90.000000
_cell_angle_beta 90.000000
_cell_angle_gamma 90.000000
_cell_volume 3886.625063
_symmetry_space_group_name_H-M "C M M A"
_symmetry_group_IT_number 67
_symmetry_cell_setting 'orthorhombic'
loop_
_space_group_symop_operation_xyz
x,y,z
-x,1/2-y,z
x,-y,-z
-x,1/2+y,-z
-x,-y,-z
x,1/2+y,-z
-x,y,z
x,1/2-y,z
1/2+x,1/2+y,z
1/2-x,-y,z
1/2+x,1/2-y,-z
1/2-x,y,-z
1/2-x,1/2-y,-z
1/2+x,y,-z
1/2-x,1/2+y,z
1/2+x,-y,z
loop_
_atom_site_type_symbol
_atom_site_label
_atom_site_fract_x
_atom_site_fract_y
_atom_site_fract_z
Si Si1 0.669144 0.811285 0.136943
Si Si2 0.165315 0.168768 0.314370
Si Si3 0.663223 0.415022 0.119734
Si Si4 0.172842 0.750000 0.418500
Si Si5 0.750000 0.500000 0.000000
Si Si6 0.167499 0.449315 0.269662
O O1 0.500000 0.825386 0.122073
O O2 0.707304 0.750000 0.107133
O O3 0.703316 0.813705 0.227779
O O4 0.766762 0.856637 0.092875
O O5 0.278444 0.196196 0.372221
O O6 0.182681 0.103482 0.324018
O O7 0.000000 0.187081 0.334499
O O8 0.500000 0.403614 0.149841
O O9 0.652309 0.459249 0.051412
O O10 0.762933 0.439321 0.186553
O O11 0.250000 0.750000 0.500000
O O12 0.000000 0.750000 0.429173
O O13 0.250000 0.500000 0.310421
O O14 0.000000 0.464930 0.255416
#
# Coordination Sequence:
#
# PCOD8280219 Si02
#       6
#    16  16  16   8   4  16
#     4   9  18  36  60  83 111 144 180 228 287 338
#     4   9  18  35  56  81 115 152 184 225 279 330
#     4  11  23  36  55  80 108 145 189 236 283 340
#     4  12  24  36  56  86 120 157 192 229 272 330
#     4  12  26  40  54  74 114 156 188 234 294 344
#     4  10  20  35  57  84 114 146 186 234 284 331
#
# _framework density 19.55424
#
# number of rings (size 3 to 8) (size 9 to 14) (size 15 to 20)
#    0.000    1.895    2.105    3.789    0.000    7.158 
#    0.000    0.526    0.000    0.632    0.000    4.421 
#    0.000    0.000    0.000    0.000    0.000    0.000 
#
# Total GULP energy -471110.297244 kJ/mol
# GULP energy per Si atom -12397.639401 kJ/mol
# Density = 1.950973 g / cm^3
# Si number density = 19.554240 Si / 1000 Ang^3
#
#
#
# Elastic Constant Matrix: (Units=GPa)
#
#
# Indices 1 2 3 4 5 6 
#
# 1 150.9157 73.8954 39.0855 0.0000 0.0000 0.0000
# 2 73.8954 162.3365 34.9435 0.0000 0.0000 0.0000
# 3 39.0855 34.9435 54.6954 0.0000 0.0000 0.0000
# 4 0.0000 0.0000 0.0000 16.3294 0.0000 0.0000
# 5 0.0000 0.0000 0.0000 0.0000 19.0535 0.0000
# 6 0.0000 0.0000 0.0000 0.0000 0.0000 28.4572
#
#
#
# Elastic Compliance Matrix: (Units=1/GPa)
#
#
# Indices 1 2 3 4 5 6 
#
# 1 0.009444 -0.003300 -0.004640 0.000000 0.000000 0.000000
# 2 -0.003300 0.008295 -0.002942 0.000000 0.000000 0.000000
# 3 -0.004640 -0.002942 0.023478 0.000000 0.000000 0.000000
# 4 0.000000 0.000000 0.000000 0.061239 0.000000 0.000000
# 5 0.000000 0.000000 0.000000 0.000000 0.052484 0.000000
# 6 0.000000 0.000000 0.000000 0.000000 0.000000 0.035140
#
#
# Mechanical properties :
#
#
# Convention : Reuss Voigt Hill
#
# Bulk Modulus (GPa) = 51.40363 73.75517 62.57940
# Shear Modulus (GPa) = 22.90118 27.43623 25.16871
#
# Velocity S-wave (km/s) = 3.42594 3.74984 3.59154
# Velocity P-wave (km/s) = 6.48029 7.51988 7.01936
#
# Compressibility (1/GPa) = 0.01945388
#
# Stress axis : x y z
#
# Youngs Moduli (GPa) = 105.88924 120.54932 42.59245
#
# Poissons Ratio (x) = 0.39781 0.19764
# Poissons Ratio (y) = 0.34943 0.12529
# Poissons Ratio (z) = 0.49136 0.35460
#
# Static dielectric constant tensor:
#      x y z
#    x 3.552570 0.000000 0.000000 
#    y 0.000000 4.245030 0.000000 
#    z 0.000000 0.000000 3.079980 
# 
# 
# High freq. dielectric constant tensor:
#      x y z
#    x 1.763530 0.000000 0.000000 
#    y 0.000000 1.786270 0.000000 
#    z 0.000000 0.000000 1.705350 
# 
# From -- ./inp_files/32150.got.cif
#   From: 2010.03.12/outbox.cif.g09.slc.cpg/sg67_17_cif.got.tgz:32150.got - 2010.04.10 22:41:39.
