data_PCOD8280300
_publ_section_title
;
Structure prediction by ZEFSAII (Michael W. Deem and Ramdas Pophale) SiO2 
 PCOD8280300
Probable space group: C M M A
;
_chemical_formula_sum "Si O2"
_cell_formula_units_Z 80
_cell_length_a 26.440973
_cell_length_b 15.235082
_cell_length_c 9.178320
_cell_angle_alpha 90.000000
_cell_angle_beta 90.000000
_cell_angle_gamma 90.000000
_cell_volume 3697.306242
_symmetry_space_group_name_H-M "C M M A"
_symmetry_group_IT_number 67
_symmetry_cell_setting 'orthorhombic'
loop_
_space_group_symop_operation_xyz
x,y,z
-x,1/2-y,z
x,-y,-z
-x,1/2+y,-z
-x,-y,-z
x,1/2+y,-z
-x,y,z
x,1/2-y,z
1/2+x,1/2+y,z
1/2-x,-y,z
1/2+x,1/2-y,-z
1/2-x,y,-z
1/2-x,1/2-y,-z
1/2+x,y,-z
1/2-x,1/2+y,z
1/2+x,-y,z
loop_
_atom_site_type_symbol
_atom_site_label
_atom_site_fract_x
_atom_site_fract_y
_atom_site_fract_z
Si Si1 0.500000 0.646145 0.901635
Si Si2 0.705860 0.149432 0.593097
Si Si3 0.203409 0.646230 0.911568
Si Si4 0.407489 0.353367 0.894262
Si Si5 0.097577 0.595932 0.566809
Si Si6 0.000000 0.096619 0.573526
O O1 0.500000 0.750000 0.870661
O O2 0.500000 0.594322 0.749146
O O3 0.450921 0.617111 0.994145
O O4 0.720918 0.250000 0.611536
O O5 0.750000 0.102209 0.500000
O O6 0.705864 0.104365 0.750895
O O7 0.650016 0.143070 0.523601
O O8 0.211031 0.750000 0.906933
O O9 0.146815 0.624890 0.971407
O O10 0.250000 0.602846 0.000000
O O11 0.411086 0.250000 0.857309
O O12 0.412678 0.404441 0.740832
O O13 0.101817 0.500000 0.500000
O O14 0.050667 0.645021 0.485750
O O15 0.000000 0.000000 0.500000
#
# Coordination Sequence:
#
# PCOD8280300 Si02
#       6
#     8  16  16  16  16   8
#     4  10  21  36  60  89 109 137 188 242 286 336
#     4   9  18  32  52  79 110 144 182 231 289 338
#     4   8  14  26  46  72 102 134 167 209 268 332
#     4   9  18  34  55  81 112 142 179 235 292 333
#     4  10  20  36  55  78 110 154 197 228 276 343
#     4  10  23  40  54  79 115 151 188 230 287 344
#
# _framework density 21.637374000000001
#
# number of rings (size 3 to 8) (size 9 to 14) (size 15 to 20)
#    0.000    2.800    0.000    2.400    0.000    3.600 
#    0.000   12.000    0.000    0.000    0.000    1.400 
#    0.000    0.000    0.000    0.000    0.000    3.200 
#
# Total GULP energy -495535.680415 kJ/mol
# GULP energy per Si atom -12388.392010 kJ/mol
# Density = 2.158813 g / cm^3
# Si number density = 21.637374 Si / 1000 Ang^3
#
#
#
# Elastic Constant Matrix: (Units=GPa)
#
#
# Indices 1 2 3 4 5 6 
#
# 1 251.8388 3.0948 111.8460 0.0000 0.0000 0.0000
# 2 3.0948 28.3487 28.0957 0.0000 0.0000 0.0000
# 3 111.8460 28.0957 143.5966 0.0000 0.0000 0.0000
# 4 0.0000 0.0000 0.0000 28.0063 0.0000 0.0000
# 5 0.0000 0.0000 0.0000 0.0000 47.1885 0.0000
# 6 0.0000 0.0000 0.0000 0.0000 0.0000 10.9232
#
#
#
# Elastic Compliance Matrix: (Units=1/GPa)
#
#
# Indices 1 2 3 4 5 6 
#
# 1 0.006699 0.005508 -0.006296 0.000000 0.000000 0.000000
# 2 0.005508 0.048289 -0.013738 0.000000 0.000000 0.000000
# 3 -0.006296 -0.013738 0.014555 0.000000 0.000000 0.000000
# 4 0.000000 0.000000 0.000000 0.035706 0.000000 0.000000
# 5 0.000000 0.000000 0.000000 0.000000 0.021192 0.000000
# 6 0.000000 0.000000 0.000000 0.000000 0.000000 0.091549
#
#
# Mechanical properties :
#
#
# Convention : Reuss Voigt Hill
#
# Bulk Modulus (GPa) = 24.69603 78.87300 51.78452
# Shear Modulus (GPa) = 19.19095 35.94010 27.56552
#
# Velocity S-wave (km/s) = 2.98138 4.07998 3.57315
# Velocity P-wave (km/s) = 4.82596 7.66331 6.40376
#
# Compressibility (1/GPa) = 0.04049233
#
# Stress axis : x y z
#
# Youngs Moduli (GPa) = 149.27478 20.70846 68.70272
#
# Poissons Ratio (x) = -0.11406 0.43252
# Poissons Ratio (y) = -0.82221 0.94386
# Poissons Ratio (z) = 0.93976 0.28450
#
# Static dielectric constant tensor:
#      x y z
#    x 4.989660 0.000000 0.000000 
#    y 0.000000 3.312150 0.000000 
#    z 0.000000 0.000000 4.014270 
# 
# 
# High freq. dielectric constant tensor:
#      x y z
#    x 1.880990 0.000000 0.000000 
#    y 0.000000 1.802730 0.000000 
#    z 0.000000 0.000000 1.837330 
# 
# From -- ./inp_files/13555.got.cif
#   From: 2010.03.12/outbox.cif.g09.slc.cpg/sg67_7_cif.got.tgz:13555.got - 2010.04.10 22:41:39.
