data_PCOD8280455
_publ_section_title
;
Structure prediction by ZEFSAII (Michael W. Deem and Ramdas Pophale) SiO2 
 PCOD8280455
Probable space group: C M M A
;
_chemical_formula_sum "Si O2"
_cell_formula_units_Z 72
_cell_length_a 8.981925
_cell_length_b 20.614045
_cell_length_c 19.785426
_cell_angle_alpha 90.000000
_cell_angle_beta 90.000000
_cell_angle_gamma 90.000000
_cell_volume 3663.346930
_symmetry_space_group_name_H-M "C M M A"
_symmetry_group_IT_number 67
_symmetry_cell_setting 'orthorhombic'
loop_
_space_group_symop_operation_xyz
x,y,z
-x,1/2-y,z
x,-y,-z
-x,1/2+y,-z
-x,-y,-z
x,1/2+y,-z
-x,y,z
x,1/2-y,z
1/2+x,1/2+y,z
1/2-x,-y,z
1/2+x,1/2-y,-z
1/2-x,y,-z
1/2-x,1/2-y,-z
1/2+x,y,-z
1/2-x,1/2+y,z
1/2+x,-y,z
loop_
_atom_site_type_symbol
_atom_site_label
_atom_site_fract_x
_atom_site_fract_y
_atom_site_fract_z
Si Si1 0.167402 0.250000 0.568627
Si Si2 0.823770 0.675128 0.213250
Si Si3 0.675537 0.109299 0.426492
Si Si4 0.837619 0.173602 0.937179
Si Si5 0.822860 0.436106 0.298194
O O1 0.250000 0.250000 0.500000
O O2 0.200444 0.317976 0.606233
O O3 0.000000 0.250000 0.544404
O O4 0.790407 0.750000 0.232668
O O5 0.767545 0.660430 0.136663
O O6 0.729661 0.628504 0.260700
O O7 0.000000 0.661756 0.220765
O O8 0.500000 0.091996 0.430683
O O9 0.750000 0.102184 0.500000
O O10 0.761492 0.062980 0.375077
O O11 0.850474 0.250000 0.948327
O O12 0.000000 0.141623 0.939147
O O13 0.750000 0.141618 0.000000
O O14 0.750000 0.500000 0.263276
O O15 0.000000 0.440793 0.297235
#
# Coordination Sequence:
#
# PCOD8280455 Si02
#       5
#     8  16  16  16  16
#     4   8  16  30  52  80 110 140 169 210 269 326
#     4   9  19  37  60  86 118 155 192 232 282 338
#     4  10  20  37  59  85 113 146 185 231 285 340
#     4   8  14  26  48  80 116 151 185 225 274 326
#     4  12  26  42  59  82 112 151 194 239 290 343
#
# _framework density 19.654157999999999
#
# number of rings (size 3 to 8) (size 9 to 14) (size 15 to 20)
#    0.000    2.444    0.000    4.000    1.556    2.667 
#    0.000    4.444    0.000    0.667    0.000    4.667 
#    0.000    0.000    0.000    0.000    0.000    0.000 
#
# Total GULP energy -445977.721794 kJ/mol
# GULP energy per Si atom -12388.270050 kJ/mol
# Density = 1.960942 g / cm^3
# Si number density = 19.654158 Si / 1000 Ang^3
#
#
#
# Elastic Constant Matrix: (Units=GPa)
#
#
# Indices 1 2 3 4 5 6 
#
# 1 126.3596 53.2227 59.1273 0.0000 0.0000 0.0000
# 2 53.2227 84.3189 43.6180 0.0000 0.0000 0.0000
# 3 59.1273 43.6180 99.9230 0.0000 0.0000 0.0000
# 4 0.0000 0.0000 0.0000 8.6359 0.0000 0.0000
# 5 0.0000 0.0000 0.0000 0.0000 36.2117 0.0000
# 6 0.0000 0.0000 0.0000 0.0000 0.0000 24.7601
#
#
#
# Elastic Compliance Matrix: (Units=1/GPa)
#
#
# Indices 1 2 3 4 5 6 
#
# 1 0.012522 -0.005258 -0.005114 0.000000 0.000000 0.000000
# 2 -0.005258 0.017527 -0.004539 0.000000 0.000000 0.000000
# 3 -0.005114 -0.004539 0.015015 0.000000 0.000000 0.000000
# 4 0.000000 0.000000 0.000000 0.115796 0.000000 0.000000
# 5 0.000000 0.000000 0.000000 0.000000 0.027615 0.000000
# 6 0.000000 0.000000 0.000000 0.000000 0.000000 0.040388
#
#
# Mechanical properties :
#
#
# Convention : Reuss Voigt Hill
#
# Bulk Modulus (GPa) = 65.61428 69.17085 67.39256
# Shear Modulus (GPa) = 18.95614 24.23044 21.59329
#
# Velocity S-wave (km/s) = 3.10898 3.51499 3.31820
# Velocity P-wave (km/s) = 6.80769 7.19333 7.00316
#
# Compressibility (1/GPa) = 0.01524059
#
# Stress axis : x y z
#
# Youngs Moduli (GPa) = 79.86081 57.05483 66.59829
#
# Poissons Ratio (x) = 0.30001 0.34059
# Poissons Ratio (y) = 0.41993 0.30231
# Poissons Ratio (z) = 0.40842 0.25899
#
# Static dielectric constant tensor:
#      x y z
#    x 3.674290 0.000000 0.000000 
#    y 0.000000 3.682400 0.000000 
#    z 0.000000 0.000000 3.590210 
# 
# 
# High freq. dielectric constant tensor:
#      x y z
#    x 1.762360 0.000000 0.000000 
#    y 0.000000 1.746330 0.000000 
#    z 0.000000 0.000000 1.761630 
# 
# From -- ./inp_files/36769.got.cif
#   From: 2010.03.12/outbox.cif.g09.slc.cpg/sg67_19_cif.got.tgz:36769.got - 2010.04.10 22:41:39.
