data_PCOD8280050
_publ_section_title
;
Structure prediction by ZEFSAII (Michael W. Deem and Ramdas Pophale) SiO2 
 PCOD8280050
Probable space group: C M M A
;
_chemical_formula_sum "Si O2"
_cell_formula_units_Z 68
_cell_length_a 17.255433
_cell_length_b 22.364971
_cell_length_c 8.708171
_cell_angle_alpha 90.000000
_cell_angle_beta 90.000000
_cell_angle_gamma 90.000000
_cell_volume 3360.633480
_symmetry_space_group_name_H-M "C M M A"
_symmetry_group_IT_number 67
_symmetry_cell_setting 'orthorhombic'
loop_
_space_group_symop_operation_xyz
x,y,z
-x,1/2-y,z
x,-y,-z
-x,1/2+y,-z
-x,-y,-z
x,1/2+y,-z
-x,y,z
x,1/2-y,z
1/2+x,1/2+y,z
1/2-x,-y,z
1/2+x,1/2-y,-z
1/2-x,y,-z
1/2-x,1/2-y,-z
1/2+x,y,-z
1/2-x,1/2+y,z
1/2+x,-y,z
loop_
_atom_site_type_symbol
_atom_site_label
_atom_site_fract_x
_atom_site_fract_y
_atom_site_fract_z
Si Si1 0.750000 0.500000 0.000000
Si Si2 0.911348 0.505140 0.666407
Si Si3 0.770957 0.179510 0.671780
Si Si4 0.653570 0.398909 0.854282
Si Si5 0.590629 0.884814 0.819665
O O1 0.702641 0.457645 0.887935
O O2 0.868992 0.500000 0.500000
O O3 0.905145 0.573235 0.728932
O O4 0.882095 0.452842 0.782446
O O5 0.000000 0.489408 0.641464
O O6 0.765908 0.250000 0.687826
O O7 0.750000 0.158434 0.500000
O O8 0.707971 0.152850 0.788891
O O9 0.857933 0.159119 0.714725
O O10 0.608214 0.373027 0.000888
O O11 0.500000 0.871821 0.787689
#
# Coordination Sequence:
#
# PCOD8280050 Si02
#       5
#     4  16  16  16  16
#     4  12  20  32  58  92 120 152 192 242 292 368
#     4  10  20  34  57  91 127 160 194 242 307 369
#     4  11  25  44  64  86 117 164 215 255 295 352
#     4  12  20  37  61  89 125 158 201 248 300 361
#     4  11  22  38  61  92 124 157 198 253 311 362
#
# _framework density 20.234282
#
# number of rings (size 3 to 8) (size 9 to 14) (size 15 to 20)
#    0.000    0.941    4.706    2.118    0.000    4.235 
#    0.000    3.529    0.000    4.941    0.000    0.000 
#    0.000    0.000    0.000    0.000    0.000    0.000 
#
# Total GULP energy -421479.033463 kJ/mol
# GULP energy per Si atom -12396.442161 kJ/mol
# Density = 2.018823 g / cm^3
# Si number density = 20.234282 Si / 1000 Ang^3
#
#
#
# Elastic Constant Matrix: (Units=GPa)
#
#
# Indices 1 2 3 4 5 6 
#
# 1 87.7357 43.8557 58.1933 0.0000 0.0000 0.0000
# 2 43.8557 87.1857 43.8806 0.0000 0.0000 0.0000
# 3 58.1933 43.8806 139.7547 0.0000 0.0000 0.0000
# 4 0.0000 0.0000 0.0000 33.7735 0.0000 0.0000
# 5 0.0000 0.0000 0.0000 0.0000 29.2951 0.0000
# 6 0.0000 0.0000 0.0000 0.0000 0.0000 19.6890
#
#
#
# Elastic Compliance Matrix: (Units=1/GPa)
#
#
# Indices 1 2 3 4 5 6 
#
# 1 0.018319 -0.006385 -0.005623 0.000000 0.000000 0.000000
# 2 -0.006385 0.015848 -0.002317 0.000000 0.000000 0.000000
# 3 -0.005623 -0.002317 0.010225 0.000000 0.000000 0.000000
# 4 0.000000 0.000000 0.000000 0.029609 0.000000 0.000000
# 5 0.000000 0.000000 0.000000 0.000000 0.034135 0.000000
# 6 0.000000 0.000000 0.000000 0.000000 0.000000 0.050790
#
#
# Mechanical properties :
#
#
# Convention : Reuss Voigt Hill
#
# Bulk Modulus (GPa) = 63.52954 67.39283 65.46119
# Shear Modulus (GPa) = 25.93050 27.80129 26.86589
#
# Velocity S-wave (km/s) = 3.58371 3.71073 3.64777
# Velocity P-wave (km/s) = 6.97059 7.19291 7.08262
#
# Compressibility (1/GPa) = 0.01574071
#
# Stress axis : x y z
#
# Youngs Moduli (GPa) = 54.58777 63.10087 97.80365
#
# Poissons Ratio (x) = 0.40287 0.54999
# Poissons Ratio (y) = 0.34852 0.22665
# Poissons Ratio (z) = 0.30697 0.14623
#
# Static dielectric constant tensor:
#      x y z
#    x 3.716990 0.000000 0.000000 
#    y 0.000000 3.515080 0.000000 
#    z 0.000000 0.000000 4.005540 
# 
# 
# High freq. dielectric constant tensor:
#      x y z
#    x 1.788820 0.000000 0.000000 
#    y 0.000000 1.769680 0.000000 
#    z 0.000000 0.000000 1.806250 
# 
# From -- ./inp_files/9472.got.cif
#   From: 2010.03.12/outbox.cif.g09.slc.cpg/sg67_5_cif.got.tgz:9472.got - 2010.04.10 22:41:39.
