data_PCOD8280325
_publ_section_title
;
Structure prediction by ZEFSAII (Michael W. Deem and Ramdas Pophale) SiO2 
 PCOD8280325
Probable space group: C M M A
;
_chemical_formula_sum "Si O2"
_cell_formula_units_Z 100
_cell_length_a 19.225791
_cell_length_b 15.403052
_cell_length_c 17.371197
_cell_angle_alpha 90.000000
_cell_angle_beta 90.000000
_cell_angle_gamma 90.000000
_cell_volume 5144.234337
_symmetry_space_group_name_H-M "C M M A"
_symmetry_group_IT_number 67
_symmetry_cell_setting 'orthorhombic'
loop_
_space_group_symop_operation_xyz
x,y,z
-x,1/2-y,z
x,-y,-z
-x,1/2+y,-z
-x,-y,-z
x,1/2+y,-z
-x,y,z
x,1/2-y,z
1/2+x,1/2+y,z
1/2-x,-y,z
1/2+x,1/2-y,-z
1/2-x,y,-z
1/2-x,1/2-y,-z
1/2+x,y,-z
1/2-x,1/2+y,z
1/2+x,-y,z
loop_
_atom_site_type_symbol
_atom_site_label
_atom_site_fract_x
_atom_site_fract_y
_atom_site_fract_z
Si Si1 0.582448 0.250000 0.553314
Si Si2 0.924050 0.649423 0.289014
Si Si3 0.919048 0.250000 0.274617
Si Si4 0.329325 0.652203 0.997857
Si Si5 0.920856 0.622219 0.855626
Si Si6 0.750000 0.000000 0.500000
Si Si7 0.839153 0.848325 0.434472
Si Si8 0.420996 0.077902 0.132238
O O1 0.500000 0.250000 0.552739
O O2 0.615175 0.250000 0.639982
O O3 0.608815 0.163804 0.507446
O O4 0.934453 0.750000 0.300977
O O5 0.877047 0.616799 0.358334
O O6 0.890998 0.630957 0.205090
O O7 0.000000 0.603157 0.292257
O O8 0.897679 0.334524 0.225050
O O9 0.000000 0.250000 0.291001
O O10 0.329472 0.750000 0.965153
O O11 0.372729 0.590946 0.941377
O O12 0.250000 0.617276 0.000000
O O13 0.365822 0.651765 0.080586
O O14 0.917965 0.520887 0.842637
O O15 0.000000 0.651524 0.878150
O O16 0.790876 0.931347 0.447220
O O17 0.803939 0.750000 0.421888
O O18 0.500000 0.106567 0.111059
#
# Coordination Sequence:
#
# PCOD8280325 Si02
#       8
#     8  16   8  16  16   4  16  16
#     4   9  18  37  63  91 117 150 196 252 311 356
#     4   9  17  35  61  88 118 147 184 246 310 351
#     4   9  18  34  58  83 111 147 186 232 291 351
#     4  11  23  38  56  79 113 154 196 237 287 348
#     4  10  20  36  57  81 112 150 192 239 292 346
#     4  12  22  40  58  86 120 172 216 230 292 370
#     4   9  21  37  62  85 120 160 198 249 294 359
#     4  10  21  35  58  89 116 146 193 243 295 359
#
# _framework density 19.439239000000001
#
# number of rings (size 3 to 8) (size 9 to 14) (size 15 to 20)
#    0.480    1.760    0.800    2.160    0.000    5.440 
#    0.000    6.400    0.000    0.000    0.000    0.000 
#    0.000    0.000    0.000    0.000    0.000    0.000 
#
# Total GULP energy -619457.867795 kJ/mol
# GULP energy per Si atom -12389.157356 kJ/mol
# Density = 1.939499 g / cm^3
# Si number density = 19.439239 Si / 1000 Ang^3
#
#
#
# Elastic Constant Matrix: (Units=GPa)
#
#
# Indices 1 2 3 4 5 6 
#
# 1 91.9105 31.3666 55.4534 0.0000 0.0000 0.0000
# 2 31.3666 67.0952 16.9190 0.0000 0.0000 0.0000
# 3 55.4534 16.9190 134.3732 0.0000 0.0000 0.0000
# 4 0.0000 0.0000 0.0000 7.3569 0.0000 0.0000
# 5 0.0000 0.0000 0.0000 0.0000 -0.7658 0.0000
# 6 0.0000 0.0000 0.0000 0.0000 0.0000 18.0128
#
#
#
# Elastic Compliance Matrix: (Units=1/GPa)
#
#
# Indices 1 2 3 4 5 6 
#
# 1 0.016702 -0.006269 -0.006103 0.000000 0.000000 0.000000
# 2 -0.006269 0.017746 0.000353 0.000000 0.000000 0.000000
# 3 -0.006103 0.000353 0.009916 0.000000 0.000000 0.000000
# 4 0.000000 0.000000 0.000000 0.135927 0.000000 0.000000
# 5 0.000000 0.000000 0.000000 0.000000 -1.305844 0.000000
# 6 0.000000 0.000000 0.000000 0.000000 0.000000 0.055516
#
#
# Mechanical properties :
#
#
# Convention : Reuss Voigt Hill
#
# Bulk Modulus (GPa) = 49.20042 55.65077 52.42559
# Shear Modulus (GPa) = -4.81129 17.56343 6.37607
#
# Velocity S-wave (km/s) = -1.57493 3.00910 1.81304
# Velocity P-wave (km/s) = 4.69655 6.38460 5.60449
#
# Compressibility (1/GPa) = 0.02032503
#
# Stress axis : x y z
#
# Youngs Moduli (GPa) = 59.87325 56.35073 100.84451
#
# Poissons Ratio (x) = 0.35327 0.61548
# Poissons Ratio (y) = 0.37535 -0.03557
# Poissons Ratio (z) = 0.36542 -0.01988
#
# Static dielectric constant tensor:
#      x y z
#    x 3.653690 0.000000 0.000000 
#    y 0.000000 3.502960 0.000000 
#    z 0.000000 0.000000 3.658760 
# 
# 
# High freq. dielectric constant tensor:
#      x y z
#    x 1.734860 0.000000 0.000000 
#    y 0.000000 1.752900 0.000000 
#    z 0.000000 0.000000 1.762180 
# 
# From -- ./inp_files/35032.got.cif
#   From: 2010.03.12/outbox.cif.g09.slc.cpg/sg67_18_cif.got.tgz:35032.got - 2010.04.10 22:41:39.
