data_PCOD8280869
_publ_section_title
;
Structure prediction by ZEFSAII (Michael W. Deem and Ramdas Pophale) SiO2 
 PCOD8280869
Probable space group: C M M A
;
_chemical_formula_sum "Si O2"
_cell_formula_units_Z 80
_cell_length_a 26.466451
_cell_length_b 9.403625
_cell_length_c 17.040954
_cell_angle_alpha 90.000000
_cell_angle_beta 90.000000
_cell_angle_gamma 90.000000
_cell_volume 4241.162520
_symmetry_space_group_name_H-M "C M M A"
_symmetry_group_IT_number 67
_symmetry_cell_setting 'orthorhombic'
loop_
_space_group_symop_operation_xyz
x,y,z
-x,1/2-y,z
x,-y,-z
-x,1/2+y,-z
-x,-y,-z
x,1/2+y,-z
-x,y,z
x,1/2-y,z
1/2+x,1/2+y,z
1/2-x,-y,z
1/2+x,1/2-y,-z
1/2-x,y,-z
1/2-x,1/2-y,-z
1/2+x,y,-z
1/2-x,1/2+y,z
1/2+x,-y,z
loop_
_atom_site_type_symbol
_atom_site_label
_atom_site_fract_x
_atom_site_fract_y
_atom_site_fract_z
Si Si1 0.057858 0.250000 0.078326
Si Si2 0.200418 0.419850 0.273439
Si Si3 0.559985 0.750000 0.893173
Si Si4 0.398762 0.517114 0.185413
Si Si5 0.656064 0.582416 0.578826
Si Si6 0.943884 0.412342 0.663367
O O1 0.082702 0.383444 0.117314
O O2 0.000000 0.250000 0.100654
O O3 0.065722 0.250000 0.985976
O O4 0.208132 0.250000 0.287704
O O5 0.250000 0.500000 0.241439
O O6 0.158660 0.445766 0.206797
O O7 0.186053 0.501747 0.353140
O O8 0.500000 0.750000 0.869302
O O9 0.593709 0.629499 0.856420
O O10 0.431645 0.520584 0.265659
O O11 0.670571 0.500000 0.500000
O O12 0.671468 0.750000 0.574812
O O13 0.595915 0.566608 0.593146
O O14 0.940153 0.250000 0.695286
O O15 0.000000 0.445450 0.630986
#
# Coordination Sequence:
#
# PCOD8280869 Si02
#       6
#     8  16   8  16  16  16
#     4  11  22  36  57  93 130 161 197 243 295 349
#     4  11  24  42  66  90 114 152 204 254 307 357
#     4  11  22  36  61  91 126 169 201 233 291 361
#     4  11  21  37  59  88 124 159 203 251 295 351
#     4  10  21  37  59  87 124 157 195 246 297 354
#     4   9  17  31  54  81 113 161 206 237 281 344
#
# _framework density 18.862752
#
# number of rings (size 3 to 8) (size 9 to 14) (size 15 to 20)
#    0.000    1.600    2.000    3.600    2.800    2.400 
#    0.000    2.000    0.000    3.600    0.000    0.000 
#    0.000    0.000    0.000    0.000    0.000    0.000 
#
# Total GULP energy -495652.197139 kJ/mol
# GULP energy per Si atom -12391.304928 kJ/mol
# Density = 1.881982 g / cm^3
# Si number density = 18.862752 Si / 1000 Ang^3
#
#
#
# Elastic Constant Matrix: (Units=GPa)
#
#
# Indices 1 2 3 4 5 6 
#
# 1 104.4442 43.4955 34.2551 0.0000 0.0000 0.0000
# 2 43.4955 145.9946 40.8074 0.0000 0.0000 0.0000
# 3 34.2551 40.8074 77.0020 0.0000 0.0000 0.0000
# 4 0.0000 0.0000 0.0000 71.8511 0.0000 0.0000
# 5 0.0000 0.0000 0.0000 0.0000 -47.8954 0.0000
# 6 0.0000 0.0000 0.0000 0.0000 0.0000 25.5199
#
#
#
# Elastic Compliance Matrix: (Units=1/GPa)
#
#
# Indices 1 2 3 4 5 6 
#
# 1 0.011899 -0.002425 -0.004008 0.000000 0.000000 0.000000
# 2 -0.002425 0.008535 -0.003444 0.000000 0.000000 0.000000
# 3 -0.004008 -0.003444 0.016595 0.000000 0.000000 0.000000
# 4 0.000000 0.000000 0.000000 0.013918 0.000000 0.000000
# 5 0.000000 0.000000 0.000000 0.000000 -0.020879 0.000000
# 6 0.000000 0.000000 0.000000 0.000000 0.000000 0.039185
#
#
# Mechanical properties :
#
#
# Convention : Reuss Voigt Hill
#
# Bulk Modulus (GPa) = 57.89044 62.72854 60.30949
# Shear Modulus (GPa) = 52.76186 23.82064 38.29125
#
# Velocity S-wave (km/s) = 5.29454 3.55750 4.51043
# Velocity P-wave (km/s) = 8.25428 7.08533 7.69204
#
# Compressibility (1/GPa) = 0.01727401
#
# Stress axis : x y z
#
# Youngs Moduli (GPa) = 84.04166 117.16934 60.25830
#
# Poissons Ratio (x) = 0.28408 0.24154
# Poissons Ratio (y) = 0.20376 0.20755
# Poissons Ratio (z) = 0.33687 0.40358
#
# Static dielectric constant tensor:
#      x y z
#    x 3.601700 0.000000 0.000000 
#    y 0.000000 3.526760 0.000000 
#    z 0.000000 0.000000 3.390650 
# 
# 
# High freq. dielectric constant tensor:
#      x y z
#    x 1.731100 0.000000 0.000000 
#    y 0.000000 1.744890 0.000000 
#    z 0.000000 0.000000 1.724250 
# 
# From -- ./inp_files/32164.got.cif
#   From: 2010.03.12/outbox.cif.g09.slc.cpg/sg67_17_cif.got.tgz:32164.got - 2010.04.10 22:41:39.
