data_PCOD8280009
_publ_section_title
;
Structure prediction by ZEFSAII (Michael W. Deem and Ramdas Pophale) SiO2 
 PCOD8280009
Probable space group: C M M A
;
_chemical_formula_sum "Si O2"
_cell_formula_units_Z 52
_cell_length_a 13.319438
_cell_length_b 14.440542
_cell_length_c 12.825908
_cell_angle_alpha 90.000000
_cell_angle_beta 90.000000
_cell_angle_gamma 90.000000
_cell_volume 2466.933912
_symmetry_space_group_name_H-M "C M M A"
_symmetry_group_IT_number 67
_symmetry_cell_setting 'orthorhombic'
loop_
_space_group_symop_operation_xyz
x,y,z
-x,1/2-y,z
x,-y,-z
-x,1/2+y,-z
-x,-y,-z
x,1/2+y,-z
-x,y,z
x,1/2-y,z
1/2+x,1/2+y,z
1/2-x,-y,z
1/2+x,1/2-y,-z
1/2-x,y,-z
1/2-x,1/2-y,-z
1/2+x,y,-z
1/2-x,1/2+y,z
1/2+x,-y,z
loop_
_atom_site_type_symbol
_atom_site_label
_atom_site_fract_x
_atom_site_fract_y
_atom_site_fract_z
Si Si1 0.250000 0.000000 0.000000
Si Si2 0.117198 0.853805 0.873885
Si Si3 0.783507 0.097639 0.332376
Si Si4 0.389829 0.146313 0.470202
O O1 0.178738 0.932316 0.934121
O O2 0.131390 0.750000 0.922169
O O3 0.156848 0.846843 0.755404
O O4 0.000000 0.881542 0.874778
O O5 0.681975 0.148466 0.369396
O O6 0.852743 0.081100 0.434938
O O7 0.750000 0.000000 0.284529
O O8 0.500000 0.114080 0.433628
O O9 0.391594 0.250000 0.516810
#
# Coordination Sequence:
#
# PCOD8280009 Si02
#       4
#     4  16  16  16
#     4  12  24  48  68 102 124 156 208 280 320 378
#     4  11  24  44  70  96 127 168 209 257 322 385
#     4  11  21  36  57  87 125 165 210 256 303 371
#     4  10  20  34  55  85 123 167 212 256 303 362
#
# _framework density 21.078797000000002
#
# number of rings (size 3 to 8) (size 9 to 14) (size 15 to 20)
#    0.000    1.231    1.538    7.385    0.000    6.154 
#    0.000    0.000    0.000    5.538    0.000    0.000 
#    0.000    0.000    0.000    0.000    0.000    0.000 
#
# Total GULP energy -322260.862475 kJ/mol
# GULP energy per Si atom -12394.648557 kJ/mol
# Density = 2.103082 g / cm^3
# Si number density = 21.078797 Si / 1000 Ang^3
#
#
#
# Elastic Constant Matrix: (Units=GPa)
#
#
# Indices 1 2 3 4 5 6 
#
# 1 208.6856 51.8445 71.2264 0.0000 0.0000 0.0000
# 2 51.8445 103.8384 37.1709 0.0000 0.0000 0.0000
# 3 71.2264 37.1709 96.9682 0.0000 0.0000 0.0000
# 4 0.0000 0.0000 0.0000 31.5072 0.0000 0.0000
# 5 0.0000 0.0000 0.0000 0.0000 24.2470 0.0000
# 6 0.0000 0.0000 0.0000 0.0000 0.0000 38.6108
#
#
#
# Elastic Compliance Matrix: (Units=1/GPa)
#
#
# Indices 1 2 3 4 5 6 
#
# 1 0.006682 -0.001831 -0.004207 0.000000 0.000000 0.000000
# 2 -0.001831 0.011663 -0.003126 0.000000 0.000000 0.000000
# 3 -0.004207 -0.003126 0.014601 0.000000 0.000000 0.000000
# 4 0.000000 0.000000 0.000000 0.031739 0.000000 0.000000
# 5 0.000000 0.000000 0.000000 0.000000 0.041242 0.000000
# 6 0.000000 0.000000 0.000000 0.000000 0.000000 0.025899
#
#
# Mechanical properties :
#
#
# Convention : Reuss Voigt Hill
#
# Bulk Modulus (GPa) = 68.40116 81.10845 74.75480
# Shear Modulus (GPa) = 32.25219 35.48969 33.87094
#
# Velocity S-wave (km/s) = 3.91586 4.10770 4.01293
# Velocity P-wave (km/s) = 7.27777 7.81408 7.55069
#
# Compressibility (1/GPa) = 0.01461964
#
# Stress axis : x y z
#
# Youngs Moduli (GPa) = 149.64478 85.73802 68.48776
#
# Poissons Ratio (x) = 0.15695 0.28812
# Poissons Ratio (y) = 0.27393 0.21412
# Poissons Ratio (z) = 0.62953 0.26805
#
# Static dielectric constant tensor:
#      x y z
#    x 4.018610 0.000000 0.000000 
#    y 0.000000 3.904770 0.000000 
#    z 0.000000 0.000000 3.411330 
# 
# 
# High freq. dielectric constant tensor:
#      x y z
#    x 1.841010 0.000000 0.000000 
#    y 0.000000 1.841620 0.000000 
#    z 0.000000 0.000000 1.791240 
# 
# From -- ./inp_files/17223.got.cif
#   From: 2010.03.12/outbox.cif.g09.slc.cpg/sg67_9_cif.got.tgz:17223.got - 2010.04.10 22:41:39.
