data_PCOD8280160
_publ_section_title
;
Structure prediction by ZEFSAII (Michael W. Deem and Ramdas Pophale) SiO2 
 PCOD8280160
Probable space group: C M M A
;
_chemical_formula_sum "Si O2"
_cell_formula_units_Z 80
_cell_length_a 26.085693
_cell_length_b 15.839331
_cell_length_c 9.230470
_cell_angle_alpha 90.000000
_cell_angle_beta 90.000000
_cell_angle_gamma 90.000000
_cell_volume 3813.844910
_symmetry_space_group_name_H-M "C M M A"
_symmetry_group_IT_number 67
_symmetry_cell_setting 'orthorhombic'
loop_
_space_group_symop_operation_xyz
x,y,z
-x,1/2-y,z
x,-y,-z
-x,1/2+y,-z
-x,-y,-z
x,1/2+y,-z
-x,y,z
x,1/2-y,z
1/2+x,1/2+y,z
1/2-x,-y,z
1/2+x,1/2-y,-z
1/2-x,y,-z
1/2-x,1/2-y,-z
1/2+x,y,-z
1/2-x,1/2+y,z
1/2+x,-y,z
loop_
_atom_site_type_symbol
_atom_site_label
_atom_site_fract_x
_atom_site_fract_y
_atom_site_fract_z
Si Si1 0.794448 0.653830 0.402286
Si Si2 0.000000 0.587622 0.575638
Si Si3 0.300162 0.649500 0.918035
Si Si4 0.000000 0.085328 0.088909
Si Si5 0.110236 0.094360 0.437297
Si Si6 0.608313 0.151533 0.880004
O O1 0.777713 0.750000 0.377642
O O2 0.750000 0.609191 0.500000
O O3 0.799270 0.610518 0.244431
O O4 0.848608 0.652079 0.483508
O O5 0.000000 0.500000 0.500000
O O6 0.000000 0.563852 0.743177
O O7 0.053131 0.634759 0.533204
O O8 0.300444 0.750000 0.911552
O O9 0.250000 0.615375 0.000000
O O10 0.351133 0.618811 0.000938
O O11 0.948549 0.138284 0.053532
O O12 0.000000 0.000000 0.000000
O O13 0.119087 0.096605 0.264355
O O14 0.115058 0.000000 0.500000
O O15 0.616111 0.250000 0.842347
#
# Coordination Sequence:
#
# PCOD8280160 Si02
#       6
#    16   8  16   8  16  16
#     4  10  20  35  56  80 108 146 192 242 296 352
#     4   8  18  35  52  75 106 144 179 218 277 341
#     4   9  18  33  54  80 108 142 187 238 291 345
#     4  10  21  35  56  83 113 150 191 234 284 337
#     4  10  20  35  56  81 111 146 187 236 291 351
#     4  10  20  36  58  84 116 154 197 241 289 353
#
# _framework density 20.976206999999999
#
# number of rings (size 3 to 8) (size 9 to 14) (size 15 to 20)
#    0.000    2.400    0.000    2.100    0.000    8.400 
#    0.000    1.500    0.000    6.600    0.000    1.400 
#    0.000    0.000    0.000    0.000    0.000    0.000 
#
# Total GULP energy -495719.114055 kJ/mol
# GULP energy per Si atom -12392.977851 kJ/mol
# Density = 2.092846 g / cm^3
# Si number density = 20.976207 Si / 1000 Ang^3
#
#
#
# Elastic Constant Matrix: (Units=GPa)
#
#
# Indices 1 2 3 4 5 6 
#
# 1 205.3913 9.7311 107.8881 0.0000 0.0000 0.0000
# 2 9.7311 39.4673 21.8944 0.0000 0.0000 0.0000
# 3 107.8881 21.8944 148.9475 0.0000 0.0000 0.0000
# 4 0.0000 0.0000 0.0000 29.5032 0.0000 0.0000
# 5 0.0000 0.0000 0.0000 0.0000 40.7948 0.0000
# 6 0.0000 0.0000 0.0000 0.0000 0.0000 13.9049
#
#
#
# Elastic Compliance Matrix: (Units=1/GPa)
#
#
# Indices 1 2 3 4 5 6 
#
# 1 0.007923 0.001339 -0.005936 0.000000 0.000000 0.000000
# 2 0.001339 0.027813 -0.005059 0.000000 0.000000 0.000000
# 3 -0.005936 -0.005059 0.011757 0.000000 0.000000 0.000000
# 4 0.000000 0.000000 0.000000 0.033895 0.000000 0.000000
# 5 0.000000 0.000000 0.000000 0.000000 0.024513 0.000000
# 6 0.000000 0.000000 0.000000 0.000000 0.000000 0.071917
#
#
# Mechanical properties :
#
#
# Convention : Reuss Voigt Hill
#
# Bulk Modulus (GPa) = 35.48191 74.75927 55.12059
# Shear Modulus (GPa) = 24.21027 33.79340 29.00184
#
# Velocity S-wave (km/s) = 3.40101 4.01812 3.72238
# Velocity P-wave (km/s) = 5.68986 7.56601 6.69399
#
# Compressibility (1/GPa) = 0.02818337
#
# Stress axis : x y z
#
# Youngs Moduli (GPa) = 126.20811 35.95387 85.05497
#
# Poissons Ratio (x) = -0.04816 0.50490
# Poissons Ratio (y) = -0.16905 0.43026
# Poissons Ratio (z) = 0.74919 0.18188
#
# Static dielectric constant tensor:
#      x y z
#    x 4.505790 0.000000 0.000000 
#    y 0.000000 3.203140 0.000000 
#    z 0.000000 0.000000 4.012170 
# 
# 
# High freq. dielectric constant tensor:
#      x y z
#    x 1.846080 0.000000 0.000000 
#    y 0.000000 1.775120 0.000000 
#    z 0.000000 0.000000 1.826180 
# 
# From -- ./inp_files/13568.got.cif
#   From: 2010.03.12/outbox.cif.g09.slc.cpg/sg67_7_cif.got.tgz:13568.got - 2010.04.10 22:41:39.
