data_PCOD8280179
_publ_section_title
;
Structure prediction by ZEFSAII (Michael W. Deem and Ramdas Pophale) SiO2 
 PCOD8280179
Probable space group: C M M A
;
_chemical_formula_sum "Si O2"
_cell_formula_units_Z 104
_cell_length_a 8.907886
_cell_length_b 18.991371
_cell_length_c 29.778390
_cell_angle_alpha 90.000000
_cell_angle_beta 90.000000
_cell_angle_gamma 90.000000
_cell_volume 5037.698614
_symmetry_space_group_name_H-M "C M M A"
_symmetry_group_IT_number 67
_symmetry_cell_setting 'orthorhombic'
loop_
_space_group_symop_operation_xyz
x,y,z
-x,1/2-y,z
x,-y,-z
-x,1/2+y,-z
-x,-y,-z
x,1/2+y,-z
-x,y,z
x,1/2-y,z
1/2+x,1/2+y,z
1/2-x,-y,z
1/2+x,1/2-y,-z
1/2-x,y,-z
1/2-x,1/2-y,-z
1/2+x,y,-z
1/2-x,1/2+y,z
1/2+x,-y,z
loop_
_atom_site_type_symbol
_atom_site_label
_atom_site_fract_x
_atom_site_fract_y
_atom_site_fract_z
Si Si1 0.822374 0.671264 0.211371
Si Si2 0.826075 0.168079 0.370052
Si Si3 0.167763 0.250000 0.045472
Si Si4 0.823471 0.066291 0.862701
Si Si5 0.175269 0.927940 0.546851
Si Si6 0.321881 0.922806 0.706013
Si Si7 0.675733 0.098617 0.951125
O O1 0.751629 0.750000 0.214733
O O2 0.776253 0.637409 0.163390
O O3 0.762442 0.620517 0.250698
O O4 0.000000 0.677067 0.215269
O O5 0.777168 0.250000 0.369708
O O6 0.797418 0.136475 0.419330
O O7 0.724142 0.123477 0.336536
O O8 0.000000 0.159988 0.356211
O O9 0.203654 0.322893 0.070019
O O10 0.000000 0.250000 0.028750
O O11 0.250000 0.250000 0.000000
O O12 0.761124 0.056050 0.913241
O O13 0.000000 0.057533 0.863816
O O14 0.750000 0.000000 0.836138
O O15 0.250000 0.905755 0.500000
O O16 0.000000 0.942541 0.539586
O O17 0.250000 0.000000 0.565509
O O18 0.500000 0.932271 0.706703
O O19 0.250000 0.000000 0.704555
O O20 0.500000 0.079322 0.954445
O O21 0.750000 0.085953 0.000000
#
# Coordination Sequence:
#
# PCOD8280179 Si02
#       7
#    16  16   8  16  16  16  16
#     4   9  20  39  62  89 118 149 189 237 288 343
#     4  10  22  39  58  85 122 159 199 250 305 358
#     4   8  16  30  50  76 108 140 172 218 266 316
#     4  11  23  39  60  84 115 153 190 232 283 338
#     4  10  20  35  56  81 113 155 202 253 305 359
#     4  11  22  38  63  91 121 157 198 242 292 351
#     4  10  20  36  57  84 116 149 189 232 280 334
#
# _framework density 20.644348000000001
#
# number of rings (size 3 to 8) (size 9 to 14) (size 15 to 20)
#    0.000    2.000    0.000    3.692    1.077    4.615 
#    0.000    3.846    0.000    3.692    0.000    0.000 
#    0.000    0.000    0.000    0.000    0.000    0.000 
#
# Total GULP energy -644306.464874 kJ/mol
# GULP energy per Si atom -12390.508940 kJ/mol
# Density = 2.059736 g / cm^3
# Si number density = 20.644348 Si / 1000 Ang^3
#
#
#
# Elastic Constant Matrix: (Units=GPa)
#
#
# Indices 1 2 3 4 5 6 
#
# 1 91.5387 54.1583 47.6457 0.0000 0.0000 0.0000
# 2 54.1583 177.8223 67.1023 0.0000 0.0000 0.0000
# 3 47.6457 67.1023 119.3448 0.0000 0.0000 0.0000
# 4 0.0000 0.0000 0.0000 17.4236 0.0000 0.0000
# 5 0.0000 0.0000 0.0000 0.0000 21.1276 0.0000
# 6 0.0000 0.0000 0.0000 0.0000 0.0000 24.2829
#
#
#
# Elastic Compliance Matrix: (Units=1/GPa)
#
#
# Indices 1 2 3 4 5 6 
#
# 1 0.014888 -0.002908 -0.004308 0.000000 0.000000 0.000000
# 2 -0.002908 0.007706 -0.003172 0.000000 0.000000 0.000000
# 3 -0.004308 -0.003172 0.011882 0.000000 0.000000 0.000000
# 4 0.000000 0.000000 0.000000 0.057393 0.000000 0.000000
# 5 0.000000 0.000000 0.000000 0.000000 0.047332 0.000000
# 6 0.000000 0.000000 0.000000 0.000000 0.000000 0.041181
#
#
# Mechanical properties :
#
#
# Convention : Reuss Voigt Hill
#
# Bulk Modulus (GPa) = 72.99635 80.72427 76.86031
# Shear Modulus (GPa) = 24.30422 27.22012 25.76217
#
# Velocity S-wave (km/s) = 3.43488 3.63509 3.53640
# Velocity P-wave (km/s) = 7.15311 7.53696 7.34754
#
# Compressibility (1/GPa) = 0.01369932
#
# Stress axis : x y z
#
# Youngs Moduli (GPa) = 67.17022 129.76398 84.15822
#
# Poissons Ratio (x) = 0.37742 0.36257
# Poissons Ratio (y) = 0.19536 0.26693
# Poissons Ratio (z) = 0.28938 0.41158
#
# Static dielectric constant tensor:
#      x y z
#    x 3.661010 0.000000 0.000000 
#    y 0.000000 4.487650 0.000000 
#    z 0.000000 0.000000 3.679700 
# 
# 
# High freq. dielectric constant tensor:
#      x y z
#    x 1.797670 0.000000 0.000000 
#    y 0.000000 1.832360 0.000000 
#    z 0.000000 0.000000 1.801930 
# 
# From -- ./inp_files/43568.got.cif
#   From: 2010.03.12/outbox.cif.g09.slc.cpg/sg67_22_cif.got.tgz:43568.got - 2010.04.10 22:41:39.
