data_PCOD8280481
_publ_section_title
;
Structure prediction by ZEFSAII (Michael W. Deem and Ramdas Pophale) SiO2 
 PCOD8280481
Probable space group: C M M A
;
_chemical_formula_sum "Si O2"
_cell_formula_units_Z 72
_cell_length_a 8.562585
_cell_length_b 15.439308
_cell_length_c 28.108559
_cell_angle_alpha 90.000000
_cell_angle_beta 90.000000
_cell_angle_gamma 90.000000
_cell_volume 3715.962380
_symmetry_space_group_name_H-M "C M M A"
_symmetry_group_IT_number 67
_symmetry_cell_setting 'orthorhombic'
loop_
_space_group_symop_operation_xyz
x,y,z
-x,1/2-y,z
x,-y,-z
-x,1/2+y,-z
-x,-y,-z
x,1/2+y,-z
-x,y,z
x,1/2-y,z
1/2+x,1/2+y,z
1/2-x,-y,z
1/2+x,1/2-y,-z
1/2-x,y,-z
1/2-x,1/2-y,-z
1/2+x,y,-z
1/2-x,1/2+y,z
1/2+x,-y,z
loop_
_atom_site_type_symbol
_atom_site_label
_atom_site_fract_x
_atom_site_fract_y
_atom_site_fract_z
Si Si1 0.314580 0.750000 0.720141
Si Si2 0.184109 0.750000 0.947482
Si Si3 0.314452 0.250000 0.388760
Si Si4 0.684408 0.409518 0.219635
Si Si5 0.314373 0.906957 0.448296
Si Si6 0.184896 0.091742 0.888817
O O1 0.500000 0.750000 0.723931
O O2 0.260175 0.750000 0.665813
O O3 0.246687 0.834422 0.746735
O O4 0.241793 0.834850 0.920889
O O5 0.000000 0.750000 0.949480
O O6 0.250000 0.750000 0.000000
O O7 0.500000 0.250000 0.394899
O O8 0.243189 0.164266 0.411524
O O9 0.500000 0.412844 0.222660
O O10 0.750000 0.500000 0.238901
O O11 0.738454 0.392058 0.165559
O O12 0.500000 0.909786 0.450205
O O13 0.250000 0.881960 0.500000
O O14 0.250000 0.000000 0.431653
O O15 0.000000 0.093681 0.894018
O O16 0.250000 0.000000 0.906960
#
# Coordination Sequence:
#
# PCOD8280481 Si02
#       6
#     8   8   8  16  16  16
#     4   9  19  35  55  79 112 152 187 222 272 329
#     4  12  25  40  58  83 115 150 189 230 281 337
#     4  11  22  37  56  82 117 154 189 228 277 332
#     4   9  18  35  58  83 110 144 185 229 275 325
#     4  11  22  39  61  85 111 143 186 233 282 334
#     4  10  20  37  61  87 115 147 187 233 281 331
#
# _framework density 19.375869000000002
#
# number of rings (size 3 to 8) (size 9 to 14) (size 15 to 20)
#    0.000    1.778    0.000    5.667    0.000    4.000 
#    0.000    7.222    0.000    0.000    0.000    0.000 
#    0.000    0.000    0.000    0.000    0.000    0.000 
#
# Total GULP energy -446519.795823 kJ/mol
# GULP energy per Si atom -12403.327662 kJ/mol
# Density = 1.933177 g / cm^3
# Si number density = 19.375869 Si / 1000 Ang^3
#
#
#
# Elastic Constant Matrix: (Units=GPa)
#
#
# Indices 1 2 3 4 5 6 
#
# 1 107.8618 58.5037 52.7809 0.0000 0.0000 0.0000
# 2 58.5037 203.1417 120.0863 0.0000 0.0000 0.0000
# 3 52.7809 120.0863 141.3444 0.0000 0.0000 0.0000
# 4 0.0000 0.0000 0.0000 30.4028 0.0000 0.0000
# 5 0.0000 0.0000 0.0000 0.0000 23.0400 0.0000
# 6 0.0000 0.0000 0.0000 0.0000 0.0000 38.1693
#
#
#
# Elastic Compliance Matrix: (Units=1/GPa)
#
#
# Indices 1 2 3 4 5 6 
#
# 1 0.011587 -0.001565 -0.002997 0.000000 0.000000 0.000000
# 2 -0.001565 0.010101 -0.007997 0.000000 0.000000 0.000000
# 3 -0.002997 -0.007997 0.014989 0.000000 0.000000 0.000000
# 4 0.000000 0.000000 0.000000 0.032892 0.000000 0.000000
# 5 0.000000 0.000000 0.000000 0.000000 0.043403 0.000000
# 6 0.000000 0.000000 0.000000 0.000000 0.000000 0.026199
#
#
# Mechanical properties :
#
#
# Convention : Reuss Voigt Hill
#
# Bulk Modulus (GPa) = 86.52549 101.67661 94.10105
# Shear Modulus (GPa) = 29.73693 33.05422 31.39557
#
# Velocity S-wave (km/s) = 3.92183 4.13479 4.02972
# Velocity P-wave (km/s) = 8.07842 8.68246 8.38588
#
# Compressibility (1/GPa) = 0.01155729
#
# Stress axis : x y z
#
# Youngs Moduli (GPa) = 86.30671 98.99925 66.71777
#
# Poissons Ratio (x) = 0.15497 0.19993
# Poissons Ratio (y) = 0.13510 0.53357
# Poissons Ratio (z) = 0.25864 0.79173
#
# Static dielectric constant tensor:
#      x y z
#    x 3.537580 0.000000 0.000000 
#    y 0.000000 3.789330 0.000000 
#    z 0.000000 0.000000 3.641940 
# 
# 
# High freq. dielectric constant tensor:
#      x y z
#    x 1.754960 0.000000 0.000000 
#    y 0.000000 1.773240 0.000000 
#    z 0.000000 0.000000 1.751540 
# 
# From -- ./inp_files/43124.got.cif
#   From: 2010.03.12/outbox.cif.g09.slc.cpg/sg67_22_cif.got.tgz:43124.got - 2010.04.10 22:41:39.
