data_PCOD8280125
_publ_section_title
;
Structure prediction by ZEFSAII (Michael W. Deem and Ramdas Pophale) SiO2 
 PCOD8280125
Probable space group: C M M A
;
_chemical_formula_sum "Si O2"
_cell_formula_units_Z 96
_cell_length_a 16.639357
_cell_length_b 23.495362
_cell_length_c 12.320765
_cell_angle_alpha 90.000000
_cell_angle_beta 90.000000
_cell_angle_gamma 90.000000
_cell_volume 4816.774938
_symmetry_space_group_name_H-M "C M M A"
_symmetry_group_IT_number 67
_symmetry_cell_setting 'orthorhombic'
loop_
_space_group_symop_operation_xyz
x,y,z
-x,1/2-y,z
x,-y,-z
-x,1/2+y,-z
-x,-y,-z
x,1/2+y,-z
-x,y,z
x,1/2-y,z
1/2+x,1/2+y,z
1/2-x,-y,z
1/2+x,1/2-y,-z
1/2-x,y,-z
1/2-x,1/2-y,-z
1/2+x,y,-z
1/2-x,1/2+y,z
1/2+x,-y,z
loop_
_atom_site_type_symbol
_atom_site_label
_atom_site_fract_x
_atom_site_fract_y
_atom_site_fract_z
Si Si1 0.697260 0.686226 0.237052
Si Si2 0.594806 0.864040 0.406489
Si Si3 0.855912 0.315259 0.628373
Si Si4 0.250654 0.916895 0.877529
Si Si5 0.911752 0.417599 0.759284
Si Si6 0.669529 0.023369 0.675704
O O1 0.694167 0.750000 0.192829
O O2 0.613422 0.669503 0.294648
O O3 0.765379 0.675978 0.328803
O O4 0.714729 0.646886 0.132700
O O5 0.500000 0.866198 0.426445
O O6 0.639583 0.829855 0.501562
O O7 0.630443 0.927594 0.396882
O O8 0.884194 0.250000 0.647836
O O9 0.913467 0.359432 0.689992
O O10 0.344951 0.915192 0.851300
O O11 0.197964 0.956050 0.796684
O O12 0.250000 0.939593 0.000000
O O13 0.894715 0.472455 0.683434
O O14 0.000000 0.424562 0.811971
O O15 0.750000 0.000000 0.616375
#
# Coordination Sequence:
#
# PCOD8280125 Si02
#       6
#    16  16  16  16  16  16
#     4   9  19  35  54  77 107 144 181 216 258 314
#     4  11  21  33  53  82 113 142 176 219 265 312
#     4  10  21  37  56  77 105 144 184 216 253 310
#     4   9  19  37  57  77 103 137 178 221 266 320
#     4  10  20  35  55  79 105 133 173 223 268 309
#     4   9  20  37  54  75 107 143 177 215 263 323
#
# _framework density 19.930347000000001
#
# number of rings (size 3 to 8) (size 9 to 14) (size 15 to 20)
#    0.000    2.333    0.000    3.000    0.000    7.667 
#    0.000   10.833    0.000    0.000    0.000    0.000 
#    0.000    0.000    0.000    0.000    0.000    0.000 
#
# Total GULP energy -594949.898198 kJ/mol
# GULP energy per Si atom -12394.789546 kJ/mol
# Density = 1.988499 g / cm^3
# Si number density = 19.930347 Si / 1000 Ang^3
#
#
#
# Elastic Constant Matrix: (Units=GPa)
#
#
# Indices 1 2 3 4 5 6 
#
# 1 76.4976 26.6429 18.2962 0.0000 0.0000 0.0000
# 2 26.6429 143.2752 17.2033 0.0000 0.0000 0.0000
# 3 18.2962 17.2033 59.4157 0.0000 0.0000 0.0000
# 4 0.0000 0.0000 0.0000 12.6341 0.0000 0.0000
# 5 0.0000 0.0000 0.0000 0.0000 12.0287 0.0000
# 6 0.0000 0.0000 0.0000 0.0000 0.0000 17.4610
#
#
#
# Elastic Compliance Matrix: (Units=1/GPa)
#
#
# Indices 1 2 3 4 5 6 
#
# 1 0.014800 -0.002284 -0.003896 0.000000 0.000000 0.000000
# 2 -0.002284 0.007584 -0.001492 0.000000 0.000000 0.000000
# 3 -0.003896 -0.001492 0.018462 0.000000 0.000000 0.000000
# 4 0.000000 0.000000 0.000000 0.079151 0.000000 0.000000
# 5 0.000000 0.000000 0.000000 0.000000 0.083134 0.000000
# 6 0.000000 0.000000 0.000000 0.000000 0.000000 0.057271
#
#
# Mechanical properties :
#
#
# Convention : Reuss Voigt Hill
#
# Bulk Modulus (GPa) = 39.21505 44.83039 42.02272
# Shear Modulus (GPa) = 17.59036 22.89450 20.24243
#
# Velocity S-wave (km/s) = 2.97407 3.39296 3.19040
# Velocity P-wave (km/s) = 5.61357 6.15564 5.89085
#
# Compressibility (1/GPa) = 0.02550042
#
# Stress axis : x y z
#
# Youngs Moduli (GPa) = 67.56891 131.86453 54.16426
#
# Poissons Ratio (x) = 0.30122 0.21102
# Poissons Ratio (y) = 0.15435 0.08083
# Poissons Ratio (z) = 0.26325 0.19679
#
# Static dielectric constant tensor:
#      x y z
#    x 3.511520 0.000000 0.000000 
#    y 0.000000 3.982010 0.000000 
#    z 0.000000 0.000000 3.160080 
# 
# 
# High freq. dielectric constant tensor:
#      x y z
#    x 1.768800 0.000000 0.000000 
#    y 0.000000 1.802730 0.000000 
#    z 0.000000 0.000000 1.737150 
# 
# From -- ./inp_files/19668.got.cif
#   From: 2010.03.12/outbox.cif.g09.slc.cpg/sg67_10_cif.got.tgz:19668.got - 2010.04.10 22:41:39.
