data_PCOD8280303
_publ_section_title
;
Structure prediction by ZEFSAII (Michael W. Deem and Ramdas Pophale) SiO2 
 PCOD8280303
Probable space group: C M M A
;
_chemical_formula_sum "Si O2"
_cell_formula_units_Z 112
_cell_length_a 14.394162
_cell_length_b 13.605943
_cell_length_c 28.714845
_cell_angle_alpha 90.000000
_cell_angle_beta 90.000000
_cell_angle_gamma 90.000000
_cell_volume 5623.691775
_symmetry_space_group_name_H-M "C M M A"
_symmetry_group_IT_number 67
_symmetry_cell_setting 'orthorhombic'
loop_
_space_group_symop_operation_xyz
x,y,z
-x,1/2-y,z
x,-y,-z
-x,1/2+y,-z
-x,-y,-z
x,1/2+y,-z
-x,y,z
x,1/2-y,z
1/2+x,1/2+y,z
1/2-x,-y,z
1/2+x,1/2-y,-z
1/2-x,y,-z
1/2-x,1/2-y,-z
1/2+x,y,-z
1/2-x,1/2+y,z
1/2+x,-y,z
loop_
_atom_site_type_symbol
_atom_site_label
_atom_site_fract_x
_atom_site_fract_y
_atom_site_fract_z
Si Si1 0.604008 0.858982 0.013918
Si Si2 0.388814 0.471270 0.253694
Si Si3 0.893905 0.511270 0.554930
Si Si4 0.750563 0.861912 0.403324
Si Si5 0.732221 0.362253 0.703629
Si Si6 0.652314 0.967684 0.926357
Si Si7 0.395894 0.141366 0.164161
O O1 0.500000 0.855412 0.993254
O O2 0.637063 0.750000 0.029326
O O3 0.601167 0.931732 0.058317
O O4 0.668347 0.898935 0.971924
O O5 0.500000 0.476356 0.261634
O O6 0.341653 0.575943 0.265641
O O7 0.339936 0.390109 0.286484
O O8 0.357636 0.437484 0.201535
O O9 0.890313 0.500000 0.500000
O O10 0.840285 0.424287 0.581636
O O11 0.840190 0.612406 0.566070
O O12 0.000000 0.514784 0.572900
O O13 0.778770 0.750000 0.411267
O O14 0.718568 0.883491 0.350722
O O15 0.714078 0.250000 0.716851
O O16 0.600725 0.906991 0.886818
O O17 0.750000 0.000000 0.905188
O O18 0.500000 0.162325 0.179710
O O19 0.345220 0.250000 0.164076
#
# Coordination Sequence:
#
# PCOD8280303 Si02
#       7
#    16  16  16  16  16  16  16
#     4  10  20  36  56  75 104 144 181 220 264 317
#     4  10  21  38  61  85 113 150 191 235 287 348
#     4  10  21  36  55  82 116 155 198 243 290 339
#     4  10  21  37  57  83 114 153 194 239 293 349
#     4  10  22  38  59  87 118 148 189 241 295 349
#     4  11  22  33  53  82 108 138 176 220 272 323
#     4  10  21  38  59  81 106 140 182 223 268 329
#
# _framework density 19.915744
#
# number of rings (size 3 to 8) (size 9 to 14) (size 15 to 20)
#    0.000    1.857    0.000    6.000    2.000    8.000 
#    0.000    5.000    0.000    0.857    0.000    0.000 
#    0.000    0.000    0.000    0.000    0.000    0.000 
#
# Total GULP energy -693971.233725 kJ/mol
# GULP energy per Si atom -12392.343459 kJ/mol
# Density = 1.987041 g / cm^3
# Si number density = 19.915744 Si / 1000 Ang^3
#
#
#
# Elastic Constant Matrix: (Units=GPa)
#
#
# Indices 1 2 3 4 5 6 
#
# 1 104.9971 28.7394 25.9582 0.0000 0.0000 0.0000
# 2 28.7394 150.5818 50.9237 0.0000 0.0000 0.0000
# 3 25.9582 50.9237 83.3704 0.0000 0.0000 0.0000
# 4 0.0000 0.0000 0.0000 26.1386 0.0000 0.0000
# 5 0.0000 0.0000 0.0000 0.0000 27.2655 0.0000
# 6 0.0000 0.0000 0.0000 0.0000 0.0000 20.0630
#
#
#
# Elastic Compliance Matrix: (Units=1/GPa)
#
#
# Indices 1 2 3 4 5 6 
#
# 1 0.010468 -0.001129 -0.002570 0.000000 0.000000 0.000000
# 2 -0.001129 0.008492 -0.004835 0.000000 0.000000 0.000000
# 3 -0.002570 -0.004835 0.015748 0.000000 0.000000 0.000000
# 4 0.000000 0.000000 0.000000 0.038258 0.000000 0.000000
# 5 0.000000 0.000000 0.000000 0.000000 0.036676 0.000000
# 6 0.000000 0.000000 0.000000 0.000000 0.000000 0.049843
#
#
# Mechanical properties :
#
#
# Convention : Reuss Voigt Hill
#
# Bulk Modulus (GPa) = 56.68886 61.13242 58.91064
# Shear Modulus (GPa) = 27.40728 30.24863 28.82796
#
# Velocity S-wave (km/s) = 3.71369 3.90144 3.80872
# Velocity P-wave (km/s) = 6.84944 7.14543 6.99900
#
# Compressibility (1/GPa) = 0.01764015
#
# Stress axis : x y z
#
# Youngs Moduli (GPa) = 95.52544 117.76418 63.49901
#
# Poissons Ratio (x) = 0.13294 0.16319
# Poissons Ratio (y) = 0.10783 0.30703
# Poissons Ratio (z) = 0.24549 0.56942
#
# Static dielectric constant tensor:
#      x y z
#    x 3.634160 0.000000 0.000000 
#    y 0.000000 3.913600 0.000000 
#    z 0.000000 0.000000 3.550210 
# 
# 
# High freq. dielectric constant tensor:
#      x y z
#    x 1.769800 0.000000 0.000000 
#    y 0.000000 1.785950 0.000000 
#    z 0.000000 0.000000 1.771890 
# 
# From -- ./inp_files/42003.got.cif
#   From: 2010.03.12/outbox.cif.g09.slc.cpg/sg67_22_cif.got.tgz:42003.got - 2010.04.10 22:41:39.
