data_PCOD8280521
_publ_section_title
;
Structure prediction by ZEFSAII (Michael W. Deem and Ramdas Pophale) SiO2 
 PCOD8280521
Probable space group: C M M A
;
_chemical_formula_sum "Si O2"
_cell_formula_units_Z 112
_cell_length_a 16.274615
_cell_length_b 28.990602
_cell_length_c 12.027272
_cell_angle_alpha 90.000000
_cell_angle_beta 90.000000
_cell_angle_gamma 90.000000
_cell_volume 5674.597861
_symmetry_space_group_name_H-M "C M M A"
_symmetry_group_IT_number 67
_symmetry_cell_setting 'orthorhombic'
loop_
_space_group_symop_operation_xyz
x,y,z
-x,1/2-y,z
x,-y,-z
-x,1/2+y,-z
-x,-y,-z
x,1/2+y,-z
-x,y,z
x,1/2-y,z
1/2+x,1/2+y,z
1/2-x,-y,z
1/2+x,1/2-y,-z
1/2-x,y,-z
1/2-x,1/2-y,-z
1/2+x,y,-z
1/2-x,1/2+y,z
1/2+x,-y,z
loop_
_atom_site_type_symbol
_atom_site_label
_atom_site_fract_x
_atom_site_fract_y
_atom_site_fract_z
Si Si1 0.095686 0.434523 0.711781
Si Si2 0.093191 0.457224 0.066026
Si Si3 0.403955 0.538832 0.306402
Si Si4 0.095415 0.302600 0.815578
Si Si5 0.168232 0.111889 0.922798
Si Si6 0.344419 0.892709 0.492339
Si Si7 0.903135 0.801205 0.440368
O O1 0.119218 0.485700 0.669038
O O2 0.159784 0.417303 0.807055
O O3 0.104936 0.403097 0.603835
O O4 0.000000 0.431941 0.753292
O O5 0.135233 0.449956 0.185842
O O6 0.000000 0.472147 0.088764
O O7 0.136117 0.500000 0.000000
O O8 0.097069 0.409510 0.999431
O O9 0.500000 0.545929 0.309024
O O10 0.370580 0.575748 0.391414
O O11 0.110638 0.250000 0.852497
O O12 0.150717 0.334683 0.895852
O O13 0.122155 0.310182 0.688088
O O14 0.000000 0.316036 0.829788
O O15 0.250000 0.105802 0.000000
O O16 0.250000 0.903397 0.500000
O O17 0.360684 0.837886 0.475727
O O18 0.873434 0.750000 0.475689
O O19 0.000000 0.804761 0.453074
#
# Coordination Sequence:
#
# PCOD8280521 Si02
#       7
#    16  16  16  16  16  16  16
#     4  11  22  42  65  85 118 168 216 256 306 374
#     4  10  20  38  59  82 113 158 209 251 293 364
#     4  10  22  39  61  85 116 162 216 255 297 365
#     4   9  18  36  64  92 117 155 209 260 306 371
#     4  12  24  35  59  92 126 158 201 256 322 368
#     4  12  25  37  58  91 131 160 200 258 328 374
#     4   9  18  36  65  93 116 156 214 262 306 375
#
# _framework density 19.737081
#
# number of rings (size 3 to 8) (size 9 to 14) (size 15 to 20)
#    0.000    1.571    2.857    3.857    2.000    3.143 
#    0.000    0.000    0.000    0.857    0.000    4.000 
#    0.000    0.000    0.000    0.000    0.000    0.000 
#
# Total GULP energy -693818.150759 kJ/mol
# GULP energy per Si atom -12389.609835 kJ/mol
# Density = 1.969216 g / cm^3
# Si number density = 19.737081 Si / 1000 Ang^3
#
#
#
# Elastic Constant Matrix: (Units=GPa)
#
#
# Indices 1 2 3 4 5 6 
#
# 1 53.6402 39.0259 41.5179 0.0000 0.0000 0.0000
# 2 39.0259 164.6453 75.1097 0.0000 0.0000 0.0000
# 3 41.5179 75.1097 114.5450 0.0000 0.0000 0.0000
# 4 0.0000 0.0000 0.0000 50.8089 0.0000 0.0000
# 5 0.0000 0.0000 0.0000 0.0000 -0.9505 0.0000
# 6 0.0000 0.0000 0.0000 0.0000 0.0000 14.0504
#
#
#
# Elastic Compliance Matrix: (Units=1/GPa)
#
#
# Indices 1 2 3 4 5 6 
#
# 1 0.026749 -0.002736 -0.007902 0.000000 0.000000 0.000000
# 2 -0.002736 0.008946 -0.004874 0.000000 0.000000 0.000000
# 3 -0.007902 -0.004874 0.014790 0.000000 0.000000 0.000000
# 4 0.000000 0.000000 0.000000 0.019682 0.000000 0.000000
# 5 0.000000 0.000000 0.000000 0.000000 -1.052066 0.000000
# 6 0.000000 0.000000 0.000000 0.000000 0.000000 0.071173
#
#
# Mechanical properties :
#
#
# Convention : Reuss Voigt Hill
#
# Bulk Modulus (GPa) = 51.38243 71.57084 61.47664
# Shear Modulus (GPa) = -5.72596 24.59354 9.43379
#
# Velocity S-wave (km/s) = -1.70511 3.53378 2.18863
# Velocity P-wave (km/s) = 4.71311 7.27949 6.13206
#
# Compressibility (1/GPa) = 0.01946190
#
# Stress axis : x y z
#
# Youngs Moduli (GPa) = 37.38468 111.78515 67.61147
#
# Poissons Ratio (x) = 0.30581 0.53424
# Poissons Ratio (y) = 0.10227 0.32956
# Poissons Ratio (z) = 0.29540 0.54488
#
# Static dielectric constant tensor:
#      x y z
#    x 3.497170 0.000000 0.000000 
#    y 0.000000 3.818210 0.000000 
#    z 0.000000 0.000000 1.945600 
# 
# 
# High freq. dielectric constant tensor:
#      x y z
#    x 1.745750 0.000000 0.000000 
#    y 0.000000 1.781300 0.000000 
#    z 0.000000 0.000000 1.760040 
# 
# From -- ./inp_files/18652.got.cif
#   From: 2010.03.12/outbox.cif.g09.slc.cpg/sg67_10_cif.got.tgz:18652.got - 2010.04.10 22:41:39.
