data_PCOD8280369
_publ_section_title
;
Structure prediction by ZEFSAII (Michael W. Deem and Ramdas Pophale) SiO2 
 PCOD8280369
Probable space group: C M M A
;
_chemical_formula_sum "Si O2"
_cell_formula_units_Z 80
_cell_length_a 9.789196
_cell_length_b 24.721356
_cell_length_c 18.129896
_cell_angle_alpha 90.000000
_cell_angle_beta 90.000000
_cell_angle_gamma 90.000000
_cell_volume 4387.474705
_symmetry_space_group_name_H-M "C M M A"
_symmetry_group_IT_number 67
_symmetry_cell_setting 'orthorhombic'
loop_
_space_group_symop_operation_xyz
x,y,z
-x,1/2-y,z
x,-y,-z
-x,1/2+y,-z
-x,-y,-z
x,1/2+y,-z
-x,y,z
x,1/2-y,z
1/2+x,1/2+y,z
1/2-x,-y,z
1/2+x,1/2-y,-z
1/2-x,y,-z
1/2-x,1/2-y,-z
1/2+x,y,-z
1/2-x,1/2+y,z
1/2+x,-y,z
loop_
_atom_site_type_symbol
_atom_site_label
_atom_site_fract_x
_atom_site_fract_y
_atom_site_fract_z
Si Si1 0.750000 0.500000 0.319161
Si Si2 0.500000 0.479409 0.416857
Si Si3 0.000000 0.647924 0.400144
Si Si4 0.155988 0.904780 0.774646
Si Si5 0.500000 0.187031 0.564716
Si Si6 0.770588 0.813800 0.672257
Si Si7 0.335056 0.444723 0.932825
O O1 0.625670 0.504039 0.374242
O O2 0.745858 0.446959 0.267678
O O3 0.500000 0.500000 0.500000
O O4 0.500000 0.415172 0.414149
O O5 0.000000 0.675479 0.479179
O O6 0.877585 0.668661 0.351147
O O7 0.187274 0.844001 0.747647
O O8 0.183733 0.906653 0.861959
O O9 0.000000 0.921431 0.758431
O O10 0.500000 0.250000 0.576725
O O11 0.633769 0.164454 0.605698
O O12 0.782058 0.750000 0.687035
O O13 0.500000 0.453955 0.948755
O O14 0.250000 0.500000 0.918463
O O15 0.250000 0.416430 0.000000
#
# Coordination Sequence:
#
# PCOD8280369 Si02
#       7
#     8   8   8  16   8  16  16
#     4  12  23  42  55  82 116 156 200 240 293 348
#     4  12  28  38  56  82 115 162 199 242 291 355
#     4  12  24  38  58  84 114 151 194 254 308 344
#     4  11  22  38  63  87 118 154 197 241 288 351
#     4  10  22  38  58  78 108 149 194 246 295 349
#     4  11  23  40  60  85 113 150 202 250 298 349
#     4  10  20  36  58  90 124 156 190 229 281 352
#
# _framework density 18.233723000000001
#
# number of rings (size 3 to 8) (size 9 to 14) (size 15 to 20)
#    0.000    1.000    5.000    3.000    2.800    3.200 
#    5.400    0.000    0.000    0.600    0.000    0.000 
#    0.000    0.000    0.000    0.000    0.000    0.000 
#
# Total GULP energy -495789.282876 kJ/mol
# GULP energy per Si atom -12394.732072 kJ/mol
# Density = 1.819222 g / cm^3
# Si number density = 18.233723 Si / 1000 Ang^3
#
#
#
# Elastic Constant Matrix: (Units=GPa)
#
#
# Indices 1 2 3 4 5 6 
#
# 1 115.2680 19.2601 57.8156 0.0000 0.0000 0.0000
# 2 19.2601 72.6356 35.8147 0.0000 0.0000 0.0000
# 3 57.8156 35.8147 140.4671 0.0000 0.0000 0.0000
# 4 0.0000 0.0000 0.0000 -188.5749 0.0000 0.0000
# 5 0.0000 0.0000 0.0000 0.0000 33.7601 0.0000
# 6 0.0000 0.0000 0.0000 0.0000 0.0000 16.9705
#
#
#
# Elastic Compliance Matrix: (Units=1/GPa)
#
#
# Indices 1 2 3 4 5 6 
#
# 1 0.010971 -0.000781 -0.004317 0.000000 0.000000 0.000000
# 2 -0.000781 0.015803 -0.003708 0.000000 0.000000 0.000000
# 3 -0.004317 -0.003708 0.009841 0.000000 0.000000 0.000000
# 4 0.000000 0.000000 0.000000 -0.005303 0.000000 0.000000
# 5 0.000000 0.000000 0.000000 0.000000 0.029621 0.000000
# 6 0.000000 0.000000 0.000000 0.000000 0.000000 0.058926
#
#
# Mechanical properties :
#
#
# Convention : Reuss Voigt Hill
#
# Bulk Modulus (GPa) = 52.61892 61.57238 57.09565
# Shear Modulus (GPa) = 34.76967 -13.20352 10.78308
#
# Velocity S-wave (km/s) = 4.37153 -2.69388 2.43447
# Velocity P-wave (km/s) = 7.37571 4.91587 6.26765
#
# Compressibility (1/GPa) = 0.01900457
#
# Stress axis : x y z
#
# Youngs Moduli (GPa) = 91.14980 63.28067 101.61402
#
# Poissons Ratio (x) = 0.04940 0.43862
# Poissons Ratio (y) = 0.07116 0.37677
# Poissons Ratio (z) = 0.39345 0.23463
#
# Static dielectric constant tensor:
#      x y z
#    x 3.794350 0.000000 0.000000 
#    y 0.000000 2.274690 0.000000 
#    z 0.000000 0.000000 3.574280 
# 
# 
# High freq. dielectric constant tensor:
#      x y z
#    x 1.726220 0.000000 0.000000 
#    y 0.000000 1.688500 0.000000 
#    z 0.000000 0.000000 1.706630 
# 
# From -- ./inp_files/32224.got.cif
#   From: 2010.03.12/outbox.cif.g09.slc.cpg/sg67_17_cif.got.tgz:32224.got - 2010.04.10 22:41:39.
