data_PCOD8280487
_publ_section_title
;
Structure prediction by ZEFSAII (Michael W. Deem and Ramdas Pophale) SiO2 
 PCOD8280487
Probable space group: C M M A
;
_chemical_formula_sum "Si O2"
_cell_formula_units_Z 104
_cell_length_a 8.823111
_cell_length_b 23.645503
_cell_length_c 25.234180
_cell_angle_alpha 90.000000
_cell_angle_beta 90.000000
_cell_angle_gamma 90.000000
_cell_volume 5264.528687
_symmetry_space_group_name_H-M "C M M A"
_symmetry_group_IT_number 67
_symmetry_cell_setting 'orthorhombic'
loop_
_space_group_symop_operation_xyz
x,y,z
-x,1/2-y,z
x,-y,-z
-x,1/2+y,-z
-x,-y,-z
x,1/2+y,-z
-x,y,z
x,1/2-y,z
1/2+x,1/2+y,z
1/2-x,-y,z
1/2+x,1/2-y,-z
1/2-x,y,-z
1/2-x,1/2-y,-z
1/2+x,y,-z
1/2-x,1/2+y,z
1/2+x,-y,z
loop_
_atom_site_type_symbol
_atom_site_label
_atom_site_fract_x
_atom_site_fract_y
_atom_site_fract_z
Si Si1 0.179453 0.363881 0.446256
Si Si2 0.179046 0.750000 0.286511
Si Si3 0.175224 0.250000 0.055977
Si Si4 0.177578 0.628882 0.252449
Si Si5 0.322262 0.940631 0.850287
Si Si6 0.177871 0.060801 0.346824
Si Si7 0.820861 0.872565 0.941947
Si Si8 0.319342 0.750000 0.593187
O O1 0.250000 0.389792 0.500000
O O2 0.226887 0.404839 0.398661
O O3 0.255150 0.303622 0.437068
O O4 0.000000 0.357355 0.451288
O O5 0.235522 0.693916 0.255716
O O6 0.242283 0.750000 0.346416
O O7 0.000000 0.750000 0.288781
O O8 0.218350 0.309967 0.083717
O O9 0.000000 0.250000 0.043960
O O10 0.250000 0.250000 0.000000
O O11 0.216028 0.605531 0.194451
O O12 0.265566 0.592241 0.294923
O O13 0.000000 0.624430 0.265279
O O14 0.500000 0.948943 0.857732
O O15 0.251206 0.920211 0.905254
O O16 0.250000 0.000000 0.833163
O O17 0.000000 0.053841 0.342408
O O18 0.250000 0.000000 0.350872
O O19 0.000000 0.882462 0.945668
O O20 0.750000 0.878700 0.000000
O O21 0.500000 0.750000 0.590695
#
# Coordination Sequence:
#
# PCOD8280487 Si02
#       8
#    16   8   8  16  16  16  16   8
#     4  11  24  40  59  87 121 156 198 244 295 353
#     4   9  18  35  63  94 120 152 189 233 291 352
#     4   8  16  31  54  84 116 151 188 232 283 341
#     4  10  21  40  64  90 120 153 194 239 291 354
#     4  11  24  40  60  86 119 158 201 248 294 348
#     4  11  24  40  61  86 115 153 198 246 295 350
#     4  10  20  37  61  89 123 159 200 244 295 353
#     4  11  20  36  64  90 120 157 194 239 294 355
#
# _framework density 19.754854000000002
#
# number of rings (size 3 to 8) (size 9 to 14) (size 15 to 20)
#    0.000    1.692    1.538    2.769    0.000    6.154 
#    0.000    4.231    0.000    0.000    0.000    0.000 
#    0.000    0.000    0.000    0.000    0.000    0.000 
#
# Total GULP energy -644766.089786 kJ/mol
# GULP energy per Si atom -12399.347881 kJ/mol
# Density = 1.970989 g / cm^3
# Si number density = 19.754854 Si / 1000 Ang^3
#
#
#
# Elastic Constant Matrix: (Units=GPa)
#
#
# Indices 1 2 3 4 5 6 
#
# 1 72.6840 41.2128 44.3023 0.0000 0.0000 0.0000
# 2 41.2128 115.7852 41.5200 0.0000 0.0000 0.0000
# 3 44.3023 41.5200 107.0887 0.0000 0.0000 0.0000
# 4 0.0000 0.0000 0.0000 -20.6948 0.0000 0.0000
# 5 0.0000 0.0000 0.0000 0.0000 28.7801 0.0000
# 6 0.0000 0.0000 0.0000 0.0000 0.0000 37.0759
#
#
#
# Elastic Compliance Matrix: (Units=1/GPa)
#
#
# Indices 1 2 3 4 5 6 
#
# 1 0.020593 -0.004965 -0.006594 0.000000 0.000000 0.000000
# 2 -0.004965 0.011229 -0.002299 0.000000 0.000000 0.000000
# 3 -0.006594 -0.002299 0.012958 0.000000 0.000000 0.000000
# 4 0.000000 0.000000 0.000000 -0.048321 0.000000 0.000000
# 5 0.000000 0.000000 0.000000 0.000000 0.034746 0.000000
# 6 0.000000 0.000000 0.000000 0.000000 0.000000 0.026972
#
#
# Mechanical properties :
#
#
# Convention : Reuss Voigt Hill
#
# Bulk Modulus (GPa) = 58.61165 61.06979 59.84072
# Shear Modulus (GPa) = 54.59716 20.26711 37.43213
#
# Velocity S-wave (km/s) = 5.26283 3.20649 4.35769
# Velocity P-wave (km/s) = 8.16478 6.68504 7.46168
#
# Compressibility (1/GPa) = 0.01706146
#
# Stress axis : x y z
#
# Youngs Moduli (GPa) = 48.56088 89.05861 77.17536
#
# Poissons Ratio (x) = 0.44219 0.50890
# Poissons Ratio (y) = 0.24112 0.17746
# Poissons Ratio (z) = 0.32021 0.20478
#
# Static dielectric constant tensor:
#      x y z
#    x 3.574310 0.000000 0.000000 
#    y 0.000000 3.015710 0.000000 
#    z 0.000000 0.000000 3.575840 
# 
# 
# High freq. dielectric constant tensor:
#      x y z
#    x 1.771790 0.000000 0.000000 
#    y 0.000000 1.784750 0.000000 
#    z 0.000000 0.000000 1.767760 
# 
# From -- ./inp_files/43640.got.cif
#   From: 2010.03.12/outbox.cif.g09.slc.cpg/sg67_22_cif.got.tgz:43640.got - 2010.04.10 22:41:39.
