data_PCOD8280351
_publ_section_title
;
Structure prediction by ZEFSAII (Michael W. Deem and Ramdas Pophale) SiO2 
 PCOD8280351
Probable space group: C M M A
;
_chemical_formula_sum "Si O2"
_cell_formula_units_Z 80
_cell_length_a 17.321023
_cell_length_b 11.128842
_cell_length_c 19.535209
_cell_angle_alpha 90.000000
_cell_angle_beta 90.000000
_cell_angle_gamma 90.000000
_cell_volume 3765.664091
_symmetry_space_group_name_H-M "C M M A"
_symmetry_group_IT_number 67
_symmetry_cell_setting 'orthorhombic'
loop_
_space_group_symop_operation_xyz
x,y,z
-x,1/2-y,z
x,-y,-z
-x,1/2+y,-z
-x,-y,-z
x,1/2+y,-z
-x,y,z
x,1/2-y,z
1/2+x,1/2+y,z
1/2-x,-y,z
1/2+x,1/2-y,-z
1/2-x,y,-z
1/2-x,1/2-y,-z
1/2+x,y,-z
1/2-x,1/2+y,z
1/2+x,-y,z
loop_
_atom_site_type_symbol
_atom_site_label
_atom_site_fract_x
_atom_site_fract_y
_atom_site_fract_z
Si Si1 0.091396 0.385523 0.956710
Si Si2 0.088795 0.386600 0.705288
Si Si3 0.090285 0.980013 0.574601
Si Si4 0.659762 0.002460 0.830915
Si Si5 0.592073 0.750000 0.347642
Si Si6 0.408211 0.750000 0.191336
O O1 0.118326 0.250000 0.980920
O O2 0.119362 0.403978 0.879064
O O3 0.000000 0.389978 0.959143
O O4 0.125409 0.500000 0.000000
O O5 0.106498 0.250000 0.722806
O O6 0.106584 0.407742 0.624835
O O7 0.141853 0.469920 0.752257
O O8 0.000000 0.422082 0.720273
O O9 0.125963 0.864110 0.612077
O O10 0.000000 0.957858 0.563341
O O11 0.129292 0.000000 0.500000
O O12 0.625579 0.134002 0.847421
O O13 0.750000 0.000000 0.844626
O O14 0.500000 0.750000 0.345760
O O15 0.621570 0.750000 0.269671
O O16 0.500000 0.750000 0.184336
#
# Coordination Sequence:
#
# PCOD8280351 Si02
#       6
#    16  16  16  16   8   8
#     4  10  23  45  72  99 129 167 209 252 305 376
#     4  10  20  36  58  83 116 159 206 255 314 382
#     4   9  17  28  47  79 114 148 194 260 323 371
#     4  12  26  40  63  94 130 165 209 262 318 371
#     4   9  16  30  50  77 112 146 198 263 313 363
#     4  11  22  40  66  92 123 172 224 268 316 383
#
# _framework density 21.244592999999998
#
# number of rings (size 3 to 8) (size 9 to 14) (size 15 to 20)
#    0.000    1.800    2.000    2.400    5.600    2.000 
#    0.000    1.000    0.000    0.600    0.000    2.800 
#    0.000    0.000    0.000    0.000    0.000    0.000 
#
# Total GULP energy -495889.332918 kJ/mol
# GULP energy per Si atom -12397.233323 kJ/mol
# Density = 2.119624 g / cm^3
# Si number density = 21.244593 Si / 1000 Ang^3
#
#
#
# Elastic Constant Matrix: (Units=GPa)
#
#
# Indices 1 2 3 4 5 6 
#
# 1 31.4302 41.4842 11.4986 0.0000 0.0000 0.0000
# 2 41.4842 149.8560 40.6753 0.0000 0.0000 0.0000
# 3 11.4986 40.6753 78.4663 0.0000 0.0000 0.0000
# 4 0.0000 0.0000 0.0000 39.2495 0.0000 0.0000
# 5 0.0000 0.0000 0.0000 0.0000 3.4386 0.0000
# 6 0.0000 0.0000 0.0000 0.0000 0.0000 17.1979
#
#
#
# Elastic Compliance Matrix: (Units=1/GPa)
#
#
# Indices 1 2 3 4 5 6 
#
# 1 0.050137 -0.013831 -0.000177 0.000000 0.000000 0.000000
# 2 -0.013831 0.011581 -0.003977 0.000000 0.000000 0.000000
# 3 -0.000177 -0.003977 0.014832 0.000000 0.000000 0.000000
# 4 0.000000 0.000000 0.000000 0.025478 0.000000 0.000000
# 5 0.000000 0.000000 0.000000 0.000000 0.290819 0.000000
# 6 0.000000 0.000000 0.000000 0.000000 0.000000 0.058147
#
#
# Mechanical properties :
#
#
# Convention : Reuss Voigt Hill
#
# Bulk Modulus (GPa) = 24.64294 49.67432 37.15863
# Shear Modulus (GPa) = 9.99020 23.05016 16.52018
#
# Velocity S-wave (km/s) = 2.17087 3.29749 2.79161
# Velocity P-wave (km/s) = 4.23183 6.15880 5.28390
#
# Compressibility (1/GPa) = 0.04057958
#
# Stress axis : x y z
#
# Youngs Moduli (GPa) = 19.94540 86.34624 67.42297
#
# Poissons Ratio (x) = 1.19426 0.01196
# Poissons Ratio (y) = 0.27587 0.26812
# Poissons Ratio (z) = 0.00354 0.34337
#
# Static dielectric constant tensor:
#      x y z
#    x 3.254580 0.000000 0.000000 
#    y 0.000000 4.220290 0.000000 
#    z 0.000000 0.000000 3.944800 
# 
# 
# High freq. dielectric constant tensor:
#      x y z
#    x 1.773460 0.000000 0.000000 
#    y 0.000000 1.849880 0.000000 
#    z 0.000000 0.000000 1.838410 
# 
# From -- ./inp_files/38874.got.cif
#   From: 2010.03.12/outbox.cif.g09.slc.cpg/sg67_20_cif.got.tgz:38874.got - 2010.04.10 22:41:39.
