data_PCOD8280945
_publ_section_title
;
Structure prediction by ZEFSAII (Michael W. Deem and Ramdas Pophale) SiO2 
 PCOD8280945
Probable space group: C M M A
;
_chemical_formula_sum "Si O2"
_cell_formula_units_Z 96
_cell_length_a 18.579288
_cell_length_b 8.765633
_cell_length_c 30.951852
_cell_angle_alpha 90.000000
_cell_angle_beta 90.000000
_cell_angle_gamma 90.000000
_cell_volume 5040.794475
_symmetry_space_group_name_H-M "C M M A"
_symmetry_group_IT_number 67
_symmetry_cell_setting 'orthorhombic'
loop_
_space_group_symop_operation_xyz
x,y,z
-x,1/2-y,z
x,-y,-z
-x,1/2+y,-z
-x,-y,-z
x,1/2+y,-z
-x,y,z
x,1/2-y,z
1/2+x,1/2+y,z
1/2-x,-y,z
1/2+x,1/2-y,-z
1/2-x,y,-z
1/2-x,1/2-y,-z
1/2+x,y,-z
1/2-x,1/2+y,z
1/2+x,-y,z
loop_
_atom_site_type_symbol
_atom_site_label
_atom_site_fract_x
_atom_site_fract_y
_atom_site_fract_z
Si Si1 0.914973 0.423718 0.619720
Si Si2 0.326556 0.569216 0.454579
Si Si3 0.084095 0.428168 0.290670
Si Si4 0.418534 0.569890 0.869584
Si Si5 0.585698 0.578361 0.042918
Si Si6 0.328723 0.431084 0.212641
O O1 0.886619 0.250000 0.617048
O O2 0.883987 0.525177 0.581365
O O3 0.889822 0.497008 0.664708
O O4 0.000000 0.430054 0.615453
O O5 0.352786 0.500000 0.500000
O O6 0.320339 0.750000 0.458878
O O7 0.250000 0.500000 0.441089
O O8 0.102360 0.250000 0.291865
O O9 0.127628 0.509330 0.253270
O O10 0.000000 0.458264 0.282672
O O11 0.500000 0.510166 0.861814
O O12 0.417994 0.750000 0.873236
O O13 0.385842 0.504509 0.914041
O O14 0.369451 0.511961 0.830342
O O15 0.500000 0.569338 0.041668
O O16 0.614110 0.750000 0.043863
O O17 0.617936 0.500000 0.000000
O O18 0.324434 0.250000 0.214812
O O19 0.250000 0.500000 0.212617
#
# Coordination Sequence:
#
# PCOD8280945 Si02
#       6
#    16  16  16  16  16  16
#     4  10  21  38  60  86 115 146 182 225 274 326
#     4  11  22  38  59  83 114 150 190 231 274 324
#     4  10  21  38  60  85 112 142 179 224 273 326
#     4   9  18  33  53  76 103 137 176 217 264 318
#     4   9  16  26  44  72 104 135 169 212 260 310
#     4  11  23  38  56  79 109 144 182 224 271 322
#
# _framework density 19.044616999999999
#
# number of rings (size 3 to 8) (size 9 to 14) (size 15 to 20)
#    0.000    2.000    0.000    4.500    0.000    7.000 
#    0.000    5.000    0.000    0.500    0.000    3.500 
#    0.000    0.000    0.000    0.000    0.000    0.000 
#
# Total GULP energy -595337.385439 kJ/mol
# GULP energy per Si atom -12402.862197 kJ/mol
# Density = 1.900127 g / cm^3
# Si number density = 19.044617 Si / 1000 Ang^3
#
#
#
# Elastic Constant Matrix: (Units=GPa)
#
#
# Indices 1 2 3 4 5 6 
#
# 1 42.2755 32.1060 52.9327 0.0000 0.0000 0.0000
# 2 32.1060 107.9696 61.2464 0.0000 0.0000 0.0000
# 3 52.9327 61.2464 170.8783 0.0000 0.0000 0.0000
# 4 0.0000 0.0000 0.0000 39.6266 0.0000 0.0000
# 5 0.0000 0.0000 0.0000 0.0000 -14.9105 0.0000
# 6 0.0000 0.0000 0.0000 0.0000 0.0000 -524.2065
#
#
#
# Elastic Compliance Matrix: (Units=1/GPa)
#
#
# Indices 1 2 3 4 5 6 
#
# 1 0.041888 -0.006396 -0.010683 0.000000 0.000000 0.000000
# 2 -0.006396 0.012602 -0.002536 0.000000 0.000000 0.000000
# 3 -0.010683 -0.002536 0.010070 0.000000 0.000000 0.000000
# 4 0.000000 0.000000 0.000000 0.025236 0.000000 0.000000
# 5 0.000000 0.000000 0.000000 0.000000 -0.067067 0.000000
# 6 0.000000 0.000000 0.000000 0.000000 0.000000 -0.001908
#
#
# Mechanical properties :
#
#
# Convention : Reuss Voigt Hill
#
# Bulk Modulus (GPa) = 39.47718 68.18816 53.83267
# Shear Modulus (GPa) = 72.99875 -88.24220 -7.62172
#
# Velocity S-wave (km/s) = 6.19787 -6.81433 -2.00268
# Velocity P-wave (km/s) = 8.48481 5.10208 4.79378
#
# Compressibility (1/GPa) = 0.02533109
#
# Stress axis : x y z
#
# Youngs Moduli (GPa) = 23.87322 79.35198 99.30222
#
# Poissons Ratio (x) = 0.50752 1.06087
# Poissons Ratio (y) = 0.15269 0.25180
# Poissons Ratio (z) = 0.25504 0.20121
#
# Static dielectric constant tensor:
#      x y z
#    x 3.251910 0.000000 0.000000 
#    y 0.000000 3.636320 0.000000 
#    z 0.000000 0.000000 3.706830 
# 
# 
# High freq. dielectric constant tensor:
#      x y z
#    x 1.712270 0.000000 0.000000 
#    y 0.000000 1.754660 0.000000 
#    z 0.000000 0.000000 1.758710 
# 
# From -- ./inp_files/43490.got.cif
#   From: 2010.03.12/outbox.cif.g09.slc.cpg/sg67_22_cif.got.tgz:43490.got - 2010.04.10 22:41:39.
