data_PCOD8280541
_publ_section_title
;
Structure prediction by ZEFSAII (Michael W. Deem and Ramdas Pophale) SiO2 
 PCOD8280541
Probable space group: C M M A
;
_chemical_formula_sum "Si O2"
_cell_formula_units_Z 96
_cell_length_a 14.506978
_cell_length_b 15.559343
_cell_length_c 20.488881
_cell_angle_alpha 90.000000
_cell_angle_beta 90.000000
_cell_angle_gamma 90.000000
_cell_volume 4624.730685
_symmetry_space_group_name_H-M "C M M A"
_symmetry_group_IT_number 67
_symmetry_cell_setting 'orthorhombic'
loop_
_space_group_symop_operation_xyz
x,y,z
-x,1/2-y,z
x,-y,-z
-x,1/2+y,-z
-x,-y,-z
x,1/2+y,-z
-x,y,z
x,1/2-y,z
1/2+x,1/2+y,z
1/2-x,-y,z
1/2+x,1/2-y,-z
1/2-x,y,-z
1/2-x,1/2-y,-z
1/2+x,y,-z
1/2-x,1/2+y,z
1/2+x,-y,z
loop_
_atom_site_type_symbol
_atom_site_label
_atom_site_fract_x
_atom_site_fract_y
_atom_site_fract_z
Si Si1 0.759228 0.651383 0.401211
Si Si2 0.900804 0.750000 0.906716
Si Si3 0.254746 0.849813 0.745575
Si Si4 0.101494 0.401277 0.491495
Si Si5 0.392467 0.415802 0.834925
Si Si6 0.892643 0.891009 0.143875
Si Si7 0.843314 0.750000 0.041862
O O1 0.733412 0.750000 0.402060
O O2 0.778104 0.619607 0.327672
O O3 0.850145 0.636964 0.444258
O O4 0.668161 0.606035 0.429179
O O5 0.853547 0.838907 0.882137
O O6 0.000000 0.750000 0.872708
O O7 0.918372 0.750000 0.984499
O O8 0.225561 0.750000 0.748508
O O9 0.168912 0.908136 0.769848
O O10 0.345781 0.864932 0.788354
O O11 0.083693 0.500000 0.500000
O O12 0.000000 0.357326 0.481451
O O13 0.500000 0.407175 0.816769
O O14 0.375370 0.507638 0.869998
O O15 0.850369 0.835778 0.084878
O O16 0.000000 0.868924 0.150367
O O17 0.750000 0.750000 0.000000
#
# Coordination Sequence:
#
# PCOD8280541 Si02
#       7
#    16   8  16  16  16  16   8
#     4  10  22  37  59  89 118 157 205 255 304 363
#     4  10  20  38  62  86 118 156 198 249 303 361
#     4  11  22  39  62  88 123 164 208 256 315 371
#     4  10  21  38  59  84 120 161 200 251 312 367
#     4  10  22  40  64  92 125 166 210 261 315 369
#     4  11  24  42  64  92 128 167 209 259 313 371
#     4  12  24  40  64  90 122 164 205 251 307 368
#
# _framework density 20.757966
#
# number of rings (size 3 to 8) (size 9 to 14) (size 15 to 20)
#    0.000    1.500    1.667    4.250    0.000    6.000 
#    0.000   10.000    0.000    0.000    0.000    0.000 
#    0.000    0.000    0.000    0.000    0.000    0.000 
#
# Total GULP energy -594933.523405 kJ/mol
# GULP energy per Si atom -12394.448404 kJ/mol
# Density = 2.071072 g / cm^3
# Si number density = 20.757966 Si / 1000 Ang^3
#
#
#
# Elastic Constant Matrix: (Units=GPa)
#
#
# Indices 1 2 3 4 5 6 
#
# 1 143.9916 29.7761 57.4448 0.0000 0.0000 0.0000
# 2 29.7761 114.9995 46.8634 0.0000 0.0000 0.0000
# 3 57.4448 46.8634 156.8389 0.0000 0.0000 0.0000
# 4 0.0000 0.0000 0.0000 20.0736 0.0000 0.0000
# 5 0.0000 0.0000 0.0000 0.0000 20.7833 0.0000
# 6 0.0000 0.0000 0.0000 0.0000 0.0000 15.1555
#
#
#
# Elastic Compliance Matrix: (Units=1/GPa)
#
#
# Indices 1 2 3 4 5 6 
#
# 1 0.008239 -0.001029 -0.002710 0.000000 0.000000 0.000000
# 2 -0.001029 0.010030 -0.002620 0.000000 0.000000 0.000000
# 3 -0.002710 -0.002620 0.008152 0.000000 0.000000 0.000000
# 4 0.000000 0.000000 0.000000 0.049817 0.000000 0.000000
# 5 0.000000 0.000000 0.000000 0.000000 0.048116 0.000000
# 6 0.000000 0.000000 0.000000 0.000000 0.000000 0.065983
#
#
# Mechanical properties :
#
#
# Convention : Reuss Voigt Hill
#
# Bulk Modulus (GPa) = 72.98232 75.99985 74.49109
# Shear Modulus (GPa) = 24.08237 29.98551 27.03394
#
# Velocity S-wave (km/s) = 3.40979 3.80482 3.61271
# Velocity P-wave (km/s) = 7.12301 7.48292 7.30518
#
# Compressibility (1/GPa) = 0.01370195
#
# Stress axis : x y z
#
# Youngs Moduli (GPa) = 121.37670 99.70313 122.67678
#
# Poissons Ratio (x) = 0.10257 0.33248
# Poissons Ratio (y) = 0.12487 0.32142
# Poissons Ratio (z) = 0.32895 0.26123
#
# Static dielectric constant tensor:
#      x y z
#    x 3.637850 0.000000 0.000000 
#    y 0.000000 4.001170 0.000000 
#    z 0.000000 0.000000 -8.483930 
# 
# 
# High freq. dielectric constant tensor:
#      x y z
#    x 1.823230 0.000000 0.000000 
#    y 0.000000 1.825670 0.000000 
#    z 0.000000 0.000000 1.799780 
# 
# From -- ./inp_files/38551.got.cif
#   From: 2010.03.12/outbox.cif.g09.slc.cpg/sg67_20_cif.got.tgz:38551.got - 2010.04.10 22:41:39.
