data_PCOD8280795
_publ_section_title
;
Structure prediction by ZEFSAII (Michael W. Deem and Ramdas Pophale) SiO2 
 PCOD8280795
Probable space group: C M M A
;
_chemical_formula_sum "Si O2"
_cell_formula_units_Z 84
_cell_length_a 29.205413
_cell_length_b 14.341875
_cell_length_c 11.332830
_cell_angle_alpha 90.000000
_cell_angle_beta 90.000000
_cell_angle_gamma 90.000000
_cell_volume 4746.873509
_symmetry_space_group_name_H-M "C M M A"
_symmetry_group_IT_number 67
_symmetry_cell_setting 'orthorhombic'
loop_
_space_group_symop_operation_xyz
x,y,z
-x,1/2-y,z
x,-y,-z
-x,1/2+y,-z
-x,-y,-z
x,1/2+y,-z
-x,y,z
x,1/2-y,z
1/2+x,1/2+y,z
1/2-x,-y,z
1/2+x,1/2-y,-z
1/2-x,y,-z
1/2-x,1/2-y,-z
1/2+x,y,-z
1/2-x,1/2+y,z
1/2+x,-y,z
loop_
_atom_site_type_symbol
_atom_site_label
_atom_site_fract_x
_atom_site_fract_y
_atom_site_fract_z
Si Si1 0.772349 0.359781 0.383154
Si Si2 0.750000 0.000000 0.000000
Si Si3 0.128381 0.142843 0.411226
Si Si4 0.795128 0.140942 0.826129
Si Si5 0.886391 0.855915 0.316087
Si Si6 0.949589 0.987008 0.638900
O O1 0.776570 0.250000 0.404081
O O2 0.750000 0.405106 0.500000
O O3 0.823758 0.398087 0.361151
O O4 0.741767 0.385321 0.272486
O O5 0.715532 0.068812 0.069607
O O6 0.121879 0.250000 0.382061
O O7 0.130608 0.123736 0.551220
O O8 0.086750 0.095239 0.341128
O O9 0.790247 0.250000 0.865097
O O10 0.845824 0.122753 0.775694
O O11 0.903187 0.750000 0.302837
O O12 0.930386 0.921406 0.293757
O O13 0.000000 0.963389 0.691471
O O14 0.954580 0.000000 0.500000
#
# Coordination Sequence:
#
# PCOD8280795 Si02
#       6
#    16   4  16  16  16  16
#     4   9  15  28  51  77 103 131 166 210 257 303
#     4  12  26  36  50  74 102 148 182 206 260 326
#     4   9  16  27  46  73 104 136 168 202 249 306
#     4  10  21  37  53  73 105 137 171 217 256 306
#     4   9  17  31  50  69  96 134 171 210 253 295
#     4   9  18  29  42  68 106 138 167 204 247 308
#
# _framework density 17.695858000000001
#
# number of rings (size 3 to 8) (size 9 to 14) (size 15 to 20)
#    0.000    2.667    1.905    0.286    2.667    0.762 
#    0.000    4.286    0.000    0.000    0.000    0.667 
#    0.000    0.000    0.000    0.000    0.000    0.000 
#
# Total GULP energy -520493.098786 kJ/mol
# GULP energy per Si atom -12392.692828 kJ/mol
# Density = 1.765558 g / cm^3
# Si number density = 17.695858 Si / 1000 Ang^3
#
#
#
# Elastic Constant Matrix: (Units=GPa)
#
#
# Indices 1 2 3 4 5 6 
#
# 1 156.3269 56.1442 39.4918 0.0000 0.0000 0.0000
# 2 56.1442 81.3394 42.8618 0.0000 0.0000 0.0000
# 3 39.4918 42.8618 51.3805 0.0000 0.0000 0.0000
# 4 0.0000 0.0000 0.0000 21.5029 0.0000 0.0000
# 5 0.0000 0.0000 0.0000 0.0000 11.6630 0.0000
# 6 0.0000 0.0000 0.0000 0.0000 0.0000 29.0770
#
#
#
# Elastic Compliance Matrix: (Units=1/GPa)
#
#
# Indices 1 2 3 4 5 6 
#
# 1 0.008759 -0.004458 -0.003014 0.000000 0.000000 0.000000
# 2 -0.004458 0.024206 -0.016767 0.000000 0.000000 0.000000
# 3 -0.003014 -0.016767 0.035766 0.000000 0.000000 0.000000
# 4 0.000000 0.000000 0.000000 0.046505 0.000000 0.000000
# 5 0.000000 0.000000 0.000000 0.000000 0.085741 0.000000
# 6 0.000000 0.000000 0.000000 0.000000 0.000000 0.034391
#
#
# Mechanical properties :
#
#
# Convention : Reuss Voigt Hill
#
# Bulk Modulus (GPa) = 49.37065 62.89359 56.13212
# Shear Modulus (GPa) = 17.20596 22.48519 19.84557
#
# Velocity S-wave (km/s) = 3.12158 3.56848 3.35249
# Velocity P-wave (km/s) = 6.39941 7.25240 6.83922
#
# Compressibility (1/GPa) = 0.02025495
#
# Stress axis : x y z
#
# Youngs Moduli (GPa) = 114.16525 41.31135 27.95984
#
# Poissons Ratio (x) = 0.18417 0.08426
# Poissons Ratio (y) = 0.50895 0.46879
# Poissons Ratio (z) = 0.34404 0.69265
#
# Static dielectric constant tensor:
#      x y z
#    x 3.605220 0.000000 0.000000 
#    y 0.000000 3.399170 0.000000 
#    z 0.000000 0.000000 2.814040 
# 
# 
# High freq. dielectric constant tensor:
#      x y z
#    x 1.686490 0.000000 0.000000 
#    y 0.000000 1.695280 0.000000 
#    z 0.000000 0.000000 1.619420 
# 
# From -- ./inp_files/23691.got.cif
#   From: 2010.03.12/outbox.cif.g09.slc.cpg/sg67_12_cif.got.tgz:23691.got - 2010.04.10 22:41:39.
