data_PCOD8280385
_publ_section_title
;
Structure prediction by ZEFSAII (Michael W. Deem and Ramdas Pophale) SiO2 
 PCOD8280385
Probable space group: C M M A
;
_chemical_formula_sum "Si O2"
_cell_formula_units_Z 80
_cell_length_a 17.586147
_cell_length_b 9.580826
_cell_length_c 24.408465
_cell_angle_alpha 90.000000
_cell_angle_beta 90.000000
_cell_angle_gamma 90.000000
_cell_volume 4112.577738
_symmetry_space_group_name_H-M "C M M A"
_symmetry_group_IT_number 67
_symmetry_cell_setting 'orthorhombic'
loop_
_space_group_symop_operation_xyz
x,y,z
-x,1/2-y,z
x,-y,-z
-x,1/2+y,-z
-x,-y,-z
x,1/2+y,-z
-x,y,z
x,1/2-y,z
1/2+x,1/2+y,z
1/2-x,-y,z
1/2+x,1/2-y,-z
1/2-x,y,-z
1/2-x,1/2-y,-z
1/2+x,y,-z
1/2-x,1/2+y,z
1/2+x,-y,z
loop_
_atom_site_type_symbol
_atom_site_label
_atom_site_fract_x
_atom_site_fract_y
_atom_site_fract_z
Si Si1 0.589921 0.410743 0.948743
Si Si2 0.089140 0.250000 0.423818
Si Si3 0.840706 0.516758 0.377194
Si Si4 0.591231 0.750000 0.548819
Si Si5 0.321954 0.594515 0.738189
Si Si6 0.170921 0.915922 0.141495
O O1 0.500000 0.402341 0.951930
O O2 0.622193 0.250000 0.948066
O O3 0.611673 0.501308 0.895839
O O4 0.622724 0.500000 0.000000
O O5 0.119156 0.125863 0.387988
O O6 0.118754 0.250000 0.486021
O O7 0.000000 0.250000 0.425724
O O8 0.750000 0.500000 0.380215
O O9 0.871172 0.616960 0.423973
O O10 0.870628 0.565965 0.316842
O O11 0.500000 0.750000 0.555064
O O12 0.290010 0.750000 0.735928
O O13 0.250000 0.500000 0.735335
O O14 0.363725 0.571130 0.796631
O O15 0.179684 0.750000 0.125589
O O16 0.250000 0.000000 0.136431
#
# Coordination Sequence:
#
# PCOD8280385 Si02
#       6
#    16   8  16   8  16  16
#     4  10  21  38  59  84 117 157 198 242 293 342
#     4  11  25  41  57  83 119 157 188 235 304 361
#     4  11  22  38  62  89 113 147 199 247 290 347
#     4  11  23  41  61  81 117 157 190 235 300 363
#     4   9  19  35  58  86 115 149 187 236 293 340
#     4  10  20  36  59  87 117 151 193 237 289 349
#
# _framework density 19.452521000000001
#
# number of rings (size 3 to 8) (size 9 to 14) (size 15 to 20)
#    0.000    1.800    1.000    3.000    4.200    6.400 
#    0.000    4.000    0.000    0.000    0.000    0.000 
#    0.000    0.000    0.000    0.000    0.000    0.000 
#
# Total GULP energy -495557.800258 kJ/mol
# GULP energy per Si atom -12388.945006 kJ/mol
# Density = 1.940825 g / cm^3
# Si number density = 19.452521 Si / 1000 Ang^3
#
#
#
# Elastic Constant Matrix: (Units=GPa)
#
#
# Indices 1 2 3 4 5 6 
#
# 1 30.3338 18.8502 25.8103 0.0000 0.0000 0.0000
# 2 18.8502 148.3341 48.2460 0.0000 0.0000 0.0000
# 3 25.8103 48.2460 124.9816 0.0000 0.0000 0.0000
# 4 0.0000 0.0000 0.0000 39.2236 0.0000 0.0000
# 5 0.0000 0.0000 0.0000 0.0000 8.3433 0.0000
# 6 0.0000 0.0000 0.0000 0.0000 0.0000 32.9286
#
#
#
# Elastic Compliance Matrix: (Units=1/GPa)
#
#
# Indices 1 2 3 4 5 6 
#
# 1 0.040992 -0.002809 -0.007381 0.000000 0.000000 0.000000
# 2 -0.002809 0.007902 -0.002470 0.000000 0.000000 0.000000
# 3 -0.007381 -0.002470 0.010479 0.000000 0.000000 0.000000
# 4 0.000000 0.000000 0.000000 0.025495 0.000000 0.000000
# 5 0.000000 0.000000 0.000000 0.000000 0.119857 0.000000
# 6 0.000000 0.000000 0.000000 0.000000 0.000000 0.030369
#
#
# Mechanical properties :
#
#
# Convention : Reuss Voigt Hill
#
# Bulk Modulus (GPa) = 29.36587 54.38471 41.87529
# Shear Modulus (GPa) = 18.39822 30.14862 24.27342
#
# Velocity S-wave (km/s) = 3.07872 3.94109 3.53629
# Velocity P-wave (km/s) = 5.26944 6.98054 6.18446
#
# Compressibility (1/GPa) = 0.03405314
#
# Stress axis : x y z
#
# Youngs Moduli (GPa) = 24.39479 126.55145 95.42787
#
# Poissons Ratio (x) = 0.35542 0.70438
# Poissons Ratio (y) = 0.06851 0.23574
# Poissons Ratio (z) = 0.18006 0.31263
#
# Static dielectric constant tensor:
#      x y z
#    x 3.225000 0.000000 0.000000 
#    y 0.000000 4.362840 0.000000 
#    z 0.000000 0.000000 4.440270 
# 
# 
# High freq. dielectric constant tensor:
#      x y z
#    x 1.719480 0.000000 0.000000 
#    y 0.000000 1.785120 0.000000 
#    z 0.000000 0.000000 1.780870 
# 
# From -- ./inp_files/44451.got.cif
#   From: 2010.03.12/outbox.cif.g09.slc.cpg/sg67_23_cif.got.tgz:44451.got - 2010.04.10 22:41:39.
