data_PCOD8280499
_publ_section_title
;
Structure prediction by ZEFSAII (Michael W. Deem and Ramdas Pophale) SiO2 
 PCOD8280499
Probable space group: C M M A
;
_chemical_formula_sum "Si O2"
_cell_formula_units_Z 72
_cell_length_a 21.689215
_cell_length_b 8.535997
_cell_length_c 19.128862
_cell_angle_alpha 90.000000
_cell_angle_beta 90.000000
_cell_angle_gamma 90.000000
_cell_volume 3541.499801
_symmetry_space_group_name_H-M "C M M A"
_symmetry_group_IT_number 67
_symmetry_cell_setting 'orthorhombic'
loop_
_space_group_symop_operation_xyz
x,y,z
-x,1/2-y,z
x,-y,-z
-x,1/2+y,-z
-x,-y,-z
x,1/2+y,-z
-x,y,z
x,1/2-y,z
1/2+x,1/2+y,z
1/2-x,-y,z
1/2+x,1/2-y,-z
1/2-x,y,-z
1/2-x,1/2-y,-z
1/2+x,y,-z
1/2-x,1/2+y,z
1/2+x,-y,z
loop_
_atom_site_type_symbol
_atom_site_label
_atom_site_fract_x
_atom_site_fract_y
_atom_site_fract_z
Si Si1 0.500000 0.931172 0.924522
Si Si2 0.184626 0.936541 0.577503
Si Si3 0.400353 0.433723 0.825177
Si Si4 0.682936 0.063485 0.070212
Si Si5 0.430247 0.063897 0.670569
O O1 0.500000 0.750000 0.934736
O O2 0.558958 0.980767 0.881928
O O3 0.500000 0.000000 0.000000
O O4 0.187604 0.750000 0.577698
O O5 0.124427 0.998516 0.620013
O O6 0.175922 0.000000 0.500000
O O7 0.250000 0.000000 0.608886
O O8 0.412614 0.250000 0.825482
O O9 0.334195 0.482302 0.855127
O O10 0.413885 0.499489 0.747791
O O11 0.677693 0.250000 0.075135
O O12 0.750000 0.000000 0.058483
O O13 0.646275 0.000000 0.000000
O O14 0.500000 0.005784 0.649306
O O15 0.429437 0.250000 0.669538
#
# Coordination Sequence:
#
# PCOD8280499 Si02
#       5
#     8  16  16  16  16
#     4  12  24  38  56  82 111 148 195 244 291 344
#     4  10  20  37  62  90 122 157 198 243 292 353
#     4  11  21  38  60  82 111 150 191 238 295 353
#     4  11  22  38  57  81 111 146 191 242 296 355
#     4   9  19  37  61  87 117 157 199 243 298 358
#
# _framework density 20.330371
#
# number of rings (size 3 to 8) (size 9 to 14) (size 15 to 20)
#    0.000    1.556    1.111    6.333    0.000    1.333 
#    0.000    6.667    0.000    0.000    0.000    0.000 
#    0.000    0.000    0.000    0.000    0.000    0.000 
#
# Total GULP energy -445997.182671 kJ/mol
# GULP energy per Si atom -12388.810630 kJ/mol
# Density = 2.028410 g / cm^3
# Si number density = 20.330371 Si / 1000 Ang^3
#
#
#
# Elastic Constant Matrix: (Units=GPa)
#
#
# Indices 1 2 3 4 5 6 
#
# 1 144.2690 23.0367 83.9631 0.0000 0.0000 0.0000
# 2 23.0367 95.3058 33.6973 0.0000 0.0000 0.0000
# 3 83.9631 33.6973 129.2739 0.0000 0.0000 0.0000
# 4 0.0000 0.0000 0.0000 21.9770 0.0000 0.0000
# 5 0.0000 0.0000 0.0000 0.0000 57.8900 0.0000
# 6 0.0000 0.0000 0.0000 0.0000 0.0000 32.0117
#
#
#
# Elastic Compliance Matrix: (Units=1/GPa)
#
#
# Indices 1 2 3 4 5 6 
#
# 1 0.011146 -0.000148 -0.007201 0.000000 0.000000 0.000000
# 2 -0.000148 0.011560 -0.002917 0.000000 0.000000 0.000000
# 3 -0.007201 -0.002917 0.013173 0.000000 0.000000 0.000000
# 4 0.000000 0.000000 0.000000 0.045502 0.000000 0.000000
# 5 0.000000 0.000000 0.000000 0.000000 0.017274 0.000000
# 6 0.000000 0.000000 0.000000 0.000000 0.000000 0.031239
#
#
# Mechanical properties :
#
#
# Convention : Reuss Voigt Hill
#
# Bulk Modulus (GPa) = 65.16057 72.24922 68.70490
# Shear Modulus (GPa) = 32.14610 37.58586 34.86598
#
# Velocity S-wave (km/s) = 3.98073 4.30438 4.14571
# Velocity P-wave (km/s) = 7.29717 7.76649 7.53548
#
# Compressibility (1/GPa) = 0.01534670
#
# Stress axis : x y z
#
# Youngs Moduli (GPa) = 89.71991 86.50725 75.91514
#
# Poissons Ratio (x) = 0.01282 0.54663
# Poissons Ratio (y) = 0.01330 0.22144
# Poissons Ratio (z) = 0.64603 0.25234
#
# Static dielectric constant tensor:
#      x y z
#    x 3.478480 0.000000 0.000000 
#    y 0.000000 3.470660 0.000000 
#    z 0.000000 0.000000 3.907880 
# 
# 
# High freq. dielectric constant tensor:
#      x y z
#    x 1.809220 0.000000 0.000000 
#    y 0.000000 1.781010 0.000000 
#    z 0.000000 0.000000 1.794630 
# 
# From -- ./inp_files/31984.got.cif
#   From: 2010.03.12/outbox.cif.g09.slc.cpg/sg67_16_cif.got.tgz:31984.got - 2010.04.10 22:41:39.
