data_PCOD8280734
_publ_section_title
;
Structure prediction by ZEFSAII (Michael W. Deem and Ramdas Pophale) SiO2 
 PCOD8280734
Probable space group: C M M A
;
_chemical_formula_sum "Si O2"
_cell_formula_units_Z 96
_cell_length_a 16.872537
_cell_length_b 14.087573
_cell_length_c 21.255277
_cell_angle_alpha 90.000000
_cell_angle_beta 90.000000
_cell_angle_gamma 90.000000
_cell_volume 5052.232611
_symmetry_space_group_name_H-M "C M M A"
_symmetry_group_IT_number 67
_symmetry_cell_setting 'orthorhombic'
loop_
_space_group_symop_operation_xyz
x,y,z
-x,1/2-y,z
x,-y,-z
-x,1/2+y,-z
-x,-y,-z
x,1/2+y,-z
-x,y,z
x,1/2-y,z
1/2+x,1/2+y,z
1/2-x,-y,z
1/2+x,1/2-y,-z
1/2-x,y,-z
1/2-x,1/2-y,-z
1/2+x,y,-z
1/2-x,1/2+y,z
1/2+x,-y,z
loop_
_atom_site_type_symbol
_atom_site_label
_atom_site_fract_x
_atom_site_fract_y
_atom_site_fract_z
Si Si1 0.408939 0.490974 0.737442
Si Si2 0.408407 0.991189 0.070865
Si Si3 0.093301 0.139717 0.500444
Si Si4 0.656776 0.499060 0.599499
Si Si5 0.360926 0.141700 0.167149
Si Si6 0.173410 0.641540 0.832855
O O1 0.500000 0.462340 0.745681
O O2 0.388229 0.498516 0.664925
O O3 0.393209 0.592395 0.769803
O O4 0.357237 0.409047 0.769877
O O5 0.500000 0.961742 0.071403
O O6 0.396905 0.091430 0.105728
O O7 0.360175 0.908250 0.105023
O O8 0.376151 0.000000 0.000000
O O9 0.113905 0.250000 0.501376
O O10 0.130860 0.093149 0.562328
O O11 0.000000 0.119770 0.499322
O O12 0.132666 0.094921 0.438628
O O13 0.750000 0.500000 0.611040
O O14 0.389714 0.250000 0.167337
O O15 0.267073 0.132560 0.165514
O O16 0.145088 0.750000 0.831960
#
# Coordination Sequence:
#
# PCOD8280734 Si02
#       6
#    16  16  16  16  16  16
#     4  11  22  37  58  81 109 144 181 223 270 321
#     4  10  21  36  55  80 110 144 181 222 267 318
#     4  10  21  38  59  83 112 144 181 225 270 319
#     4  11  22  37  58  82 112 146 181 224 269 319
#     4  10  21  37  57  81 109 141 179 224 272 322
#     4  10  21  37  57  81 109 141 179 224 272 322
#
# _framework density 19.0015
#
# number of rings (size 3 to 8) (size 9 to 14) (size 15 to 20)
#    0.000    1.667    0.000    8.000    0.000    7.333 
#    0.000    3.333    0.000    0.000    0.000    0.000 
#    0.000    0.000    0.000    0.000    0.000    0.000 
#
# Total GULP energy -595413.561161 kJ/mol
# GULP energy per Si atom -12404.449191 kJ/mol
# Density = 1.895825 g / cm^3
# Si number density = 19.001500 Si / 1000 Ang^3
#
#
#
# Elastic Constant Matrix: (Units=GPa)
#
#
# Indices 1 2 3 4 5 6 
#
# 1 60.4265 9.5133 3.8659 0.0000 0.0000 0.0000
# 2 9.5133 128.8648 47.0106 0.0000 0.0000 0.0000
# 3 3.8659 47.0106 145.4419 0.0000 0.0000 0.0000
# 4 0.0000 0.0000 0.0000 14.9551 0.0000 0.0000
# 5 0.0000 0.0000 0.0000 0.0000 48.8183 0.0000
# 6 0.0000 0.0000 0.0000 0.0000 0.0000 21.6002
#
#
#
# Elastic Compliance Matrix: (Units=1/GPa)
#
#
# Indices 1 2 3 4 5 6 
#
# 1 0.016744 -0.001217 -0.000052 0.000000 0.000000 0.000000
# 2 -0.001217 0.008886 -0.002840 0.000000 0.000000 0.000000
# 3 -0.000052 -0.002840 0.007795 0.000000 0.000000 0.000000
# 4 0.000000 0.000000 0.000000 0.066867 0.000000 0.000000
# 5 0.000000 0.000000 0.000000 0.000000 0.020484 0.000000
# 6 0.000000 0.000000 0.000000 0.000000 0.000000 0.046296
#
#
# Mechanical properties :
#
#
# Convention : Reuss Voigt Hill
#
# Bulk Modulus (GPa) = 39.67091 50.61253 45.14172
# Shear Modulus (GPa) = 27.21959 35.36429 31.29194
#
# Velocity S-wave (km/s) = 3.78894 4.31876 4.06250
# Velocity P-wave (km/s) = 6.32965 7.18073 6.76858
#
# Compressibility (1/GPa) = 0.02520739
#
# Stress axis : x y z
#
# Youngs Moduli (GPa) = 59.72298 112.53771 128.28953
#
# Poissons Ratio (x) = 0.13699 0.00662
# Poissons Ratio (y) = 0.07270 0.36432
# Poissons Ratio (z) = 0.00308 0.31958
#
# Static dielectric constant tensor:
#      x y z
#    x 3.614730 0.000000 0.000000 
#    y 0.000000 3.601380 0.000000 
#    z 0.000000 0.000000 3.527460 
# 
# 
# High freq. dielectric constant tensor:
#      x y z
#    x 1.758220 0.000000 0.000000 
#    y 0.000000 1.739970 0.000000 
#    z 0.000000 0.000000 1.742570 
# 
# From -- ./inp_files/38405.got.cif
#   From: 2010.03.12/outbox.cif.g09.slc.cpg/sg67_20_cif.got.tgz:38405.got - 2010.04.10 22:41:39.
