data_PCOD8280000
_publ_section_title
;
Structure prediction by ZEFSAII (Michael W. Deem and Ramdas Pophale) SiO2 
 PCOD8280000
Probable space group: C M M A
;
_chemical_formula_sum "Si O2"
_cell_formula_units_Z 112
_cell_length_a 18.748970
_cell_length_b 20.688607
_cell_length_c 15.638839
_cell_angle_alpha 90.000000
_cell_angle_beta 90.000000
_cell_angle_gamma 90.000000
_cell_volume 6066.150385
_symmetry_space_group_name_H-M "C M M A"
_symmetry_group_IT_number 67
_symmetry_cell_setting 'orthorhombic'
loop_
_space_group_symop_operation_xyz
x,y,z
-x,1/2-y,z
x,-y,-z
-x,1/2+y,-z
-x,-y,-z
x,1/2+y,-z
-x,y,z
x,1/2-y,z
1/2+x,1/2+y,z
1/2-x,-y,z
1/2+x,1/2-y,-z
1/2-x,y,-z
1/2-x,1/2-y,-z
1/2+x,y,-z
1/2-x,1/2+y,z
1/2+x,-y,z
loop_
_atom_site_type_symbol
_atom_site_label
_atom_site_fract_x
_atom_site_fract_y
_atom_site_fract_z
Si Si1 0.920960 0.491007 0.270388
Si Si2 0.418135 0.120428 0.860637
Si Si3 0.331912 0.426100 0.015577
Si Si4 0.197696 0.321852 0.253109
Si Si5 0.200297 0.937016 0.198862
Si Si6 0.823077 0.322019 0.453673
Si Si7 0.918432 0.437502 0.452488
O O1 0.914308 0.449776 0.183661
O O2 0.859402 0.545429 0.269734
O O3 0.907870 0.444226 0.350757
O O4 0.000000 0.522576 0.277321
O O5 0.500000 0.144024 0.868956
O O6 0.374713 0.170521 0.801864
O O7 0.382866 0.116873 0.955065
O O8 0.344048 0.413267 0.115984
O O9 0.350046 0.500000 0.000000
O O10 0.250000 0.407796 0.000000
O O11 0.228489 0.250000 0.233267
O O12 0.253297 0.377552 0.230506
O O13 0.182188 0.327832 0.352479
O O14 0.250000 0.000000 0.178153
O O15 0.847981 0.250000 0.480128
O O16 0.750000 0.339677 0.500000
O O17 0.880225 0.373518 0.486991
O O18 0.885649 0.500000 0.500000
O O19 0.000000 0.429602 0.479213
#
# Coordination Sequence:
#
# PCOD8280000 Si02
#       7
#    16  16  16  16  16  16  16
#     4  10  20  34  55  84 115 145 188 237 286 341
#     4  11  21  35  55  85 119 150 190 239 292 343
#     4  11  17  31  51  81 115 149 190 238 283 332
#     4  11  23  39  59  84 113 152 192 236 286 339
#     4  12  19  34  59  82 114 154 193 235 285 345
#     4  10  22  39  57  84 117 148 192 238 278 334
#     4  10  21  37  56  84 118 150 185 230 286 344
#
# _framework density 18.463108999999999
#
# number of rings (size 3 to 8) (size 9 to 14) (size 15 to 20)
#    0.000    1.286    7.143    0.000    2.000    1.714 
#    0.000    2.857    0.000    0.429    0.000    0.000 
#    0.000    0.000    0.000    0.000    0.000    0.000 
#
# Total GULP energy -694203.968473 kJ/mol
# GULP energy per Si atom -12396.499437 kJ/mol
# Density = 1.842109 g / cm^3
# Si number density = 18.463109 Si / 1000 Ang^3
#
#
#
# Elastic Constant Matrix: (Units=GPa)
#
#
# Indices 1 2 3 4 5 6 
#
# 1 105.2390 63.3034 35.7889 0.0000 0.0000 0.0000
# 2 63.3034 118.1716 28.2183 0.0000 0.0000 0.0000
# 3 35.7889 28.2183 48.8593 0.0000 0.0000 0.0000
# 4 0.0000 0.0000 0.0000 -160.4704 0.0000 0.0000
# 5 0.0000 0.0000 0.0000 0.0000 24.3366 0.0000
# 6 0.0000 0.0000 0.0000 0.0000 0.0000 25.9316
#
#
#
# Elastic Compliance Matrix: (Units=1/GPa)
#
#
# Indices 1 2 3 4 5 6 
#
# 1 0.016345 -0.006840 -0.008022 0.000000 0.000000 0.000000
# 2 -0.006840 0.012679 -0.002312 0.000000 0.000000 0.000000
# 3 -0.008022 -0.002312 0.027678 0.000000 0.000000 0.000000
# 4 0.000000 0.000000 0.000000 -0.006232 0.000000 0.000000
# 5 0.000000 0.000000 0.000000 0.000000 0.041090 0.000000
# 6 0.000000 0.000000 0.000000 0.000000 0.000000 0.038563
#
#
# Mechanical properties :
#
#
# Convention : Reuss Voigt Hill
#
# Bulk Modulus (GPa) = 44.73611 58.54348 51.63979
# Shear Modulus (GPa) = 29.08288 -12.37651 8.35319
#
# Velocity S-wave (km/s) = 3.97317 -2.59190 2.12934
# Velocity P-wave (km/s) = 6.73281 4.77702 5.83741
#
# Compressibility (1/GPa) = 0.02235331
#
# Stress axis : x y z
#
# Youngs Moduli (GPa) = 61.18193 78.87317 36.12952
#
# Poissons Ratio (x) = 0.53950 0.28983
# Poissons Ratio (y) = 0.41849 0.08353
# Poissons Ratio (z) = 0.49079 0.18236
#
# Static dielectric constant tensor:
#      x y z
#    x 3.413700 0.000000 0.000000 
#    y 0.000000 3.290820 0.000000 
#    z 0.000000 0.000000 3.530260 
# 
# 
# High freq. dielectric constant tensor:
#      x y z
#    x 1.710630 0.000000 0.000000 
#    y 0.000000 1.688790 0.000000 
#    z 0.000000 0.000000 1.720910 
# 
# From -- ./inp_files/34464.got.cif
#   From: 2010.03.12/outbox.cif.g09.slc.cpg/sg67_18_cif.got.tgz:34464.got - 2010.04.10 22:41:39.
