data_PCOD8280603
_publ_section_title
;
Structure prediction by ZEFSAII (Michael W. Deem and Ramdas Pophale) SiO2 
 PCOD8280603
Probable space group: C M M A
;
_chemical_formula_sum "Si O2"
_cell_formula_units_Z 88
_cell_length_a 9.687995
_cell_length_b 30.956506
_cell_length_c 16.549544
_cell_angle_alpha 90.000000
_cell_angle_beta 90.000000
_cell_angle_gamma 90.000000
_cell_volume 4963.315410
_symmetry_space_group_name_H-M "C M M A"
_symmetry_group_IT_number 67
_symmetry_cell_setting 'orthorhombic'
loop_
_space_group_symop_operation_xyz
x,y,z
-x,1/2-y,z
x,-y,-z
-x,1/2+y,-z
-x,-y,-z
x,1/2+y,-z
-x,y,z
x,1/2-y,z
1/2+x,1/2+y,z
1/2-x,-y,z
1/2+x,1/2-y,-z
1/2-x,y,-z
1/2-x,1/2-y,-z
1/2+x,y,-z
1/2-x,1/2+y,z
1/2+x,-y,z
loop_
_atom_site_type_symbol
_atom_site_label
_atom_site_fract_x
_atom_site_fract_y
_atom_site_fract_z
Si Si1 0.000000 0.438930 0.922639
Si Si2 0.500000 0.040971 0.899268
Si Si3 0.351410 0.558309 0.430284
Si Si4 0.836477 0.637890 0.678839
Si Si5 0.262083 0.574558 0.809518
Si Si6 0.338981 0.199236 0.420924
Si Si7 0.250000 0.500000 0.301368
O O1 0.000000 0.490248 0.914167
O O2 0.131213 0.415881 0.881371
O O3 0.000000 0.430534 0.018543
O O4 0.629550 0.052447 0.846400
O O5 0.500000 0.561656 0.471799
O O6 0.250000 0.543350 0.500000
O O7 0.309343 0.604165 0.393015
O O8 0.361860 0.523241 0.358570
O O9 0.779569 0.618513 0.763344
O O10 0.740277 0.678653 0.656223
O O11 0.000000 0.649629 0.686675
O O12 0.325671 0.537725 0.750272
O O13 0.500000 0.183494 0.428809
O O14 0.336840 0.250000 0.406350
O O15 0.250000 0.186655 0.500000
#
# Coordination Sequence:
#
# PCOD8280603 Si02
#       7
#     8   8  16  16  16  16   8
#     4  11  22  32  58  78 103 146 185 225 272 333
#     4  11  20  38  52  78 109 140 185 227 272 327
#     4  10  22  36  47  66  93 130 178 223 261 302
#     4  10  21  36  55  75 107 143 175 224 268 317
#     4  11  21  35  52  76 107 139 180 222 271 320
#     4  10  21  37  58  85 115 144 178 218 264 321
#     4  10  21  32  49  64  96 136 174 222 263 304
#
# _framework density 17.730084000000002
#
# number of rings (size 3 to 8) (size 9 to 14) (size 15 to 20)
#    0.000    1.636    2.727    1.909    3.818    6.182 
#    3.273    0.000    0.000    0.000    0.000    0.000 
#    0.000    4.364    0.000    0.000    0.000    0.000 
#
# Total GULP energy -545351.606569 kJ/mol
# GULP energy per Si atom -12394.354695 kJ/mol
# Density = 1.768973 g / cm^3
# Si number density = 17.730084 Si / 1000 Ang^3
#
#
#
# Elastic Constant Matrix: (Units=GPa)
#
#
# Indices 1 2 3 4 5 6 
#
# 1 111.6616 27.0928 37.3430 0.0000 0.0000 0.0000
# 2 27.0928 46.9864 24.9299 0.0000 0.0000 0.0000
# 3 37.3430 24.9299 86.4018 0.0000 0.0000 0.0000
# 4 0.0000 0.0000 0.0000 24.6855 0.0000 0.0000
# 5 0.0000 0.0000 0.0000 0.0000 5.0014 0.0000
# 6 0.0000 0.0000 0.0000 0.0000 0.0000 23.7790
#
#
#
# Elastic Compliance Matrix: (Units=1/GPa)
#
#
# Indices 1 2 3 4 5 6 
#
# 1 0.011257 -0.004616 -0.003533 0.000000 0.000000 0.000000
# 2 -0.004616 0.027023 -0.005802 0.000000 0.000000 0.000000
# 3 -0.003533 -0.005802 0.014775 0.000000 0.000000 0.000000
# 4 0.000000 0.000000 0.000000 0.040510 0.000000 0.000000
# 5 0.000000 0.000000 0.000000 0.000000 0.199946 0.000000
# 6 0.000000 0.000000 0.000000 0.000000 0.000000 0.042054
#
#
# Mechanical properties :
#
#
# Convention : Reuss Voigt Hill
#
# Bulk Modulus (GPa) = 39.75827 47.08680 43.42253
# Shear Modulus (GPa) = 13.44621 21.07212 17.25916
#
# Velocity S-wave (km/s) = 2.75686 3.45120 3.12338
# Velocity P-wave (km/s) = 5.71022 6.51891 6.12792
#
# Compressibility (1/GPa) = 0.02515200
#
# Stress axis : x y z
#
# Youngs Moduli (GPa) = 88.83037 37.00557 67.68166
#
# Poissons Ratio (x) = 0.17083 0.23915
# Poissons Ratio (y) = 0.41007 0.39268
# Poissons Ratio (z) = 0.31388 0.21470
#
# Static dielectric constant tensor:
#      x y z
#    x 3.311990 0.000000 0.000000 
#    y 0.000000 3.047820 0.000000 
#    z 0.000000 0.000000 3.400240 
# 
# 
# High freq. dielectric constant tensor:
#      x y z
#    x 1.696460 0.000000 0.000000 
#    y 0.000000 1.648170 0.000000 
#    z 0.000000 0.000000 1.679910 
# 
# From -- ./inp_files/32492.got.cif
#   From: 2010.03.12/outbox.cif.g09.slc.cpg/sg67_17_cif.got.tgz:32492.got - 2010.04.10 22:41:39.
