data_PCOD8280152
_publ_section_title
;
Structure prediction by ZEFSAII (Michael W. Deem and Ramdas Pophale) SiO2 
 PCOD8280152
Probable space group: C M M A
;
_chemical_formula_sum "Si O2"
_cell_formula_units_Z 112
_cell_length_a 14.797418
_cell_length_b 23.509520
_cell_length_c 16.213873
_cell_angle_alpha 90.000000
_cell_angle_beta 90.000000
_cell_angle_gamma 90.000000
_cell_volume 5640.485292
_symmetry_space_group_name_H-M "C M M A"
_symmetry_group_IT_number 67
_symmetry_cell_setting 'orthorhombic'
loop_
_space_group_symop_operation_xyz
x,y,z
-x,1/2-y,z
x,-y,-z
-x,1/2+y,-z
-x,-y,-z
x,1/2+y,-z
-x,y,z
x,1/2-y,z
1/2+x,1/2+y,z
1/2-x,-y,z
1/2+x,1/2-y,-z
1/2-x,y,-z
1/2-x,1/2-y,-z
1/2+x,y,-z
1/2-x,1/2+y,z
1/2+x,-y,z
loop_
_atom_site_type_symbol
_atom_site_label
_atom_site_fract_x
_atom_site_fract_y
_atom_site_fract_z
Si Si1 0.392515 0.186345 0.343486
Si Si2 0.605031 0.815370 0.475442
Si Si3 0.396957 0.630998 0.314297
Si Si4 0.343362 0.980887 0.235760
Si Si5 0.394319 0.684104 0.147089
Si Si6 0.769042 0.906878 0.909153
Si Si7 0.601349 0.102100 0.201786
O O1 0.500000 0.185509 0.349356
O O2 0.360814 0.250000 0.317162
O O3 0.351774 0.171286 0.434494
O O4 0.359720 0.139408 0.277948
O O5 0.500000 0.830256 0.481602
O O6 0.620980 0.750000 0.452217
O O7 0.650633 0.852458 0.401285
O O8 0.500000 0.649804 0.322331
O O9 0.390209 0.563976 0.296163
O O10 0.356583 0.667086 0.237984
O O11 0.319922 0.954317 0.145726
O O12 0.250000 0.000000 0.278402
O O13 0.406795 0.035645 0.226148
O O14 0.500000 0.667719 0.137638
O O15 0.377969 0.750000 0.129875
O O16 0.334398 0.648188 0.082586
O O17 0.671907 0.889255 0.871709
O O18 0.750000 0.931437 0.000000
O O19 0.500000 0.122268 0.176226
#
# Coordination Sequence:
#
# PCOD8280152 Si02
#       7
#    16  16  16  16  16  16  16
#     4   8  15  29  49  75 106 137 170 209 253 304
#     4   8  13  23  44  75 106 133 166 210 254 299
#     4   9  15  26  48  76 103 133 173 218 261 305
#     4   9  19  34  50  69  99 137 174 218 268 316
#     4   9  18  33  54  80 111 147 181 214 260 316
#     4  10  22  38  56  79 106 134 173 223 271 318
#     4  10  20  35  56  79 104 138 178 218 265 320
#
# _framework density 19.856448
#
# number of rings (size 3 to 8) (size 9 to 14) (size 15 to 20)
#    0.000    3.000    0.000    1.714    0.000    6.286 
#    0.000    1.429    0.000   15.429    0.000   19.000 
#    0.000    0.000    0.000    0.000    0.000    0.000 
#
# Total GULP energy -693955.890413 kJ/mol
# GULP energy per Si atom -12392.069472 kJ/mol
# Density = 1.981125 g / cm^3
# Si number density = 19.856448 Si / 1000 Ang^3
#
#
#
# Elastic Constant Matrix: (Units=GPa)
#
#
# Indices 1 2 3 4 5 6 
#
# 1 43.8591 16.9421 16.5892 0.0000 0.0000 0.0000
# 2 16.9421 104.5151 50.2915 0.0000 0.0000 0.0000
# 3 16.5892 50.2915 124.3633 0.0000 0.0000 0.0000
# 4 0.0000 0.0000 0.0000 19.3251 0.0000 0.0000
# 5 0.0000 0.0000 0.0000 0.0000 15.7918 0.0000
# 6 0.0000 0.0000 0.0000 0.0000 0.0000 25.8424
#
#
#
# Elastic Compliance Matrix: (Units=1/GPa)
#
#
# Indices 1 2 3 4 5 6 
#
# 1 0.024751 -0.003009 -0.002085 0.000000 0.000000 0.000000
# 2 -0.003009 0.012245 -0.004551 0.000000 0.000000 0.000000
# 3 -0.002085 -0.004551 0.010159 0.000000 0.000000 0.000000
# 4 0.000000 0.000000 0.000000 0.051746 0.000000 0.000000
# 5 0.000000 0.000000 0.000000 0.000000 0.063324 0.000000
# 6 0.000000 0.000000 0.000000 0.000000 0.000000 0.038696
#
#
# Mechanical properties :
#
#
# Convention : Reuss Voigt Hill
#
# Bulk Modulus (GPa) = 35.88463 48.93145 42.40804
# Shear Modulus (GPa) = 21.78648 24.78616 23.28632
#
# Velocity S-wave (km/s) = 3.31599 3.53692 3.42823
# Velocity P-wave (km/s) = 5.72471 6.43240 6.08885
#
# Compressibility (1/GPa) = 0.02786708
#
# Stress axis : x y z
#
# Youngs Moduli (GPa) = 40.40212 81.66295 98.43229
#
# Poissons Ratio (x) = 0.24573 0.20521
# Poissons Ratio (y) = 0.12157 0.44792
# Poissons Ratio (z) = 0.08423 0.37161
#
# Static dielectric constant tensor:
#      x y z
#    x 3.428750 0.000000 0.000000 
#    y 0.000000 3.667060 0.000000 
#    z 0.000000 0.000000 3.788400 
# 
# 
# High freq. dielectric constant tensor:
#      x y z
#    x 1.763640 0.000000 0.000000 
#    y 0.000000 1.767360 0.000000 
#    z 0.000000 0.000000 1.755700 
# 
# From -- ./inp_files/27515.got.cif
#   From: 2010.03.12/outbox.cif.g09.slc.cpg/sg67_14_cif.got.tgz:27515.got - 2010.04.10 22:41:39.
