data_PCOD8280361
_publ_section_title
;
Structure prediction by ZEFSAII (Michael W. Deem and Ramdas Pophale) SiO2 
 PCOD8280361
Probable space group: C M M A
;
_chemical_formula_sum "Si O2"
_cell_formula_units_Z 104
_cell_length_a 19.730587
_cell_length_b 9.107810
_cell_length_c 29.340759
_cell_angle_alpha 90.000000
_cell_angle_beta 90.000000
_cell_angle_gamma 90.000000
_cell_volume 5272.605913
_symmetry_space_group_name_H-M "C M M A"
_symmetry_group_IT_number 67
_symmetry_cell_setting 'orthorhombic'
loop_
_space_group_symop_operation_xyz
x,y,z
-x,1/2-y,z
x,-y,-z
-x,1/2+y,-z
-x,-y,-z
x,1/2+y,-z
-x,y,z
x,1/2-y,z
1/2+x,1/2+y,z
1/2-x,-y,z
1/2+x,1/2-y,-z
1/2-x,y,-z
1/2-x,1/2-y,-z
1/2+x,y,-z
1/2-x,1/2+y,z
1/2+x,-y,z
loop_
_atom_site_type_symbol
_atom_site_label
_atom_site_fract_x
_atom_site_fract_y
_atom_site_fract_z
Si Si1 0.853609 0.577650 0.450983
Si Si2 0.680276 0.422831 0.224642
Si Si3 0.078596 0.079447 0.289731
Si Si4 0.000000 0.913377 0.454871
Si Si5 0.922996 0.077461 0.954562
Si Si6 0.682467 0.079068 0.119951
Si Si7 0.687217 0.578964 0.363896
O O1 0.843830 0.500000 0.500000
O O2 0.834726 0.750000 0.455340
O O3 0.809470 0.494978 0.413770
O O4 0.929532 0.555005 0.429350
O O5 0.687621 0.250000 0.233658
O O6 0.750000 0.500000 0.240644
O O7 0.615193 0.484148 0.251165
O O8 0.665527 0.460508 0.172043
O O9 0.083715 0.250000 0.276076
O O10 0.116969 0.050474 0.337485
O O11 0.000000 0.030577 0.294755
O O12 0.000000 0.750000 0.473195
O O13 0.000000 0.000000 0.500000
O O14 0.917120 0.250000 0.962208
O O15 0.879480 0.024699 0.911285
O O16 0.000000 0.028750 0.944717
O O17 0.895057 0.000000 0.000000
O O18 0.695448 0.250000 0.114061
O O19 0.750000 0.000000 0.102921
O O20 0.702491 0.750000 0.368931
O O21 0.750000 0.500000 0.337142
#
# Coordination Sequence:
#
# PCOD8280361 Si02
#       7
#    16  16  16   8  16  16  16
#     4  10  20  36  58  86 117 149 187 228 273 324
#     4  10  20  36  60  87 115 150 189 231 282 342
#     4  10  23  42  62  87 118 149 184 231 284 336
#     4   8  16  30  50  78 110 142 174 214 260 310
#     4   9  18  33  51  72 103 144 188 234 282 332
#     4   9  19  34  53  79 110 144 183 229 280 332
#     4  11  24  41  61  84 114 151 188 227 276 330
#
# _framework density 19.724592999999999
#
# number of rings (size 3 to 8) (size 9 to 14) (size 15 to 20)
#    0.000    2.308    0.000    1.846    1.077    5.846 
#    0.000    4.615    0.000    1.846    0.000    0.000 
#    0.000    0.000    0.000    0.000    0.000    0.000 
#
# Total GULP energy -644510.056838 kJ/mol
# GULP energy per Si atom -12394.424170 kJ/mol
# Density = 1.967970 g / cm^3
# Si number density = 19.724593 Si / 1000 Ang^3
#
#
#
# Elastic Constant Matrix: (Units=GPa)
#
#
# Indices 1 2 3 4 5 6 
#
# 1 144.8845 60.9030 64.9357 0.0000 0.0000 0.0000
# 2 60.9030 88.5340 55.2058 0.0000 0.0000 0.0000
# 3 64.9357 55.2058 106.5773 0.0000 0.0000 0.0000
# 4 0.0000 0.0000 0.0000 30.3185 0.0000 0.0000
# 5 0.0000 0.0000 0.0000 0.0000 29.2789 0.0000
# 6 0.0000 0.0000 0.0000 0.0000 0.0000 33.1515
#
#
#
# Elastic Compliance Matrix: (Units=1/GPa)
#
#
# Indices 1 2 3 4 5 6 
#
# 1 0.010762 -0.004896 -0.004021 0.000000 0.000000 0.000000
# 2 -0.004896 0.018911 -0.006813 0.000000 0.000000 0.000000
# 3 -0.004021 -0.006813 0.015362 0.000000 0.000000 0.000000
# 4 0.000000 0.000000 0.000000 0.032983 0.000000 0.000000
# 5 0.000000 0.000000 0.000000 0.000000 0.034154 0.000000
# 6 0.000000 0.000000 0.000000 0.000000 0.000000 0.030165
#
#
# Mechanical properties :
#
#
# Convention : Reuss Voigt Hill
#
# Bulk Modulus (GPa) = 73.66242 78.00943 75.83593
# Shear Modulus (GPa) = 28.03905 29.14653 28.59279
#
# Velocity S-wave (km/s) = 3.77441 3.84822 3.81149
# Velocity P-wave (km/s) = 7.51142 7.70586 7.60926
#
# Compressibility (1/GPa) = 0.01357544
#
# Stress axis : x y z
#
# Youngs Moduli (GPa) = 92.91593 52.87864 65.09630
#
# Poissons Ratio (x) = 0.25890 0.26177
# Poissons Ratio (y) = 0.45492 0.44348
# Poissons Ratio (z) = 0.37364 0.36025
#
# Static dielectric constant tensor:
#      x y z
#    x 3.999140 0.000000 0.000000 
#    y 0.000000 3.579470 0.000000 
#    z 0.000000 0.000000 3.516560 
# 
# 
# High freq. dielectric constant tensor:
#      x y z
#    x 1.780900 0.000000 0.000000 
#    y 0.000000 1.771140 0.000000 
#    z 0.000000 0.000000 1.759210 
# 
# From -- ./inp_files/45896.got.cif
#   From: 2010.03.12/outbox.cif.g09.slc.cpg/sg67_23_cif.got.tgz:45896.got - 2010.04.10 22:41:39.
