data_PCOD8280567
_publ_section_title
;
Structure prediction by ZEFSAII (Michael W. Deem and Ramdas Pophale) SiO2 
 PCOD8280567
Probable space group: C M M A
;
_chemical_formula_sum "Si O2"
_cell_formula_units_Z 64
_cell_length_a 16.299036
_cell_length_b 16.376507
_cell_length_c 11.380898
_cell_angle_alpha 90.000000
_cell_angle_beta 90.000000
_cell_angle_gamma 90.000000
_cell_volume 3037.803829
_symmetry_space_group_name_H-M "C M M A"
_symmetry_group_IT_number 67
_symmetry_cell_setting 'orthorhombic'
loop_
_space_group_symop_operation_xyz
x,y,z
-x,1/2-y,z
x,-y,-z
-x,1/2+y,-z
-x,-y,-z
x,1/2+y,-z
-x,y,z
x,1/2-y,z
1/2+x,1/2+y,z
1/2-x,-y,z
1/2+x,1/2-y,-z
1/2-x,y,-z
1/2-x,1/2-y,-z
1/2+x,y,-z
1/2-x,1/2+y,z
1/2+x,-y,z
loop_
_atom_site_type_symbol
_atom_site_label
_atom_site_fract_x
_atom_site_fract_y
_atom_site_fract_z
Si Si1 0.861345 0.909471 0.455688
Si Si2 0.208255 0.343518 0.332845
Si Si3 0.827903 0.846110 0.927832
Si Si4 0.000000 0.406294 0.971067
Si Si5 0.000000 0.846285 0.289739
O O1 0.864879 0.850918 0.571359
O O2 0.775466 0.905332 0.385679
O O3 0.922340 0.874332 0.361197
O O4 0.882666 0.000000 0.500000
O O5 0.240101 0.250000 0.325469
O O6 0.179020 0.376216 0.206646
O O7 0.821239 0.750000 0.933714
O O8 0.750000 0.883722 0.000000
O O9 0.916657 0.869391 0.976455
O O10 0.000000 0.392736 0.833053
O O11 0.000000 0.500000 0.000000
O O12 0.000000 0.750000 0.265866
#
# Coordination Sequence:
#
# PCOD8280567 Si02
#       5
#    16  16  16   8   8
#     4  11  23  39  63  96 132 168 218 279 340 399
#     4  10  20  38  65  93 128 170 220 270 331 415
#     4  10  22  43  70  97 131 182 235 282 343 416
#     4  12  28  44  66 102 144 177 230 294 353 422
#     4  12  25  44  68  91 131 183 230 275 346 429
#
# _framework density 21.06785
#
# number of rings (size 3 to 8) (size 9 to 14) (size 15 to 20)
#    0.000    1.250    0.000    7.500    3.500    3.500 
#    4.500    1.250    0.000    0.000    0.000    0.000 
#    0.000    0.000    0.000    0.000    0.000    0.000 
#
# Total GULP energy -396626.781419 kJ/mol
# GULP energy per Si atom -12394.586919 kJ/mol
# Density = 2.101990 g / cm^3
# Si number density = 21.067850 Si / 1000 Ang^3
#
#
#
# Elastic Constant Matrix: (Units=GPa)
#
#
# Indices 1 2 3 4 5 6 
#
# 1 121.6971 13.3463 89.0069 0.0000 0.0000 0.0000
# 2 13.3463 77.0841 38.5155 0.0000 0.0000 0.0000
# 3 89.0069 38.5155 229.0459 0.0000 0.0000 0.0000
# 4 0.0000 0.0000 0.0000 32.9311 0.0000 0.0000
# 5 0.0000 0.0000 0.0000 0.0000 18.1793 0.0000
# 6 0.0000 0.0000 0.0000 0.0000 0.0000 31.3867
#
#
#
# Elastic Compliance Matrix: (Units=1/GPa)
#
#
# Indices 1 2 3 4 5 6 
#
# 1 0.011485 0.000264 -0.004507 0.000000 0.000000 0.000000
# 2 0.000264 0.014169 -0.002485 0.000000 0.000000 0.000000
# 3 -0.004507 -0.002485 0.006535 0.000000 0.000000 0.000000
# 4 0.000000 0.000000 0.000000 0.030366 0.000000 0.000000
# 5 0.000000 0.000000 0.000000 0.000000 0.055008 0.000000
# 6 0.000000 0.000000 0.000000 0.000000 0.000000 0.031861
#
#
# Mechanical properties :
#
#
# Convention : Reuss Voigt Hill
#
# Bulk Modulus (GPa) = 53.38577 78.84048 66.11313
# Shear Modulus (GPa) = 29.56397 35.62999 32.59698
#
# Velocity S-wave (km/s) = 3.75009 4.11688 3.93776
# Velocity P-wave (km/s) = 6.64424 7.75253 7.21968
#
# Compressibility (1/GPa) = 0.01873158
#
# Stress axis : x y z
#
# Youngs Moduli (GPa) = 87.07200 70.57729 153.01437
#
# Poissons Ratio (x) = -0.01861 0.68968
# Poissons Ratio (y) = -0.02296 0.38025
# Poissons Ratio (z) = 0.39246 0.17539
#
# Static dielectric constant tensor:
#      x y z
#    x 4.366930 0.000000 0.000000 
#    y 0.000000 4.080370 0.000000 
#    z 0.000000 0.000000 4.386020 
# 
# 
# High freq. dielectric constant tensor:
#      x y z
#    x 1.821700 0.000000 0.000000 
#    y 0.000000 1.820300 0.000000 
#    z 0.000000 0.000000 1.852700 
# 
# From -- ./inp_files/19000.got.cif
#   From: 2010.03.12/outbox.cif.g09.slc.cpg/sg67_10_cif.got.tgz:19000.got - 2010.04.10 22:41:39.
