data_PCOD8280561
_publ_section_title
;
Structure prediction by ZEFSAII (Michael W. Deem and Ramdas Pophale) SiO2 
 PCOD8280561
Probable space group: C M M A
;
_chemical_formula_sum "Si O2"
_cell_formula_units_Z 80
_cell_length_a 23.723889
_cell_length_b 8.611964
_cell_length_c 20.257480
_cell_angle_alpha 90.000000
_cell_angle_beta 90.000000
_cell_angle_gamma 90.000000
_cell_volume 4138.791113
_symmetry_space_group_name_H-M "C M M A"
_symmetry_group_IT_number 67
_symmetry_cell_setting 'orthorhombic'
loop_
_space_group_symop_operation_xyz
x,y,z
-x,1/2-y,z
x,-y,-z
-x,1/2+y,-z
-x,-y,-z
x,1/2+y,-z
-x,y,z
x,1/2-y,z
1/2+x,1/2+y,z
1/2-x,-y,z
1/2+x,1/2-y,-z
1/2-x,y,-z
1/2-x,1/2-y,-z
1/2+x,y,-z
1/2-x,1/2+y,z
1/2+x,-y,z
loop_
_atom_site_type_symbol
_atom_site_label
_atom_site_fract_x
_atom_site_fract_y
_atom_site_fract_z
Si Si1 0.384253 0.433497 0.431088
Si Si2 0.688690 0.931869 0.315167
Si Si3 0.000000 0.434787 0.381292
Si Si4 0.000000 0.566326 0.767020
Si Si5 0.380673 0.069236 0.816417
Si Si6 0.809687 0.568373 0.070084
O O1 0.360981 0.500000 0.500000
O O2 0.389365 0.250000 0.434371
O O3 0.339885 0.480738 0.375597
O O4 0.445255 0.505819 0.418610
O O5 0.691388 0.750000 0.330976
O O6 0.652999 0.966158 0.250007
O O7 0.750000 0.000000 0.302840
O O8 0.000000 0.502862 0.306888
O O9 0.000000 0.250000 0.381808
O O10 0.055224 0.511644 0.806413
O O11 0.000000 0.750000 0.759453
O O12 0.377340 0.250000 0.835032
O O13 0.356728 0.969612 0.876269
O O14 0.802488 0.750000 0.062279
O O15 0.750000 0.500000 0.093673
O O16 0.828755 0.500000 0.000000
#
# Coordination Sequence:
#
# PCOD8280561 Si02
#       6
#    16  16   8   8  16  16
#     4  12  25  41  61  88 119 156 200 250 303 360
#     4  11  23  40  62  88 120 157 199 247 301 363
#     4  11  20  40  65  90 119 155 198 246 303 356
#     4   9  18  36  63  90 119 157 193 238 294 349
#     4  10  20  38  63  91 122 157 197 242 294 350
#     4  11  22  38  61  90 123 160 201 246 294 347
#
# _framework density 19.329315999999999
#
# number of rings (size 3 to 8) (size 9 to 14) (size 15 to 20)
#    0.000    1.200    2.000    6.000    0.000    3.600 
#    0.000    3.000    0.000    0.000    0.000    0.000 
#    0.000    0.000    0.000    0.000    0.000    0.000 
#
# Total GULP energy -496217.176853 kJ/mol
# GULP energy per Si atom -12405.429421 kJ/mol
# Density = 1.928532 g / cm^3
# Si number density = 19.329316 Si / 1000 Ang^3
#
#
#
# Elastic Constant Matrix: (Units=GPa)
#
#
# Indices 1 2 3 4 5 6 
#
# 1 133.9298 48.4119 53.1642 0.0000 0.0000 0.0000
# 2 48.4119 127.2343 55.7355 0.0000 0.0000 0.0000
# 3 53.1642 55.7355 117.5305 0.0000 0.0000 0.0000
# 4 0.0000 0.0000 0.0000 30.8581 0.0000 0.0000
# 5 0.0000 0.0000 0.0000 0.0000 48.1524 0.0000
# 6 0.0000 0.0000 0.0000 0.0000 0.0000 33.4905
#
#
#
# Elastic Compliance Matrix: (Units=1/GPa)
#
#
# Indices 1 2 3 4 5 6 
#
# 1 0.009566 -0.002202 -0.003283 0.000000 0.000000 0.000000
# 2 -0.002202 0.010427 -0.003949 0.000000 0.000000 0.000000
# 3 -0.003283 -0.003949 0.011866 0.000000 0.000000 0.000000
# 4 0.000000 0.000000 0.000000 0.032406 0.000000 0.000000
# 5 0.000000 0.000000 0.000000 0.000000 0.020767 0.000000
# 6 0.000000 0.000000 0.000000 0.000000 0.000000 0.029859
#
#
# Mechanical properties :
#
#
# Convention : Reuss Voigt Hill
#
# Bulk Modulus (GPa) = 76.97030 77.03529 77.00279
# Shear Modulus (GPa) = 36.20855 37.25907 36.73381
#
# Velocity S-wave (km/s) = 4.33280 4.39520 4.36411
# Velocity P-wave (km/s) = 8.05840 8.10541 8.08194
#
# Compressibility (1/GPa) = 0.01299202
#
# Stress axis : x y z
#
# Youngs Moduli (GPa) = 104.54170 95.90483 84.27396
#
# Poissons Ratio (x) = 0.21114 0.27666
# Poissons Ratio (y) = 0.23015 0.33279
# Poissons Ratio (z) = 0.34320 0.37871
#
# Static dielectric constant tensor:
#      x y z
#    x 3.687540 0.000000 0.000000 
#    y 0.000000 3.533330 0.000000 
#    z 0.000000 0.000000 3.592490 
# 
# 
# High freq. dielectric constant tensor:
#      x y z
#    x 1.757370 0.000000 0.000000 
#    y 0.000000 1.754640 0.000000 
#    z 0.000000 0.000000 1.759940 
# 
# From -- ./inp_files/39513.got.cif
#   From: 2010.03.12/outbox.cif.g09.slc.cpg/sg67_20_cif.got.tgz:39513.got - 2010.04.10 22:41:39.
