data_PCOD8280349
_publ_section_title
;
Structure prediction by ZEFSAII (Michael W. Deem and Ramdas Pophale) SiO2 
 PCOD8280349
Probable space group: C M M A
;
_chemical_formula_sum "Si O2"
_cell_formula_units_Z 88
_cell_length_a 9.148204
_cell_length_b 16.134403
_cell_length_c 29.351749
_cell_angle_alpha 90.000000
_cell_angle_beta 90.000000
_cell_angle_gamma 90.000000
_cell_volume 4332.341929
_symmetry_space_group_name_H-M "C M M A"
_symmetry_group_IT_number 67
_symmetry_cell_setting 'orthorhombic'
loop_
_space_group_symop_operation_xyz
x,y,z
-x,1/2-y,z
x,-y,-z
-x,1/2+y,-z
-x,-y,-z
x,1/2+y,-z
-x,y,z
x,1/2-y,z
1/2+x,1/2+y,z
1/2-x,-y,z
1/2+x,1/2-y,-z
1/2-x,y,-z
1/2-x,1/2-y,-z
1/2+x,y,-z
1/2-x,1/2+y,z
1/2+x,-y,z
loop_
_atom_site_type_symbol
_atom_site_label
_atom_site_fract_x
_atom_site_fract_y
_atom_site_fract_z
Si Si1 0.161487 0.154703 0.041850
Si Si2 0.664167 0.843317 0.304900
Si Si3 0.828069 0.584085 0.600803
Si Si4 0.173686 0.250000 0.451744
Si Si5 0.829205 0.086551 0.877217
Si Si6 0.668930 0.085434 0.225453
O O1 0.139291 0.250000 0.029919
O O2 0.253838 0.149914 0.088338
O O3 0.000000 0.113278 0.046764
O O4 0.250000 0.111727 0.000000
O O5 0.500000 0.865216 0.288931
O O6 0.670674 0.750000 0.323979
O O7 0.712463 0.903280 0.345984
O O8 0.770399 0.849103 0.261581
O O9 0.750000 0.500000 0.583113
O O10 0.774448 0.665887 0.573792
O O11 0.000000 0.572125 0.594170
O O12 0.250000 0.250000 0.500000
O O13 0.000000 0.250000 0.457064
O O14 0.804605 0.119158 0.825722
O O15 0.000000 0.077654 0.888367
O O16 0.750000 0.000000 0.884706
O O17 0.500000 0.070043 0.234780
O O18 0.750000 0.000000 0.233891
#
# Coordination Sequence:
#
# PCOD8280349 Si02
#       6
#    16  16  16   8  16  16
#     4  10  21  37  57  80 106 137 176 222 274 334
#     4  10  20  36  58  83 115 155 195 238 291 348
#     4  10  21  39  62  88 121 161 202 249 303 359
#     4  10  22  42  64  88 124 162 202 252 305 360
#     4  10  21  37  56  78 108 143 181 227 279 333
#     4  10  21  36  54  79 111 147 186 232 283 338
#
# _framework density 20.312338
#
# number of rings (size 3 to 8) (size 9 to 14) (size 15 to 20)
#    0.000    2.000    0.909    2.182    0.000    8.000 
#    0.000    7.273    0.000    0.000    0.000    0.000 
#    0.000    0.000    0.000    0.000    0.000    0.000 
#
# Total GULP energy -545547.705248 kJ/mol
# GULP energy per Si atom -12398.811483 kJ/mol
# Density = 2.026611 g / cm^3
# Si number density = 20.312338 Si / 1000 Ang^3
#
#
#
# Elastic Constant Matrix: (Units=GPa)
#
#
# Indices 1 2 3 4 5 6 
#
# 1 119.5565 39.6942 68.0127 0.0000 0.0000 0.0000
# 2 39.6942 92.8082 46.6983 0.0000 0.0000 0.0000
# 3 68.0127 46.6983 122.9148 0.0000 0.0000 0.0000
# 4 0.0000 0.0000 0.0000 24.0139 0.0000 0.0000
# 5 0.0000 0.0000 0.0000 0.0000 37.0172 0.0000
# 6 0.0000 0.0000 0.0000 0.0000 0.0000 32.9225
#
#
#
# Elastic Compliance Matrix: (Units=1/GPa)
#
#
# Indices 1 2 3 4 5 6 
#
# 1 0.012600 -0.002325 -0.006088 0.000000 0.000000 0.000000
# 2 -0.002325 0.013751 -0.003937 0.000000 0.000000 0.000000
# 3 -0.006088 -0.003937 0.013001 0.000000 0.000000 0.000000
# 4 0.000000 0.000000 0.000000 0.041643 0.000000 0.000000
# 5 0.000000 0.000000 0.000000 0.000000 0.027014 0.000000
# 6 0.000000 0.000000 0.000000 0.000000 0.000000 0.030374
#
#
# Mechanical properties :
#
#
# Convention : Reuss Voigt Hill
#
# Bulk Modulus (GPa) = 68.26656 71.56553 69.91605
# Shear Modulus (GPa) = 29.76754 30.84899 30.30827
#
# Velocity S-wave (km/s) = 3.83233 3.90132 3.86698
# Velocity P-wave (km/s) = 7.29820 7.45672 7.37789
#
# Compressibility (1/GPa) = 0.01464846
#
# Stress axis : x y z
#
# Youngs Moduli (GPa) = 79.36584 72.72329 76.91965
#
# Poissons Ratio (x) = 0.16912 0.46832
# Poissons Ratio (y) = 0.18456 0.30287
# Poissons Ratio (z) = 0.48321 0.28635
#
# Static dielectric constant tensor:
#      x y z
#    x 3.835960 0.000000 0.000000 
#    y 0.000000 3.470560 0.000000 
#    z 0.000000 0.000000 3.669960 
# 
# 
# High freq. dielectric constant tensor:
#      x y z
#    x 1.797270 0.000000 0.000000 
#    y 0.000000 1.780660 0.000000 
#    z 0.000000 0.000000 1.796360 
# 
# From -- ./inp_files/45229.got.cif
#   From: 2010.03.12/outbox.cif.g09.slc.cpg/sg67_23_cif.got.tgz:45229.got - 2010.04.10 22:41:39.
