data_PCOD8280915
_publ_section_title
;
Structure prediction by ZEFSAII (Michael W. Deem and Ramdas Pophale) SiO2 
 PCOD8280915
Probable space group: C M M A
;
_chemical_formula_sum "Si O2"
_cell_formula_units_Z 96
_cell_length_a 17.182641
_cell_length_b 14.372984
_cell_length_c 19.100298
_cell_angle_alpha 90.000000
_cell_angle_beta 90.000000
_cell_angle_gamma 90.000000
_cell_volume 4717.120837
_symmetry_space_group_name_H-M "C M M A"
_symmetry_group_IT_number 67
_symmetry_cell_setting 'orthorhombic'
loop_
_space_group_symop_operation_xyz
x,y,z
-x,1/2-y,z
x,-y,-z
-x,1/2+y,-z
-x,-y,-z
x,1/2+y,-z
-x,y,z
x,1/2-y,z
1/2+x,1/2+y,z
1/2-x,-y,z
1/2+x,1/2-y,-z
1/2-x,y,-z
1/2-x,1/2-y,-z
1/2+x,y,-z
1/2-x,1/2+y,z
1/2+x,-y,z
loop_
_atom_site_type_symbol
_atom_site_label
_atom_site_fract_x
_atom_site_fract_y
_atom_site_fract_z
Si Si1 0.162957 0.639881 0.493543
Si Si2 0.089536 0.140924 0.362504
Si Si3 0.590631 0.141641 0.350016
Si Si4 0.341877 0.357052 0.007776
Si Si5 0.340415 0.494055 0.746588
Si Si6 0.908754 0.508004 0.896550
O O1 0.164206 0.750000 0.489526
O O2 0.250000 0.599495 0.500000
O O3 0.112732 0.607000 0.559872
O O4 0.124102 0.601071 0.422844
O O5 0.104706 0.250000 0.353855
O O6 0.143613 0.089935 0.306652
O O7 0.000000 0.114425 0.349427
O O8 0.500000 0.118986 0.348312
O O9 0.608230 0.250000 0.341652
O O10 0.632152 0.091537 0.285675
O O11 0.368683 0.250000 0.015177
O O12 0.382327 0.401762 0.940029
O O13 0.250000 0.364857 0.000000
O O14 0.366832 0.414071 0.076720
O O15 0.250000 0.500000 0.764562
O O16 0.388039 0.473796 0.816516
O O17 0.000000 0.494154 0.905882
#
# Coordination Sequence:
#
# PCOD8280915 Si02
#       6
#    16  16  16  16  16  16
#     4   9  17  32  55  82 112 147 191 242 293 346
#     4  10  21  38  59  83 113 150 194 244 296 348
#     4  10  21  38  59  83 113 150 194 244 296 348
#     4  10  21  40  67  95 122 154 191 231 278 333
#     4  12  25  40  59  84 118 156 194 238 289 346
#     4  11  23  40  62  89 123 156 191 237 282 334
#
# _framework density 20.351396999999999
#
# number of rings (size 3 to 8) (size 9 to 14) (size 15 to 20)
#    0.000    1.667    0.000    6.000    0.000    7.333 
#    0.000    3.333    0.000    0.000    0.000    0.000 
#    0.000    0.000    0.000    0.000    0.000    0.000 
#
# Total GULP energy -595390.068973 kJ/mol
# GULP energy per Si atom -12403.959770 kJ/mol
# Density = 2.030508 g / cm^3
# Si number density = 20.351397 Si / 1000 Ang^3
#
#
#
# Elastic Constant Matrix: (Units=GPa)
#
#
# Indices 1 2 3 4 5 6 
#
# 1 105.2221 22.5951 10.9693 0.0000 0.0000 0.0000
# 2 22.5951 68.8945 -3.8272 0.0000 0.0000 0.0000
# 3 10.9693 -3.8272 82.0045 0.0000 0.0000 0.0000
# 4 0.0000 0.0000 0.0000 19.3406 0.0000 0.0000
# 5 0.0000 0.0000 0.0000 0.0000 39.3815 0.0000
# 6 0.0000 0.0000 0.0000 0.0000 0.0000 26.7215
#
#
#
# Elastic Compliance Matrix: (Units=1/GPa)
#
#
# Indices 1 2 3 4 5 6 
#
# 1 0.010418 -0.003503 -0.001557 0.000000 0.000000 0.000000
# 2 -0.003503 0.015731 0.001203 0.000000 0.000000 0.000000
# 3 -0.001557 0.001203 0.012459 0.000000 0.000000 0.000000
# 4 0.000000 0.000000 0.000000 0.051705 0.000000 0.000000
# 5 0.000000 0.000000 0.000000 0.000000 0.025393 0.000000
# 6 0.000000 0.000000 0.000000 0.000000 0.000000 0.037423
#
#
# Mechanical properties :
#
#
# Convention : Reuss Voigt Hill
#
# Bulk Modulus (GPa) = 32.37022 35.06617 33.71819
# Shear Modulus (GPa) = 29.21562 32.18098 30.69830
#
# Velocity S-wave (km/s) = 3.79299 3.98083 3.88804
# Velocity P-wave (km/s) = 5.92642 6.19654 6.06299
#
# Compressibility (1/GPa) = 0.03089259
#
# Stress axis : x y z
#
# Youngs Moduli (GPa) = 95.98459 63.56974 80.26405
#
# Poissons Ratio (x) = 0.22271 0.12498
# Poissons Ratio (y) = 0.33627 -0.09654
# Poissons Ratio (z) = 0.14946 -0.07646
#
# Static dielectric constant tensor:
#      x y z
#    x 3.816980 0.000000 0.000000 
#    y 0.000000 3.668030 0.000000 
#    z 0.000000 0.000000 3.704190 
# 
# 
# High freq. dielectric constant tensor:
#      x y z
#    x 1.810600 0.000000 0.000000 
#    y 0.000000 1.798250 0.000000 
#    z 0.000000 0.000000 1.794610 
# 
# From -- ./inp_files/38394.got.cif
#   From: 2010.03.12/outbox.cif.g09.slc.cpg/sg67_20_cif.got.tgz:38394.got - 2010.04.10 22:41:39.
