data_PCOD8280597
_publ_section_title
;
Structure prediction by ZEFSAII (Michael W. Deem and Ramdas Pophale) SiO2 
 PCOD8280597
Probable space group: C M M A
;
_chemical_formula_sum "Si O2"
_cell_formula_units_Z 60
_cell_length_a 17.820787
_cell_length_b 19.165537
_cell_length_c 8.304535
_cell_angle_alpha 90.000000
_cell_angle_beta 90.000000
_cell_angle_gamma 90.000000
_cell_volume 2836.372013
_symmetry_space_group_name_H-M "C M M A"
_symmetry_group_IT_number 67
_symmetry_cell_setting 'orthorhombic'
loop_
_space_group_symop_operation_xyz
x,y,z
-x,1/2-y,z
x,-y,-z
-x,1/2+y,-z
-x,-y,-z
x,1/2+y,-z
-x,y,z
x,1/2-y,z
1/2+x,1/2+y,z
1/2-x,-y,z
1/2+x,1/2-y,-z
1/2-x,y,-z
1/2-x,1/2-y,-z
1/2+x,y,-z
1/2-x,1/2+y,z
1/2+x,-y,z
loop_
_atom_site_type_symbol
_atom_site_label
_atom_site_fract_x
_atom_site_fract_y
_atom_site_fract_z
Si Si1 0.132910 0.750000 0.858627
Si Si2 0.000000 0.250000 0.896444
Si Si3 0.207736 0.885850 0.762891
Si Si4 0.000000 0.868908 0.356808
Si Si5 0.848406 0.076569 0.557012
Si Si6 0.500000 0.250000 0.612363
Si Si7 0.750000 0.000000 0.000000
O O1 0.189758 0.815852 0.861988
O O2 0.078655 0.750000 0.011452
O O3 0.077110 0.750000 0.708901
O O4 0.000000 0.321837 0.800258
O O5 0.149713 0.883110 0.613645
O O6 0.290858 0.889544 0.684817
O O7 0.197674 0.951197 0.886016
O O8 0.071072 0.920484 0.358830
O O9 0.000000 0.819715 0.509709
O O10 0.823230 0.000000 0.500000
#
# Coordination Sequence:
#
# PCOD8280597 Si02
#       7
#     8   4  16   8  16   4   4
#     4  11  24  44  66 100 135 178 214 284 345 400
#     4  10  28  42  62 102 146 172 232 278 348 420
#     4  11  24  41  72  95 136 175 225 279 334 408
#     4  11  23  42  67  93 132 180 223 280 328 397
#     4  11  22  44  67 101 130 178 236 276 327 407
#     4  10  20  42  64  88 132 168 212 262 332 392
#     4  12  24  44  64 102 140 168 212 286 352 400
#
# _framework density 21.153783000000001
#
# number of rings (size 3 to 8) (size 9 to 14) (size 15 to 20)
#    0.000    1.067    5.333    1.200    3.733    4.800 
#    0.000    0.000    0.000    4.800    0.000    0.000 
#    0.000    0.000    0.000    0.000    0.000    0.000 
#
# Total GULP energy -371753.881067 kJ/mol
# GULP energy per Si atom -12391.796036 kJ/mol
# Density = 2.110564 g / cm^3
# Si number density = 21.153783 Si / 1000 Ang^3
#
#
#
# Elastic Constant Matrix: (Units=GPa)
#
#
# Indices 1 2 3 4 5 6 
#
# 1 148.7129 62.0426 53.9514 0.0000 0.0000 0.0000
# 2 62.0426 131.9273 42.4799 0.0000 0.0000 0.0000
# 3 53.9514 42.4799 120.2683 0.0000 0.0000 0.0000
# 4 0.0000 0.0000 0.0000 70.4639 0.0000 0.0000
# 5 0.0000 0.0000 0.0000 0.0000 40.7958 0.0000
# 6 0.0000 0.0000 0.0000 0.0000 0.0000 32.9105
#
#
#
# Elastic Compliance Matrix: (Units=1/GPa)
#
#
# Indices 1 2 3 4 5 6 
#
# 1 0.009199 -0.003382 -0.002932 0.000000 0.000000 0.000000
# 2 -0.003382 0.009796 -0.001943 0.000000 0.000000 0.000000
# 3 -0.002932 -0.001943 0.010316 0.000000 0.000000 0.000000
# 4 0.000000 0.000000 0.000000 0.014192 0.000000 0.000000
# 5 0.000000 0.000000 0.000000 0.000000 0.024512 0.000000
# 6 0.000000 0.000000 0.000000 0.000000 0.000000 0.030385
#
#
# Mechanical properties :
#
#
# Convention : Reuss Voigt Hill
#
# Bulk Modulus (GPa) = 78.14078 79.76181 78.95129
# Shear Modulus (GPa) = 41.95317 44.99637 43.47477
#
# Velocity S-wave (km/s) = 4.45820 4.61706 4.53832
# Velocity P-wave (km/s) = 7.96996 8.13699 8.05391
#
# Compressibility (1/GPa) = 0.01279742
#
# Stress axis : x y z
#
# Youngs Moduli (GPa) = 108.70695 102.08224 96.93406
#
# Poissons Ratio (x) = 0.34524 0.28422
# Poissons Ratio (y) = 0.36765 0.18833
# Poissons Ratio (z) = 0.31874 0.19834
#
# Static dielectric constant tensor:
#      x y z
#    x 3.576530 0.000000 0.000000 
#    y 0.000000 3.717610 0.000000 
#    z 0.000000 0.000000 4.068180 
# 
# 
# High freq. dielectric constant tensor:
#      x y z
#    x 1.821160 0.000000 0.000000 
#    y 0.000000 1.828210 0.000000 
#    z 0.000000 0.000000 1.840740 
# 
# From -- ./inp_files/9195.got.cif
#   From: 2010.03.12/outbox.cif.g09.slc.cpg/sg67_5_cif.got.tgz:9195.got - 2010.04.10 22:41:39.
