data_PCOD8280720
_publ_section_title
;
Structure prediction by ZEFSAII (Michael W. Deem and Ramdas Pophale) SiO2 
 PCOD8280720
Probable space group: C M M A
;
_chemical_formula_sum "Si O2"
_cell_formula_units_Z 96
_cell_length_a 19.248062
_cell_length_b 8.915225
_cell_length_c 30.416989
_cell_angle_alpha 90.000000
_cell_angle_beta 90.000000
_cell_angle_gamma 90.000000
_cell_volume 5219.579754
_symmetry_space_group_name_H-M "C M M A"
_symmetry_group_IT_number 67
_symmetry_cell_setting 'orthorhombic'
loop_
_space_group_symop_operation_xyz
x,y,z
-x,1/2-y,z
x,-y,-z
-x,1/2+y,-z
-x,-y,-z
x,1/2+y,-z
-x,y,z
x,1/2-y,z
1/2+x,1/2+y,z
1/2-x,-y,z
1/2+x,1/2-y,-z
1/2-x,y,-z
1/2-x,1/2-y,-z
1/2+x,y,-z
1/2-x,1/2+y,z
1/2+x,-y,z
loop_
_atom_site_type_symbol
_atom_site_label
_atom_site_fract_x
_atom_site_fract_y
_atom_site_fract_z
Si Si1 0.419160 0.075054 0.115979
Si Si2 0.178316 0.570819 0.952783
Si Si3 0.417213 0.919303 0.456771
Si Si4 0.821257 0.427013 0.707065
Si Si5 0.320864 0.425044 0.194232
Si Si6 0.921023 0.073418 0.630834
O O1 0.500000 0.034539 0.119135
O O2 0.407729 0.250000 0.104691
O O3 0.384457 0.032265 0.162517
O O4 0.385155 0.973191 0.078491
O O5 0.185230 0.750000 0.956225
O O6 0.250000 0.500000 0.934108
O O7 0.162188 0.500000 0.000000
O O8 0.500000 0.928888 0.457382
O O9 0.390212 0.750000 0.457094
O O10 0.386640 0.000000 0.500000
O O11 0.388726 0.998555 0.412784
O O12 0.812984 0.250000 0.705046
O O13 0.750000 0.500000 0.691187
O O14 0.840225 0.480321 0.756569
O O15 0.880624 0.483028 0.673953
O O16 0.306372 0.250000 0.193899
O O17 0.250000 0.500000 0.177103
O O18 0.915086 0.250000 0.624356
O O19 0.000000 0.021898 0.637857
#
# Coordination Sequence:
#
# PCOD8280720 Si02
#       6
#    16  16  16  16  16  16
#     4  10  21  36  54  79 111 143 175 214 261 309
#     4  11  22  38  60  83 108 139 178 219 259 306
#     4   9  16  26  42  65  93 124 158 196 239 288
#     4   9  18  32  50  72  98 130 167 205 247 295
#     4   9  18  33  53  75  99 132 172 211 250 296
#     4   9  17  29  46  69  96 125 159 200 244 290
#
# _framework density 18.392285999999999
#
# number of rings (size 3 to 8) (size 9 to 14) (size 15 to 20)
#    0.000    2.500    0.000    3.000    0.000    6.000 
#    0.000    3.333    0.000    0.500    0.000   10.500 
#    0.000    0.000    0.000    0.000    0.000    0.000 
#
# Total GULP energy -595206.745676 kJ/mol
# GULP energy per Si atom -12400.140535 kJ/mol
# Density = 1.835042 g / cm^3
# Si number density = 18.392286 Si / 1000 Ang^3
#
#
#
# Elastic Constant Matrix: (Units=GPa)
#
#
# Indices 1 2 3 4 5 6 
#
# 1 109.7611 44.4823 79.0529 0.0000 0.0000 0.0000
# 2 44.4823 74.0941 54.4197 0.0000 0.0000 0.0000
# 3 79.0529 54.4197 132.6527 0.0000 0.0000 0.0000
# 4 0.0000 0.0000 0.0000 28.9501 0.0000 0.0000
# 5 0.0000 0.0000 0.0000 0.0000 9.8873 0.0000
# 6 0.0000 0.0000 0.0000 0.0000 0.0000 24.5820
#
#
#
# Elastic Compliance Matrix: (Units=1/GPa)
#
#
# Indices 1 2 3 4 5 6 
#
# 1 0.016710 -0.003890 -0.008362 0.000000 0.000000 0.000000
# 2 -0.003890 0.020222 -0.005978 0.000000 0.000000 0.000000
# 3 -0.008362 -0.005978 0.014974 0.000000 0.000000 0.000000
# 4 0.000000 0.000000 0.000000 0.034542 0.000000 0.000000
# 5 0.000000 0.000000 0.000000 0.000000 0.101140 0.000000
# 6 0.000000 0.000000 0.000000 0.000000 0.000000 0.040680
#
#
# Mechanical properties :
#
#
# Convention : Reuss Voigt Hill
#
# Bulk Modulus (GPa) = 64.74060 74.71307 69.72684
# Shear Modulus (GPa) = 18.52693 21.92074 20.22383
#
# Velocity S-wave (km/s) = 3.17727 3.45605 3.31959
# Velocity P-wave (km/s) = 6.98114 7.52568 7.25852
#
# Compressibility (1/GPa) = 0.01544626
#
# Stress axis : x y z
#
# Youngs Moduli (GPa) = 59.84484 49.45064 66.78141
#
# Poissons Ratio (x) = 0.19236 0.55844
# Poissons Ratio (y) = 0.23279 0.39921
# Poissons Ratio (z) = 0.50044 0.29561
#
# Static dielectric constant tensor:
#      x y z
#    x 3.272830 0.000000 0.000000 
#    y 0.000000 3.337780 0.000000 
#    z 0.000000 0.000000 3.673360 
# 
# 
# High freq. dielectric constant tensor:
#      x y z
#    x 1.686260 0.000000 0.000000 
#    y 0.000000 1.709780 0.000000 
#    z 0.000000 0.000000 1.727070 
# 
# From -- ./inp_files/44623.got.cif
#   From: 2010.03.12/outbox.cif.g09.slc.cpg/sg67_23_cif.got.tgz:44623.got - 2010.04.10 22:41:39.
