data_PCOD8280146
_publ_section_title
;
Structure prediction by ZEFSAII (Michael W. Deem and Ramdas Pophale) SiO2 
 PCOD8280146
Probable space group: C M M A
;
_chemical_formula_sum "Si O2"
_cell_formula_units_Z 96
_cell_length_a 27.765741
_cell_length_b 18.653168
_cell_length_c 9.877830
_cell_angle_alpha 90.000000
_cell_angle_beta 90.000000
_cell_angle_gamma 90.000000
_cell_volume 5115.916147
_symmetry_space_group_name_H-M "C M M A"
_symmetry_group_IT_number 67
_symmetry_cell_setting 'orthorhombic'
loop_
_space_group_symop_operation_xyz
x,y,z
-x,1/2-y,z
x,-y,-z
-x,1/2+y,-z
-x,-y,-z
x,1/2+y,-z
-x,y,z
x,1/2-y,z
1/2+x,1/2+y,z
1/2-x,-y,z
1/2+x,1/2-y,-z
1/2-x,y,-z
1/2-x,1/2-y,-z
1/2+x,y,-z
1/2-x,1/2+y,z
1/2+x,-y,z
loop_
_atom_site_type_symbol
_atom_site_label
_atom_site_fract_x
_atom_site_fract_y
_atom_site_fract_z
Si Si1 0.882261 0.922468 0.029294
Si Si2 0.053416 0.335195 0.460305
Si Si3 0.368801 0.334725 0.755228
Si Si4 0.723577 0.073913 0.130170
Si Si5 0.763745 0.333655 0.352112
Si Si6 0.556639 0.168246 0.237113
O O1 0.832026 0.939794 0.101879
O O2 0.916936 0.880517 0.129070
O O3 0.874450 0.876115 0.894946
O O4 0.906179 0.000000 0.000000
O O5 0.052440 0.250000 0.460945
O O6 0.090537 0.363476 0.348110
O O7 0.068736 0.360129 0.611236
O O8 0.000000 0.364605 0.424433
O O9 0.373624 0.250000 0.783009
O O10 0.318182 0.353890 0.685984
O O11 0.726417 0.129373 0.251738
O O12 0.750000 0.000000 0.168647
O O13 0.750000 0.108508 0.000000
O O14 0.754148 0.250000 0.341270
O O15 0.750000 0.362366 0.500000
O O16 0.500000 0.163543 0.210153
O O17 0.574527 0.250000 0.219344
#
# Coordination Sequence:
#
# PCOD8280146 Si02
#       6
#    16  16  16  16  16  16
#     4  12  23  37  58  83 114 154 196 235 280 334
#     4   8  16  34  59  83 109 142 180 226 281 341
#     4  10  20  35  55  83 112 142 185 233 287 342
#     4  11  21  41  58  76 112 159 196 231 278 337
#     4  10  22  36  54  84 114 140 182 242 293 338
#     4   9  20  39  62  88 115 147 189 234 287 349
#
# _framework density 18.764968
#
# number of rings (size 3 to 8) (size 9 to 14) (size 15 to 20)
#    0.000    2.000    3.333    1.500    2.333    3.000 
#    0.000    2.500    0.000    2.000    0.000    0.000 
#    0.000    0.000    0.000    0.000    0.000    0.000 
#
# Total GULP energy -595185.551926 kJ/mol
# GULP energy per Si atom -12399.698998 kJ/mol
# Density = 1.872226 g / cm^3
# Si number density = 18.764968 Si / 1000 Ang^3
#
#
#
# Elastic Constant Matrix: (Units=GPa)
#
#
# Indices 1 2 3 4 5 6 
#
# 1 79.4665 38.2840 52.2024 0.0000 0.0000 0.0000
# 2 38.2840 61.6913 52.1506 0.0000 0.0000 0.0000
# 3 52.2024 52.1506 130.6714 0.0000 0.0000 0.0000
# 4 0.0000 0.0000 0.0000 10.5093 0.0000 0.0000
# 5 0.0000 0.0000 0.0000 0.0000 35.3673 0.0000
# 6 0.0000 0.0000 0.0000 0.0000 0.0000 23.5339
#
#
#
# Elastic Compliance Matrix: (Units=1/GPa)
#
#
# Indices 1 2 3 4 5 6 
#
# 1 0.019545 -0.008344 -0.004478 0.000000 0.000000 0.000000
# 2 -0.008344 0.028025 -0.007851 0.000000 0.000000 0.000000
# 3 -0.004478 -0.007851 0.012575 0.000000 0.000000 0.000000
# 4 0.000000 0.000000 0.000000 0.095153 0.000000 0.000000
# 5 0.000000 0.000000 0.000000 0.000000 0.028275 0.000000
# 6 0.000000 0.000000 0.000000 0.000000 0.000000 0.042492
#
#
# Mechanical properties :
#
#
# Convention : Reuss Voigt Hill
#
# Bulk Modulus (GPa) = 53.19493 61.90034 57.54764
# Shear Modulus (GPa) = 18.26962 22.49492 20.38227
#
# Velocity S-wave (km/s) = 3.12365 3.46609 3.29931
# Velocity P-wave (km/s) = 6.43577 7.00551 6.72667
#
# Compressibility (1/GPa) = 0.01879878
#
# Stress axis : x y z
#
# Youngs Moduli (GPa) = 51.16281 35.68285 79.52084
#
# Poissons Ratio (x) = 0.29772 0.35612
# Poissons Ratio (y) = 0.42688 0.62435
# Poissons Ratio (z) = 0.22913 0.28016
#
# Static dielectric constant tensor:
#      x y z
#    x 3.603210 0.000000 0.000000 
#    y 0.000000 3.293670 0.000000 
#    z 0.000000 0.000000 3.635740 
# 
# 
# High freq. dielectric constant tensor:
#      x y z
#    x 1.731350 0.000000 0.000000 
#    y 0.000000 1.708050 0.000000 
#    z 0.000000 0.000000 1.738960 
# 
# From -- ./inp_files/11507.got.cif
#   From: 2010.03.12/outbox.cif.g09.slc.cpg/sg67_6_cif.got.tgz:11507.got - 2010.04.10 22:41:39.
