data_PCOD8280195
_publ_section_title
;
Structure prediction by ZEFSAII (Michael W. Deem and Ramdas Pophale) SiO2 
 PCOD8280195
Probable space group: C M M A
;
_chemical_formula_sum "Si O2"
_cell_formula_units_Z 112
_cell_length_a 14.619789
_cell_length_b 29.478032
_cell_length_c 14.073879
_cell_angle_alpha 90.000000
_cell_angle_beta 90.000000
_cell_angle_gamma 90.000000
_cell_volume 6065.315598
_symmetry_space_group_name_H-M "C M M A"
_symmetry_group_IT_number 67
_symmetry_cell_setting 'orthorhombic'
loop_
_space_group_symop_operation_xyz
x,y,z
-x,1/2-y,z
x,-y,-z
-x,1/2+y,-z
-x,-y,-z
x,1/2+y,-z
-x,y,z
x,1/2-y,z
1/2+x,1/2+y,z
1/2-x,-y,z
1/2+x,1/2-y,-z
1/2-x,y,-z
1/2-x,1/2-y,-z
1/2+x,y,-z
1/2-x,1/2+y,z
1/2+x,-y,z
loop_
_atom_site_type_symbol
_atom_site_label
_atom_site_fract_x
_atom_site_fract_y
_atom_site_fract_z
Si Si1 0.606109 0.396449 0.377425
Si Si2 0.734999 0.617334 0.108319
Si Si3 0.895659 0.044415 0.445032
Si Si4 0.398739 0.674390 0.864099
Si Si5 0.738523 0.448237 0.727953
Si Si6 0.394089 0.800244 0.071823
Si Si7 0.604262 0.297801 0.340648
O O1 0.500000 0.397068 0.341495
O O2 0.612083 0.412736 0.485584
O O3 0.664901 0.428913 0.309395
O O4 0.648555 0.345121 0.376034
O O5 0.833089 0.631547 0.149043
O O6 0.701401 0.577306 0.177584
O O7 0.666445 0.660224 0.118266
O O8 0.750000 0.600429 0.000000
O O9 0.837054 0.056403 0.353525
O O10 0.000000 0.035242 0.413175
O O11 0.857309 0.000000 0.500000
O O12 0.500000 0.653683 0.872436
O O13 0.389940 0.706541 0.773384
O O14 0.373789 0.702076 0.959084
O O15 0.750000 0.500000 0.758349
O O16 0.500000 0.811290 0.092837
O O17 0.368978 0.750000 0.112415
O O18 0.500000 0.298647 0.375432
O O19 0.649176 0.250000 0.379092
#
# Coordination Sequence:
#
# PCOD8280195 Si02
#       7
#    16  16  16  16  16  16  16
#     4  10  20  35  56  86 115 140 173 227 289 339
#     4  10  22  36  51  79 111 152 189 226 270 332
#     4  10  21  38  61  86 108 135 181 239 290 331
#     4   9  16  29  50  78 108 138 180 232 279 320
#     4  12  23  36  58  82 108 147 185 233 282 332
#     4   9  18  33  53  75 104 144 189 236 280 322
#     4   9  16  27  48  79 112 143 175 213 267 335
#
# _framework density 18.465651000000001
#
# number of rings (size 3 to 8) (size 9 to 14) (size 15 to 20)
#    0.000    2.143    2.857    0.857    0.000    5.714 
#    0.000    0.000    0.000    2.571    0.000    8.000 
#    0.000    0.000    0.000    0.000    0.000    0.000 
#
# Total GULP energy -693904.630252 kJ/mol
# GULP energy per Si atom -12391.154112 kJ/mol
# Density = 1.842362 g / cm^3
# Si number density = 18.465651 Si / 1000 Ang^3
#
#
#
# Elastic Constant Matrix: (Units=GPa)
#
#
# Indices 1 2 3 4 5 6 
#
# 1 69.2625 48.4936 35.5850 0.0000 0.0000 0.0000
# 2 48.4936 165.0670 60.7418 0.0000 0.0000 0.0000
# 3 35.5850 60.7418 80.2306 0.0000 0.0000 0.0000
# 4 0.0000 0.0000 0.0000 19.2731 0.0000 0.0000
# 5 0.0000 0.0000 0.0000 0.0000 16.9367 0.0000
# 6 0.0000 0.0000 0.0000 0.0000 0.0000 16.8043
#
#
#
# Elastic Compliance Matrix: (Units=1/GPa)
#
#
# Indices 1 2 3 4 5 6 
#
# 1 0.020170 -0.003651 -0.006182 0.000000 0.000000 0.000000
# 2 -0.003651 0.009058 -0.005239 0.000000 0.000000 0.000000
# 3 -0.006182 -0.005239 0.019172 0.000000 0.000000 0.000000
# 4 0.000000 0.000000 0.000000 0.051886 0.000000 0.000000
# 5 0.000000 0.000000 0.000000 0.000000 0.059043 0.000000
# 6 0.000000 0.000000 0.000000 0.000000 0.000000 0.059509
#
#
# Mechanical properties :
#
#
# Convention : Reuss Voigt Hill
#
# Bulk Modulus (GPa) = 54.77234 67.13344 60.95289
# Shear Modulus (GPa) = 19.60264 21.91882 20.76073
#
# Velocity S-wave (km/s) = 3.26171 3.44903 3.35668
# Velocity P-wave (km/s) = 6.62655 7.23159 6.93567
#
# Compressibility (1/GPa) = 0.01825739
#
# Stress axis : x y z
#
# Youngs Moduli (GPa) = 49.57854 110.39414 52.15824
#
# Poissons Ratio (x) = 0.40301 0.32245
# Poissons Ratio (y) = 0.18099 0.27325
# Poissons Ratio (z) = 0.30651 0.57834
#
# Static dielectric constant tensor:
#      x y z
#    x 3.401690 0.000000 0.000000 
#    y 0.000000 3.601150 0.000000 
#    z 0.000000 0.000000 3.202620 
# 
# 
# High freq. dielectric constant tensor:
#      x y z
#    x 1.706360 0.000000 0.000000 
#    y 0.000000 1.717990 0.000000 
#    z 0.000000 0.000000 1.690010 
# 
# From -- ./inp_files/27863.got.cif
#   From: 2010.03.12/outbox.cif.g09.slc.cpg/sg67_14_cif.got.tgz:27863.got - 2010.04.10 22:41:39.
