data_PCOD8280660
_publ_section_title
;
Structure prediction by ZEFSAII (Michael W. Deem and Ramdas Pophale) SiO2 
 PCOD8280660
Probable space group: C M M A
;
_chemical_formula_sum "Si O2"
_cell_formula_units_Z 72
_cell_length_a 16.503654
_cell_length_b 8.961352
_cell_length_c 24.641227
_cell_angle_alpha 90.000000
_cell_angle_beta 90.000000
_cell_angle_gamma 90.000000
_cell_volume 3644.315568
_symmetry_space_group_name_H-M "C M M A"
_symmetry_group_IT_number 67
_symmetry_cell_setting 'orthorhombic'
loop_
_space_group_symop_operation_xyz
x,y,z
-x,1/2-y,z
x,-y,-z
-x,1/2+y,-z
-x,-y,-z
x,1/2+y,-z
-x,y,z
x,1/2-y,z
1/2+x,1/2+y,z
1/2-x,-y,z
1/2+x,1/2-y,-z
1/2-x,y,-z
1/2-x,1/2-y,-z
1/2+x,y,-z
1/2-x,1/2+y,z
1/2+x,-y,z
loop_
_atom_site_type_symbol
_atom_site_label
_atom_site_fract_x
_atom_site_fract_y
_atom_site_fract_z
Si Si1 0.663261 0.925623 0.448013
Si Si2 0.000000 0.572683 0.058342
Si Si3 0.407555 0.913169 0.649900
Si Si4 0.830552 0.923411 0.241628
Si Si5 0.335857 0.573070 0.880133
O O1 0.667901 0.750000 0.456680
O O2 0.616726 0.000000 0.500000
O O3 0.750000 0.000000 0.445898
O O4 0.622519 0.960137 0.390675
O O5 0.083814 0.519259 0.087385
O O6 0.000000 0.750000 0.054210
O O7 0.000000 0.500000 0.000000
O O8 0.500000 0.892205 0.637733
O O9 0.364767 0.750000 0.640390
O O10 0.397182 0.962609 0.712806
O O11 0.813848 0.750000 0.236996
O O12 0.854455 0.980502 0.181600
O O13 0.750000 0.000000 0.263315
O O14 0.325264 0.750000 0.885585
O O15 0.250000 0.500000 0.900379
#
# Coordination Sequence:
#
# PCOD8280660 Si02
#       5
#    16   8  16  16  16
#     4  11  22  38  59  79 103 137 180 226 273 326
#     4  10  22  38  58  84 116 154 195 238 285 340
#     4  10  21  35  53  80 111 143 178 219 270 329
#     4   9  18  33  55  80 107 141 181 224 272 326
#     4   9  19  36  58  84 114 151 194 238 287 340
#
# _framework density 19.756796999999999
#
# number of rings (size 3 to 8) (size 9 to 14) (size 15 to 20)
#    0.000    2.222    0.000    3.333    1.556    4.889 
#    0.000    2.222    0.000    0.000    0.000    0.000 
#    0.000    0.000    0.000    0.000    0.000    0.000 
#
# Total GULP energy -446038.299408 kJ/mol
# GULP energy per Si atom -12389.952761 kJ/mol
# Density = 1.971183 g / cm^3
# Si number density = 19.756797 Si / 1000 Ang^3
#
#
#
# Elastic Constant Matrix: (Units=GPa)
#
#
# Indices 1 2 3 4 5 6 
#
# 1 108.0811 38.5255 61.3177 0.0000 0.0000 0.0000
# 2 38.5255 78.7560 47.9542 0.0000 0.0000 0.0000
# 3 61.3177 47.9542 132.3301 0.0000 0.0000 0.0000
# 4 0.0000 0.0000 0.0000 31.1104 0.0000 0.0000
# 5 0.0000 0.0000 0.0000 0.0000 35.8170 0.0000
# 6 0.0000 0.0000 0.0000 0.0000 0.0000 21.0904
#
#
#
# Elastic Compliance Matrix: (Units=1/GPa)
#
#
# Indices 1 2 3 4 5 6 
#
# 1 0.013274 -0.003526 -0.004873 0.000000 0.000000 0.000000
# 2 -0.003526 0.017229 -0.004610 0.000000 0.000000 0.000000
# 3 -0.004873 -0.004610 0.011485 0.000000 0.000000 0.000000
# 4 0.000000 0.000000 0.000000 0.032144 0.000000 0.000000
# 5 0.000000 0.000000 0.000000 0.000000 0.027920 0.000000
# 6 0.000000 0.000000 0.000000 0.000000 0.000000 0.047415
#
#
# Mechanical properties :
#
#
# Convention : Reuss Voigt Hill
#
# Bulk Modulus (GPa) = 62.61395 68.30689 65.46042
# Shear Modulus (GPa) = 27.65377 29.02821 28.34099
#
# Velocity S-wave (km/s) = 3.74533 3.83727 3.79158
# Velocity P-wave (km/s) = 7.10383 7.36762 7.23693
#
# Compressibility (1/GPa) = 0.01597088
#
# Stress axis : x y z
#
# Youngs Moduli (GPa) = 75.33693 58.04124 87.06834
#
# Poissons Ratio (x) = 0.20466 0.42427
# Poissons Ratio (y) = 0.26565 0.40135
# Poissons Ratio (z) = 0.36710 0.26755
#
# Static dielectric constant tensor:
#      x y z
#    x 2.763290 0.000000 0.000000 
#    y 0.000000 3.578970 0.000000 
#    z 0.000000 0.000000 4.162470 
# 
# 
# High freq. dielectric constant tensor:
#      x y z
#    x 1.758870 0.000000 0.000000 
#    y 0.000000 1.760020 0.000000 
#    z 0.000000 0.000000 1.781060 
# 
# From -- ./inp_files/40527.got.cif
#   From: 2010.03.12/outbox.cif.g09.slc.cpg/sg67_21_cif.got.tgz:40527.got - 2010.04.10 22:41:39.
