data_PCOD8280709
_publ_section_title
;
Structure prediction by ZEFSAII (Michael W. Deem and Ramdas Pophale) SiO2 
 PCOD8280709
Probable space group: C M M A
;
_chemical_formula_sum "Si O2"
_cell_formula_units_Z 68
_cell_length_a 21.207651
_cell_length_b 9.787573
_cell_length_c 16.032047
_cell_angle_alpha 90.000000
_cell_angle_beta 90.000000
_cell_angle_gamma 90.000000
_cell_volume 3327.794959
_symmetry_space_group_name_H-M "C M M A"
_symmetry_group_IT_number 67
_symmetry_cell_setting 'orthorhombic'
loop_
_space_group_symop_operation_xyz
x,y,z
-x,1/2-y,z
x,-y,-z
-x,1/2+y,-z
-x,-y,-z
x,1/2+y,-z
-x,y,z
x,1/2-y,z
1/2+x,1/2+y,z
1/2-x,-y,z
1/2+x,1/2-y,-z
1/2-x,y,-z
1/2-x,1/2-y,-z
1/2+x,y,-z
1/2-x,1/2+y,z
1/2+x,-y,z
loop_
_atom_site_type_symbol
_atom_site_label
_atom_site_fract_x
_atom_site_fract_y
_atom_site_fract_z
Si Si1 0.835827 0.100930 0.642637
Si Si2 0.803808 0.902631 0.173265
Si Si3 0.750000 0.500000 0.500000
Si Si4 0.070838 0.091908 0.919939
Si Si5 0.070603 0.595146 0.580314
O O1 0.869780 0.250000 0.639549
O O2 0.795820 0.090949 0.726913
O O3 0.792402 0.093129 0.560326
O O4 0.885367 0.976168 0.648562
O O5 0.789900 0.750000 0.140570
O O6 0.875169 0.945958 0.147615
O O7 0.750000 0.000000 0.133489
O O8 0.076125 0.250000 0.946505
O O9 0.000000 0.062661 0.883846
O O10 0.083772 0.000000 0.000000
O O11 0.076400 0.500000 0.500000
O O12 0.093262 0.750000 0.560785
O O13 0.000000 0.597014 0.615343
#
# Coordination Sequence:
#
# PCOD8280709 Si02
#       5
#    16  16   4  16  16
#     4  11  23  37  57  83 112 151 197 246 297 347
#     4  10  22  39  58  87 122 158 196 242 300 354
#     4  12  22  36  58  82 108 148 206 246 290 340
#     4   9  19  38  64  91 120 155 197 240 288 354
#     4  10  21  36  54  77 105 138 181 235 293 350
#
# _framework density 20.433949999999999
#
# number of rings (size 3 to 8) (size 9 to 14) (size 15 to 20)
#    0.000    1.882    2.353    1.059    0.000    5.647 
#    0.000    4.706    0.000    2.824    0.000    0.000 
#    0.000    0.000    0.000    0.000    0.000    0.000 
#
# Total GULP energy -421343.683352 kJ/mol
# GULP energy per Si atom -12392.461275 kJ/mol
# Density = 2.038744 g / cm^3
# Si number density = 20.433950 Si / 1000 Ang^3
#
#
#
# Elastic Constant Matrix: (Units=GPa)
#
#
# Indices 1 2 3 4 5 6 
#
# 1 139.4447 73.4407 39.9064 0.0000 0.0000 0.0000
# 2 73.4407 148.1708 26.5841 0.0000 0.0000 0.0000
# 3 39.9064 26.5841 66.4184 0.0000 0.0000 0.0000
# 4 0.0000 0.0000 0.0000 25.6088 0.0000 0.0000
# 5 0.0000 0.0000 0.0000 0.0000 17.6801 0.0000
# 6 0.0000 0.0000 0.0000 0.0000 0.0000 36.1942
#
#
#
# Elastic Compliance Matrix: (Units=1/GPa)
#
#
# Indices 1 2 3 4 5 6 
#
# 1 0.010934 -0.004569 -0.004741 0.000000 0.000000 0.000000
# 2 -0.004569 0.009180 -0.000929 0.000000 0.000000 0.000000
# 3 -0.004741 -0.000929 0.018277 0.000000 0.000000 0.000000
# 4 0.000000 0.000000 0.000000 0.039049 0.000000 0.000000
# 5 0.000000 0.000000 0.000000 0.000000 0.056561 0.000000
# 6 0.000000 0.000000 0.000000 0.000000 0.000000 0.027629
#
#
# Mechanical properties :
#
#
# Convention : Reuss Voigt Hill
#
# Bulk Modulus (GPa) = 55.82604 70.43291 63.12948
# Shear Modulus (GPa) = 26.58451 30.17013 28.37732
#
# Velocity S-wave (km/s) = 3.61085 3.84666 3.73061
# Velocity P-wave (km/s) = 6.69058 7.36698 7.03691
#
# Compressibility (1/GPa) = 0.01791279
#
# Stress axis : x y z
#
# Youngs Moduli (GPa) = 91.45415 108.92867 54.71492
#
# Poissons Ratio (x) = 0.49770 0.25940
# Poissons Ratio (y) = 0.41786 0.05084
# Poissons Ratio (z) = 0.43359 0.10122
#
# Static dielectric constant tensor:
#      x y z
#    x 3.954850 0.000000 0.000000 
#    y 0.000000 3.999740 0.000000 
#    z 0.000000 0.000000 3.338060 
# 
# 
# High freq. dielectric constant tensor:
#      x y z
#    x 1.803140 0.000000 0.000000 
#    y 0.000000 1.809260 0.000000 
#    z 0.000000 0.000000 1.764390 
# 
# From -- ./inp_files/34695.got.cif
#   From: 2010.03.12/outbox.cif.g09.slc.cpg/sg67_18_cif.got.tgz:34695.got - 2010.04.10 22:41:39.
