data_PCOD8280883
_publ_section_title
;
Structure prediction by ZEFSAII (Michael W. Deem and Ramdas Pophale) SiO2 
 PCOD8280883
Probable space group: C M M A
;
_chemical_formula_sum "Si O2"
_cell_formula_units_Z 104
_cell_length_a 9.089753
_cell_length_b 28.814422
_cell_length_c 20.223050
_cell_angle_alpha 90.000000
_cell_angle_beta 90.000000
_cell_angle_gamma 90.000000
_cell_volume 5296.739935
_symmetry_space_group_name_H-M "C M M A"
_symmetry_group_IT_number 67
_symmetry_cell_setting 'orthorhombic'
loop_
_space_group_symop_operation_xyz
x,y,z
-x,1/2-y,z
x,-y,-z
-x,1/2+y,-z
-x,-y,-z
x,1/2+y,-z
-x,y,z
x,1/2-y,z
1/2+x,1/2+y,z
1/2-x,-y,z
1/2+x,1/2-y,-z
1/2-x,y,-z
1/2-x,1/2-y,-z
1/2+x,y,-z
1/2-x,1/2+y,z
1/2+x,-y,z
loop_
_atom_site_type_symbol
_atom_site_label
_atom_site_fract_x
_atom_site_fract_y
_atom_site_fract_z
Si Si1 0.000000 0.032747 0.415333
Si Si2 0.329313 0.195720 0.068023
Si Si3 0.500000 0.428585 0.453407
Si Si4 0.322466 0.142781 0.813672
Si Si5 0.166589 0.451426 0.782143
Si Si6 0.744479 0.577308 0.642866
Si Si7 0.823161 0.750000 0.573164
Si Si8 0.162412 0.825041 0.675385
O O1 0.146020 0.035062 0.371707
O O2 0.000000 0.076750 0.467317
O O3 0.000000 0.983475 0.447597
O O4 0.500000 0.180186 0.065724
O O5 0.316070 0.250000 0.082896
O O6 0.240540 0.168691 0.123526
O O7 0.250000 0.182623 0.000000
O O8 0.643581 0.407904 0.419040
O O9 0.500000 0.140103 0.814769
O O10 0.258835 0.090372 0.815165
O O11 0.265982 0.172905 0.749313
O O12 0.250000 0.500000 0.795334
O O13 0.148818 0.439351 0.704698
O O14 0.000000 0.454401 0.810977
O O15 0.845570 0.621687 0.654483
O O16 0.750000 0.750000 0.500000
O O17 0.763366 0.706437 0.617843
O O18 0.000000 0.750000 0.562285
O O19 0.000000 0.804310 0.682937
#
# Coordination Sequence:
#
# PCOD8280883 Si02
#       8
#     8  16   8  16  16  16   8  16
#     4  11  22  34  50  67 107 133 180 222 295 363
#     4  10  21  38  62  96 135 172 208 248 295 352
#     4  11  22  34  48  77  95 139 174 232 287 359
#     4  10  21  37  62  92 122 162 205 249 303 359
#     4  11  22  36  58  84 116 153 196 249 298 354
#     4  11  21  36  53  75 102 139 182 233 293 353
#     4  10  22  42  60  80 105 142 191 244 303 362
#     4   9  20  39  59  79 107 143 190 238 293 359
#
# _framework density 19.634717999999999
#
# number of rings (size 3 to 8) (size 9 to 14) (size 15 to 20)
#    0.000    1.692    1.538    3.231    3.231    3.385 
#    1.385    0.000    0.000    0.462    0.000    3.231 
#    0.000    0.000    0.000    0.000    0.000    0.000 
#
# Total GULP energy -644217.789587 kJ/mol
# GULP energy per Si atom -12388.803646 kJ/mol
# Density = 1.959003 g / cm^3
# Si number density = 19.634718 Si / 1000 Ang^3
#
#
#
# Elastic Constant Matrix: (Units=GPa)
#
#
# Indices 1 2 3 4 5 6 
#
# 1 118.4715 35.6754 45.9067 0.0000 0.0000 0.0000
# 2 35.6754 78.7079 58.3717 0.0000 0.0000 0.0000
# 3 45.9067 58.3717 125.9387 0.0000 0.0000 0.0000
# 4 0.0000 0.0000 0.0000 25.0033 0.0000 0.0000
# 5 0.0000 0.0000 0.0000 0.0000 31.3264 0.0000
# 6 0.0000 0.0000 0.0000 0.0000 0.0000 27.7907
#
#
#
# Elastic Compliance Matrix: (Units=1/GPa)
#
#
# Indices 1 2 3 4 5 6 
#
# 1 0.010233 -0.002852 -0.002408 0.000000 0.000000 0.000000
# 2 -0.002852 0.020155 -0.008302 0.000000 0.000000 0.000000
# 3 -0.002408 -0.008302 0.012666 0.000000 0.000000 0.000000
# 4 0.000000 0.000000 0.000000 0.039995 0.000000 0.000000
# 5 0.000000 0.000000 0.000000 0.000000 0.031922 0.000000
# 6 0.000000 0.000000 0.000000 0.000000 0.000000 0.035983
#
#
# Mechanical properties :
#
#
# Convention : Reuss Voigt Hill
#
# Bulk Modulus (GPa) = 62.77756 67.00286 64.89021
# Shear Modulus (GPa) = 27.26457 29.03505 28.14981
#
# Velocity S-wave (km/s) = 3.73042 3.84964 3.79050
# Velocity P-wave (km/s) = 7.11315 7.34564 7.23033
#
# Compressibility (1/GPa) = 0.01592926
#
# Stress axis : x y z
#
# Youngs Moduli (GPa) = 97.72439 49.61544 78.95129
#
# Poissons Ratio (x) = 0.14152 0.19012
# Poissons Ratio (y) = 0.27874 0.65545
# Poissons Ratio (z) = 0.23532 0.41191
#
# Static dielectric constant tensor:
#      x y z
#    x 3.448260 0.000000 0.000000 
#    y 0.000000 3.529790 0.000000 
#    z 0.000000 0.000000 3.690270 
# 
# 
# High freq. dielectric constant tensor:
#      x y z
#    x 1.765640 0.000000 0.000000 
#    y 0.000000 1.759090 0.000000 
#    z 0.000000 0.000000 1.751750 
# 
# From -- ./inp_files/37593.got.cif
#   From: 2010.03.12/outbox.cif.g09.slc.cpg/sg67_19_cif.got.tgz:37593.got - 2010.04.10 22:41:39.
