data_PCOD8280987
_publ_section_title
;
Structure prediction by ZEFSAII (Michael W. Deem and Ramdas Pophale) SiO2 
 PCOD8280987
Probable space group: C M M A
;
_chemical_formula_sum "Si O2"
_cell_formula_units_Z 72
_cell_length_a 16.358716
_cell_length_b 8.704564
_cell_length_c 24.450379
_cell_angle_alpha 90.000000
_cell_angle_beta 90.000000
_cell_angle_gamma 90.000000
_cell_volume 3481.623708
_symmetry_space_group_name_H-M "C M M A"
_symmetry_group_IT_number 67
_symmetry_cell_setting 'orthorhombic'
loop_
_space_group_symop_operation_xyz
x,y,z
-x,1/2-y,z
x,-y,-z
-x,1/2+y,-z
-x,-y,-z
x,1/2+y,-z
-x,y,z
x,1/2-y,z
1/2+x,1/2+y,z
1/2-x,-y,z
1/2+x,1/2-y,-z
1/2-x,y,-z
1/2-x,1/2-y,-z
1/2+x,y,-z
1/2-x,1/2+y,z
1/2+x,-y,z
loop_
_atom_site_type_symbol
_atom_site_label
_atom_site_fract_x
_atom_site_fract_y
_atom_site_fract_z
Si Si1 0.500000 0.433801 0.439753
Si Si2 0.661444 0.432031 0.617664
Si Si3 0.661284 0.570396 0.053433
Si Si4 0.592575 0.083255 0.157388
Si Si5 0.335110 0.430024 0.743721
O O1 0.500000 0.250000 0.439552
O O2 0.500000 0.500000 0.500000
O O3 0.584042 0.492611 0.412336
O O4 0.662446 0.250000 0.606608
O O5 0.750000 0.500000 0.598294
O O6 0.647037 0.472716 0.681016
O O7 0.664591 0.750000 0.045634
O O8 0.750000 0.500000 0.054904
O O9 0.621068 0.532654 0.110988
O O10 0.614566 0.500000 0.000000
O O11 0.500000 0.116824 0.145621
O O12 0.638559 0.250000 0.155378
O O13 0.598320 0.006329 0.217175
O O14 0.334508 0.250000 0.752489
O O15 0.250000 0.500000 0.763410
#
# Coordination Sequence:
#
# PCOD8280987 Si02
#       5
#     8  16  16  16  16
#     4  12  26  44  68  98 134 176 221 270 323 382
#     4  10  22  42  67  98 133 173 219 270 325 386
#     4  11  22  39  62  84 110 146 191 242 295 357
#     4  11  24  39  56  83 118 155 196 243 296 358
#     4  10  21  38  62  89 121 158 200 249 302 361
#
# _framework density 20.680005999999999
#
# number of rings (size 3 to 8) (size 9 to 14) (size 15 to 20)
#    0.000    1.333    0.000    6.333    1.556    5.333 
#    0.000    2.222    0.000    0.000    0.000    0.000 
#    0.000    0.000    0.000    0.000    0.000    0.000 
#
# Total GULP energy -446239.230379 kJ/mol
# GULP energy per Si atom -12395.534177 kJ/mol
# Density = 2.063294 g / cm^3
# Si number density = 20.680006 Si / 1000 Ang^3
#
#
#
# Elastic Constant Matrix: (Units=GPa)
#
#
# Indices 1 2 3 4 5 6 
#
# 1 112.7869 57.6670 60.2633 0.0000 0.0000 0.0000
# 2 57.6670 170.8519 66.3822 0.0000 0.0000 0.0000
# 3 60.2633 66.3822 125.5923 0.0000 0.0000 0.0000
# 4 0.0000 0.0000 0.0000 39.0077 0.0000 0.0000
# 5 0.0000 0.0000 0.0000 0.0000 46.8215 0.0000
# 6 0.0000 0.0000 0.0000 0.0000 0.0000 25.9076
#
#
#
# Elastic Compliance Matrix: (Units=1/GPa)
#
#
# Indices 1 2 3 4 5 6 
#
# 1 0.012664 -0.002408 -0.004804 0.000000 0.000000 0.000000
# 2 -0.002408 0.007824 -0.002980 0.000000 0.000000 0.000000
# 3 -0.004804 -0.002980 0.011842 0.000000 0.000000 0.000000
# 4 0.000000 0.000000 0.000000 0.025636 0.000000 0.000000
# 5 0.000000 0.000000 0.000000 0.000000 0.021358 0.000000
# 6 0.000000 0.000000 0.000000 0.000000 0.000000 0.038599
#
#
# Mechanical properties :
#
#
# Convention : Reuss Voigt Hill
#
# Bulk Modulus (GPa) = 83.70490 86.42846 85.06668
# Shear Modulus (GPa) = 35.13994 37.34191 36.24093
#
# Velocity S-wave (km/s) = 4.12664 4.25396 4.19078
# Velocity P-wave (km/s) = 7.95422 8.12479 8.03996
#
# Compressibility (1/GPa) = 0.01194673
#
# Stress axis : x y z
#
# Youngs Moduli (GPa) = 78.96209 127.81984 84.44292
#
# Poissons Ratio (x) = 0.30779 0.40566
# Poissons Ratio (y) = 0.19014 0.25161
# Poissons Ratio (z) = 0.37933 0.38086
#
# Static dielectric constant tensor:
#      x y z
#    x 3.711380 0.000000 0.000000 
#    y 0.000000 3.817330 0.000000 
#    z 0.000000 0.000000 4.418620 
# 
# 
# High freq. dielectric constant tensor:
#      x y z
#    x 1.801180 0.000000 0.000000 
#    y 0.000000 1.832080 0.000000 
#    z 0.000000 0.000000 1.819150 
# 
# From -- ./inp_files/43091.got.cif
#   From: 2010.03.12/outbox.cif.g09.slc.cpg/sg67_22_cif.got.tgz:43091.got - 2010.04.10 22:41:39.
