data_PCOD8280340
_publ_section_title
;
Structure prediction by ZEFSAII (Michael W. Deem and Ramdas Pophale) SiO2 
 PCOD8280340
Probable space group: C M M A
;
_chemical_formula_sum "Si O2"
_cell_formula_units_Z 100
_cell_length_a 9.175854
_cell_length_b 29.445929
_cell_length_c 19.869910
_cell_angle_alpha 90.000000
_cell_angle_beta 90.000000
_cell_angle_gamma 90.000000
_cell_volume 5368.681690
_symmetry_space_group_name_H-M "C M M A"
_symmetry_group_IT_number 67
_symmetry_cell_setting 'orthorhombic'
loop_
_space_group_symop_operation_xyz
x,y,z
-x,1/2-y,z
x,-y,-z
-x,1/2+y,-z
-x,-y,-z
x,1/2+y,-z
-x,y,z
x,1/2-y,z
1/2+x,1/2+y,z
1/2-x,-y,z
1/2+x,1/2-y,-z
1/2-x,y,-z
1/2-x,1/2-y,-z
1/2+x,y,-z
1/2-x,1/2+y,z
1/2+x,-y,z
loop_
_atom_site_type_symbol
_atom_site_label
_atom_site_fract_x
_atom_site_fract_y
_atom_site_fract_z
Si Si1 0.662493 0.434716 0.613140
Si Si2 0.827936 0.139046 0.807812
Si Si3 0.250000 0.500000 0.500000
Si Si4 0.828728 0.198024 0.931156
Si Si5 0.829003 0.164804 0.432519
Si Si6 0.835207 0.800674 0.311841
Si Si7 0.172863 0.544496 0.251794
O O1 0.500000 0.431943 0.644149
O O2 0.654815 0.468714 0.549640
O O3 0.715655 0.386336 0.586293
O O4 0.773541 0.449431 0.671487
O O5 0.767031 0.162097 0.875981
O O6 0.765830 0.166425 0.744158
O O7 0.783728 0.086354 0.797411
O O8 0.000000 0.145231 0.808409
O O9 0.792859 0.250000 0.909288
O O10 0.000000 0.191906 0.942160
O O11 0.750000 0.185245 0.000000
O O12 0.750000 0.179721 0.500000
O O13 0.769472 0.198259 0.375730
O O14 0.000000 0.171185 0.441504
O O15 0.836761 0.750000 0.282061
O O16 0.000000 0.815858 0.331365
O O17 0.250000 0.500000 0.220580
O O18 0.000000 0.537679 0.254432
#
# Coordination Sequence:
#
# PCOD8280340 Si02
#       7
#    16  16   4  16  16  16  16
#     4  11  23  36  52  76 103 135 174 222 278 334
#     4   9  18  34  57  83 111 148 183 221 270 327
#     4  12  22  36  56  78 104 132 176 228 286 348
#     4   9  17  32  56  87 121 152 184 221 266 322
#     4  11  23  38  54  74 103 137 176 222 276 334
#     4  10  20  36  58  81 103 135 182 227 271 327
#     4  11  22  36  56  79 108 141 181 226 271 324
#
# _framework density 18.626548
#
# number of rings (size 3 to 8) (size 9 to 14) (size 15 to 20)
#    0.000    1.760    3.200    1.680    0.000    3.840 
#    0.000    2.400    0.000    2.400    0.000    3.360 
#    0.000    0.000    0.000    0.000    0.000    0.000 
#
# Total GULP energy -619930.428757 kJ/mol
# GULP energy per Si atom -12398.608575 kJ/mol
# Density = 1.858415 g / cm^3
# Si number density = 18.626548 Si / 1000 Ang^3
#
#
#
# Elastic Constant Matrix: (Units=GPa)
#
#
# Indices 1 2 3 4 5 6 
#
# 1 69.5314 38.3703 40.6197 0.0000 0.0000 0.0000
# 2 38.3703 113.9979 65.5891 0.0000 0.0000 0.0000
# 3 40.6197 65.5891 126.7676 0.0000 0.0000 0.0000
# 4 0.0000 0.0000 0.0000 33.4024 0.0000 0.0000
# 5 0.0000 0.0000 0.0000 0.0000 23.7411 0.0000
# 6 0.0000 0.0000 0.0000 0.0000 0.0000 22.8812
#
#
#
# Elastic Compliance Matrix: (Units=1/GPa)
#
#
# Indices 1 2 3 4 5 6 
#
# 1 0.018956 -0.004109 -0.003948 0.000000 0.000000 0.000000
# 2 -0.004109 0.013381 -0.005607 0.000000 0.000000 0.000000
# 3 -0.003948 -0.005607 0.012054 0.000000 0.000000 0.000000
# 4 0.000000 0.000000 0.000000 0.029938 0.000000 0.000000
# 5 0.000000 0.000000 0.000000 0.000000 0.042121 0.000000
# 6 0.000000 0.000000 0.000000 0.000000 0.000000 0.043704
#
#
# Mechanical properties :
#
#
# Convention : Reuss Voigt Hill
#
# Bulk Modulus (GPa) = 58.60269 66.60613 62.60441
# Shear Modulus (GPa) = 25.88407 27.05280 26.46844
#
# Velocity S-wave (km/s) = 3.73182 3.81514 3.77371
# Velocity P-wave (km/s) = 7.07806 7.43259 7.25749
#
# Compressibility (1/GPa) = 0.01706406
#
# Stress axis : x y z
#
# Youngs Moduli (GPa) = 52.75432 74.73371 82.95734
#
# Poissons Ratio (x) = 0.30706 0.32752
# Poissons Ratio (y) = 0.21675 0.46511
# Poissons Ratio (z) = 0.20828 0.41901
#
# Static dielectric constant tensor:
#      x y z
#    x 3.215080 0.000000 0.000000 
#    y 0.000000 3.654540 0.000000 
#    z 0.000000 0.000000 3.313040 
# 
# 
# High freq. dielectric constant tensor:
#      x y z
#    x 1.707650 0.000000 0.000000 
#    y 0.000000 1.731860 0.000000 
#    z 0.000000 0.000000 1.701620 
# 
# From -- ./inp_files/37532.got.cif
#   From: 2010.03.12/outbox.cif.g09.slc.cpg/sg67_19_cif.got.tgz:37532.got - 2010.04.10 22:41:39.
