data_PCOD8280628
_publ_section_title
;
Structure prediction by ZEFSAII (Michael W. Deem and Ramdas Pophale) SiO2 
 PCOD8280628
Probable space group: C M M A
;
_chemical_formula_sum "Si O2"
_cell_formula_units_Z 100
_cell_length_a 27.397660
_cell_length_b 9.337510
_cell_length_c 25.252765
_cell_angle_alpha 90.000000
_cell_angle_beta 90.000000
_cell_angle_gamma 90.000000
_cell_volume 6460.311945
_symmetry_space_group_name_H-M "C M M A"
_symmetry_group_IT_number 67
_symmetry_cell_setting 'orthorhombic'
loop_
_space_group_symop_operation_xyz
x,y,z
-x,1/2-y,z
x,-y,-z
-x,1/2+y,-z
-x,-y,-z
x,1/2+y,-z
-x,y,z
x,1/2-y,z
1/2+x,1/2+y,z
1/2-x,-y,z
1/2+x,1/2-y,-z
1/2-x,y,-z
1/2-x,1/2-y,-z
1/2+x,y,-z
1/2-x,1/2+y,z
1/2+x,-y,z
loop_
_atom_site_type_symbol
_atom_site_label
_atom_site_fract_x
_atom_site_fract_y
_atom_site_fract_z
Si Si1 0.558238 0.410853 0.449941
Si Si2 0.442113 0.908185 0.352602
Si Si3 0.443193 0.917383 0.233322
Si Si4 0.600854 0.920954 0.860513
Si Si5 0.250000 0.000000 0.000000
Si Si6 0.056740 0.590190 0.951920
Si Si7 0.793261 0.908666 0.102894
O O1 0.577999 0.500000 0.500000
O O2 0.500000 0.410414 0.449761
O O3 0.578729 0.250000 0.453721
O O4 0.578805 0.481174 0.395838
O O5 0.500000 0.901739 0.356436
O O6 0.421132 0.750000 0.365161
O O7 0.427417 0.954711 0.293354
O O8 0.500000 0.954071 0.223724
O O9 0.433829 0.750000 0.220700
O O10 0.409193 0.019703 0.198049
O O11 0.593563 0.750000 0.862896
O O12 0.654337 0.970010 0.880293
O O13 0.562747 0.000763 0.898303
O O14 0.214337 0.908161 0.038674
O O15 0.080481 0.750000 0.948397
O O16 0.000000 0.609290 0.963014
O O17 0.081095 0.500000 0.000000
O O18 0.788536 0.750000 0.125428
O O19 0.750000 0.000000 0.130314
#
# Coordination Sequence:
#
# PCOD8280628 Si02
#       7
#    16  16  16  16   4  16  16
#     4   9  15  21  31  49  73 101 136 176 219 260
#     4   8  14  25  39  53  73 102 139 182 218 247
#     4   9  18  32  47  63  84 115 153 184 213 253
#     4  11  22  33  46  69  91 108 136 172 210 252
#     4   8  18  36  54  64  88 104 126 160 200 252
#     4  10  21  35  48  63  84 110 139 169 203 245
#     4   9  20  34  50  70  88 106 131 163 203 252
#
# _framework density 15.479127999999999
#
# number of rings (size 3 to 8) (size 9 to 14) (size 15 to 20)
#    0.480    2.240    0.000    3.120    1.120    7.040 
#    0.000    1.600    0.000    0.000    0.000    0.000 
#    0.000    0.000    0.000    0.000    0.000    0.800 
#
# Total GULP energy -619624.224526 kJ/mol
# GULP energy per Si atom -12392.484491 kJ/mol
# Density = 1.544390 g / cm^3
# Si number density = 15.479128 Si / 1000 Ang^3
#
#
#
# Elastic Constant Matrix: (Units=GPa)
#
#
# Indices 1 2 3 4 5 6 
#
# 1 37.9601 24.1881 23.0257 0.0000 0.0000 0.0000
# 2 24.1881 112.9774 64.1188 0.0000 0.0000 0.0000
# 3 23.0257 64.1188 115.7343 0.0000 0.0000 0.0000
# 4 0.0000 0.0000 0.0000 30.0063 0.0000 0.0000
# 5 0.0000 0.0000 0.0000 0.0000 8.2739 0.0000
# 6 0.0000 0.0000 0.0000 0.0000 0.0000 16.3200
#
#
#
# Elastic Compliance Matrix: (Units=1/GPa)
#
#
# Indices 1 2 3 4 5 6 
#
# 1 0.031554 -0.004657 -0.003698 0.000000 0.000000 0.000000
# 2 -0.004657 0.013598 -0.006607 0.000000 0.000000 0.000000
# 3 -0.003698 -0.006607 0.013037 0.000000 0.000000 0.000000
# 4 0.000000 0.000000 0.000000 0.033326 0.000000 0.000000
# 5 0.000000 0.000000 0.000000 0.000000 0.120862 0.000000
# 6 0.000000 0.000000 0.000000 0.000000 0.000000 0.061275
#
#
# Mechanical properties :
#
#
# Convention : Reuss Voigt Hill
#
# Bulk Modulus (GPa) = 35.37942 54.37077 44.87509
# Shear Modulus (GPa) = 15.97463 21.27600 18.62531
#
# Velocity S-wave (km/s) = 3.21598 3.71144 3.47256
# Velocity P-wave (km/s) = 6.05771 7.31901 6.71802
#
# Compressibility (1/GPa) = 0.02826502
#
# Stress axis : x y z
#
# Youngs Moduli (GPa) = 31.69191 73.53953 76.70735
#
# Poissons Ratio (x) = 0.34248 0.28364
# Poissons Ratio (y) = 0.14759 0.50681
# Poissons Ratio (z) = 0.11719 0.48588
#
# Static dielectric constant tensor:
#      x y z
#    x 2.498520 0.000000 0.000000 
#    y 0.000000 3.145270 0.000000 
#    z 0.000000 0.000000 3.012910 
# 
# 
# High freq. dielectric constant tensor:
#      x y z
#    x 1.529310 0.000000 0.000000 
#    y 0.000000 1.606630 0.000000 
#    z 0.000000 0.000000 1.588210 
# 
# From -- ./inp_files/45072.got.cif
#   From: 2010.03.12/outbox.cif.g09.slc.cpg/sg67_23_cif.got.tgz:45072.got - 2010.04.10 22:41:39.
