data_PCOD8280092
_publ_section_title
;
Structure prediction by ZEFSAII (Michael W. Deem and Ramdas Pophale) SiO2 
 PCOD8280092
Probable space group: C M M A
;
_chemical_formula_sum "Si O2"
_cell_formula_units_Z 64
_cell_length_a 8.616978
_cell_length_b 19.587916
_cell_length_c 20.316449
_cell_angle_alpha 90.000000
_cell_angle_beta 90.000000
_cell_angle_gamma 90.000000
_cell_volume 3429.185821
_symmetry_space_group_name_H-M "C M M A"
_symmetry_group_IT_number 67
_symmetry_cell_setting 'orthorhombic'
loop_
_space_group_symop_operation_xyz
x,y,z
-x,1/2-y,z
x,-y,-z
-x,1/2+y,-z
-x,-y,-z
x,1/2+y,-z
-x,y,z
x,1/2-y,z
1/2+x,1/2+y,z
1/2-x,-y,z
1/2+x,1/2-y,-z
1/2-x,y,-z
1/2-x,1/2-y,-z
1/2+x,y,-z
1/2-x,1/2+y,z
1/2+x,-y,z
loop_
_atom_site_type_symbol
_atom_site_label
_atom_site_fract_x
_atom_site_fract_y
_atom_site_fract_z
Si Si1 0.319936 0.670247 0.930036
Si Si2 0.316581 0.827119 0.568327
Si Si3 0.684291 0.926858 0.682096
Si Si4 0.682985 0.427000 0.822544
O O1 0.500000 0.650020 0.928167
O O2 0.294848 0.750000 0.916469
O O3 0.226716 0.629992 0.874958
O O4 0.250000 0.648952 0.000000
O O5 0.500000 0.829746 0.564412
O O6 0.256512 0.750000 0.579945
O O7 0.250000 0.856477 0.500000
O O8 0.255356 0.872819 0.628435
O O9 0.500000 0.930172 0.685499
O O10 0.747735 0.903769 0.752763
O O11 0.750000 0.000000 0.661297
O O12 0.500000 0.433658 0.816154
O O13 0.750000 0.500000 0.844850
#
# Coordination Sequence:
#
# PCOD8280092 Si02
#       4
#    16  16  16  16
#     4  10  21  38  59  83 112 144 179 221 268 318
#     4   9  19  35  54  76 103 136 174 216 262 313
#     4  10  20  35  54  77 106 139 176 218 266 317
#     4  11  22  37  57  81 110 143 182 224 269 320
#
# _framework density 18.663321
#
# number of rings (size 3 to 8) (size 9 to 14) (size 15 to 20)
#    0.000    2.000    0.000    5.250    0.000    5.500 
#    0.000    7.500    0.000    0.000    0.000    0.000 
#    0.000    0.000    0.000    0.000    0.000    0.000 
#
# Total GULP energy -396912.257490 kJ/mol
# GULP energy per Si atom -12403.508047 kJ/mol
# Density = 1.862084 g / cm^3
# Si number density = 18.663321 Si / 1000 Ang^3
#
#
#
# Elastic Constant Matrix: (Units=GPa)
#
#
# Indices 1 2 3 4 5 6 
#
# 1 90.4201 34.7292 45.3446 0.0000 0.0000 0.0000
# 2 34.7292 86.3308 86.2400 0.0000 0.0000 0.0000
# 3 45.3446 86.2400 148.6483 0.0000 0.0000 0.0000
# 4 0.0000 0.0000 0.0000 40.1021 0.0000 0.0000
# 5 0.0000 0.0000 0.0000 0.0000 35.7202 0.0000
# 6 0.0000 0.0000 0.0000 0.0000 0.0000 29.5217
#
#
#
# Elastic Compliance Matrix: (Units=1/GPa)
#
#
# Indices 1 2 3 4 5 6 
#
# 1 0.013399 -0.003109 -0.002284 0.000000 0.000000 0.000000
# 2 -0.003109 0.028271 -0.015454 0.000000 0.000000 0.000000
# 3 -0.002284 -0.015454 0.016389 0.000000 0.000000 0.000000
# 4 0.000000 0.000000 0.000000 0.024936 0.000000 0.000000
# 5 0.000000 0.000000 0.000000 0.000000 0.027995 0.000000
# 6 0.000000 0.000000 0.000000 0.000000 0.000000 0.033873
#
#
# Mechanical properties :
#
#
# Convention : Reuss Voigt Hill
#
# Bulk Modulus (GPa) = 61.09683 73.11410 67.10547
# Shear Modulus (GPa) = 26.03995 31.67449 28.85722
#
# Velocity S-wave (km/s) = 3.73935 4.12412 3.93644
# Velocity P-wave (km/s) = 7.17294 7.87008 7.52958
#
# Compressibility (1/GPa) = 0.01636746
#
# Stress axis : x y z
#
# Youngs Moduli (GPa) = 74.63374 35.37151 61.01473
#
# Poissons Ratio (x) = 0.10996 0.13933
# Poissons Ratio (y) = 0.23203 0.94290
# Poissons Ratio (z) = 0.17043 0.54662
#
# Static dielectric constant tensor:
#      x y z
#    x 3.496220 0.000000 0.000000 
#    y 0.000000 3.507260 0.000000 
#    z 0.000000 0.000000 3.557990 
# 
# 
# High freq. dielectric constant tensor:
#      x y z
#    x 1.736380 0.000000 0.000000 
#    y 0.000000 1.722340 0.000000 
#    z 0.000000 0.000000 1.733330 
# 
# From -- ./inp_files/24810.got.cif
#   From: 2010.03.12/outbox.cif.g09.slc.cpg/sg67_13_cif.got.tgz:24810.got - 2010.04.10 22:41:39.
