data_PCOD8280452
_publ_section_title
;
Structure prediction by ZEFSAII (Michael W. Deem and Ramdas Pophale) SiO2 
 PCOD8280452
Probable space group: C M M A
;
_chemical_formula_sum "Si O2"
_cell_formula_units_Z 112
_cell_length_a 26.925087
_cell_length_b 13.731182
_cell_length_c 13.785677
_cell_angle_alpha 90.000000
_cell_angle_beta 90.000000
_cell_angle_gamma 90.000000
_cell_volume 5096.747722
_symmetry_space_group_name_H-M "C M M A"
_symmetry_group_IT_number 67
_symmetry_cell_setting 'orthorhombic'
loop_
_space_group_symop_operation_xyz
x,y,z
-x,1/2-y,z
x,-y,-z
-x,1/2+y,-z
-x,-y,-z
x,1/2+y,-z
-x,y,z
x,1/2-y,z
1/2+x,1/2+y,z
1/2-x,-y,z
1/2+x,1/2-y,-z
1/2-x,y,-z
1/2-x,1/2-y,-z
1/2+x,y,-z
1/2-x,1/2+y,z
1/2+x,-y,z
loop_
_atom_site_type_symbol
_atom_site_label
_atom_site_fract_x
_atom_site_fract_y
_atom_site_fract_z
Si Si1 0.354116 0.641137 0.550749
Si Si2 0.442369 0.635287 0.249039
Si Si3 0.650652 0.445411 0.650560
Si Si4 0.946639 0.638308 0.335629
Si Si5 0.193457 0.481685 0.156977
Si Si6 0.384888 0.361615 0.941788
Si Si7 0.384931 0.637126 0.843034
O O1 0.336439 0.750000 0.582991
O O2 0.338570 0.626136 0.439360
O O3 0.333479 0.555380 0.619167
O O4 0.413733 0.630108 0.566591
O O5 0.500000 0.606587 0.263162
O O6 0.434126 0.750000 0.270882
O O7 0.407724 0.571034 0.321240
O O8 0.426185 0.611253 0.138178
O O9 0.685929 0.420416 0.742022
O O10 0.955019 0.750000 0.308757
O O11 0.921004 0.591512 0.239263
O O12 0.000000 0.587514 0.353733
O O13 0.250000 0.500000 0.129137
O O14 0.166027 0.422067 0.072034
O O15 0.168066 0.586337 0.170414
O O16 0.369111 0.250000 0.934373
O O17 0.406727 0.384425 0.049178
O O18 0.375304 0.750000 0.824348
#
# Coordination Sequence:
#
# PCOD8280452 Si02
#       7
#    16  16  16  16  16  16  16
#     4  10  20  37  59  82 115 151 187 234 285 342
#     4   9  18  34  56  84 119 156 193 233 280 339
#     4  10  21  37  59  84 113 149 191 236 294 345
#     4   9  18  33  56  85 116 151 190 230 278 338
#     4  11  23  40  61  84 112 148 191 244 297 353
#     4   9  20  37  57  84 118 155 195 237 281 338
#     4  10  20  37  59  84 118 154 191 238 288 337
#
# _framework density 21.974798
#
# number of rings (size 3 to 8) (size 9 to 14) (size 15 to 20)
#    0.000    2.286    1.429    0.857    0.000    4.000 
#    0.000    8.571    0.000    3.429    0.000    0.000 
#    0.000    0.000    0.000    0.000    0.000    0.000 
#
# Total GULP energy -693835.306824 kJ/mol
# GULP energy per Si atom -12389.916193 kJ/mol
# Density = 2.192478 g / cm^3
# Si number density = 21.974798 Si / 1000 Ang^3
#
#
#
# Elastic Constant Matrix: (Units=GPa)
#
#
# Indices 1 2 3 4 5 6 
#
# 1 44.9483 -0.6369 -19.5556 0.0000 0.0000 0.0000
# 2 -0.6369 60.5670 22.3167 0.0000 0.0000 0.0000
# 3 -19.5556 22.3167 80.2824 0.0000 0.0000 0.0000
# 4 0.0000 0.0000 0.0000 29.8486 0.0000 0.0000
# 5 0.0000 0.0000 0.0000 0.0000 13.8564 0.0000
# 6 0.0000 0.0000 0.0000 0.0000 0.0000 22.9907
#
#
#
# Elastic Compliance Matrix: (Units=1/GPa)
#
#
# Indices 1 2 3 4 5 6 
#
# 1 0.025150 -0.002220 0.006743 0.000000 0.000000 0.000000
# 2 -0.002220 0.018591 -0.005709 0.000000 0.000000 0.000000
# 3 0.006743 -0.005709 0.015686 0.000000 0.000000 0.000000
# 4 0.000000 0.000000 0.000000 0.033502 0.000000 0.000000
# 5 0.000000 0.000000 0.000000 0.000000 0.072169 0.000000
# 6 0.000000 0.000000 0.000000 0.000000 0.000000 0.043496
#
#
# Mechanical properties :
#
#
# Convention : Reuss Voigt Hill
#
# Bulk Modulus (GPa) = 17.52682 21.11624 19.32153
# Shear Modulus (GPa) = 21.74072 25.58402 23.66237
#
# Velocity S-wave (km/s) = 3.14880 3.41580 3.28502
# Velocity P-wave (km/s) = 4.60577 5.01868 4.81665
#
# Compressibility (1/GPa) = 0.05705541
#
# Stress axis : x y z
#
# Youngs Moduli (GPa) = 39.76120 53.79029 63.75312
#
# Poissons Ratio (x) = 0.11943 -0.42991
# Poissons Ratio (y) = 0.08828 0.36394
# Poissons Ratio (z) = -0.26813 0.30707
#
# Static dielectric constant tensor:
#      x y z
#    x 3.594160 0.000000 0.000000 
#    y 0.000000 4.138580 0.000000 
#    z 0.000000 0.000000 4.181030 
# 
# 
# High freq. dielectric constant tensor:
#      x y z
#    x 1.811270 0.000000 0.000000 
#    y 0.000000 1.878110 0.000000 
#    z 0.000000 0.000000 1.873540 
# 
# From -- ./inp_files/30788.got.cif
#   From: 2010.03.12/outbox.cif.g09.slc.cpg/sg67_16_cif.got.tgz:30788.got - 2010.04.10 22:41:39.
