data_PCOD8280976
_publ_section_title
;
Structure prediction by ZEFSAII (Michael W. Deem and Ramdas Pophale) SiO2 
 PCOD8280976
Probable space group: C M M A
;
_chemical_formula_sum "Si O2"
_cell_formula_units_Z 112
_cell_length_a 14.100530
_cell_length_b 31.334829
_cell_length_c 11.671015
_cell_angle_alpha 90.000000
_cell_angle_beta 90.000000
_cell_angle_gamma 90.000000
_cell_volume 5156.694382
_symmetry_space_group_name_H-M "C M M A"
_symmetry_group_IT_number 67
_symmetry_cell_setting 'orthorhombic'
loop_
_space_group_symop_operation_xyz
x,y,z
-x,1/2-y,z
x,-y,-z
-x,1/2+y,-z
-x,-y,-z
x,1/2+y,-z
-x,y,z
x,1/2-y,z
1/2+x,1/2+y,z
1/2-x,-y,z
1/2+x,1/2-y,-z
1/2-x,y,-z
1/2-x,1/2-y,-z
1/2+x,y,-z
1/2-x,1/2+y,z
1/2+x,-y,z
loop_
_atom_site_type_symbol
_atom_site_label
_atom_site_fract_x
_atom_site_fract_y
_atom_site_fract_z
Si Si1 0.109699 0.383424 0.545523
Si Si2 0.217574 0.455520 0.686842
Si Si3 0.387121 0.460081 0.074823
Si Si4 0.605949 0.596921 0.288030
Si Si5 0.390931 0.125041 0.954428
Si Si6 0.387437 0.703175 0.654570
Si Si7 0.612956 0.703861 0.913434
O O1 0.168947 0.423357 0.595778
O O2 0.121505 0.380259 0.409235
O O3 0.152391 0.338064 0.587100
O O4 0.000000 0.389776 0.582020
O O5 0.250000 0.500000 0.627003
O O6 0.150390 0.462506 0.795622
O O7 0.318015 0.439313 0.732679
O O8 0.500000 0.460384 0.081974
O O9 0.350256 0.500000 0.000000
O O10 0.347340 0.417839 0.010351
O O11 0.500000 0.576625 0.281713
O O12 0.620198 0.629540 0.182677
O O13 0.500000 0.125106 0.990555
O O14 0.341047 0.166591 0.009485
O O15 0.500000 0.702594 0.646100
O O16 0.351843 0.750000 0.608288
O O17 0.352304 0.697114 0.783922
O O18 0.500000 0.702564 0.917260
O O19 0.648094 0.750000 0.959272
#
# Coordination Sequence:
#
# PCOD8280976 Si02
#       7
#    16  16  16  16  16  16  16
#     4  10  21  39  61  86 116 151 196 247 298 351
#     4  12  25  39  60  86 113 148 196 245 295 351
#     4  10  21  38  61  89 117 144 183 238 297 355
#     4  10  23  40  56  77 113 158 198 238 283 340
#     4   9  17  32  53  78 112 150 182 219 276 338
#     4   8  14  28  55  89 118 145 184 238 298 356
#     4   8  13  23  45  79 113 142 177 223 275 336
#
# _framework density 21.719342000000001
#
# number of rings (size 3 to 8) (size 9 to 14) (size 15 to 20)
#    0.000    2.429    0.000    3.429    0.000    7.714 
#    0.000    2.143    0.000    7.286    0.000    3.000 
#    0.000    0.000    0.000    0.000    0.000    0.000 
#
# Total GULP energy -693881.430240 kJ/mol
# GULP energy per Si atom -12390.739826 kJ/mol
# Density = 2.166991 g / cm^3
# Si number density = 21.719342 Si / 1000 Ang^3
#
#
#
# Elastic Constant Matrix: (Units=GPa)
#
#
# Indices 1 2 3 4 5 6 
#
# 1 56.4866 25.0782 16.4534 0.0000 0.0000 0.0000
# 2 25.0782 209.3218 74.4592 0.0000 0.0000 0.0000
# 3 16.4534 74.4592 104.3926 0.0000 0.0000 0.0000
# 4 0.0000 0.0000 0.0000 13.4009 0.0000 0.0000
# 5 0.0000 0.0000 0.0000 0.0000 17.0954 0.0000
# 6 0.0000 0.0000 0.0000 0.0000 0.0000 8.3519
#
#
#
# Elastic Compliance Matrix: (Units=1/GPa)
#
#
# Indices 1 2 3 4 5 6 
#
# 1 0.018956 -0.001619 -0.001833 0.000000 0.000000 0.000000
# 2 -0.001619 0.006540 -0.004409 0.000000 0.000000 0.000000
# 3 -0.001833 -0.004409 0.013013 0.000000 0.000000 0.000000
# 4 0.000000 0.000000 0.000000 0.074622 0.000000 0.000000
# 5 0.000000 0.000000 0.000000 0.000000 0.058495 0.000000
# 6 0.000000 0.000000 0.000000 0.000000 0.000000 0.119733
#
#
# Mechanical properties :
#
#
# Convention : Reuss Voigt Hill
#
# Bulk Modulus (GPa) = 43.88602 66.90918 55.39760
# Shear Modulus (GPa) = 15.88928 24.71698 20.30313
#
# Velocity S-wave (km/s) = 2.70769 3.37711 3.06076
# Velocity P-wave (km/s) = 5.47954 6.78820 6.16867
#
# Compressibility (1/GPa) = 0.02278630
#
# Stress axis : x y z
#
# Youngs Moduli (GPa) = 52.75378 152.90967 76.84537
#
# Poissons Ratio (x) = 0.24758 0.14084
# Poissons Ratio (y) = 0.08541 0.33884
# Poissons Ratio (z) = 0.09669 0.67424
#
# Static dielectric constant tensor:
#      x y z
#    x 3.760360 0.000000 0.000000 
#    y 0.000000 4.438150 0.000000 
#    z 0.000000 0.000000 3.835030 
# 
# 
# High freq. dielectric constant tensor:
#      x y z
#    x 1.841150 0.000000 0.000000 
#    y 0.000000 1.854530 0.000000 
#    z 0.000000 0.000000 1.847950 
# 
# From -- ./inp_files/18614.got.cif
#   From: 2010.03.12/outbox.cif.g09.slc.cpg/sg67_10_cif.got.tgz:18614.got - 2010.04.10 22:41:39.
