data_PCOD8280046
_publ_section_title
;
Structure prediction by ZEFSAII (Michael W. Deem and Ramdas Pophale) SiO2 
 PCOD8280046
Probable space group: C M M A
;
_chemical_formula_sum "Si O2"
_cell_formula_units_Z 88
_cell_length_a 8.740177
_cell_length_b 26.772810
_cell_length_c 18.896704
_cell_angle_alpha 90.000000
_cell_angle_beta 90.000000
_cell_angle_gamma 90.000000
_cell_volume 4421.811695
_symmetry_space_group_name_H-M "C M M A"
_symmetry_group_IT_number 67
_symmetry_cell_setting 'orthorhombic'
loop_
_space_group_symop_operation_xyz
x,y,z
-x,1/2-y,z
x,-y,-z
-x,1/2+y,-z
-x,-y,-z
x,1/2+y,-z
-x,y,z
x,1/2-y,z
1/2+x,1/2+y,z
1/2-x,-y,z
1/2+x,1/2-y,-z
1/2-x,y,-z
1/2-x,1/2-y,-z
1/2+x,y,-z
1/2-x,1/2+y,z
1/2+x,-y,z
loop_
_atom_site_type_symbol
_atom_site_label
_atom_site_fract_x
_atom_site_fract_y
_atom_site_fract_z
Si Si1 0.681004 0.856129 0.923001
Si Si2 0.819436 0.652952 0.336921
Si Si3 0.826631 0.193126 0.200856
Si Si4 0.681829 0.750000 0.577316
Si Si5 0.322761 0.551805 0.322325
Si Si6 0.321559 0.948693 0.156155
O O1 0.500000 0.853039 0.927430
O O2 0.746810 0.811052 0.875426
O O3 0.732848 0.907079 0.886978
O O4 0.750000 0.850393 0.000000
O O5 0.767902 0.660798 0.256442
O O6 0.759098 0.699634 0.383704
O O7 0.749947 0.599862 0.362701
O O8 0.000000 0.649212 0.340490
O O9 0.826024 0.250000 0.225550
O O10 0.000000 0.171883 0.197417
O O11 0.500000 0.750000 0.574480
O O12 0.750000 0.750000 0.500000
O O13 0.500000 0.550112 0.340785
O O14 0.250000 0.500000 0.350316
O O15 0.290613 0.557941 0.239207
O O16 0.500000 0.946972 0.137775
O O17 0.250000 0.000000 0.128898
#
# Coordination Sequence:
#
# PCOD8280046 Si02
#       6
#    16  16  16   8  16  16
#     4  12  25  40  58  78 109 150 195 249 306 362
#     4  11  21  37  62  93 127 163 204 249 299 356
#     4  11  23  39  60  86 114 149 196 245 298 361
#     4  10  24  42  64  98 135 170 205 244 294 354
#     4  10  20  34  57  89 124 161 203 253 304 358
#     4  10  20  35  55  81 113 147 193 243 299 358
#
# _framework density 19.901346
#
# number of rings (size 3 to 8) (size 9 to 14) (size 15 to 20)
#    0.000    1.273    2.727    3.818    0.000    4.727 
#    0.000    1.818    0.000    0.545    0.000    3.818 
#    0.000    0.000    0.000    0.000    0.000    0.000 
#
# Total GULP energy -545679.088397 kJ/mol
# GULP energy per Si atom -12401.797464 kJ/mol
# Density = 1.985605 g / cm^3
# Si number density = 19.901346 Si / 1000 Ang^3
#
#
#
# Elastic Constant Matrix: (Units=GPa)
#
#
# Indices 1 2 3 4 5 6 
#
# 1 112.0190 55.8578 37.1811 0.0000 0.0000 0.0000
# 2 55.8578 153.5286 43.7112 0.0000 0.0000 0.0000
# 3 37.1811 43.7112 59.5838 0.0000 0.0000 0.0000
# 4 0.0000 0.0000 0.0000 30.0937 0.0000 0.0000
# 5 0.0000 0.0000 0.0000 0.0000 27.4438 0.0000
# 6 0.0000 0.0000 0.0000 0.0000 0.0000 37.2681
#
#
#
# Elastic Compliance Matrix: (Units=1/GPa)
#
#
# Indices 1 2 3 4 5 6 
#
# 1 0.012181 -0.002866 -0.005499 0.000000 0.000000 0.000000
# 2 -0.002866 0.008908 -0.004746 0.000000 0.000000 0.000000
# 3 -0.005499 -0.004746 0.023696 0.000000 0.000000 0.000000
# 4 0.000000 0.000000 0.000000 0.033230 0.000000 0.000000
# 5 0.000000 0.000000 0.000000 0.000000 0.036438 0.000000
# 6 0.000000 0.000000 0.000000 0.000000 0.000000 0.026833
#
#
# Mechanical properties :
#
#
# Convention : Reuss Voigt Hill
#
# Bulk Modulus (GPa) = 53.87049 66.51461 60.19255
# Shear Modulus (GPa) = 28.78614 31.51988 30.15301
#
# Velocity S-wave (km/s) = 3.80734 3.98402 3.89668
# Velocity P-wave (km/s) = 6.81581 7.39310 7.11032
#
# Compressibility (1/GPa) = 0.01856304
#
# Stress axis : x y z
#
# Youngs Moduli (GPa) = 82.09199 112.26426 42.20137
#
# Poissons Ratio (x) = 0.32180 0.23205
# Poissons Ratio (y) = 0.23531 0.20029
# Poissons Ratio (z) = 0.45139 0.53280
#
# Static dielectric constant tensor:
#      x y z
#    x 3.695220 0.000000 0.000000 
#    y 0.000000 4.009850 0.000000 
#    z 0.000000 0.000000 3.245430 
# 
# 
# High freq. dielectric constant tensor:
#      x y z
#    x 1.788970 0.000000 0.000000 
#    y 0.000000 1.798110 0.000000 
#    z 0.000000 0.000000 1.738320 
# 
# From -- ./inp_files/32455.got.cif
#   From: 2010.03.12/outbox.cif.g09.slc.cpg/sg67_17_cif.got.tgz:32455.got - 2010.04.10 22:41:39.
