data_PCOD8280307
_publ_section_title
;
Structure prediction by ZEFSAII (Michael W. Deem and Ramdas Pophale) SiO2 
 PCOD8280307
Probable space group: C M M A
;
_chemical_formula_sum "Si O2"
_cell_formula_units_Z 80
_cell_length_a 27.322930
_cell_length_b 8.732952
_cell_length_c 18.870104
_cell_angle_alpha 90.000000
_cell_angle_beta 90.000000
_cell_angle_gamma 90.000000
_cell_volume 4502.592424
_symmetry_space_group_name_H-M "C M M A"
_symmetry_group_IT_number 67
_symmetry_cell_setting 'orthorhombic'
loop_
_space_group_symop_operation_xyz
x,y,z
-x,1/2-y,z
x,-y,-z
-x,1/2+y,-z
-x,-y,-z
x,1/2+y,-z
-x,y,z
x,1/2-y,z
1/2+x,1/2+y,z
1/2-x,-y,z
1/2+x,1/2-y,-z
1/2-x,y,-z
1/2-x,1/2-y,-z
1/2+x,y,-z
1/2-x,1/2+y,z
1/2+x,-y,z
loop_
_atom_site_type_symbol
_atom_site_label
_atom_site_fract_x
_atom_site_fract_y
_atom_site_fract_z
Si Si1 0.556194 0.069250 0.427396
Si Si2 0.603428 0.070443 0.286258
Si Si3 0.198831 0.430581 0.792810
Si Si4 0.646257 0.068810 0.925817
Si Si5 0.055804 0.069409 0.856674
O O1 0.500000 0.019398 0.416797
O O2 0.561592 0.250000 0.431898
O O3 0.586890 0.998489 0.361332
O O4 0.577586 0.000000 0.500000
O O5 0.595801 0.250000 0.292559
O O6 0.659603 0.028571 0.268552
O O7 0.568616 0.011536 0.222644
O O8 0.202944 0.250000 0.804160
O O9 0.250000 0.500000 0.767299
O O10 0.182678 0.505097 0.866475
O O11 0.649711 0.250000 0.927830
O O12 0.590296 0.017699 0.912071
O O13 0.664160 0.000000 0.000000
O O14 0.066201 0.250000 0.863387
O O15 0.000000 0.027856 0.874418
#
# Coordination Sequence:
#
# PCOD8280307 Si02
#       5
#    16  16  16  16  16
#     4   9  16  27  45  71 102 134 165 196 233 278
#     4   8  15  29  50  72  96 128 164 200 239 289
#     4  10  20  36  56  77  97 121 158 202 250 299
#     4  11  22  36  52  72  99 129 162 201 245 292
#     4   9  17  31  51  73  97 129 168 206 245 291
#
# _framework density 17.767543
#
# number of rings (size 3 to 8) (size 9 to 14) (size 15 to 20)
#    0.000    2.600    0.000    4.200    0.000    3.600 
#    0.000    7.000    0.000    5.400    0.000    4.200 
#    0.000    0.000    0.000    0.000    0.000    0.000 
#
# Total GULP energy -495938.092754 kJ/mol
# GULP energy per Si atom -12398.452319 kJ/mol
# Density = 1.772710 g / cm^3
# Si number density = 17.767543 Si / 1000 Ang^3
#
#
#
# Elastic Constant Matrix: (Units=GPa)
#
#
# Indices 1 2 3 4 5 6 
#
# 1 90.1892 36.2404 35.6418 0.0000 0.0000 0.0000
# 2 36.2404 69.8100 33.4455 0.0000 0.0000 0.0000
# 3 35.6418 33.4455 120.1800 0.0000 0.0000 0.0000
# 4 0.0000 0.0000 0.0000 24.7042 0.0000 0.0000
# 5 0.0000 0.0000 0.0000 0.0000 21.3358 0.0000
# 6 0.0000 0.0000 0.0000 0.0000 0.0000 27.5387
#
#
#
# Elastic Compliance Matrix: (Units=1/GPa)
#
#
# Indices 1 2 3 4 5 6 
#
# 1 0.014670 -0.006382 -0.002575 0.000000 0.000000 0.000000
# 2 -0.006382 0.019305 -0.003480 0.000000 0.000000 0.000000
# 3 -0.002575 -0.003480 0.010053 0.000000 0.000000 0.000000
# 4 0.000000 0.000000 0.000000 0.040479 0.000000 0.000000
# 5 0.000000 0.000000 0.000000 0.000000 0.046869 0.000000
# 6 0.000000 0.000000 0.000000 0.000000 0.000000 0.036313
#
#
# Mechanical properties :
#
#
# Convention : Reuss Voigt Hill
#
# Bulk Modulus (GPa) = 52.20638 54.53720 53.37179
# Shear Modulus (GPa) = 25.13250 26.37252 25.75251
#
# Velocity S-wave (km/s) = 3.76509 3.85685 3.81125
# Velocity P-wave (km/s) = 6.95327 7.11303 7.03361
#
# Compressibility (1/GPa) = 0.01915475
#
# Stress axis : x y z
#
# Youngs Moduli (GPa) = 68.16780 51.80062 99.47518
#
# Poissons Ratio (x) = 0.33059 0.25610
# Poissons Ratio (y) = 0.43505 0.34615
# Poissons Ratio (z) = 0.17550 0.18025
#
# Static dielectric constant tensor:
#      x y z
#    x 3.319940 0.000000 0.000000 
#    y 0.000000 3.100980 0.000000 
#    z 0.000000 0.000000 3.470070 
# 
# 
# High freq. dielectric constant tensor:
#      x y z
#    x 1.678900 0.000000 0.000000 
#    y 0.000000 1.671310 0.000000 
#    z 0.000000 0.000000 1.683530 
# 
# From -- ./inp_files/32110.got.cif
#   From: 2010.03.12/outbox.cif.g09.slc.cpg/sg67_17_cif.got.tgz:32110.got - 2010.04.10 22:41:39.
