data_PCOD8280056
_publ_section_title
;
Structure prediction by ZEFSAII (Michael W. Deem and Ramdas Pophale) SiO2 
 PCOD8280056
Probable space group: C M M A
;
_chemical_formula_sum "Si O2"
_cell_formula_units_Z 80
_cell_length_a 25.884886
_cell_length_b 17.153809
_cell_length_c 9.346373
_cell_angle_alpha 90.000000
_cell_angle_beta 90.000000
_cell_angle_gamma 90.000000
_cell_volume 4150.017574
_symmetry_space_group_name_H-M "C M M A"
_symmetry_group_IT_number 67
_symmetry_cell_setting 'orthorhombic'
loop_
_space_group_symop_operation_xyz
x,y,z
-x,1/2-y,z
x,-y,-z
-x,1/2+y,-z
-x,-y,-z
x,1/2+y,-z
-x,y,z
x,1/2-y,z
1/2+x,1/2+y,z
1/2-x,-y,z
1/2+x,1/2-y,-z
1/2-x,y,-z
1/2-x,1/2-y,-z
1/2+x,y,-z
1/2-x,1/2+y,z
1/2+x,-y,z
loop_
_atom_site_type_symbol
_atom_site_label
_atom_site_fract_x
_atom_site_fract_y
_atom_site_fract_z
Si Si1 0.377177 0.928837 0.904945
Si Si2 0.278542 0.571720 0.351229
Si Si3 0.898394 0.467362 0.347298
Si Si4 0.777131 0.339200 0.860786
Si Si5 0.939765 0.340080 0.146372
O O1 0.330612 0.882658 0.832467
O O2 0.408479 0.964903 0.770381
O O3 0.411628 0.873128 0.004825
O O4 0.355422 0.000000 0.000000
O O5 0.250000 0.500000 0.269058
O O6 0.250000 0.581237 0.500000
O O7 0.338850 0.556731 0.366811
O O8 0.265298 0.649744 0.264080
O O9 0.919657 0.500000 0.500000
O O10 0.927129 0.389456 0.290537
O O11 0.791419 0.250000 0.878257
O O12 0.750000 0.373602 0.000000
O O13 0.923011 0.250000 0.171182
O O14 0.000000 0.346257 0.114353
#
# Coordination Sequence:
#
# PCOD8280056 Si02
#       5
#    16  16  16  16  16
#     4  10  20  34  59  83 109 152 194 239 286 347
#     4  11  20  36  57  79 117 162 193 224 279 347
#     4  11  21  37  63  90 117 155 202 245 288 350
#     4  11  22  32  49  82 115 147 191 241 285 332
#     4  10  23  43  63  84 117 155 194 249 310 358
#
# _framework density 19.277027
#
# number of rings (size 3 to 8) (size 9 to 14) (size 15 to 20)
#    0.000    1.400    4.000    3.000    0.000    6.800 
#    0.000    4.000    0.000    2.400    0.000    0.000 
#    0.000    0.000    0.000    0.000    0.000    0.000 
#
# Total GULP energy -495752.737186 kJ/mol
# GULP energy per Si atom -12393.818430 kJ/mol
# Density = 1.923315 g / cm^3
# Si number density = 19.277027 Si / 1000 Ang^3
#
#
#
# Elastic Constant Matrix: (Units=GPa)
#
#
# Indices 1 2 3 4 5 6 
#
# 1 60.6501 37.7797 18.0953 0.0000 0.0000 0.0000
# 2 37.7797 112.2289 58.4899 0.0000 0.0000 0.0000
# 3 18.0953 58.4899 123.4274 0.0000 0.0000 0.0000
# 4 0.0000 0.0000 0.0000 27.6710 0.0000 0.0000
# 5 0.0000 0.0000 0.0000 0.0000 21.4298 0.0000
# 6 0.0000 0.0000 0.0000 0.0000 0.0000 31.9861
#
#
#
# Elastic Compliance Matrix: (Units=1/GPa)
#
#
# Indices 1 2 3 4 5 6 
#
# 1 0.020875 -0.007214 0.000358 0.000000 0.000000 0.000000
# 2 -0.007214 0.014326 -0.005731 0.000000 0.000000 0.000000
# 3 0.000358 -0.005731 0.010765 0.000000 0.000000 0.000000
# 4 0.000000 0.000000 0.000000 0.036139 0.000000 0.000000
# 5 0.000000 0.000000 0.000000 0.000000 0.046664 0.000000
# 6 0.000000 0.000000 0.000000 0.000000 0.000000 0.031264
#
#
# Mechanical properties :
#
#
# Convention : Reuss Voigt Hill
#
# Bulk Modulus (GPa) = 48.09496 58.33732 53.21614
# Shear Modulus (GPa) = 26.02324 28.34681 27.18503
#
# Velocity S-wave (km/s) = 3.67817 3.83887 3.75938
# Velocity P-wave (km/s) = 6.56065 7.06948 6.81981
#
# Compressibility (1/GPa) = 0.02079220
#
# Stress axis : x y z
#
# Youngs Moduli (GPa) = 47.90491 69.80553 92.89144
#
# Poissons Ratio (x) = 0.50355 -0.03326
# Poissons Ratio (y) = 0.34557 0.53236
# Poissons Ratio (z) = -0.01715 0.40006
#
# Static dielectric constant tensor:
#      x y z
#    x 3.746480 0.000000 0.000000 
#    y 0.000000 3.794670 0.000000 
#    z 0.000000 0.000000 3.646360 
# 
# 
# High freq. dielectric constant tensor:
#      x y z
#    x 1.736470 0.000000 0.000000 
#    y 0.000000 1.753380 0.000000 
#    z 0.000000 0.000000 1.752340 
# 
# From -- ./inp_files/9898.got.cif
#   From: 2010.03.12/outbox.cif.g09.slc.cpg/sg67_5_cif.got.tgz:9898.got - 2010.04.10 22:41:39.
