data_PCOD8280038
_publ_section_title
;
Structure prediction by ZEFSAII (Michael W. Deem and Ramdas Pophale) SiO2 
 PCOD8280038
Probable space group: C M M A
;
_chemical_formula_sum "Si O2"
_cell_formula_units_Z 64
_cell_length_a 16.922874
_cell_length_b 23.743718
_cell_length_c 8.414913
_cell_angle_alpha 90.000000
_cell_angle_beta 90.000000
_cell_angle_gamma 90.000000
_cell_volume 3381.212585
_symmetry_space_group_name_H-M "C M M A"
_symmetry_group_IT_number 67
_symmetry_cell_setting 'orthorhombic'
loop_
_space_group_symop_operation_xyz
x,y,z
-x,1/2-y,z
x,-y,-z
-x,1/2+y,-z
-x,-y,-z
x,1/2+y,-z
-x,y,z
x,1/2-y,z
1/2+x,1/2+y,z
1/2-x,-y,z
1/2+x,1/2-y,-z
1/2-x,y,-z
1/2-x,1/2-y,-z
1/2+x,y,-z
1/2-x,1/2+y,z
1/2+x,-y,z
loop_
_atom_site_type_symbol
_atom_site_label
_atom_site_fract_x
_atom_site_fract_y
_atom_site_fract_z
Si Si1 0.774433 0.685110 0.679979
Si Si2 0.656351 0.501386 0.679139
Si Si3 0.822392 0.603168 0.107730
Si Si4 0.091245 0.886306 0.805575
O O1 0.778736 0.750000 0.729214
O O2 0.750000 0.676151 0.500000
O O3 0.710292 0.655499 0.791957
O O4 0.860549 0.657255 0.697032
O O5 0.621418 0.500000 0.500000
O O6 0.750000 0.500000 0.670836
O O7 0.636214 0.558046 0.775767
O O8 0.618616 0.449815 0.772406
O O9 0.750000 0.577717 0.000000
O O10 0.890871 0.625852 0.991110
O O11 0.000000 0.877531 0.766893
#
# Coordination Sequence:
#
# PCOD8280038 Si02
#       4
#    16  16  16  16
#     4  10  21  40  65  87 109 152 204 240 279 344
#     4  11  20  34  58  84 116 154 195 233 283 345
#     4  10  20  34  57  84 115 153 193 235 277 346
#     4  11  24  37  57  90 122 152 188 240 298 341
#
# _framework density 18.928121000000001
#
# number of rings (size 3 to 8) (size 9 to 14) (size 15 to 20)
#    0.000    1.500    5.000    2.250    0.000    7.500 
#    0.000    3.750    0.000    1.500    0.000    0.000 
#    0.000    0.000    0.000    0.000    0.000    0.000 
#
# Total GULP energy -396768.070409 kJ/mol
# GULP energy per Si atom -12399.002200 kJ/mol
# Density = 1.888504 g / cm^3
# Si number density = 18.928121 Si / 1000 Ang^3
#
#
#
# Elastic Constant Matrix: (Units=GPa)
#
#
# Indices 1 2 3 4 5 6 
#
# 1 104.4198 66.6285 44.6239 0.0000 0.0000 0.0000
# 2 66.6285 145.1640 58.3909 0.0000 0.0000 0.0000
# 3 44.6239 58.3909 79.3684 0.0000 0.0000 0.0000
# 4 0.0000 0.0000 0.0000 33.6818 0.0000 0.0000
# 5 0.0000 0.0000 0.0000 0.0000 14.5454 0.0000
# 6 0.0000 0.0000 0.0000 0.0000 0.0000 9.7571
#
#
#
# Elastic Compliance Matrix: (Units=1/GPa)
#
#
# Indices 1 2 3 4 5 6 
#
# 1 0.014673 -0.004852 -0.004680 0.000000 0.000000 0.000000
# 2 -0.004852 0.011389 -0.005651 0.000000 0.000000 0.000000
# 3 -0.004680 -0.005651 0.019388 0.000000 0.000000 0.000000
# 4 0.000000 0.000000 0.000000 0.029690 0.000000 0.000000
# 5 0.000000 0.000000 0.000000 0.000000 0.068750 0.000000
# 6 0.000000 0.000000 0.000000 0.000000 0.000000 0.102490
#
#
# Mechanical properties :
#
#
# Convention : Reuss Voigt Hill
#
# Bulk Modulus (GPa) = 66.29514 74.24876 70.27195
# Shear Modulus (GPa) = 17.74482 22.21743 19.98113
#
# Velocity S-wave (km/s) = 3.06516 3.42976 3.25257
# Velocity P-wave (km/s) = 6.90128 7.41594 7.16323
#
# Compressibility (1/GPa) = 0.01508406
#
# Stress axis : x y z
#
# Youngs Moduli (GPa) = 68.15342 87.80605 51.57901
#
# Poissons Ratio (x) = 0.42605 0.24138
# Poissons Ratio (y) = 0.33069 0.29145
# Poissons Ratio (z) = 0.31895 0.49615
#
# Static dielectric constant tensor:
#      x y z
#    x 2.657380 0.000000 0.000000 
#    y 0.000000 3.585790 0.000000 
#    z 0.000000 0.000000 3.954060 
# 
# 
# High freq. dielectric constant tensor:
#      x y z
#    x 1.702800 0.000000 0.000000 
#    y 0.000000 1.728850 0.000000 
#    z 0.000000 0.000000 1.757220 
# 
# From -- ./inp_files/9333.got.cif
#   From: 2010.03.12/outbox.cif.g09.slc.cpg/sg67_5_cif.got.tgz:9333.got - 2010.04.10 22:41:39.
