data_PCOD8280312
_publ_section_title
;
Structure prediction by ZEFSAII (Michael W. Deem and Ramdas Pophale) SiO2 
 PCOD8280312
Probable space group: C M M A
;
_chemical_formula_sum "Si O2"
_cell_formula_units_Z 80
_cell_length_a 23.769510
_cell_length_b 9.013765
_cell_length_c 20.279111
_cell_angle_alpha 90.000000
_cell_angle_beta 90.000000
_cell_angle_gamma 90.000000
_cell_volume 4344.855853
_symmetry_space_group_name_H-M "C M M A"
_symmetry_group_IT_number 67
_symmetry_cell_setting 'orthorhombic'
loop_
_space_group_symop_operation_xyz
x,y,z
-x,1/2-y,z
x,-y,-z
-x,1/2+y,-z
-x,-y,-z
x,1/2+y,-z
-x,y,z
x,1/2-y,z
1/2+x,1/2+y,z
1/2-x,-y,z
1/2+x,1/2-y,-z
1/2-x,y,-z
1/2-x,1/2-y,-z
1/2+x,y,-z
1/2-x,1/2+y,z
1/2+x,-y,z
loop_
_atom_site_type_symbol
_atom_site_label
_atom_site_fract_x
_atom_site_fract_y
_atom_site_fract_z
Si Si1 0.377230 0.429402 0.933884
Si Si2 0.895783 0.078960 0.703981
Si Si3 0.935512 0.422936 0.565855
Si Si4 0.189912 0.924837 0.185492
Si Si5 0.500000 0.410642 0.758479
Si Si6 0.000000 0.589278 0.912052
O O1 0.372949 0.250000 0.932852
O O2 0.345769 0.494965 0.870869
O O3 0.441893 0.490745 0.932783
O O4 0.349579 0.500000 0.000000
O O5 0.912477 0.250000 0.706977
O O6 0.895156 0.029339 0.626974
O O7 0.837622 0.048032 0.742228
O O8 0.944169 0.995420 0.741355
O O9 0.912520 0.500000 0.500000
O O10 0.932515 0.250000 0.552341
O O11 0.000000 0.471819 0.581775
O O12 0.194611 0.750000 0.169726
O O13 0.250000 0.000000 0.188249
O O14 0.500000 0.250000 0.723170
O O15 0.500000 0.388026 0.835199
O O16 0.000000 0.750000 0.946849
#
# Coordination Sequence:
#
# PCOD8280312 Si02
#       6
#    16  16  16  16   8   8
#     4  11  22  39  59  84 116 147 182 223 273 328
#     4  10  20  36  56  80 112 148 183 224 275 328
#     4   9  17  30  49  77 115 149 179 216 261 319
#     4  11  24  41  61  82 105 141 187 234 282 327
#     4  11  19  30  53  85 113 143 181 224 272 323
#     4   9  19  34  54  83 118 146 173 219 269 323
#
# _framework density 18.412579000000001
#
# number of rings (size 3 to 8) (size 9 to 14) (size 15 to 20)
#    0.000    1.800    3.000    1.800    0.000    2.000 
#    0.000    3.500    0.000    0.600    0.000    4.200 
#    0.000    0.000    0.000    0.000    0.000    0.000 
#
# Total GULP energy -495724.498139 kJ/mol
# GULP energy per Si atom -12393.112453 kJ/mol
# Density = 1.837067 g / cm^3
# Si number density = 18.412579 Si / 1000 Ang^3
#
#
#
# Elastic Constant Matrix: (Units=GPa)
#
#
# Indices 1 2 3 4 5 6 
#
# 1 104.5178 49.0302 55.1247 0.0000 0.0000 0.0000
# 2 49.0302 76.3599 57.5847 0.0000 0.0000 0.0000
# 3 55.1247 57.5847 150.2859 0.0000 0.0000 0.0000
# 4 0.0000 0.0000 0.0000 30.1597 0.0000 0.0000
# 5 0.0000 0.0000 0.0000 0.0000 10.1401 0.0000
# 6 0.0000 0.0000 0.0000 0.0000 0.0000 31.9686
#
#
#
# Elastic Compliance Matrix: (Units=1/GPa)
#
#
# Indices 1 2 3 4 5 6 
#
# 1 0.014295 -0.007348 -0.002428 0.000000 0.000000 0.000000
# 2 -0.007348 0.022195 -0.005809 0.000000 0.000000 0.000000
# 3 -0.002428 -0.005809 0.009770 0.000000 0.000000 0.000000
# 4 0.000000 0.000000 0.000000 0.033157 0.000000 0.000000
# 5 0.000000 0.000000 0.000000 0.000000 0.098618 0.000000
# 6 0.000000 0.000000 0.000000 0.000000 0.000000 0.031281
#
#
# Mechanical properties :
#
#
# Convention : Reuss Voigt Hill
#
# Bulk Modulus (GPa) = 66.26730 72.73811 69.50270
# Shear Modulus (GPa) = 20.36526 25.74862 23.05694
#
# Velocity S-wave (km/s) = 3.32934 3.74361 3.54254
# Velocity P-wave (km/s) = 7.13076 7.63390 7.38662
#
# Compressibility (1/GPa) = 0.01509040
#
# Stress axis : x y z
#
# Youngs Moduli (GPa) = 69.95310 45.05587 102.34961
#
# Poissons Ratio (x) = 0.33107 0.24851
# Poissons Ratio (y) = 0.51401 0.59456
# Poissons Ratio (z) = 0.16985 0.26173
#
# Static dielectric constant tensor:
#      x y z
#    x 3.210660 0.000000 0.000000 
#    y 0.000000 3.520030 0.000000 
#    z 0.000000 0.000000 3.627630 
# 
# 
# High freq. dielectric constant tensor:
#      x y z
#    x 1.687120 0.000000 0.000000 
#    y 0.000000 1.716550 0.000000 
#    z 0.000000 0.000000 1.725950 
# 
# From -- ./inp_files/36871.got.cif
#   From: 2010.03.12/outbox.cif.g09.slc.cpg/sg67_19_cif.got.tgz:36871.got - 2010.04.10 22:41:39.
