data_PCOD8280011
_publ_section_title
;
Structure prediction by ZEFSAII (Michael W. Deem and Ramdas Pophale) SiO2 
 PCOD8280011
Probable space group: C M M A
;
_chemical_formula_sum "Si O2"
_cell_formula_units_Z 112
_cell_length_a 14.554676
_cell_length_b 22.151889
_cell_length_c 16.167453
_cell_angle_alpha 90.000000
_cell_angle_beta 90.000000
_cell_angle_gamma 90.000000
_cell_volume 5212.606194
_symmetry_space_group_name_H-M "C M M A"
_symmetry_group_IT_number 67
_symmetry_cell_setting 'orthorhombic'
loop_
_space_group_symop_operation_xyz
x,y,z
-x,1/2-y,z
x,-y,-z
-x,1/2+y,-z
-x,-y,-z
x,1/2+y,-z
-x,y,z
x,1/2-y,z
1/2+x,1/2+y,z
1/2-x,-y,z
1/2+x,1/2-y,-z
1/2-x,y,-z
1/2-x,1/2-y,-z
1/2+x,y,-z
1/2-x,1/2+y,z
1/2+x,-y,z
loop_
_atom_site_type_symbol
_atom_site_label
_atom_site_fract_x
_atom_site_fract_y
_atom_site_fract_z
Si Si1 0.393064 0.948339 0.438884
Si Si2 0.149319 0.481163 0.258383
Si Si3 0.762203 0.316191 0.254641
Si Si4 0.892169 0.064584 0.974865
Si Si5 0.605861 0.817466 0.409573
Si Si6 0.898735 0.397414 0.796606
Si Si7 0.603697 0.127031 0.859746
O O1 0.500000 0.961505 0.427880
O O2 0.344970 0.955307 0.350678
O O3 0.377193 0.877286 0.468225
O O4 0.351503 0.000000 0.500000
O O5 0.250000 0.500000 0.227861
O O6 0.085889 0.540115 0.252350
O O7 0.108078 0.432153 0.196947
O O8 0.719826 0.250000 0.254283
O O9 0.827134 0.326842 0.332885
O O10 0.674105 0.359282 0.256129
O O11 0.824834 0.323718 0.173219
O O12 0.855066 0.090223 0.887613
O O13 0.000000 0.055076 0.963481
O O14 0.868200 0.112215 0.046204
O O15 0.847749 0.000000 0.000000
O O16 0.500000 0.819713 0.378653
O O17 0.623803 0.750000 0.450719
O O18 0.000000 0.365967 0.801034
O O19 0.500000 0.152654 0.856855
#
# Coordination Sequence:
#
# PCOD8280011 Si02
#       7
#    16  16  16  16  16  16  16
#     4  10  20  34  55  88 125 156 190 239 300 361
#     4  12  21  35  57  88 119 149 188 238 303 360
#     4  11  23  38  56  82 113 156 208 246 285 346
#     4   9  18  32  54  83 113 148 189 240 302 361
#     4   9  17  33  59  88 121 160 201 249 303 359
#     4  11  22  38  57  81 115 156 200 245 297 357
#     4  11  20  35  58  86 117 144 186 248 302 351
#
# _framework density 21.486373
#
# number of rings (size 3 to 8) (size 9 to 14) (size 15 to 20)
#    0.000    1.571    4.286    1.714    0.000    2.000 
#    0.000    2.857    0.000    3.429    0.000    5.000 
#    0.000    0.000    0.000    0.000    0.000    0.000 
#
# Total GULP energy -693867.844382 kJ/mol
# GULP energy per Si atom -12390.497221 kJ/mol
# Density = 2.143747 g / cm^3
# Si number density = 21.486373 Si / 1000 Ang^3
#
#
#
# Elastic Constant Matrix: (Units=GPa)
#
#
# Indices 1 2 3 4 5 6 
#
# 1 67.9913 17.6258 9.2814 0.0000 0.0000 0.0000
# 2 17.6258 146.0883 49.3292 0.0000 0.0000 0.0000
# 3 9.2814 49.3292 47.5918 0.0000 0.0000 0.0000
# 4 0.0000 0.0000 0.0000 27.0479 0.0000 0.0000
# 5 0.0000 0.0000 0.0000 0.0000 12.9660 0.0000
# 6 0.0000 0.0000 0.0000 0.0000 0.0000 21.3178
#
#
#
# Elastic Compliance Matrix: (Units=1/GPa)
#
#
# Indices 1 2 3 4 5 6 
#
# 1 0.015266 -0.001287 -0.001643 0.000000 0.000000 0.000000
# 2 -0.001287 0.010639 -0.010777 0.000000 0.000000 0.000000
# 3 -0.001643 -0.010777 0.032503 0.000000 0.000000 0.000000
# 4 0.000000 0.000000 0.000000 0.036971 0.000000 0.000000
# 5 0.000000 0.000000 0.000000 0.000000 0.077125 0.000000
# 6 0.000000 0.000000 0.000000 0.000000 0.000000 0.046909
#
#
# Mechanical properties :
#
#
# Convention : Reuss Voigt Hill
#
# Bulk Modulus (GPa) = 32.26442 46.01602 39.14022
# Shear Modulus (GPa) = 19.44323 24.62866 22.03595
#
# Velocity S-wave (km/s) = 3.01144 3.38930 3.20594
# Velocity P-wave (km/s) = 5.20965 6.06460 5.65331
#
# Compressibility (1/GPa) = 0.03099389
#
# Stress axis : x y z
#
# Youngs Moduli (GPa) = 65.50632 93.98975 30.76656
#
# Poissons Ratio (x) = 0.12096 0.05055
# Poissons Ratio (y) = 0.08431 0.33157
# Poissons Ratio (z) = 0.10764 1.01292
#
# Static dielectric constant tensor:
#      x y z
#    x 3.744200 0.000000 0.000000 
#    y 0.000000 4.132890 0.000000 
#    z 0.000000 0.000000 3.741140 
# 
# 
# High freq. dielectric constant tensor:
#      x y z
#    x 1.844980 0.000000 0.000000 
#    y 0.000000 1.835620 0.000000 
#    z 0.000000 0.000000 1.813320 
# 
# From -- ./inp_files/27556.got.cif
#   From: 2010.03.12/outbox.cif.g09.slc.cpg/sg67_14_cif.got.tgz:27556.got - 2010.04.10 22:41:39.
