data_PCOD8280419
_publ_section_title
;
Structure prediction by ZEFSAII (Michael W. Deem and Ramdas Pophale) SiO2 
 PCOD8280419
Probable space group: C M M A
;
_chemical_formula_sum "Si O2"
_cell_formula_units_Z 64
_cell_length_a 13.473758
_cell_length_b 28.649249
_cell_length_c 8.092147
_cell_angle_alpha 90.000000
_cell_angle_beta 90.000000
_cell_angle_gamma 90.000000
_cell_volume 3123.674328
_symmetry_space_group_name_H-M "C M M A"
_symmetry_group_IT_number 67
_symmetry_cell_setting 'orthorhombic'
loop_
_space_group_symop_operation_xyz
x,y,z
-x,1/2-y,z
x,-y,-z
-x,1/2+y,-z
-x,-y,-z
x,1/2+y,-z
-x,y,z
x,1/2-y,z
1/2+x,1/2+y,z
1/2-x,-y,z
1/2+x,1/2-y,-z
1/2-x,y,-z
1/2-x,1/2-y,-z
1/2+x,y,-z
1/2-x,1/2+y,z
1/2+x,-y,z
loop_
_atom_site_type_symbol
_atom_site_label
_atom_site_fract_x
_atom_site_fract_y
_atom_site_fract_z
Si Si1 0.500000 0.694925 0.765152
Si Si2 0.337586 0.064474 0.117055
Si Si3 0.338174 0.366901 0.393501
Si Si4 0.000000 0.402403 0.377132
Si Si5 0.500000 0.497726 0.297483
Si Si6 0.500000 0.626610 0.043677
O O1 0.500000 0.750000 0.763734
O O2 0.402260 0.676087 0.673518
O O3 0.500000 0.676456 0.952338
O O4 0.291757 0.099488 0.253882
O O5 0.401723 0.024507 0.212166
O O6 0.404321 0.096953 0.003688
O O7 0.250000 0.043352 0.000000
O O8 0.250000 0.344593 0.500000
O O9 0.405246 0.401109 0.504801
O O10 0.000000 0.447675 0.255811
O O11 0.000000 0.361196 0.239764
O O12 0.500000 0.500000 0.500000
#
# Coordination Sequence:
#
# PCOD8280419 Si02
#       6
#     8  16  16   8   8   8
#     4   9  20  40  63  86 118 157 203 259 320 382
#     4  10  20  37  59  88 121 165 214 257 305 364
#     4  10  20  36  61  90 121 162 201 252 316 378
#     4  11  20  38  63  85 123 170 205 253 310 370
#     4  11  20  40  62  88 129 172 216 265 307 360
#     4   9  20  37  57  82 118 158 202 248 314 379
#
# _framework density 20.488690999999999
#
# number of rings (size 3 to 8) (size 9 to 14) (size 15 to 20)
#    0.000    2.000    2.500    3.000    0.000    2.500 
#    0.000   15.000    0.000   25.500    0.000    0.875 
#    0.000    0.000    0.000    0.000    0.000    0.000 
#
# Total GULP energy -396491.921346 kJ/mol
# GULP energy per Si atom -12390.372542 kJ/mol
# Density = 2.044206 g / cm^3
# Si number density = 20.488691 Si / 1000 Ang^3
#
#
#
# Elastic Constant Matrix: (Units=GPa)
#
#
# Indices 1 2 3 4 5 6 
#
# 1 113.5356 39.9787 61.0705 0.0000 0.0000 0.0000
# 2 39.9787 127.4713 45.7370 0.0000 0.0000 0.0000
# 3 61.0705 45.7370 143.5585 0.0000 0.0000 0.0000
# 4 0.0000 0.0000 0.0000 21.1646 0.0000 0.0000
# 5 0.0000 0.0000 0.0000 0.0000 43.8627 0.0000
# 6 0.0000 0.0000 0.0000 0.0000 0.0000 6.8889
#
#
#
# Elastic Compliance Matrix: (Units=1/GPa)
#
#
# Indices 1 2 3 4 5 6 
#
# 1 0.011930 -0.002168 -0.004384 0.000000 0.000000 0.000000
# 2 -0.002168 0.009252 -0.002025 0.000000 0.000000 0.000000
# 3 -0.004384 -0.002025 0.009476 0.000000 0.000000 0.000000
# 4 0.000000 0.000000 0.000000 0.047249 0.000000 0.000000
# 5 0.000000 0.000000 0.000000 0.000000 0.022798 0.000000
# 6 0.000000 0.000000 0.000000 0.000000 0.000000 0.145162
#
#
# Mechanical properties :
#
#
# Convention : Reuss Voigt Hill
#
# Bulk Modulus (GPa) = 74.06287 75.34865 74.70576
# Shear Modulus (GPa) = 18.69008 30.23517 24.46262
#
# Velocity S-wave (km/s) = 3.02357 3.84565 3.45912
# Velocity P-wave (km/s) = 6.95815 7.52159 7.24535
#
# Compressibility (1/GPa) = 0.01350204
#
# Stress axis : x y z
#
# Youngs Moduli (GPa) = 83.82563 108.08962 105.53029
#
# Poissons Ratio (x) = 0.23439 0.46265
# Poissons Ratio (y) = 0.18177 0.21370
# Poissons Ratio (z) = 0.36749 0.21889
#
# Static dielectric constant tensor:
#      x y z
#    x 4.539880 0.000000 0.000000 
#    y 0.000000 3.358830 0.000000 
#    z 0.000000 0.000000 4.123610 
# 
# 
# High freq. dielectric constant tensor:
#      x y z
#    x 1.798480 0.000000 0.000000 
#    y 0.000000 1.759400 0.000000 
#    z 0.000000 0.000000 1.827820 
# 
# From -- ./inp_files/8454.got.cif
#   From: 2010.03.12/outbox.cif.g09.slc.cpg/sg67_5_cif.got.tgz:8454.got - 2010.04.10 22:41:39.
