data_PCOD8280257
_publ_section_title
;
Structure prediction by ZEFSAII (Michael W. Deem and Ramdas Pophale) SiO2 
 PCOD8280257
Probable space group: C M M A
;
_chemical_formula_sum "Si O2"
_cell_formula_units_Z 80
_cell_length_a 8.652106
_cell_length_b 28.464903
_cell_length_c 15.542352
_cell_angle_alpha 90.000000
_cell_angle_beta 90.000000
_cell_angle_gamma 90.000000
_cell_volume 3827.791558
_symmetry_space_group_name_H-M "C M M A"
_symmetry_group_IT_number 67
_symmetry_cell_setting 'orthorhombic'
loop_
_space_group_symop_operation_xyz
x,y,z
-x,1/2-y,z
x,-y,-z
-x,1/2+y,-z
-x,-y,-z
x,1/2+y,-z
-x,y,z
x,1/2-y,z
1/2+x,1/2+y,z
1/2-x,-y,z
1/2+x,1/2-y,-z
1/2-x,y,-z
1/2-x,1/2-y,-z
1/2+x,y,-z
1/2-x,1/2+y,z
1/2+x,-y,z
loop_
_atom_site_type_symbol
_atom_site_label
_atom_site_fract_x
_atom_site_fract_y
_atom_site_fract_z
Si Si1 0.818148 0.142490 0.912629
Si Si2 0.821460 0.804966 0.753735
Si Si3 0.321461 0.547121 0.661666
Si Si4 0.817515 0.950723 0.846749
Si Si5 0.178694 0.353527 0.589834
O O1 0.776309 0.174897 0.832253
O O2 0.748525 0.090526 0.905211
O O3 0.000000 0.138908 0.919252
O O4 0.750000 0.165343 0.000000
O O5 0.790559 0.750000 0.747351
O O6 0.769654 0.827986 0.665059
O O7 0.000000 0.817028 0.769969
O O8 0.500000 0.538370 0.685159
O O9 0.250000 0.500000 0.618860
O O10 0.231166 0.559054 0.748748
O O11 0.301110 0.590235 0.596641
O O12 0.000000 0.951553 0.854126
O O13 0.750000 0.000000 0.880315
O O14 0.250000 0.336608 0.500000
O O15 0.000000 0.338905 0.594565
#
# Coordination Sequence:
#
# PCOD8280257 Si02
#       5
#    16  16  16  16  16
#     4  12  25  43  67  97 131 169 214 261 317 379
#     4  11  25  46  71  97 126 163 209 264 327 387
#     4  10  20  35  58  90 126 170 215 260 311 372
#     4  11  21  36  61  92 129 172 215 261 312 372
#     4  11  24  41  65  95 130 170 216 264 319 380
#
# _framework density 20.89978
#
# number of rings (size 3 to 8) (size 9 to 14) (size 15 to 20)
#    0.000    1.000    2.000    6.600    0.000    5.600 
#    0.000    4.000    0.000    0.000    0.000    0.000 
#    0.000    0.000    0.000    0.000    0.000    0.000 
#
# Total GULP energy -496220.602703 kJ/mol
# GULP energy per Si atom -12405.515068 kJ/mol
# Density = 2.085221 g / cm^3
# Si number density = 20.899780 Si / 1000 Ang^3
#
#
#
# Elastic Constant Matrix: (Units=GPa)
#
#
# Indices 1 2 3 4 5 6 
#
# 1 170.9762 52.9477 40.2492 0.0000 0.0000 0.0000
# 2 52.9477 86.9393 37.6109 0.0000 0.0000 0.0000
# 3 40.2492 37.6109 116.8497 0.0000 0.0000 0.0000
# 4 0.0000 0.0000 0.0000 -5.9187 0.0000 0.0000
# 5 0.0000 0.0000 0.0000 0.0000 35.2876 0.0000
# 6 0.0000 0.0000 0.0000 0.0000 0.0000 26.4780
#
#
#
# Elastic Compliance Matrix: (Units=1/GPa)
#
#
# Indices 1 2 3 4 5 6 
#
# 1 0.007367 -0.003937 -0.001270 0.000000 0.000000 0.000000
# 2 -0.003937 0.015467 -0.003622 0.000000 0.000000 0.000000
# 3 -0.001270 -0.003622 0.010162 0.000000 0.000000 0.000000
# 4 0.000000 0.000000 0.000000 -0.168955 0.000000 0.000000
# 5 0.000000 0.000000 0.000000 0.000000 0.028339 0.000000
# 6 0.000000 0.000000 0.000000 0.000000 0.000000 0.037767
#
#
# Mechanical properties :
#
#
# Convention : Reuss Voigt Hill
#
# Bulk Modulus (GPa) = 65.20555 70.70899 67.95727
# Shear Modulus (GPa) = -106.19767 27.43320 -39.38224
#
# Velocity S-wave (km/s) = -7.13604 3.62692 -4.34560
# Velocity P-wave (km/s) = 6.05232 7.17254 2.72164
#
# Compressibility (1/GPa) = 0.01533612
#
# Stress axis : x y z
#
# Youngs Moduli (GPa) = 135.73941 64.65331 98.41062
#
# Poissons Ratio (x) = 0.25455 0.12502
# Poissons Ratio (y) = 0.53442 0.35647
# Poissons Ratio (z) = 0.17244 0.23419
#
# Static dielectric constant tensor:
#      x y z
#    x 3.955480 0.000000 0.000000 
#    y 0.000000 4.005460 0.000000 
#    z 0.000000 0.000000 3.671340 
# 
# 
# High freq. dielectric constant tensor:
#      x y z
#    x 1.838420 0.000000 0.000000 
#    y 0.000000 1.819530 0.000000 
#    z 0.000000 0.000000 1.816040 
# 
# From -- ./inp_files/32287.got.cif
#   From: 2010.03.12/outbox.cif.g09.slc.cpg/sg67_17_cif.got.tgz:32287.got - 2010.04.10 22:41:39.
