data_PCOD8280376
_publ_section_title
;
Structure prediction by ZEFSAII (Michael W. Deem and Ramdas Pophale) SiO2 
 PCOD8280376
Probable space group: C M M A
;
_chemical_formula_sum "Si O2"
_cell_formula_units_Z 112
_cell_length_a 16.443363
_cell_length_b 27.162016
_cell_length_c 12.401734
_cell_angle_alpha 90.000000
_cell_angle_beta 90.000000
_cell_angle_gamma 90.000000
_cell_volume 5539.047087
_symmetry_space_group_name_H-M "C M M A"
_symmetry_group_IT_number 67
_symmetry_cell_setting 'orthorhombic'
loop_
_space_group_symop_operation_xyz
x,y,z
-x,1/2-y,z
x,-y,-z
-x,1/2+y,-z
-x,-y,-z
x,1/2+y,-z
-x,y,z
x,1/2-y,z
1/2+x,1/2+y,z
1/2-x,-y,z
1/2+x,1/2-y,-z
1/2-x,y,-z
1/2-x,1/2-y,-z
1/2+x,y,-z
1/2-x,1/2+y,z
1/2+x,-y,z
loop_
_atom_site_type_symbol
_atom_site_label
_atom_site_fract_x
_atom_site_fract_y
_atom_site_fract_z
Si Si1 0.093021 0.946300 0.980361
Si Si2 0.594901 0.304261 0.676909
Si Si3 0.196959 0.130337 0.898751
Si Si4 0.155993 0.647790 0.468850
Si Si5 0.342889 0.097195 0.768619
Si Si6 0.595199 0.551433 0.446124
Si Si7 0.593758 0.191898 0.252589
O O1 0.136146 0.910788 0.062417
O O2 0.000000 0.946766 0.013888
O O3 0.102117 0.929357 0.857180
O O4 0.131599 0.000000 0.000000
O O5 0.500000 0.303183 0.695776
O O6 0.631562 0.250000 0.704979
O O7 0.612528 0.315916 0.552492
O O8 0.630442 0.346112 0.753885
O O9 0.250195 0.102280 0.807762
O O10 0.142568 0.174752 0.853273
O O11 0.250000 0.150292 0.000000
O O12 0.250000 0.642378 0.500000
O O13 0.112755 0.594388 0.468022
O O14 0.144480 0.670406 0.351944
O O15 0.351399 0.064860 0.659880
O O16 0.622818 0.500000 0.500000
O O17 0.500000 0.550120 0.414647
O O18 0.500000 0.173300 0.251876
O O19 0.596175 0.250000 0.256967
#
# Coordination Sequence:
#
# PCOD8280376 Si02
#       7
#    16  16  16  16  16  16  16
#     4  10  21  39  63  86 111 149 194 239 287 339
#     4  10  20  36  59  84 111 147 191 236 280 333
#     4  10  23  40  60  85 113 148 193 246 294 337
#     4  11  22  36  56  85 121 156 191 233 281 342
#     4  10  20  37  60  87 118 148 187 239 288 340
#     4  10  21  38  60  86 118 154 190 231 280 338
#     4  11  23  39  60  86 119 158 195 235 288 350
#
# _framework density 20.220085000000001
#
# number of rings (size 3 to 8) (size 9 to 14) (size 15 to 20)
#    0.000    1.714    0.000    6.000    0.000    8.286 
#    0.000    6.429    0.000    7.714    0.000    0.000 
#    0.000    0.571    0.000    0.000    0.000    0.000 
#
# Total GULP energy -694352.990146 kJ/mol
# GULP energy per Si atom -12399.160538 kJ/mol
# Density = 2.017406 g / cm^3
# Si number density = 20.220085 Si / 1000 Ang^3
#
#
#
# Elastic Constant Matrix: (Units=GPa)
#
#
# Indices 1 2 3 4 5 6 
#
# 1 84.3976 32.8075 44.8370 0.0000 0.0000 0.0000
# 2 32.8075 146.9899 73.0772 0.0000 0.0000 0.0000
# 3 44.8370 73.0772 111.2860 0.0000 0.0000 0.0000
# 4 0.0000 0.0000 0.0000 26.0981 0.0000 0.0000
# 5 0.0000 0.0000 0.0000 0.0000 49.9296 0.0000
# 6 0.0000 0.0000 0.0000 0.0000 0.0000 3.5772
#
#
#
# Elastic Compliance Matrix: (Units=1/GPa)
#
#
# Indices 1 2 3 4 5 6 
#
# 1 0.015102 -0.000513 -0.005747 0.000000 0.000000 0.000000
# 2 -0.000513 0.010118 -0.006437 0.000000 0.000000 0.000000
# 3 -0.005747 -0.006437 0.015529 0.000000 0.000000 0.000000
# 4 0.000000 0.000000 0.000000 0.038317 0.000000 0.000000
# 5 0.000000 0.000000 0.000000 0.000000 0.020028 0.000000
# 6 0.000000 0.000000 0.000000 0.000000 0.000000 0.279547
#
#
# Mechanical properties :
#
#
# Convention : Reuss Voigt Hill
#
# Bulk Modulus (GPa) = 65.13682 71.56854 68.35268
# Shear Modulus (GPa) = 12.22034 28.71778 20.46906
#
# Velocity S-wave (km/s) = 2.46105 3.77272 3.18514
# Velocity P-wave (km/s) = 6.35292 7.37899 6.88510
#
# Compressibility (1/GPa) = 0.01535230
#
# Stress axis : x y z
#
# Youngs Moduli (GPa) = 66.21851 98.83219 64.39705
#
# Poissons Ratio (x) = 0.05073 0.37011
# Poissons Ratio (y) = 0.03399 0.41455
# Poissons Ratio (z) = 0.38058 0.63622
#
# Static dielectric constant tensor:
#      x y z
#    x 3.819220 0.000000 0.000000 
#    y 0.000000 4.003800 0.000000 
#    z 0.000000 0.000000 1.087570 
# 
# 
# High freq. dielectric constant tensor:
#      x y z
#    x 1.800970 0.000000 0.000000 
#    y 0.000000 1.794680 0.000000 
#    z 0.000000 0.000000 1.785400 
# 
# From -- ./inp_files/18656.got.cif
#   From: 2010.03.12/outbox.cif.g09.slc.cpg/sg67_10_cif.got.tgz:18656.got - 2010.04.10 22:41:39.
