data_PCOD8280109
_publ_section_title
;
Structure prediction by ZEFSAII (Michael W. Deem and Ramdas Pophale) SiO2 
 PCOD8280109
Probable space group: C M M A
;
_chemical_formula_sum "Si O2"
_cell_formula_units_Z 112
_cell_length_a 14.999494
_cell_length_b 24.286799
_cell_length_c 15.955070
_cell_angle_alpha 90.000000
_cell_angle_beta 90.000000
_cell_angle_gamma 90.000000
_cell_volume 5812.267598
_symmetry_space_group_name_H-M "C M M A"
_symmetry_group_IT_number 67
_symmetry_cell_setting 'orthorhombic'
loop_
_space_group_symop_operation_xyz
x,y,z
-x,1/2-y,z
x,-y,-z
-x,1/2+y,-z
-x,-y,-z
x,1/2+y,-z
-x,y,z
x,1/2-y,z
1/2+x,1/2+y,z
1/2-x,-y,z
1/2+x,1/2-y,-z
1/2-x,y,-z
1/2-x,1/2-y,-z
1/2+x,y,-z
1/2-x,1/2+y,z
1/2+x,-y,z
loop_
_atom_site_type_symbol
_atom_site_label
_atom_site_fract_x
_atom_site_fract_y
_atom_site_fract_z
Si Si1 0.846697 0.089602 0.478163
Si Si2 0.397082 0.527103 0.317393
Si Si3 0.603866 0.312191 0.220808
Si Si4 0.739656 0.313282 0.904084
Si Si5 0.399649 0.091554 0.337055
Si Si6 0.397509 0.188327 0.622197
Si Si7 0.603274 0.628624 0.210293
O O1 0.750000 0.066536 0.500000
O O2 0.890826 0.047027 0.413743
O O3 0.902010 0.097091 0.562917
O O4 0.836529 0.148821 0.433653
O O5 0.500000 0.520888 0.296581
O O6 0.351094 0.466292 0.309946
O O7 0.358818 0.571456 0.251060
O O8 0.500000 0.321977 0.197196
O O9 0.616725 0.250000 0.255738
O O10 0.663949 0.321646 0.138867
O O11 0.641614 0.354685 0.291536
O O12 0.707563 0.250000 0.895546
O O13 0.664673 0.354001 0.867105
O O14 0.750000 0.330602 0.000000
O O15 0.500000 0.088513 0.305076
O O16 0.500000 0.178505 0.595468
O O17 0.365721 0.250000 0.604970
O O18 0.387123 0.176184 0.720439
O O19 0.500000 0.622846 0.181447
#
# Coordination Sequence:
#
# PCOD8280109 Si02
#       7
#    16  16  16  16  16  16  16
#     4  11  22  31  44  75 110 139 178 225 269 312
#     4   9  19  36  55  74 101 138 183 229 266 306
#     4   9  20  38  57  79 109 143 179 218 262 319
#     4  10  21  36  57  85 112 138 171 214 267 326
#     4  10  20  35  55  75 100 143 186 219 263 313
#     4   9  18  33  51  70  98 140 185 225 266 312
#     4   9  18  34  56  82 108 138 177 222 271 319
#
# _framework density 19.269587999999999
#
# number of rings (size 3 to 8) (size 9 to 14) (size 15 to 20)
#    0.000    2.429    0.000    3.000    4.000    4.571 
#    0.000    2.857    0.000    1.714    0.000    4.000 
#    0.000    0.000    0.000    0.000    0.000    0.000 
#
# Total GULP energy -694065.022066 kJ/mol
# GULP energy per Si atom -12394.018251 kJ/mol
# Density = 1.922573 g / cm^3
# Si number density = 19.269588 Si / 1000 Ang^3
#
#
#
# Elastic Constant Matrix: (Units=GPa)
#
#
# Indices 1 2 3 4 5 6 
#
# 1 51.2463 31.0336 37.0855 0.0000 0.0000 0.0000
# 2 31.0336 140.2427 72.1522 0.0000 0.0000 0.0000
# 3 37.0855 72.1522 123.7910 0.0000 0.0000 0.0000
# 4 0.0000 0.0000 0.0000 17.5506 0.0000 0.0000
# 5 0.0000 0.0000 0.0000 0.0000 29.2406 0.0000
# 6 0.0000 0.0000 0.0000 0.0000 0.0000 12.8598
#
#
#
# Elastic Compliance Matrix: (Units=1/GPa)
#
#
# Indices 1 2 3 4 5 6 
#
# 1 0.025489 -0.002445 -0.006211 0.000000 0.000000 0.000000
# 2 -0.002445 0.010419 -0.005340 0.000000 0.000000 0.000000
# 3 -0.006211 -0.005340 0.013051 0.000000 0.000000 0.000000
# 4 0.000000 0.000000 0.000000 0.056978 0.000000 0.000000
# 5 0.000000 0.000000 0.000000 0.000000 0.034199 0.000000
# 6 0.000000 0.000000 0.000000 0.000000 0.000000 0.077762
#
#
# Mechanical properties :
#
#
# Convention : Reuss Voigt Hill
#
# Bulk Modulus (GPa) = 47.69410 66.20253 56.94831
# Shear Modulus (GPa) = 19.77224 23.59744 21.68484
#
# Velocity S-wave (km/s) = 3.20673 3.50322 3.35825
# Velocity P-wave (km/s) = 6.20609 7.12699 6.68242
#
# Compressibility (1/GPa) = 0.02096695
#
# Stress axis : x y z
#
# Youngs Moduli (GPa) = 39.23281 95.97840 76.61969
#
# Poissons Ratio (x) = 0.23465 0.47588
# Poissons Ratio (y) = 0.09592 0.40917
# Poissons Ratio (z) = 0.24367 0.51256
#
# Static dielectric constant tensor:
#      x y z
#    x 3.375130 0.000000 0.000000 
#    y 0.000000 3.969630 0.000000 
#    z 0.000000 0.000000 3.234290 
# 
# 
# High freq. dielectric constant tensor:
#      x y z
#    x 1.743120 0.000000 0.000000 
#    y 0.000000 1.759120 0.000000 
#    z 0.000000 0.000000 1.716200 
# 
# From -- ./inp_files/27566.got.cif
#   From: 2010.03.12/outbox.cif.g09.slc.cpg/sg67_14_cif.got.tgz:27566.got - 2010.04.10 22:41:39.
