data_PCOD8280059
_publ_section_title
;
Structure prediction by ZEFSAII (Michael W. Deem and Ramdas Pophale) SiO2 
 PCOD8280059
Probable space group: C M M A
;
_chemical_formula_sum "Si O2"
_cell_formula_units_Z 128
_cell_length_a 19.544754
_cell_length_b 18.422583
_cell_length_c 19.888649
_cell_angle_alpha 90.000000
_cell_angle_beta 90.000000
_cell_angle_gamma 90.000000
_cell_volume 7161.203474
_symmetry_space_group_name_H-M "C M M A"
_symmetry_group_IT_number 67
_symmetry_cell_setting 'orthorhombic'
loop_
_space_group_symop_operation_xyz
x,y,z
-x,1/2-y,z
x,-y,-z
-x,1/2+y,-z
-x,-y,-z
x,1/2+y,-z
-x,y,z
x,1/2-y,z
1/2+x,1/2+y,z
1/2-x,-y,z
1/2+x,1/2-y,-z
1/2-x,y,-z
1/2-x,1/2-y,-z
1/2+x,y,-z
1/2-x,1/2+y,z
1/2+x,-y,z
loop_
_atom_site_type_symbol
_atom_site_label
_atom_site_fract_x
_atom_site_fract_y
_atom_site_fract_z
Si Si1 0.825635 0.088272 0.821892
Si Si2 0.832064 0.664310 0.697117
Si Si3 0.577494 0.069392 0.956991
Si Si4 0.922596 0.332666 0.921380
Si Si5 0.324409 0.664672 0.687565
Si Si6 0.422893 0.336403 0.427765
Si Si7 0.330226 0.578617 0.172385
Si Si8 0.423427 0.663813 0.423422
O O1 0.874167 0.112431 0.881943
O O2 0.851040 0.131953 0.757038
O O3 0.747311 0.104400 0.843120
O O4 0.834079 0.004263 0.804701
O O5 0.841488 0.750000 0.706729
O O6 0.754558 0.643200 0.678503
O O7 0.858050 0.626791 0.765728
O O8 0.875156 0.632355 0.634800
O O9 0.500000 0.052404 0.932409
O O10 0.624683 0.088355 0.893852
O O11 0.579142 0.141962 0.001529
O O12 0.604721 0.000000 0.000000
O O13 0.895814 0.250000 0.916563
O O14 0.000000 0.338441 0.893217
O O15 0.334801 0.750000 0.691641
O O16 0.369154 0.631847 0.626290
O O17 0.500000 0.362965 0.410567
O O18 0.421018 0.250000 0.426736
O O19 0.401145 0.363975 0.502319
O O20 0.500000 0.637206 0.407959
O O21 0.419390 0.750000 0.422617
#
# Coordination Sequence:
#
# PCOD8280059 Si02
#       8
#    16  16  16  16  16  16  16  16
#     4  10  20  35  51  74 104 136 173 211 252 311
#     4   9  18  31  47  70  99 130 166 210 257 302
#     4  10  20  37  57  76 102 134 171 214 256 307
#     4  10  21  37  57  81 107 135 169 213 265 314
#     4   9  17  29  46  69  99 129 161 207 255 300
#     4   8  14  25  43  69  98 128 163 204 253 304
#     4  10  21  35  53  75 101 138 174 210 257 310
#     4   8  14  26  44  67  96 126 160 206 254 301
#
# _framework density 17.874091
#
# number of rings (size 3 to 8) (size 9 to 14) (size 15 to 20)
#    0.000    2.750    1.250    1.125    0.000    3.000 
#    0.000    4.375    0.000    0.750    0.000    5.250 
#    0.000    0.000    0.000    0.000    0.000    0.000 
#
# Total GULP energy -793379.102554 kJ/mol
# GULP energy per Si atom -12396.548477 kJ/mol
# Density = 1.783341 g / cm^3
# Si number density = 17.874091 Si / 1000 Ang^3
#
#
#
# Elastic Constant Matrix: (Units=GPa)
#
#
# Indices 1 2 3 4 5 6 
#
# 1 87.5559 24.1515 81.8681 0.0000 0.0000 0.0000
# 2 24.1515 37.3179 26.2739 0.0000 0.0000 0.0000
# 3 81.8681 26.2739 145.1437 0.0000 0.0000 0.0000
# 4 0.0000 0.0000 0.0000 13.9307 0.0000 0.0000
# 5 0.0000 0.0000 0.0000 0.0000 37.8237 0.0000
# 6 0.0000 0.0000 0.0000 0.0000 0.0000 18.8960
#
#
#
# Elastic Compliance Matrix: (Units=1/GPa)
#
#
# Indices 1 2 3 4 5 6 
#
# 1 0.025837 -0.007405 -0.013233 0.000000 0.000000 0.000000
# 2 -0.007405 0.032833 -0.001767 0.000000 0.000000 0.000000
# 3 -0.013233 -0.001767 0.014674 0.000000 0.000000 0.000000
# 4 0.000000 0.000000 0.000000 0.071784 0.000000 0.000000
# 5 0.000000 0.000000 0.000000 0.000000 0.026438 0.000000
# 6 0.000000 0.000000 0.000000 0.000000 0.000000 0.052921
#
#
# Mechanical properties :
#
#
# Convention : Reuss Voigt Hill
#
# Bulk Modulus (GPa) = 35.04501 59.40051 47.22276
# Shear Modulus (GPa) = 17.93351 23.31169 20.62260
#
# Velocity S-wave (km/s) = 3.17097 3.61531 3.40041
# Velocity P-wave (km/s) = 5.74942 7.12265 6.47256
#
# Compressibility (1/GPa) = 0.02853473
#
# Stress axis : x y z
#
# Youngs Moduli (GPa) = 38.70395 30.45724 68.14944
#
# Poissons Ratio (x) = 0.22552 0.90182
# Poissons Ratio (y) = 0.28659 0.12041
# Poissons Ratio (z) = 0.51217 0.05381
#
# Static dielectric constant tensor:
#      x y z
#    x 3.410820 0.000000 0.000000 
#    y 0.000000 3.056270 0.000000 
#    z 0.000000 0.000000 3.470190 
# 
# 
# High freq. dielectric constant tensor:
#      x y z
#    x 1.689600 0.000000 0.000000 
#    y 0.000000 1.663930 0.000000 
#    z 0.000000 0.000000 1.694980 
# 
# From -- ./inp_files/35240.got.cif
#   From: 2010.03.12/outbox.cif.g09.slc.cpg/sg67_18_cif.got.tgz:35240.got - 2010.04.10 22:41:39.
