data_PCOD8280067
_publ_section_title
;
Structure prediction by ZEFSAII (Michael W. Deem and Ramdas Pophale) SiO2 
 PCOD8280067
Probable space group: C M M A
;
_chemical_formula_sum "Si O2"
_cell_formula_units_Z 96
_cell_length_a 8.816374
_cell_length_b 27.443748
_cell_length_c 24.389585
_cell_angle_alpha 90.000000
_cell_angle_beta 90.000000
_cell_angle_gamma 90.000000
_cell_volume 5901.166096
_symmetry_space_group_name_H-M "C M M A"
_symmetry_group_IT_number 67
_symmetry_cell_setting 'orthorhombic'
loop_
_space_group_symop_operation_xyz
x,y,z
-x,1/2-y,z
x,-y,-z
-x,1/2+y,-z
-x,-y,-z
x,1/2+y,-z
-x,y,z
x,1/2-y,z
1/2+x,1/2+y,z
1/2-x,-y,z
1/2+x,1/2-y,-z
1/2-x,y,-z
1/2-x,1/2-y,-z
1/2+x,y,-z
1/2-x,1/2+y,z
1/2+x,-y,z
loop_
_atom_site_type_symbol
_atom_site_label
_atom_site_fract_x
_atom_site_fract_y
_atom_site_fract_z
Si Si1 0.818481 0.804872 0.328360
Si Si2 0.819751 0.394623 0.057362
Si Si3 0.667382 0.308069 0.447097
Si Si4 0.820625 0.449073 0.841511
Si Si5 0.822299 0.644669 0.221874
Si Si6 0.678781 0.305832 0.112200
O O1 0.763877 0.750000 0.315465
O O2 0.756235 0.822252 0.388264
O O3 0.750631 0.839628 0.280384
O O4 0.000000 0.806079 0.331114
O O5 0.755656 0.431583 0.102445
O O6 0.767983 0.339160 0.069005
O O7 0.000000 0.397822 0.055703
O O8 0.750000 0.411803 0.000000
O O9 0.500000 0.330172 0.449396
O O10 0.663213 0.250000 0.450973
O O11 0.750000 0.330805 0.500000
O O12 0.750000 0.500000 0.822845
O O13 0.781145 0.410986 0.792912
O O14 0.000000 0.453243 0.850765
O O15 0.765181 0.680284 0.173358
O O16 0.000000 0.651915 0.227328
O O17 0.500000 0.316429 0.105972
O O18 0.719174 0.250000 0.099910
#
# Coordination Sequence:
#
# PCOD8280067 Si02
#       6
#    16  16  16  16  16  16
#     4   8  12  19  35  60  86 113 146 180 210 242
#     4  11  22  36  52  70  92 116 145 180 215 255
#     4   8  13  20  31  49  76 111 148 180 208 240
#     4  10  20  35  53  72  91 112 138 171 218 269
#     4   8  14  25  43  66  89 111 141 180 215 253
#     4   9  17  30  48  69  93 121 150 180 216 257
#
# _framework density 16.267969999999998
#
# number of rings (size 3 to 8) (size 9 to 14) (size 15 to 20)
#    0.000    3.000    0.000    4.500    0.000    3.000 
#    0.000    1.667    0.000    5.000    0.000    4.667 
#    0.000    0.667    0.000    8.333    0.000    0.333 
#
# Total GULP energy -594826.933945 kJ/mol
# GULP energy per Si atom -12392.227791 kJ/mol
# Density = 1.623094 g / cm^3
# Si number density = 16.267970 Si / 1000 Ang^3
#
#
#
# Elastic Constant Matrix: (Units=GPa)
#
#
# Indices 1 2 3 4 5 6 
#
# 1 62.8888 27.8565 33.8794 0.0000 0.0000 0.0000
# 2 27.8565 78.1854 39.2591 0.0000 0.0000 0.0000
# 3 33.8794 39.2591 133.9775 0.0000 0.0000 0.0000
# 4 0.0000 0.0000 0.0000 52.9179 0.0000 0.0000
# 5 0.0000 0.0000 0.0000 0.0000 18.1056 0.0000
# 6 0.0000 0.0000 0.0000 0.0000 0.0000 20.4488
#
#
#
# Elastic Compliance Matrix: (Units=1/GPa)
#
#
# Indices 1 2 3 4 5 6 
#
# 1 0.020202 -0.005432 -0.003517 0.000000 0.000000 0.000000
# 2 -0.005432 0.016457 -0.003449 0.000000 0.000000 0.000000
# 3 -0.003517 -0.003449 0.009364 0.000000 0.000000 0.000000
# 4 0.000000 0.000000 0.000000 0.018897 0.000000 0.000000
# 5 0.000000 0.000000 0.000000 0.000000 0.055231 0.000000
# 6 0.000000 0.000000 0.000000 0.000000 0.000000 0.048903
#
#
# Mechanical properties :
#
#
# Convention : Reuss Voigt Hill
#
# Bulk Modulus (GPa) = 47.10789 53.00463 50.05626
# Shear Modulus (GPa) = 24.88497 29.89825 27.39161
#
# Velocity S-wave (km/s) = 3.91537 4.29168 4.10784
# Velocity P-wave (km/s) = 7.03281 7.56379 7.30313
#
# Compressibility (1/GPa) = 0.02122786
#
# Stress axis : x y z
#
# Youngs Moduli (GPa) = 49.50101 60.76392 106.79347
#
# Poissons Ratio (x) = 0.33005 0.37557
# Poissons Ratio (y) = 0.26887 0.36832
# Poissons Ratio (z) = 0.17409 0.20957
#
# Static dielectric constant tensor:
#      x y z
#    x 2.873940 0.000000 0.000000 
#    y 0.000000 2.903480 0.000000 
#    z 0.000000 0.000000 3.444760 
# 
# 
# High freq. dielectric constant tensor:
#      x y z
#    x 1.599730 0.000000 0.000000 
#    y 0.000000 1.591820 0.000000 
#    z 0.000000 0.000000 1.630410 
# 
# From -- ./inp_files/40934.got.cif
#   From: 2010.03.12/outbox.cif.g09.slc.cpg/sg67_21_cif.got.tgz:40934.got - 2010.04.10 22:41:39.
