data_PCOD8280742
_publ_section_title
;
Structure prediction by ZEFSAII (Michael W. Deem and Ramdas Pophale) SiO2 
 PCOD8280742
Probable space group: C M M A
;
_chemical_formula_sum "Si O2"
_cell_formula_units_Z 80
_cell_length_a 10.138548
_cell_length_b 17.822047
_cell_length_c 23.934598
_cell_angle_alpha 90.000000
_cell_angle_beta 90.000000
_cell_angle_gamma 90.000000
_cell_volume 4324.734829
_symmetry_space_group_name_H-M "C M M A"
_symmetry_group_IT_number 67
_symmetry_cell_setting 'orthorhombic'
loop_
_space_group_symop_operation_xyz
x,y,z
-x,1/2-y,z
x,-y,-z
-x,1/2+y,-z
-x,-y,-z
x,1/2+y,-z
-x,y,z
x,1/2-y,z
1/2+x,1/2+y,z
1/2-x,-y,z
1/2+x,1/2-y,-z
1/2-x,y,-z
1/2-x,1/2-y,-z
1/2+x,y,-z
1/2-x,1/2+y,z
1/2+x,-y,z
loop_
_atom_site_type_symbol
_atom_site_label
_atom_site_fract_x
_atom_site_fract_y
_atom_site_fract_z
Si Si1 0.500000 0.404498 0.438983
Si Si2 0.247238 0.337423 0.382456
Si Si3 0.000000 0.422278 0.429652
Si Si4 0.847397 0.568398 0.156021
Si Si5 0.350894 0.662701 0.953864
Si Si6 0.652279 0.834967 0.737996
O O1 0.373646 0.359941 0.418038
O O2 0.500000 0.489385 0.416698
O O3 0.500000 0.403922 0.505418
O O4 0.217567 0.250000 0.392745
O O5 0.127440 0.387623 0.401713
O O6 0.265242 0.354599 0.316990
O O7 0.750000 0.500000 0.147291
O O8 0.824584 0.623789 0.104762
O O9 0.804337 0.610504 0.212371
O O10 0.000000 0.541954 0.158990
O O11 0.500000 0.647807 0.975008
O O12 0.324454 0.750000 0.943931
O O13 0.250000 0.630163 0.000000
O O14 0.500000 0.845903 0.722341
O O15 0.679025 0.750000 0.757751
#
# Coordination Sequence:
#
# PCOD8280742 Si02
#       6
#     8  16   8  16  16  16
#     4  11  23  41  59  83 115 159 190 225 282 361
#     4  11  22  39  62  87 112 147 195 241 286 338
#     4  11  25  39  57  85 123 149 184 235 296 341
#     4  10  21  36  55  82 113 146 185 228 276 329
#     4   9  18  34  57  82 109 146 190 232 275 324
#     4   9  18  37  61  81 105 142 188 231 274 332
#
# _framework density 18.498244
#
# number of rings (size 3 to 8) (size 9 to 14) (size 15 to 20)
#    0.000    2.000    1.000    2.400    0.000    9.200 
#    1.800    2.000    0.000    1.200    0.000    0.000 
#    0.000    0.000    0.000    0.000    0.000    0.000 
#
# Total GULP energy -496104.204172 kJ/mol
# GULP energy per Si atom -12402.605104 kJ/mol
# Density = 1.845614 g / cm^3
# Si number density = 18.498244 Si / 1000 Ang^3
#
#
#
# Elastic Constant Matrix: (Units=GPa)
#
#
# Indices 1 2 3 4 5 6 
#
# 1 102.0614 41.8852 51.3028 0.0000 0.0000 0.0000
# 2 41.8852 74.9617 49.1146 0.0000 0.0000 0.0000
# 3 51.3028 49.1146 102.1882 0.0000 0.0000 0.0000
# 4 0.0000 0.0000 0.0000 12.9517 0.0000 0.0000
# 5 0.0000 0.0000 0.0000 0.0000 52.5964 0.0000
# 6 0.0000 0.0000 0.0000 0.0000 0.0000 21.7113
#
#
#
# Elastic Compliance Matrix: (Units=1/GPa)
#
#
# Indices 1 2 3 4 5 6 
#
# 1 0.014179 -0.004756 -0.004832 0.000000 0.000000 0.000000
# 2 -0.004756 0.021068 -0.007738 0.000000 0.000000 0.000000
# 3 -0.004832 -0.007738 0.015931 0.000000 0.000000 0.000000
# 4 0.000000 0.000000 0.000000 0.077210 0.000000 0.000000
# 5 0.000000 0.000000 0.000000 0.000000 0.019013 0.000000
# 6 0.000000 0.000000 0.000000 0.000000 0.000000 0.046059
#
#
# Mechanical properties :
#
#
# Convention : Reuss Voigt Hill
#
# Bulk Modulus (GPa) = 60.51666 62.64627 61.58147
# Shear Modulus (GPa) = 21.40220 26.57912 23.99066
#
# Velocity S-wave (km/s) = 3.40514 3.79469 3.60518
# Velocity P-wave (km/s) = 6.94592 7.28966 7.11986
#
# Compressibility (1/GPa) = 0.01652437
#
# Stress axis : x y z
#
# Youngs Moduli (GPa) = 70.52612 47.46635 62.77100
#
# Poissons Ratio (x) = 0.22577 0.30334
# Poissons Ratio (y) = 0.33545 0.48570
# Poissons Ratio (z) = 0.34081 0.36728
#
# Static dielectric constant tensor:
#      x y z
#    x 3.406520 0.000000 0.000000 
#    y 0.000000 3.460900 0.000000 
#    z 0.000000 0.000000 3.555550 
# 
# 
# High freq. dielectric constant tensor:
#      x y z
#    x 1.715880 0.000000 0.000000 
#    y 0.000000 1.721230 0.000000 
#    z 0.000000 0.000000 1.729210 
# 
# From -- ./inp_files/40608.got.cif
#   From: 2010.03.12/outbox.cif.g09.slc.cpg/sg67_21_cif.got.tgz:40608.got - 2010.04.10 22:41:39.
