data_PCOD8280207
_publ_section_title
;
Structure prediction by ZEFSAII (Michael W. Deem and Ramdas Pophale) SiO2 
 PCOD8280207
Probable space group: C M M A
;
_chemical_formula_sum "Si O2"
_cell_formula_units_Z 96
_cell_length_a 18.228545
_cell_length_b 19.134016
_cell_length_c 15.049137
_cell_angle_alpha 90.000000
_cell_angle_beta 90.000000
_cell_angle_gamma 90.000000
_cell_volume 5248.917337
_symmetry_space_group_name_H-M "C M M A"
_symmetry_group_IT_number 67
_symmetry_cell_setting 'orthorhombic'
loop_
_space_group_symop_operation_xyz
x,y,z
-x,1/2-y,z
x,-y,-z
-x,1/2+y,-z
-x,-y,-z
x,1/2+y,-z
-x,y,z
x,1/2-y,z
1/2+x,1/2+y,z
1/2-x,-y,z
1/2+x,1/2-y,-z
1/2-x,y,-z
1/2-x,1/2-y,-z
1/2+x,y,-z
1/2-x,1/2+y,z
1/2+x,-y,z
loop_
_atom_site_type_symbol
_atom_site_label
_atom_site_fract_x
_atom_site_fract_y
_atom_site_fract_z
Si Si1 0.711591 0.672980 0.729337
Si Si2 0.414572 0.047959 0.085031
Si Si3 0.083422 0.550331 0.583030
Si Si4 0.307548 0.171025 0.071328
Si Si5 0.187779 0.328654 0.432199
Si Si6 0.333625 0.475703 0.260827
O O1 0.674155 0.750000 0.710932
O O2 0.733104 0.667800 0.833112
O O3 0.784064 0.666840 0.669267
O O4 0.659403 0.606354 0.709595
O O5 0.500000 0.058122 0.105612
O O6 0.380327 0.124277 0.068560
O O7 0.375844 0.011081 0.168802
O O8 0.400960 0.000000 0.000000
O O9 0.090472 0.500000 0.500000
O O10 0.115552 0.625276 0.555611
O O11 0.129791 0.521289 0.663959
O O12 0.000000 0.560060 0.613369
O O13 0.331562 0.250000 0.047729
O O14 0.250000 0.141667 0.000000
O O15 0.165724 0.250000 0.458322
O O16 0.250000 0.356306 0.500000
O O17 0.250000 0.500000 0.248689
#
# Coordination Sequence:
#
# PCOD8280207 Si02
#       6
#    16  16  16  16  16  16
#     4   9  18  33  53  82 108 133 180 230 270 314
#     4  10  23  37  53  81 116 146 179 229 282 332
#     4  11  24  38  55  83 118 148 180 229 282 334
#     4   9  19  34  55  80 107 141 185 229 268 324
#     4  10  20  35  57  82 109 144 187 229 268 323
#     4  11  21  35  60  84 106 148 188 228 272 330
#
# _framework density 18.289484999999999
#
# number of rings (size 3 to 8) (size 9 to 14) (size 15 to 20)
#    0.000    2.000    1.667    1.500    4.667    0.667 
#    0.000    0.000    0.000    2.500    0.000   11.667 
#    0.000    0.000    0.000    0.000    0.000    0.000 
#
# Total GULP energy -595067.391779 kJ/mol
# GULP energy per Si atom -12397.237329 kJ/mol
# Density = 1.824786 g / cm^3
# Si number density = 18.289485 Si / 1000 Ang^3
#
#
#
# Elastic Constant Matrix: (Units=GPa)
#
#
# Indices 1 2 3 4 5 6 
#
# 1 129.1055 52.6547 60.6723 0.0000 0.0000 0.0000
# 2 52.6547 97.3249 30.7387 0.0000 0.0000 0.0000
# 3 60.6723 30.7387 89.4928 0.0000 0.0000 0.0000
# 4 0.0000 0.0000 0.0000 25.4057 0.0000 0.0000
# 5 0.0000 0.0000 0.0000 0.0000 25.6896 0.0000
# 6 0.0000 0.0000 0.0000 0.0000 0.0000 -44.6398
#
#
#
# Elastic Compliance Matrix: (Units=1/GPa)
#
#
# Indices 1 2 3 4 5 6 
#
# 1 0.013105 -0.004805 -0.007234 0.000000 0.000000 0.000000
# 2 -0.004805 0.013287 -0.001306 0.000000 0.000000 0.000000
# 3 -0.007234 -0.001306 0.016527 0.000000 0.000000 0.000000
# 4 0.000000 0.000000 0.000000 0.039361 0.000000 0.000000
# 5 0.000000 0.000000 0.000000 0.000000 0.038926 0.000000
# 6 0.000000 0.000000 0.000000 0.000000 0.000000 -0.022402
#
#
# Mechanical properties :
#
#
# Convention : Reuss Voigt Hill
#
# Bulk Modulus (GPa) = 61.62061 67.11716 64.36888
# Shear Modulus (GPa) = 38.19543 12.74827 25.47185
#
# Velocity S-wave (km/s) = 4.57484 2.64299 3.73594
# Velocity P-wave (km/s) = 7.85306 6.78901 7.34034
#
# Compressibility (1/GPa) = 0.01622834
#
# Stress axis : x y z
#
# Youngs Moduli (GPa) = 76.30650 75.26091 60.50653
#
# Poissons Ratio (x) = 0.36165 0.43771
# Poissons Ratio (y) = 0.36667 0.07902
# Poissons Ratio (z) = 0.55201 0.09829
#
# Static dielectric constant tensor:
#      x y z
#    x 3.200300 0.000000 0.000000 
#    y 0.000000 3.698590 0.000000 
#    z 0.000000 0.000000 3.663560 
# 
# 
# High freq. dielectric constant tensor:
#      x y z
#    x 1.677040 0.000000 0.000000 
#    y 0.000000 1.724490 0.000000 
#    z 0.000000 0.000000 1.724900 
# 
# From -- ./inp_files/27140.got.cif
#   From: 2010.03.12/outbox.cif.g09.slc.cpg/sg67_14_cif.got.tgz:27140.got - 2010.04.10 22:41:39.
