data_PCOD8280846
_publ_section_title
;
Structure prediction by ZEFSAII (Michael W. Deem and Ramdas Pophale) SiO2 
 PCOD8280846
Probable space group: C M M A
;
_chemical_formula_sum "Si O2"
_cell_formula_units_Z 96
_cell_length_a 14.848679
_cell_length_b 17.329039
_cell_length_c 18.790506
_cell_angle_alpha 90.000000
_cell_angle_beta 90.000000
_cell_angle_gamma 90.000000
_cell_volume 4835.047812
_symmetry_space_group_name_H-M "C M M A"
_symmetry_group_IT_number 67
_symmetry_cell_setting 'orthorhombic'
loop_
_space_group_symop_operation_xyz
x,y,z
-x,1/2-y,z
x,-y,-z
-x,1/2+y,-z
-x,-y,-z
x,1/2+y,-z
-x,y,z
x,1/2-y,z
1/2+x,1/2+y,z
1/2-x,-y,z
1/2+x,1/2-y,-z
1/2-x,y,-z
1/2-x,1/2-y,-z
1/2+x,y,-z
1/2-x,1/2+y,z
1/2+x,-y,z
loop_
_atom_site_type_symbol
_atom_site_label
_atom_site_fract_x
_atom_site_fract_y
_atom_site_fract_z
Si Si1 0.744766 0.591046 0.754291
Si Si2 0.744063 0.658975 0.601982
Si Si3 0.600269 0.898219 0.145784
Si Si4 0.894101 0.908383 0.506932
Si Si5 0.900968 0.928100 0.134178
Si Si6 0.649000 0.162172 0.000926
O O1 0.750000 0.500000 0.737089
O O2 0.726685 0.638467 0.683450
O O3 0.835500 0.625219 0.789222
O O4 0.665885 0.611330 0.809925
O O5 0.754444 0.750000 0.591034
O O6 0.837056 0.618343 0.576146
O O7 0.655184 0.630411 0.560352
O O8 0.500000 0.893568 0.176706
O O9 0.607395 0.843246 0.077587
O O10 0.627995 0.983783 0.120203
O O11 0.000000 0.883105 0.511871
O O12 0.887495 0.000000 0.500000
O O13 0.000000 0.924454 0.168548
O O14 0.905454 0.886857 0.058147
O O15 0.645398 0.250000 0.026548
O O16 0.750000 0.130085 0.000000
#
# Coordination Sequence:
#
# PCOD8280846 Si02
#       6
#    16  16  16  16  16  16
#     4  10  21  38  57  80 115 152 191 236 279 332
#     4  11  23  38  60  91 127 158 188 233 289 346
#     4  10  21  37  58  81 105 142 192 239 284 335
#     4  10  21  40  67  93 118 154 199 239 276 329
#     4  10  21  37  58  81 105 142 192 239 284 335
#     4  11  22  35  54  79 109 144 185 234 291 349
#
# _framework density 19.855025999999999
#
# number of rings (size 3 to 8) (size 9 to 14) (size 15 to 20)
#    0.000    1.667    1.667    4.000    0.000    7.333 
#    0.000    3.333    0.000    0.000    0.000    0.000 
#    0.000    0.000    0.000    0.000    0.000    0.000 
#
# Total GULP energy -595220.356931 kJ/mol
# GULP energy per Si atom -12400.424103 kJ/mol
# Density = 1.980984 g / cm^3
# Si number density = 19.855026 Si / 1000 Ang^3
#
#
#
# Elastic Constant Matrix: (Units=GPa)
#
#
# Indices 1 2 3 4 5 6 
#
# 1 131.0755 24.4635 27.9191 0.0000 0.0000 0.0000
# 2 24.4635 70.3382 17.6662 0.0000 0.0000 0.0000
# 3 27.9191 17.6662 99.6894 0.0000 0.0000 0.0000
# 4 0.0000 0.0000 0.0000 16.7570 0.0000 0.0000
# 5 0.0000 0.0000 0.0000 0.0000 11.0006 0.0000
# 6 0.0000 0.0000 0.0000 0.0000 0.0000 15.4945
#
#
#
# Elastic Compliance Matrix: (Units=1/GPa)
#
#
# Indices 1 2 3 4 5 6 
#
# 1 0.008504 -0.002469 -0.001944 0.000000 0.000000 0.000000
# 2 -0.002469 0.015596 -0.002072 0.000000 0.000000 0.000000
# 3 -0.001944 -0.002072 0.010943 0.000000 0.000000 0.000000
# 4 0.000000 0.000000 0.000000 0.059676 0.000000 0.000000
# 5 0.000000 0.000000 0.000000 0.000000 0.090904 0.000000
# 6 0.000000 0.000000 0.000000 0.000000 0.000000 0.064539
#
#
# Mechanical properties :
#
#
# Convention : Reuss Voigt Hill
#
# Bulk Modulus (GPa) = 45.30670 49.02230 47.16450
# Shear Modulus (GPa) = 18.48485 24.05405 21.26945
#
# Velocity S-wave (km/s) = 3.05452 3.48441 3.27653
# Velocity P-wave (km/s) = 5.94209 6.39781 6.17415
#
# Compressibility (1/GPa) = 0.02207179
#
# Stress axis : x y z
#
# Youngs Moduli (GPa) = 117.58941 64.11748 91.38391
#
# Poissons Ratio (x) = 0.15834 0.17766
# Poissons Ratio (y) = 0.29038 0.18937
# Poissons Ratio (z) = 0.22860 0.13287
#
# Static dielectric constant tensor:
#      x y z
#    x 3.814860 0.000000 0.000000 
#    y 0.000000 3.514880 0.000000 
#    z 0.000000 0.000000 3.450150 
# 
# 
# High freq. dielectric constant tensor:
#      x y z
#    x 1.787330 0.000000 0.000000 
#    y 0.000000 1.768180 0.000000 
#    z 0.000000 0.000000 1.763820 
# 
# From -- ./inp_files/38391.got.cif
#   From: 2010.03.12/outbox.cif.g09.slc.cpg/sg67_20_cif.got.tgz:38391.got - 2010.04.10 22:41:39.
