data_PCOD8280963
_publ_section_title
;
Structure prediction by ZEFSAII (Michael W. Deem and Ramdas Pophale) SiO2 
 PCOD8280963
Probable space group: C M M A
;
_chemical_formula_sum "Si O2"
_cell_formula_units_Z 88
_cell_length_a 15.953265
_cell_length_b 8.833591
_cell_length_c 29.863209
_cell_angle_alpha 90.000000
_cell_angle_beta 90.000000
_cell_angle_gamma 90.000000
_cell_volume 4208.461324
_symmetry_space_group_name_H-M "C M M A"
_symmetry_group_IT_number 67
_symmetry_cell_setting 'orthorhombic'
loop_
_space_group_symop_operation_xyz
x,y,z
-x,1/2-y,z
x,-y,-z
-x,1/2+y,-z
-x,-y,-z
x,1/2+y,-z
-x,y,z
x,1/2-y,z
1/2+x,1/2+y,z
1/2-x,-y,z
1/2+x,1/2-y,-z
1/2-x,y,-z
1/2-x,1/2-y,-z
1/2+x,y,-z
1/2-x,1/2+y,z
1/2+x,-y,z
loop_
_atom_site_type_symbol
_atom_site_label
_atom_site_fract_x
_atom_site_fract_y
_atom_site_fract_z
Si Si1 0.161350 0.070441 0.597431
Si Si2 0.404125 0.915497 0.957801
Si Si3 0.000000 0.568171 0.549027
Si Si4 0.094964 0.573819 0.307117
Si Si5 0.404390 0.928275 0.217988
Si Si6 0.336675 0.429313 0.875661
O O1 0.159485 0.250000 0.587545
O O2 0.151448 0.034826 0.650054
O O3 0.250000 0.000000 0.581151
O O4 0.084230 0.991182 0.572553
O O5 0.500000 0.890294 0.970337
O O6 0.361421 0.750000 0.950972
O O7 0.402044 0.014070 0.912510
O O8 0.359954 0.000000 0.000000
O O9 0.000000 0.500000 0.500000
O O10 0.000000 0.750000 0.548386
O O11 0.093567 0.750000 0.297473
O O12 0.135843 0.494806 0.263479
O O13 0.000000 0.514341 0.315817
O O14 0.500000 0.982812 0.214990
O O15 0.396737 0.750000 0.220101
O O16 0.358743 0.992099 0.173843
O O17 0.335073 0.250000 0.875365
O O18 0.250000 0.500000 0.891245
#
# Coordination Sequence:
#
# PCOD8280963 Si02
#       6
#    16  16   8  16  16  16
#     4  11  23  42  66  98 136 174 221 273 326 388
#     4  10  21  38  61  86 109 137 178 227 282 346
#     4  12  26  46  72 100 132 176 220 272 333 388
#     4   9  18  35  59  86 121 163 205 255 310 365
#     4   9  19  35  56  82 112 151 199 247 295 352
#     4  11  23  38  55  78 113 151 190 237 290 345
#
# _framework density 20.910257000000001
#
# number of rings (size 3 to 8) (size 9 to 14) (size 15 to 20)
#    0.000    1.818    0.909    3.000    0.000    6.182 
#    0.000    9.091    0.000    0.000    0.000    0.000 
#    0.000    0.000    0.000    0.000    0.000    0.000 
#
# Total GULP energy -545532.787116 kJ/mol
# GULP energy per Si atom -12398.472434 kJ/mol
# Density = 2.086266 g / cm^3
# Si number density = 20.910257 Si / 1000 Ang^3
#
#
#
# Elastic Constant Matrix: (Units=GPa)
#
#
# Indices 1 2 3 4 5 6 
#
# 1 90.1445 44.6175 42.6962 0.0000 0.0000 0.0000
# 2 44.6175 112.5013 66.8000 0.0000 0.0000 0.0000
# 3 42.6962 66.8000 144.8282 0.0000 0.0000 0.0000
# 4 0.0000 0.0000 0.0000 39.5423 0.0000 0.0000
# 5 0.0000 0.0000 0.0000 0.0000 5.7799 0.0000
# 6 0.0000 0.0000 0.0000 0.0000 0.0000 28.0660
#
#
#
# Elastic Compliance Matrix: (Units=1/GPa)
#
#
# Indices 1 2 3 4 5 6 
#
# 1 0.014295 -0.004362 -0.002203 0.000000 0.000000 0.000000
# 2 -0.004362 0.013572 -0.004974 0.000000 0.000000 0.000000
# 3 -0.002203 -0.004974 0.009848 0.000000 0.000000 0.000000
# 4 0.000000 0.000000 0.000000 0.025289 0.000000 0.000000
# 5 0.000000 0.000000 0.000000 0.000000 0.173014 0.000000
# 6 0.000000 0.000000 0.000000 0.000000 0.000000 0.035630
#
#
# Mechanical properties :
#
#
# Convention : Reuss Voigt Hill
#
# Bulk Modulus (GPa) = 68.31041 72.85571 70.58306
# Shear Modulus (GPa) = 16.68861 27.56832 22.12846
#
# Velocity S-wave (km/s) = 2.82814 3.63493 3.25662
# Velocity P-wave (km/s) = 6.58816 7.24808 6.92598
#
# Compressibility (1/GPa) = 0.01463906
#
# Stress axis : x y z
#
# Youngs Moduli (GPa) = 69.95277 73.68076 101.54036
#
# Poissons Ratio (x) = 0.32137 0.22365
# Poissons Ratio (y) = 0.30511 0.50507
# Poissons Ratio (z) = 0.15408 0.36649
#
# Static dielectric constant tensor:
#      x y z
#    x 3.651790 0.000000 0.000000 
#    y 0.000000 3.876970 0.000000 
#    z 0.000000 0.000000 3.994180 
# 
# 
# High freq. dielectric constant tensor:
#      x y z
#    x 1.804200 0.000000 0.000000 
#    y 0.000000 1.821760 0.000000 
#    z 0.000000 0.000000 1.829720 
# 
# From -- ./inp_files/45773.got.cif
#   From: 2010.03.12/outbox.cif.g09.slc.cpg/sg67_23_cif.got.tgz:45773.got - 2010.04.10 22:41:39.
