data_PCOD8280789
_publ_section_title
;
Structure prediction by ZEFSAII (Michael W. Deem and Ramdas Pophale) SiO2 
 PCOD8280789
Probable space group: C M M A
;
_chemical_formula_sum "Si O2"
_cell_formula_units_Z 112
_cell_length_a 17.813089
_cell_length_b 28.673857
_cell_length_c 11.326966
_cell_angle_alpha 90.000000
_cell_angle_beta 90.000000
_cell_angle_gamma 90.000000
_cell_volume 5785.474047
_symmetry_space_group_name_H-M "C M M A"
_symmetry_group_IT_number 67
_symmetry_cell_setting 'orthorhombic'
loop_
_space_group_symop_operation_xyz
x,y,z
-x,1/2-y,z
x,-y,-z
-x,1/2+y,-z
-x,-y,-z
x,1/2+y,-z
-x,y,z
x,1/2-y,z
1/2+x,1/2+y,z
1/2-x,-y,z
1/2+x,1/2-y,-z
1/2-x,y,-z
1/2-x,1/2-y,-z
1/2+x,y,-z
1/2-x,1/2+y,z
1/2+x,-y,z
loop_
_atom_site_type_symbol
_atom_site_label
_atom_site_fract_x
_atom_site_fract_y
_atom_site_fract_z
Si Si1 0.085003 0.157999 0.763392
Si Si2 0.087953 0.431167 0.360294
Si Si3 0.910935 0.885174 0.881739
Si Si4 0.918054 0.062735 0.895299
Si Si5 0.328698 0.480856 0.295264
Si Si6 0.327975 0.113966 0.436970
Si Si7 0.162557 0.803480 0.007258
O O1 0.074768 0.105761 0.806832
O O2 0.137466 0.155329 0.645303
O O3 0.000000 0.178110 0.738681
O O4 0.128239 0.188202 0.862118
O O5 0.116464 0.404863 0.242700
O O6 0.126859 0.481636 0.375293
O O7 0.108832 0.397068 0.466459
O O8 0.000000 0.439893 0.358159
O O9 0.877747 0.834069 0.906642
O O10 0.000000 0.880616 0.891569
O O11 0.880678 0.920758 0.982190
O O12 0.870367 0.023596 0.830104
O O13 0.000000 0.041040 0.919338
O O14 0.250000 0.500000 0.256853
O O15 0.313888 0.433025 0.363726
O O16 0.250000 0.129831 0.500000
O O17 0.149072 0.750000 0.972846
O O18 0.250000 0.816456 0.000000
#
# Coordination Sequence:
#
# PCOD8280789 Si02
#       7
#    16  16  16  16  16  16  16
#     4   9  19  36  59  85 112 151 198 235 286 351
#     4  11  23  35  53  79 110 151 194 238 286 341
#     4   9  20  37  56  81 112 146 185 226 284 353
#     4   8  16  33  53  73 103 142 184 234 283 332
#     4  11  21  33  50  74 107 144 199 242 285 333
#     4  11  22  36  57  78 110 154 196 252 291 325
#     4  10  21  36  62  95 121 143 177 229 289 355
#
# _framework density 19.358827999999999
#
# number of rings (size 3 to 8) (size 9 to 14) (size 15 to 20)
#    0.000    2.143    1.429    2.571    2.000    5.143 
#    0.000    2.857    0.000    1.286    0.000    2.000 
#    0.000    0.000    0.000    0.000    0.000    0.000 
#
# Total GULP energy -694194.269000 kJ/mol
# GULP energy per Si atom -12396.326232 kJ/mol
# Density = 1.931477 g / cm^3
# Si number density = 19.358828 Si / 1000 Ang^3
#
#
#
# Elastic Constant Matrix: (Units=GPa)
#
#
# Indices 1 2 3 4 5 6 
#
# 1 102.6471 28.0793 28.7639 0.0000 0.0000 0.0000
# 2 28.0793 34.3375 20.9315 0.0000 0.0000 0.0000
# 3 28.7639 20.9315 67.4390 0.0000 0.0000 0.0000
# 4 0.0000 0.0000 0.0000 18.9029 0.0000 0.0000
# 5 0.0000 0.0000 0.0000 0.0000 26.0291 0.0000
# 6 0.0000 0.0000 0.0000 0.0000 0.0000 20.6038
#
#
#
# Elastic Compliance Matrix: (Units=1/GPa)
#
#
# Indices 1 2 3 4 5 6 
#
# 1 0.012953 -0.008910 -0.002759 0.000000 0.000000 0.000000
# 2 -0.008910 0.042048 -0.009250 0.000000 0.000000 0.000000
# 3 -0.002759 -0.009250 0.018876 0.000000 0.000000 0.000000
# 4 0.000000 0.000000 0.000000 0.052902 0.000000 0.000000
# 5 0.000000 0.000000 0.000000 0.000000 0.038418 0.000000
# 6 0.000000 0.000000 0.000000 0.000000 0.000000 0.048535
#
#
# Mechanical properties :
#
#
# Convention : Reuss Voigt Hill
#
# Bulk Modulus (GPa) = 31.21343 39.99700 35.60522
# Shear Modulus (GPa) = 18.77940 21.55044 20.16492
#
# Velocity S-wave (km/s) = 3.11797 3.34010 3.23095
# Velocity P-wave (km/s) = 5.39638 5.96496 5.68778
#
# Compressibility (1/GPa) = 0.03203749
#
# Stress axis : x y z
#
# Youngs Moduli (GPa) = 77.20442 23.78259 52.97719
#
# Poissons Ratio (x) = 0.21190 0.14617
# Poissons Ratio (y) = 0.68790 0.49005
# Poissons Ratio (z) = 0.21301 0.22000
#
# Static dielectric constant tensor:
#      x y z
#    x 3.755370 0.000000 0.000000 
#    y 0.000000 3.210400 0.000000 
#    z 0.000000 0.000000 3.694930 
# 
# 
# High freq. dielectric constant tensor:
#      x y z
#    x 1.763930 0.000000 0.000000 
#    y 0.000000 1.716640 0.000000 
#    z 0.000000 0.000000 1.754370 
# 
# From -- ./inp_files/18585.got.cif
#   From: 2010.03.12/outbox.cif.g09.slc.cpg/sg67_10_cif.got.tgz:18585.got - 2010.04.10 22:41:39.
