data_PCOD8280892
_publ_section_title
;
Structure prediction by ZEFSAII (Michael W. Deem and Ramdas Pophale) SiO2 
 PCOD8280892
Probable space group: C M M A
;
_chemical_formula_sum "Si O2"
_cell_formula_units_Z 104
_cell_length_a 9.583902
_cell_length_b 20.885211
_cell_length_c 28.404052
_cell_angle_alpha 90.000000
_cell_angle_beta 90.000000
_cell_angle_gamma 90.000000
_cell_volume 5685.406615
_symmetry_space_group_name_H-M "C M M A"
_symmetry_group_IT_number 67
_symmetry_cell_setting 'orthorhombic'
loop_
_space_group_symop_operation_xyz
x,y,z
-x,1/2-y,z
x,-y,-z
-x,1/2+y,-z
-x,-y,-z
x,1/2+y,-z
-x,y,z
x,1/2-y,z
1/2+x,1/2+y,z
1/2-x,-y,z
1/2+x,1/2-y,-z
1/2-x,y,-z
1/2-x,1/2-y,-z
1/2+x,y,-z
1/2-x,1/2+y,z
1/2+x,-y,z
loop_
_atom_site_type_symbol
_atom_site_label
_atom_site_fract_x
_atom_site_fract_y
_atom_site_fract_z
Si Si1 0.000000 0.409692 0.461919
Si Si2 0.342204 0.823608 0.306612
Si Si3 0.835929 0.934254 0.040594
Si Si4 0.745099 0.870210 0.596384
Si Si5 0.338669 0.935143 0.854166
Si Si6 0.836256 0.176934 0.783780
Si Si7 0.500000 0.444643 0.434223
Si Si8 0.651493 0.750000 0.544691
O O1 0.135333 0.375584 0.442342
O O2 0.000000 0.482011 0.445810
O O3 0.000000 0.402427 0.518047
O O4 0.500000 0.837833 0.290408
O O5 0.323999 0.750000 0.321548
O O6 0.306427 0.867160 0.351283
O O7 0.240698 0.841789 0.264155
O O8 0.822327 0.906029 0.093052
O O9 0.000000 0.942220 0.026885
O O10 0.750000 0.000000 0.042728
O O11 0.750000 0.893690 0.000000
O O12 0.639102 0.930018 0.595465
O O13 0.662496 0.808017 0.581068
O O14 0.500000 0.953336 0.844638
O O15 0.288475 0.875919 0.821912
O O16 0.250000 0.000000 0.845034
O O17 0.796618 0.250000 0.799703
O O18 0.000000 0.172289 0.774289
O O19 0.500000 0.750000 0.521157
O O20 0.750000 0.750000 0.500000
#
# Coordination Sequence:
#
# PCOD8280892 Si02
#       8
#     8  16  16  16  16  16   8   8
#     4  11  24  43  61  79 111 152 183 213 256 309
#     4  10  21  38  57  82 110 140 171 216 276 328
#     4   9  15  24  41  68 104 142 181 221 267 321
#     4  12  23  39  61  85 112 139 177 221 265 319
#     4   9  18  32  51  79 111 143 180 229 280 321
#     4   9  19  36  60  81 102 138 186 229 271 327
#     4  11  24  41  61  83 109 148 187 215 248 315
#     4  12  26  38  58  90 118 140 168 216 277 320
#
# _framework density 18.292448
#
# number of rings (size 3 to 8) (size 9 to 14) (size 15 to 20)
#    0.000    1.846    2.308    2.769    2.154    2.462 
#    0.000    1.538    0.000    0.462    0.000    0.000 
#    0.000    0.000    0.000    0.000    0.000    4.154 
#
# Total GULP energy -644463.757106 kJ/mol
# GULP energy per Si atom -12393.533791 kJ/mol
# Density = 1.825081 g / cm^3
# Si number density = 18.292448 Si / 1000 Ang^3
#
#
#
# Elastic Constant Matrix: (Units=GPa)
#
#
# Indices 1 2 3 4 5 6 
#
# 1 105.5643 28.9619 38.5232 0.0000 0.0000 0.0000
# 2 28.9619 62.6138 44.5090 0.0000 0.0000 0.0000
# 3 38.5232 44.5090 112.8753 0.0000 0.0000 0.0000
# 4 0.0000 0.0000 0.0000 23.5899 0.0000 0.0000
# 5 0.0000 0.0000 0.0000 0.0000 31.5745 0.0000
# 6 0.0000 0.0000 0.0000 0.0000 0.0000 35.0115
#
#
#
# Elastic Compliance Matrix: (Units=1/GPa)
#
#
# Indices 1 2 3 4 5 6 
#
# 1 0.011337 -0.003465 -0.002503 0.000000 0.000000 0.000000
# 2 -0.003465 0.023250 -0.007986 0.000000 0.000000 0.000000
# 3 -0.002503 -0.007986 0.012862 0.000000 0.000000 0.000000
# 4 0.000000 0.000000 0.000000 0.042391 0.000000 0.000000
# 5 0.000000 0.000000 0.000000 0.000000 0.031671 0.000000
# 6 0.000000 0.000000 0.000000 0.000000 0.000000 0.028562
#
#
# Mechanical properties :
#
#
# Convention : Reuss Voigt Hill
#
# Bulk Modulus (GPa) = 51.16904 56.11573 53.64239
# Shear Modulus (GPa) = 27.10117 29.30581 28.20349
#
# Velocity S-wave (km/s) = 3.85327 4.00693 3.93085
# Velocity P-wave (km/s) = 6.91595 7.22156 7.07041
#
# Compressibility (1/GPa) = 0.01954307
#
# Stress axis : x y z
#
# Youngs Moduli (GPa) = 88.20818 43.01084 77.74587
#
# Poissons Ratio (x) = 0.14901 0.19460
# Poissons Ratio (y) = 0.30560 0.62084
# Poissons Ratio (z) = 0.22078 0.34346
#
# Static dielectric constant tensor:
#      x y z
#    x 3.541970 0.000000 0.000000 
#    y 0.000000 3.218050 0.000000 
#    z 0.000000 0.000000 3.837330 
# 
# 
# High freq. dielectric constant tensor:
#      x y z
#    x 1.725150 0.000000 0.000000 
#    y 0.000000 1.682410 0.000000 
#    z 0.000000 0.000000 1.707190 
# 
# From -- ./inp_files/43764.got.cif
#   From: 2010.03.12/outbox.cif.g09.slc.cpg/sg67_22_cif.got.tgz:43764.got - 2010.04.10 22:41:39.
