data_PCOD8280231
_publ_section_title
;
Structure prediction by ZEFSAII (Michael W. Deem and Ramdas Pophale) SiO2 
 PCOD8280231
Probable space group: C M M A
;
_chemical_formula_sum "Si O2"
_cell_formula_units_Z 88
_cell_length_a 16.160234
_cell_length_b 8.722289
_cell_length_c 30.143493
_cell_angle_alpha 90.000000
_cell_angle_beta 90.000000
_cell_angle_gamma 90.000000
_cell_volume 4248.852883
_symmetry_space_group_name_H-M "C M M A"
_symmetry_group_IT_number 67
_symmetry_cell_setting 'orthorhombic'
loop_
_space_group_symop_operation_xyz
x,y,z
-x,1/2-y,z
x,-y,-z
-x,1/2+y,-z
-x,-y,-z
x,1/2+y,-z
-x,y,z
x,1/2-y,z
1/2+x,1/2+y,z
1/2-x,-y,z
1/2+x,1/2-y,-z
1/2-x,y,-z
1/2-x,1/2-y,-z
1/2+x,y,-z
1/2-x,1/2+y,z
1/2+x,-y,z
loop_
_atom_site_type_symbol
_atom_site_label
_atom_site_fract_x
_atom_site_fract_y
_atom_site_fract_z
Si Si1 0.096242 0.082108 0.542424
Si Si2 0.000000 0.566494 0.048839
Si Si3 0.339702 0.067839 0.366978
Si Si4 0.337781 0.931159 0.095910
Si Si5 0.161050 0.930212 0.270815
Si Si6 0.405818 0.572777 0.821211
O O1 0.136766 0.250000 0.543932
O O2 0.110436 0.001293 0.590471
O O3 0.000000 0.093092 0.533552
O O4 0.138346 0.000000 0.500000
O O5 0.915685 0.508945 0.071736
O O6 0.000000 0.750000 0.049022
O O7 0.000000 0.500000 0.000000
O O8 0.338565 0.250000 0.368804
O O9 0.376614 0.015853 0.318766
O O10 0.250000 0.000000 0.371383
O O11 0.338436 0.750000 0.087341
O O12 0.250000 0.000000 0.078697
O O13 0.347038 0.968331 0.148244
O O14 0.172577 0.750000 0.271914
O O15 0.102073 0.979192 0.230180
O O16 0.250000 0.000000 0.261978
O O17 0.500000 0.548339 0.836323
O O18 0.379470 0.750000 0.827250
#
# Coordination Sequence:
#
# PCOD8280231 Si02
#       6
#    16   8  16  16  16  16
#     4   9  18  32  49  68  91 122 161 209 263 325
#     4  12  26  48  74 104 140 176 220 274 325 382
#     4   9  18  32  49  70  98 131 171 219 272 330
#     4  12  25  43  68  99 134 178 223 269 324 380
#     4   9  18  32  50  74 104 142 184 229 282 344
#     4  10  20  35  57  86 121 159 202 253 305 361
#
# _framework density 20.711473000000002
#
# number of rings (size 3 to 8) (size 9 to 14) (size 15 to 20)
#    0.000    2.000    0.909    3.000    0.000    4.364 
#    0.000    7.273    0.000    0.000    0.000    7.636 
#    0.000    0.000    0.000    0.000    0.000    0.000 
#
# Total GULP energy -545155.931204 kJ/mol
# GULP energy per Si atom -12389.907527 kJ/mol
# Density = 2.066433 g / cm^3
# Si number density = 20.711473 Si / 1000 Ang^3
#
#
#
# Elastic Constant Matrix: (Units=GPa)
#
#
# Indices 1 2 3 4 5 6 
#
# 1 90.7316 39.8277 48.8351 0.0000 0.0000 0.0000
# 2 39.8277 83.1675 48.1865 0.0000 0.0000 0.0000
# 3 48.8351 48.1865 150.0615 0.0000 0.0000 0.0000
# 4 0.0000 0.0000 0.0000 31.5616 0.0000 0.0000
# 5 0.0000 0.0000 0.0000 0.0000 41.9509 0.0000
# 6 0.0000 0.0000 0.0000 0.0000 0.0000 27.6546
#
#
#
# Elastic Compliance Matrix: (Units=1/GPa)
#
#
# Indices 1 2 3 4 5 6 
#
# 1 0.015100 -0.005386 -0.003184 0.000000 0.000000 0.000000
# 2 -0.005386 0.016693 -0.003608 0.000000 0.000000 0.000000
# 3 -0.003184 -0.003608 0.008859 0.000000 0.000000 0.000000
# 4 0.000000 0.000000 0.000000 0.031684 0.000000 0.000000
# 5 0.000000 0.000000 0.000000 0.000000 0.023837 0.000000
# 6 0.000000 0.000000 0.000000 0.000000 0.000000 0.036160
#
#
# Mechanical properties :
#
#
# Convention : Reuss Voigt Hill
#
# Bulk Modulus (GPa) = 61.36599 66.40655 63.88627
# Shear Modulus (GPa) = 30.84098 32.70750 31.77424
#
# Velocity S-wave (km/s) = 3.86304 3.97822 3.92106
# Velocity P-wave (km/s) = 7.04207 7.29616 7.17024
#
# Compressibility (1/GPa) = 0.01629567
#
# Stress axis : x y z
#
# Youngs Moduli (GPa) = 66.22618 59.90371 112.88298
#
# Poissons Ratio (x) = 0.32264 0.35947
# Poissons Ratio (y) = 0.35669 0.40724
# Poissons Ratio (z) = 0.21089 0.21611
#
# Static dielectric constant tensor:
#      x y z
#    x 3.459410 0.000000 0.000000 
#    y 0.000000 3.755620 0.000000 
#    z 0.000000 0.000000 4.565290 
# 
# 
# High freq. dielectric constant tensor:
#      x y z
#    x 1.792830 0.000000 0.000000 
#    y 0.000000 1.793780 0.000000 
#    z 0.000000 0.000000 1.835990 
# 
# From -- ./inp_files/45758.got.cif
#   From: 2010.03.12/outbox.cif.g09.slc.cpg/sg67_23_cif.got.tgz:45758.got - 2010.04.10 22:41:39.
