data_PCOD8280944
_publ_section_title
;
Structure prediction by ZEFSAII (Michael W. Deem and Ramdas Pophale) SiO2 
 PCOD8280944
Probable space group: C M M A
;
_chemical_formula_sum "Si O2"
_cell_formula_units_Z 96
_cell_length_a 8.813270
_cell_length_b 18.884484
_cell_length_c 30.708946
_cell_angle_alpha 90.000000
_cell_angle_beta 90.000000
_cell_angle_gamma 90.000000
_cell_volume 5111.014448
_symmetry_space_group_name_H-M "C M M A"
_symmetry_group_IT_number 67
_symmetry_cell_setting 'orthorhombic'
loop_
_space_group_symop_operation_xyz
x,y,z
-x,1/2-y,z
x,-y,-z
-x,1/2+y,-z
-x,-y,-z
x,1/2+y,-z
-x,y,z
x,1/2-y,z
1/2+x,1/2+y,z
1/2-x,-y,z
1/2+x,1/2-y,-z
1/2-x,y,-z
1/2-x,1/2-y,-z
1/2+x,y,-z
1/2-x,1/2+y,z
1/2+x,-y,z
loop_
_atom_site_type_symbol
_atom_site_label
_atom_site_fract_x
_atom_site_fract_y
_atom_site_fract_z
Si Si1 0.819446 0.922454 0.878109
Si Si2 0.679124 0.669697 0.456238
Si Si3 0.180195 0.329345 0.203128
Si Si4 0.820821 0.425494 0.280823
Si Si5 0.679118 0.073921 0.621540
Si Si6 0.322311 0.669002 0.953280
O O1 0.762091 0.876184 0.837199
O O2 0.760290 0.884411 0.921116
O O3 0.000000 0.928213 0.879792
O O4 0.750000 0.000000 0.873946
O O5 0.500000 0.663780 0.459898
O O6 0.735234 0.750000 0.451593
O O7 0.750000 0.635629 0.500000
O O8 0.740133 0.630626 0.413176
O O9 0.248686 0.250000 0.199970
O O10 0.237891 0.365046 0.247964
O O11 0.000000 0.325394 0.202653
O O12 0.750000 0.500000 0.266753
O O13 0.769719 0.403798 0.329698
O O14 0.000000 0.434210 0.277597
O O15 0.500000 0.066847 0.619296
O O16 0.750000 0.000000 0.607858
O O17 0.500000 0.651649 0.955155
O O18 0.293423 0.750000 0.938301
O O19 0.250000 0.655394 0.000000
#
# Coordination Sequence:
#
# PCOD8280944 Si02
#       6
#    16  16  16  16  16  16
#     4  11  22  36  55  79 109 143 179 218 260 307
#     4   9  18  32  48  67  92 123 160 201 245 292
#     4   9  18  32  52  78 104 132 169 211 254 301
#     4   9  17  31  51  73  99 130 163 201 246 296
#     4   9  18  31  48  71  97 126 160 200 245 293
#     4  10  21  38  60  85 112 142 177 217 262 311
#
# _framework density 18.782964
#
# number of rings (size 3 to 8) (size 9 to 14) (size 15 to 20)
#    0.000    2.500    0.000    2.000    0.000    3.667 
#    0.000    7.500    0.000    2.500    0.000    4.667 
#    0.000    0.000    0.000    0.000    0.000    0.000 
#
# Total GULP energy -595181.520051 kJ/mol
# GULP energy per Si atom -12399.615001 kJ/mol
# Density = 1.874021 g / cm^3
# Si number density = 18.782964 Si / 1000 Ang^3
#
#
#
# Elastic Constant Matrix: (Units=GPa)
#
#
# Indices 1 2 3 4 5 6 
#
# 1 41.3221 37.1904 35.1305 0.0000 0.0000 0.0000
# 2 37.1904 152.6588 101.8967 0.0000 0.0000 0.0000
# 3 35.1305 101.8967 146.7950 0.0000 0.0000 0.0000
# 4 0.0000 0.0000 0.0000 44.6658 0.0000 0.0000
# 5 0.0000 0.0000 0.0000 0.0000 21.6818 0.0000
# 6 0.0000 0.0000 0.0000 0.0000 0.0000 26.4715
#
#
#
# Elastic Compliance Matrix: (Units=1/GPa)
#
#
# Indices 1 2 3 4 5 6 
#
# 1 0.032348 -0.005056 -0.004232 0.000000 0.000000 0.000000
# 2 -0.005056 0.012996 -0.007811 0.000000 0.000000 0.000000
# 3 -0.004232 -0.007811 0.013247 0.000000 0.000000 0.000000
# 4 0.000000 0.000000 0.000000 0.022388 0.000000 0.000000
# 5 0.000000 0.000000 0.000000 0.000000 0.046122 0.000000
# 6 0.000000 0.000000 0.000000 0.000000 0.000000 0.037776
#
#
# Mechanical properties :
#
#
# Convention : Reuss Voigt Hill
#
# Bulk Modulus (GPa) = 40.99467 76.57901 58.78684
# Shear Modulus (GPa) = 24.13044 29.66773 26.89909
#
# Velocity S-wave (km/s) = 3.58816 3.97861 3.78842
# Velocity P-wave (km/s) = 6.24815 7.87177 7.10648
#
# Compressibility (1/GPa) = 0.02439342
#
# Stress axis : x y z
#
# Youngs Moduli (GPa) = 30.91347 76.94643 75.48837
#
# Poissons Ratio (x) = 0.38903 0.31947
# Poissons Ratio (y) = 0.15629 0.58965
# Poissons Ratio (z) = 0.13083 0.60104
#
# Static dielectric constant tensor:
#      x y z
#    x 3.253290 0.000000 0.000000 
#    y 0.000000 3.450040 0.000000 
#    z 0.000000 0.000000 3.747860 
# 
# 
# High freq. dielectric constant tensor:
#      x y z
#    x 1.710590 0.000000 0.000000 
#    y 0.000000 1.729080 0.000000 
#    z 0.000000 0.000000 1.744980 
# 
# From -- ./inp_files/43452.got.cif
#   From: 2010.03.12/outbox.cif.g09.slc.cpg/sg67_22_cif.got.tgz:43452.got - 2010.04.10 22:41:39.
