data_PCOD8280696
_publ_section_title
;
Structure prediction by ZEFSAII (Michael W. Deem and Ramdas Pophale) SiO2 
 PCOD8280696
Probable space group: C M M A
;
_chemical_formula_sum "Si O2"
_cell_formula_units_Z 80
_cell_length_a 15.778615
_cell_length_b 10.489437
_cell_length_c 24.309350
_cell_angle_alpha 90.000000
_cell_angle_beta 90.000000
_cell_angle_gamma 90.000000
_cell_volume 4023.411055
_symmetry_space_group_name_H-M "C M M A"
_symmetry_group_IT_number 67
_symmetry_cell_setting 'orthorhombic'
loop_
_space_group_symop_operation_xyz
x,y,z
-x,1/2-y,z
x,-y,-z
-x,1/2+y,-z
-x,-y,-z
x,1/2+y,-z
-x,y,z
x,1/2-y,z
1/2+x,1/2+y,z
1/2-x,-y,z
1/2+x,1/2-y,-z
1/2-x,y,-z
1/2-x,1/2-y,-z
1/2+x,y,-z
1/2-x,1/2+y,z
1/2+x,-y,z
loop_
_atom_site_type_symbol
_atom_site_label
_atom_site_fract_x
_atom_site_fract_y
_atom_site_fract_z
Si Si1 0.901192 0.893585 0.147235
Si Si2 0.900139 0.107025 0.232127
Si Si3 0.900979 0.389186 0.462530
Si Si4 0.180000 0.105087 0.348912
Si Si5 0.842557 0.385528 0.971570
O O1 0.890425 0.750000 0.171631
O O2 0.841487 0.909054 0.093769
O O3 0.000000 0.917542 0.131905
O O4 0.866953 0.998927 0.190122
O O5 0.872217 0.250000 0.212991
O O6 0.864809 0.073865 0.291703
O O7 0.000000 0.098903 0.236168
O O8 0.858016 0.500000 0.500000
O O9 0.863290 0.250000 0.479554
O O10 0.886803 0.413043 0.397970
O O11 0.000000 0.388716 0.473741
O O12 0.216791 0.250000 0.348526
O O13 0.250000 0.000000 0.359544
O O14 0.887911 0.250000 0.983144
O O15 0.895343 0.500000 0.000000
O O16 0.750000 0.383249 0.000000
#
# Coordination Sequence:
#
# PCOD8280696 Si02
#       5
#    16  16  16  16  16
#     4   9  18  33  53  77 103 130 165 213 264 308
#     4   9  18  35  58  80 102 134 177 221 264 312
#     4   9  18  34  56  80 106 140 183 228 271 315
#     4  10  21  36  53  77 110 145 180 219 265 317
#     4   9  18  33  50  70  98 131 165 201 247 305
#
# _framework density 19.883624999999999
#
# number of rings (size 3 to 8) (size 9 to 14) (size 15 to 20)
#    0.000    2.800    0.000    0.600    0.000    5.600 
#    3.600    2.000    0.000    6.000    0.000    0.000 
#    0.000    0.000    0.000    0.000    0.000    0.000 
#
# Total GULP energy -495529.585177 kJ/mol
# GULP energy per Si atom -12388.239629 kJ/mol
# Density = 1.983837 g / cm^3
# Si number density = 19.883625 Si / 1000 Ang^3
#
#
#
# Elastic Constant Matrix: (Units=GPa)
#
#
# Indices 1 2 3 4 5 6 
#
# 1 17.6454 21.6724 27.9012 0.0000 0.0000 0.0000
# 2 21.6724 189.6054 99.2261 0.0000 0.0000 0.0000
# 3 27.9012 99.2261 132.4671 0.0000 0.0000 0.0000
# 4 0.0000 0.0000 0.0000 41.2660 0.0000 0.0000
# 5 0.0000 0.0000 0.0000 0.0000 26.2378 0.0000
# 6 0.0000 0.0000 0.0000 0.0000 0.0000 13.5416
#
#
#
# Elastic Compliance Matrix: (Units=1/GPa)
#
#
# Indices 1 2 3 4 5 6 
#
# 1 0.085009 -0.000570 -0.017478 0.000000 0.000000 0.000000
# 2 -0.000570 0.008678 -0.006381 0.000000 0.000000 0.000000
# 3 -0.017478 -0.006381 0.016010 0.000000 0.000000 0.000000
# 4 0.000000 0.000000 0.000000 0.024233 0.000000 0.000000
# 5 0.000000 0.000000 0.000000 0.000000 0.038113 0.000000
# 6 0.000000 0.000000 0.000000 0.000000 0.000000 0.073847
#
#
# Mechanical properties :
#
#
# Convention : Reuss Voigt Hill
#
# Bulk Modulus (GPa) = 16.43661 70.81303 43.62482
# Shear Modulus (GPa) = 15.87161 28.93694 22.40427
#
# Velocity S-wave (km/s) = 2.82835 3.81900 3.36038
# Velocity P-wave (km/s) = 4.35321 7.42545 6.08637
#
# Compressibility (1/GPa) = 0.06083979
#
# Stress axis : x y z
#
# Youngs Moduli (GPa) = 11.76344 115.22817 62.46107
#
# Poissons Ratio (x) = 0.06566 1.09172
# Poissons Ratio (y) = 0.00670 0.39854
# Poissons Ratio (z) = 0.20561 0.73523
#
# Static dielectric constant tensor:
#      x y z
#    x 3.201050 0.000000 0.000000 
#    y 0.000000 4.914160 0.000000 
#    z 0.000000 0.000000 3.703220 
# 
# 
# High freq. dielectric constant tensor:
#      x y z
#    x 1.738320 0.000000 0.000000 
#    y 0.000000 1.803430 0.000000 
#    z 0.000000 0.000000 1.773120 
# 
# From -- ./inp_files/41781.got.cif
#   From: 2010.03.12/outbox.cif.g09.slc.cpg/sg67_21_cif.got.tgz:41781.got - 2010.04.10 22:41:39.
