data_PCOD8280784
_publ_section_title
;
Structure prediction by ZEFSAII (Michael W. Deem and Ramdas Pophale) SiO2 
 PCOD8280784
Probable space group: C M M A
;
_chemical_formula_sum "Si O2"
_cell_formula_units_Z 112
_cell_length_a 14.771925
_cell_length_b 14.399995
_cell_length_c 24.819496
_cell_angle_alpha 90.000000
_cell_angle_beta 90.000000
_cell_angle_gamma 90.000000
_cell_volume 5279.495129
_symmetry_space_group_name_H-M "C M M A"
_symmetry_group_IT_number 67
_symmetry_cell_setting 'orthorhombic'
loop_
_space_group_symop_operation_xyz
x,y,z
-x,1/2-y,z
x,-y,-z
-x,1/2+y,-z
-x,-y,-z
x,1/2+y,-z
-x,y,z
x,1/2-y,z
1/2+x,1/2+y,z
1/2-x,-y,z
1/2+x,1/2-y,-z
1/2-x,y,-z
1/2-x,1/2-y,-z
1/2+x,y,-z
1/2-x,1/2+y,z
1/2+x,-y,z
loop_
_atom_site_type_symbol
_atom_site_label
_atom_site_fract_x
_atom_site_fract_y
_atom_site_fract_z
Si Si1 0.901434 0.877718 0.550168
Si Si2 0.764863 0.638463 0.757622
Si Si3 0.603253 0.485218 0.202988
Si Si4 0.247225 0.649013 0.636947
Si Si5 0.604462 0.645212 0.004638
Si Si6 0.401443 0.408547 0.434483
Si Si7 0.350352 0.508617 0.913176
O O1 0.835283 0.840847 0.595698
O O2 0.868830 0.853197 0.488606
O O3 0.000000 0.832089 0.560262
O O4 0.912336 0.986042 0.551079
O O5 0.769775 0.750000 0.768988
O O6 0.665562 0.598708 0.773868
O O7 0.846826 0.584869 0.787738
O O8 0.782666 0.611547 0.695061
O O9 0.500000 0.483596 0.227513
O O10 0.588842 0.471030 0.138826
O O11 0.289961 0.750000 0.645896
O O12 0.328203 0.589073 0.612846
O O13 0.500000 0.648065 0.989601
O O14 0.642909 0.750000 0.011818
O O15 0.617696 0.586839 0.059061
O O16 0.653063 0.594151 0.955089
O O17 0.500000 0.369895 0.415417
O O18 0.250000 0.500000 0.890002
#
# Coordination Sequence:
#
# PCOD8280784 Si02
#       7
#    16  16  16  16  16  16  16
#     4   9  19  35  56  84 115 149 191 236 288 361
#     4  10  25  46  63  93 130 161 214 280 329 384
#     4  11  24  45  71  95 123 172 223 270 329 380
#     4  11  23  37  56  82 116 153 191 243 308 367
#     4  10  21  36  59  95 134 172 209 247 306 376
#     4   9  19  35  56  84 115 149 191 236 288 361
#     4  11  21  39  62  90 131 166 211 268 305 365
#
# _framework density 21.214148999999999
#
# number of rings (size 3 to 8) (size 9 to 14) (size 15 to 20)
#    0.000    1.857    1.429    4.286    4.000    6.857 
#    0.000    4.286    0.000    0.000    0.000    0.000 
#    0.000    0.000    0.000    0.000    0.000    0.000 
#
# Total GULP energy -693790.308587 kJ/mol
# GULP energy per Si atom -12389.112653 kJ/mol
# Density = 2.116587 g / cm^3
# Si number density = 21.214149 Si / 1000 Ang^3
#
#
#
# Elastic Constant Matrix: (Units=GPa)
#
#
# Indices 1 2 3 4 5 6 
#
# 1 109.8387 17.8864 18.0545 0.0000 0.0000 0.0000
# 2 17.8864 117.9506 21.2415 0.0000 0.0000 0.0000
# 3 18.0545 21.2415 106.3799 0.0000 0.0000 0.0000
# 4 0.0000 0.0000 0.0000 33.9844 0.0000 0.0000
# 5 0.0000 0.0000 0.0000 0.0000 9.4554 0.0000
# 6 0.0000 0.0000 0.0000 0.0000 0.0000 38.0888
#
#
#
# Elastic Compliance Matrix: (Units=1/GPa)
#
#
# Indices 1 2 3 4 5 6 
#
# 1 0.009526 -0.001196 -0.001378 0.000000 0.000000 0.000000
# 2 -0.001196 0.008945 -0.001583 0.000000 0.000000 0.000000
# 3 -0.001378 -0.001583 0.009950 0.000000 0.000000 0.000000
# 4 0.000000 0.000000 0.000000 0.029425 0.000000 0.000000
# 5 0.000000 0.000000 0.000000 0.000000 0.105759 0.000000
# 6 0.000000 0.000000 0.000000 0.000000 0.000000 0.026254
#
#
# Mechanical properties :
#
#
# Convention : Reuss Voigt Hill
#
# Bulk Modulus (GPa) = 49.73607 49.83711 49.78659
# Shear Modulus (GPa) = 24.40507 34.77152 29.58830
#
# Velocity S-wave (km/s) = 3.39546 4.05294 3.73868
# Velocity P-wave (km/s) = 6.23441 6.74130 6.49280
#
# Compressibility (1/GPa) = 0.02010613
#
# Stress axis : x y z
#
# Youngs Moduli (GPa) = 104.98085 111.79908 100.50064
#
# Poissons Ratio (x) = 0.13375 0.13847
# Poissons Ratio (y) = 0.12560 0.15909
# Poissons Ratio (z) = 0.14464 0.17698
#
# Static dielectric constant tensor:
#      x y z
#    x 3.913880 0.000000 0.000000 
#    y 0.000000 3.946830 0.000000 
#    z 0.000000 0.000000 3.908830 
# 
# 
# High freq. dielectric constant tensor:
#      x y z
#    x 1.834330 0.000000 0.000000 
#    y 0.000000 1.832390 0.000000 
#    z 0.000000 0.000000 1.826430 
# 
# From -- ./inp_files/41953.got.cif
#   From: 2010.03.12/outbox.cif.g09.slc.cpg/sg67_21_cif.got.tgz:41953.got - 2010.04.10 22:41:39.
