data_PCOD8280989
_publ_section_title
;
Structure prediction by ZEFSAII (Michael W. Deem and Ramdas Pophale) SiO2 
 PCOD8280989
Probable space group: C M M A
;
_chemical_formula_sum "Si O2"
_cell_formula_units_Z 80
_cell_length_a 13.872636
_cell_length_b 14.444741
_cell_length_c 18.983989
_cell_angle_alpha 90.000000
_cell_angle_beta 90.000000
_cell_angle_gamma 90.000000
_cell_volume 3804.137656
_symmetry_space_group_name_H-M "C M M A"
_symmetry_group_IT_number 67
_symmetry_cell_setting 'orthorhombic'
loop_
_space_group_symop_operation_xyz
x,y,z
-x,1/2-y,z
x,-y,-z
-x,1/2+y,-z
-x,-y,-z
x,1/2+y,-z
-x,y,z
x,1/2-y,z
1/2+x,1/2+y,z
1/2-x,-y,z
1/2+x,1/2-y,-z
1/2-x,y,-z
1/2-x,1/2-y,-z
1/2+x,y,-z
1/2-x,1/2+y,z
1/2+x,-y,z
loop_
_atom_site_type_symbol
_atom_site_label
_atom_site_fract_x
_atom_site_fract_y
_atom_site_fract_z
Si Si1 0.744123 0.144076 0.916630
Si Si2 0.615202 0.750000 0.356635
Si Si3 0.614356 0.444511 0.698201
Si Si4 0.385219 0.943368 0.566575
Si Si5 0.614353 0.250000 0.483870
Si Si6 0.886533 0.500241 0.146986
O O1 0.741479 0.250000 0.889553
O O2 0.646042 0.091132 0.895571
O O3 0.835716 0.092356 0.882403
O O4 0.750000 0.140457 0.000000
O O5 0.500000 0.750000 0.359784
O O6 0.653481 0.659508 0.315119
O O7 0.656050 0.750000 0.436642
O O8 0.500000 0.442026 0.694569
O O9 0.656446 0.512667 0.638236
O O10 0.647721 0.484909 0.772812
O O11 0.500000 0.947742 0.567352
O O12 0.348043 0.838499 0.559323
O O13 0.345243 0.000000 0.500000
O O14 0.500000 0.250000 0.489026
O O15 0.000000 0.513194 0.138598
#
# Coordination Sequence:
#
# PCOD8280989 Si02
#       6
#    16   8  16  16   8  16
#     4  10  23  43  65  91 123 157 196 242 292 355
#     4   9  14  22  38  64 100 141 186 241 294 336
#     4   9  17  27  43  72 108 144 187 240 293 345
#     4   9  14  22  35  57  95 141 187 234 287 341
#     4   9  14  20  34  54  89 143 188 233 291 342
#     4  10  21  38  62  92 125 160 197 243 299 356
#
# _framework density 21.029731999999999
#
# number of rings (size 3 to 8) (size 9 to 14) (size 15 to 20)
#    0.000    2.600    2.000    1.200    1.400    2.400 
#    1.800    2.000    0.000    0.000    0.000    2.800 
#    0.000    8.000    0.000    0.800    0.000    0.000 
#
# Total GULP energy -495909.062440 kJ/mol
# GULP energy per Si atom -12397.726561 kJ/mol
# Density = 2.098187 g / cm^3
# Si number density = 21.029732 Si / 1000 Ang^3
#
#
#
# Elastic Constant Matrix: (Units=GPa)
#
#
# Indices 1 2 3 4 5 6 
#
# 1 59.1431 27.3720 10.1002 0.0000 0.0000 0.0000
# 2 27.3720 197.4497 66.8432 0.0000 0.0000 0.0000
# 3 10.1002 66.8432 127.1565 0.0000 0.0000 0.0000
# 4 0.0000 0.0000 0.0000 27.0359 0.0000 0.0000
# 5 0.0000 0.0000 0.0000 0.0000 280.2463 0.0000
# 6 0.0000 0.0000 0.0000 0.0000 0.0000 4.7547
#
#
#
# Elastic Compliance Matrix: (Units=1/GPa)
#
#
# Indices 1 2 3 4 5 6 
#
# 1 0.018069 -0.002456 -0.000144 0.000000 0.000000 0.000000
# 2 -0.002456 0.006495 -0.003219 0.000000 0.000000 0.000000
# 3 -0.000144 -0.003219 0.009568 0.000000 0.000000 0.000000
# 4 0.000000 0.000000 0.000000 0.036988 0.000000 0.000000
# 5 0.000000 0.000000 0.000000 0.000000 0.003568 0.000000
# 6 0.000000 0.000000 0.000000 0.000000 0.000000 0.210320
#
#
# Mechanical properties :
#
#
# Convention : Reuss Voigt Hill
#
# Bulk Modulus (GPa) = 44.45722 65.82003 55.13863
# Shear Modulus (GPa) = 16.43951 81.03630 48.73791
#
# Velocity S-wave (km/s) = 2.79897 6.21432 4.81934
# Velocity P-wave (km/s) = 5.62421 9.10258 7.56600
#
# Compressibility (1/GPa) = 0.02249353
#
# Stress axis : x y z
#
# Youngs Moduli (GPa) = 55.34197 153.96846 104.51530
#
# Poissons Ratio (x) = 0.37817 0.01507
# Poissons Ratio (y) = 0.13593 0.33644
# Poissons Ratio (z) = 0.00798 0.49564
#
# Static dielectric constant tensor:
#      x y z
#    x 3.396480 0.000000 0.000000 
#    y 0.000000 4.097620 0.000000 
#    z 0.000000 0.000000 3.982920 
# 
# 
# High freq. dielectric constant tensor:
#      x y z
#    x 1.810020 0.000000 0.000000 
#    y 0.000000 1.831860 0.000000 
#    z 0.000000 0.000000 1.822870 
# 
# From -- ./inp_files/34119.got.cif
#   From: 2010.03.12/outbox.cif.g09.slc.cpg/sg67_18_cif.got.tgz:34119.got - 2010.04.10 22:41:39.
