data_PCOD8280768
_publ_section_title
;
Structure prediction by ZEFSAII (Michael W. Deem and Ramdas Pophale) SiO2 
 PCOD8280768
Probable space group: C M M A
;
_chemical_formula_sum "Si O2"
_cell_formula_units_Z 96
_cell_length_a 15.283581
_cell_length_b 19.464692
_cell_length_c 16.674724
_cell_angle_alpha 90.000000
_cell_angle_beta 90.000000
_cell_angle_gamma 90.000000
_cell_volume 4960.566925
_symmetry_space_group_name_H-M "C M M A"
_symmetry_group_IT_number 67
_symmetry_cell_setting 'orthorhombic'
loop_
_space_group_symop_operation_xyz
x,y,z
-x,1/2-y,z
x,-y,-z
-x,1/2+y,-z
-x,-y,-z
x,1/2+y,-z
-x,y,z
x,1/2-y,z
1/2+x,1/2+y,z
1/2-x,-y,z
1/2+x,1/2-y,-z
1/2-x,y,-z
1/2-x,1/2-y,-z
1/2+x,y,-z
1/2-x,1/2+y,z
1/2+x,-y,z
loop_
_atom_site_type_symbol
_atom_site_label
_atom_site_fract_x
_atom_site_fract_y
_atom_site_fract_z
Si Si1 0.163626 0.462708 0.754063
Si Si2 0.601769 0.029311 0.917707
Si Si3 0.500000 0.525082 0.636612
Si Si4 0.000000 0.104097 0.479377
Si Si5 0.254358 0.672107 0.266632
Si Si6 0.599174 0.824838 0.136409
Si Si7 0.681351 0.169084 0.562013
O O1 0.250000 0.500000 0.718968
O O2 0.146819 0.494732 0.841434
O O3 0.084646 0.475238 0.693170
O O4 0.179782 0.380547 0.764021
O O5 0.500000 0.011087 0.912207
O O6 0.618714 0.111617 0.922516
O O7 0.642470 0.000000 0.000000
O O8 0.500000 0.588957 0.575046
O O9 0.500000 0.460466 0.578730
O O10 0.915676 0.148104 0.459725
O O11 0.215673 0.750000 0.269391
O O12 0.339729 0.669129 0.212538
O O13 0.288140 0.643956 0.351252
O O14 0.500000 0.830695 0.168767
O O15 0.613340 0.750000 0.093432
O O16 0.685775 0.250000 0.558285
O O17 0.750000 0.135573 0.500000
#
# Coordination Sequence:
#
# PCOD8280768 Si02
#       7
#    16  16   8   8  16  16  16
#     4  12  22  40  63  85 117 164 198 250 303 366
#     4  10  21  38  62  92 122 155 202 253 300 371
#     4  11  26  40  57  86 118 155 208 243 304 361
#     4  11  23  38  58  86 119 154 197 255 295 367
#     4  10  21  36  57  87 119 153 202 248 297 359
#     4   9  18  34  58  89 119 150 189 244 304 350
#     4  10  21  37  58  85 117 154 198 250 303 362
#
# _framework density 19.352626999999998
#
# number of rings (size 3 to 8) (size 9 to 14) (size 15 to 20)
#    0.000    1.667    2.500    2.250    1.167    0.333 
#    0.000    3.750    0.000    3.000    0.000    0.000 
#    0.000    0.000    0.000    0.000    0.000    0.000 
#
# Total GULP energy -595013.966675 kJ/mol
# GULP energy per Si atom -12396.124306 kJ/mol
# Density = 1.930858 g / cm^3
# Si number density = 19.352627 Si / 1000 Ang^3
#
#
#
# Elastic Constant Matrix: (Units=GPa)
#
#
# Indices 1 2 3 4 5 6 
#
# 1 97.0909 45.7199 39.8349 0.0000 0.0000 0.0000
# 2 45.7199 103.1158 61.6895 0.0000 0.0000 0.0000
# 3 39.8349 61.6895 113.5446 0.0000 0.0000 0.0000
# 4 0.0000 0.0000 0.0000 27.8559 0.0000 0.0000
# 5 0.0000 0.0000 0.0000 0.0000 15.3517 0.0000
# 6 0.0000 0.0000 0.0000 0.0000 0.0000 37.3663
#
#
#
# Elastic Compliance Matrix: (Units=1/GPa)
#
#
# Indices 1 2 3 4 5 6 
#
# 1 0.013371 -0.004626 -0.002178 0.000000 0.000000 0.000000
# 2 -0.004626 0.015968 -0.007053 0.000000 0.000000 0.000000
# 3 -0.002178 -0.007053 0.013403 0.000000 0.000000 0.000000
# 4 0.000000 0.000000 0.000000 0.035899 0.000000 0.000000
# 5 0.000000 0.000000 0.000000 0.000000 0.065140 0.000000
# 6 0.000000 0.000000 0.000000 0.000000 0.000000 0.026762
#
#
# Mechanical properties :
#
#
# Convention : Reuss Voigt Hill
#
# Bulk Modulus (GPa) = 66.53455 67.58221 67.05838
# Shear Modulus (GPa) = 24.59832 27.21524 25.90678
#
# Velocity S-wave (km/s) = 3.56906 3.75411 3.66275
# Velocity P-wave (km/s) = 7.17210 7.33406 7.25353
#
# Compressibility (1/GPa) = 0.01502979
#
# Stress axis : x y z
#
# Youngs Moduli (GPa) = 74.78620 62.62463 74.61021
#
# Poissons Ratio (x) = 0.28969 0.16249
# Poissons Ratio (y) = 0.34594 0.52621
# Poissons Ratio (z) = 0.16288 0.44168
#
# Static dielectric constant tensor:
#      x y z
#    x 5.529680 0.000000 0.000000 
#    y 0.000000 3.933640 0.000000 
#    z 0.000000 0.000000 3.618080 
# 
# 
# High freq. dielectric constant tensor:
#      x y z
#    x 1.753370 0.000000 0.000000 
#    y 0.000000 1.764690 0.000000 
#    z 0.000000 0.000000 1.743290 
# 
# From -- ./inp_files/27253.got.cif
#   From: 2010.03.12/outbox.cif.g09.slc.cpg/sg67_14_cif.got.tgz:27253.got - 2010.04.10 22:41:39.
