data_PCOD8280802
_publ_section_title
;
Structure prediction by ZEFSAII (Michael W. Deem and Ramdas Pophale) SiO2 
 PCOD8280802
Probable space group: C M M A
;
_chemical_formula_sum "Si O2"
_cell_formula_units_Z 96
_cell_length_a 18.903670
_cell_length_b 8.704090
_cell_length_c 30.870363
_cell_angle_alpha 90.000000
_cell_angle_beta 90.000000
_cell_angle_gamma 90.000000
_cell_volume 5079.386221
_symmetry_space_group_name_H-M "C M M A"
_symmetry_group_IT_number 67
_symmetry_cell_setting 'orthorhombic'
loop_
_space_group_symop_operation_xyz
x,y,z
-x,1/2-y,z
x,-y,-z
-x,1/2+y,-z
-x,-y,-z
x,1/2+y,-z
-x,y,z
x,1/2-y,z
1/2+x,1/2+y,z
1/2-x,-y,z
1/2+x,1/2-y,-z
1/2-x,y,-z
1/2-x,1/2-y,-z
1/2+x,y,-z
1/2-x,1/2+y,z
1/2+x,-y,z
loop_
_atom_site_type_symbol
_atom_site_label
_atom_site_fract_x
_atom_site_fract_y
_atom_site_fract_z
Si Si1 0.826683 0.069860 0.363462
Si Si2 0.672539 0.929876 0.458219
Si Si3 0.324441 0.568251 0.117591
Si Si4 0.416349 0.574061 0.955227
Si Si5 0.582052 0.069805 0.716960
Si Si6 0.675420 0.068451 0.210352
O O1 0.815837 0.250000 0.360359
O O2 0.859625 0.027116 0.410956
O O3 0.881329 0.011843 0.327301
O O4 0.750000 0.000000 0.354906
O O5 0.676324 0.750000 0.464946
O O6 0.630186 0.000000 0.500000
O O7 0.750000 0.000000 0.458367
O O8 0.318401 0.750000 0.121548
O O9 0.250000 0.500000 0.101484
O O10 0.384554 0.522980 0.083883
O O11 0.345612 0.499556 0.163933
O O12 0.500000 0.561845 0.951149
O O13 0.390553 0.750000 0.953187
O O14 0.389719 0.500000 0.000000
O O15 0.500000 0.029369 0.713337
O O16 0.594775 0.250000 0.724772
O O17 0.613898 0.975470 0.756659
O O18 0.682766 0.250000 0.206538
O O19 0.750000 0.000000 0.226780
#
# Coordination Sequence:
#
# PCOD8280802 Si02
#       6
#    16  16  16  16  16  16
#     4   9  18  31  49  73  99 131 169 210 257 309
#     4   9  15  24  40  65  95 124 159 203 252 302
#     4  11  22  38  60  85 113 144 181 223 270 320
#     4  10  21  38  59  84 115 150 188 228 270 317
#     4  10  21  37  55  76 104 138 176 217 262 313
#     4  11  22  38  59  82 109 139 175 218 266 319
#
# _framework density 18.899920999999999
#
# number of rings (size 3 to 8) (size 9 to 14) (size 15 to 20)
#    0.000    2.000    0.000    6.000    0.000    5.000 
#    0.000    1.667    0.000    0.500    0.000    0.000 
#    0.000    0.000    0.000    0.000    0.000    4.500 
#
# Total GULP energy -595105.724238 kJ/mol
# GULP energy per Si atom -12398.035922 kJ/mol
# Density = 1.885690 g / cm^3
# Si number density = 18.899921 Si / 1000 Ang^3
#
#
#
# Elastic Constant Matrix: (Units=GPa)
#
#
# Indices 1 2 3 4 5 6 
#
# 1 73.8755 40.9491 65.9581 0.0000 0.0000 0.0000
# 2 40.9491 122.0881 61.6878 0.0000 0.0000 0.0000
# 3 65.9581 61.6878 147.9925 0.0000 0.0000 0.0000
# 4 0.0000 0.0000 0.0000 45.3541 0.0000 0.0000
# 5 0.0000 0.0000 0.0000 0.0000 -1.5929 0.0000
# 6 0.0000 0.0000 0.0000 0.0000 0.0000 23.8376
#
#
#
# Elastic Compliance Matrix: (Units=1/GPa)
#
#
# Indices 1 2 3 4 5 6 
#
# 1 0.023474 -0.003277 -0.009096 0.000000 0.000000 0.000000
# 2 -0.003277 0.010834 -0.003055 0.000000 0.000000 0.000000
# 3 -0.009096 -0.003055 0.012084 0.000000 0.000000 0.000000
# 4 0.000000 0.000000 0.000000 0.022049 0.000000 0.000000
# 5 0.000000 0.000000 0.000000 0.000000 -0.627794 0.000000
# 6 0.000000 0.000000 0.000000 0.000000 0.000000 0.041951
#
#
# Mechanical properties :
#
#
# Convention : Reuss Voigt Hill
#
# Bulk Modulus (GPa) = 64.36939 75.68290 70.02615
# Shear Modulus (GPa) = -10.38709 25.21050 7.41171
#
# Velocity S-wave (km/s) = -2.34686 3.65621 1.98244
# Velocity P-wave (km/s) = 5.17574 7.61281 6.50934
#
# Compressibility (1/GPa) = 0.01553533
#
# Stress axis : x y z
#
# Youngs Moduli (GPa) = 42.60032 92.30410 82.75080
#
# Poissons Ratio (x) = 0.30252 0.75269
# Poissons Ratio (y) = 0.13962 0.25282
# Poissons Ratio (z) = 0.38749 0.28200
#
# Static dielectric constant tensor:
#      x y z
#    x 3.186570 0.000000 0.000000 
#    y 0.000000 3.615290 0.000000 
#    z 0.000000 0.000000 4.203380 
# 
# 
# High freq. dielectric constant tensor:
#      x y z
#    x 1.700650 0.000000 0.000000 
#    y 0.000000 1.744320 0.000000 
#    z 0.000000 0.000000 1.757430 
# 
# From -- ./inp_files/44583.got.cif
#   From: 2010.03.12/outbox.cif.g09.slc.cpg/sg67_23_cif.got.tgz:44583.got - 2010.04.10 22:41:39.
