data_PCOD8280590
_publ_section_title
;
Structure prediction by ZEFSAII (Michael W. Deem and Ramdas Pophale) SiO2 
 PCOD8280590
Probable space group: C M M A
;
_chemical_formula_sum "Si O2"
_cell_formula_units_Z 64
_cell_length_a 22.482789
_cell_length_b 15.634619
_cell_length_c 9.062019
_cell_angle_alpha 90.000000
_cell_angle_beta 90.000000
_cell_angle_gamma 90.000000
_cell_volume 3185.388849
_symmetry_space_group_name_H-M "C M M A"
_symmetry_group_IT_number 67
_symmetry_cell_setting 'orthorhombic'
loop_
_space_group_symop_operation_xyz
x,y,z
-x,1/2-y,z
x,-y,-z
-x,1/2+y,-z
-x,-y,-z
x,1/2+y,-z
-x,y,z
x,1/2-y,z
1/2+x,1/2+y,z
1/2-x,-y,z
1/2+x,1/2-y,-z
1/2-x,y,-z
1/2-x,1/2-y,-z
1/2+x,y,-z
1/2-x,1/2+y,z
1/2+x,-y,z
loop_
_atom_site_type_symbol
_atom_site_label
_atom_site_fract_x
_atom_site_fract_y
_atom_site_fract_z
Si Si1 0.862093 0.750000 0.179268
Si Si2 0.750000 0.613899 0.500000
Si Si3 0.107526 0.750000 0.856067
Si Si4 0.268835 0.750000 0.262329
Si Si5 0.431082 0.914543 0.324992
Si Si6 0.128050 0.583575 0.368835
O O1 0.790630 0.750000 0.164443
O O2 0.878499 0.835065 0.266362
O O3 0.902213 0.750000 0.031997
O O4 0.722397 0.669248 0.368637
O O5 0.804658 0.561871 0.426058
O O6 0.178397 0.750000 0.852469
O O7 0.081004 0.834799 0.782316
O O8 0.500000 0.937297 0.315305
O O9 0.413977 0.893647 0.493057
O O10 0.394033 0.999796 0.279220
#
# Coordination Sequence:
#
# PCOD8280590 Si02
#       6
#     8   8   8   8  16  16
#     4  10  23  38  64  91 125 156 196 243 315 379
#     4   9  16  33  64  97 113 150 192 258 310 361
#     4  12  22  41  59  87 124 170 201 243 304 366
#     4   9  17  35  59  90 123 151 189 244 307 365
#     4  11  24  41  62  87 121 163 212 257 298 352
#     4  10  20  40  64  93 123 151 205 258 311 359
#
# _framework density 20.091740000000001
#
# number of rings (size 3 to 8) (size 9 to 14) (size 15 to 20)
#    0.000    1.750    2.500    3.750    0.000    3.000 
#    0.000    8.125    0.000    3.000    0.000    0.000 
#    0.000    0.000    0.000    0.000    0.000    0.000 
#
# Total GULP energy -396525.481803 kJ/mol
# GULP energy per Si atom -12391.421306 kJ/mol
# Density = 2.004601 g / cm^3
# Si number density = 20.091740 Si / 1000 Ang^3
#
#
#
# Elastic Constant Matrix: (Units=GPa)
#
#
# Indices 1 2 3 4 5 6 
#
# 1 132.4340 67.2881 29.6679 0.0000 0.0000 0.0000
# 2 67.2881 175.5974 66.6478 0.0000 0.0000 0.0000
# 3 29.6679 66.6478 89.1250 0.0000 0.0000 0.0000
# 4 0.0000 0.0000 0.0000 121.9606 0.0000 0.0000
# 5 0.0000 0.0000 0.0000 0.0000 17.2738 0.0000
# 6 0.0000 0.0000 0.0000 0.0000 0.0000 33.1934
#
#
#
# Elastic Compliance Matrix: (Units=1/GPa)
#
#
# Indices 1 2 3 4 5 6 
#
# 1 0.009400 -0.003371 -0.000608 0.000000 0.000000 0.000000
# 2 -0.003371 0.009161 -0.005728 0.000000 0.000000 0.000000
# 3 -0.000608 -0.005728 0.015706 0.000000 0.000000 0.000000
# 4 0.000000 0.000000 0.000000 0.008199 0.000000 0.000000
# 5 0.000000 0.000000 0.000000 0.000000 0.057891 0.000000
# 6 0.000000 0.000000 0.000000 0.000000 0.000000 0.030126
#
#
# Mechanical properties :
#
#
# Convention : Reuss Voigt Hill
#
# Bulk Modulus (GPa) = 67.33126 80.48488 73.90807
# Shear Modulus (GPa) = 32.28936 50.05576 41.17256
#
# Velocity S-wave (km/s) = 4.01321 4.99677 4.53175
# Velocity P-wave (km/s) = 7.42018 8.56947 8.01545
#
# Compressibility (1/GPa) = 0.01485194
#
# Stress axis : x y z
#
# Youngs Moduli (GPa) = 106.38247 109.16000 63.66906
#
# Poissons Ratio (x) = 0.36801 0.03871
# Poissons Ratio (y) = 0.35864 0.36471
# Poissons Ratio (z) = 0.06468 0.62530
#
# Static dielectric constant tensor:
#      x y z
#    x 3.728300 0.000000 0.000000 
#    y 0.000000 3.768770 0.000000 
#    z 0.000000 0.000000 3.320230 
# 
# 
# High freq. dielectric constant tensor:
#      x y z
#    x 1.790870 0.000000 0.000000 
#    y 0.000000 1.798260 0.000000 
#    z 0.000000 0.000000 1.756580 
# 
# From -- ./inp_files/10752.got.cif
#   From: 2010.03.12/outbox.cif.g09.slc.cpg/sg67_6_cif.got.tgz:10752.got - 2010.04.10 22:41:39.
