data_PCOD8280395
_publ_section_title
;
Structure prediction by ZEFSAII (Michael W. Deem and Ramdas Pophale) SiO2 
 PCOD8280395
Probable space group: C M M A
;
_chemical_formula_sum "Si O2"
_cell_formula_units_Z 104
_cell_length_a 29.769542
_cell_length_b 9.016240
_cell_length_c 19.969695
_cell_angle_alpha 90.000000
_cell_angle_beta 90.000000
_cell_angle_gamma 90.000000
_cell_volume 5360.052562
_symmetry_space_group_name_H-M "C M M A"
_symmetry_group_IT_number 67
_symmetry_cell_setting 'orthorhombic'
loop_
_space_group_symop_operation_xyz
x,y,z
-x,1/2-y,z
x,-y,-z
-x,1/2+y,-z
-x,-y,-z
x,1/2+y,-z
-x,y,z
x,1/2-y,z
1/2+x,1/2+y,z
1/2-x,-y,z
1/2+x,1/2-y,-z
1/2-x,y,-z
1/2-x,1/2-y,-z
1/2+x,y,-z
1/2-x,1/2+y,z
1/2+x,-y,z
loop_
_atom_site_type_symbol
_atom_site_label
_atom_site_fract_x
_atom_site_fract_y
_atom_site_fract_z
Si Si1 0.667729 0.925555 0.569800
Si Si2 0.500000 0.911343 0.434865
Si Si3 0.448204 0.579959 0.766025
Si Si4 0.706339 0.420787 0.290506
Si Si5 0.204006 0.427542 0.071523
Si Si6 0.858613 0.080820 0.827504
Si Si7 0.088776 0.079436 0.358480
O O1 0.665616 0.750000 0.558647
O O2 0.699590 0.970738 0.632061
O O3 0.683916 0.000000 0.500000
O O4 0.619416 0.984283 0.591947
O O5 0.500000 0.750000 0.464550
O O6 0.459202 0.944721 0.388323
O O7 0.500000 0.000000 0.500000
O O8 0.500000 0.525356 0.781185
O O9 0.450203 0.750000 0.741178
O O10 0.413501 0.566875 0.829001
O O11 0.419206 0.482323 0.715218
O O12 0.717456 0.250000 0.288097
O O13 0.750000 0.500000 0.260373
O O14 0.662483 0.458810 0.246009
O O15 0.208852 0.250000 0.065859
O O16 0.250000 0.500000 0.100434
O O17 0.162298 0.468011 0.119093
O O18 0.193830 0.500000 0.000000
O O19 0.845160 0.250000 0.845864
O O20 0.105400 0.250000 0.355641
#
# Coordination Sequence:
#
# PCOD8280395 Si02
#       7
#    16   8  16  16  16  16  16
#     4  11  23  40  56  76 103 141 187 239 296 354
#     4  10  22  34  46  70 100 132 173 226 287 348
#     4  10  20  36  60  86 115 154 194 237 290 343
#     4  10  22  38  57  80 111 146 188 239 289 347
#     4  11  22  38  62  95 130 167 200 237 284 337
#     4  10  20  38  60  88 123 157 195 241 287 343
#     4  11  21  35  53  76 105 140 183 235 291 350
#
# _framework density 19.402795000000001
#
# number of rings (size 3 to 8) (size 9 to 14) (size 15 to 20)
#    0.000    1.538    2.308    3.692    0.000    6.462 
#    0.000    1.538    0.000    0.462    0.000    0.000 
#    0.000    0.000    0.000    0.000    0.000    0.000 
#
# Total GULP energy -644260.957415 kJ/mol
# GULP energy per Si atom -12389.633796 kJ/mol
# Density = 1.935863 g / cm^3
# Si number density = 19.402795 Si / 1000 Ang^3
#
#
#
# Elastic Constant Matrix: (Units=GPa)
#
#
# Indices 1 2 3 4 5 6 
#
# 1 101.4793 34.6569 31.2550 0.0000 0.0000 0.0000
# 2 34.6569 74.6789 37.4283 0.0000 0.0000 0.0000
# 3 31.2550 37.4283 77.1108 0.0000 0.0000 0.0000
# 4 0.0000 0.0000 0.0000 31.5305 0.0000 0.0000
# 5 0.0000 0.0000 0.0000 0.0000 26.7173 0.0000
# 6 0.0000 0.0000 0.0000 0.0000 0.0000 25.1288
#
#
#
# Elastic Compliance Matrix: (Units=1/GPa)
#
#
# Indices 1 2 3 4 5 6 
#
# 1 0.012182 -0.004200 -0.002899 0.000000 0.000000 0.000000
# 2 -0.004200 0.019144 -0.007590 0.000000 0.000000 0.000000
# 3 -0.002899 -0.007590 0.017827 0.000000 0.000000 0.000000
# 4 0.000000 0.000000 0.000000 0.031715 0.000000 0.000000
# 5 0.000000 0.000000 0.000000 0.000000 0.037429 0.000000
# 6 0.000000 0.000000 0.000000 0.000000 0.000000 0.039795
#
#
# Mechanical properties :
#
#
# Convention : Reuss Voigt Hill
#
# Bulk Modulus (GPa) = 50.56849 51.10548 50.83698
# Shear Modulus (GPa) = 25.76515 26.67057 26.21786
#
# Velocity S-wave (km/s) = 3.64800 3.71155 3.67991
# Velocity P-wave (km/s) = 6.62291 6.69058 6.65683
#
# Compressibility (1/GPa) = 0.01977516
#
# Stress axis : x y z
#
# Youngs Moduli (GPa) = 82.09168 52.23625 56.09433
#
# Poissons Ratio (x) = 0.21941 0.16260
# Poissons Ratio (y) = 0.34482 0.42573
# Poissons Ratio (z) = 0.23796 0.39645
#
# Static dielectric constant tensor:
#      x y z
#    x 3.703220 0.000000 0.000000 
#    y 0.000000 3.585660 0.000000 
#    z 0.000000 0.000000 3.411440 
# 
# 
# High freq. dielectric constant tensor:
#      x y z
#    x 1.761460 0.000000 0.000000 
#    y 0.000000 1.758480 0.000000 
#    z 0.000000 0.000000 1.735640 
# 
# From -- ./inp_files/40198.got.cif
#   From: 2010.03.12/outbox.cif.g09.slc.cpg/sg67_21_cif.got.tgz:40198.got - 2010.04.10 22:41:39.
