data_PCOD8280032
_publ_section_title
;
Structure prediction by ZEFSAII (Michael W. Deem and Ramdas Pophale) SiO2 
 PCOD8280032
Probable space group: C M M A
;
_chemical_formula_sum "Si O2"
_cell_formula_units_Z 80
_cell_length_a 9.085912
_cell_length_b 28.533961
_cell_length_c 15.627105
_cell_angle_alpha 90.000000
_cell_angle_beta 90.000000
_cell_angle_gamma 90.000000
_cell_volume 4051.437278
_symmetry_space_group_name_H-M "C M M A"
_symmetry_group_IT_number 67
_symmetry_cell_setting 'orthorhombic'
loop_
_space_group_symop_operation_xyz
x,y,z
-x,1/2-y,z
x,-y,-z
-x,1/2+y,-z
-x,-y,-z
x,1/2+y,-z
-x,y,z
x,1/2-y,z
1/2+x,1/2+y,z
1/2-x,-y,z
1/2+x,1/2-y,-z
1/2-x,y,-z
1/2-x,1/2-y,-z
1/2+x,y,-z
1/2-x,1/2+y,z
1/2+x,-y,z
loop_
_atom_site_type_symbol
_atom_site_label
_atom_site_fract_x
_atom_site_fract_y
_atom_site_fract_z
Si Si1 0.329542 0.603992 0.585115
Si Si2 0.673481 0.450522 0.247058
Si Si3 0.670529 0.803280 0.154730
Si Si4 0.173711 0.610774 0.083886
Si Si5 0.667569 0.697840 0.670281
O O1 0.500000 0.594196 0.571575
O O2 0.250000 0.585961 0.500000
O O3 0.270948 0.575304 0.667079
O O4 0.296314 0.659303 0.598332
O O5 0.500000 0.457927 0.248982
O O6 0.750000 0.500000 0.238779
O O7 0.720492 0.419412 0.166031
O O8 0.500000 0.817454 0.149192
O O9 0.696592 0.750000 0.124283
O O10 0.765764 0.836496 0.093849
O O11 0.721943 0.809519 0.252040
O O12 0.000000 0.612173 0.070697
O O13 0.250000 0.588230 0.000000
O O14 0.500000 0.690003 0.704078
O O15 0.685683 0.750000 0.630617
#
# Coordination Sequence:
#
# PCOD8280032 Si02
#       5
#    16  16  16  16  16
#     4  10  21  38  58  87 120 154 197 240 289 348
#     4  10  23  43  64  86 116 151 193 243 300 356
#     4  10  20  34  56  88 122 157 199 241 285 341
#     4  11  23  41  63  89 120 155 196 241 290 351
#     4   9  17  33  57  82 116 160 198 237 288 344
#
# _framework density 19.746079999999999
#
# number of rings (size 3 to 8) (size 9 to 14) (size 15 to 20)
#    0.000    2.000    2.000    1.200    0.000    6.000 
#    0.000    4.000    0.000    0.000    0.000    0.000 
#    0.000    0.000    0.000    0.000    0.000    0.000 
#
# Total GULP energy -496057.360549 kJ/mol
# GULP energy per Si atom -12401.434014 kJ/mol
# Density = 1.970114 g / cm^3
# Si number density = 19.746080 Si / 1000 Ang^3
#
#
#
# Elastic Constant Matrix: (Units=GPa)
#
#
# Indices 1 2 3 4 5 6 
#
# 1 70.1909 50.3779 56.4863 0.0000 0.0000 0.0000
# 2 50.3779 116.9264 63.8840 0.0000 0.0000 0.0000
# 3 56.4863 63.8840 152.6112 0.0000 0.0000 0.0000
# 4 0.0000 0.0000 0.0000 11.4412 0.0000 0.0000
# 5 0.0000 0.0000 0.0000 0.0000 35.4979 0.0000
# 6 0.0000 0.0000 0.0000 0.0000 0.0000 30.9431
#
#
#
# Elastic Compliance Matrix: (Units=1/GPa)
#
#
# Indices 1 2 3 4 5 6 
#
# 1 0.024178 -0.007167 -0.005949 0.000000 0.000000 0.000000
# 2 -0.007167 0.013213 -0.002878 0.000000 0.000000 0.000000
# 3 -0.005949 -0.002878 0.009959 0.000000 0.000000 0.000000
# 4 0.000000 0.000000 0.000000 0.087404 0.000000 0.000000
# 5 0.000000 0.000000 0.000000 0.000000 0.028171 0.000000
# 6 0.000000 0.000000 0.000000 0.000000 0.000000 0.032317
#
#
# Mechanical properties :
#
#
# Convention : Reuss Voigt Hill
#
# Bulk Modulus (GPa) = 65.09553 75.69166 70.39359
# Shear Modulus (GPa) = 21.51914 26.84178 24.18046
#
# Velocity S-wave (km/s) = 3.30478 3.69093 3.50318
# Velocity P-wave (km/s) = 6.89927 7.52195 7.21733
#
# Compressibility (1/GPa) = 0.01536204
#
# Stress axis : x y z
#
# Youngs Moduli (GPa) = 41.35954 75.68395 100.40781
#
# Poissons Ratio (x) = 0.54242 0.59733
# Poissons Ratio (y) = 0.29642 0.28900
# Poissons Ratio (z) = 0.24605 0.21784
#
# Static dielectric constant tensor:
#      x y z
#    x 3.526430 0.000000 0.000000 
#    y 0.000000 3.666460 0.000000 
#    z 0.000000 0.000000 3.533910 
# 
# 
# High freq. dielectric constant tensor:
#      x y z
#    x 1.766740 0.000000 0.000000 
#    y 0.000000 1.770310 0.000000 
#    z 0.000000 0.000000 1.763420 
# 
# From -- ./inp_files/32116.got.cif
#   From: 2010.03.12/outbox.cif.g09.slc.cpg/sg67_17_cif.got.tgz:32116.got - 2010.04.10 22:41:39.
