data_PCOD8280154
_publ_section_title
;
Structure prediction by ZEFSAII (Michael W. Deem and Ramdas Pophale) SiO2 
 PCOD8280154
Probable space group: C M M A
;
_chemical_formula_sum "Si O2"
_cell_formula_units_Z 104
_cell_length_a 9.054932
_cell_length_b 26.496792
_cell_length_c 24.793748
_cell_angle_alpha 90.000000
_cell_angle_beta 90.000000
_cell_angle_gamma 90.000000
_cell_volume 5948.680893
_symmetry_space_group_name_H-M "C M M A"
_symmetry_group_IT_number 67
_symmetry_cell_setting 'orthorhombic'
loop_
_space_group_symop_operation_xyz
x,y,z
-x,1/2-y,z
x,-y,-z
-x,1/2+y,-z
-x,-y,-z
x,1/2+y,-z
-x,y,z
x,1/2-y,z
1/2+x,1/2+y,z
1/2-x,-y,z
1/2+x,1/2-y,-z
1/2-x,y,-z
1/2-x,1/2-y,-z
1/2+x,y,-z
1/2-x,1/2+y,z
1/2+x,-y,z
loop_
_atom_site_type_symbol
_atom_site_label
_atom_site_fract_x
_atom_site_fract_y
_atom_site_fract_z
Si Si1 0.336180 0.310276 0.947949
Si Si2 0.821099 0.750000 0.558379
Si Si3 0.176798 0.654933 0.383384
Si Si4 0.171135 0.145509 0.739036
Si Si5 0.168182 0.449812 0.389539
Si Si6 0.661502 0.191730 0.152698
Si Si7 0.836515 0.952859 0.738388
O O1 0.500000 0.332063 0.951752
O O2 0.336503 0.250000 0.947540
O O3 0.267776 0.332464 0.892338
O O4 0.250000 0.330893 0.000000
O O5 0.750000 0.750000 0.500000
O O6 0.761689 0.800298 0.586946
O O7 0.000000 0.750000 0.556735
O O8 0.217881 0.663741 0.320464
O O9 0.239317 0.600890 0.404442
O O10 0.000000 0.657187 0.393718
O O11 0.213552 0.186126 0.784980
O O12 0.256785 0.096676 0.758778
O O13 0.000000 0.131824 0.736891
O O14 0.250000 0.500000 0.413367
O O15 0.161590 0.455141 0.325861
O O16 0.000000 0.446374 0.412632
O O17 0.500000 0.166445 0.146426
O O18 0.650549 0.250000 0.139479
O O19 0.000000 0.953575 0.762312
O O20 0.750000 0.000000 0.762882
#
# Coordination Sequence:
#
# PCOD8280154 Si02
#       7
#    16   8  16  16  16  16  16
#     4   9  16  26  40  57  79 111 154 199 240 281
#     4  12  26  44  62  80 102 134 175 218 255 294
#     4  10  20  35  56  80 105 136 172 210 254 304
#     4   9  18  30  47  70  99 130 161 194 237 290
#     4   9  16  28  48  76 107 136 168 206 250 300
#     4   9  17  28  42  61  89 125 160 194 233 279
#     4   9  16  26  42  63  92 125 160 196 236 283
#
# _framework density 17.482868
#
# number of rings (size 3 to 8) (size 9 to 14) (size 15 to 20)
#    0.000    2.615    0.000    2.538    1.077    6.769 
#    0.000    0.000    0.000    0.462    0.000    3.231 
#    0.000    0.615    0.000    6.462    0.000    3.385 
#
# Total GULP energy -644370.180091 kJ/mol
# GULP energy per Si atom -12391.734233 kJ/mol
# Density = 1.744308 g / cm^3
# Si number density = 17.482868 Si / 1000 Ang^3
#
#
#
# Elastic Constant Matrix: (Units=GPa)
#
#
# Indices 1 2 3 4 5 6 
#
# 1 119.1479 52.4560 56.0237 0.0000 0.0000 0.0000
# 2 52.4560 82.4971 38.5652 0.0000 0.0000 0.0000
# 3 56.0237 38.5652 89.8632 0.0000 0.0000 0.0000
# 4 0.0000 0.0000 0.0000 0.2970 0.0000 0.0000
# 5 0.0000 0.0000 0.0000 0.0000 22.0968 0.0000
# 6 0.0000 0.0000 0.0000 0.0000 0.0000 29.7387
#
#
#
# Elastic Compliance Matrix: (Units=1/GPa)
#
#
# Indices 1 2 3 4 5 6 
#
# 1 0.013893 -0.005986 -0.006092 0.000000 0.000000 0.000000
# 2 -0.005986 0.017743 -0.003883 0.000000 0.000000 0.000000
# 3 -0.006092 -0.003883 0.016593 0.000000 0.000000 0.000000
# 4 0.000000 0.000000 0.000000 3.366539 0.000000 0.000000
# 5 0.000000 0.000000 0.000000 0.000000 0.045255 0.000000
# 6 0.000000 0.000000 0.000000 0.000000 0.000000 0.033626
#
#
# Mechanical properties :
#
#
# Convention : Reuss Voigt Hill
#
# Bulk Modulus (GPa) = 61.32565 65.06643 63.19604
# Shear Modulus (GPa) = 1.41603 20.05738 10.73670
#
# Velocity S-wave (km/s) = 0.90095 3.39080 2.48085
# Velocity P-wave (km/s) = 6.01963 7.25452 6.66573
#
# Compressibility (1/GPa) = 0.01630639
#
# Stress axis : x y z
#
# Youngs Moduli (GPa) = 71.97899 56.36105 60.26809
#
# Poissons Ratio (x) = 0.33737 0.36718
# Poissons Ratio (y) = 0.43085 0.23400
# Poissons Ratio (z) = 0.43853 0.21883
#
# Static dielectric constant tensor:
#      x y z
#    x 8.793960 0.000000 0.000000 
#    y 0.000000 3.293320 0.000000 
#    z 0.000000 0.000000 3.140290 
# 
# 
# High freq. dielectric constant tensor:
#      x y z
#    x 1.691200 0.000000 0.000000 
#    y 0.000000 1.646070 0.000000 
#    z 0.000000 0.000000 1.648180 
# 
# From -- ./inp_files/41044.got.cif
#   From: 2010.03.12/outbox.cif.g09.slc.cpg/sg67_21_cif.got.tgz:41044.got - 2010.04.10 22:41:39.
