data_PCOD8280440
_publ_section_title
;
Structure prediction by ZEFSAII (Michael W. Deem and Ramdas Pophale) SiO2 
 PCOD8280440
Probable space group: C M M A
;
_chemical_formula_sum "Si O2"
_cell_formula_units_Z 96
_cell_length_a 17.164039
_cell_length_b 30.558845
_cell_length_c 9.571629
_cell_angle_alpha 90.000000
_cell_angle_beta 90.000000
_cell_angle_gamma 90.000000
_cell_volume 5020.445827
_symmetry_space_group_name_H-M "C M M A"
_symmetry_group_IT_number 67
_symmetry_cell_setting 'orthorhombic'
loop_
_space_group_symop_operation_xyz
x,y,z
-x,1/2-y,z
x,-y,-z
-x,1/2+y,-z
-x,-y,-z
x,1/2+y,-z
-x,y,z
x,1/2-y,z
1/2+x,1/2+y,z
1/2-x,-y,z
1/2+x,1/2-y,-z
1/2-x,y,-z
1/2-x,1/2-y,-z
1/2+x,y,-z
1/2-x,1/2+y,z
1/2+x,-y,z
loop_
_atom_site_type_symbol
_atom_site_label
_atom_site_fract_x
_atom_site_fract_y
_atom_site_fract_z
Si Si1 0.413130 0.003705 0.662444
Si Si2 0.091608 0.798650 0.244118
Si Si3 0.337891 0.142203 0.469876
Si Si4 0.815623 0.072440 0.757199
Si Si5 0.909655 0.125982 0.961354
Si Si6 0.135995 0.596307 0.744614
O O1 0.500000 0.984353 0.691467
O O2 0.415151 0.053361 0.717840
O O3 0.393038 0.000000 0.500000
O O4 0.344265 0.977426 0.740477
O O5 0.126412 0.750000 0.221497
O O6 0.121906 0.817425 0.391557
O O7 0.116439 0.828126 0.110452
O O8 0.000000 0.796511 0.256147
O O9 0.250000 0.156086 0.500000
O O10 0.347328 0.099253 0.374942
O O11 0.376598 0.130039 0.617292
O O12 0.855849 0.088114 0.899131
O O13 0.723495 0.078642 0.765479
O O14 0.000000 0.116649 0.928559
O O15 0.893849 0.125295 0.126030
#
# Coordination Sequence:
#
# PCOD8280440 Si02
#       6
#    16  16  16  16  16  16
#     4  11  22  34  53  82 115 148 188 232 274 319
#     4   9  19  37  60  82 108 146 184 219 274 347
#     4   9  19  34  56  82 111 143 180 227 272 327
#     4  10  20  37  56  76 109 154 190 221 271 332
#     4  10  21  37  56  80 111 145 185 232 280 329
#     4  11  21  35  56  83 112 146 188 235 277 318
#
# _framework density 19.121807
#
# number of rings (size 3 to 8) (size 9 to 14) (size 15 to 20)
#    0.000    2.000    1.667    2.000    0.000    3.667 
#    0.000    4.167    0.000   15.000    0.000    0.000 
#    0.000    0.000    0.000    0.000    0.000    0.000 
#
# Total GULP energy -595072.841368 kJ/mol
# GULP energy per Si atom -12397.350862 kJ/mol
# Density = 1.907828 g / cm^3
# Si number density = 19.121807 Si / 1000 Ang^3
#
#
#
# Elastic Constant Matrix: (Units=GPa)
#
#
# Indices 1 2 3 4 5 6 
#
# 1 51.0537 22.0504 18.1040 0.0000 0.0000 0.0000
# 2 22.0504 118.1211 52.5958 0.0000 0.0000 0.0000
# 3 18.1040 52.5958 124.1657 0.0000 0.0000 0.0000
# 4 0.0000 0.0000 0.0000 22.2583 0.0000 0.0000
# 5 0.0000 0.0000 0.0000 0.0000 30.1184 0.0000
# 6 0.0000 0.0000 0.0000 0.0000 0.0000 18.0718
#
#
#
# Elastic Compliance Matrix: (Units=1/GPa)
#
#
# Indices 1 2 3 4 5 6 
#
# 1 0.021619 -0.003244 -0.001778 0.000000 0.000000 0.000000
# 2 -0.003244 0.010921 -0.004153 0.000000 0.000000 0.000000
# 3 -0.001778 -0.004153 0.010072 0.000000 0.000000 0.000000
# 4 0.000000 0.000000 0.000000 0.044927 0.000000 0.000000
# 5 0.000000 0.000000 0.000000 0.000000 0.033202 0.000000
# 6 0.000000 0.000000 0.000000 0.000000 0.000000 0.055335
#
#
# Mechanical properties :
#
#
# Convention : Reuss Voigt Hill
#
# Bulk Modulus (GPa) = 41.21715 53.20454 47.21085
# Shear Modulus (GPa) = 24.68979 27.46239 26.07609
#
# Velocity S-wave (km/s) = 3.59720 3.79381 3.69681
# Velocity P-wave (km/s) = 6.23338 6.86113 6.55477
#
# Compressibility (1/GPa) = 0.02426174
#
# Stress axis : x y z
#
# Youngs Moduli (GPa) = 46.25596 91.56964 99.28371
#
# Poissons Ratio (x) = 0.29706 0.17652
# Poissons Ratio (y) = 0.15006 0.41232
# Poissons Ratio (z) = 0.08224 0.38028
#
# Static dielectric constant tensor:
#      x y z
#    x 3.444840 0.000000 0.000000 
#    y 0.000000 3.496940 0.000000 
#    z 0.000000 0.000000 3.540480 
# 
# 
# High freq. dielectric constant tensor:
#      x y z
#    x 1.746070 0.000000 0.000000 
#    y 0.000000 1.723840 0.000000 
#    z 0.000000 0.000000 1.744420 
# 
# From -- ./inp_files/11484.got.cif
#   From: 2010.03.12/outbox.cif.g09.slc.cpg/sg67_6_cif.got.tgz:11484.got - 2010.04.10 22:41:39.
