data_PCOD8280763
_publ_section_title
;
Structure prediction by ZEFSAII (Michael W. Deem and Ramdas Pophale) SiO2 
 PCOD8280763
Probable space group: C M M A
;
_chemical_formula_sum "Si O2"
_cell_formula_units_Z 112
_cell_length_a 17.196582
_cell_length_b 14.390109
_cell_length_c 23.505893
_cell_angle_alpha 90.000000
_cell_angle_beta 90.000000
_cell_angle_gamma 90.000000
_cell_volume 5816.784487
_symmetry_space_group_name_H-M "C M M A"
_symmetry_group_IT_number 67
_symmetry_cell_setting 'orthorhombic'
loop_
_space_group_symop_operation_xyz
x,y,z
-x,1/2-y,z
x,-y,-z
-x,1/2+y,-z
-x,-y,-z
x,1/2+y,-z
-x,y,z
x,1/2-y,z
1/2+x,1/2+y,z
1/2-x,-y,z
1/2+x,1/2-y,-z
1/2-x,y,-z
1/2-x,1/2-y,-z
1/2+x,y,-z
1/2-x,1/2+y,z
1/2+x,-y,z
loop_
_atom_site_type_symbol
_atom_site_label
_atom_site_fract_x
_atom_site_fract_y
_atom_site_fract_z
Si Si1 0.411400 0.642166 0.934980
Si Si2 0.088606 0.642103 0.935830
Si Si3 0.163585 0.856768 0.649656
Si Si4 0.161179 0.499469 0.145285
Si Si5 0.591672 0.497016 0.565002
Si Si6 0.090737 0.003328 0.266468
Si Si7 0.847897 0.356710 0.649964
O O1 0.500000 0.609474 0.925328
O O2 0.402881 0.750000 0.922119
O O3 0.354960 0.590483 0.891873
O O4 0.386386 0.619473 0.999573
O O5 0.096820 0.750000 0.922970
O O6 0.145507 0.590499 0.892969
O O7 0.000000 0.609241 0.926066
O O8 0.135459 0.750000 0.649980
O O9 0.130977 0.907665 0.593891
O O10 0.255736 0.863779 0.648640
O O11 0.132819 0.907514 0.706171
O O12 0.250000 0.500000 0.165633
O O13 0.105874 0.498203 0.199672
O O14 0.619238 0.500000 0.500000
O O15 0.500000 0.485494 0.570654
O O16 0.617738 0.592781 0.594497
O O17 0.121323 0.907266 0.293418
O O18 0.000000 0.012775 0.278901
O O19 0.876203 0.250000 0.650423
#
# Coordination Sequence:
#
# PCOD8280763 Si02
#       7
#    16  16  16  16  16  16  16
#     4   9  19  37  59  81 107 141 181 224 270 324
#     4   9  19  37  59  81 107 141 181 224 270 324
#     4  10  21  38  60  84 112 146 182 225 278 329
#     4  12  24  36  54  81 113 145 178 223 276 327
#     4  10  21  36  56  85 119 152 188 229 266 309
#     4  11  23  39  59  80 106 143 186 230 272 322
#     4  10  21  38  60  84 112 146 182 225 278 329
#
# _framework density 19.254624
#
# number of rings (size 3 to 8) (size 9 to 14) (size 15 to 20)
#    0.000    1.857    0.000    6.857    0.000    8.000 
#    0.000    4.286    0.000    0.000    0.000    0.000 
#    0.000    0.000    0.000    0.000    0.000    0.000 
#
# Total GULP energy -694577.731343 kJ/mol
# GULP energy per Si atom -12403.173774 kJ/mol
# Density = 1.921080 g / cm^3
# Si number density = 19.254624 Si / 1000 Ang^3
#
#
#
# Elastic Constant Matrix: (Units=GPa)
#
#
# Indices 1 2 3 4 5 6 
#
# 1 54.0685 11.5392 18.7720 0.0000 0.0000 0.0000
# 2 11.5392 119.1429 51.6774 0.0000 0.0000 0.0000
# 3 18.7720 51.6774 124.7105 0.0000 0.0000 0.0000
# 4 0.0000 0.0000 0.0000 23.8651 0.0000 0.0000
# 5 0.0000 0.0000 0.0000 0.0000 18.9877 0.0000
# 6 0.0000 0.0000 0.0000 0.0000 0.0000 23.7085
#
#
#
# Elastic Compliance Matrix: (Units=1/GPa)
#
#
# Indices 1 2 3 4 5 6 
#
# 1 0.019570 -0.000753 -0.002634 0.000000 0.000000 0.000000
# 2 -0.000753 0.010261 -0.004139 0.000000 0.000000 0.000000
# 3 -0.002634 -0.004139 0.010130 0.000000 0.000000 0.000000
# 4 0.000000 0.000000 0.000000 0.041902 0.000000 0.000000
# 5 0.000000 0.000000 0.000000 0.000000 0.052666 0.000000
# 6 0.000000 0.000000 0.000000 0.000000 0.000000 0.042179
#
#
# Mechanical properties :
#
#
# Convention : Reuss Voigt Hill
#
# Bulk Modulus (GPa) = 40.14372 51.32213 45.73293
# Shear Modulus (GPa) = 24.99212 27.70781 26.34996
#
# Velocity S-wave (km/s) = 3.60666 3.79756 3.70334
# Velocity P-wave (km/s) = 6.18370 6.77797 6.48764
#
# Compressibility (1/GPa) = 0.02491050
#
# Stress axis : x y z
#
# Youngs Moduli (GPa) = 51.09816 97.45293 98.71648
#
# Poissons Ratio (x) = 0.07339 0.26000
# Poissons Ratio (y) = 0.03848 0.40856
# Poissons Ratio (z) = 0.13458 0.40333
#
# Static dielectric constant tensor:
#      x y z
#    x 3.499400 0.000000 0.000000 
#    y 0.000000 3.630740 0.000000 
#    z 0.000000 0.000000 3.498140 
# 
# 
# High freq. dielectric constant tensor:
#      x y z
#    x 1.753690 0.000000 0.000000 
#    y 0.000000 1.757020 0.000000 
#    z 0.000000 0.000000 1.749830 
# 
# From -- ./inp_files/41903.got.cif
#   From: 2010.03.12/outbox.cif.g09.slc.cpg/sg67_21_cif.got.tgz:41903.got - 2010.04.10 22:41:39.
