data_PCOD8280536
_publ_section_title
;
Structure prediction by ZEFSAII (Michael W. Deem and Ramdas Pophale) SiO2 
 PCOD8280536
Probable space group: C M M A
;
_chemical_formula_sum "Si O2"
_cell_formula_units_Z 72
_cell_length_a 8.719383
_cell_length_b 14.438055
_cell_length_c 29.224147
_cell_angle_alpha 90.000000
_cell_angle_beta 90.000000
_cell_angle_gamma 90.000000
_cell_volume 3679.055083
_symmetry_space_group_name_H-M "C M M A"
_symmetry_group_IT_number 67
_symmetry_cell_setting 'orthorhombic'
loop_
_space_group_symop_operation_xyz
x,y,z
-x,1/2-y,z
x,-y,-z
-x,1/2+y,-z
-x,-y,-z
x,1/2+y,-z
-x,y,z
x,1/2-y,z
1/2+x,1/2+y,z
1/2-x,-y,z
1/2+x,1/2-y,-z
1/2-x,y,-z
1/2-x,1/2-y,-z
1/2+x,y,-z
1/2-x,1/2+y,z
1/2+x,-y,z
loop_
_atom_site_type_symbol
_atom_site_label
_atom_site_fract_x
_atom_site_fract_y
_atom_site_fract_z
Si Si1 0.677778 0.399311 0.956298
Si Si2 0.679426 0.399261 0.856024
Si Si3 0.683179 0.750000 0.449704
Si Si4 0.680456 0.750000 0.689837
Si Si5 0.682724 0.397592 0.383256
Si Si6 0.318425 0.750000 0.791997
O O1 0.500000 0.407859 0.965900
O O2 0.750000 0.500000 0.954623
O O3 0.708251 0.353220 0.906503
O O4 0.750000 0.343917 0.000000
O O5 0.500000 0.404398 0.845608
O O6 0.750000 0.500000 0.853780
O O7 0.760355 0.340616 0.817299
O O8 0.500000 0.750000 0.449946
O O9 0.750000 0.750000 0.500000
O O10 0.744641 0.656800 0.425813
O O11 0.500000 0.750000 0.694240
O O12 0.731819 0.657534 0.662748
O O13 0.751768 0.750000 0.740681
O O14 0.500000 0.400799 0.389316
O O15 0.750000 0.500000 0.380411
O O16 0.500000 0.750000 0.791512
#
# Coordination Sequence:
#
# PCOD8280536 Si02
#       6
#    16  16   8   8  16   8
#     4   9  16  27  47  72 100 132 170 212 261 318
#     4  10  21  37  55  79 109 142 178 222 272 330
#     4  11  22  38  59  88 124 163 202 241 285 332
#     4   8  19  38  58  81 112 145 185 236 288 337
#     4  10  20  38  61  87 118 153 193 240 287 336
#     4  11  22  38  59  83 110 144 183 229 282 337
#
# _framework density 19.570242
#
# number of rings (size 3 to 8) (size 9 to 14) (size 15 to 20)
#    0.000    2.222    0.000    4.667    0.000    4.000 
#    0.000   11.667    0.000    0.000    0.000    0.000 
#    0.000    0.000    0.000    0.000    0.000    0.000 
#
# Total GULP energy -446153.482540 kJ/mol
# GULP energy per Si atom -12393.152293 kJ/mol
# Density = 1.952570 g / cm^3
# Si number density = 19.570242 Si / 1000 Ang^3
#
#
#
# Elastic Constant Matrix: (Units=GPa)
#
#
# Indices 1 2 3 4 5 6 
#
# 1 124.6196 50.9225 74.3464 0.0000 0.0000 0.0000
# 2 50.9225 133.1973 77.1901 0.0000 0.0000 0.0000
# 3 74.3464 77.1901 201.2856 0.0000 0.0000 0.0000
# 4 0.0000 0.0000 0.0000 21.9813 0.0000 0.0000
# 5 0.0000 0.0000 0.0000 0.0000 27.3581 0.0000
# 6 0.0000 0.0000 0.0000 0.0000 0.0000 31.2238
#
#
#
# Elastic Compliance Matrix: (Units=1/GPa)
#
#
# Indices 1 2 3 4 5 6 
#
# 1 0.010833 -0.002344 -0.003103 0.000000 0.000000 0.000000
# 2 -0.002344 0.010160 -0.003031 0.000000 0.000000 0.000000
# 3 -0.003103 -0.003031 0.007276 0.000000 0.000000 0.000000
# 4 0.000000 0.000000 0.000000 0.045493 0.000000 0.000000
# 5 0.000000 0.000000 0.000000 0.000000 0.036552 0.000000
# 6 0.000000 0.000000 0.000000 0.000000 0.000000 0.032027
#
#
# Mechanical properties :
#
#
# Convention : Reuss Voigt Hill
#
# Bulk Modulus (GPa) = 88.37243 96.00229 92.18736
# Shear Modulus (GPa) = 30.66231 33.22220 31.94226
#
# Velocity S-wave (km/s) = 3.96255 4.12465 4.04441
# Velocity P-wave (km/s) = 8.13575 8.47616 8.30770
#
# Compressibility (1/GPa) = 0.01131575
#
# Stress axis : x y z
#
# Youngs Moduli (GPa) = 92.31072 98.42630 137.43488
#
# Poissons Ratio (x) = 0.23067 0.42639
# Poissons Ratio (y) = 0.21634 0.41650
# Poissons Ratio (z) = 0.28640 0.29829
#
# Static dielectric constant tensor:
#      x y z
#    x 3.617260 0.000000 0.000000 
#    y 0.000000 3.426450 0.000000 
#    z 0.000000 0.000000 4.298410 
# 
# 
# High freq. dielectric constant tensor:
#      x y z
#    x 1.768960 0.000000 0.000000 
#    y 0.000000 1.751900 0.000000 
#    z 0.000000 0.000000 1.774570 
# 
# From -- ./inp_files/43162.got.cif
#   From: 2010.03.12/outbox.cif.g09.slc.cpg/sg67_22_cif.got.tgz:43162.got - 2010.04.10 22:41:39.
