data_PCOD8280629
_publ_section_title
;
Structure prediction by ZEFSAII (Michael W. Deem and Ramdas Pophale) SiO2 
 PCOD8280629
Probable space group: C M M A
;
_chemical_formula_sum "Si O2"
_cell_formula_units_Z 96
_cell_length_a 27.328733
_cell_length_b 18.374969
_cell_length_c 11.482166
_cell_angle_alpha 90.000000
_cell_angle_beta 90.000000
_cell_angle_gamma 90.000000
_cell_volume 5765.937546
_symmetry_space_group_name_H-M "C M M A"
_symmetry_group_IT_number 67
_symmetry_cell_setting 'orthorhombic'
loop_
_space_group_symop_operation_xyz
x,y,z
-x,1/2-y,z
x,-y,-z
-x,1/2+y,-z
-x,-y,-z
x,1/2+y,-z
-x,y,z
x,1/2-y,z
1/2+x,1/2+y,z
1/2-x,-y,z
1/2+x,1/2-y,-z
1/2-x,y,-z
1/2-x,1/2-y,-z
1/2+x,y,-z
1/2-x,1/2+y,z
1/2+x,-y,z
loop_
_atom_site_type_symbol
_atom_site_label
_atom_site_fract_x
_atom_site_fract_y
_atom_site_fract_z
Si Si1 0.244382 0.166637 0.636863
Si Si2 0.947357 0.668546 0.978887
Si Si3 0.945786 0.832264 0.255565
Si Si4 0.703141 0.549195 0.221351
Si Si5 0.152054 0.592847 0.253193
Si Si6 0.857168 0.581587 0.989006
O O1 0.252661 0.250000 0.676867
O O2 0.250000 0.158906 0.500000
O O3 0.286128 0.114595 0.690369
O O4 0.190710 0.141003 0.675898
O O5 0.942002 0.750000 0.931673
O O6 0.902115 0.623676 0.928524
O O7 0.000000 0.636568 0.937047
O O8 0.945625 0.666936 0.117370
O O9 0.935262 0.750000 0.299791
O O10 0.902423 0.886143 0.299184
O O11 0.000000 0.857488 0.300301
O O12 0.750000 0.500000 0.195746
O O13 0.661438 0.494028 0.271889
O O14 0.688409 0.585699 0.098808
O O15 0.158363 0.612484 0.115531
O O16 0.876600 0.500000 0.000000
#
# Coordination Sequence:
#
# PCOD8280629 Si02
#       6
#    16  16  16  16  16  16
#     4  10  21  35  49  66  87 113 151 194 231 269
#     4   8  14  24  38  59  89 122 153 183 213 251
#     4   8  13  23  41  66  95 122 148 182 223 263
#     4   9  19  32  46  64  90 122 151 183 221 265
#     4   9  17  29  47  69  95 121 147 181 224 269
#     4   9  17  28  43  66  93 122 150 179 217 264
#
# _framework density 16.649504
#
# number of rings (size 3 to 8) (size 9 to 14) (size 15 to 20)
#    0.000    3.167    0.000    1.500    0.000   12.333 
#    0.000    3.333    0.000    0.000    0.000    3.500 
#    0.000    5.333    0.000    0.000    0.000    0.000 
#
# Total GULP energy -594722.398094 kJ/mol
# GULP energy per Si atom -12390.049960 kJ/mol
# Density = 1.661161 g / cm^3
# Si number density = 16.649504 Si / 1000 Ang^3
#
#
#
# Elastic Constant Matrix: (Units=GPa)
#
#
# Indices 1 2 3 4 5 6 
#
# 1 118.4422 66.8587 36.6596 0.0000 0.0000 0.0000
# 2 66.8587 90.5230 38.2114 0.0000 0.0000 0.0000
# 3 36.6596 38.2114 50.0230 0.0000 0.0000 0.0000
# 4 0.0000 0.0000 0.0000 18.3151 0.0000 0.0000
# 5 0.0000 0.0000 0.0000 0.0000 1.9124 0.0000
# 6 0.0000 0.0000 0.0000 0.0000 0.0000 34.6643
#
#
#
# Elastic Compliance Matrix: (Units=1/GPa)
#
#
# Indices 1 2 3 4 5 6 
#
# 1 0.014934 -0.009461 -0.003718 0.000000 0.000000 0.000000
# 2 -0.009461 0.022297 -0.010099 0.000000 0.000000 0.000000
# 3 -0.003718 -0.010099 0.030430 0.000000 0.000000 0.000000
# 4 0.000000 0.000000 0.000000 0.054600 0.000000 0.000000
# 5 0.000000 0.000000 0.000000 0.000000 0.522891 0.000000
# 6 0.000000 0.000000 0.000000 0.000000 0.000000 0.028848
#
#
# Mechanical properties :
#
#
# Convention : Reuss Voigt Hill
#
# Bulk Modulus (GPa) = 47.37936 60.27196 53.82566
# Shear Modulus (GPa) = 6.87199 18.79560 12.83380
#
# Velocity S-wave (km/s) = 2.03382 3.36355 2.77938
# Velocity P-wave (km/s) = 5.83386 7.16685 6.53443
#
# Compressibility (1/GPa) = 0.02110624
#
# Stress axis : x y z
#
# Youngs Moduli (GPa) = 66.96115 44.84812 32.86244
#
# Poissons Ratio (x) = 0.42430 0.12217
# Poissons Ratio (y) = 0.63350 0.33188
# Poissons Ratio (z) = 0.24894 0.45293
#
# Static dielectric constant tensor:
#      x y z
#    x 3.570170 0.000000 0.000000 
#    y 0.000000 3.328000 0.000000 
#    z 0.000000 0.000000 2.730100 
# 
# 
# High freq. dielectric constant tensor:
#      x y z
#    x 1.647950 0.000000 0.000000 
#    y 0.000000 1.639880 0.000000 
#    z 0.000000 0.000000 1.587810 
# 
# From -- ./inp_files/21181.got.cif
#   From: 2010.03.12/outbox.cif.g09.slc.cpg/sg67_11_cif.got.tgz:21181.got - 2010.04.10 22:41:39.
