data_PCOD8280534
_publ_section_title
;
Structure prediction by ZEFSAII (Michael W. Deem and Ramdas Pophale) SiO2 
 PCOD8280534
Probable space group: C M M A
;
_chemical_formula_sum "Si O2"
_cell_formula_units_Z 96
_cell_length_a 23.570417
_cell_length_b 8.664144
_cell_length_c 25.046073
_cell_angle_alpha 90.000000
_cell_angle_beta 90.000000
_cell_angle_gamma 90.000000
_cell_volume 5114.846088
_symmetry_space_group_name_H-M "C M M A"
_symmetry_group_IT_number 67
_symmetry_cell_setting 'orthorhombic'
loop_
_space_group_symop_operation_xyz
x,y,z
-x,1/2-y,z
x,-y,-z
-x,1/2+y,-z
-x,-y,-z
x,1/2+y,-z
-x,y,z
x,1/2-y,z
1/2+x,1/2+y,z
1/2-x,-y,z
1/2+x,1/2-y,-z
1/2-x,y,-z
1/2-x,1/2-y,-z
1/2+x,y,-z
1/2-x,1/2+y,z
1/2+x,-y,z
loop_
_atom_site_type_symbol
_atom_site_label
_atom_site_fract_x
_atom_site_fract_y
_atom_site_fract_z
Si Si1 0.500000 0.432226 0.308213
Si Si2 0.618231 0.428397 0.352531
Si Si3 0.500000 0.572034 0.192716
Si Si4 0.190148 0.068332 0.942904
Si Si5 0.188509 0.428823 0.754139
Si Si6 0.690192 0.431392 0.557014
Si Si7 0.379251 0.070253 0.850525
O O1 0.500000 0.250000 0.309409
O O2 0.555917 0.494322 0.338211
O O3 0.500000 0.475897 0.246577
O O4 0.615902 0.250000 0.369870
O O5 0.658352 0.451315 0.302065
O O6 0.641108 0.528622 0.401346
O O7 0.500000 0.750000 0.209767
O O8 0.554648 0.530780 0.157267
O O9 0.196523 0.250000 0.948140
O O10 0.250000 0.000000 0.922625
O O11 0.141389 0.026532 0.901177
O O12 0.172959 0.000000 0.000000
O O13 0.191718 0.250000 0.771037
O O14 0.250000 0.500000 0.748713
O O15 0.154318 0.522695 0.797979
O O16 0.672798 0.500000 0.500000
O O17 0.697076 0.250000 0.551610
O O18 0.750000 0.500000 0.577124
O O19 0.369019 0.250000 0.861655
#
# Coordination Sequence:
#
# PCOD8280534 Si02
#       7
#     8  16   8  16  16  16  16
#     4  10  20  38  61  84 115 154 193 237 285 341
#     4  10  21  37  58  85 116 150 192 236 286 341
#     4  10  22  38  59  84 115 154 195 239 285 339
#     4  11  22  39  62  88 117 152 191 236 289 345
#     4  11  22  35  54  82 116 150 187 234 288 343
#     4  11  22  38  61  86 116 151 191 237 289 346
#     4  11  22  38  58  84 116 151 193 238 285 339
#
# _framework density 18.768892999999998
#
# number of rings (size 3 to 8) (size 9 to 14) (size 15 to 20)
#    0.000    1.333    1.667    6.000    0.000    4.000 
#    0.000    0.833    0.000    0.000    0.000    0.000 
#    0.000    0.000    0.000    0.000    0.000    0.000 
#
# Total GULP energy -595445.548669 kJ/mol
# GULP energy per Si atom -12405.115597 kJ/mol
# Density = 1.872617 g / cm^3
# Si number density = 18.768893 Si / 1000 Ang^3
#
#
#
# Elastic Constant Matrix: (Units=GPa)
#
#
# Indices 1 2 3 4 5 6 
#
# 1 134.6069 46.0325 49.6513 0.0000 0.0000 0.0000
# 2 46.0325 111.6500 44.1094 0.0000 0.0000 0.0000
# 3 49.6513 44.1094 92.3291 0.0000 0.0000 0.0000
# 4 0.0000 0.0000 0.0000 33.8328 0.0000 0.0000
# 5 0.0000 0.0000 0.0000 0.0000 -22.9770 0.0000
# 6 0.0000 0.0000 0.0000 0.0000 0.0000 30.2190
#
#
#
# Elastic Compliance Matrix: (Units=1/GPa)
#
#
# Indices 1 2 3 4 5 6 
#
# 1 0.009765 -0.002405 -0.004102 0.000000 0.000000 0.000000
# 2 -0.002405 0.011633 -0.004264 0.000000 0.000000 0.000000
# 3 -0.004102 -0.004264 0.015074 0.000000 0.000000 0.000000
# 4 0.000000 0.000000 0.000000 0.029557 0.000000 0.000000
# 5 0.000000 0.000000 0.000000 0.000000 -0.043522 0.000000
# 6 0.000000 0.000000 0.000000 0.000000 0.000000 0.033092
#
#
# Mechanical properties :
#
#
# Convention : Reuss Voigt Hill
#
# Bulk Modulus (GPa) = 66.98493 68.68582 67.83538
# Shear Modulus (GPa) = 60.88870 21.46783 41.17827
#
# Velocity S-wave (km/s) = 5.70190 3.38568 4.68906
# Velocity P-wave (km/s) = 8.89470 7.20824 8.09551
#
# Compressibility (1/GPa) = 0.01492873
#
# Stress axis : x y z
#
# Youngs Moduli (GPa) = 102.40998 85.96363 66.34037
#
# Poissons Ratio (x) = 0.20677 0.27213
# Poissons Ratio (y) = 0.24633 0.28287
# Poissons Ratio (z) = 0.42008 0.36655
#
# Static dielectric constant tensor:
#      x y z
#    x 3.676930 0.000000 0.000000 
#    y 0.000000 3.534550 0.000000 
#    z 0.000000 0.000000 3.409380 
# 
# 
# High freq. dielectric constant tensor:
#      x y z
#    x 1.733760 0.000000 0.000000 
#    y 0.000000 1.739220 0.000000 
#    z 0.000000 0.000000 1.729420 
# 
# From -- ./inp_files/42587.got.cif
#   From: 2010.03.12/outbox.cif.g09.slc.cpg/sg67_22_cif.got.tgz:42587.got - 2010.04.10 22:41:39.
