data_PCOD8280799
_publ_section_title
;
Structure prediction by ZEFSAII (Michael W. Deem and Ramdas Pophale) SiO2 
 PCOD8280799
Probable space group: C M M A
;
_chemical_formula_sum "Si O2"
_cell_formula_units_Z 72
_cell_length_a 32.204307
_cell_length_b 8.639896
_cell_length_c 13.508923
_cell_angle_alpha 90.000000
_cell_angle_beta 90.000000
_cell_angle_gamma 90.000000
_cell_volume 3758.747906
_symmetry_space_group_name_H-M "C M M A"
_symmetry_group_IT_number 67
_symmetry_cell_setting 'orthorhombic'
loop_
_space_group_symop_operation_xyz
x,y,z
-x,1/2-y,z
x,-y,-z
-x,1/2+y,-z
-x,-y,-z
x,1/2+y,-z
-x,y,z
x,1/2-y,z
1/2+x,1/2+y,z
1/2-x,-y,z
1/2+x,1/2-y,-z
1/2-x,y,-z
1/2-x,1/2-y,-z
1/2+x,y,-z
1/2-x,1/2+y,z
1/2+x,-y,z
loop_
_atom_site_type_symbol
_atom_site_label
_atom_site_fract_x
_atom_site_fract_y
_atom_site_fract_z
Si Si1 0.663506 0.566129 0.895925
Si Si2 0.793358 0.933830 0.710405
Si Si3 0.500000 0.932614 0.890662
Si Si4 0.917408 0.066467 0.196895
Si Si5 0.124763 0.569397 0.603509
O O1 0.660966 0.750000 0.897736
O O2 0.696947 0.510787 0.815732
O O3 0.618163 0.496262 0.875084
O O4 0.679302 0.500000 0.000000
O O5 0.792027 0.750000 0.723390
O O6 0.828726 0.984893 0.632267
O O7 0.750000 0.000000 0.669812
O O8 0.500000 0.750000 0.898912
O O9 0.539599 0.988364 0.830077
O O10 0.500000 0.000000 0.000000
O O11 0.920193 0.250000 0.183441
O O12 0.906902 0.019058 0.309949
O O13 0.110018 0.500000 0.500000
O O14 0.124037 0.750000 0.590543
#
# Coordination Sequence:
#
# PCOD8280799 Si02
#       5
#    16  16   8  16  16
#     4  11  21  35  55  79 108 146 185 226 273 330
#     4  10  21  37  54  79 110 143 183 231 278 326
#     4  12  24  38  59  88 117 150 185 224 270 322
#     4  10  21  39  58  82 114 147 183 228 273 322
#     4   9  20  37  59  82 109 143 182 226 276 327
#
# _framework density 19.155315999999999
#
# number of rings (size 3 to 8) (size 9 to 14) (size 15 to 20)
#    0.000    1.778    0.000    6.333    0.000    6.222 
#    0.000    5.000    0.000    0.000    0.000    0.000 
#    0.000    0.000    0.000    0.000    0.000    0.000 
#
# Total GULP energy -446496.243898 kJ/mol
# GULP energy per Si atom -12402.673442 kJ/mol
# Density = 1.911172 g / cm^3
# Si number density = 19.155316 Si / 1000 Ang^3
#
#
#
# Elastic Constant Matrix: (Units=GPa)
#
#
# Indices 1 2 3 4 5 6 
#
# 1 114.7166 42.8937 38.0869 0.0000 0.0000 0.0000
# 2 42.8937 116.1911 44.9866 0.0000 0.0000 0.0000
# 3 38.0869 44.9866 127.9438 0.0000 0.0000 0.0000
# 4 0.0000 0.0000 0.0000 34.4593 0.0000 0.0000
# 5 0.0000 0.0000 0.0000 0.0000 25.3907 0.0000
# 6 0.0000 0.0000 0.0000 0.0000 0.0000 36.4406
#
#
#
# Elastic Compliance Matrix: (Units=1/GPa)
#
#
# Indices 1 2 3 4 5 6 
#
# 1 0.010559 -0.003103 -0.002052 0.000000 0.000000 0.000000
# 2 -0.003103 0.010875 -0.002900 0.000000 0.000000 0.000000
# 3 -0.002052 -0.002900 0.009446 0.000000 0.000000 0.000000
# 4 0.000000 0.000000 0.000000 0.029020 0.000000 0.000000
# 5 0.000000 0.000000 0.000000 0.000000 0.039385 0.000000
# 6 0.000000 0.000000 0.000000 0.000000 0.000000 0.027442
#
#
# Mechanical properties :
#
#
# Convention : Reuss Voigt Hill
#
# Bulk Modulus (GPa) = 67.70713 67.86508 67.78611
# Shear Modulus (GPa) = 33.83858 34.78374 34.31116
#
# Velocity S-wave (km/s) = 4.20758 4.26594 4.23686
# Velocity P-wave (km/s) = 7.68297 7.73111 7.70708
#
# Compressibility (1/GPa) = 0.01476949
#
# Stress axis : x y z
#
# Youngs Moduli (GPa) = 94.70753 91.95415 105.86016
#
# Poissons Ratio (x) = 0.28538 0.21722
# Poissons Ratio (y) = 0.29392 0.30699
# Poissons Ratio (z) = 0.19434 0.26666
#
# Static dielectric constant tensor:
#      x y z
#    x 3.552800 0.000000 0.000000 
#    y 0.000000 3.566680 0.000000 
#    z 0.000000 0.000000 5.036880 
# 
# 
# High freq. dielectric constant tensor:
#      x y z
#    x 1.740320 0.000000 0.000000 
#    y 0.000000 1.758270 0.000000 
#    z 0.000000 0.000000 1.746870 
# 
# From -- ./inp_files/25290.got.cif
#   From: 2010.03.12/outbox.cif.g09.slc.cpg/sg67_13_cif.got.tgz:25290.got - 2010.04.10 22:41:39.
