data_PCOD8280203
_publ_section_title
;
Structure prediction by ZEFSAII (Michael W. Deem and Ramdas Pophale) SiO2 
 PCOD8280203
Probable space group: C M M A
;
_chemical_formula_sum "Si O2"
_cell_formula_units_Z 72
_cell_length_a 8.933003
_cell_length_b 14.725358
_cell_length_c 28.933171
_cell_angle_alpha 90.000000
_cell_angle_beta 90.000000
_cell_angle_gamma 90.000000
_cell_volume 3805.917550
_symmetry_space_group_name_H-M "C M M A"
_symmetry_group_IT_number 67
_symmetry_cell_setting 'orthorhombic'
loop_
_space_group_symop_operation_xyz
x,y,z
-x,1/2-y,z
x,-y,-z
-x,1/2+y,-z
-x,-y,-z
x,1/2+y,-z
-x,y,z
x,1/2-y,z
1/2+x,1/2+y,z
1/2-x,-y,z
1/2+x,1/2-y,-z
1/2-x,y,-z
1/2-x,1/2-y,-z
1/2+x,y,-z
1/2-x,1/2+y,z
1/2+x,-y,z
loop_
_atom_site_type_symbol
_atom_site_label
_atom_site_fract_x
_atom_site_fract_y
_atom_site_fract_z
Si Si1 0.677530 0.750000 0.794783
Si Si2 0.324003 0.750000 0.549441
Si Si3 0.678199 0.250000 0.308473
Si Si4 0.668730 0.357602 0.954384
Si Si5 0.177612 0.909091 0.139961
Si Si6 0.323279 0.400951 0.378713
O O1 0.500000 0.750000 0.791541
O O2 0.746271 0.750000 0.743224
O O3 0.735187 0.664072 0.823319
O O4 0.500000 0.750000 0.543155
O O5 0.250000 0.750000 0.500000
O O6 0.275474 0.658394 0.576564
O O7 0.500000 0.250000 0.308342
O O8 0.731540 0.157871 0.334316
O O9 0.500000 0.396767 0.951463
O O10 0.664692 0.250000 0.955931
O O11 0.763683 0.389568 0.911019
O O12 0.750000 0.396274 0.000000
O O13 0.000000 0.914526 0.137758
O O14 0.250000 0.000000 0.159351
O O15 0.500000 0.415337 0.377388
O O16 0.250000 0.500000 0.379504
#
# Coordination Sequence:
#
# PCOD8280203 Si02
#       6
#     8   8   8  16  16  16
#     4   9  19  36  58  79 106 141 176 215 266 322
#     4   9  19  34  50  74 108 149 186 223 267 319
#     4   8  16  34  56  77 103 140 177 216 268 325
#     4  10  20  35  57  82 108 139 174 214 260 311
#     4  11  22  37  56  81 109 140 177 215 260 316
#     4   9  18  33  54  78 107 140 181 225 270 318
#
# _framework density 18.917909000000002
#
# number of rings (size 3 to 8) (size 9 to 14) (size 15 to 20)
#    0.000    2.444    1.111    2.667    0.000    3.556 
#    0.000    6.111    0.000    4.000    0.000    0.000 
#    0.000    0.000    0.000    0.000    0.000    0.000 
#
# Total GULP energy -446282.108150 kJ/mol
# GULP energy per Si atom -12396.725226 kJ/mol
# Density = 1.887485 g / cm^3
# Si number density = 18.917909 Si / 1000 Ang^3
#
#
#
# Elastic Constant Matrix: (Units=GPa)
#
#
# Indices 1 2 3 4 5 6 
#
# 1 71.7445 49.4461 44.0210 0.0000 0.0000 0.0000
# 2 49.4461 153.1744 98.0925 0.0000 0.0000 0.0000
# 3 44.0210 98.0925 181.0762 0.0000 0.0000 0.0000
# 4 0.0000 0.0000 0.0000-2846.1520 0.0000 0.0000
# 5 0.0000 0.0000 0.0000 0.0000 7.5065 0.0000
# 6 0.0000 0.0000 0.0000 0.0000 0.0000 33.5580
#
#
#
# Elastic Compliance Matrix: (Units=1/GPa)
#
#
# Indices 1 2 3 4 5 6 
#
# 1 0.018351 -0.004696 -0.001917 0.000000 0.000000 0.000000
# 2 -0.004696 0.011198 -0.004925 0.000000 0.000000 0.000000
# 3 -0.001917 -0.004925 0.008656 0.000000 0.000000 0.000000
# 4 0.000000 0.000000 0.000000 -0.000351 0.000000 0.000000
# 5 0.000000 0.000000 0.000000 0.000000 0.133218 0.000000
# 6 0.000000 0.000000 0.000000 0.000000 0.000000 0.029799
#
#
# Mechanical properties :
#
#
# Convention : Reuss Voigt Hill
#
# Bulk Modulus (GPa) = 66.09491 87.67936 76.88713
# Shear Modulus (GPa) = 21.83492 -546.72181 -262.44344
#
# Velocity S-wave (km/s) = 3.40103 -17.01835 -11.79104
# Velocity P-wave (km/s) = 7.10185 18.43144 12.02667
#
# Compressibility (1/GPa) = 0.01512976
#
# Stress axis : x y z
#
# Youngs Moduli (GPa) = 54.49194 89.30045 115.52123
#
# Poissons Ratio (x) = 0.41936 0.22150
# Poissons Ratio (y) = 0.25590 0.56890
# Poissons Ratio (z) = 0.10448 0.43977
#
# Static dielectric constant tensor:
#      x y z
#    x 3.303490 0.000000 0.000000 
#    y 0.000000 3.789060 0.000000 
#    z 0.000000 0.000000 1.972390 
# 
# 
# High freq. dielectric constant tensor:
#      x y z
#    x 1.716210 0.000000 0.000000 
#    y 0.000000 1.744050 0.000000 
#    z 0.000000 0.000000 1.737270 
# 
# From -- ./inp_files/45163.got.cif
#   From: 2010.03.12/outbox.cif.g09.slc.cpg/sg67_23_cif.got.tgz:45163.got - 2010.04.10 22:41:39.
