data_PCOD8280323
_publ_section_title
;
Structure prediction by ZEFSAII (Michael W. Deem and Ramdas Pophale) SiO2 
 PCOD8280323
Probable space group: C M M A
;
_chemical_formula_sum "Si O2"
_cell_formula_units_Z 80
_cell_length_a 9.491087
_cell_length_b 15.761215
_cell_length_c 28.816519
_cell_angle_alpha 90.000000
_cell_angle_beta 90.000000
_cell_angle_gamma 90.000000
_cell_volume 4310.693703
_symmetry_space_group_name_H-M "C M M A"
_symmetry_group_IT_number 67
_symmetry_cell_setting 'orthorhombic'
loop_
_space_group_symop_operation_xyz
x,y,z
-x,1/2-y,z
x,-y,-z
-x,1/2+y,-z
-x,-y,-z
x,1/2+y,-z
-x,y,z
x,1/2-y,z
1/2+x,1/2+y,z
1/2-x,-y,z
1/2+x,1/2-y,-z
1/2-x,y,-z
1/2-x,1/2-y,-z
1/2+x,y,-z
1/2-x,1/2+y,z
1/2+x,-y,z
loop_
_atom_site_type_symbol
_atom_site_label
_atom_site_fract_x
_atom_site_fract_y
_atom_site_fract_z
Si Si1 0.333009 0.658733 0.804575
Si Si2 0.835605 0.250000 0.953052
Si Si3 0.661997 0.082881 0.289807
Si Si4 0.834874 0.580271 0.102586
Si Si5 0.336849 0.913541 0.606430
Si Si6 0.166898 0.750000 0.452502
O O1 0.500000 0.663591 0.805987
O O2 0.269485 0.750000 0.818264
O O3 0.281774 0.641171 0.752001
O O4 0.285259 0.591511 0.843594
O O5 0.794676 0.334198 0.924565
O O6 0.000000 0.250000 0.964851
O O7 0.750000 0.250000 0.000000
O O8 0.500000 0.059683 0.281692
O O9 0.684995 0.121859 0.341076
O O10 0.750000 0.000000 0.286111
O O11 0.750000 0.500000 0.081917
O O12 0.000000 0.560706 0.098284
O O13 0.500000 0.936338 0.597574
O O14 0.286995 0.835689 0.574341
O O15 0.250000 0.000000 0.596206
O O16 0.250000 0.750000 0.500000
O O17 0.000000 0.750000 0.461077
#
# Coordination Sequence:
#
# PCOD8280323 Si02
#       6
#    16   8  16  16  16   8
#     4   9  16  28  50  78 106 139 176 210 249 303
#     4  10  22  40  59  79 107 139 176 222 269 318
#     4   9  17  29  49  75 103 135 170 207 249 301
#     4  10  20  36  57  81 109 141 177 217 261 311
#     4   9  19  35  54  78 107 137 172 214 259 309
#     4  10  22  38  55  77 103 133 174 220 265 314
#
# _framework density 18.558496999999999
#
# number of rings (size 3 to 8) (size 9 to 14) (size 15 to 20)
#    0.000    2.600    1.000    0.600    1.400    2.400 
#    0.000    4.000    0.000    1.800    0.000    0.000 
#    0.000    0.000    0.000    0.000    0.000    0.000 
#
# Total GULP energy -495640.158867 kJ/mol
# GULP energy per Si atom -12391.003972 kJ/mol
# Density = 1.851626 g / cm^3
# Si number density = 18.558497 Si / 1000 Ang^3
#
#
#
# Elastic Constant Matrix: (Units=GPa)
#
#
# Indices 1 2 3 4 5 6 
#
# 1 40.1568 46.2966 47.7144 0.0000 0.0000 0.0000
# 2 46.2966 119.5723 82.7006 0.0000 0.0000 0.0000
# 3 47.7144 82.7006 127.9603 0.0000 0.0000 0.0000
# 4 0.0000 0.0000 0.0000 24.7882 0.0000 0.0000
# 5 0.0000 0.0000 0.0000 0.0000 11.2893 0.0000
# 6 0.0000 0.0000 0.0000 0.0000 0.0000 -21.4617
#
#
#
# Elastic Compliance Matrix: (Units=1/GPa)
#
#
# Indices 1 2 3 4 5 6 
#
# 1 0.053331 -0.012468 -0.011828 0.000000 0.000000 0.000000
# 2 -0.012468 0.018038 -0.007009 0.000000 0.000000 0.000000
# 3 -0.011828 -0.007009 0.016755 0.000000 0.000000 0.000000
# 4 0.000000 0.000000 0.000000 0.040342 0.000000 0.000000
# 5 0.000000 0.000000 0.000000 0.000000 0.088579 0.000000
# 6 0.000000 0.000000 0.000000 0.000000 0.000000 -0.046595
#
#
# Mechanical properties :
#
#
# Convention : Reuss Voigt Hill
#
# Bulk Modulus (GPa) = 39.19393 71.23473 55.21433
# Shear Modulus (GPa) = 20.69824 10.32170 15.50997
#
# Velocity S-wave (km/s) = 3.34323 2.36089 2.89404
# Velocity P-wave (km/s) = 6.00566 6.77487 6.40183
#
# Compressibility (1/GPa) = 0.02551416
#
# Stress axis : x y z
#
# Youngs Moduli (GPa) = 18.75077 55.43780 59.68265
#
# Poissons Ratio (x) = 0.69121 0.70594
# Poissons Ratio (y) = 0.23379 0.41831
# Poissons Ratio (z) = 0.22179 0.38856
#
# Static dielectric constant tensor:
#      x y z
#    x 3.144030 0.000000 0.000000 
#    y 0.000000 3.363290 0.000000 
#    z 0.000000 0.000000 4.835000 
# 
# 
# High freq. dielectric constant tensor:
#      x y z
#    x 1.690320 0.000000 0.000000 
#    y 0.000000 1.722870 0.000000 
#    z 0.000000 0.000000 1.729410 
# 
# From -- ./inp_files/43376.got.cif
#   From: 2010.03.12/outbox.cif.g09.slc.cpg/sg67_22_cif.got.tgz:43376.got - 2010.04.10 22:41:39.
