data_PCOD8280748
_publ_section_title
;
Structure prediction by ZEFSAII (Michael W. Deem and Ramdas Pophale) SiO2 
 PCOD8280748
Probable space group: C M M A
;
_chemical_formula_sum "Si O2"
_cell_formula_units_Z 64
_cell_length_a 28.748483
_cell_length_b 8.491588
_cell_length_c 13.788885
_cell_angle_alpha 90.000000
_cell_angle_beta 90.000000
_cell_angle_gamma 90.000000
_cell_volume 3366.146374
_symmetry_space_group_name_H-M "C M M A"
_symmetry_group_IT_number 67
_symmetry_cell_setting 'orthorhombic'
loop_
_space_group_symop_operation_xyz
x,y,z
-x,1/2-y,z
x,-y,-z
-x,1/2+y,-z
-x,-y,-z
x,1/2+y,-z
-x,y,z
x,1/2-y,z
1/2+x,1/2+y,z
1/2-x,-y,z
1/2+x,1/2-y,-z
1/2-x,y,-z
1/2-x,1/2-y,-z
1/2+x,y,-z
1/2-x,1/2+y,z
1/2+x,-y,z
loop_
_atom_site_type_symbol
_atom_site_label
_atom_site_fract_x
_atom_site_fract_y
_atom_site_fract_z
Si Si1 0.628345 0.567752 0.731941
Si Si2 0.795745 0.937216 0.606106
Si Si3 0.300653 0.437462 0.105909
Si Si4 0.947069 0.565205 0.603016
O O1 0.618847 0.750000 0.747833
O O2 0.659705 0.531497 0.640010
O O3 0.657156 0.499897 0.824891
O O4 0.579408 0.489154 0.701789
O O5 0.801838 0.750000 0.614898
O O6 0.788589 0.000000 0.500000
O O7 0.750000 0.000000 0.664901
O O8 0.298541 0.250000 0.106726
O O9 0.250000 0.500000 0.139474
O O10 0.313214 0.500000 0.000000
O O11 0.927124 0.500000 0.500000
O O12 0.942979 0.750000 0.596486
O O13 0.000000 0.507078 0.615933
#
# Coordination Sequence:
#
# PCOD8280748 Si02
#       4
#    16  16  16  16
#     4  11  22  35  53  78 105 137 176 217 264 315
#     4  11  21  33  48  69 101 138 173 211 254 306
#     4  10  21  36  56  80 108 141 177 219 265 315
#     4  10  21  37  57  81 109 142 179 221 268 317
#
# _framework density 19.012841000000002
#
# number of rings (size 3 to 8) (size 9 to 14) (size 15 to 20)
#    0.000    1.500    0.000    7.500    0.000    7.500 
#    0.000    0.000    0.000    0.750    0.000    0.000 
#    0.000    0.000    0.000    0.000    0.000    0.000 
#
# Total GULP energy -396432.609187 kJ/mol
# GULP energy per Si atom -12388.519037 kJ/mol
# Density = 1.896957 g / cm^3
# Si number density = 19.012841 Si / 1000 Ang^3
#
#
#
# Elastic Constant Matrix: (Units=GPa)
#
#
# Indices 1 2 3 4 5 6 
#
# 1 109.7830 24.3732 60.8907 0.0000 0.0000 0.0000
# 2 24.3732 50.2345 28.5991 0.0000 0.0000 0.0000
# 3 60.8907 28.5991 108.3501 0.0000 0.0000 0.0000
# 4 0.0000 0.0000 0.0000 26.7183 0.0000 0.0000
# 5 0.0000 0.0000 0.0000 0.0000 34.3305 0.0000
# 6 0.0000 0.0000 0.0000 0.0000 0.0000 28.7990
#
#
#
# Elastic Compliance Matrix: (Units=1/GPa)
#
#
# Indices 1 2 3 4 5 6 
#
# 1 0.013523 -0.002630 -0.006905 0.000000 0.000000 0.000000
# 2 -0.002630 0.023938 -0.004841 0.000000 0.000000 0.000000
# 3 -0.006905 -0.004841 0.014388 0.000000 0.000000 0.000000
# 4 0.000000 0.000000 0.000000 0.037428 0.000000 0.000000
# 5 0.000000 0.000000 0.000000 0.000000 0.029129 0.000000
# 6 0.000000 0.000000 0.000000 0.000000 0.000000 0.034723
#
#
# Mechanical properties :
#
#
# Convention : Reuss Voigt Hill
#
# Bulk Modulus (GPa) = 43.29524 55.12151 49.20837
# Shear Modulus (GPa) = 26.37418 28.26986 27.32202
#
# Velocity S-wave (km/s) = 3.72852 3.86019 3.79493
# Velocity P-wave (km/s) = 6.43093 6.99448 6.71862
#
# Compressibility (1/GPa) = 0.02309723
#
# Stress axis : x y z
#
# Youngs Moduli (GPa) = 73.94925 41.77387 69.50350
#
# Poissons Ratio (x) = 0.10986 0.47995
# Poissons Ratio (y) = 0.19447 0.33644
# Poissons Ratio (z) = 0.51065 0.20221
#
# Static dielectric constant tensor:
#      x y z
#    x 3.831390 0.000000 0.000000 
#    y 0.000000 4.149130 0.000000 
#    z 0.000000 0.000000 3.592340 
# 
# 
# High freq. dielectric constant tensor:
#      x y z
#    x 1.737680 0.000000 0.000000 
#    y 0.000000 1.747800 0.000000 
#    z 0.000000 0.000000 1.723770 
# 
# From -- ./inp_files/25225.got.cif
#   From: 2010.03.12/outbox.cif.g09.slc.cpg/sg67_13_cif.got.tgz:25225.got - 2010.04.10 22:41:39.
