data_PCOD8280326
_publ_section_title
;
Structure prediction by ZEFSAII (Michael W. Deem and Ramdas Pophale) SiO2 
 PCOD8280326
Probable space group: C M M A
;
_chemical_formula_sum "Si O2"
_cell_formula_units_Z 104
_cell_length_a 25.136023
_cell_length_b 22.589299
_cell_length_c 9.759671
_cell_angle_alpha 90.000000
_cell_angle_beta 90.000000
_cell_angle_gamma 90.000000
_cell_volume 5541.591351
_symmetry_space_group_name_H-M "C M M A"
_symmetry_group_IT_number 67
_symmetry_cell_setting 'orthorhombic'
loop_
_space_group_symop_operation_xyz
x,y,z
-x,1/2-y,z
x,-y,-z
-x,1/2+y,-z
-x,-y,-z
x,1/2+y,-z
-x,y,z
x,1/2-y,z
1/2+x,1/2+y,z
1/2-x,-y,z
1/2+x,1/2-y,-z
1/2-x,y,-z
1/2-x,1/2-y,-z
1/2+x,y,-z
1/2-x,1/2+y,z
1/2+x,-y,z
loop_
_atom_site_type_symbol
_atom_site_label
_atom_site_fract_x
_atom_site_fract_y
_atom_site_fract_z
Si Si1 0.938690 0.364954 0.450026
Si Si2 0.938395 0.440669 0.185106
Si Si3 0.560507 0.437408 0.298298
Si Si4 0.112464 0.250000 0.368120
Si Si5 0.790196 0.184325 0.886157
Si Si6 0.263429 0.750000 0.340349
Si Si7 0.437727 0.250000 0.924374
Si Si8 0.897860 0.630787 0.057768
O O1 0.934413 0.390000 0.298002
O O2 0.915625 0.412945 0.558688
O O3 0.901811 0.306982 0.460270
O O4 0.000000 0.348987 0.486264
O O5 0.912914 0.501549 0.244715
O O6 0.000000 0.448818 0.137707
O O7 0.902767 0.420748 0.056218
O O8 0.500000 0.454256 0.327966
O O9 0.565204 0.386246 0.185264
O O10 0.173459 0.250000 0.322362
O O11 0.076051 0.250000 0.234719
O O12 0.810387 0.250000 0.933735
O O13 0.761200 0.191735 0.736800
O O14 0.838115 0.137385 0.883021
O O15 0.750000 0.159459 0.000000
O O16 0.250000 0.750000 0.500000
O O17 0.500000 0.250000 0.938188
O O18 0.415924 0.192417 0.997453
#
# Coordination Sequence:
#
# PCOD8280326 Si02
#       8
#    16  16  16   8  16   8   8  16
#     4  10  21  35  57  85 121 155 187 235 289 351
#     4  10  20  36  57  81 112 159 205 229 266 345
#     4  10  22  37  53  81 119 156 192 233 280 338
#     4  12  22  35  60  87 115 146 194 238 299 356
#     4   9  20  38  55  79 112 146 185 233 293 344
#     4  10  22  37  59  81 112 148 191 238 290 352
#     4  12  21  32  52  86 121 150 182 224 290 360
#     4  12  21  34  58  82 115 149 189 241 287 347
#
# _framework density 18.767171999999999
#
# number of rings (size 3 to 8) (size 9 to 14) (size 15 to 20)
#    0.462    1.077    2.308    3.923    2.154    3.692 
#    0.000    0.769    0.000    1.846    0.000    0.000 
#    0.000    0.000    0.000    0.000    0.000    0.000 
#
# Total GULP energy -644617.045063 kJ/mol
# GULP energy per Si atom -12396.481636 kJ/mol
# Density = 1.872446 g / cm^3
# Si number density = 18.767172 Si / 1000 Ang^3
#
#
#
# Elastic Constant Matrix: (Units=GPa)
#
#
# Indices 1 2 3 4 5 6 
#
# 1 73.9639 37.3545 32.4757 0.0000 0.0000 0.0000
# 2 37.3545 79.4539 19.5661 0.0000 0.0000 0.0000
# 3 32.4757 19.5661 101.6629 0.0000 0.0000 0.0000
# 4 0.0000 0.0000 0.0000 36.9752 0.0000 0.0000
# 5 0.0000 0.0000 0.0000 0.0000 20.4877 0.0000
# 6 0.0000 0.0000 0.0000 0.0000 0.0000 18.7578
#
#
#
# Elastic Compliance Matrix: (Units=1/GPa)
#
#
# Indices 1 2 3 4 5 6 
#
# 1 0.019682 -0.008088 -0.004731 0.000000 0.000000 0.000000
# 2 -0.008088 0.016536 -0.000599 0.000000 0.000000 0.000000
# 3 -0.004731 -0.000599 0.011463 0.000000 0.000000 0.000000
# 4 0.000000 0.000000 0.000000 0.027045 0.000000 0.000000
# 5 0.000000 0.000000 0.000000 0.000000 0.048810 0.000000
# 6 0.000000 0.000000 0.000000 0.000000 0.000000 0.053311
#
#
# Mechanical properties :
#
#
# Convention : Reuss Voigt Hill
#
# Bulk Modulus (GPa) = 47.97216 48.20815 48.09015
# Shear Modulus (GPa) = 23.73816 26.28977 25.01397
#
# Velocity S-wave (km/s) = 3.56037 3.74684 3.65479
# Velocity P-wave (km/s) = 6.52065 6.66796 6.59471
#
# Compressibility (1/GPa) = 0.02084543
#
# Stress axis : x y z
#
# Youngs Moduli (GPa) = 50.80742 60.47393 87.23830
#
# Poissons Ratio (x) = 0.48914 0.41270
# Poissons Ratio (y) = 0.41095 0.05223
# Poissons Ratio (z) = 0.24035 0.03621
#
# Static dielectric constant tensor:
#      x y z
#    x 3.267360 0.000000 0.000000 
#    y 0.000000 3.486510 0.000000 
#    z 0.000000 0.000000 3.485390 
# 
# 
# High freq. dielectric constant tensor:
#      x y z
#    x 1.694410 0.000000 0.000000 
#    y 0.000000 1.719780 0.000000 
#    z 0.000000 0.000000 1.739610 
# 
# From -- ./inp_files/13999.got.cif
#   From: 2010.03.12/outbox.cif.g09.slc.cpg/sg67_7_cif.got.tgz:13999.got - 2010.04.10 22:41:39.
