data_PCOD8280075
_publ_section_title
;
Structure prediction by ZEFSAII (Michael W. Deem and Ramdas Pophale) SiO2 
 PCOD8280075
Probable space group: C M M A
;
_chemical_formula_sum "Si O2"
_cell_formula_units_Z 104
_cell_length_a 8.861648
_cell_length_b 24.723427
_cell_length_c 27.508999
_cell_angle_alpha 90.000000
_cell_angle_beta 90.000000
_cell_angle_gamma 90.000000
_cell_volume 6026.955048
_symmetry_space_group_name_H-M "C M M A"
_symmetry_group_IT_number 67
_symmetry_cell_setting 'orthorhombic'
loop_
_space_group_symop_operation_xyz
x,y,z
-x,1/2-y,z
x,-y,-z
-x,1/2+y,-z
-x,-y,-z
x,1/2+y,-z
-x,y,z
x,1/2-y,z
1/2+x,1/2+y,z
1/2-x,-y,z
1/2+x,1/2-y,-z
1/2-x,y,-z
1/2-x,1/2-y,-z
1/2+x,y,-z
1/2-x,1/2+y,z
1/2+x,-y,z
loop_
_atom_site_type_symbol
_atom_site_label
_atom_site_fract_x
_atom_site_fract_y
_atom_site_fract_z
Si Si1 0.675431 0.188925 0.451127
Si Si2 0.823036 0.645531 0.349676
Si Si3 0.678756 0.057139 0.717971
Si Si4 0.179339 0.250000 0.947284
Si Si5 0.679850 0.250000 0.694094
Si Si6 0.321812 0.665236 0.122154
Si Si7 0.322638 0.443250 0.828564
Si Si8 0.323604 0.750000 0.199550
O O1 0.500000 0.192640 0.460939
O O2 0.736191 0.250000 0.439159
O O3 0.750000 0.165660 0.500000
O O4 0.708512 0.146256 0.407668
O O5 0.747489 0.595797 0.322522
O O6 0.742679 0.698373 0.331577
O O7 0.000000 0.646660 0.338084
O O8 0.500000 0.055574 0.711896
O O9 0.723521 0.073783 0.773439
O O10 0.750000 0.000000 0.705794
O O11 0.233595 0.305787 0.921707
O O12 0.000000 0.250000 0.949872
O O13 0.250000 0.250000 0.000000
O O14 0.500000 0.250000 0.693237
O O15 0.751760 0.250000 0.748034
O O16 0.500000 0.670255 0.111365
O O17 0.273102 0.603018 0.132470
O O18 0.274967 0.696451 0.170962
O O19 0.500000 0.451331 0.830831
O O20 0.250000 0.500000 0.844461
O O21 0.500000 0.750000 0.207459
#
# Coordination Sequence:
#
# PCOD8280075 Si02
#       8
#    16  16  16   8   8  16  16   8
#     4   9  18  33  50  69  95 125 160 203 253 309
#     4  11  21  34  49  71 103 133 162 206 258 307
#     4  10  20  35  53  76 103 139 180 213 248 297
#     4  11  22  36  55  80 106 135 172 215 259 308
#     4  11  20  30  47  73 102 136 171 203 244 303
#     4   9  17  33  53  73 101 138 172 209 254 298
#     4   9  18  32  52  76 106 140 176 213 250 293
#     4   8  15  28  46  67  96 131 169 206 244 293
#
# _framework density 17.255811000000001
#
# number of rings (size 3 to 8) (size 9 to 14) (size 15 to 20)
#    0.000    2.308    0.769    3.231    0.000    4.923 
#    0.000    6.154    0.000    0.923    0.000    6.462 
#    0.000    0.000    0.000    0.000    0.000    0.000 
#
# Total GULP energy -644446.883797 kJ/mol
# GULP energy per Si atom -12393.209304 kJ/mol
# Density = 1.721654 g / cm^3
# Si number density = 17.255811 Si / 1000 Ang^3
#
#
#
# Elastic Constant Matrix: (Units=GPa)
#
#
# Indices 1 2 3 4 5 6 
#
# 1 76.4301 52.8962 54.0927 0.0000 0.0000 0.0000
# 2 52.8962 127.7918 69.4767 0.0000 0.0000 0.0000
# 3 54.0927 69.4767 120.9225 0.0000 0.0000 0.0000
# 4 0.0000 0.0000 0.0000 24.2758 0.0000 0.0000
# 5 0.0000 0.0000 0.0000 0.0000 25.8056 0.0000
# 6 0.0000 0.0000 0.0000 0.0000 0.0000 35.6559
#
#
#
# Elastic Compliance Matrix: (Units=1/GPa)
#
#
# Indices 1 2 3 4 5 6 
#
# 1 0.021360 -0.005303 -0.006508 0.000000 0.000000 0.000000
# 2 -0.005303 0.012697 -0.004923 0.000000 0.000000 0.000000
# 3 -0.006508 -0.004923 0.014009 0.000000 0.000000 0.000000
# 4 0.000000 0.000000 0.000000 0.041193 0.000000 0.000000
# 5 0.000000 0.000000 0.000000 0.000000 0.038751 0.000000
# 6 0.000000 0.000000 0.000000 0.000000 0.000000 0.028046
#
#
# Mechanical properties :
#
#
# Convention : Reuss Voigt Hill
#
# Bulk Modulus (GPa) = 68.50126 75.34174 71.92150
# Shear Modulus (GPa) = 25.72139 27.05938 26.39039
#
# Velocity S-wave (km/s) = 3.86501 3.96426 3.91495
# Velocity P-wave (km/s) = 7.72667 8.04427 7.88707
#
# Compressibility (1/GPa) = 0.01459827
#
# Stress axis : x y z
#
# Youngs Moduli (GPa) = 46.81599 78.76080 71.38077
#
# Poissons Ratio (x) = 0.41769 0.46455
# Poissons Ratio (y) = 0.24828 0.35138
# Poissons Ratio (z) = 0.30468 0.38771
#
# Static dielectric constant tensor:
#      x y z
#    x 3.199010 0.000000 0.000000 
#    y 0.000000 3.115530 0.000000 
#    z 0.000000 0.000000 3.359120 
# 
# 
# High freq. dielectric constant tensor:
#      x y z
#    x 1.664230 0.000000 0.000000 
#    y 0.000000 1.656220 0.000000 
#    z 0.000000 0.000000 1.659280 
# 
# From -- ./inp_files/43763.got.cif
#   From: 2010.03.12/outbox.cif.g09.slc.cpg/sg67_22_cif.got.tgz:43763.got - 2010.04.10 22:41:39.
