data_PCOD8280274
_publ_section_title
;
Structure prediction by ZEFSAII (Michael W. Deem and Ramdas Pophale) SiO2 
 PCOD8280274
Probable space group: C M M A
;
_chemical_formula_sum "Si O2"
_cell_formula_units_Z 104
_cell_length_a 9.021564
_cell_length_b 29.825470
_cell_length_c 19.991538
_cell_angle_alpha 90.000000
_cell_angle_beta 90.000000
_cell_angle_gamma 90.000000
_cell_volume 5379.170838
_symmetry_space_group_name_H-M "C M M A"
_symmetry_group_IT_number 67
_symmetry_cell_setting 'orthorhombic'
loop_
_space_group_symop_operation_xyz
x,y,z
-x,1/2-y,z
x,-y,-z
-x,1/2+y,-z
-x,-y,-z
x,1/2+y,-z
-x,y,z
x,1/2-y,z
1/2+x,1/2+y,z
1/2-x,-y,z
1/2+x,1/2-y,-z
1/2-x,y,-z
1/2-x,1/2-y,-z
1/2+x,y,-z
1/2-x,1/2+y,z
1/2+x,-y,z
loop_
_atom_site_type_symbol
_atom_site_label
_atom_site_fract_x
_atom_site_fract_y
_atom_site_fract_z
Si Si1 0.326956 0.085329 0.431461
Si Si2 0.669097 0.955501 0.707307
Si Si3 0.167597 0.670230 0.629379
Si Si4 0.166529 0.801275 0.778638
Si Si5 0.172238 0.885231 0.186085
Si Si6 0.175385 0.453959 0.930488
Si Si7 0.329296 0.750000 0.568913
O O1 0.500000 0.097985 0.444087
O O2 0.250000 0.067757 0.500000
O O3 0.315007 0.048421 0.373079
O O4 0.229955 0.125846 0.403885
O O5 0.500000 0.961632 0.729012
O O6 0.730974 0.912020 0.747547
O O7 0.750000 0.000000 0.731914
O O8 0.167882 0.672230 0.708809
O O9 0.284068 0.707241 0.609876
O O10 0.000000 0.678553 0.602430
O O11 0.232530 0.750000 0.775501
O O12 0.256743 0.835778 0.825192
O O13 0.000000 0.797559 0.805893
O O14 0.210539 0.914808 0.121702
O O15 0.000000 0.875952 0.194362
O O16 0.250000 0.500000 0.904684
O O17 0.000000 0.461360 0.939711
O O18 0.250000 0.439355 0.000000
O O19 0.500000 0.750000 0.554732
O O20 0.250000 0.750000 0.500000
#
# Coordination Sequence:
#
# PCOD8280274 Si02
#       7
#    16  16  16  16  16  16   8
#     4  11  23  39  56  76 104 141 186 235 289 348
#     4  10  22  38  57  81 110 143 188 235 284 343
#     4  11  21  37  56  77 105 137 180 232 288 350
#     4  10  21  37  58  85 114 146 187 235 285 341
#     4  10  21  38  59  87 119 153 192 235 281 336
#     4  10  20  35  59  91 129 163 197 234 275 333
#     4  12  24  36  52  74 102 138 177 228 291 352
#
# _framework density 19.333835000000001
#
# number of rings (size 3 to 8) (size 9 to 14) (size 15 to 20)
#    0.000    1.538    2.308    3.462    0.000    4.308 
#    0.000    1.538    0.000    0.462    0.000    0.000 
#    0.000    0.000    0.000    0.000    0.000    0.000 
#
# Total GULP energy -644433.835900 kJ/mol
# GULP energy per Si atom -12392.958383 kJ/mol
# Density = 1.928983 g / cm^3
# Si number density = 19.333835 Si / 1000 Ang^3
#
#
#
# Elastic Constant Matrix: (Units=GPa)
#
#
# Indices 1 2 3 4 5 6 
#
# 1 112.1075 52.3783 37.7662 0.0000 0.0000 0.0000
# 2 52.3783 120.8172 38.7336 0.0000 0.0000 0.0000
# 3 37.7662 38.7336 81.7086 0.0000 0.0000 0.0000
# 4 0.0000 0.0000 0.0000 29.9729 0.0000 0.0000
# 5 0.0000 0.0000 0.0000 0.0000 27.4382 0.0000
# 6 0.0000 0.0000 0.0000 0.0000 0.0000 35.1193
#
#
#
# Elastic Compliance Matrix: (Units=1/GPa)
#
#
# Indices 1 2 3 4 5 6 
#
# 1 0.012041 -0.004052 -0.003645 0.000000 0.000000 0.000000
# 2 -0.004052 0.011124 -0.003400 0.000000 0.000000 0.000000
# 3 -0.003645 -0.003400 0.015535 0.000000 0.000000 0.000000
# 4 0.000000 0.000000 0.000000 0.033363 0.000000 0.000000
# 5 0.000000 0.000000 0.000000 0.000000 0.036446 0.000000
# 6 0.000000 0.000000 0.000000 0.000000 0.000000 0.028474
#
#
# Mechanical properties :
#
#
# Convention : Reuss Voigt Hill
#
# Bulk Modulus (GPa) = 60.58349 63.59884 62.09116
# Shear Modulus (GPa) = 30.36219 30.88975 30.62597
#
# Velocity S-wave (km/s) = 3.96715 4.00147 3.98434
# Velocity P-wave (km/s) = 7.23795 7.36990 7.30422
#
# Compressibility (1/GPa) = 0.01650615
#
# Stress axis : x y z
#
# Youngs Moduli (GPa) = 83.05110 89.89855 64.37007
#
# Poissons Ratio (x) = 0.36423 0.23461
# Poissons Ratio (y) = 0.33649 0.21889
# Poissons Ratio (z) = 0.30269 0.30570
#
# Static dielectric constant tensor:
#      x y z
#    x 3.584960 0.000000 0.000000 
#    y 0.000000 1.793200 0.000000 
#    z 0.000000 0.000000 3.442890 
# 
# 
# High freq. dielectric constant tensor:
#      x y z
#    x 1.758070 0.000000 0.000000 
#    y 0.000000 1.751040 0.000000 
#    z 0.000000 0.000000 1.735580 
# 
# From -- ./inp_files/37335.got.cif
#   From: 2010.03.12/outbox.cif.g09.slc.cpg/sg67_19_cif.got.tgz:37335.got - 2010.04.10 22:41:39.
