data_PCOD8280552
_publ_section_title
;
Structure prediction by ZEFSAII (Michael W. Deem and Ramdas Pophale) SiO2 
 PCOD8280552
Probable space group: C M M A
;
_chemical_formula_sum "Si O2"
_cell_formula_units_Z 112
_cell_length_a 15.452098
_cell_length_b 30.030757
_cell_length_c 11.176700
_cell_angle_alpha 90.000000
_cell_angle_beta 90.000000
_cell_angle_gamma 90.000000
_cell_volume 5186.415752
_symmetry_space_group_name_H-M "C M M A"
_symmetry_group_IT_number 67
_symmetry_cell_setting 'orthorhombic'
loop_
_space_group_symop_operation_xyz
x,y,z
-x,1/2-y,z
x,-y,-z
-x,1/2+y,-z
-x,-y,-z
x,1/2+y,-z
-x,y,z
x,1/2-y,z
1/2+x,1/2+y,z
1/2-x,-y,z
1/2+x,1/2-y,-z
1/2-x,y,-z
1/2-x,1/2-y,-z
1/2+x,y,-z
1/2-x,1/2+y,z
1/2+x,-y,z
loop_
_atom_site_type_symbol
_atom_site_label
_atom_site_fract_x
_atom_site_fract_y
_atom_site_fract_z
Si Si1 0.398419 0.542420 0.424384
Si Si2 0.747031 0.697911 0.132965
Si Si3 0.403236 0.801347 0.306200
Si Si4 0.401604 0.146581 0.223178
Si Si5 0.847440 0.635841 0.491528
Si Si6 0.843167 0.931509 0.049090
Si Si7 0.402474 0.983177 0.162190
O O1 0.367141 0.500000 0.500000
O O2 0.500000 0.550994 0.442485
O O3 0.346386 0.585740 0.461552
O O4 0.371855 0.535304 0.288027
O O5 0.734815 0.750000 0.122453
O O6 0.665233 0.679152 0.208954
O O7 0.837313 0.687377 0.197521
O O8 0.750000 0.676503 0.000000
O O9 0.500000 0.804793 0.251136
O O10 0.381184 0.750000 0.338830
O O11 0.402720 0.830672 0.426545
O O12 0.500000 0.162639 0.204891
O O13 0.387157 0.132676 0.359653
O O14 0.382980 0.106469 0.132164
O O15 0.750000 0.654264 0.500000
O O16 0.837739 0.976903 0.126665
O O17 0.750000 0.916884 0.000000
O O18 0.901794 0.942602 0.933165
O O19 0.500000 0.002496 0.170011
#
# Coordination Sequence:
#
# PCOD8280552 Si02
#       7
#    16  16  16  16  16  16  16
#     4  10  22  40  61  89 128 171 218 272 331 398
#     4  10  23  44  68  99 135 169 213 265 322 392
#     4  10  22  44  73 101 132 172 216 268 334 403
#     4  12  25  42  65  94 131 174 218 270 330 391
#     4  12  25  42  66  97 135 173 223 280 334 403
#     4  11  23  39  60  87 126 163 214 270 325 385
#     4  10  20  38  63  87 117 163 213 267 327 392
#
# _framework density 21.594874999999998
#
# number of rings (size 3 to 8) (size 9 to 14) (size 15 to 20)
#    0.000    1.286    1.429    5.143    2.000    4.286 
#    2.571    1.429    0.000    0.000    0.000    0.000 
#    0.000    0.000    0.000    0.000    0.000    0.000 
#
# Total GULP energy -694436.584380 kJ/mol
# GULP energy per Si atom -12400.653292 kJ/mol
# Density = 2.154572 g / cm^3
# Si number density = 21.594875 Si / 1000 Ang^3
#
#
#
# Elastic Constant Matrix: (Units=GPa)
#
#
# Indices 1 2 3 4 5 6 
#
# 1 129.6821 19.6454 38.7307 0.0000 0.0000 0.0000
# 2 19.6454 56.5495 37.2453 0.0000 0.0000 0.0000
# 3 38.7307 37.2453 157.1447 0.0000 0.0000 0.0000
# 4 0.0000 0.0000 0.0000 27.2410 0.0000 0.0000
# 5 0.0000 0.0000 0.0000 0.0000 33.5607 0.0000
# 6 0.0000 0.0000 0.0000 0.0000 0.0000 30.8334
#
#
#
# Elastic Compliance Matrix: (Units=1/GPa)
#
#
# Indices 1 2 3 4 5 6 
#
# 1 0.008486 -0.001861 -0.001650 0.000000 0.000000 0.000000
# 2 -0.001861 0.021363 -0.004605 0.000000 0.000000 0.000000
# 3 -0.001650 -0.004605 0.007862 0.000000 0.000000 0.000000
# 4 0.000000 0.000000 0.000000 0.036709 0.000000 0.000000
# 5 0.000000 0.000000 0.000000 0.000000 0.029797 0.000000
# 6 0.000000 0.000000 0.000000 0.000000 0.000000 0.032432
#
#
# Mechanical properties :
#
#
# Convention : Reuss Voigt Hill
#
# Bulk Modulus (GPa) = 46.55826 59.40212 52.98019
# Shear Modulus (GPa) = 31.24206 34.84400 33.04303
#
# Velocity S-wave (km/s) = 3.80772 4.02124 3.91594
# Velocity P-wave (km/s) = 6.39831 7.00911 6.71066
#
# Compressibility (1/GPa) = 0.02147847
#
# Stress axis : x y z
#
# Youngs Moduli (GPa) = 117.84116 46.81022 127.19928
#
# Poissons Ratio (x) = 0.08712 0.20993
# Poissons Ratio (y) = 0.21931 0.58570
# Poissons Ratio (z) = 0.19449 0.21554
#
# Static dielectric constant tensor:
#      x y z
#    x 3.924540 0.000000 0.000000 
#    y 0.000000 3.684880 0.000000 
#    z 0.000000 0.000000 4.176440 
# 
# 
# High freq. dielectric constant tensor:
#      x y z
#    x 1.852500 0.000000 0.000000 
#    y 0.000000 1.837680 0.000000 
#    z 0.000000 0.000000 1.860150 
# 
# From -- ./inp_files/18641.got.cif
#   From: 2010.03.12/outbox.cif.g09.slc.cpg/sg67_10_cif.got.tgz:18641.got - 2010.04.10 22:41:39.
