data_PCOD8280804
_publ_section_title
;
Structure prediction by ZEFSAII (Michael W. Deem and Ramdas Pophale) SiO2 
 PCOD8280804
Probable space group: C M M A
;
_chemical_formula_sum "Si O2"
_cell_formula_units_Z 104
_cell_length_a 26.994975
_cell_length_b 8.690315
_cell_length_c 19.760459
_cell_angle_alpha 90.000000
_cell_angle_beta 90.000000
_cell_angle_gamma 90.000000
_cell_volume 4635.701642
_symmetry_space_group_name_H-M "C M M A"
_symmetry_group_IT_number 67
_symmetry_cell_setting 'orthorhombic'
loop_
_space_group_symop_operation_xyz
x,y,z
-x,1/2-y,z
x,-y,-z
-x,1/2+y,-z
-x,-y,-z
x,1/2+y,-z
-x,y,z
x,1/2-y,z
1/2+x,1/2+y,z
1/2-x,-y,z
1/2+x,1/2-y,-z
1/2-x,y,-z
1/2-x,1/2-y,-z
1/2+x,y,-z
1/2-x,1/2+y,z
1/2+x,-y,z
loop_
_atom_site_type_symbol
_atom_site_label
_atom_site_fract_x
_atom_site_fract_y
_atom_site_fract_z
Si Si1 0.056240 0.581396 0.936506
Si Si2 0.945284 0.070459 0.795725
Si Si3 0.347387 0.071387 0.797561
Si Si4 0.107236 0.932804 0.574522
Si Si5 0.000000 0.069272 0.426597
Si Si6 0.198685 0.569129 0.661448
Si Si7 0.303408 0.567738 0.928473
O O1 0.080631 0.750000 0.920030
O O2 0.059073 0.463630 0.875091
O O3 0.000000 0.613084 0.957254
O O4 0.083870 0.500000 0.000000
O O5 0.937336 0.250000 0.782355
O O6 0.000000 0.018300 0.768863
O O7 0.900641 0.972305 0.763076
O O8 0.345384 0.250000 0.814020
O O9 0.306993 0.026556 0.740928
O O10 0.340242 0.979443 0.867705
O O11 0.110807 0.750000 0.570114
O O12 0.151941 0.999679 0.620089
O O13 0.052914 0.981430 0.607257
O O14 0.113358 0.000000 0.500000
O O15 0.000000 0.250000 0.434455
O O16 0.000000 0.000000 0.500000
O O17 0.200476 0.750000 0.651093
O O18 0.250000 0.500000 0.633954
O O19 0.299940 0.750000 0.933747
O O20 0.250000 0.500000 0.909765
O O21 0.322130 0.500000 0.000000
#
# Coordination Sequence:
#
# PCOD8280804 Si02
#       7
#    16  16  16  16   8  16  16
#     4   9  16  27  45  69  97 131 173 221 277 342
#     4  10  21  37  55  76 106 143 185 235 291 354
#     4  11  23  40  60  85 116 154 201 251 305 371
#     4   9  18  35  59  92 127 165 208 252 300 354
#     4   8  14  28  54  84 122 162 201 248 295 346
#     4  10  23  41  61  88 122 161 208 254 306 367
#     4  11  22  39  63  91 119 149 189 244 306 370
#
# _framework density 22.434576
#
# number of rings (size 3 to 8) (size 9 to 14) (size 15 to 20)
#    0.000    2.154    0.000    3.692    0.000    6.769 
#    1.385    4.615    0.000    0.000    0.000    0.000 
#    0.000    0.000    0.000    0.000    0.000    0.000 
#
# Total GULP energy -644282.502359 kJ/mol
# GULP energy per Si atom -12390.048122 kJ/mol
# Density = 2.238351 g / cm^3
# Si number density = 22.434576 Si / 1000 Ang^3
#
#
#
# Elastic Constant Matrix: (Units=GPa)
#
#
# Indices 1 2 3 4 5 6 
#
# 1 177.6417 33.6118 52.5056 0.0000 0.0000 0.0000
# 2 33.6118 77.3377 21.4923 0.0000 0.0000 0.0000
# 3 52.5056 21.4923 60.8142 0.0000 0.0000 0.0000
# 4 0.0000 0.0000 0.0000 22.8855 0.0000 0.0000
# 5 0.0000 0.0000 0.0000 0.0000 32.0465 0.0000
# 6 0.0000 0.0000 0.0000 0.0000 0.0000 32.1757
#
#
#
# Elastic Compliance Matrix: (Units=1/GPa)
#
#
# Indices 1 2 3 4 5 6 
#
# 1 0.007748 -0.001673 -0.006099 0.000000 0.000000 0.000000
# 2 -0.001673 0.014700 -0.003751 0.000000 0.000000 0.000000
# 3 -0.006099 -0.003751 0.023035 0.000000 0.000000 0.000000
# 4 0.000000 0.000000 0.000000 0.043696 0.000000 0.000000
# 5 0.000000 0.000000 0.000000 0.000000 0.031205 0.000000
# 6 0.000000 0.000000 0.000000 0.000000 0.000000 0.031079
#
#
# Mechanical properties :
#
#
# Convention : Reuss Voigt Hill
#
# Bulk Modulus (GPa) = 44.56676 59.00145 51.78410
# Shear Modulus (GPa) = 27.47463 31.30047 29.38755
#
# Velocity S-wave (km/s) = 3.50330 3.73928 3.62321
# Velocity P-wave (km/s) = 6.02267 6.70815 6.37463
#
# Compressibility (1/GPa) = 0.02243825
#
# Stress axis : x y z
#
# Youngs Moduli (GPa) = 129.05923 68.02889 43.41306
#
# Poissons Ratio (x) = 0.11379 0.26476
# Poissons Ratio (y) = 0.21588 0.16283
# Poissons Ratio (z) = 0.78709 0.25516
#
# Static dielectric constant tensor:
#      x y z
#    x 4.770660 0.000000 0.000000 
#    y 0.000000 4.004380 0.000000 
#    z 0.000000 0.000000 3.732210 
# 
# 
# High freq. dielectric constant tensor:
#      x y z
#    x 1.905580 0.000000 0.000000 
#    y 0.000000 1.875360 0.000000 
#    z 0.000000 0.000000 1.856650 
# 
# From -- ./inp_files/39940.got.cif
#   From: 2010.03.12/outbox.cif.g09.slc.cpg/sg67_20_cif.got.tgz:39940.got - 2010.04.10 22:41:39.
