data_PCOD8280649
_publ_section_title
;
Structure prediction by ZEFSAII (Michael W. Deem and Ramdas Pophale) SiO2 
 PCOD8280649
Probable space group: C M M A
;
_chemical_formula_sum "Si O2"
_cell_formula_units_Z 120
_cell_length_a 30.476544
_cell_length_b 13.382656
_cell_length_c 15.056362
_cell_angle_alpha 90.000000
_cell_angle_beta 90.000000
_cell_angle_gamma 90.000000
_cell_volume 6140.844208
_symmetry_space_group_name_H-M "C M M A"
_symmetry_group_IT_number 67
_symmetry_cell_setting 'orthorhombic'
loop_
_space_group_symop_operation_xyz
x,y,z
-x,1/2-y,z
x,-y,-z
-x,1/2+y,-z
-x,-y,-z
x,1/2+y,-z
-x,y,z
x,1/2-y,z
1/2+x,1/2+y,z
1/2-x,-y,z
1/2+x,1/2-y,-z
1/2-x,y,-z
1/2-x,1/2-y,-z
1/2+x,y,-z
1/2-x,1/2+y,z
1/2+x,-y,z
loop_
_atom_site_type_symbol
_atom_site_label
_atom_site_fract_x
_atom_site_fract_y
_atom_site_fract_z
Si Si1 0.662509 0.864334 0.559845
Si Si2 0.081725 0.859697 0.309178
Si Si3 0.200742 0.473748 0.709278
Si Si4 0.145713 0.863860 0.152107
Si Si5 0.859862 0.634159 0.636415
Si Si6 0.049677 0.634945 0.891573
Si Si7 0.112936 0.500000 0.000000
Si Si8 0.548013 0.066258 0.694188
O O1 0.676719 0.750000 0.553740
O O2 0.619152 0.879364 0.618389
O O3 0.701031 0.922615 0.611508
O O4 0.654624 0.905220 0.460688
O O5 0.060291 0.750000 0.323720
O O6 0.101259 0.866664 0.209919
O O7 0.046376 0.946792 0.322108
O O8 0.250000 0.500000 0.734112
O O9 0.185744 0.396746 0.784977
O O10 0.167614 0.569768 0.708179
O O11 0.154248 0.750000 0.118636
O O12 0.143190 0.942437 0.071145
O O13 0.848886 0.750000 0.651524
O O14 0.912421 0.618950 0.642073
O O15 0.062827 0.750000 0.882067
O O16 0.055720 0.583394 0.797401
O O17 0.000000 0.622923 0.926813
O O18 0.082462 0.585475 0.960021
O O19 0.500000 0.108763 0.664442
#
# Coordination Sequence:
#
# PCOD8280649 Si02
#       8
#    16  16  16  16  16  16   8  16
#     4   9  19  36  60  82 116 152 188 244 297 343
#     4   9  17  35  57  79 110 154 193 236 294 343
#     4  11  22  39  64  88 115 154 194 236 299 370
#     4  10  21  38  62  88 118 151 188 237 296 359
#     4  11  22  36  55  87 121 156 202 250 295 346
#     4  10  21  35  51  78 117 153 193 249 301 346
#     4  12  19  36  63  88 108 148 202 236 296 362
#     4  11  21  36  57  81 116 162 205 247 293 350
#
# _framework density 19.541287000000001
#
# number of rings (size 3 to 8) (size 9 to 14) (size 15 to 20)
#    0.000    1.733    4.000    2.600    0.000    3.200 
#    0.000    3.667    0.000    3.200    0.000    0.000 
#    0.000    0.000    0.000    0.000    0.000    0.000 
#
# Total GULP energy -743826.532185 kJ/mol
# GULP energy per Si atom -12397.108870 kJ/mol
# Density = 1.949681 g / cm^3
# Si number density = 19.541287 Si / 1000 Ang^3
#
#
#
# Elastic Constant Matrix: (Units=GPa)
#
#
# Indices 1 2 3 4 5 6 
#
# 1 79.7631 27.4583 16.3132 0.0000 0.0000 0.0000
# 2 27.4583 89.9449 21.5312 0.0000 0.0000 0.0000
# 3 16.3132 21.5312 60.9734 0.0000 0.0000 0.0000
# 4 0.0000 0.0000 0.0000 32.7143 0.0000 0.0000
# 5 0.0000 0.0000 0.0000 0.0000 16.2145 0.0000
# 6 0.0000 0.0000 0.0000 0.0000 0.0000 21.0651
#
#
#
# Elastic Compliance Matrix: (Units=1/GPa)
#
#
# Indices 1 2 3 4 5 6 
#
# 1 0.014351 -0.003782 -0.002504 0.000000 0.000000 0.000000
# 2 -0.003782 0.013141 -0.003629 0.000000 0.000000 0.000000
# 3 -0.002504 -0.003629 0.018352 0.000000 0.000000 0.000000
# 4 0.000000 0.000000 0.000000 0.030568 0.000000 0.000000
# 5 0.000000 0.000000 0.000000 0.000000 0.061673 0.000000
# 6 0.000000 0.000000 0.000000 0.000000 0.000000 0.047472
#
#
# Mechanical properties :
#
#
# Convention : Reuss Voigt Hill
#
# Bulk Modulus (GPa) = 38.43921 40.14298 39.29110
# Shear Modulus (GPa) = 23.35822 25.02404 24.19113
#
# Velocity S-wave (km/s) = 3.46110 3.58239 3.52227
# Velocity P-wave (km/s) = 5.97376 6.13992 6.05741
#
# Compressibility (1/GPa) = 0.02601510
#
# Stress axis : x y z
#
# Youngs Moduli (GPa) = 69.68107 76.09768 54.49019
#
# Poissons Ratio (x) = 0.28777 0.13645
# Poissons Ratio (y) = 0.26351 0.19773
# Poissons Ratio (z) = 0.17449 0.27613
#
# Static dielectric constant tensor:
#      x y z
#    x 3.254610 0.000000 0.000000 
#    y 0.000000 3.809780 0.000000 
#    z 0.000000 0.000000 3.497780 
# 
# 
# High freq. dielectric constant tensor:
#      x y z
#    x 1.728080 0.000000 0.000000 
#    y 0.000000 1.785880 0.000000 
#    z 0.000000 0.000000 1.746310 
# 
# From -- ./inp_files/31256.got.cif
#   From: 2010.03.12/outbox.cif.g09.slc.cpg/sg67_16_cif.got.tgz:31256.got - 2010.04.10 22:41:39.
