data_PCOD8280825
_publ_section_title
;
Structure prediction by ZEFSAII (Michael W. Deem and Ramdas Pophale) SiO2 
 PCOD8280825
Probable space group: C M M A
;
_chemical_formula_sum "Si O2"
_cell_formula_units_Z 104
_cell_length_a 8.693933
_cell_length_b 26.406506
_cell_length_c 22.701024
_cell_angle_alpha 90.000000
_cell_angle_beta 90.000000
_cell_angle_gamma 90.000000
_cell_volume 5211.619228
_symmetry_space_group_name_H-M "C M M A"
_symmetry_group_IT_number 67
_symmetry_cell_setting 'orthorhombic'
loop_
_space_group_symop_operation_xyz
x,y,z
-x,1/2-y,z
x,-y,-z
-x,1/2+y,-z
-x,-y,-z
x,1/2+y,-z
-x,y,z
x,1/2-y,z
1/2+x,1/2+y,z
1/2-x,-y,z
1/2+x,1/2-y,-z
1/2-x,y,-z
1/2-x,1/2-y,-z
1/2+x,y,-z
1/2-x,1/2+y,z
1/2+x,-y,z
loop_
_atom_site_type_symbol
_atom_site_label
_atom_site_fract_x
_atom_site_fract_y
_atom_site_fract_z
Si Si1 0.825508 0.192170 0.132329
Si Si2 0.322137 0.649742 0.754446
Si Si3 0.316843 0.946059 0.564077
Si Si4 0.182745 0.607453 0.061868
Si Si5 0.319221 0.351199 0.629933
Si Si6 0.675492 0.551024 0.824581
Si Si7 0.318232 0.250000 0.564118
O O1 0.821635 0.250000 0.113101
O O2 0.732912 0.185990 0.193167
O O3 0.745684 0.162787 0.078491
O O4 0.000000 0.172883 0.141373
O O5 0.500000 0.661413 0.740303
O O6 0.217828 0.659152 0.697849
O O7 0.298468 0.591858 0.773791
O O8 0.500000 0.950033 0.560720
O O9 0.250000 0.932967 0.500000
O O10 0.270260 0.900989 0.607929
O O11 0.250000 0.000000 0.586588
O O12 0.244229 0.569661 0.112834
O O13 0.000000 0.609654 0.059124
O O14 0.250000 0.588644 0.000000
O O15 0.500000 0.360017 0.621113
O O16 0.260591 0.301045 0.596176
O O17 0.500000 0.539529 0.835731
O O18 0.750000 0.500000 0.801544
O O19 0.500000 0.250000 0.561258
O O20 0.250000 0.250000 0.500000
#
# Coordination Sequence:
#
# PCOD8280825 Si02
#       7
#    16  16  16  16  16  16   8
#     4  10  21  37  58  82 110 147 188 235 291 346
#     4  10  22  39  57  84 116 150 192 238 287 346
#     4  11  22  39  62  89 119 155 197 245 300 359
#     4  10  21  37  56  82 114 147 189 237 284 345
#     4  11  23  40  61  89 122 159 201 250 299 357
#     4   9  20  37  57  81 112 148 189 233 285 342
#     4  10  24  42  62  88 122 160 201 246 299 358
#
# _framework density 19.955411999999999
#
# number of rings (size 3 to 8) (size 9 to 14) (size 15 to 20)
#    0.000    1.846    0.000    5.077    1.077    8.615 
#    0.000    3.077    0.000    0.000    0.000    0.000 
#    0.000    0.000    0.000    0.000    0.000    0.000 
#
# Total GULP energy -644908.329185 kJ/mol
# GULP energy per Si atom -12402.083254 kJ/mol
# Density = 1.990999 g / cm^3
# Si number density = 19.955412 Si / 1000 Ang^3
#
#
#
# Elastic Constant Matrix: (Units=GPa)
#
#
# Indices 1 2 3 4 5 6 
#
# 1 88.5639 34.7705 20.8877 0.0000 0.0000 0.0000
# 2 34.7705 88.6026 15.9704 0.0000 0.0000 0.0000
# 3 20.8877 15.9704 85.4769 0.0000 0.0000 0.0000
# 4 0.0000 0.0000 0.0000 -14.5879 0.0000 0.0000
# 5 0.0000 0.0000 0.0000 0.0000 37.8727 0.0000
# 6 0.0000 0.0000 0.0000 0.0000 0.0000 31.5804
#
#
#
# Elastic Compliance Matrix: (Units=1/GPa)
#
#
# Indices 1 2 3 4 5 6 
#
# 1 0.013825 -0.004984 -0.002447 0.000000 0.000000 0.000000
# 2 -0.004984 0.013477 -0.001300 0.000000 0.000000 0.000000
# 3 -0.002447 -0.001300 0.012540 0.000000 0.000000 0.000000
# 4 0.000000 0.000000 0.000000 -0.068550 0.000000 0.000000
# 5 0.000000 0.000000 0.000000 0.000000 0.026404 0.000000
# 6 0.000000 0.000000 0.000000 0.000000 0.000000 0.031665
#
#
# Mechanical properties :
#
#
# Convention : Reuss Voigt Hill
#
# Bulk Modulus (GPa) = 44.68486 45.10006 44.89246
# Shear Modulus (GPa) = 92.10780 23.70737 57.90758
#
# Velocity S-wave (km/s) = 6.80125 3.45050 5.39272
# Velocity P-wave (km/s) = 9.17153 6.20678 7.83074
#
# Compressibility (1/GPa) = 0.02237894
#
# Stress axis : x y z
#
# Youngs Moduli (GPa) = 72.33091 74.20209 79.74514
#
# Poissons Ratio (x) = 0.36985 0.19515
# Poissons Ratio (y) = 0.36053 0.10366
# Poissons Ratio (z) = 0.17701 0.09646
#
# Static dielectric constant tensor:
#      x y z
#    x 3.715520 0.000000 0.000000 
#    y 0.000000 1.380020 0.000000 
#    z 0.000000 0.000000 3.538760 
# 
# 
# High freq. dielectric constant tensor:
#      x y z
#    x 1.787920 0.000000 0.000000 
#    y 0.000000 1.782340 0.000000 
#    z 0.000000 0.000000 1.776400 
# 
# From -- ./inp_files/37328.got.cif
#   From: 2010.03.12/outbox.cif.g09.slc.cpg/sg67_19_cif.got.tgz:37328.got - 2010.04.10 22:41:39.
