data_PCOD8280745
_publ_section_title
;
Structure prediction by ZEFSAII (Michael W. Deem and Ramdas Pophale) SiO2 
 PCOD8280745
Probable space group: C M M A
;
_chemical_formula_sum "Si O2"
_cell_formula_units_Z 88
_cell_length_a 28.023622
_cell_length_b 10.070141
_cell_length_c 15.872534
_cell_angle_alpha 90.000000
_cell_angle_beta 90.000000
_cell_angle_gamma 90.000000
_cell_volume 4479.258060
_symmetry_space_group_name_H-M "C M M A"
_symmetry_group_IT_number 67
_symmetry_cell_setting 'orthorhombic'
loop_
_space_group_symop_operation_xyz
x,y,z
-x,1/2-y,z
x,-y,-z
-x,1/2+y,-z
-x,-y,-z
x,1/2+y,-z
-x,y,z
x,1/2-y,z
1/2+x,1/2+y,z
1/2-x,-y,z
1/2+x,1/2-y,-z
1/2-x,y,-z
1/2-x,1/2-y,-z
1/2+x,y,-z
1/2-x,1/2+y,z
1/2+x,-y,z
loop_
_atom_site_type_symbol
_atom_site_label
_atom_site_fract_x
_atom_site_fract_y
_atom_site_fract_z
Si Si1 0.792127 0.400747 0.382538
Si Si2 0.943911 0.398411 0.232025
Si Si3 0.373368 0.500000 0.500000
Si Si4 0.882107 0.598217 0.922420
Si Si5 0.554509 0.102027 0.372997
Si Si6 0.290326 0.100014 0.810466
O O1 0.773355 0.250000 0.394012
O O2 0.750000 0.500000 0.412578
O O3 0.839943 0.418587 0.436461
O O4 0.805725 0.430485 0.285595
O O5 0.925353 0.250000 0.255800
O O6 0.924731 0.439317 0.140679
O O7 0.926207 0.499719 0.303167
O O8 0.000000 0.402549 0.225303
O O9 0.408983 0.401030 0.451030
O O10 0.886227 0.750000 0.954513
O O11 0.833893 0.575062 0.871726
O O12 0.884950 0.500000 0.000000
O O13 0.500000 0.066988 0.401224
O O14 0.555816 0.250000 0.334606
O O15 0.270815 0.250000 0.818132
O O16 0.250000 0.000000 0.841437
#
# Coordination Sequence:
#
# PCOD8280745 Si02
#       6
#    16  16   8  16  16  16
#     4  10  22  39  58  80 108 144 186 229 273 326
#     4   9  19  38  61  81 107 146 185 222 272 331
#     4  12  22  34  56  82 114 150 184 226 282 334
#     4  10  21  36  55  83 114 141 175 219 268 325
#     4  10  22  38  56  82 113 146 190 238 279 325
#     4   9  19  37  57  76 103 140 180 220 264 317
#
# _framework density 19.646111999999999
#
# number of rings (size 3 to 8) (size 9 to 14) (size 15 to 20)
#    0.000    2.182    0.000    2.182    0.000    7.273 
#    0.000    7.273    0.000    0.000    0.000    0.000 
#    0.000    0.000    0.000    0.000    0.000    0.000 
#
# Total GULP energy -545585.916267 kJ/mol
# GULP energy per Si atom -12399.679915 kJ/mol
# Density = 1.960140 g / cm^3
# Si number density = 19.646112 Si / 1000 Ang^3
#
#
#
# Elastic Constant Matrix: (Units=GPa)
#
#
# Indices 1 2 3 4 5 6 
#
# 1 63.1694 47.2825 44.5495 0.0000 0.0000 0.0000
# 2 47.2825 120.8728 66.1815 0.0000 0.0000 0.0000
# 3 44.5495 66.1815 104.7379 0.0000 0.0000 0.0000
# 4 0.0000 0.0000 0.0000 25.7928 0.0000 0.0000
# 5 0.0000 0.0000 0.0000 0.0000 25.2872 0.0000
# 6 0.0000 0.0000 0.0000 0.0000 0.0000 19.1923
#
#
#
# Elastic Compliance Matrix: (Units=1/GPa)
#
#
# Indices 1 2 3 4 5 6 
#
# 1 0.025259 -0.006113 -0.006881 0.000000 0.000000 0.000000
# 2 -0.006113 0.014129 -0.006328 0.000000 0.000000 0.000000
# 3 -0.006881 -0.006328 0.016473 0.000000 0.000000 0.000000
# 4 0.000000 0.000000 0.000000 0.038771 0.000000 0.000000
# 5 0.000000 0.000000 0.000000 0.000000 0.039546 0.000000
# 6 0.000000 0.000000 0.000000 0.000000 0.000000 0.052104
#
#
# Mechanical properties :
#
#
# Convention : Reuss Voigt Hill
#
# Bulk Modulus (GPa) = 58.08149 67.20077 62.64113
# Shear Modulus (GPa) = 21.67659 22.77223 22.22441
#
# Velocity S-wave (km/s) = 3.32528 3.40828 3.36704
# Velocity P-wave (km/s) = 6.66118 7.05467 6.86075
#
# Compressibility (1/GPa) = 0.01721719
#
# Stress axis : x y z
#
# Youngs Moduli (GPa) = 39.59006 70.77619 60.70658
#
# Poissons Ratio (x) = 0.43267 0.41772
# Poissons Ratio (y) = 0.24202 0.38413
# Poissons Ratio (z) = 0.27242 0.44785
#
# Static dielectric constant tensor:
#      x y z
#    x 3.610280 0.000000 0.000000 
#    y 0.000000 3.682330 0.000000 
#    z 0.000000 0.000000 3.523860 
# 
# 
# High freq. dielectric constant tensor:
#      x y z
#    x 1.770790 0.000000 0.000000 
#    y 0.000000 1.768410 0.000000 
#    z 0.000000 0.000000 1.757990 
# 
# From -- ./inp_files/29935.got.cif
#   From: 2010.03.12/outbox.cif.g09.slc.cpg/sg67_15_cif.got.tgz:29935.got - 2010.04.10 22:41:39.
