data_PCOD8280952
_publ_section_title
;
Structure prediction by ZEFSAII (Michael W. Deem and Ramdas Pophale) SiO2 
 PCOD8280952
Probable space group: C M M A
;
_chemical_formula_sum "Si O2"
_cell_formula_units_Z 72
_cell_length_a 15.380080
_cell_length_b 9.223286
_cell_length_c 24.890542
_cell_angle_alpha 90.000000
_cell_angle_beta 90.000000
_cell_angle_gamma 90.000000
_cell_volume 3530.844762
_symmetry_space_group_name_H-M "C M M A"
_symmetry_group_IT_number 67
_symmetry_cell_setting 'orthorhombic'
loop_
_space_group_symop_operation_xyz
x,y,z
-x,1/2-y,z
x,-y,-z
-x,1/2+y,-z
-x,-y,-z
x,1/2+y,-z
-x,y,z
x,1/2-y,z
1/2+x,1/2+y,z
1/2-x,-y,z
1/2+x,1/2-y,-z
1/2-x,y,-z
1/2-x,1/2-y,-z
1/2+x,y,-z
1/2-x,1/2+y,z
1/2+x,-y,z
loop_
_atom_site_type_symbol
_atom_site_label
_atom_site_fract_x
_atom_site_fract_y
_atom_site_fract_z
Si Si1 0.603749 0.414234 0.551842
Si Si2 0.000000 0.921243 0.943699
Si Si3 0.397864 0.083788 0.758311
Si Si4 0.164459 0.920591 0.874321
Si Si5 0.396318 0.913820 0.654976
O O1 0.639222 0.500000 0.500000
O O2 0.500000 0.414023 0.551998
O O3 0.639265 0.250000 0.550710
O O4 0.640050 0.494794 0.604697
O O5 0.084250 0.971688 0.910637
O O6 0.000000 0.750000 0.952755
O O7 0.000000 0.000000 0.000000
O O8 0.500000 0.062618 0.766791
O O9 0.376663 0.250000 0.744332
O O10 0.351698 0.032808 0.812792
O O11 0.361624 0.985379 0.709914
O O12 0.177867 0.750000 0.878835
O O13 0.250000 0.000000 0.896193
O O14 0.500000 0.916828 0.654303
O O15 0.361208 0.750000 0.651127
#
# Coordination Sequence:
#
# PCOD8280952 Si02
#       5
#    16   8  16  16  16
#     4   9  15  22  32  48  76 118 166 216 271 330
#     4  10  22  42  64  88 120 158 195 234 281 334
#     4   9  16  30  51  71  97 137 179 221 272 332
#     4  10  21  38  60  86 117 152 192 236 284 337
#     4   9  16  24  36  59  89 122 165 218 272 329
#
# _framework density 20.391721
#
# number of rings (size 3 to 8) (size 9 to 14) (size 15 to 20)
#    0.000    2.667    1.111    1.333    0.000    7.556 
#    0.000    2.222    0.000    0.000    0.000    0.000 
#    0.000    0.889    0.000    9.333    0.000   14.000 
#
# Total GULP energy -446451.189629 kJ/mol
# GULP energy per Si atom -12401.421934 kJ/mol
# Density = 2.034531 g / cm^3
# Si number density = 20.391721 Si / 1000 Ang^3
#
#
#
# Elastic Constant Matrix: (Units=GPa)
#
#
# Indices 1 2 3 4 5 6 
#
# 1 69.7311 40.0546 57.6413 0.0000 0.0000 0.0000
# 2 40.0546 129.6826 86.0820 0.0000 0.0000 0.0000
# 3 57.6413 86.0820 171.0863 0.0000 0.0000 0.0000
# 4 0.0000 0.0000 0.0000 43.0790 0.0000 0.0000
# 5 0.0000 0.0000 0.0000 0.0000 0.9814 0.0000
# 6 0.0000 0.0000 0.0000 0.0000 0.0000 19.9502
#
#
#
# Elastic Compliance Matrix: (Units=1/GPa)
#
#
# Indices 1 2 3 4 5 6 
#
# 1 0.020451 -0.002617 -0.005574 0.000000 0.000000 0.000000
# 2 -0.002617 0.011913 -0.005112 0.000000 0.000000 0.000000
# 3 -0.005574 -0.005112 0.010295 0.000000 0.000000 0.000000
# 4 0.000000 0.000000 0.000000 0.023213 0.000000 0.000000
# 5 0.000000 0.000000 0.000000 0.000000 1.018917 0.000000
# 6 0.000000 0.000000 0.000000 0.000000 0.000000 0.050125
#
#
# Mechanical properties :
#
#
# Convention : Reuss Voigt Hill
#
# Bulk Modulus (GPa) = 62.29158 82.00619 72.14888
# Shear Modulus (GPa) = 4.28496 25.25026 14.76761
#
# Velocity S-wave (km/s) = 1.45117 3.52271 2.69401
# Velocity P-wave (km/s) = 5.78115 7.53981 6.71827
#
# Compressibility (1/GPa) = 0.01605353
#
# Stress axis : x y z
#
# Youngs Moduli (GPa) = 48.89666 83.94247 97.13412
#
# Poissons Ratio (x) = 0.21968 0.54138
# Poissons Ratio (y) = 0.12796 0.49658
# Poissons Ratio (z) = 0.27253 0.42914
#
# Static dielectric constant tensor:
#      x y z
#    x 3.311230 0.000000 0.000000 
#    y 0.000000 3.684490 0.000000 
#    z 0.000000 0.000000 3.784950 
# 
# 
# High freq. dielectric constant tensor:
#      x y z
#    x 1.763550 0.000000 0.000000 
#    y 0.000000 1.794720 0.000000 
#    z 0.000000 0.000000 1.802910 
# 
# From -- ./inp_files/40509.got.cif
#   From: 2010.03.12/outbox.cif.g09.slc.cpg/sg67_21_cif.got.tgz:40509.got - 2010.04.10 22:41:39.
