data_PCOD8280306
_publ_section_title
;
Structure prediction by ZEFSAII (Michael W. Deem and Ramdas Pophale) SiO2 
 PCOD8280306
Probable space group: C M M A
;
_chemical_formula_sum "Si O2"
_cell_formula_units_Z 96
_cell_length_a 23.319822
_cell_length_b 8.797854
_cell_length_c 25.735156
_cell_angle_alpha 90.000000
_cell_angle_beta 90.000000
_cell_angle_gamma 90.000000
_cell_volume 5279.937563
_symmetry_space_group_name_H-M "C M M A"
_symmetry_group_IT_number 67
_symmetry_cell_setting 'orthorhombic'
loop_
_space_group_symop_operation_xyz
x,y,z
-x,1/2-y,z
x,-y,-z
-x,1/2+y,-z
-x,-y,-z
x,1/2+y,-z
-x,y,z
x,1/2-y,z
1/2+x,1/2+y,z
1/2-x,-y,z
1/2+x,1/2-y,-z
1/2-x,y,-z
1/2-x,1/2-y,-z
1/2+x,y,-z
1/2-x,1/2+y,z
1/2+x,-y,z
loop_
_atom_site_type_symbol
_atom_site_label
_atom_site_fract_x
_atom_site_fract_y
_atom_site_fract_z
Si Si1 0.311723 0.073882 0.853254
Si Si2 0.100773 0.923195 0.765640
Si Si3 0.379860 0.431097 0.051824
Si Si4 0.500000 0.570690 0.073328
Si Si5 0.068078 0.078503 0.551291
Si Si6 0.065234 0.924600 0.654373
Si Si7 0.500000 0.924170 0.819412
O O1 0.306739 0.250000 0.868600
O O2 0.339678 0.053066 0.796203
O O3 0.250000 0.000000 0.851213
O O4 0.349784 0.991319 0.896439
O O5 0.078207 0.750000 0.774251
O O6 0.106691 0.954033 0.703941
O O7 0.056201 0.046854 0.785895
O O8 0.377070 0.250000 0.051113
O O9 0.444851 0.489472 0.049415
O O10 0.349280 0.500000 0.000000
O O11 0.500000 0.750000 0.060905
O O12 0.500000 0.545640 0.134668
O O13 0.088235 0.250000 0.548733
O O14 0.000000 0.057892 0.551778
O O15 0.094241 0.000000 0.500000
O O16 0.092371 0.010121 0.604942
O O17 0.063929 0.750000 0.638620
O O18 0.000000 0.979347 0.667422
O O19 0.500000 0.750000 0.839638
#
# Coordination Sequence:
#
# PCOD8280306 Si02
#       7
#    16  16  16   8  16  16   8
#     4  11  24  42  63  83 108 143 181 225 271 322
#     4  10  20  36  56  77 107 143 178 217 270 324
#     4  12  25  42  63  89 115 143 179 219 266 320
#     4  12  23  39  60  86 119 149 177 213 264 319
#     4   9  16  25  37  57  90 133 176 216 254 299
#     4   9  16  27  45  69  97 134 175 213 257 313
#     4  12  22  31  53  84 111 141 177 217 264 317
#
# _framework density 18.182033000000001
#
# number of rings (size 3 to 8) (size 9 to 14) (size 15 to 20)
#    0.000    1.500    2.500    4.250    0.000    3.667 
#    0.000    1.667    0.000    0.000    0.000    0.000 
#    0.000    0.667    0.000    7.667    0.000    2.667 
#
# Total GULP energy -595111.824487 kJ/mol
# GULP energy per Si atom -12398.163010 kJ/mol
# Density = 1.814065 g / cm^3
# Si number density = 18.182033 Si / 1000 Ang^3
#
#
#
# Elastic Constant Matrix: (Units=GPa)
#
#
# Indices 1 2 3 4 5 6 
#
# 1 71.9635 37.3632 37.7118 0.0000 0.0000 0.0000
# 2 37.3632 131.1466 66.3071 0.0000 0.0000 0.0000
# 3 37.7118 66.3071 162.9218 0.0000 0.0000 0.0000
# 4 0.0000 0.0000 0.0000 32.8280 0.0000 0.0000
# 5 0.0000 0.0000 0.0000 0.0000 12.7858 0.0000
# 6 0.0000 0.0000 0.0000 0.0000 0.0000 21.0647
#
#
#
# Elastic Compliance Matrix: (Units=1/GPa)
#
#
# Indices 1 2 3 4 5 6 
#
# 1 0.017070 -0.003608 -0.002483 0.000000 0.000000 0.000000
# 2 -0.003608 0.010363 -0.003383 0.000000 0.000000 0.000000
# 3 -0.002483 -0.003383 0.008089 0.000000 0.000000 0.000000
# 4 0.000000 0.000000 0.000000 0.030462 0.000000 0.000000
# 5 0.000000 0.000000 0.000000 0.000000 0.078212 0.000000
# 6 0.000000 0.000000 0.000000 0.000000 0.000000 0.047473
#
#
# Mechanical properties :
#
#
# Convention : Reuss Voigt Hill
#
# Bulk Modulus (GPa) = 60.32826 72.08848 66.20837
# Shear Modulus (GPa) = 23.13304 28.31235 25.72270
#
# Velocity S-wave (km/s) = 3.57080 3.95037 3.76537
# Velocity P-wave (km/s) = 7.08894 7.78084 7.44293
#
# Compressibility (1/GPa) = 0.01657598
#
# Stress axis : x y z
#
# Youngs Moduli (GPa) = 58.58125 96.49596 123.62024
#
# Poissons Ratio (x) = 0.34815 0.30694
# Poissons Ratio (y) = 0.21136 0.41815
# Poissons Ratio (z) = 0.14545 0.32640
#
# Static dielectric constant tensor:
#      x y z
#    x 2.947010 0.000000 0.000000 
#    y 0.000000 3.415050 0.000000 
#    z 0.000000 0.000000 3.640030 
# 
# 
# High freq. dielectric constant tensor:
#      x y z
#    x 1.644300 0.000000 0.000000 
#    y 0.000000 1.715860 0.000000 
#    z 0.000000 0.000000 1.721970 
# 
# From -- ./inp_files/42605.got.cif
#   From: 2010.03.12/outbox.cif.g09.slc.cpg/sg67_22_cif.got.tgz:42605.got - 2010.04.10 22:41:39.
