data_PCOD8280224
_publ_section_title
;
Structure prediction by ZEFSAII (Michael W. Deem and Ramdas Pophale) SiO2 
 PCOD8280224
Probable space group: C M M A
;
_chemical_formula_sum "Si O2"
_cell_formula_units_Z 80
_cell_length_a 16.659590
_cell_length_b 28.457348
_cell_length_c 8.797342
_cell_angle_alpha 90.000000
_cell_angle_beta 90.000000
_cell_angle_gamma 90.000000
_cell_volume 4170.712076
_symmetry_space_group_name_H-M "C M M A"
_symmetry_group_IT_number 67
_symmetry_cell_setting 'orthorhombic'
loop_
_space_group_symop_operation_xyz
x,y,z
-x,1/2-y,z
x,-y,-z
-x,1/2+y,-z
-x,-y,-z
x,1/2+y,-z
-x,y,z
x,1/2-y,z
1/2+x,1/2+y,z
1/2-x,-y,z
1/2+x,1/2-y,-z
1/2-x,y,-z
1/2-x,1/2-y,-z
1/2+x,y,-z
1/2-x,1/2+y,z
1/2+x,-y,z
loop_
_atom_site_type_symbol
_atom_site_label
_atom_site_fract_x
_atom_site_fract_y
_atom_site_fract_z
Si Si1 0.408718 0.304340 0.694177
Si Si2 0.407285 0.605277 0.811068
Si Si3 0.236958 0.945405 0.325620
Si Si4 0.904894 0.301365 0.646453
Si Si5 0.824802 0.378224 0.103773
O O1 0.500000 0.322861 0.707001
O O2 0.404542 0.250000 0.739566
O O3 0.374567 0.312385 0.524201
O O4 0.353403 0.332090 0.810318
O O5 0.500000 0.595932 0.770203
O O6 0.354076 0.567110 0.722251
O O7 0.377409 0.657374 0.759151
O O8 0.394328 0.601783 0.992483
O O9 0.250000 0.931401 0.500000
O O10 0.301908 0.918392 0.223609
O O11 0.250000 0.000000 0.296830
O O12 0.871407 0.250000 0.699966
O O13 0.000000 0.298246 0.640577
O O14 0.750000 0.363787 0.000000
#
# Coordination Sequence:
#
# PCOD8280224 Si02
#       5
#    16  16  16  16  16
#     4   9  17  31  51  75 106 145 187 226 262 308
#     4  10  20  35  57  85 114 144 181 222 269 327
#     4  10  22  42  62  79 105 142 181 227 281 328
#     4   8  15  29  51  78 107 140 177 218 261 305
#     4  10  21  34  52  78 109 143 177 220 276 331
#
# _framework density 19.181377000000001
#
# number of rings (size 3 to 8) (size 9 to 14) (size 15 to 20)
#    0.000    2.600    0.000    3.000    0.000    4.800 
#    0.000   11.000    0.000   10.800    0.000    0.000 
#    0.000    0.000    0.000    0.000    0.000    0.000 
#
# Total GULP energy -495929.347756 kJ/mol
# GULP energy per Si atom -12398.233694 kJ/mol
# Density = 1.913772 g / cm^3
# Si number density = 19.181377 Si / 1000 Ang^3
#
#
#
# Elastic Constant Matrix: (Units=GPa)
#
#
# Indices 1 2 3 4 5 6 
#
# 1 73.1455 55.7586 45.3548 0.0000 0.0000 0.0000
# 2 55.7586 112.5589 72.3224 0.0000 0.0000 0.0000
# 3 45.3548 72.3224 132.7219 0.0000 0.0000 0.0000
# 4 0.0000 0.0000 0.0000 17.9554 0.0000 0.0000
# 5 0.0000 0.0000 0.0000 0.0000 27.2815 0.0000
# 6 0.0000 0.0000 0.0000 0.0000 0.0000 31.3295
#
#
#
# Elastic Compliance Matrix: (Units=1/GPa)
#
#
# Indices 1 2 3 4 5 6 
#
# 1 0.022486 -0.009543 -0.002484 0.000000 0.000000 0.000000
# 2 -0.009543 0.017721 -0.006395 0.000000 0.000000 0.000000
# 3 -0.002484 -0.006395 0.011868 0.000000 0.000000 0.000000
# 4 0.000000 0.000000 0.000000 0.055694 0.000000 0.000000
# 5 0.000000 0.000000 0.000000 0.000000 0.036655 0.000000
# 6 0.000000 0.000000 0.000000 0.000000 0.000000 0.031919
#
#
# Mechanical properties :
#
#
# Convention : Reuss Voigt Hill
#
# Bulk Modulus (GPa) = 65.65677 73.92201 69.78939
# Shear Modulus (GPa) = 22.90806 24.97931 23.94369
#
# Velocity S-wave (km/s) = 3.45959 3.61261 3.53693
# Velocity P-wave (km/s) = 7.08958 7.48488 7.28991
#
# Compressibility (1/GPa) = 0.01523072
#
# Stress axis : x y z
#
# Youngs Moduli (GPa) = 44.47166 56.43125 84.25827
#
# Poissons Ratio (x) = 0.53852 0.20930
# Poissons Ratio (y) = 0.42439 0.53885
# Poissons Ratio (z) = 0.11047 0.36089
#
# Static dielectric constant tensor:
#      x y z
#    x 3.391040 0.000000 0.000000 
#    y 0.000000 3.552610 0.000000 
#    z 0.000000 0.000000 3.753020 
# 
# 
# High freq. dielectric constant tensor:
#      x y z
#    x 1.733180 0.000000 0.000000 
#    y 0.000000 1.736970 0.000000 
#    z 0.000000 0.000000 1.755760 
# 
# From -- ./inp_files/9945.got.cif
#   From: 2010.03.12/outbox.cif.g09.slc.cpg/sg67_5_cif.got.tgz:9945.got - 2010.04.10 22:41:39.
