data_PCOD8280095
_publ_section_title
;
Structure prediction by ZEFSAII (Michael W. Deem and Ramdas Pophale) SiO2 
 PCOD8280095
Probable space group: C M M A
;
_chemical_formula_sum "Si O2"
_cell_formula_units_Z 80
_cell_length_a 22.968238
_cell_length_b 14.003510
_cell_length_c 11.645038
_cell_angle_alpha 90.000000
_cell_angle_beta 90.000000
_cell_angle_gamma 90.000000
_cell_volume 3745.462866
_symmetry_space_group_name_H-M "C M M A"
_symmetry_group_IT_number 67
_symmetry_cell_setting 'orthorhombic'
loop_
_space_group_symop_operation_xyz
x,y,z
-x,1/2-y,z
x,-y,-z
-x,1/2+y,-z
-x,-y,-z
x,1/2+y,-z
-x,y,z
x,1/2-y,z
1/2+x,1/2+y,z
1/2-x,-y,z
1/2+x,1/2-y,-z
1/2-x,y,-z
1/2-x,1/2-y,-z
1/2+x,y,-z
1/2-x,1/2+y,z
1/2+x,-y,z
loop_
_atom_site_type_symbol
_atom_site_label
_atom_site_fract_x
_atom_site_fract_y
_atom_site_fract_z
Si Si1 0.433302 0.036632 0.785142
Si Si2 0.066583 0.640022 0.554605
Si Si3 0.662403 0.363512 0.923809
Si Si4 0.782875 0.360702 0.841329
Si Si5 0.116051 0.360170 0.686099
O O1 0.500000 0.060521 0.813420
O O2 0.412357 0.082198 0.664813
O O3 0.395451 0.081068 0.886851
O O4 0.424533 0.923004 0.770147
O O5 0.073478 0.750000 0.586745
O O6 0.106965 0.611834 0.446718
O O7 0.000000 0.615001 0.521369
O O8 0.651366 0.250000 0.912776
O O9 0.716844 0.401847 0.843943
O O10 0.676933 0.397327 0.053427
O O11 0.773593 0.250000 0.866475
O O12 0.816208 0.379163 0.720967
O O13 0.098462 0.250000 0.707361
#
# Coordination Sequence:
#
# PCOD8280095 Si02
#       5
#    16  16  16  16  16
#     4  11  22  34  53  82 112 143 180 220 268 325
#     4   9  18  34  55  77 105 142 180 221 272 326
#     4   9  18  36  60  83 109 140 176 223 274 322
#     4   8  17  36  60  82 105 139 181 221 269 324
#     4  10  20  35  54  77 107 144 186 226 262 312
#
# _framework density 21.359176000000001
#
# number of rings (size 3 to 8) (size 9 to 14) (size 15 to 20)
#    0.000    2.600    0.000    3.000    0.000    5.600 
#    0.000    6.000    0.000   14.400    0.000    0.000 
#    0.000    0.000    0.000    0.000    0.000    0.000 
#
# Total GULP energy -495839.972273 kJ/mol
# GULP energy per Si atom -12395.999307 kJ/mol
# Density = 2.131056 g / cm^3
# Si number density = 21.359176 Si / 1000 Ang^3
#
#
#
# Elastic Constant Matrix: (Units=GPa)
#
#
# Indices 1 2 3 4 5 6 
#
# 1 114.2255 19.9336 49.6042 0.0000 0.0000 0.0000
# 2 19.9336 44.1388 9.5490 0.0000 0.0000 0.0000
# 3 49.6042 9.5490 64.1726 0.0000 0.0000 0.0000
# 4 0.0000 0.0000 0.0000 23.4136 0.0000 0.0000
# 5 0.0000 0.0000 0.0000 0.0000 44.9112 0.0000
# 6 0.0000 0.0000 0.0000 0.0000 0.0000 22.2567
#
#
#
# Elastic Compliance Matrix: (Units=1/GPa)
#
#
# Indices 1 2 3 4 5 6 
#
# 1 0.013852 -0.004070 -0.010101 0.000000 0.000000 0.000000
# 2 -0.004070 0.024605 -0.000515 0.000000 0.000000 0.000000
# 3 -0.010101 -0.000515 0.023468 0.000000 0.000000 0.000000
# 4 0.000000 0.000000 0.000000 0.042710 0.000000 0.000000
# 5 0.000000 0.000000 0.000000 0.000000 0.022266 0.000000
# 6 0.000000 0.000000 0.000000 0.000000 0.000000 0.044930
#
#
# Mechanical properties :
#
#
# Convention : Reuss Voigt Hill
#
# Bulk Modulus (GPa) = 30.72067 42.30115 36.51091
# Shear Modulus (GPa) = 23.57875 27.67963 25.62919
#
# Velocity S-wave (km/s) = 3.32613 3.60378 3.46774
# Velocity P-wave (km/s) = 5.40046 6.09623 5.75886
#
# Compressibility (1/GPa) = 0.03255137
#
# Stress axis : x y z
#
# Youngs Moduli (GPa) = 72.19395 40.64151 42.61162
#
# Poissons Ratio (x) = 0.16542 0.43043
# Poissons Ratio (y) = 0.29384 0.02195
# Poissons Ratio (z) = 0.72926 0.02094
#
# Static dielectric constant tensor:
#      x y z
#    x 3.754930 0.000000 0.000000 
#    y 0.000000 3.966820 0.000000 
#    z 0.000000 0.000000 3.678380 
# 
# 
# High freq. dielectric constant tensor:
#      x y z
#    x 1.820650 0.000000 0.000000 
#    y 0.000000 1.853700 0.000000 
#    z 0.000000 0.000000 1.816410 
# 
# From -- ./inp_files/17937.got.cif
#   From: 2010.03.12/outbox.cif.g09.slc.cpg/sg67_9_cif.got.tgz:17937.got - 2010.04.10 22:41:39.
