data_PCOD8280769
_publ_section_title
;
Structure prediction by ZEFSAII (Michael W. Deem and Ramdas Pophale) SiO2 
 PCOD8280769
Probable space group: C M M A
;
_chemical_formula_sum "Si O2"
_cell_formula_units_Z 88
_cell_length_a 8.744539
_cell_length_b 30.487671
_cell_length_c 17.336772
_cell_angle_alpha 90.000000
_cell_angle_beta 90.000000
_cell_angle_gamma 90.000000
_cell_volume 4621.994304
_symmetry_space_group_name_H-M "C M M A"
_symmetry_group_IT_number 67
_symmetry_cell_setting 'orthorhombic'
loop_
_space_group_symop_operation_xyz
x,y,z
-x,1/2-y,z
x,-y,-z
-x,1/2+y,-z
-x,-y,-z
x,1/2+y,-z
-x,y,z
x,1/2-y,z
1/2+x,1/2+y,z
1/2-x,-y,z
1/2+x,1/2-y,-z
1/2-x,y,-z
1/2-x,1/2-y,-z
1/2+x,y,-z
1/2-x,1/2+y,z
1/2+x,-y,z
loop_
_atom_site_type_symbol
_atom_site_label
_atom_site_fract_x
_atom_site_fract_y
_atom_site_fract_z
Si Si1 0.681834 0.577444 0.420587
Si Si2 0.828609 0.663635 0.367685
Si Si3 0.817849 0.955130 0.263079
Si Si4 0.669081 0.866148 0.806102
Si Si5 0.820186 0.750000 0.583555
Si Si6 0.179276 0.700693 0.918941
O O1 0.500000 0.574229 0.421177
O O2 0.750000 0.557312 0.500000
O O3 0.735730 0.627776 0.415931
O O4 0.746736 0.550919 0.347895
O O5 0.840300 0.652067 0.279134
O O6 0.736519 0.708312 0.369968
O O7 0.000000 0.667934 0.402848
O O8 0.770408 0.916344 0.203126
O O9 0.000000 0.956590 0.271851
O O10 0.750000 0.000000 0.227950
O O11 0.500000 0.865417 0.843945
O O12 0.779384 0.835750 0.855929
O O13 0.750000 0.750000 0.500000
O O14 0.000000 0.750000 0.578314
O O15 0.236529 0.750000 0.895488
O O16 0.000000 0.700962 0.928722
O O17 0.250000 0.686325 0.000000
#
# Coordination Sequence:
#
# PCOD8280769 Si02
#       6
#    16  16  16  16   8  16
#     4  11  21  35  54  76 104 140 181 232 286 339
#     4  10  21  37  53  74 103 140 183 228 279 333
#     4  10  21  38  58  83 111 144 186 232 283 338
#     4   9  20  37  58  82 112 147 181 222 274 330
#     4  12  24  36  50  70  99 138 185 234 280 330
#     4  10  21  36  57  87 120 153 187 224 266 320
#
# _framework density 19.039401999999999
#
# number of rings (size 3 to 8) (size 9 to 14) (size 15 to 20)
#    0.000    1.818    0.000    5.727    1.273    5.818 
#    0.000    1.818    0.000    0.545    0.000    3.818 
#    0.000    0.000    0.000    0.000    0.000    0.000 
#
# Total GULP energy -545555.492637 kJ/mol
# GULP energy per Si atom -12398.988469 kJ/mol
# Density = 1.899607 g / cm^3
# Si number density = 19.039402 Si / 1000 Ang^3
#
#
#
# Elastic Constant Matrix: (Units=GPa)
#
#
# Indices 1 2 3 4 5 6 
#
# 1 129.0996 46.2625 31.0891 0.0000 0.0000 0.0000
# 2 46.2625 129.5223 30.7830 0.0000 0.0000 0.0000
# 3 31.0891 30.7830 60.9125 0.0000 0.0000 0.0000
# 4 0.0000 0.0000 0.0000 18.0761 0.0000 0.0000
# 5 0.0000 0.0000 0.0000 0.0000 32.2928 0.0000
# 6 0.0000 0.0000 0.0000 0.0000 0.0000 32.4372
#
#
#
# Elastic Compliance Matrix: (Units=1/GPa)
#
#
# Indices 1 2 3 4 5 6 
#
# 1 0.009520 -0.002552 -0.003569 0.000000 0.000000 0.000000
# 2 -0.002552 0.009459 -0.003478 0.000000 0.000000 0.000000
# 3 -0.003569 -0.003478 0.019996 0.000000 0.000000 0.000000
# 4 0.000000 0.000000 0.000000 0.055322 0.000000 0.000000
# 5 0.000000 0.000000 0.000000 0.000000 0.030967 0.000000
# 6 0.000000 0.000000 0.000000 0.000000 0.000000 0.030829
#
#
# Mechanical properties :
#
#
# Convention : Reuss Voigt Hill
#
# Bulk Modulus (GPa) = 50.56325 59.53373 55.04849
# Shear Modulus (GPa) = 27.49035 30.65454 29.07244
#
# Velocity S-wave (km/s) = 3.80395 4.01691 3.91188
# Velocity P-wave (km/s) = 6.77556 7.26984 7.02705
#
# Compressibility (1/GPa) = 0.01977721
#
# Stress axis : x y z
#
# Youngs Moduli (GPa) = 105.04207 105.72262 50.00975
#
# Poissons Ratio (x) = 0.26981 0.17849
# Poissons Ratio (y) = 0.26807 0.17391
# Poissons Ratio (z) = 0.37491 0.36766
#
# Static dielectric constant tensor:
#      x y z
#    x 3.530360 0.000000 0.000000 
#    y 0.000000 3.661110 0.000000 
#    z 0.000000 0.000000 3.320230 
# 
# 
# High freq. dielectric constant tensor:
#      x y z
#    x 1.753750 0.000000 0.000000 
#    y 0.000000 1.747780 0.000000 
#    z 0.000000 0.000000 1.713460 
# 
# From -- ./inp_files/32410.got.cif
#   From: 2010.03.12/outbox.cif.g09.slc.cpg/sg67_17_cif.got.tgz:32410.got - 2010.04.10 22:41:39.
