data_PCOD8280682
_publ_section_title
;
Structure prediction by ZEFSAII (Michael W. Deem and Ramdas Pophale) SiO2 
 PCOD8280682
Probable space group: C M M A
;
_chemical_formula_sum "Si O2"
_cell_formula_units_Z 80
_cell_length_a 26.045102
_cell_length_b 9.299132
_cell_length_c 16.070117
_cell_angle_alpha 90.000000
_cell_angle_beta 90.000000
_cell_angle_gamma 90.000000
_cell_volume 3892.131579
_symmetry_space_group_name_H-M "C M M A"
_symmetry_group_IT_number 67
_symmetry_cell_setting 'orthorhombic'
loop_
_space_group_symop_operation_xyz
x,y,z
-x,1/2-y,z
x,-y,-z
-x,1/2+y,-z
-x,-y,-z
x,1/2+y,-z
-x,y,z
x,1/2-y,z
1/2+x,1/2+y,z
1/2-x,-y,z
1/2+x,1/2-y,-z
1/2-x,y,-z
1/2-x,1/2-y,-z
1/2+x,y,-z
1/2-x,1/2+y,z
1/2+x,-y,z
loop_
_atom_site_type_symbol
_atom_site_label
_atom_site_fract_x
_atom_site_fract_y
_atom_site_fract_z
Si Si1 0.940852 0.910748 0.155143
Si Si2 0.500000 0.424675 0.411428
Si Si3 0.618262 0.000000 0.000000
Si Si4 0.705434 0.407063 0.889350
Si Si5 0.411965 0.919824 0.310858
Si Si6 0.298410 0.416174 0.702051
O O1 0.934054 0.750000 0.192633
O O2 0.000000 0.951407 0.145756
O O3 0.916495 0.909807 0.063227
O O4 0.915569 0.029503 0.215119
O O5 0.500000 0.250000 0.417317
O O6 0.500000 0.500000 0.500000
O O7 0.550550 0.480178 0.364427
O O8 0.654533 0.897779 0.055016
O O9 0.729036 0.250000 0.880468
O O10 0.750000 0.500000 0.932537
O O11 0.693502 0.468616 0.797253
O O12 0.426368 0.750000 0.316698
O O13 0.353325 0.945118 0.342950
O O14 0.284316 0.250000 0.696117
O O15 0.250000 0.500000 0.660752
#
# Coordination Sequence:
#
# PCOD8280682 Si02
#       6
#    16   8   8  16  16  16
#     4  11  24  39  56  82 114 158 213 265 319 380
#     4  12  26  46  74 109 138 165 202 244 302 371
#     4  12  22  36  54  76 112 160 214 270 322 372
#     4  10  21  36  51  74 107 151 206 266 321 369
#     4  11  22  41  67  95 130 169 207 256 315 375
#     4   9  19  36  58  87 121 163 214 261 315 375
#
# _framework density 20.554290000000002
#
# number of rings (size 3 to 8) (size 9 to 14) (size 15 to 20)
#    0.000    1.400    3.000    2.700    0.000    4.800 
#    0.000    0.000    0.000    0.600    0.000    4.200 
#    0.000    0.000    0.000    0.000    0.000    0.000 
#
# Total GULP energy -495724.070149 kJ/mol
# GULP energy per Si atom -12393.101754 kJ/mol
# Density = 2.050751 g / cm^3
# Si number density = 20.554290 Si / 1000 Ang^3
#
#
#
# Elastic Constant Matrix: (Units=GPa)
#
#
# Indices 1 2 3 4 5 6 
#
# 1 156.0721 68.5907 29.3417 0.0000 0.0000 0.0000
# 2 68.5907 121.2261 31.7888 0.0000 0.0000 0.0000
# 3 29.3417 31.7888 60.7867 0.0000 0.0000 0.0000
# 4 0.0000 0.0000 0.0000 -46.0501 0.0000 0.0000
# 5 0.0000 0.0000 0.0000 0.0000 7.1580 0.0000
# 6 0.0000 0.0000 0.0000 0.0000 0.0000 30.9785
#
#
#
# Elastic Compliance Matrix: (Units=1/GPa)
#
#
# Indices 1 2 3 4 5 6 
#
# 1 0.008710 -0.004434 -0.001886 0.000000 0.000000 0.000000
# 2 -0.004434 0.011817 -0.004040 0.000000 0.000000 0.000000
# 3 -0.001886 -0.004040 0.019474 0.000000 0.000000 0.000000
# 4 0.000000 0.000000 0.000000 -0.021715 0.000000 0.000000
# 5 0.000000 0.000000 0.000000 0.000000 0.139703 0.000000
# 6 0.000000 0.000000 0.000000 0.000000 0.000000 0.032281
#
#
# Mechanical properties :
#
#
# Convention : Reuss Voigt Hill
#
# Bulk Modulus (GPa) = 51.85986 66.39193 59.12590
# Shear Modulus (GPa) = 22.99745 12.30818 17.65282
#
# Velocity S-wave (km/s) = 3.34857 2.44972 2.93377
# Velocity P-wave (km/s) = 6.34319 6.35393 6.34856
#
# Compressibility (1/GPa) = 0.01928273
#
# Stress axis : x y z
#
# Youngs Moduli (GPa) = 114.80453 84.62316 51.35116
#
# Poissons Ratio (x) = 0.37521 0.09684
# Poissons Ratio (y) = 0.50904 0.20744
# Poissons Ratio (z) = 0.21650 0.34184
#
# Static dielectric constant tensor:
#      x y z
#    x 3.974180 0.000000 0.000000 
#    y 0.000000 3.646150 0.000000 
#    z 0.000000 0.000000 3.449370 
# 
# 
# High freq. dielectric constant tensor:
#      x y z
#    x 1.821200 0.000000 0.000000 
#    y 0.000000 1.803440 0.000000 
#    z 0.000000 0.000000 1.764620 
# 
# From -- ./inp_files/35798.got.cif
#   From: 2010.03.12/outbox.cif.g09.slc.cpg/sg67_18_cif.got.tgz:35798.got - 2010.04.10 22:41:39.
