data_PCOD8280406
_publ_section_title
;
Structure prediction by ZEFSAII (Michael W. Deem and Ramdas Pophale) SiO2 
 PCOD8280406
Probable space group: C M M A
;
_chemical_formula_sum "Si O2"
_cell_formula_units_Z 64
_cell_length_a 8.816293
_cell_length_b 15.093297
_cell_length_c 24.182467
_cell_angle_alpha 90.000000
_cell_angle_beta 90.000000
_cell_angle_gamma 90.000000
_cell_volume 3217.886612
_symmetry_space_group_name_H-M "C M M A"
_symmetry_group_IT_number 67
_symmetry_cell_setting 'orthorhombic'
loop_
_space_group_symop_operation_xyz
x,y,z
-x,1/2-y,z
x,-y,-z
-x,1/2+y,-z
-x,-y,-z
x,1/2+y,-z
-x,y,z
x,1/2-y,z
1/2+x,1/2+y,z
1/2-x,-y,z
1/2+x,1/2-y,-z
1/2-x,y,-z
1/2-x,1/2-y,-z
1/2+x,y,-z
1/2-x,1/2+y,z
1/2+x,-y,z
loop_
_atom_site_type_symbol
_atom_site_label
_atom_site_fract_x
_atom_site_fract_y
_atom_site_fract_z
Si Si1 0.322046 0.092263 0.442325
Si Si2 0.821851 0.250000 0.243785
Si Si3 0.822413 0.903496 0.174363
Si Si4 0.824305 0.904394 0.052199
Si Si5 0.324451 0.750000 0.639589
O O1 0.500000 0.080082 0.451456
O O2 0.250000 0.124120 0.500000
O O3 0.285114 0.163712 0.395845
O O4 0.250000 0.000000 0.422480
O O5 0.752229 0.161822 0.217796
O O6 0.785094 0.250000 0.308256
O O7 0.000000 0.250000 0.233895
O O8 0.795819 0.861911 0.112684
O O9 0.000000 0.911921 0.186990
O O10 0.750000 0.000000 0.180825
O O11 0.000000 0.913130 0.039599
O O12 0.750000 0.000000 0.054171
O O13 0.750000 0.850772 0.000000
O O14 0.500000 0.750000 0.658287
#
# Coordination Sequence:
#
# PCOD8280406 Si02
#       5
#    16   8  16  16   8
#     4  10  20  36  60  89 120 153 187 228 279 333
#     4  12  26  41  60  85 113 152 200 246 291 342
#     4  10  21  39  61  84 114 151 191 238 292 348
#     4   9  16  27  49  79 109 142 179 225 282 343
#     4  10  23  41  59  81 115 156 193 236 286 334
#
# _framework density 19.888831
#
# number of rings (size 3 to 8) (size 9 to 14) (size 15 to 20)
#    0.000    2.000    0.000    5.250    0.000    6.000 
#    0.000    3.125    0.000    0.000    0.000    0.000 
#    0.000    0.000    0.000    0.000    0.000    0.000 
#
# Total GULP energy -396677.319519 kJ/mol
# GULP energy per Si atom -12396.166235 kJ/mol
# Density = 1.984356 g / cm^3
# Si number density = 19.888831 Si / 1000 Ang^3
#
#
#
# Elastic Constant Matrix: (Units=GPa)
#
#
# Indices 1 2 3 4 5 6 
#
# 1 150.1825 58.2105 77.0082 0.0000 0.0000 0.0000
# 2 58.2105 102.7673 69.2575 0.0000 0.0000 0.0000
# 3 77.0082 69.2575 143.6972 0.0000 0.0000 0.0000
# 4 0.0000 0.0000 0.0000 87.2282 0.0000 0.0000
# 5 0.0000 0.0000 0.0000 0.0000 36.4910 0.0000
# 6 0.0000 0.0000 0.0000 0.0000 0.0000 14.3949
#
#
#
# Elastic Compliance Matrix: (Units=1/GPa)
#
#
# Indices 1 2 3 4 5 6 
#
# 1 0.009756 -0.002966 -0.003799 0.000000 0.000000 0.000000
# 2 -0.002966 0.015314 -0.005791 0.000000 0.000000 0.000000
# 3 -0.003799 -0.005791 0.011786 0.000000 0.000000 0.000000
# 4 0.000000 0.000000 0.000000 0.011464 0.000000 0.000000
# 5 0.000000 0.000000 0.000000 0.000000 0.027404 0.000000
# 6 0.000000 0.000000 0.000000 0.000000 0.000000 0.069469
#
#
# Mechanical properties :
#
#
# Convention : Reuss Voigt Hill
#
# Bulk Modulus (GPa) = 85.15190 89.51104 87.33147
# Shear Modulus (GPa) = 28.69940 40.43420 34.56680
#
# Velocity S-wave (km/s) = 3.80279 4.51378 4.17346
# Velocity P-wave (km/s) = 7.88597 8.50112 8.19932
#
# Compressibility (1/GPa) = 0.01174372
#
# Stress axis : x y z
#
# Youngs Moduli (GPa) = 102.50004 65.30160 84.84615
#
# Poissons Ratio (x) = 0.19369 0.32232
# Poissons Ratio (y) = 0.30402 0.49136
# Poissons Ratio (z) = 0.38938 0.37817
#
# Static dielectric constant tensor:
#      x y z
#    x 3.748110 0.000000 0.000000 
#    y 0.000000 3.495840 0.000000 
#    z 0.000000 0.000000 4.082460 
# 
# 
# High freq. dielectric constant tensor:
#      x y z
#    x 1.790380 0.000000 0.000000 
#    y 0.000000 1.761430 0.000000 
#    z 0.000000 0.000000 1.785570 
# 
# From -- ./inp_files/40423.got.cif
#   From: 2010.03.12/outbox.cif.g09.slc.cpg/sg67_21_cif.got.tgz:40423.got - 2010.04.10 22:41:39.
