data_PCOD8280737
_publ_section_title
;
Structure prediction by ZEFSAII (Michael W. Deem and Ramdas Pophale) SiO2 
 PCOD8280737
Probable space group: C M M A
;
_chemical_formula_sum "Si O2"
_cell_formula_units_Z 96
_cell_length_a 14.051069
_cell_length_b 14.507949
_cell_length_c 23.937520
_cell_angle_alpha 90.000000
_cell_angle_beta 90.000000
_cell_angle_gamma 90.000000
_cell_volume 4879.715934
_symmetry_space_group_name_H-M "C M M A"
_symmetry_group_IT_number 67
_symmetry_cell_setting 'orthorhombic'
loop_
_space_group_symop_operation_xyz
x,y,z
-x,1/2-y,z
x,-y,-z
-x,1/2+y,-z
-x,-y,-z
x,1/2+y,-z
-x,y,z
x,1/2-y,z
1/2+x,1/2+y,z
1/2-x,-y,z
1/2+x,1/2-y,-z
1/2-x,y,-z
1/2-x,1/2-y,-z
1/2+x,y,-z
1/2-x,1/2+y,z
1/2+x,-y,z
loop_
_atom_site_type_symbol
_atom_site_label
_atom_site_fract_x
_atom_site_fract_y
_atom_site_fract_z
Si Si1 0.242914 0.601032 0.907655
Si Si2 0.394221 0.355980 0.003298
Si Si3 0.764390 0.352588 0.212787
Si Si4 0.109529 0.000658 0.613114
Si Si5 0.390551 0.489702 0.255369
Si Si6 0.247142 0.143996 0.566183
O O1 0.250000 0.500000 0.881417
O O2 0.156167 0.594359 0.951498
O O3 0.226910 0.664573 0.854016
O O4 0.338265 0.632172 0.939045
O O5 0.500000 0.396621 0.010810
O O6 0.396508 0.250000 0.986687
O O7 0.765739 0.250000 0.239911
O O8 0.666677 0.404529 0.228623
O O9 0.854214 0.411340 0.233818
O O10 0.124130 0.011585 0.678719
O O11 0.162381 0.908734 0.592058
O O12 0.000000 0.991316 0.595928
O O13 0.150905 0.093183 0.585300
O O14 0.500000 0.478132 0.237868
O O15 0.247247 0.250000 0.587033
O O16 0.250000 0.138923 0.500000
#
# Coordination Sequence:
#
# PCOD8280737 Si02
#       6
#    16  16  16  16  16  16
#     4  11  21  37  57  79 111 145 182 229 278 336
#     4  10  21  36  55  81 110 142 183 225 272 338
#     4  11  22  40  63  85 114 152 190 239 296 344
#     4  10  21  38  60  83 116 157 196 240 289 340
#     4  10  23  41  59  87 117 148 196 245 288 343
#     4  10  21  36  57  88 122 155 195 239 284 339
#
# _framework density 19.673276000000001
#
# number of rings (size 3 to 8) (size 9 to 14) (size 15 to 20)
#    0.000    1.667    1.667    6.000    0.000    8.000 
#    0.000    5.000    0.000    0.000    0.000    0.000 
#    0.000    0.000    0.000    0.000    0.000    0.000 
#
# Total GULP energy -595178.549708 kJ/mol
# GULP energy per Si atom -12399.553119 kJ/mol
# Density = 1.962850 g / cm^3
# Si number density = 19.673276 Si / 1000 Ang^3
#
#
#
# Elastic Constant Matrix: (Units=GPa)
#
#
# Indices 1 2 3 4 5 6 
#
# 1 130.3157 23.8604 32.7918 0.0000 0.0000 0.0000
# 2 23.8604 135.4397 21.8005 0.0000 0.0000 0.0000
# 3 32.7918 21.8005 92.1911 0.0000 0.0000 0.0000
# 4 0.0000 0.0000 0.0000 14.8067 0.0000 0.0000
# 5 0.0000 0.0000 0.0000 0.0000 3.1561 0.0000
# 6 0.0000 0.0000 0.0000 0.0000 0.0000 19.2484
#
#
#
# Elastic Compliance Matrix: (Units=1/GPa)
#
#
# Indices 1 2 3 4 5 6 
#
# 1 0.008572 -0.001060 -0.002798 0.000000 0.000000 0.000000
# 2 -0.001060 0.007807 -0.001469 0.000000 0.000000 0.000000
# 3 -0.002798 -0.001469 0.012190 0.000000 0.000000 0.000000
# 4 0.000000 0.000000 0.000000 0.067537 0.000000 0.000000
# 5 0.000000 0.000000 0.000000 0.000000 0.316850 0.000000
# 6 0.000000 0.000000 0.000000 0.000000 0.000000 0.051952
#
#
# Mechanical properties :
#
#
# Convention : Reuss Voigt Hill
#
# Bulk Modulus (GPa) = 55.82262 57.20576 56.51419
# Shear Modulus (GPa) = 10.38350 26.07515 18.22932
#
# Velocity S-wave (km/s) = 2.29988 3.64457 3.04732
# Velocity P-wave (km/s) = 5.95727 6.84482 6.41641
#
# Compressibility (1/GPa) = 0.01791389
#
# Stress axis : x y z
#
# Youngs Moduli (GPa) = 116.66076 128.09828 82.03585
#
# Poissons Ratio (x) = 0.13574 0.22957
# Poissons Ratio (y) = 0.12362 0.12052
# Poissons Ratio (z) = 0.32646 0.18819
#
# Static dielectric constant tensor:
#      x y z
#    x 3.728150 0.000000 0.000000 
#    y 0.000000 3.739210 0.000000 
#    z 0.000000 0.000000 3.550750 
# 
# 
# High freq. dielectric constant tensor:
#      x y z
#    x 1.763850 0.000000 0.000000 
#    y 0.000000 1.776490 0.000000 
#    z 0.000000 0.000000 1.774180 
# 
# From -- ./inp_files/38373.got.cif
#   From: 2010.03.12/outbox.cif.g09.slc.cpg/sg67_20_cif.got.tgz:38373.got - 2010.04.10 22:41:39.
