data_PCOD8280593
_publ_section_title
;
Structure prediction by ZEFSAII (Michael W. Deem and Ramdas Pophale) SiO2 
 PCOD8280593
Probable space group: C M M A
;
_chemical_formula_sum "Si O2"
_cell_formula_units_Z 72
_cell_length_a 25.888303
_cell_length_b 13.483792
_cell_length_c 9.090615
_cell_angle_alpha 90.000000
_cell_angle_beta 90.000000
_cell_angle_gamma 90.000000
_cell_volume 3173.283640
_symmetry_space_group_name_H-M "C M M A"
_symmetry_group_IT_number 67
_symmetry_cell_setting 'orthorhombic'
loop_
_space_group_symop_operation_xyz
x,y,z
-x,1/2-y,z
x,-y,-z
-x,1/2+y,-z
-x,-y,-z
x,1/2+y,-z
-x,y,z
x,1/2-y,z
1/2+x,1/2+y,z
1/2-x,-y,z
1/2+x,1/2-y,-z
1/2-x,y,-z
1/2-x,1/2-y,-z
1/2+x,y,-z
1/2-x,1/2+y,z
1/2+x,-y,z
loop_
_atom_site_type_symbol
_atom_site_label
_atom_site_fract_x
_atom_site_fract_y
_atom_site_fract_z
Si Si1 0.355615 0.361547 0.486867
Si Si2 0.942355 0.363169 0.747998
Si Si3 0.594414 0.500000 0.000000
Si Si4 0.828500 0.059282 0.213743
Si Si5 0.281040 0.357580 0.238159
O O1 0.367391 0.250000 0.545292
O O2 0.400343 0.395205 0.373318
O O3 0.353873 0.438268 0.623097
O O4 0.299287 0.362527 0.408290
O O5 0.931681 0.250000 0.797624
O O6 0.939502 0.434943 0.889089
O O7 0.000000 0.373628 0.681169
O O8 0.628246 0.418496 0.907580
O O9 0.780571 0.134589 0.217808
O O10 0.809785 0.949095 0.161374
O O11 0.297409 0.250000 0.171506
#
# Coordination Sequence:
#
# PCOD8280593 Si02
#       5
#    16  16   8  16  16
#     4  10  20  40  67  93 120 163 217 267 315 366
#     4  10  23  45  69  92 123 164 213 268 323 376
#     4  12  25  41  64  94 134 172 206 258 322 382
#     4  11  23  38  61  94 129 168 211 256 306 380
#     4  10  21  38  62  90 127 169 208 253 308 366
#
# _framework density 22.689432
#
# number of rings (size 3 to 8) (size 9 to 14) (size 15 to 20)
#    0.000    1.556    2.222    2.333    0.000    7.111 
#    0.000    4.444    0.000    2.667    0.000    0.000 
#    0.000    0.000    0.000    0.000    0.000    0.000 
#
# Total GULP energy -446065.786101 kJ/mol
# GULP energy per Si atom -12390.716281 kJ/mol
# Density = 2.263779 g / cm^3
# Si number density = 22.689432 Si / 1000 Ang^3
#
#
#
# Elastic Constant Matrix: (Units=GPa)
#
#
# Indices 1 2 3 4 5 6 
#
# 1 112.7871 25.7158 24.8476 0.0000 0.0000 0.0000
# 2 25.7158 107.9030 -3.3310 0.0000 0.0000 0.0000
# 3 24.8476 -3.3310 30.5260 0.0000 0.0000 0.0000
# 4 0.0000 0.0000 0.0000 8.4983 0.0000 0.0000
# 5 0.0000 0.0000 0.0000 0.0000 25.1597 0.0000
# 6 0.0000 0.0000 0.0000 0.0000 0.0000 29.3165
#
#
#
# Elastic Compliance Matrix: (Units=1/GPa)
#
#
# Indices 1 2 3 4 5 6 
#
# 1 0.011758 -0.003108 -0.009910 0.000000 0.000000 0.000000
# 2 -0.003108 0.010121 0.003634 0.000000 0.000000 0.000000
# 3 -0.009910 0.003634 0.041222 0.000000 0.000000 0.000000
# 4 0.000000 0.000000 0.000000 0.117670 0.000000 0.000000
# 5 0.000000 0.000000 0.000000 0.000000 0.039746 0.000000
# 6 0.000000 0.000000 0.000000 0.000000 0.000000 0.034110
#
#
# Mechanical properties :
#
#
# Convention : Reuss Voigt Hill
#
# Bulk Modulus (GPa) = 22.55657 38.40899 30.48278
# Shear Modulus (GPa) = 17.35067 26.19383 21.77225
#
# Velocity S-wave (km/s) = 2.76833 3.40141 3.10106
# Velocity P-wave (km/s) = 4.49235 5.69131 5.12700
#
# Compressibility (1/GPa) = 0.04433299
#
# Stress axis : x y z
#
# Youngs Moduli (GPa) = 85.04713 98.80914 24.25880
#
# Poissons Ratio (x) = 0.30712 0.24041
# Poissons Ratio (y) = 0.26434 -0.08816
# Poissons Ratio (z) = 0.84283 -0.35911
#
# Static dielectric constant tensor:
#      x y z
#    x 4.103650 0.000000 0.000000 
#    y 0.000000 4.177660 0.000000 
#    z 0.000000 0.000000 3.806960 
# 
# 
# High freq. dielectric constant tensor:
#      x y z
#    x 1.884430 0.000000 0.000000 
#    y 0.000000 1.904290 0.000000 
#    z 0.000000 0.000000 1.871300 
# 
# From -- ./inp_files/13324.got.cif
#   From: 2010.03.12/outbox.cif.g09.slc.cpg/sg67_7_cif.got.tgz:13324.got - 2010.04.10 22:41:39.
