data_PCOD8280390
_publ_section_title
;
Structure prediction by ZEFSAII (Michael W. Deem and Ramdas Pophale) SiO2 
 PCOD8280390
Probable space group: C M M A
;
_chemical_formula_sum "Si O2"
_cell_formula_units_Z 96
_cell_length_a 13.569646
_cell_length_b 22.833664
_cell_length_c 13.822095
_cell_angle_alpha 90.000000
_cell_angle_beta 90.000000
_cell_angle_gamma 90.000000
_cell_volume 4282.703395
_symmetry_space_group_name_H-M "C M M A"
_symmetry_group_IT_number 67
_symmetry_cell_setting 'orthorhombic'
loop_
_space_group_symop_operation_xyz
x,y,z
-x,1/2-y,z
x,-y,-z
-x,1/2+y,-z
-x,-y,-z
x,1/2+y,-z
-x,y,z
x,1/2-y,z
1/2+x,1/2+y,z
1/2-x,-y,z
1/2+x,1/2-y,-z
1/2-x,y,-z
1/2-x,1/2-y,-z
1/2+x,y,-z
1/2-x,1/2+y,z
1/2+x,-y,z
loop_
_atom_site_type_symbol
_atom_site_label
_atom_site_fract_x
_atom_site_fract_y
_atom_site_fract_z
Si Si1 0.303806 0.637524 0.855431
Si Si2 0.887688 0.681150 0.950848
Si Si3 0.763680 0.315931 0.663208
Si Si4 0.114656 0.585813 0.662166
Si Si5 0.612897 0.397113 0.446988
Si Si6 0.116175 0.966148 0.255043
O O1 0.188725 0.644351 0.885628
O O2 0.329455 0.676751 0.760652
O O3 0.327366 0.569120 0.829813
O O4 0.375645 0.660435 0.938756
O O5 0.862775 0.750000 0.942129
O O6 0.000000 0.668154 0.917832
O O7 0.730776 0.250000 0.644909
O O8 0.666958 0.353821 0.688616
O O9 0.822885 0.338144 0.568633
O O10 0.137892 0.571902 0.548932
O O11 0.152980 0.533557 0.732904
O O12 0.000000 0.594751 0.678728
O O13 0.500000 0.377868 0.444201
O O14 0.641540 0.439678 0.359877
O O15 0.000000 0.963672 0.233929
#
# Coordination Sequence:
#
# PCOD8280390 Si02
#       6
#    16  16  16  16  16  16
#     4  10  20  36  59  90 124 156 200 253 302 357
#     4  10  20  36  61  92 128 168 205 245 303 376
#     4  11  23  37  56  85 121 160 204 256 314 373
#     4  10  21  37  57  82 115 158 205 251 303 363
#     4   9  19  35  56  83 115 154 202 254 304 358
#     4   9  18  35  60  87 116 153 200 252 302 355
#
# _framework density 22.415748000000001
#
# number of rings (size 3 to 8) (size 9 to 14) (size 15 to 20)
#    0.000    2.167    0.000    3.500    0.000    8.000 
#    0.000    5.000    0.000    9.000    0.000   14.000 
#    0.000    1.333    0.000    0.000    0.000    0.000 
#
# Total GULP energy -594971.967864 kJ/mol
# GULP energy per Si atom -12395.249330 kJ/mol
# Density = 2.236473 g / cm^3
# Si number density = 22.415748 Si / 1000 Ang^3
#
#
#
# Elastic Constant Matrix: (Units=GPa)
#
#
# Indices 1 2 3 4 5 6 
#
# 1 77.9878 70.9207 36.6144 0.0000 0.0000 0.0000
# 2 70.9207 177.7611 33.6571 0.0000 0.0000 0.0000
# 3 36.6144 33.6571 62.7842 0.0000 0.0000 0.0000
# 4 0.0000 0.0000 0.0000 35.0520 0.0000 0.0000
# 5 0.0000 0.0000 0.0000 0.0000 33.1653 0.0000
# 6 0.0000 0.0000 0.0000 0.0000 0.0000 28.2522
#
#
#
# Elastic Compliance Matrix: (Units=1/GPa)
#
#
# Indices 1 2 3 4 5 6 
#
# 1 0.024899 -0.007996 -0.010234 0.000000 0.000000 0.000000
# 2 -0.007996 0.008829 -0.000070 0.000000 0.000000 0.000000
# 3 -0.010234 -0.000070 0.021933 0.000000 0.000000 0.000000
# 4 0.000000 0.000000 0.000000 0.028529 0.000000 0.000000
# 5 0.000000 0.000000 0.000000 0.000000 0.030152 0.000000
# 6 0.000000 0.000000 0.000000 0.000000 0.000000 0.035395
#
#
# Mechanical properties :
#
#
# Convention : Reuss Voigt Hill
#
# Bulk Modulus (GPa) = 52.46254 66.76861 59.61558
# Shear Modulus (GPa) = 25.94836 31.11665 28.53251
#
# Velocity S-wave (km/s) = 3.40604 3.72984 3.57161
# Velocity P-wave (km/s) = 6.23885 6.95702 6.60770
#
# Compressibility (1/GPa) = 0.01906122
#
# Stress axis : x y z
#
# Youngs Moduli (GPa) = 40.16282 113.26436 45.59304
#
# Poissons Ratio (x) = 0.90567 0.46659
# Poissons Ratio (y) = 0.32114 0.00318
# Poissons Ratio (z) = 0.41102 0.00791
#
# Static dielectric constant tensor:
#      x y z
#    x 4.144760 0.000000 0.000000 
#    y 0.000000 4.033180 0.000000 
#    z 0.000000 0.000000 4.175980 
# 
# 
# High freq. dielectric constant tensor:
#      x y z
#    x 1.892600 0.000000 0.000000 
#    y 0.000000 1.864110 0.000000 
#    z 0.000000 0.000000 1.879740 
# 
# From -- ./inp_files/27151.got.cif
#   From: 2010.03.12/outbox.cif.g09.slc.cpg/sg67_14_cif.got.tgz:27151.got - 2010.04.10 22:41:39.
