data_PCOD8280501
_publ_section_title
;
Structure prediction by ZEFSAII (Michael W. Deem and Ramdas Pophale) SiO2 
 PCOD8280501
Probable space group: C M M A
;
_chemical_formula_sum "Si O2"
_cell_formula_units_Z 96
_cell_length_a 17.925546
_cell_length_b 24.697989
_cell_length_c 11.539180
_cell_angle_alpha 90.000000
_cell_angle_beta 90.000000
_cell_angle_gamma 90.000000
_cell_volume 5108.682749
_symmetry_space_group_name_H-M "C M M A"
_symmetry_group_IT_number 67
_symmetry_cell_setting 'orthorhombic'
loop_
_space_group_symop_operation_xyz
x,y,z
-x,1/2-y,z
x,-y,-z
-x,1/2+y,-z
-x,-y,-z
x,1/2+y,-z
-x,y,z
x,1/2-y,z
1/2+x,1/2+y,z
1/2-x,-y,z
1/2+x,1/2-y,-z
1/2-x,y,-z
1/2-x,1/2-y,-z
1/2+x,y,-z
1/2-x,1/2+y,z
1/2+x,-y,z
loop_
_atom_site_type_symbol
_atom_site_label
_atom_site_fract_x
_atom_site_fract_y
_atom_site_fract_z
Si Si1 0.325316 0.898711 0.227475
Si Si2 0.084334 0.312094 0.633277
Si Si3 0.661476 0.999053 0.372519
Si Si4 0.181691 0.687838 0.578837
Si Si5 0.587201 0.562330 0.012035
Si Si6 0.346900 0.597772 0.779792
O O1 0.330012 0.842904 0.299564
O O2 0.372614 0.901499 0.110041
O O3 0.240076 0.909326 0.190741
O O4 0.361604 0.944343 0.308744
O O5 0.091986 0.250000 0.672176
O O6 0.107838 0.318431 0.498982
O O7 0.138303 0.345108 0.718307
O O8 0.000000 0.333140 0.645032
O O9 0.627398 0.049980 0.305527
O O10 0.625682 0.000000 0.500000
O O11 0.750000 0.000000 0.380658
O O12 0.198865 0.750000 0.611148
O O13 0.250000 0.664215 0.500000
O O14 0.500000 0.562078 0.039554
O O15 0.616930 0.500000 0.000000
O O16 0.603749 0.594137 0.894359
#
# Coordination Sequence:
#
# PCOD8280501 Si02
#       6
#    16  16  16  16  16  16
#     4  11  21  35  60  86 116 153 202 252 299 359
#     4  10  21  37  60  90 123 159 196 240 303 369
#     4   9  18  29  50  84 117 145 185 243 304 358
#     4  10  20  37  62  91 122 156 196 246 304 364
#     4  11  24  41  57  79 118 164 206 252 308 368
#     4  11  20  36  60  84 115 155 202 250 301 362
#
# _framework density 18.791536000000001
#
# number of rings (size 3 to 8) (size 9 to 14) (size 15 to 20)
#    0.000    1.667    3.333    2.000    2.333    1.333 
#    0.000    0.833    0.000    5.500    0.000    0.000 
#    0.000    0.000    0.000    0.000    0.000    0.000 
#
# Total GULP energy -595204.504319 kJ/mol
# GULP energy per Si atom -12400.093840 kJ/mol
# Density = 1.874877 g / cm^3
# Si number density = 18.791536 Si / 1000 Ang^3
#
#
#
# Elastic Constant Matrix: (Units=GPa)
#
#
# Indices 1 2 3 4 5 6 
#
# 1 72.5713 26.3894 34.3662 0.0000 0.0000 0.0000
# 2 26.3894 91.6681 51.1600 0.0000 0.0000 0.0000
# 3 34.3662 51.1600 132.0956 0.0000 0.0000 0.0000
# 4 0.0000 0.0000 0.0000 9.7850 0.0000 0.0000
# 5 0.0000 0.0000 0.0000 0.0000 24.4005 0.0000
# 6 0.0000 0.0000 0.0000 0.0000 0.0000 23.2032
#
#
#
# Elastic Compliance Matrix: (Units=1/GPa)
#
#
# Indices 1 2 3 4 5 6 
#
# 1 0.016327 -0.002972 -0.003097 0.000000 0.000000 0.000000
# 2 -0.002972 0.014458 -0.004826 0.000000 0.000000 0.000000
# 3 -0.003097 -0.004826 0.010245 0.000000 0.000000 0.000000
# 4 0.000000 0.000000 0.000000 0.102197 0.000000 0.000000
# 5 0.000000 0.000000 0.000000 0.000000 0.040983 0.000000
# 6 0.000000 0.000000 0.000000 0.000000 0.000000 0.043098
#
#
# Mechanical properties :
#
#
# Convention : Reuss Voigt Hill
#
# Bulk Modulus (GPa) = 51.97468 57.79623 54.88546
# Shear Modulus (GPa) = 19.56870 23.77237 21.67054
#
# Velocity S-wave (km/s) = 3.23051 3.56062 3.39957
# Velocity P-wave (km/s) = 6.45240 6.90850 6.68434
#
# Compressibility (1/GPa) = 0.01924014
#
# Stress axis : x y z
#
# Youngs Moduli (GPa) = 61.24972 69.16548 97.60758
#
# Poissons Ratio (x) = 0.20555 0.30225
# Poissons Ratio (y) = 0.18203 0.47109
# Poissons Ratio (z) = 0.18966 0.33382
#
# Static dielectric constant tensor:
#      x y z
#    x 3.326810 0.000000 0.000000 
#    y 0.000000 3.405960 0.000000 
#    z 0.000000 0.000000 3.454920 
# 
# 
# High freq. dielectric constant tensor:
#      x y z
#    x 1.715940 0.000000 0.000000 
#    y 0.000000 1.725150 0.000000 
#    z 0.000000 0.000000 1.727190 
# 
# From -- ./inp_files/19603.got.cif
#   From: 2010.03.12/outbox.cif.g09.slc.cpg/sg67_10_cif.got.tgz:19603.got - 2010.04.10 22:41:39.
