data_PCOD8280206
_publ_section_title
;
Structure prediction by ZEFSAII (Michael W. Deem and Ramdas Pophale) SiO2 
 PCOD8280206
Probable space group: C M M A
;
_chemical_formula_sum "Si O2"
_cell_formula_units_Z 80
_cell_length_a 8.665317
_cell_length_b 18.934712
_cell_length_c 25.274023
_cell_angle_alpha 90.000000
_cell_angle_beta 90.000000
_cell_angle_gamma 90.000000
_cell_volume 4146.842446
_symmetry_space_group_name_H-M "C M M A"
_symmetry_group_IT_number 67
_symmetry_cell_setting 'orthorhombic'
loop_
_space_group_symop_operation_xyz
x,y,z
-x,1/2-y,z
x,-y,-z
-x,1/2+y,-z
-x,-y,-z
x,1/2+y,-z
-x,y,z
x,1/2-y,z
1/2+x,1/2+y,z
1/2-x,-y,z
1/2+x,1/2-y,-z
1/2-x,y,-z
1/2-x,1/2-y,-z
1/2+x,y,-z
1/2-x,1/2+y,z
1/2+x,-y,z
loop_
_atom_site_type_symbol
_atom_site_label
_atom_site_fract_x
_atom_site_fract_y
_atom_site_fract_z
Si Si1 0.182021 0.425338 0.855820
Si Si2 0.681262 0.575109 0.555585
Si Si3 0.320629 0.168082 0.345337
Si Si4 0.818612 0.925517 0.742863
Si Si5 0.676770 0.333462 0.945175
O O1 0.250000 0.500000 0.874783
O O2 0.248574 0.403182 0.799054
O O3 0.227149 0.365783 0.897366
O O4 0.000000 0.431663 0.851370
O O5 0.500000 0.566336 0.549178
O O6 0.750000 0.500000 0.572977
O O7 0.750000 0.601295 0.500000
O O8 0.726292 0.632569 0.599334
O O9 0.500000 0.155355 0.332570
O O10 0.279502 0.250000 0.349724
O O11 0.219870 0.135250 0.298677
O O12 0.000000 0.934051 0.749101
O O13 0.750000 0.000000 0.722981
O O14 0.500000 0.358679 0.942639
O O15 0.691102 0.250000 0.940102
O O16 0.750000 0.360213 0.000000
#
# Coordination Sequence:
#
# PCOD8280206 Si02
#       5
#    16  16  16  16  16
#     4  11  22  38  60  85 114 147 186 232 282 332
#     4  10  20  35  57  82 109 144 185 229 275 327
#     4  10  22  39  57  81 114 149 185 228 279 331
#     4  11  22  38  60  84 111 145 186 230 278 332
#     4  10  21  38  59  84 115 150 189 231 277 332
#
# _framework density 19.291788
#
# number of rings (size 3 to 8) (size 9 to 14) (size 15 to 20)
#    0.000    1.600    0.000    7.200    0.000    6.400 
#    0.000    2.000    0.000    0.000    0.000    0.000 
#    0.000    0.000    0.000    0.000    0.000    0.000 
#
# Total GULP energy -496226.635334 kJ/mol
# GULP energy per Si atom -12405.665883 kJ/mol
# Density = 1.924788 g / cm^3
# Si number density = 19.291788 Si / 1000 Ang^3
#
#
#
# Elastic Constant Matrix: (Units=GPa)
#
#
# Indices 1 2 3 4 5 6 
#
# 1 153.6528 52.2979 67.1362 0.0000 0.0000 0.0000
# 2 52.2979 93.0562 74.2403 0.0000 0.0000 0.0000
# 3 67.1362 74.2403 130.8752 0.0000 0.0000 0.0000
# 4 0.0000 0.0000 0.0000 -4.7212 0.0000 0.0000
# 5 0.0000 0.0000 0.0000 0.0000 36.2236 0.0000
# 6 0.0000 0.0000 0.0000 0.0000 0.0000 28.8354
#
#
#
# Elastic Compliance Matrix: (Units=1/GPa)
#
#
# Indices 1 2 3 4 5 6 
#
# 1 0.008677 -0.002421 -0.003078 0.000000 0.000000 0.000000
# 2 -0.002421 0.020305 -0.010277 0.000000 0.000000 0.000000
# 3 -0.003078 -0.010277 0.015049 0.000000 0.000000 0.000000
# 4 0.000000 0.000000 0.000000 -0.211808 0.000000 0.000000
# 5 0.000000 0.000000 0.000000 0.000000 0.027606 0.000000
# 6 0.000000 0.000000 0.000000 0.000000 0.000000 0.034680
#
#
# Mechanical properties :
#
#
# Convention : Reuss Voigt Hill
#
# Bulk Modulus (GPa) = 80.12224 84.99255 82.55739
# Shear Modulus (GPa) = -71.65394 24.32819 -23.66288
#
# Velocity S-wave (km/s) = -6.10105 3.55500 -3.50605
# Velocity P-wave (km/s) = 2.82993 7.81042 5.14753
#
# Compressibility (1/GPa) = 0.01248093
#
# Stress axis : x y z
#
# Youngs Moduli (GPa) = 115.24725 49.24782 66.44898
#
# Poissons Ratio (x) = 0.11923 0.20451
# Poissons Ratio (y) = 0.27902 0.68286
# Poissons Ratio (z) = 0.35470 0.50610
#
# Static dielectric constant tensor:
#      x y z
#    x 3.661750 0.000000 0.000000 
#    y 0.000000 3.430480 0.000000 
#    z 0.000000 0.000000 3.620260 
# 
# 
# High freq. dielectric constant tensor:
#      x y z
#    x 1.766290 0.000000 0.000000 
#    y 0.000000 1.744520 0.000000 
#    z 0.000000 0.000000 1.762080 
# 
# From -- ./inp_files/43291.got.cif
#   From: 2010.03.12/outbox.cif.g09.slc.cpg/sg67_22_cif.got.tgz:43291.got - 2010.04.10 22:41:39.
