data_PCOD8280566
_publ_section_title
;
Structure prediction by ZEFSAII (Michael W. Deem and Ramdas Pophale) SiO2 
 PCOD8280566
Probable space group: C M M A
;
_chemical_formula_sum "Si O2"
_cell_formula_units_Z 80
_cell_length_a 18.524120
_cell_length_b 14.484061
_cell_length_c 14.251723
_cell_angle_alpha 90.000000
_cell_angle_beta 90.000000
_cell_angle_gamma 90.000000
_cell_volume 3823.801186
_symmetry_space_group_name_H-M "C M M A"
_symmetry_group_IT_number 67
_symmetry_cell_setting 'orthorhombic'
loop_
_space_group_symop_operation_xyz
x,y,z
-x,1/2-y,z
x,-y,-z
-x,1/2+y,-z
-x,-y,-z
x,1/2+y,-z
-x,y,z
x,1/2-y,z
1/2+x,1/2+y,z
1/2-x,-y,z
1/2+x,1/2-y,-z
1/2-x,y,-z
1/2-x,1/2-y,-z
1/2+x,y,-z
1/2-x,1/2+y,z
1/2+x,-y,z
loop_
_atom_site_type_symbol
_atom_site_label
_atom_site_fract_x
_atom_site_fract_y
_atom_site_fract_z
Si Si1 0.315174 0.859569 0.563080
Si Si2 0.812979 0.857978 0.225503
Si Si3 0.420953 0.140933 0.589823
Si Si4 0.147901 0.356371 0.219373
Si Si5 0.583323 0.513085 0.892695
O O1 0.304866 0.750000 0.570577
O O2 0.250000 0.900238 0.500000
O O3 0.319970 0.898484 0.668762
O O4 0.388150 0.890518 0.509929
O O5 0.832437 0.750000 0.221329
O O6 0.730928 0.876038 0.193014
O O7 0.866832 0.910296 0.156227
O O8 0.500000 0.095263 0.602912
O O9 0.428600 0.250000 0.589084
O O10 0.366683 0.112897 0.673313
O O11 0.127908 0.250000 0.203736
O O12 0.094941 0.413611 0.153555
O O13 0.500000 0.543551 0.882683
O O14 0.606158 0.500000 0.000000
#
# Coordination Sequence:
#
# PCOD8280566 Si02
#       5
#    16  16  16  16  16
#     4   9  15  29  54  86 123 160 198 241 298 366
#     4  10  21  38  65  95 124 161 205 255 310 373
#     4   9  16  27  50  85 120 155 195 240 294 359
#     4  10  20  38  65  92 117 154 205 258 310 369
#     4  11  26  45  62  85 122 164 207 263 323 374
#
# _framework density 20.921590999999999
#
# number of rings (size 3 to 8) (size 9 to 14) (size 15 to 20)
#    0.000    2.200    2.000    1.200    0.000    4.800 
#    0.000    7.000    0.000    2.400    0.000    0.000 
#    0.000    0.000    0.000    0.000    0.000    0.000 
#
# Total GULP energy -495907.939958 kJ/mol
# GULP energy per Si atom -12397.698499 kJ/mol
# Density = 2.087397 g / cm^3
# Si number density = 20.921591 Si / 1000 Ang^3
#
#
#
# Elastic Constant Matrix: (Units=GPa)
#
#
# Indices 1 2 3 4 5 6 
#
# 1 127.5133 32.0454 56.7617 0.0000 0.0000 0.0000
# 2 32.0454 51.8594 32.6787 0.0000 0.0000 0.0000
# 3 56.7617 32.6787 139.5637 0.0000 0.0000 0.0000
# 4 0.0000 0.0000 0.0000 35.8262 0.0000 0.0000
# 5 0.0000 0.0000 0.0000 0.0000 31.9092 0.0000
# 6 0.0000 0.0000 0.0000 0.0000 0.0000 28.4022
#
#
#
# Elastic Compliance Matrix: (Units=1/GPa)
#
#
# Indices 1 2 3 4 5 6 
#
# 1 0.010366 -0.004398 -0.003186 0.000000 0.000000 0.000000
# 2 -0.004398 0.024486 -0.003945 0.000000 0.000000 0.000000
# 3 -0.003186 -0.003945 0.009385 0.000000 0.000000 0.000000
# 4 0.000000 0.000000 0.000000 0.027913 0.000000 0.000000
# 5 0.000000 0.000000 0.000000 0.000000 0.031339 0.000000
# 6 0.000000 0.000000 0.000000 0.000000 0.000000 0.035209
#
#
# Mechanical properties :
#
#
# Convention : Reuss Voigt Hill
#
# Bulk Modulus (GPa) = 47.21573 62.43423 54.82498
# Shear Modulus (GPa) = 29.61846 32.39088 31.00467
#
# Velocity S-wave (km/s) = 3.76665 3.93899 3.85378
# Velocity P-wave (km/s) = 6.44467 7.11297 6.78705
#
# Compressibility (1/GPa) = 0.02117938
#
# Stress axis : x y z
#
# Youngs Moduli (GPa) = 96.47134 40.83951 106.55637
#
# Poissons Ratio (x) = 0.17959 0.33951
# Poissons Ratio (y) = 0.42424 0.42035
# Poissons Ratio (z) = 0.30737 0.16111
#
# Static dielectric constant tensor:
#      x y z
#    x 3.900370 0.000000 0.000000 
#    y 0.000000 3.521410 0.000000 
#    z 0.000000 0.000000 3.809240 
# 
# 
# High freq. dielectric constant tensor:
#      x y z
#    x 1.823830 0.000000 0.000000 
#    y 0.000000 1.802640 0.000000 
#    z 0.000000 0.000000 1.814120 
# 
# From -- ./inp_files/28404.got.cif
#   From: 2010.03.12/outbox.cif.g09.slc.cpg/sg67_15_cif.got.tgz:28404.got - 2010.04.10 22:41:39.
