data_PCOD8280490
_publ_section_title
;
Structure prediction by ZEFSAII (Michael W. Deem and Ramdas Pophale) SiO2 
 PCOD8280490
Probable space group: C M M A
;
_chemical_formula_sum "Si O2"
_cell_formula_units_Z 112
_cell_length_a 24.407869
_cell_length_b 14.473528
_cell_length_c 14.758022
_cell_angle_alpha 90.000000
_cell_angle_beta 90.000000
_cell_angle_gamma 90.000000
_cell_volume 5213.536553
_symmetry_space_group_name_H-M "C M M A"
_symmetry_group_IT_number 67
_symmetry_cell_setting 'orthorhombic'
loop_
_space_group_symop_operation_xyz
x,y,z
-x,1/2-y,z
x,-y,-z
-x,1/2+y,-z
-x,-y,-z
x,1/2+y,-z
-x,y,z
x,1/2-y,z
1/2+x,1/2+y,z
1/2-x,-y,z
1/2+x,1/2-y,-z
1/2-x,y,-z
1/2-x,1/2-y,-z
1/2+x,y,-z
1/2-x,1/2+y,z
1/2+x,-y,z
loop_
_atom_site_type_symbol
_atom_site_label
_atom_site_fract_x
_atom_site_fract_y
_atom_site_fract_z
Si Si1 0.901385 0.642999 0.483578
Si Si2 0.148477 0.855439 0.888319
Si Si3 0.853933 0.355630 0.904068
Si Si4 0.745594 0.360080 0.217111
Si Si5 0.564823 0.499373 0.165222
Si Si6 0.719618 0.643805 0.585002
Si Si7 0.939078 0.516701 0.629413
O O1 0.920138 0.750000 0.491246
O O2 0.844530 0.634260 0.431081
O O3 0.899638 0.594557 0.583188
O O4 0.942575 0.580576 0.424808
O O5 0.137085 0.750000 0.862125
O O6 0.197489 0.896289 0.825856
O O7 0.091491 0.907780 0.873615
O O8 0.165968 0.865832 0.992712
O O9 0.867168 0.250000 0.879419
O O10 0.805106 0.396574 0.842695
O O11 0.909595 0.411591 0.885827
O O12 0.744621 0.250000 0.215023
O O13 0.737974 0.400420 0.319045
O O14 0.500000 0.500529 0.147527
O O15 0.581147 0.494147 0.270434
O O16 0.738285 0.750000 0.588473
O O17 0.750000 0.594835 0.500000
O O18 0.000000 0.559274 0.631662
#
# Coordination Sequence:
#
# PCOD8280490 Si02
#       7
#    16  16  16  16  16  16  16
#     4  10  20  37  62  85 116 158 200 249 299 350
#     4  10  22  39  64  92 122 163 205 253 315 377
#     4  10  21  40  65  92 120 158 208 259 316 374
#     4   9  18  35  60  91 127 157 197 254 306 366
#     4  11  25  42  60  87 126 165 206 261 313 367
#     4   9  18  31  53  87 120 154 190 229 286 358
#     4  10  23  40  57  85 119 154 207 258 298 357
#
# _framework density 21.482538999999999
#
# number of rings (size 3 to 8) (size 9 to 14) (size 15 to 20)
#    0.000    2.143    0.000    2.571    2.000    7.429 
#    0.000    7.143    0.000    0.000    0.000    0.000 
#    0.000    0.000    0.000    0.000    0.000    0.000 
#
# Total GULP energy -694255.425429 kJ/mol
# GULP energy per Si atom -12397.418311 kJ/mol
# Density = 2.143364 g / cm^3
# Si number density = 21.482539 Si / 1000 Ang^3
#
#
#
# Elastic Constant Matrix: (Units=GPa)
#
#
# Indices 1 2 3 4 5 6 
#
# 1 117.6646 45.8931 59.4218 0.0000 0.0000 0.0000
# 2 45.8931 106.7794 29.5033 0.0000 0.0000 0.0000
# 3 59.4218 29.5033 131.6775 0.0000 0.0000 0.0000
# 4 0.0000 0.0000 0.0000 19.7143 0.0000 0.0000
# 5 0.0000 0.0000 0.0000 0.0000 36.3200 0.0000
# 6 0.0000 0.0000 0.0000 0.0000 0.0000 22.7603
#
#
#
# Elastic Compliance Matrix: (Units=1/GPa)
#
#
# Indices 1 2 3 4 5 6 
#
# 1 0.012461 -0.004053 -0.004715 0.000000 0.000000 0.000000
# 2 -0.004053 0.011301 -0.000703 0.000000 0.000000 0.000000
# 3 -0.004715 -0.000703 0.009880 0.000000 0.000000 0.000000
# 4 0.000000 0.000000 0.000000 0.050725 0.000000 0.000000
# 5 0.000000 0.000000 0.000000 0.000000 0.027533 0.000000
# 6 0.000000 0.000000 0.000000 0.000000 0.000000 0.043936
#
#
# Mechanical properties :
#
#
# Convention : Reuss Voigt Hill
#
# Bulk Modulus (GPa) = 68.02975 69.52864 68.77919
# Shear Modulus (GPa) = 27.82771 30.51247 29.17009
#
# Velocity S-wave (km/s) = 3.60302 3.77283 3.68890
# Velocity P-wave (km/s) = 7.00323 7.17038 7.08730
#
# Compressibility (1/GPa) = 0.01469945
#
# Stress axis : x y z
#
# Youngs Moduli (GPa) = 80.25337 88.48585 101.21851
#
# Poissons Ratio (x) = 0.35861 0.47725
# Poissons Ratio (y) = 0.32524 0.07118
# Poissons Ratio (z) = 0.37839 0.06223
#
# Static dielectric constant tensor:
#      x y z
#    x 7.003900 0.000000 0.000000 
#    y 0.000000 3.714910 0.000000 
#    z 0.000000 0.000000 4.175160 
# 
# 
# High freq. dielectric constant tensor:
#      x y z
#    x 1.833880 0.000000 0.000000 
#    y 0.000000 1.834140 0.000000 
#    z 0.000000 0.000000 1.857040 
# 
# From -- ./inp_files/30130.got.cif
#   From: 2010.03.12/outbox.cif.g09.slc.cpg/sg67_16_cif.got.tgz:30130.got - 2010.04.10 22:41:39.
