data_PCOD8280811
_publ_section_title
;
Structure prediction by ZEFSAII (Michael W. Deem and Ramdas Pophale) SiO2 
 PCOD8280811
Probable space group: C M M A
;
_chemical_formula_sum "Si O2"
_cell_formula_units_Z 52
_cell_length_a 32.457208
_cell_length_b 13.756906
_cell_length_c 6.582592
_cell_angle_alpha 90.000000
_cell_angle_beta 90.000000
_cell_angle_gamma 90.000000
_cell_volume 2939.198153
_symmetry_space_group_name_H-M "C M M A"
_symmetry_group_IT_number 67
_symmetry_cell_setting 'orthorhombic'
loop_
_space_group_symop_operation_xyz
x,y,z
-x,1/2-y,z
x,-y,-z
-x,1/2+y,-z
-x,-y,-z
x,1/2+y,-z
-x,y,z
x,1/2-y,z
1/2+x,1/2+y,z
1/2-x,-y,z
1/2+x,1/2-y,-z
1/2-x,y,-z
1/2-x,1/2-y,-z
1/2+x,y,-z
1/2-x,1/2+y,z
1/2+x,-y,z
loop_
_atom_site_type_symbol
_atom_site_label
_atom_site_fract_x
_atom_site_fract_y
_atom_site_fract_z
Si Si1 0.652990 0.750000 0.782242
Si Si2 0.000000 0.250000 0.138050
Si Si3 0.055845 0.750000 0.240083
Si Si4 0.705142 0.250000 0.602316
Si Si5 0.000000 0.115530 0.513203
Si Si6 0.204450 0.113033 0.042580
O O1 0.604315 0.750000 0.775346
O O2 0.668540 0.750000 0.555039
O O3 0.669912 0.655202 0.894922
O O4 0.000000 0.345009 0.282143
O O5 0.960151 0.250000 0.992013
O O6 0.039950 0.845232 0.363117
O O7 0.750000 0.250000 0.500000
O O8 0.696976 0.349474 0.728772
O O9 0.000000 0.000000 0.500000
O O10 0.250000 0.154282 0.000000
O O11 0.202504 0.000000 0.000000
#
# Coordination Sequence:
#
# PCOD8280811 Si02
#       6
#     8   4   8   8   8  16
#     4  11  21  39  55  86 120 146 194 248 282 340
#     4   8  18  40  64  76 120 154 170 226 292 342
#     4   9  21  37  58  90 114 148 189 232 291 341
#     4  11  19  37  61  75 112 162 187 239 298 323
#     4   9  19  39  62  88 114 149 191 223 280 366
#     4  10  21  37  55  81 114 155 202 235 281 351
#
# _framework density 17.691901999999999
#
# number of rings (size 3 to 8) (size 9 to 14) (size 15 to 20)
#    0.000    2.462    3.077    0.923    0.000    8.615 
#   11.077    0.000    0.000    0.000    0.000    0.000 
#    0.000    0.000    0.000    0.000    0.000    0.000 
#
# Total GULP energy -322172.102268 kJ/mol
# GULP energy per Si atom -12391.234703 kJ/mol
# Density = 1.765163 g / cm^3
# Si number density = 17.691902 Si / 1000 Ang^3
#
#
#
# Elastic Constant Matrix: (Units=GPa)
#
#
# Indices 1 2 3 4 5 6 
#
# 1 182.4120 51.0969 70.9204 0.0000 0.0000 0.0000
# 2 51.0969 157.0336 64.1632 0.0000 0.0000 0.0000
# 3 70.9204 64.1632 162.4081 0.0000 0.0000 0.0000
# 4 0.0000 0.0000 0.0000 7.8955 0.0000 0.0000
# 5 0.0000 0.0000 0.0000 0.0000 21.6874 0.0000
# 6 0.0000 0.0000 0.0000 0.0000 0.0000 19.8452
#
#
#
# Elastic Compliance Matrix: (Units=1/GPa)
#
#
# Indices 1 2 3 4 5 6 
#
# 1 0.006784 -0.001189 -0.002493 0.000000 0.000000 0.000000
# 2 -0.001189 0.007802 -0.002563 0.000000 0.000000 0.000000
# 3 -0.002493 -0.002563 0.008259 0.000000 0.000000 0.000000
# 4 0.000000 0.000000 0.000000 0.126654 0.000000 0.000000
# 5 0.000000 0.000000 0.000000 0.000000 0.046110 0.000000
# 6 0.000000 0.000000 0.000000 0.000000 0.000000 0.050390
#
#
# Mechanical properties :
#
#
# Convention : Reuss Voigt Hill
#
# Bulk Modulus (GPa) = 96.57164 97.13496 96.85330
# Shear Modulus (GPa) = 19.08827 30.93050 25.00939
#
# Velocity S-wave (km/s) = 3.28827 4.18579 3.76387
# Velocity P-wave (km/s) = 8.31388 8.85347 8.58791
#
# Compressibility (1/GPa) = 0.01035501
#
# Stress axis : x y z
#
# Youngs Moduli (GPa) = 147.39798 128.16755 121.08600
#
# Poissons Ratio (x) = 0.15239 0.30185
# Poissons Ratio (y) = 0.17525 0.31038
# Poissons Ratio (z) = 0.36744 0.32853
#
# Static dielectric constant tensor:
#      x y z
#    x 3.190600 0.000000 0.000000 
#    y 0.000000 3.037670 0.000000 
#    z 0.000000 0.000000 3.308650 
# 
# 
# High freq. dielectric constant tensor:
#      x y z
#    x 1.672590 0.000000 0.000000 
#    y 0.000000 1.679580 0.000000 
#    z 0.000000 0.000000 1.701290 
# 
# From -- ./inp_files/1464.got.cif
#   From: 2010.03.12/outbox.cif.g09.slc.cpg/sg67_1_cif.got.tgz:1464.got - 2010.04.10 22:41:39.
