data_PCOD8280211
_publ_section_title
;
Structure prediction by ZEFSAII (Michael W. Deem and Ramdas Pophale) SiO2 
 PCOD8280211
Probable space group: C M M A
;
_chemical_formula_sum "Si O2"
_cell_formula_units_Z 80
_cell_length_a 18.321179
_cell_length_b 8.946635
_cell_length_c 25.629921
_cell_angle_alpha 90.000000
_cell_angle_beta 90.000000
_cell_angle_gamma 90.000000
_cell_volume 4201.074711
_symmetry_space_group_name_H-M "C M M A"
_symmetry_group_IT_number 67
_symmetry_cell_setting 'orthorhombic'
loop_
_space_group_symop_operation_xyz
x,y,z
-x,1/2-y,z
x,-y,-z
-x,1/2+y,-z
-x,-y,-z
x,1/2+y,-z
-x,y,z
x,1/2-y,z
1/2+x,1/2+y,z
1/2-x,-y,z
1/2+x,1/2-y,-z
1/2-x,y,-z
1/2-x,1/2-y,-z
1/2+x,y,-z
1/2-x,1/2+y,z
1/2+x,-y,z
loop_
_atom_site_type_symbol
_atom_site_label
_atom_site_fract_x
_atom_site_fract_y
_atom_site_fract_z
Si Si1 0.913700 0.086400 0.951025
Si Si2 0.916060 0.427089 0.835587
Si Si3 0.674071 0.925110 0.553097
Si Si4 0.914925 0.578561 0.345067
Si Si5 0.172035 0.573487 0.744550
O O1 0.878602 0.250000 0.952687
O O2 0.897120 0.015293 0.894225
O O3 0.000000 0.097111 0.958201
O O4 0.878285 0.000000 0.000000
O O5 0.902919 0.250000 0.830744
O O6 0.862927 0.515762 0.797908
O O7 0.000000 0.464145 0.821485
O O8 0.686745 0.750000 0.543790
O O9 0.615207 0.956465 0.597631
O O10 0.644581 0.000000 0.500000
O O11 0.750000 0.000000 0.570257
O O12 0.898603 0.750000 0.328936
O O13 0.878953 0.468786 0.303671
O O14 0.000000 0.544753 0.345966
O O15 0.181179 0.750000 0.747376
O O16 0.250000 0.500000 0.735631
#
# Coordination Sequence:
#
# PCOD8280211 Si02
#       5
#    16  16  16  16  16
#     4   8  14  25  44  72 105 140 175 212 258 311
#     4   9  18  34  55  79 110 145 178 218 270 322
#     4  10  20  35  57  83 112 148 186 223 265 314
#     4  10  22  40  60  83 113 146 179 221 274 325
#     4  12  25  39  57  80 106 140 182 226 273 325
#
# _framework density 19.042746999999999
#
# number of rings (size 3 to 8) (size 9 to 14) (size 15 to 20)
#    0.000    2.200    0.000    5.400    0.000    7.600 
#    0.000    2.000    0.000    0.600    0.000    4.200 
#    0.000    0.000    0.000    0.000    0.000    0.000 
#
# Total GULP energy -495942.503559 kJ/mol
# GULP energy per Si atom -12398.562589 kJ/mol
# Density = 1.899940 g / cm^3
# Si number density = 19.042747 Si / 1000 Ang^3
#
#
#
# Elastic Constant Matrix: (Units=GPa)
#
#
# Indices 1 2 3 4 5 6 
#
# 1 87.5333 44.2662 61.7569 0.0000 0.0000 0.0000
# 2 44.2662 102.6489 61.6673 0.0000 0.0000 0.0000
# 3 61.7569 61.6673 139.4252 0.0000 0.0000 0.0000
# 4 0.0000 0.0000 0.0000 37.8691 0.0000 0.0000
# 5 0.0000 0.0000 0.0000 0.0000 -1.3321 0.0000
# 6 0.0000 0.0000 0.0000 0.0000 0.0000 23.1079
#
#
#
# Elastic Compliance Matrix: (Units=1/GPa)
#
#
# Indices 1 2 3 4 5 6 
#
# 1 0.017741 -0.003990 -0.006093 0.000000 0.000000 0.000000
# 2 -0.003990 0.014165 -0.004498 0.000000 0.000000 0.000000
# 3 -0.006093 -0.004498 0.011861 0.000000 0.000000 0.000000
# 4 0.000000 0.000000 0.000000 0.026407 0.000000 0.000000
# 5 0.000000 0.000000 0.000000 0.000000 -0.750701 0.000000
# 6 0.000000 0.000000 0.000000 0.000000 0.000000 0.043275
#
#
# Mechanical properties :
#
#
# Convention : Reuss Voigt Hill
#
# Bulk Modulus (GPa) = 68.47363 73.88758 71.18061
# Shear Modulus (GPa) = -8.28881 22.72346 7.21733
#
# Velocity S-wave (km/s) = -2.08858 3.45815 1.94892
# Velocity P-wave (km/s) = 5.49724 7.40474 6.52111
#
# Compressibility (1/GPa) = 0.01460416
#
# Stress axis : x y z
#
# Youngs Moduli (GPa) = 56.36652 70.59870 84.31253
#
# Poissons Ratio (x) = 0.28168 0.51376
# Poissons Ratio (y) = 0.22490 0.37921
# Poissons Ratio (z) = 0.34347 0.31753
#
# Static dielectric constant tensor:
#      x y z
#    x 3.270530 0.000000 0.000000 
#    y 0.000000 3.581400 0.000000 
#    z 0.000000 0.000000 3.736840 
# 
# 
# High freq. dielectric constant tensor:
#      x y z
#    x 1.716310 0.000000 0.000000 
#    y 0.000000 1.737090 0.000000 
#    z 0.000000 0.000000 1.760170 
# 
# From -- ./inp_files/44422.got.cif
#   From: 2010.03.12/outbox.cif.g09.slc.cpg/sg67_23_cif.got.tgz:44422.got - 2010.04.10 22:41:39.
