data_PCOD8280577
_publ_section_title
;
Structure prediction by ZEFSAII (Michael W. Deem and Ramdas Pophale) SiO2 
 PCOD8280577
Probable space group: C M M A
;
_chemical_formula_sum "Si O2"
_cell_formula_units_Z 112
_cell_length_a 16.995504
_cell_length_b 21.936166
_cell_length_c 15.241427
_cell_angle_alpha 90.000000
_cell_angle_beta 90.000000
_cell_angle_gamma 90.000000
_cell_volume 5682.250851
_symmetry_space_group_name_H-M "C M M A"
_symmetry_group_IT_number 67
_symmetry_cell_setting 'orthorhombic'
loop_
_space_group_symop_operation_xyz
x,y,z
-x,1/2-y,z
x,-y,-z
-x,1/2+y,-z
-x,-y,-z
x,1/2+y,-z
-x,y,z
x,1/2-y,z
1/2+x,1/2+y,z
1/2-x,-y,z
1/2+x,1/2-y,-z
1/2-x,y,-z
1/2-x,1/2-y,-z
1/2+x,y,-z
1/2-x,1/2+y,z
1/2+x,-y,z
loop_
_atom_site_type_symbol
_atom_site_label
_atom_site_fract_x
_atom_site_fract_y
_atom_site_fract_z
Si Si1 0.227595 0.179072 0.743597
Si Si2 0.806234 0.181941 0.082848
Si Si3 0.909907 0.084542 0.020276
Si Si4 0.589849 0.092380 0.282720
Si Si5 0.680439 0.319047 0.568199
Si Si6 0.159102 0.018343 0.867113
Si Si7 0.089223 0.067385 0.513369
O O1 0.213237 0.250000 0.753918
O O2 0.265584 0.150757 0.832045
O O3 0.140570 0.152583 0.732949
O O4 0.285282 0.163645 0.663221
O O5 0.829662 0.250000 0.108737
O O6 0.888119 0.149603 0.060426
O O7 0.750000 0.179352 0.000000
O O8 0.000000 0.083287 0.990215
O O9 0.894967 0.035856 0.096803
O O10 0.853442 0.073499 0.936200
O O11 0.500000 0.103997 0.252670
O O12 0.627854 0.036302 0.228899
O O13 0.594806 0.078301 0.384280
O O14 0.640871 0.250000 0.570223
O O15 0.750000 0.315534 0.500000
O O16 0.625186 0.375395 0.540213
O O17 0.250000 0.000000 0.863252
O O18 0.000000 0.064111 0.479460
O O19 0.129057 0.000000 0.500000
#
# Coordination Sequence:
#
# PCOD8280577 Si02
#       7
#    16  16  16  16  16  16  16
#     4  10  21  38  60  87 116 153 199 245 291 351
#     4  10  21  38  58  82 116 152 187 232 288 351
#     4  11  21  36  58  82 111 148 191 241 289 335
#     4  11  22  37  57  85 118 150 190 241 298 359
#     4  10  20  39  62  86 115 152 205 254 297 360
#     4  11  22  37  57  82 113 149 194 237 284 347
#     4  10  23  40  57  84 123 158 193 248 314 371
#
# _framework density 19.710498000000001
#
# number of rings (size 3 to 8) (size 9 to 14) (size 15 to 20)
#    0.000    1.571    1.429    5.143    0.000    3.429 
#    0.000    3.571    0.000    6.857    0.000    0.000 
#    0.000    0.000    0.000    0.000    0.000    0.000 
#
# Total GULP energy -694122.963912 kJ/mol
# GULP energy per Si atom -12395.052927 kJ/mol
# Density = 1.966564 g / cm^3
# Si number density = 19.710498 Si / 1000 Ang^3
#
#
#
# Elastic Constant Matrix: (Units=GPa)
#
#
# Indices 1 2 3 4 5 6 
#
# 1 127.2928 62.6693 50.9232 0.0000 0.0000 0.0000
# 2 62.6693 108.6436 41.6181 0.0000 0.0000 0.0000
# 3 50.9232 41.6181 116.5462 0.0000 0.0000 0.0000
# 4 0.0000 0.0000 0.0000 37.1108 0.0000 0.0000
# 5 0.0000 0.0000 0.0000 0.0000 26.0622 0.0000
# 6 0.0000 0.0000 0.0000 0.0000 0.0000 28.6440
#
#
#
# Elastic Compliance Matrix: (Units=1/GPa)
#
#
# Indices 1 2 3 4 5 6 
#
# 1 0.011913 -0.005651 -0.003187 0.000000 0.000000 0.000000
# 2 -0.005651 0.013343 -0.002296 0.000000 0.000000 0.000000
# 3 -0.003187 -0.002296 0.010793 0.000000 0.000000 0.000000
# 4 0.000000 0.000000 0.000000 0.026946 0.000000 0.000000
# 5 0.000000 0.000000 0.000000 0.000000 0.038370 0.000000
# 6 0.000000 0.000000 0.000000 0.000000 0.000000 0.034911
#
#
# Mechanical properties :
#
#
# Convention : Reuss Voigt Hill
#
# Bulk Modulus (GPa) = 72.56245 73.65600 73.10923
# Shear Modulus (GPa) = 30.64879 31.51486 31.08183
#
# Velocity S-wave (km/s) = 3.94756 4.00295 3.97535
# Velocity P-wave (km/s) = 7.59419 7.66908 7.63173
#
# Compressibility (1/GPa) = 0.01378123
#
# Stress axis : x y z
#
# Youngs Moduli (GPa) = 83.94157 74.94295 92.65458
#
# Poissons Ratio (x) = 0.42349 0.29532
# Poissons Ratio (y) = 0.47434 0.21272
# Poissons Ratio (z) = 0.26755 0.17206
#
# Static dielectric constant tensor:
#      x y z
#    x 3.035050 0.000000 0.000000 
#    y 0.000000 3.894740 0.000000 
#    z 0.000000 0.000000 3.811320 
# 
# 
# High freq. dielectric constant tensor:
#      x y z
#    x 1.752440 0.000000 0.000000 
#    y 0.000000 1.776710 0.000000 
#    z 0.000000 0.000000 1.780100 
# 
# From -- ./inp_files/27490.got.cif
#   From: 2010.03.12/outbox.cif.g09.slc.cpg/sg67_14_cif.got.tgz:27490.got - 2010.04.10 22:41:39.
