data_PCOD8280399
_publ_section_title
;
Structure prediction by ZEFSAII (Michael W. Deem and Ramdas Pophale) SiO2 
 PCOD8280399
Probable space group: C M M A
;
_chemical_formula_sum "Si O2"
_cell_formula_units_Z 72
_cell_length_a 8.784791
_cell_length_b 14.646978
_cell_length_c 28.486092
_cell_angle_alpha 90.000000
_cell_angle_beta 90.000000
_cell_angle_gamma 90.000000
_cell_volume 3665.323703
_symmetry_space_group_name_H-M "C M M A"
_symmetry_group_IT_number 67
_symmetry_cell_setting 'orthorhombic'
loop_
_space_group_symop_operation_xyz
x,y,z
-x,1/2-y,z
x,-y,-z
-x,1/2+y,-z
-x,-y,-z
x,1/2+y,-z
-x,y,z
x,1/2-y,z
1/2+x,1/2+y,z
1/2-x,-y,z
1/2+x,1/2-y,-z
1/2-x,y,-z
1/2-x,1/2-y,-z
1/2+x,y,-z
1/2-x,1/2+y,z
1/2+x,-y,z
loop_
_atom_site_type_symbol
_atom_site_label
_atom_site_fract_x
_atom_site_fract_y
_atom_site_fract_z
Si Si1 0.670094 0.357856 0.046475
Si Si2 0.679787 0.406179 0.856650
Si Si3 0.677648 0.750000 0.449424
Si Si4 0.675343 0.750000 0.687399
Si Si5 0.319459 0.600970 0.375032
Si Si6 0.675000 0.750000 0.798219
O O1 0.500000 0.399221 0.051467
O O2 0.659880 0.250000 0.042741
O O3 0.770782 0.384802 0.090578
O O4 0.750000 0.398440 0.000000
O O5 0.500000 0.408037 0.854782
O O6 0.750000 0.500000 0.839473
O O7 0.741705 0.336607 0.818883
O O8 0.500000 0.750000 0.456632
O O9 0.750000 0.750000 0.500000
O O10 0.726942 0.841473 0.421441
O O11 0.500000 0.750000 0.671314
O O12 0.755029 0.842529 0.669100
O O13 0.691730 0.750000 0.742825
O O14 0.500000 0.593061 0.369579
O O15 0.250000 0.500000 0.377850
O O16 0.500000 0.750000 0.814662
#
# Coordination Sequence:
#
# PCOD8280399 Si02
#       6
#    16  16   8   8  16   8
#     4  10  20  36  60  87 119 153 191 236 284 342
#     4  12  25  41  63  89 119 155 195 237 290 349
#     4   9  20  36  55  84 122 165 208 253 299 352
#     4  10  22  40  64  89 116 153 195 245 303 359
#     4  10  21  38  60  88 122 159 204 252 301 354
#     4  11  24  44  65  89 120 152 192 242 298 357
#
# _framework density 19.643557999999999
#
# number of rings (size 3 to 8) (size 9 to 14) (size 15 to 20)
#    0.000    1.556    1.111    4.667    0.000    7.111 
#    0.000    4.444    0.000    0.000    0.000    0.000 
#    0.000    0.000    0.000    0.000    0.000    0.000 
#
# Total GULP energy -446455.466903 kJ/mol
# GULP energy per Si atom -12401.540747 kJ/mol
# Density = 1.959885 g / cm^3
# Si number density = 19.643558 Si / 1000 Ang^3
#
#
#
# Elastic Constant Matrix: (Units=GPa)
#
#
# Indices 1 2 3 4 5 6 
#
# 1 176.1598 70.6808 72.6061 0.0000 0.0000 0.0000
# 2 70.6808 137.9969 63.3611 0.0000 0.0000 0.0000
# 3 72.6061 63.3611 116.1724 0.0000 0.0000 0.0000
# 4 0.0000 0.0000 0.0000 24.9805 0.0000 0.0000
# 5 0.0000 0.0000 0.0000 0.0000 11.8059 0.0000
# 6 0.0000 0.0000 0.0000 0.0000 0.0000 36.1402
#
#
#
# Elastic Compliance Matrix: (Units=1/GPa)
#
#
# Indices 1 2 3 4 5 6 
#
# 1 0.008234 -0.002474 -0.003797 0.000000 0.000000 0.000000
# 2 -0.002474 0.010411 -0.004132 0.000000 0.000000 0.000000
# 3 -0.003797 -0.004132 0.013234 0.000000 0.000000 0.000000
# 4 0.000000 0.000000 0.000000 0.040031 0.000000 0.000000
# 5 0.000000 0.000000 0.000000 0.000000 0.084704 0.000000
# 6 0.000000 0.000000 0.000000 0.000000 0.000000 0.027670
#
#
# Mechanical properties :
#
#
# Convention : Reuss Voigt Hill
#
# Bulk Modulus (GPa) = 90.30313 93.73611 92.01962
# Shear Modulus (GPa) = 23.94847 29.49739 26.72293
#
# Velocity S-wave (km/s) = 3.49542 3.87929 3.69235
# Velocity P-wave (km/s) = 7.89692 8.23938 8.06996
#
# Compressibility (1/GPa) = 0.01107381
#
# Stress axis : x y z
#
# Youngs Moduli (GPa) = 121.44298 96.05280 75.56053
#
# Poissons Ratio (x) = 0.23765 0.28689
# Poissons Ratio (y) = 0.30048 0.31220
# Poissons Ratio (z) = 0.46110 0.39688
#
# Static dielectric constant tensor:
#      x y z
#    x 3.848750 0.000000 0.000000 
#    y 0.000000 3.768850 0.000000 
#    z 0.000000 0.000000 3.086960 
# 
# 
# High freq. dielectric constant tensor:
#      x y z
#    x 1.785220 0.000000 0.000000 
#    y 0.000000 1.773840 0.000000 
#    z 0.000000 0.000000 1.763520 
# 
# From -- ./inp_files/43163.got.cif
#   From: 2010.03.12/outbox.cif.g09.slc.cpg/sg67_22_cif.got.tgz:43163.got - 2010.04.10 22:41:39.
