data_PCOD8280451
_publ_section_title
;
Structure prediction by ZEFSAII (Michael W. Deem and Ramdas Pophale) SiO2 
 PCOD8280451
Probable space group: C M M A
;
_chemical_formula_sum "Si O2"
_cell_formula_units_Z 96
_cell_length_a 8.791972
_cell_length_b 30.280571
_cell_length_c 18.564946
_cell_angle_alpha 90.000000
_cell_angle_beta 90.000000
_cell_angle_gamma 90.000000
_cell_volume 4942.470058
_symmetry_space_group_name_H-M "C M M A"
_symmetry_group_IT_number 67
_symmetry_cell_setting 'orthorhombic'
loop_
_space_group_symop_operation_xyz
x,y,z
-x,1/2-y,z
x,-y,-z
-x,1/2+y,-z
-x,-y,-z
x,1/2+y,-z
-x,y,z
x,1/2-y,z
1/2+x,1/2+y,z
1/2-x,-y,z
1/2+x,1/2-y,-z
1/2-x,y,-z
1/2-x,1/2-y,-z
1/2+x,y,-z
1/2-x,1/2+y,z
1/2+x,-y,z
loop_
_atom_site_type_symbol
_atom_site_label
_atom_site_fract_x
_atom_site_fract_y
_atom_site_fract_z
Si Si1 0.318611 0.870407 0.923981
Si Si2 0.678743 0.545904 0.313405
Si Si3 0.179372 0.880805 0.575335
Si Si4 0.180222 0.453556 0.149079
Si Si5 0.680630 0.798702 0.810922
Si Si6 0.822812 0.300759 0.649079
O O1 0.500000 0.871541 0.927537
O O2 0.255256 0.917902 0.902752
O O3 0.256342 0.834759 0.866416
O O4 0.250000 0.855913 0.000000
O O5 0.500000 0.540570 0.319617
O O6 0.750000 0.500000 0.339853
O O7 0.739346 0.585310 0.363783
O O8 0.727176 0.556831 0.231509
O O9 0.250000 0.895788 0.500000
O O10 0.230000 0.831326 0.594672
O O11 0.000000 0.882228 0.568590
O O12 0.250000 0.500000 0.124917
O O13 0.000000 0.454006 0.138265
O O14 0.500000 0.798098 0.811211
O O15 0.741289 0.750000 0.833122
O O16 0.735990 0.810221 0.730261
O O17 0.791509 0.250000 0.628181
O O18 0.000000 0.312078 0.641813
#
# Coordination Sequence:
#
# PCOD8280451 Si02
#       6
#    16  16  16  16  16  16
#     4  11  22  35  53  79 111 146 180 216 263 315
#     4   9  20  37  58  82 107 137 175 220 266 315
#     4  11  23  37  53  78 111 145 179 216 263 316
#     4  10  20  37  59  82 107 136 175 221 268 317
#     4   8  16  33  57  82 107 138 178 221 264 314
#     4   9  18  35  59  83 105 135 178 224 268 315
#
# _framework density 19.423487000000002
#
# number of rings (size 3 to 8) (size 9 to 14) (size 15 to 20)
#    0.000    2.333    0.000    3.500    0.000    3.667 
#    0.000    4.167    0.000    3.500    0.000    0.000 
#    0.000    0.000    0.000    0.000    0.000    0.000 
#
# Total GULP energy -595307.069559 kJ/mol
# GULP energy per Si atom -12402.230616 kJ/mol
# Density = 1.937928 g / cm^3
# Si number density = 19.423487 Si / 1000 Ang^3
#
#
#
# Elastic Constant Matrix: (Units=GPa)
#
#
# Indices 1 2 3 4 5 6 
#
# 1 51.7136 20.4177 16.1882 0.0000 0.0000 0.0000
# 2 20.4177 79.8946 21.6681 0.0000 0.0000 0.0000
# 3 16.1882 21.6681 59.9854 0.0000 0.0000 0.0000
# 4 0.0000 0.0000 0.0000 21.0211 0.0000 0.0000
# 5 0.0000 0.0000 0.0000 0.0000 29.1415 0.0000
# 6 0.0000 0.0000 0.0000 0.0000 0.0000 25.2202
#
#
#
# Elastic Compliance Matrix: (Units=1/GPa)
#
#
# Indices 1 2 3 4 5 6 
#
# 1 0.022523 -0.004554 -0.004433 0.000000 0.000000 0.000000
# 2 -0.004554 0.014796 -0.004116 0.000000 0.000000 0.000000
# 3 -0.004433 -0.004116 0.019354 0.000000 0.000000 0.000000
# 4 0.000000 0.000000 0.000000 0.047571 0.000000 0.000000
# 5 0.000000 0.000000 0.000000 0.000000 0.034315 0.000000
# 6 0.000000 0.000000 0.000000 0.000000 0.000000 0.039651
#
#
# Mechanical properties :
#
#
# Convention : Reuss Voigt Hill
#
# Bulk Modulus (GPa) = 32.82182 34.23795 33.52989
# Shear Modulus (GPa) = 23.30216 23.96452 23.63334
#
# Velocity S-wave (km/s) = 3.46741 3.51635 3.49196
# Velocity P-wave (km/s) = 5.74154 5.84394 5.79297
#
# Compressibility (1/GPa) = 0.03046753
#
# Stress axis : x y z
#
# Youngs Moduli (GPa) = 44.39924 67.58367 51.66907
#
# Poissons Ratio (x) = 0.30774 0.22907
# Poissons Ratio (y) = 0.20217 0.21267
# Poissons Ratio (z) = 0.19684 0.27817
#
# Static dielectric constant tensor:
#      x y z
#    x 3.309360 0.000000 0.000000 
#    y 0.000000 3.724140 0.000000 
#    z 0.000000 0.000000 3.639410 
# 
# 
# High freq. dielectric constant tensor:
#      x y z
#    x 1.741150 0.000000 0.000000 
#    y 0.000000 1.765220 0.000000 
#    z 0.000000 0.000000 1.756040 
# 
# From -- ./inp_files/37162.got.cif
#   From: 2010.03.12/outbox.cif.g09.slc.cpg/sg67_19_cif.got.tgz:37162.got - 2010.04.10 22:41:39.
