data_PCOD8280991
_publ_section_title
;
Structure prediction by ZEFSAII (Michael W. Deem and Ramdas Pophale) SiO2 
 PCOD8280991
Probable space group: C M M A
;
_chemical_formula_sum "Si O2"
_cell_formula_units_Z 96
_cell_length_a 16.586438
_cell_length_b 25.778906
_cell_length_c 10.232093
_cell_angle_alpha 90.000000
_cell_angle_beta 90.000000
_cell_angle_gamma 90.000000
_cell_volume 4375.040638
_symmetry_space_group_name_H-M "C M M A"
_symmetry_group_IT_number 67
_symmetry_cell_setting 'orthorhombic'
loop_
_space_group_symop_operation_xyz
x,y,z
-x,1/2-y,z
x,-y,-z
-x,1/2+y,-z
-x,-y,-z
x,1/2+y,-z
-x,y,z
x,1/2-y,z
1/2+x,1/2+y,z
1/2-x,-y,z
1/2+x,1/2-y,-z
1/2-x,y,-z
1/2-x,1/2-y,-z
1/2+x,y,-z
1/2-x,1/2+y,z
1/2+x,-y,z
loop_
_atom_site_type_symbol
_atom_site_label
_atom_site_fract_x
_atom_site_fract_y
_atom_site_fract_z
Si Si1 0.837123 0.189798 0.357038
Si Si2 0.592694 0.460656 0.387466
Si Si3 0.092933 0.372795 0.135222
Si Si4 0.841779 0.484080 0.144236
Si Si5 0.660618 0.850163 0.632452
Si Si6 0.593842 0.192549 0.106676
O O1 0.826034 0.250000 0.325232
O O2 0.902243 0.165461 0.259207
O O3 0.753375 0.160044 0.334103
O O4 0.866727 0.182859 0.506017
O O5 0.621507 0.500000 0.500000
O O6 0.500000 0.444355 0.408952
O O7 0.600999 0.486979 0.246359
O O8 0.649166 0.410617 0.398291
O O9 0.148285 0.422611 0.160506
O O10 0.000000 0.389454 0.115458
O O11 0.129560 0.343522 0.008201
O O12 0.750000 0.500000 0.171146
O O13 0.870274 0.500000 0.000000
O O14 0.606165 0.833850 0.753819
O O15 0.500000 0.198180 0.079572
O O16 0.633996 0.250000 0.102888
#
# Coordination Sequence:
#
# PCOD8280991 Si02
#       6
#    16  16  16  16  16  16
#     4  11  24  42  64  91 124 162 205 254 307 367
#     4  11  24  41  63  92 125 163 208 256 308 368
#     4  11  24  42  64  91 125 164 205 252 307 367
#     4  11  24  42  64  93 125 162 208 254 306 367
#     4  11  22  40  62  89 123 162 207 255 309 366
#     4  10  21  38  62  93 126 161 203 251 306 369
#
# _framework density 21.942654999999998
#
# number of rings (size 3 to 8) (size 9 to 14) (size 15 to 20)
#    0.000    1.167    0.000    6.500    0.000   10.000 
#    0.000    1.667    0.000    0.000    0.000    0.000 
#    0.000    0.000    0.000    0.000    0.000    0.000 
#
# Total GULP energy -595510.906500 kJ/mol
# GULP energy per Si atom -12406.477219 kJ/mol
# Density = 2.189271 g / cm^3
# Si number density = 21.942655 Si / 1000 Ang^3
#
#
#
# Elastic Constant Matrix: (Units=GPa)
#
#
# Indices 1 2 3 4 5 6 
#
# 1 56.1692 53.2711 29.9913 0.0000 0.0000 0.0000
# 2 53.2711 178.5422 35.8649 0.0000 0.0000 0.0000
# 3 29.9913 35.8649 110.0054 0.0000 0.0000 0.0000
# 4 0.0000 0.0000 0.0000 40.1571 0.0000 0.0000
# 5 0.0000 0.0000 0.0000 0.0000 23.5227 0.0000
# 6 0.0000 0.0000 0.0000 0.0000 0.0000 21.9453
#
#
#
# Elastic Compliance Matrix: (Units=1/GPa)
#
#
# Indices 1 2 3 4 5 6 
#
# 1 0.027281 -0.007112 -0.005119 0.000000 0.000000 0.000000
# 2 -0.007112 0.007847 -0.000620 0.000000 0.000000 0.000000
# 3 -0.005119 -0.000620 0.010688 0.000000 0.000000 0.000000
# 4 0.000000 0.000000 0.000000 0.024902 0.000000 0.000000
# 5 0.000000 0.000000 0.000000 0.000000 0.042512 0.000000
# 6 0.000000 0.000000 0.000000 0.000000 0.000000 0.045568
#
#
# Mechanical properties :
#
#
# Convention : Reuss Voigt Hill
#
# Bulk Modulus (GPa) = 49.71169 64.77459 57.24314
# Shear Modulus (GPa) = 26.14995 32.16433 29.15714
#
# Velocity S-wave (km/s) = 3.45590 3.83278 3.64921
# Velocity P-wave (km/s) = 6.21521 7.01220 6.62570
#
# Compressibility (1/GPa) = 0.02011599
#
# Stress axis : x y z
#
# Youngs Moduli (GPa) = 36.65506 127.43381 93.56155
#
# Poissons Ratio (x) = 0.90625 0.47897
# Poissons Ratio (y) = 0.26067 0.05797
# Poissons Ratio (z) = 0.18765 0.07895
#
# Static dielectric constant tensor:
#      x y z
#    x 3.644730 0.000000 0.000000 
#    y 0.000000 4.118420 0.000000 
#    z 0.000000 0.000000 4.148810 
# 
# 
# High freq. dielectric constant tensor:
#      x y z
#    x 1.845770 0.000000 0.000000 
#    y 0.000000 1.877590 0.000000 
#    z 0.000000 0.000000 1.879290 
# 
# From -- ./inp_files/11487.got.cif
#   From: 2010.03.12/outbox.cif.g09.slc.cpg/sg67_6_cif.got.tgz:11487.got - 2010.04.10 22:41:39.
