data_PCOD8280858
_publ_section_title
;
Structure prediction by ZEFSAII (Michael W. Deem and Ramdas Pophale) SiO2 
 PCOD8280858
Probable space group: C M M A
;
_chemical_formula_sum "Si O2"
_cell_formula_units_Z 80
_cell_length_a 17.301434
_cell_length_b 26.089082
_cell_length_c 8.886405
_cell_angle_alpha 90.000000
_cell_angle_beta 90.000000
_cell_angle_gamma 90.000000
_cell_volume 4011.132429
_symmetry_space_group_name_H-M "C M M A"
_symmetry_group_IT_number 67
_symmetry_cell_setting 'orthorhombic'
loop_
_space_group_symop_operation_xyz
x,y,z
-x,1/2-y,z
x,-y,-z
-x,1/2+y,-z
-x,-y,-z
x,1/2+y,-z
-x,y,z
x,1/2-y,z
1/2+x,1/2+y,z
1/2-x,-y,z
1/2+x,1/2-y,-z
1/2-x,y,-z
1/2-x,1/2-y,-z
1/2+x,y,-z
1/2-x,1/2+y,z
1/2+x,-y,z
loop_
_atom_site_type_symbol
_atom_site_label
_atom_site_fract_x
_atom_site_fract_y
_atom_site_fract_z
Si Si1 0.408823 0.155838 0.573976
Si Si2 0.089845 0.544871 0.883847
Si Si3 0.831482 0.250000 0.926503
Si Si4 0.588435 0.158982 0.912055
Si Si5 0.663182 0.050598 0.566884
Si Si6 0.832342 0.250000 0.576268
O O1 0.500000 0.153414 0.573591
O O2 0.377252 0.165469 0.743163
O O3 0.378147 0.101953 0.509907
O O4 0.380465 0.200174 0.466146
O O5 0.099370 0.600055 0.966273
O O6 0.151579 0.544294 0.747205
O O7 0.000000 0.539638 0.827659
O O8 0.111462 0.500000 0.000000
O O9 0.820232 0.250000 0.751210
O O10 0.750000 0.250000 0.000000
O O11 0.872757 0.197588 0.972829
O O12 0.500000 0.175097 0.907957
O O13 0.750000 0.052680 0.500000
O O14 0.622024 0.000000 0.500000
O O15 0.750000 0.250000 0.500000
#
# Coordination Sequence:
#
# PCOD8280858 Si02
#       6
#    16  16   8  16  16   8
#     4  10  21  39  63  88 116 154 196 239 291 351
#     4   9  19  38  64  90 116 152 199 248 297 352
#     4  12  25  38  57  83 111 151 195 236 285 342
#     4   9  19  38  62  86 115 148 186 236 290 343
#     4  10  21  37  58  88 123 159 196 239 297 357
#     4  12  25  40  59  85 121 155 191 242 297 354
#
# _framework density 19.944493999999999
#
# number of rings (size 3 to 8) (size 9 to 14) (size 15 to 20)
#    0.000    2.000    0.000    4.800    0.000    8.000 
#    0.000    8.000    0.000    0.000    0.000    0.000 
#    0.000    0.000    0.000    0.000    0.000    0.000 
#
# Total GULP energy -495775.726874 kJ/mol
# GULP energy per Si atom -12394.393172 kJ/mol
# Density = 1.989910 g / cm^3
# Si number density = 19.944494 Si / 1000 Ang^3
#
#
#
# Elastic Constant Matrix: (Units=GPa)
#
#
# Indices 1 2 3 4 5 6 
#
# 1 82.1484 52.0754 57.0246 0.0000 0.0000 0.0000
# 2 52.0754 185.3895 78.9704 0.0000 0.0000 0.0000
# 3 57.0246 78.9704 125.4245 0.0000 0.0000 0.0000
# 4 0.0000 0.0000 0.0000 34.3252 0.0000 0.0000
# 5 0.0000 0.0000 0.0000 0.0000 35.2217 0.0000
# 6 0.0000 0.0000 0.0000 0.0000 0.0000 15.6619
#
#
#
# Elastic Compliance Matrix: (Units=1/GPa)
#
#
# Indices 1 2 3 4 5 6 
#
# 1 0.018418 -0.002195 -0.006992 0.000000 0.000000 0.000000
# 2 -0.002195 0.007633 -0.003808 0.000000 0.000000 0.000000
# 3 -0.006992 -0.003808 0.013549 0.000000 0.000000 0.000000
# 4 0.000000 0.000000 0.000000 0.029133 0.000000 0.000000
# 5 0.000000 0.000000 0.000000 0.000000 0.028392 0.000000
# 6 0.000000 0.000000 0.000000 0.000000 0.000000 0.063849
#
#
# Mechanical properties :
#
#
# Convention : Reuss Voigt Hill
#
# Bulk Modulus (GPa) = 73.47161 85.45590 79.46376
# Shear Modulus (GPa) = 26.10972 30.70122 28.40547
#
# Velocity S-wave (km/s) = 3.62210 3.92769 3.77799
# Velocity P-wave (km/s) = 7.37637 7.96925 7.67853
#
# Compressibility (1/GPa) = 0.01361070
#
# Stress axis : x y z
#
# Youngs Moduli (GPa) = 54.29439 131.01639 73.80621
#
# Poissons Ratio (x) = 0.28763 0.51602
# Poissons Ratio (y) = 0.11920 0.28102
# Poissons Ratio (z) = 0.37960 0.49885
#
# Static dielectric constant tensor:
#      x y z
#    x 3.506440 0.000000 0.000000 
#    y 0.000000 3.934300 0.000000 
#    z 0.000000 0.000000 3.367690 
# 
# 
# High freq. dielectric constant tensor:
#      x y z
#    x 1.771380 0.000000 0.000000 
#    y 0.000000 1.806210 0.000000 
#    z 0.000000 0.000000 1.762240 
# 
# From -- ./inp_files/10018.got.cif
#   From: 2010.03.12/outbox.cif.g09.slc.cpg/sg67_6_cif.got.tgz:10018.got - 2010.04.10 22:41:39.
