data_PCOD8280713
_publ_section_title
;
Structure prediction by ZEFSAII (Michael W. Deem and Ramdas Pophale) SiO2 
 PCOD8280713
Probable space group: C M M A
;
_chemical_formula_sum "Si O2"
_cell_formula_units_Z 112
_cell_length_a 27.240908
_cell_length_b 17.416448
_cell_length_c 12.544712
_cell_angle_alpha 90.000000
_cell_angle_beta 90.000000
_cell_angle_gamma 90.000000
_cell_volume 5951.711376
_symmetry_space_group_name_H-M "C M M A"
_symmetry_group_IT_number 67
_symmetry_cell_setting 'orthorhombic'
loop_
_space_group_symop_operation_xyz
x,y,z
-x,1/2-y,z
x,-y,-z
-x,1/2+y,-z
-x,-y,-z
x,1/2+y,-z
-x,y,z
x,1/2-y,z
1/2+x,1/2+y,z
1/2-x,-y,z
1/2+x,1/2-y,-z
1/2-x,y,-z
1/2-x,1/2-y,-z
1/2+x,y,-z
1/2-x,1/2+y,z
1/2+x,-y,z
loop_
_atom_site_type_symbol
_atom_site_label
_atom_site_fract_x
_atom_site_fract_y
_atom_site_fract_z
Si Si1 0.700599 0.159479 0.938702
Si Si2 0.194216 0.663363 0.502047
Si Si3 0.844368 0.109271 0.279029
Si Si4 0.446363 0.391818 0.813111
Si Si5 0.394225 0.589615 0.978360
Si Si6 0.869853 0.958372 0.392461
Si Si7 0.946254 0.929930 0.231656
O O1 0.702237 0.250000 0.918369
O O2 0.691509 0.118954 0.823169
O O3 0.750000 0.131797 0.000000
O O4 0.656180 0.136658 0.015767
O O5 0.187849 0.750000 0.460875
O O6 0.250000 0.636726 0.500000
O O7 0.174444 0.658561 0.622256
O O8 0.168443 0.607920 0.418263
O O9 0.900102 0.139824 0.255245
O O10 0.845559 0.018772 0.309555
O O11 0.500000 0.352898 0.787311
O O12 0.451979 0.481057 0.792100
O O13 0.433833 0.378833 0.937014
O O14 0.416033 0.608921 0.863347
O O15 0.383111 0.500000 0.000000
O O16 0.917398 0.917819 0.342020
O O17 0.887246 0.000000 0.500000
O O18 0.000000 0.891710 0.242400
#
# Coordination Sequence:
#
# PCOD8280713 Si02
#       7
#    16  16  16  16  16  16  16
#     4  10  21  36  54  78 109 142 172 209 262 318
#     4  10  21  37  56  75 100 139 179 216 264 314
#     4   9  18  34  56  80 106 134 171 218 261 306
#     4   8  14  27  50  78 103 129 166 211 255 304
#     4   9  17  30  49  76 105 135 174 212 249 302
#     4   9  19  34  53  80 105 132 178 228 263 296
#     4   9  16  28  49  75 104 137 170 208 257 309
#
# _framework density 18.818117000000001
#
# number of rings (size 3 to 8) (size 9 to 14) (size 15 to 20)
#    0.000    2.857    0.000    1.714    0.000    6.000 
#    0.000    8.571    0.000   16.714    0.000    0.000 
#    0.000    0.571    0.000    0.000    0.000    0.000 
#
# Total GULP energy -694048.581763 kJ/mol
# GULP energy per Si atom -12393.724674 kJ/mol
# Density = 1.877529 g / cm^3
# Si number density = 18.818117 Si / 1000 Ang^3
#
#
#
# Elastic Constant Matrix: (Units=GPa)
#
#
# Indices 1 2 3 4 5 6 
#
# 1 166.0557 40.1519 85.1134 0.0000 0.0000 0.0000
# 2 40.1519 44.2310 38.6340 0.0000 0.0000 0.0000
# 3 85.1134 38.6340 120.5917 0.0000 0.0000 0.0000
# 4 0.0000 0.0000 0.0000 16.2099 0.0000 0.0000
# 5 0.0000 0.0000 0.0000 0.0000 23.9519 0.0000
# 6 0.0000 0.0000 0.0000 0.0000 0.0000 -8.8050
#
#
#
# Elastic Compliance Matrix: (Units=1/GPa)
#
#
# Indices 1 2 3 4 5 6 
#
# 1 0.009923 -0.004014 -0.005718 0.000000 0.000000 0.000000
# 2 -0.004014 0.033017 -0.007745 0.000000 0.000000 0.000000
# 3 -0.005718 -0.007745 0.014809 0.000000 0.000000 0.000000
# 4 0.000000 0.000000 0.000000 0.061691 0.000000 0.000000
# 5 0.000000 0.000000 0.000000 0.000000 0.041750 0.000000
# 6 0.000000 0.000000 0.000000 0.000000 0.000000 -0.113572
#
#
# Mechanical properties :
#
#
# Convention : Reuss Voigt Hill
#
# Bulk Modulus (GPa) = 43.86605 73.18633 58.52619
# Shear Modulus (GPa) = 55.45042 17.40330 36.42686
#
# Velocity S-wave (km/s) = 5.43420 3.04438 4.40447
# Velocity P-wave (km/s) = 7.92055 7.16474 7.55211
#
# Compressibility (1/GPa) = 0.02279667
#
# Stress axis : x y z
#
# Youngs Moduli (GPa) = 100.77157 30.28747 67.52470
#
# Poissons Ratio (x) = 0.12157 0.38611
# Poissons Ratio (y) = 0.40448 0.52296
# Poissons Ratio (z) = 0.57622 0.23457
#
# Static dielectric constant tensor:
#      x y z
#    x 3.836710 0.000000 0.000000 
#    y 0.000000 3.117440 0.000000 
#    z 0.000000 0.000000 3.509740 
# 
# 
# High freq. dielectric constant tensor:
#      x y z
#    x 1.738260 0.000000 0.000000 
#    y 0.000000 1.695180 0.000000 
#    z 0.000000 0.000000 1.730960 
# 
# From -- ./inp_files/23156.got.cif
#   From: 2010.03.12/outbox.cif.g09.slc.cpg/sg67_12_cif.got.tgz:23156.got - 2010.04.10 22:41:39.
