data_PCOD8280801
_publ_section_title
;
Structure prediction by ZEFSAII (Michael W. Deem and Ramdas Pophale) SiO2 
 PCOD8280801
Probable space group: C M M A
;
_chemical_formula_sum "Si O2"
_cell_formula_units_Z 72
_cell_length_a 9.800686
_cell_length_b 14.305952
_cell_length_c 28.300697
_cell_angle_alpha 90.000000
_cell_angle_beta 90.000000
_cell_angle_gamma 90.000000
_cell_volume 3967.988186
_symmetry_space_group_name_H-M "C M M A"
_symmetry_group_IT_number 67
_symmetry_cell_setting 'orthorhombic'
loop_
_space_group_symop_operation_xyz
x,y,z
-x,1/2-y,z
x,-y,-z
-x,1/2+y,-z
-x,-y,-z
x,1/2+y,-z
-x,y,z
x,1/2-y,z
1/2+x,1/2+y,z
1/2-x,-y,z
1/2+x,1/2-y,-z
1/2-x,y,-z
1/2-x,1/2-y,-z
1/2+x,y,-z
1/2-x,1/2+y,z
1/2+x,-y,z
loop_
_atom_site_type_symbol
_atom_site_label
_atom_site_fract_x
_atom_site_fract_y
_atom_site_fract_z
Si Si1 0.845711 0.750000 0.785865
Si Si2 0.842431 0.750000 0.454324
Si Si3 0.658502 0.250000 0.304726
Si Si4 0.651778 0.360539 0.959951
Si Si5 0.157273 0.082949 0.143697
Si Si6 0.341432 0.407148 0.379222
O O1 0.744753 0.750000 0.742401
O O2 0.817246 0.662439 0.818594
O O3 0.000000 0.750000 0.766356
O O4 0.750000 0.750000 0.500000
O O5 0.809841 0.843848 0.424951
O O6 0.000000 0.750000 0.469616
O O7 0.500000 0.250000 0.291385
O O8 0.694090 0.156144 0.333774
O O9 0.500000 0.401053 0.967847
O O10 0.648288 0.250000 0.964305
O O11 0.707855 0.386531 0.908265
O O12 0.750000 0.404270 0.000000
O O13 0.000000 0.052634 0.141979
O O14 0.250000 0.000000 0.162347
O O15 0.500000 0.437099 0.378482
O O16 0.250000 0.500000 0.379669
#
# Coordination Sequence:
#
# PCOD8280801 Si02
#       6
#     8   8   8  16  16  16
#     4  10  21  39  58  76 104 139 172 212 264 318
#     4   9  19  35  53  78 114 153 188 225 268 314
#     4   9  20  38  57  78 106 138 174 221 271 318
#     4   9  17  32  53  74  99 132 167 204 248 300
#     4  10  21  37  55  76 104 136 169 208 256 310
#     4   9  19  36  56  79 110 145 182 225 271 316
#
# _framework density 18.145216000000001
#
# number of rings (size 3 to 8) (size 9 to 14) (size 15 to 20)
#    0.000    2.667    1.111    1.333    0.000    5.333 
#    0.000   11.111    0.000    0.000    0.000    0.000 
#    0.000    0.000    0.000    0.000    0.000    0.000 
#
# Total GULP energy -446328.376997 kJ/mol
# GULP energy per Si atom -12398.010472 kJ/mol
# Density = 1.810392 g / cm^3
# Si number density = 18.145216 Si / 1000 Ang^3
#
#
#
# Elastic Constant Matrix: (Units=GPa)
#
#
# Indices 1 2 3 4 5 6 
#
# 1 106.7309 78.6496 89.9735 0.0000 0.0000 0.0000
# 2 78.6496 116.0479 59.0317 0.0000 0.0000 0.0000
# 3 89.9735 59.0317 146.3587 0.0000 0.0000 0.0000
# 4 0.0000 0.0000 0.0000 36.3039 0.0000 0.0000
# 5 0.0000 0.0000 0.0000 0.0000 41.2609 0.0000
# 6 0.0000 0.0000 0.0000 0.0000 0.0000 34.0752
#
#
#
# Elastic Compliance Matrix: (Units=1/GPa)
#
#
# Indices 1 2 3 4 5 6 
#
# 1 0.031283 -0.014366 -0.013436 0.000000 0.000000 0.000000
# 2 -0.014366 0.017439 0.001798 0.000000 0.000000 0.000000
# 3 -0.013436 0.001798 0.014367 0.000000 0.000000 0.000000
# 4 0.000000 0.000000 0.000000 0.027545 0.000000 0.000000
# 5 0.000000 0.000000 0.000000 0.000000 0.024236 0.000000
# 6 0.000000 0.000000 0.000000 0.000000 0.000000 0.029347
#
#
# Mechanical properties :
#
#
# Convention : Reuss Voigt Hill
#
# Bulk Modulus (GPa) = 90.25861 91.60524 90.93192
# Shear Modulus (GPa) = 25.00989 31.76018 28.38503
#
# Velocity S-wave (km/s) = 3.71660 4.18824 3.95945
# Velocity P-wave (km/s) = 8.26244 8.60131 8.43358
#
# Compressibility (1/GPa) = 0.01107928
#
# Stress axis : x y z
#
# Youngs Moduli (GPa) = 31.96642 57.34197 69.60201
#
# Poissons Ratio (x) = 0.82380 0.93521
# Poissons Ratio (y) = 0.45925 -0.12514
# Poissons Ratio (z) = 0.42952 -0.10309
#
# Static dielectric constant tensor:
#      x y z
#    x 3.419630 0.000000 0.000000 
#    y 0.000000 3.251900 0.000000 
#    z 0.000000 0.000000 3.307140 
# 
# 
# High freq. dielectric constant tensor:
#      x y z
#    x 1.702280 0.000000 0.000000 
#    y 0.000000 1.705160 0.000000 
#    z 0.000000 0.000000 1.702400 
# 
# From -- ./inp_files/43157.got.cif
#   From: 2010.03.12/outbox.cif.g09.slc.cpg/sg67_22_cif.got.tgz:43157.got - 2010.04.10 22:41:39.
