data_PCOD8280466
_publ_section_title
;
Structure prediction by ZEFSAII (Michael W. Deem and Ramdas Pophale) SiO2 
 PCOD8280466
Probable space group: C M M A
;
_chemical_formula_sum "Si O2"
_cell_formula_units_Z 96
_cell_length_a 21.747187
_cell_length_b 9.066004
_cell_length_c 24.392368
_cell_angle_alpha 90.000000
_cell_angle_beta 90.000000
_cell_angle_gamma 90.000000
_cell_volume 4809.201332
_symmetry_space_group_name_H-M "C M M A"
_symmetry_group_IT_number 67
_symmetry_cell_setting 'orthorhombic'
loop_
_space_group_symop_operation_xyz
x,y,z
-x,1/2-y,z
x,-y,-z
-x,1/2+y,-z
-x,-y,-z
x,1/2+y,-z
-x,y,z
x,1/2-y,z
1/2+x,1/2+y,z
1/2-x,-y,z
1/2+x,1/2-y,-z
1/2-x,y,-z
1/2-x,1/2-y,-z
1/2+x,y,-z
1/2-x,1/2+y,z
1/2+x,-y,z
loop_
_atom_site_type_symbol
_atom_site_label
_atom_site_fract_x
_atom_site_fract_y
_atom_site_fract_z
Si Si1 0.688069 0.417021 0.160921
Si Si2 0.000000 0.426509 0.111026
Si Si3 0.630737 0.921661 0.257147
Si Si4 0.000000 0.580168 0.766249
Si Si5 0.313862 0.575314 0.370034
Si Si6 0.069382 0.576402 0.557658
Si Si7 0.113714 0.420391 0.945085
O O1 0.696841 0.250000 0.179352
O O2 0.750000 0.500000 0.171904
O O3 0.639212 0.489793 0.201299
O O4 0.669229 0.430107 0.097873
O O5 0.057713 0.488368 0.078662
O O6 0.000000 0.250000 0.107868
O O7 0.000000 0.493369 0.172929
O O8 0.641557 0.750000 0.245399
O O9 0.559266 0.956503 0.271162
O O10 0.673795 0.973314 0.307152
O O11 0.000000 0.750000 0.781890
O O12 0.305690 0.750000 0.375556
O O13 0.250000 0.500000 0.390268
O O14 0.374587 0.522442 0.403303
O O15 0.080662 0.500000 0.500000
O O16 0.074319 0.750000 0.549156
O O17 0.000000 0.536708 0.580002
O O18 0.095374 0.250000 0.956036
O O19 0.137091 0.500000 0.000000
#
# Coordination Sequence:
#
# PCOD8280466 Si02
#       7
#    16   8  16   8  16  16  16
#     4  11  24  40  59  81 109 146 186 231 282 338
#     4  11  20  36  61  87 112 141 179 224 276 338
#     4  10  20  37  60  87 117 150 189 233 284 342
#     4   9  18  32  58  89 112 143 187 230 276 339
#     4  10  22  37  58  87 121 158 198 245 291 346
#     4   9  19  37  60  87 118 157 202 248 296 343
#     4  11  24  40  58  82 111 143 180 227 281 338
#
# _framework density 19.961735000000001
#
# number of rings (size 3 to 8) (size 9 to 14) (size 15 to 20)
#    0.000    1.833    1.667    2.000    1.167    5.333 
#    0.000    3.750    0.000    0.000    0.000    0.000 
#    0.000    0.000    0.000    0.000    0.000    0.000 
#
# Total GULP energy -594933.503400 kJ/mol
# GULP energy per Si atom -12394.447988 kJ/mol
# Density = 1.991630 g / cm^3
# Si number density = 19.961735 Si / 1000 Ang^3
#
#
#
# Elastic Constant Matrix: (Units=GPa)
#
#
# Indices 1 2 3 4 5 6 
#
# 1 134.2543 42.4544 47.1499 0.0000 0.0000 0.0000
# 2 42.4544 78.7059 35.8955 0.0000 0.0000 0.0000
# 3 47.1499 35.8955 87.0990 0.0000 0.0000 0.0000
# 4 0.0000 0.0000 0.0000 28.9990 0.0000 0.0000
# 5 0.0000 0.0000 0.0000 0.0000 29.9667 0.0000
# 6 0.0000 0.0000 0.0000 0.0000 0.0000 12.0283
#
#
#
# Elastic Compliance Matrix: (Units=1/GPa)
#
#
# Indices 1 2 3 4 5 6 
#
# 1 0.009956 -0.003587 -0.003912 0.000000 0.000000 0.000000
# 2 -0.003587 0.016938 -0.005039 0.000000 0.000000 0.000000
# 3 -0.003912 -0.005039 0.015675 0.000000 0.000000 0.000000
# 4 0.000000 0.000000 0.000000 0.034484 0.000000 0.000000
# 5 0.000000 0.000000 0.000000 0.000000 0.033370 0.000000
# 6 0.000000 0.000000 0.000000 0.000000 0.000000 0.083137
#
#
# Mechanical properties :
#
#
# Convention : Reuss Voigt Hill
#
# Bulk Modulus (GPa) = 57.15759 61.22876 59.19317
# Shear Modulus (GPa) = 22.27482 25.83608 24.05545
#
# Velocity S-wave (km/s) = 3.34410 3.60151 3.47519
# Velocity P-wave (km/s) = 6.60351 6.93067 6.76907
#
# Compressibility (1/GPa) = 0.01749549
#
# Stress axis : x y z
#
# Youngs Moduli (GPa) = 100.43692 59.03756 63.79382
#
# Poissons Ratio (x) = 0.21174 0.24954
# Poissons Ratio (y) = 0.36022 0.32147
# Poissons Ratio (z) = 0.39288 0.29750
#
# Static dielectric constant tensor:
#      x y z
#    x 3.892070 0.000000 0.000000 
#    y 0.000000 3.560300 0.000000 
#    z 0.000000 0.000000 3.609970 
# 
# 
# High freq. dielectric constant tensor:
#      x y z
#    x 1.791050 0.000000 0.000000 
#    y 0.000000 1.766590 0.000000 
#    z 0.000000 0.000000 1.774770 
# 
# From -- ./inp_files/42580.got.cif
#   From: 2010.03.12/outbox.cif.g09.slc.cpg/sg67_22_cif.got.tgz:42580.got - 2010.04.10 22:41:39.
