data_PCOD8280027
_publ_section_title
;
Structure prediction by ZEFSAII (Michael W. Deem and Ramdas Pophale) SiO2 
 PCOD8280027
Probable space group: C M M A
;
_chemical_formula_sum "Si O2"
_cell_formula_units_Z 96
_cell_length_a 21.617184
_cell_length_b 20.145278
_cell_length_c 11.661121
_cell_angle_alpha 90.000000
_cell_angle_beta 90.000000
_cell_angle_gamma 90.000000
_cell_volume 5078.233731
_symmetry_space_group_name_H-M "C M M A"
_symmetry_group_IT_number 67
_symmetry_cell_setting 'orthorhombic'
loop_
_space_group_symop_operation_xyz
x,y,z
-x,1/2-y,z
x,-y,-z
-x,1/2+y,-z
-x,-y,-z
x,1/2+y,-z
-x,y,z
x,1/2-y,z
1/2+x,1/2+y,z
1/2-x,-y,z
1/2+x,1/2-y,-z
1/2-x,y,-z
1/2-x,1/2-y,-z
1/2+x,y,-z
1/2-x,1/2+y,z
1/2+x,-y,z
loop_
_atom_site_type_symbol
_atom_site_label
_atom_site_fract_x
_atom_site_fract_y
_atom_site_fract_z
Si Si1 0.428864 0.441481 0.425428
Si Si2 0.071666 0.324927 0.422871
Si Si3 0.759006 0.075486 0.865227
Si Si4 0.106278 0.452920 0.835036
Si Si5 0.345359 0.326746 0.796770
Si Si6 0.069696 0.589407 0.930820
O O1 0.395714 0.500000 0.500000
O O2 0.500000 0.444981 0.455607
O O3 0.405188 0.370513 0.471692
O O4 0.421600 0.448456 0.290367
O O5 0.080870 0.250000 0.464910
O O6 0.115962 0.341679 0.317156
O O7 0.000000 0.337565 0.386914
O O8 0.830252 0.088447 0.835309
O O9 0.716181 0.127749 0.797419
O O10 0.750000 0.000000 0.823804
O O11 0.750000 0.084362 0.000000
O O12 0.110860 0.530526 0.872304
O O13 0.063454 0.418734 0.931893
O O14 0.325510 0.250000 0.807668
O O15 0.392110 0.344199 0.901291
O O16 0.000000 0.590534 0.880167
#
# Coordination Sequence:
#
# PCOD8280027 Si02
#       6
#    16  16  16  16  16  16
#     4  10  20  34  56  87 116 147 193 244 288 340
#     4   9  19  37  59  82 115 156 190 229 288 348
#     4  11  20  39  60  81 113 157 196 234 289 347
#     4  11  20  36  58  86 116 151 197 241 291 347
#     4  11  22  37  59  87 116 152 199 243 286 343
#     4  11  20  34  58  88 120 151 185 240 305 355
#
# _framework density 18.904212000000001
#
# number of rings (size 3 to 8) (size 9 to 14) (size 15 to 20)
#    0.000    1.500    3.333    4.500    0.000    2.667 
#    0.000    2.500    0.000    4.000    0.000    0.000 
#    0.000    0.000    0.000    0.000    0.000    0.000 
#
# Total GULP energy -594880.948454 kJ/mol
# GULP energy per Si atom -12393.353093 kJ/mol
# Density = 1.886119 g / cm^3
# Si number density = 18.904212 Si / 1000 Ang^3
#
#
#
# Elastic Constant Matrix: (Units=GPa)
#
#
# Indices 1 2 3 4 5 6 
#
# 1 88.4028 47.0444 8.2579 0.0000 0.0000 0.0000
# 2 47.0444 119.8542 62.9339 0.0000 0.0000 0.0000
# 3 8.2579 62.9339 108.7544 0.0000 0.0000 0.0000
# 4 0.0000 0.0000 0.0000 22.5810 0.0000 0.0000
# 5 0.0000 0.0000 0.0000 0.0000 18.3803 0.0000
# 6 0.0000 0.0000 0.0000 0.0000 0.0000 25.6756
#
#
#
# Elastic Compliance Matrix: (Units=1/GPa)
#
#
# Indices 1 2 3 4 5 6 
#
# 1 0.015068 -0.007633 0.003273 0.000000 0.000000 0.000000
# 2 -0.007633 0.015852 -0.008594 0.000000 0.000000 0.000000
# 3 0.003273 -0.008594 0.013919 0.000000 0.000000 0.000000
# 4 0.000000 0.000000 0.000000 0.044285 0.000000 0.000000
# 5 0.000000 0.000000 0.000000 0.000000 0.054406 0.000000
# 6 0.000000 0.000000 0.000000 0.000000 0.000000 0.038948
#
#
# Mechanical properties :
#
#
# Convention : Reuss Voigt Hill
#
# Bulk Modulus (GPa) = 52.82032 61.49820 57.15926
# Shear Modulus (GPa) = 23.28875 26.57906 24.93391
#
# Velocity S-wave (km/s) = 3.51370 3.75372 3.63569
# Velocity P-wave (km/s) = 6.66807 7.16863 6.92288
#
# Compressibility (1/GPa) = 0.01893211
#
# Stress axis : x y z
#
# Youngs Moduli (GPa) = 66.36536 63.08400 71.84207
#
# Poissons Ratio (x) = 0.48152 -0.23513
# Poissons Ratio (y) = 0.50657 0.61738
# Poissons Ratio (z) = -0.21721 0.54212
#
# Static dielectric constant tensor:
#      x y z
#    x 1.782040 0.000000 0.000000 
#    y 0.000000 3.557600 0.000000 
#    z 0.000000 0.000000 3.415150 
# 
# 
# High freq. dielectric constant tensor:
#      x y z
#    x 1.728030 0.000000 0.000000 
#    y 0.000000 1.725900 0.000000 
#    z 0.000000 0.000000 1.722010 
# 
# From -- ./inp_files/20877.got.cif
#   From: 2010.03.12/outbox.cif.g09.slc.cpg/sg67_11_cif.got.tgz:20877.got - 2010.04.10 22:41:39.
