data_PCOD8280549
_publ_section_title
;
Structure prediction by ZEFSAII (Michael W. Deem and Ramdas Pophale) SiO2 
 PCOD8280549
Probable space group: C M M A
;
_chemical_formula_sum "Si O2"
_cell_formula_units_Z 96
_cell_length_a 22.165707
_cell_length_b 14.985961
_cell_length_c 13.504393
_cell_angle_alpha 90.000000
_cell_angle_beta 90.000000
_cell_angle_gamma 90.000000
_cell_volume 4485.813921
_symmetry_space_group_name_H-M "C M M A"
_symmetry_group_IT_number 67
_symmetry_cell_setting 'orthorhombic'
loop_
_space_group_symop_operation_xyz
x,y,z
-x,1/2-y,z
x,-y,-z
-x,1/2+y,-z
-x,-y,-z
x,1/2+y,-z
-x,y,z
x,1/2-y,z
1/2+x,1/2+y,z
1/2-x,-y,z
1/2+x,1/2-y,-z
1/2-x,y,-z
1/2-x,1/2-y,-z
1/2+x,y,-z
1/2-x,1/2+y,z
1/2+x,-y,z
loop_
_atom_site_type_symbol
_atom_site_label
_atom_site_fract_x
_atom_site_fract_y
_atom_site_fract_z
Si Si1 0.566286 0.990459 0.280944
Si Si2 0.857553 0.146882 0.648293
Si Si3 0.698911 0.646734 0.073204
Si Si4 0.116389 0.353167 0.419401
Si Si5 0.226392 0.645153 0.711679
Si Si6 0.567662 0.585033 0.068490
O O1 0.500000 0.029841 0.275197
O O2 0.604741 0.080378 0.284622
O O3 0.568139 0.921749 0.373981
O O4 0.581837 0.936860 0.181997
O O5 0.867452 0.250000 0.680707
O O6 0.877324 0.133058 0.535615
O O7 0.789621 0.114761 0.666357
O O8 0.713393 0.750000 0.081480
O O9 0.711046 0.602124 0.181181
O O10 0.628691 0.637850 0.035739
O O11 0.750000 0.604171 0.000000
O O12 0.099710 0.250000 0.394706
O O13 0.177796 0.385836 0.368227
O O14 0.224436 0.750000 0.721921
O O15 0.500000 0.632708 0.060705
O O16 0.563858 0.500000 0.000000
#
# Coordination Sequence:
#
# PCOD8280549 Si02
#       6
#    16  16  16  16  16  16
#     4  11  24  41  61  87 121 160 207 259 303 358
#     4  10  22  38  60  87 122 166 204 248 306 366
#     4  10  21  38  64  95 123 152 198 260 316 368
#     4  10  20  38  62  89 121 159 201 250 310 366
#     4   9  18  36  59  87 121 153 192 246 306 367
#     4  10  23  43  62  85 121 163 204 249 306 373
#
# _framework density 21.400798999999999
#
# number of rings (size 3 to 8) (size 9 to 14) (size 15 to 20)
#    0.000    2.000    1.667    1.000    2.333    5.333 
#    0.000    5.000    0.000    3.000    0.000    0.000 
#    0.000    0.000    0.000    0.000    0.000    0.000 
#
# Total GULP energy -594663.290402 kJ/mol
# GULP energy per Si atom -12388.818550 kJ/mol
# Density = 2.135209 g / cm^3
# Si number density = 21.400799 Si / 1000 Ang^3
#
#
#
# Elastic Constant Matrix: (Units=GPa)
#
#
# Indices 1 2 3 4 5 6 
#
# 1 105.1768 15.7899 22.6667 0.0000 0.0000 0.0000
# 2 15.7899 39.6052 1.4327 0.0000 0.0000 0.0000
# 3 22.6667 1.4327 42.8053 0.0000 0.0000 0.0000
# 4 0.0000 0.0000 0.0000 14.5961 0.0000 0.0000
# 5 0.0000 0.0000 0.0000 0.0000 41.8608 0.0000
# 6 0.0000 0.0000 0.0000 0.0000 0.0000 32.7050
#
#
#
# Elastic Compliance Matrix: (Units=1/GPa)
#
#
# Indices 1 2 3 4 5 6 
#
# 1 0.011433 -0.004345 -0.005909 0.000000 0.000000 0.000000
# 2 -0.004345 0.026931 0.001399 0.000000 0.000000 0.000000
# 3 -0.005909 0.001399 0.026444 0.000000 0.000000 0.000000
# 4 0.000000 0.000000 0.000000 0.068512 0.000000 0.000000
# 5 0.000000 0.000000 0.000000 0.000000 0.023889 0.000000
# 6 0.000000 0.000000 0.000000 0.000000 0.000000 0.030576
#
#
# Mechanical properties :
#
#
# Convention : Reuss Voigt Hill
#
# Bulk Modulus (GPa) = 21.23176 29.70732 25.46954
# Shear Modulus (GPa) = 22.60470 27.67891 25.14180
#
# Velocity S-wave (km/s) = 3.25353 3.60023 3.43126
# Velocity P-wave (km/s) = 4.90474 5.58514 5.25596
#
# Compressibility (1/GPa) = 0.04709925
#
# Stress axis : x y z
#
# Youngs Moduli (GPa) = 87.46245 37.13231 37.81618
#
# Poissons Ratio (x) = 0.16132 0.22345
# Poissons Ratio (y) = 0.37999 -0.05291
# Poissons Ratio (z) = 0.51681 -0.05196
#
# Static dielectric constant tensor:
#      x y z
#    x 4.574130 0.000000 0.000000 
#    y 0.000000 3.576730 0.000000 
#    z 0.000000 0.000000 4.026240 
# 
# 
# High freq. dielectric constant tensor:
#      x y z
#    x 1.851310 0.000000 0.000000 
#    y 0.000000 1.816310 0.000000 
#    z 0.000000 0.000000 1.841610 
# 
# From -- ./inp_files/27217.got.cif
#   From: 2010.03.12/outbox.cif.g09.slc.cpg/sg67_14_cif.got.tgz:27217.got - 2010.04.10 22:41:39.
