data_PCOD8280458
_publ_section_title
;
Structure prediction by ZEFSAII (Michael W. Deem and Ramdas Pophale) SiO2 
 PCOD8280458
Probable space group: C M M A
;
_chemical_formula_sum "Si O2"
_cell_formula_units_Z 88
_cell_length_a 20.531316
_cell_length_b 8.853082
_cell_length_c 25.013484
_cell_angle_alpha 90.000000
_cell_angle_beta 90.000000
_cell_angle_gamma 90.000000
_cell_volume 4546.586528
_symmetry_space_group_name_H-M "C M M A"
_symmetry_group_IT_number 67
_symmetry_cell_setting 'orthorhombic'
loop_
_space_group_symop_operation_xyz
x,y,z
-x,1/2-y,z
x,-y,-z
-x,1/2+y,-z
-x,-y,-z
x,1/2+y,-z
-x,y,z
x,1/2-y,z
1/2+x,1/2+y,z
1/2-x,-y,z
1/2+x,1/2-y,-z
1/2-x,y,-z
1/2-x,1/2-y,-z
1/2+x,y,-z
1/2-x,1/2+y,z
1/2+x,-y,z
loop_
_atom_site_type_symbol
_atom_site_label
_atom_site_fract_x
_atom_site_fract_y
_atom_site_fract_z
Si Si1 0.577028 0.581193 0.841067
Si Si2 0.075668 0.072680 0.268281
Si Si3 0.185313 0.428873 0.661307
Si Si4 0.358860 0.571911 0.441354
Si Si5 0.077721 0.079731 0.053407
Si Si6 0.500000 0.078914 0.555142
O O1 0.500000 0.589431 0.846239
O O2 0.605792 0.750000 0.833876
O O3 0.596776 0.478114 0.790959
O O4 0.605932 0.507583 0.894969
O O5 0.087778 0.250000 0.274371
O O6 0.000000 0.032251 0.279705
O O7 0.120170 0.984555 0.309934
O O8 0.188873 0.250000 0.663600
O O9 0.250000 0.500000 0.688959
O O10 0.187478 0.486610 0.599929
O O11 0.350330 0.500000 0.500000
O O12 0.342567 0.750000 0.444017
O O13 0.431732 0.542124 0.415823
O O14 0.104268 0.250000 0.054663
O O15 0.000000 0.078235 0.054050
O O16 0.104339 0.000000 0.000000
O O17 0.500000 0.250000 0.538178
O O18 0.500000 0.000000 0.500000
#
# Coordination Sequence:
#
# PCOD8280458 Si02
#       6
#    16  16  16  16  16   8
#     4   9  16  27  44  68  99 135 178 225 271 323
#     4  10  21  38  60  84 111 145 185 230 279 331
#     4  12  26  43  61  84 113 147 185 229 278 331
#     4  10  20  37  59  86 115 147 181 220 270 325
#     4   9  15  22  34  56  90 133 177 220 270 326
#     4   8  16  30  52  80 112 142 172 210 255 306
#
# _framework density 19.355180000000001
#
# number of rings (size 3 to 8) (size 9 to 14) (size 15 to 20)
#    0.000    2.182    0.000    3.818    1.273    6.545 
#    0.000    1.818    0.000    0.000    0.000    0.000 
#    0.000    0.727    0.000    7.273    0.000   11.273 
#
# Total GULP energy -545332.832396 kJ/mol
# GULP energy per Si atom -12393.928009 kJ/mol
# Density = 1.931113 g / cm^3
# Si number density = 19.355180 Si / 1000 Ang^3
#
#
#
# Elastic Constant Matrix: (Units=GPa)
#
#
# Indices 1 2 3 4 5 6 
#
# 1 60.3126 44.1555 38.3867 0.0000 0.0000 0.0000
# 2 44.1555 156.0953 59.6332 0.0000 0.0000 0.0000
# 3 38.3867 59.6332 115.2323 0.0000 0.0000 0.0000
# 4 0.0000 0.0000 0.0000 39.3373 0.0000 0.0000
# 5 0.0000 0.0000 0.0000 0.0000 4.6700 0.0000
# 6 0.0000 0.0000 0.0000 0.0000 0.0000 20.4725
#
#
#
# Elastic Compliance Matrix: (Units=1/GPa)
#
#
# Indices 1 2 3 4 5 6 
#
# 1 0.023357 -0.004530 -0.005436 0.000000 0.000000 0.000000
# 2 -0.004530 0.008864 -0.003078 0.000000 0.000000 0.000000
# 3 -0.005436 -0.003078 0.012082 0.000000 0.000000 0.000000
# 4 0.000000 0.000000 0.000000 0.025421 0.000000 0.000000
# 5 0.000000 0.000000 0.000000 0.000000 0.214131 0.000000
# 6 0.000000 0.000000 0.000000 0.000000 0.000000 0.048846
#
#
# Mechanical properties :
#
#
# Convention : Reuss Voigt Hill
#
# Bulk Modulus (GPa) = 54.90394 68.44344 61.67369
# Shear Modulus (GPa) = 13.70384 25.52694 19.61539
#
# Velocity S-wave (km/s) = 2.66375 3.63556 3.18692
# Velocity P-wave (km/s) = 6.15539 7.28434 6.74354
#
# Compressibility (1/GPa) = 0.01821363
#
# Stress axis : x y z
#
# Youngs Moduli (GPa) = 42.81379 112.82004 82.76835
#
# Poissons Ratio (x) = 0.51110 0.44996
# Poissons Ratio (y) = 0.19396 0.25475
# Poissons Ratio (z) = 0.23275 0.34724
#
# Static dielectric constant tensor:
#      x y z
#    x 3.409350 0.000000 0.000000 
#    y 0.000000 3.693280 0.000000 
#    z 0.000000 0.000000 3.565880 
# 
# 
# High freq. dielectric constant tensor:
#      x y z
#    x 1.706440 0.000000 0.000000 
#    y 0.000000 1.770250 0.000000 
#    z 0.000000 0.000000 1.753240 
# 
# From -- ./inp_files/40681.got.cif
#   From: 2010.03.12/outbox.cif.g09.slc.cpg/sg67_21_cif.got.tgz:40681.got - 2010.04.10 22:41:39.
