data_PCOD8280854
_publ_section_title
;
Structure prediction by ZEFSAII (Michael W. Deem and Ramdas Pophale) SiO2 
 PCOD8280854
Probable space group: C M M A
;
_chemical_formula_sum "Si O2"
_cell_formula_units_Z 96
_cell_length_a 27.122648
_cell_length_b 18.812787
_cell_length_c 9.527803
_cell_angle_alpha 90.000000
_cell_angle_beta 90.000000
_cell_angle_gamma 90.000000
_cell_volume 4861.586250
_symmetry_space_group_name_H-M "C M M A"
_symmetry_group_IT_number 67
_symmetry_cell_setting 'orthorhombic'
loop_
_space_group_symop_operation_xyz
x,y,z
-x,1/2-y,z
x,-y,-z
-x,1/2+y,-z
-x,-y,-z
x,1/2+y,-z
-x,y,z
x,1/2-y,z
1/2+x,1/2+y,z
1/2-x,-y,z
1/2+x,1/2-y,-z
1/2-x,y,-z
1/2-x,1/2-y,-z
1/2+x,y,-z
1/2-x,1/2+y,z
1/2+x,-y,z
loop_
_atom_site_type_symbol
_atom_site_label
_atom_site_fract_x
_atom_site_fract_y
_atom_site_fract_z
Si Si1 0.876353 0.578741 0.482799
Si Si2 0.233615 0.924658 0.840729
Si Si3 0.314536 0.668206 0.725796
Si Si4 0.901917 0.331354 0.936431
Si Si5 0.444017 0.548826 0.762937
Si Si6 0.118481 0.587670 0.795688
O O1 0.852553 0.500000 0.500000
O O2 0.837284 0.629459 0.408770
O O3 0.926293 0.571396 0.392244
O O4 0.890520 0.611190 0.634576
O O5 0.260159 0.862183 0.754042
O O6 0.175663 0.921756 0.825132
O O7 0.250000 0.000000 0.777587
O O8 0.250000 0.917159 0.000000
O O9 0.309025 0.750000 0.686409
O O10 0.348729 0.656681 0.863011
O O11 0.919260 0.250000 0.920632
O O12 0.941509 0.382298 0.862508
O O13 0.900402 0.350762 0.100970
O O14 0.500000 0.521718 0.754950
O O15 0.409653 0.486514 0.826397
#
# Coordination Sequence:
#
# PCOD8280854 Si02
#       6
#    16  16  16  16  16  16
#     4   9  20  38  60  86 120 158 198 250 295 352
#     4  11  21  33  58  87 120 167 201 242 289 347
#     4  10  21  39  59  85 123 167 204 236 291 362
#     4  10  21  37  58  85 120 154 194 245 295 356
#     4  10  22  41  64  86 113 155 199 245 308 367
#     4  11  22  36  59  90 120 148 201 250 294 340
#
# _framework density 19.746642000000001
#
# number of rings (size 3 to 8) (size 9 to 14) (size 15 to 20)
#    0.000    1.833    1.667    3.500    2.333    7.000 
#    0.000    4.167    0.000    0.000    0.000    4.667 
#    0.000    0.000    0.000    0.000    0.000    0.000 
#
# Total GULP energy -595216.121092 kJ/mol
# GULP energy per Si atom -12400.335856 kJ/mol
# Density = 1.970170 g / cm^3
# Si number density = 19.746642 Si / 1000 Ang^3
#
#
#
# Elastic Constant Matrix: (Units=GPa)
#
#
# Indices 1 2 3 4 5 6 
#
# 1 126.7173 49.0893 31.3582 0.0000 0.0000 0.0000
# 2 49.0893 134.1769 59.8508 0.0000 0.0000 0.0000
# 3 31.3582 59.8508 129.4279 0.0000 0.0000 0.0000
# 4 0.0000 0.0000 0.0000 29.4837 0.0000 0.0000
# 5 0.0000 0.0000 0.0000 0.0000 14.8277 0.0000
# 6 0.0000 0.0000 0.0000 0.0000 0.0000 16.3757
#
#
#
# Elastic Compliance Matrix: (Units=1/GPa)
#
#
# Indices 1 2 3 4 5 6 
#
# 1 0.009269 -0.003010 -0.000854 0.000000 0.000000 0.000000
# 2 -0.003010 0.010367 -0.004065 0.000000 0.000000 0.000000
# 3 -0.000854 -0.004065 0.009813 0.000000 0.000000 0.000000
# 4 0.000000 0.000000 0.000000 0.033917 0.000000 0.000000
# 5 0.000000 0.000000 0.000000 0.000000 0.067441 0.000000
# 6 0.000000 0.000000 0.000000 0.000000 0.000000 0.061066
#
#
# Mechanical properties :
#
#
# Convention : Reuss Voigt Hill
#
# Bulk Modulus (GPa) = 73.57485 74.54649 74.06067
# Shear Modulus (GPa) = 23.55584 28.80568 26.18076
#
# Velocity S-wave (km/s) = 3.45759 3.82352 3.64515
# Velocity P-wave (km/s) = 7.29933 7.57138 7.43660
#
# Compressibility (1/GPa) = 0.01359160
#
# Stress axis : x y z
#
# Youngs Moduli (GPa) = 107.88634 96.45699 101.90778
#
# Poissons Ratio (x) = 0.29037 0.08700
# Poissons Ratio (y) = 0.32477 0.41423
# Poissons Ratio (z) = 0.09210 0.39207
#
# Static dielectric constant tensor:
#      x y z
#    x 3.334830 0.000000 0.000000 
#    y 0.000000 3.627800 0.000000 
#    z 0.000000 0.000000 3.833850 
# 
# 
# High freq. dielectric constant tensor:
#      x y z
#    x 1.752190 0.000000 0.000000 
#    y 0.000000 1.763580 0.000000 
#    z 0.000000 0.000000 1.775690 
# 
# From -- ./inp_files/13722.got.cif
#   From: 2010.03.12/outbox.cif.g09.slc.cpg/sg67_7_cif.got.tgz:13722.got - 2010.04.10 22:41:39.
