data_PCOD8280694
_publ_section_title
;
Structure prediction by ZEFSAII (Michael W. Deem and Ramdas Pophale) SiO2 
 PCOD8280694
Probable space group: C M M A
;
_chemical_formula_sum "Si O2"
_cell_formula_units_Z 96
_cell_length_a 22.754387
_cell_length_b 19.125129
_cell_length_c 10.641838
_cell_angle_alpha 90.000000
_cell_angle_beta 90.000000
_cell_angle_gamma 90.000000
_cell_volume 4631.121304
_symmetry_space_group_name_H-M "C M M A"
_symmetry_group_IT_number 67
_symmetry_cell_setting 'orthorhombic'
loop_
_space_group_symop_operation_xyz
x,y,z
-x,1/2-y,z
x,-y,-z
-x,1/2+y,-z
-x,-y,-z
x,1/2+y,-z
-x,y,z
x,1/2-y,z
1/2+x,1/2+y,z
1/2-x,-y,z
1/2+x,1/2-y,-z
1/2-x,y,-z
1/2-x,1/2-y,-z
1/2+x,y,-z
1/2-x,1/2+y,z
1/2+x,-y,z
loop_
_atom_site_type_symbol
_atom_site_label
_atom_site_fract_x
_atom_site_fract_y
_atom_site_fract_z
Si Si1 0.855866 0.828820 0.601212
Si Si2 0.645703 0.421473 0.979500
Si Si3 0.664626 0.830851 0.672639
Si Si4 0.567376 0.910820 0.779876
Si Si5 0.932869 0.930140 0.739428
Si Si6 0.769518 0.670430 0.834195
O O1 0.882607 0.750000 0.591382
O O2 0.819782 0.846377 0.473173
O O3 0.907356 0.885959 0.622311
O O4 0.811554 0.833024 0.715264
O O5 0.602743 0.411799 0.863064
O O6 0.702654 0.371622 0.953932
O O7 0.669403 0.500000 0.000000
O O8 0.604730 0.400250 0.094345
O O9 0.668971 0.750000 0.702473
O O10 0.597591 0.857120 0.684541
O O11 0.709271 0.864903 0.777247
O O12 0.500000 0.890467 0.806001
O O13 0.572292 0.986963 0.716435
O O14 0.000000 0.907985 0.760069
O O15 0.761206 0.750000 0.880028
#
# Coordination Sequence:
#
# PCOD8280694 Si02
#       6
#    16  16  16  16  16  16
#     4   9  18  34  56  81 108 139 177 223 273 321
#     4   9  18  35  57  80 108 139 177 225 275 322
#     4  10  21  36  54  77 108 144 179 219 270 326
#     4  10  21  36  53  75 108 148 184 219 266 323
#     4   9  18  34  56  80 106 140 182 225 267 314
#     4   9  18  35  59  83 106 137 179 225 273 325
#
# _framework density 20.729322
#
# number of rings (size 3 to 8) (size 9 to 14) (size 15 to 20)
#    0.000    2.667    0.000    1.000    0.000    7.333 
#    0.000   15.000    0.000    9.000    0.000    0.000 
#    0.000    0.000    0.000    0.000    0.000    0.333 
#
# Total GULP energy -594763.674756 kJ/mol
# GULP energy per Si atom -12390.909891 kJ/mol
# Density = 2.068214 g / cm^3
# Si number density = 20.729322 Si / 1000 Ang^3
#
#
#
# Elastic Constant Matrix: (Units=GPa)
#
#
# Indices 1 2 3 4 5 6 
#
# 1 122.7524 46.9178 36.7728 0.0000 0.0000 0.0000
# 2 46.9178 43.7900 39.4540 0.0000 0.0000 0.0000
# 3 36.7728 39.4540 79.8333 0.0000 0.0000 0.0000
# 4 0.0000 0.0000 0.0000 29.6347 0.0000 0.0000
# 5 0.0000 0.0000 0.0000 0.0000 8.7006 0.0000
# 6 0.0000 0.0000 0.0000 0.0000 0.0000 31.0014
#
#
#
# Elastic Compliance Matrix: (Units=1/GPa)
#
#
# Indices 1 2 3 4 5 6 
#
# 1 0.013928 -0.016481 0.001730 0.000000 0.000000 0.000000
# 2 -0.016481 0.060668 -0.022391 0.000000 0.000000 0.000000
# 3 0.001730 -0.022391 0.022795 0.000000 0.000000 0.000000
# 4 0.000000 0.000000 0.000000 0.033744 0.000000 0.000000
# 5 0.000000 0.000000 0.000000 0.000000 0.114935 0.000000
# 6 0.000000 0.000000 0.000000 0.000000 0.000000 0.032257
#
#
# Mechanical properties :
#
#
# Convention : Reuss Voigt Hill
#
# Bulk Modulus (GPa) = 43.27812 54.74055 49.00933
# Shear Modulus (GPa) = 13.87679 22.08272 17.97976
#
# Velocity S-wave (km/s) = 2.59014 3.26742 2.94829
# Velocity P-wave (km/s) = 5.46518 6.37960 5.94001
#
# Compressibility (1/GPa) = 0.02310636
#
# Stress axis : x y z
#
# Youngs Moduli (GPa) = 71.80033 16.48311 43.86864
#
# Poissons Ratio (x) = 0.27165 -0.07587
# Poissons Ratio (y) = 1.18331 0.98227
# Poissons Ratio (z) = -0.12418 0.36908
#
# Static dielectric constant tensor:
#      x y z
#    x 3.925300 0.000000 0.000000 
#    y 0.000000 3.812330 0.000000 
#    z 0.000000 0.000000 3.950600 
# 
# 
# High freq. dielectric constant tensor:
#      x y z
#    x 1.814100 0.000000 0.000000 
#    y 0.000000 1.793200 0.000000 
#    z 0.000000 0.000000 1.824170 
# 
# From -- ./inp_files/20851.got.cif
#   From: 2010.03.12/outbox.cif.g09.slc.cpg/sg67_11_cif.got.tgz:20851.got - 2010.04.10 22:41:39.
