data_PCOD8280465
_publ_section_title
;
Structure prediction by ZEFSAII (Michael W. Deem and Ramdas Pophale) SiO2 
 PCOD8280465
Probable space group: C M M A
;
_chemical_formula_sum "Si O2"
_cell_formula_units_Z 56
_cell_length_a 10.552241
_cell_length_b 29.952764
_cell_length_c 8.970610
_cell_angle_alpha 90.000000
_cell_angle_beta 90.000000
_cell_angle_gamma 90.000000
_cell_volume 2835.329798
_symmetry_space_group_name_H-M "C M M A"
_symmetry_group_IT_number 67
_symmetry_cell_setting 'orthorhombic'
loop_
_space_group_symop_operation_xyz
x,y,z
-x,1/2-y,z
x,-y,-z
-x,1/2+y,-z
-x,-y,-z
x,1/2+y,-z
-x,y,z
x,1/2-y,z
1/2+x,1/2+y,z
1/2-x,-y,z
1/2+x,1/2-y,-z
1/2-x,y,-z
1/2-x,1/2-y,-z
1/2+x,y,-z
1/2-x,1/2+y,z
1/2+x,-y,z
loop_
_atom_site_type_symbol
_atom_site_label
_atom_site_fract_x
_atom_site_fract_y
_atom_site_fract_z
Si Si1 0.142762 0.156987 0.256217
Si Si2 0.750000 0.093661 0.500000
Si Si3 0.750000 0.099939 0.000000
Si Si4 0.142962 0.537527 0.242457
Si Si5 0.655034 0.750000 0.362274
O O1 0.167267 0.124614 0.394748
O O2 0.203924 0.206131 0.271520
O O3 0.000000 0.169803 0.258412
O O4 0.170178 0.132439 0.102966
O O5 0.841621 0.063089 0.600987
O O6 0.843239 0.070088 0.899137
O O7 0.250000 0.500000 0.228805
O O8 0.000000 0.517238 0.238196
O O9 0.500000 0.750000 0.399709
O O10 0.750000 0.750000 0.500000
#
# Coordination Sequence:
#
# PCOD8280465 Si02
#       5
#    16   8   8  16   8
#     4  10  20  37  60  86 120 156 193 239 291 348
#     4  10  21  37  60  86 118 152 196 245 293 352
#     4  10  23  39  58  84 118 158 200 239 291 350
#     4  11  24  40  60  86 117 155 199 247 299 352
#     4  10  20  37  62  92 122 154 192 239 292 344
#
# _framework density 19.750789000000001
#
# number of rings (size 3 to 8) (size 9 to 14) (size 15 to 20)
#    0.000    1.714    1.429    2.571    0.000    9.714 
#    0.000    1.429    0.000    0.000    0.000    0.000 
#    0.000    0.000    0.000    0.000    0.000    0.000 
#
# Total GULP energy -346889.851302 kJ/mol
# GULP energy per Si atom -12388.923261 kJ/mol
# Density = 1.970583 g / cm^3
# Si number density = 19.750789 Si / 1000 Ang^3
#
#
#
# Elastic Constant Matrix: (Units=GPa)
#
#
# Indices 1 2 3 4 5 6 
#
# 1 104.0589 50.5863 33.3586 0.0000 0.0000 0.0000
# 2 50.5863 148.8419 60.9751 0.0000 0.0000 0.0000
# 3 33.3586 60.9751 133.2412 0.0000 0.0000 0.0000
# 4 0.0000 0.0000 0.0000 -23.7913 0.0000 0.0000
# 5 0.0000 0.0000 0.0000 0.0000 10.3348 0.0000
# 6 0.0000 0.0000 0.0000 0.0000 0.0000 30.4719
#
#
#
# Elastic Compliance Matrix: (Units=1/GPa)
#
#
# Indices 1 2 3 4 5 6 
#
# 1 0.011711 -0.003420 -0.001367 0.000000 0.000000 0.000000
# 2 -0.003420 0.009268 -0.003385 0.000000 0.000000 0.000000
# 3 -0.001367 -0.003385 0.009396 0.000000 0.000000 0.000000
# 4 0.000000 0.000000 0.000000 -0.042032 0.000000 0.000000
# 5 0.000000 0.000000 0.000000 0.000000 0.096760 0.000000
# 6 0.000000 0.000000 0.000000 0.000000 0.000000 0.032817
#
#
# Mechanical properties :
#
#
# Convention : Reuss Voigt Hill
#
# Bulk Modulus (GPa) = 71.26992 75.10910 73.18951
# Shear Modulus (GPa) = 35.98667 19.48456 27.73561
#
# Velocity S-wave (km/s) = 4.27316 3.14430 3.75144
# Velocity P-wave (km/s) = 7.77878 7.16192 7.47672
#
# Compressibility (1/GPa) = 0.01403117
#
# Stress axis : x y z
#
# Youngs Moduli (GPa) = 85.39170 107.90305 106.42403
#
# Poissons Ratio (x) = 0.36905 0.14546
# Poissons Ratio (y) = 0.29205 0.36023
# Poissons Ratio (z) = 0.11671 0.36523
#
# Static dielectric constant tensor:
#      x y z
#    x 3.413770 0.000000 0.000000 
#    y 0.000000 3.861610 0.000000 
#    z 0.000000 0.000000 -0.661120 
# 
# 
# High freq. dielectric constant tensor:
#      x y z
#    x 1.758920 0.000000 0.000000 
#    y 0.000000 1.788400 0.000000 
#    z 0.000000 0.000000 1.776760 
# 
# From -- ./inp_files/6678.got.cif
#   From: 2010.03.12/outbox.cif.g09.slc.cpg/sg67_4_cif.got.tgz:6678.got - 2010.04.10 22:41:39.
