data_PCOD8280654
_publ_section_title
;
Structure prediction by ZEFSAII (Michael W. Deem and Ramdas Pophale) SiO2 
 PCOD8280654
Probable space group: C M M A
;
_chemical_formula_sum "Si O2"
_cell_formula_units_Z 96
_cell_length_a 18.565141
_cell_length_b 8.758478
_cell_length_c 30.737651
_cell_angle_alpha 90.000000
_cell_angle_beta 90.000000
_cell_angle_gamma 90.000000
_cell_volume 4998.015178
_symmetry_space_group_name_H-M "C M M A"
_symmetry_group_IT_number 67
_symmetry_cell_setting 'orthorhombic'
loop_
_space_group_symop_operation_xyz
x,y,z
-x,1/2-y,z
x,-y,-z
-x,1/2+y,-z
-x,-y,-z
x,1/2+y,-z
-x,y,z
x,1/2-y,z
1/2+x,1/2+y,z
1/2-x,-y,z
1/2+x,1/2-y,-z
1/2-x,y,-z
1/2-x,1/2-y,-z
1/2+x,y,-z
1/2-x,1/2+y,z
1/2+x,-y,z
loop_
_atom_site_type_symbol
_atom_site_label
_atom_site_fract_x
_atom_site_fract_y
_atom_site_fract_z
Si Si1 0.583151 0.573591 0.789884
Si Si2 0.916980 0.429229 0.454142
Si Si3 0.081947 0.430580 0.955310
Si Si4 0.671628 0.429783 0.376137
Si Si5 0.671593 0.930965 0.873305
Si Si6 0.084084 0.926194 0.699838
O O1 0.500000 0.549430 0.802237
O O2 0.598832 0.750000 0.778954
O O3 0.629619 0.514361 0.830379
O O4 0.605711 0.472490 0.748620
O O5 0.893850 0.500000 0.500000
O O6 0.903014 0.250000 0.455565
O O7 0.867986 0.502838 0.417716
O O8 0.000000 0.467217 0.443551
O O9 0.086318 0.250000 0.958335
O O10 0.129571 0.493378 0.915536
O O11 0.000000 0.485463 0.947726
O O12 0.112922 0.500000 0.000000
O O13 0.677707 0.250000 0.381402
O O14 0.750000 0.500000 0.372140
O O15 0.627639 0.468652 0.332957
O O16 0.675946 0.750000 0.874635
O O17 0.750000 0.000000 0.872655
O O18 0.104182 0.750000 0.692005
O O19 0.000000 0.956190 0.691741
#
# Coordination Sequence:
#
# PCOD8280654 Si02
#       6
#    16  16  16  16  16  16
#     4   9  18  35  58  80 103 138 184 227 267 316
#     4  10  21  39  63  90 119 151 190 235 281 331
#     4   9  18  34  55  77 101 133 175 220 264 312
#     4  12  25  40  59  84 116 153 192 233 281 335
#     4  10  21  35  52  76 107 141 175 216 267 322
#     4  10  21  38  60  86 115 146 183 229 278 329
#
# _framework density 19.207626000000001
#
# number of rings (size 3 to 8) (size 9 to 14) (size 15 to 20)
#    0.000    2.000    0.000    3.500    0.000    8.667 
#    0.000    5.000    0.000    5.000    0.000    0.000 
#    0.000    0.000    0.000    0.000    0.000    0.000 
#
# Total GULP energy -595402.116458 kJ/mol
# GULP energy per Si atom -12404.210760 kJ/mol
# Density = 1.916391 g / cm^3
# Si number density = 19.207626 Si / 1000 Ang^3
#
#
#
# Elastic Constant Matrix: (Units=GPa)
#
#
# Indices 1 2 3 4 5 6 
#
# 1 95.6558 31.1722 77.4833 0.0000 0.0000 0.0000
# 2 31.1722 56.1348 38.2118 0.0000 0.0000 0.0000
# 3 77.4833 38.2118 150.3013 0.0000 0.0000 0.0000
# 4 0.0000 0.0000 0.0000 35.6554 0.0000 0.0000
# 5 0.0000 0.0000 0.0000 0.0000 7.3185 0.0000
# 6 0.0000 0.0000 0.0000 0.0000 0.0000 33.3608
#
#
#
# Elastic Compliance Matrix: (Units=1/GPa)
#
#
# Indices 1 2 3 4 5 6 
#
# 1 0.018912 -0.004674 -0.008561 0.000000 0.000000 0.000000
# 2 -0.004674 0.022698 -0.003361 0.000000 0.000000 0.000000
# 3 -0.008561 -0.003361 0.011921 0.000000 0.000000 0.000000
# 4 0.000000 0.000000 0.000000 0.028046 0.000000 0.000000
# 5 0.000000 0.000000 0.000000 0.000000 0.136640 0.000000
# 6 0.000000 0.000000 0.000000 0.000000 0.000000 0.029975
#
#
# Mechanical properties :
#
#
# Convention : Reuss Voigt Hill
#
# Bulk Modulus (GPa) = 49.16822 66.20293 57.68558
# Shear Modulus (GPa) = 17.35118 25.61526 21.48322
#
# Velocity S-wave (km/s) = 3.00884 3.65581 3.34799
# Velocity P-wave (km/s) = 6.14204 7.23614 6.71142
#
# Compressibility (1/GPa) = 0.02033834
#
# Stress axis : x y z
#
# Youngs Moduli (GPa) = 52.87582 44.05724 83.88392
#
# Poissons Ratio (x) = 0.20594 0.71815
# Poissons Ratio (y) = 0.24716 0.28192
# Poissons Ratio (z) = 0.45268 0.14807
#
# Static dielectric constant tensor:
#      x y z
#    x 2.859730 0.000000 0.000000 
#    y 0.000000 3.525330 0.000000 
#    z 0.000000 0.000000 3.609290 
# 
# 
# High freq. dielectric constant tensor:
#      x y z
#    x 1.744550 0.000000 0.000000 
#    y 0.000000 1.746980 0.000000 
#    z 0.000000 0.000000 1.763660 
# 
# From -- ./inp_files/44587.got.cif
#   From: 2010.03.12/outbox.cif.g09.slc.cpg/sg67_23_cif.got.tgz:44587.got - 2010.04.10 22:41:39.
