data_PCOD8280796
_publ_section_title
;
Structure prediction by ZEFSAII (Michael W. Deem and Ramdas Pophale) SiO2 
 PCOD8280796
Probable space group: C M M A
;
_chemical_formula_sum "Si O2"
_cell_formula_units_Z 72
_cell_length_a 14.463848
_cell_length_b 9.221252
_cell_length_c 29.076620
_cell_angle_alpha 90.000000
_cell_angle_beta 90.000000
_cell_angle_gamma 90.000000
_cell_volume 3878.088008
_symmetry_space_group_name_H-M "C M M A"
_symmetry_group_IT_number 67
_symmetry_cell_setting 'orthorhombic'
loop_
_space_group_symop_operation_xyz
x,y,z
-x,1/2-y,z
x,-y,-z
-x,1/2+y,-z
-x,-y,-z
x,1/2+y,-z
-x,y,z
x,1/2-y,z
1/2+x,1/2+y,z
1/2-x,-y,z
1/2+x,1/2-y,-z
1/2-x,y,-z
1/2-x,1/2-y,-z
1/2+x,y,-z
1/2-x,1/2+y,z
1/2+x,-y,z
loop_
_atom_site_type_symbol
_atom_site_label
_atom_site_fract_x
_atom_site_fract_y
_atom_site_fract_z
Si Si1 0.155262 0.917789 0.642697
Si Si2 0.847620 0.580465 0.541675
Si Si3 0.500000 0.418959 0.193376
Si Si4 0.847415 0.919627 0.120132
Si Si5 0.000000 0.079294 0.951947
Si Si6 0.500000 0.578026 0.289141
O O1 0.177430 0.750000 0.649799
O O2 0.107335 0.940243 0.592239
O O3 0.088386 0.976540 0.682336
O O4 0.250000 0.000000 0.648139
O O5 0.904068 0.500000 0.500000
O O6 0.837217 0.750000 0.529716
O O7 0.750000 0.500000 0.544301
O O8 0.500000 0.250000 0.205487
O O9 0.407661 0.459323 0.165035
O O10 0.500000 0.510656 0.239235
O O11 0.826512 0.750000 0.118700
O O12 0.907643 0.966334 0.075764
O O13 0.750000 0.000000 0.120891
O O14 0.000000 0.250000 0.960115
O O15 0.000000 0.000000 0.000000
O O16 0.500000 0.750000 0.284624
#
# Coordination Sequence:
#
# PCOD8280796 Si02
#       6
#    16  16   8  16   8   8
#     4   9  19  34  51  71  98 129 161 199 246 299
#     4   9  15  25  43  66  91 121 155 192 235 286
#     4   9  20  38  55  74 102 134 168 213 263 308
#     4   9  19  36  56  78 107 141 178 218 261 305
#     4   9  19  35  53  78 114 151 182 217 258 302
#     4  10  21  37  54  74 100 131 166 206 254 308
#
# _framework density 18.565850000000001
#
# number of rings (size 3 to 8) (size 9 to 14) (size 15 to 20)
#    0.000    2.889    0.000    2.667    0.000    4.889 
#    0.000    9.444    0.000    0.000    0.000    0.000 
#    0.000    0.000    0.000    0.000    0.000    0.000 
#
# Total GULP energy -446066.662841 kJ/mol
# GULP energy per Si atom -12390.740634 kJ/mol
# Density = 1.852359 g / cm^3
# Si number density = 18.565850 Si / 1000 Ang^3
#
#
#
# Elastic Constant Matrix: (Units=GPa)
#
#
# Indices 1 2 3 4 5 6 
#
# 1 132.3139 51.3962 72.8587 0.0000 0.0000 0.0000
# 2 51.3962 71.3444 59.6216 0.0000 0.0000 0.0000
# 3 72.8587 59.6216 168.2359 0.0000 0.0000 0.0000
# 4 0.0000 0.0000 0.0000 38.7514 0.0000 0.0000
# 5 0.0000 0.0000 0.0000 0.0000 22.4268 0.0000
# 6 0.0000 0.0000 0.0000 0.0000 0.0000 26.0311
#
#
#
# Elastic Compliance Matrix: (Units=1/GPa)
#
#
# Indices 1 2 3 4 5 6 
#
# 1 0.011398 -0.005805 -0.002879 0.000000 0.000000 0.000000
# 2 -0.005805 0.022871 -0.005591 0.000000 0.000000 0.000000
# 3 -0.002879 -0.005591 0.009172 0.000000 0.000000 0.000000
# 4 0.000000 0.000000 0.000000 0.025806 0.000000 0.000000
# 5 0.000000 0.000000 0.000000 0.000000 0.044589 0.000000
# 6 0.000000 0.000000 0.000000 0.000000 0.000000 0.038416
#
#
# Mechanical properties :
#
#
# Convention : Reuss Voigt Hill
#
# Bulk Modulus (GPa) = 67.15598 82.18304 74.66951
# Shear Modulus (GPa) = 26.91553 29.97638 28.44595
#
# Velocity S-wave (km/s) = 3.81167 4.02256 3.91853
# Velocity P-wave (km/s) = 7.45802 8.12013 7.79611
#
# Compressibility (1/GPa) = 0.01489071
#
# Stress axis : x y z
#
# Youngs Moduli (GPa) = 87.73445 43.72322 109.02401
#
# Poissons Ratio (x) = 0.25383 0.31386
# Poissons Ratio (y) = 0.50932 0.60958
# Poissons Ratio (z) = 0.25257 0.24447
#
# Static dielectric constant tensor:
#      x y z
#    x 3.291490 0.000000 0.000000 
#    y 0.000000 3.310350 0.000000 
#    z 0.000000 0.000000 3.989820 
# 
# 
# High freq. dielectric constant tensor:
#      x y z
#    x 1.707910 0.000000 0.000000 
#    y 0.000000 1.716070 0.000000 
#    z 0.000000 0.000000 1.731180 
# 
# From -- ./inp_files/45165.got.cif
#   From: 2010.03.12/outbox.cif.g09.slc.cpg/sg67_23_cif.got.tgz:45165.got - 2010.04.10 22:41:39.
