data_PCOD8280272
_publ_section_title
;
Structure prediction by ZEFSAII (Michael W. Deem and Ramdas Pophale) SiO2 
 PCOD8280272
Probable space group: C M M A
;
_chemical_formula_sum "Si O2"
_cell_formula_units_Z 84
_cell_length_a 15.980857
_cell_length_b 13.828045
_cell_length_c 19.162902
_cell_angle_alpha 90.000000
_cell_angle_beta 90.000000
_cell_angle_gamma 90.000000
_cell_volume 4234.694922
_symmetry_space_group_name_H-M "C M M A"
_symmetry_group_IT_number 67
_symmetry_cell_setting 'orthorhombic'
loop_
_space_group_symop_operation_xyz
x,y,z
-x,1/2-y,z
x,-y,-z
-x,1/2+y,-z
-x,-y,-z
x,1/2+y,-z
-x,y,z
x,1/2-y,z
1/2+x,1/2+y,z
1/2-x,-y,z
1/2+x,1/2-y,-z
1/2-x,y,-z
1/2-x,1/2-y,-z
1/2+x,y,-z
1/2-x,1/2+y,z
1/2+x,-y,z
loop_
_atom_site_type_symbol
_atom_site_label
_atom_site_fract_x
_atom_site_fract_y
_atom_site_fract_z
Si Si1 0.500000 0.750000 0.859947
Si Si2 0.901849 0.951267 0.712477
Si Si3 0.672332 0.750000 0.814763
Si Si4 0.312898 0.750000 0.297350
Si Si5 0.097556 0.056898 0.569036
Si Si6 0.703940 0.250000 0.428119
Si Si7 0.500000 0.457821 0.076861
Si Si8 0.834967 0.042387 0.847432
O O1 0.572533 0.750000 0.801402
O O2 0.500000 0.658398 0.912710
O O3 0.869541 0.842172 0.720361
O O4 0.000000 0.955209 0.730588
O O5 0.884161 0.987800 0.634542
O O6 0.850260 0.019495 0.765543
O O7 0.727180 0.750000 0.745978
O O8 0.685806 0.845310 0.860526
O O9 0.282321 0.750000 0.376091
O O10 0.147196 0.155553 0.580228
O O11 0.000000 0.082991 0.562321
O O12 0.128447 0.000000 0.500000
O O13 0.750000 0.250000 0.500000
O O14 0.415378 0.498773 0.111757
O O15 0.500000 0.500000 0.000000
O O16 0.750000 0.000000 0.877830
#
# Coordination Sequence:
#
# PCOD8280272 Si02
#       8
#     4  16   8   8  16   8   8  16
#     4   8  20  40  62  92 128 156 200 250 298 358
#     4  11  23  40  61  88 121 164 208 255 312 366
#     4  10  20  35  59  90 122 157 197 251 300 349
#     4  12  23  37  59  90 122 158 204 261 308 370
#     4  10  23  42  61  83 118 162 208 257 312 376
#     4  12  25  38  57  87 117 156 204 260 319 371
#     4  10  22  42  66  96 125 167 207 246 314 370
#     4  11  21  39  64  91 128 161 205 257 304 368
#
# _framework density 19.83614
#
# number of rings (size 3 to 8) (size 9 to 14) (size 15 to 20)
#    0.000    1.333    2.857    2.857    0.000    2.286 
#    1.714    5.714    0.000    3.429    0.000    0.000 
#    0.000    0.000    0.000    0.000    0.000    0.000 
#
# Total GULP energy -520569.448922 kJ/mol
# GULP energy per Si atom -12394.510689 kJ/mol
# Density = 1.979099 g / cm^3
# Si number density = 19.836140 Si / 1000 Ang^3
#
#
#
# Elastic Constant Matrix: (Units=GPa)
#
#
# Indices 1 2 3 4 5 6 
#
# 1 130.5935 55.3099 40.1710 0.0000 0.0000 0.0000
# 2 55.3099 123.5657 20.2718 0.0000 0.0000 0.0000
# 3 40.1710 20.2718 91.3855 0.0000 0.0000 0.0000
# 4 0.0000 0.0000 0.0000 21.2423 0.0000 0.0000
# 5 0.0000 0.0000 0.0000 0.0000 19.8310 0.0000
# 6 0.0000 0.0000 0.0000 0.0000 0.0000 30.8940
#
#
#
# Elastic Compliance Matrix: (Units=1/GPa)
#
#
# Indices 1 2 3 4 5 6 
#
# 1 0.010542 -0.004108 -0.003723 0.000000 0.000000 0.000000
# 2 -0.004108 0.009999 -0.000412 0.000000 0.000000 0.000000
# 3 -0.003723 -0.000412 0.012671 0.000000 0.000000 0.000000
# 4 0.000000 0.000000 0.000000 0.047076 0.000000 0.000000
# 5 0.000000 0.000000 0.000000 0.000000 0.050426 0.000000
# 6 0.000000 0.000000 0.000000 0.000000 0.000000 0.032369
#
#
# Mechanical properties :
#
#
# Convention : Reuss Voigt Hill
#
# Bulk Modulus (GPa) = 59.78823 64.11669 61.95246
# Shear Modulus (GPa) = 27.00585 29.71293 28.35939
#
# Velocity S-wave (km/s) = 3.69378 3.87449 3.78522
# Velocity P-wave (km/s) = 6.95690 7.23940 7.09956
#
# Compressibility (1/GPa) = 0.01672570
#
# Stress axis : x y z
#
# Youngs Moduli (GPa) = 94.85448 100.00613 78.92276
#
# Poissons Ratio (x) = 0.41084 0.29382
# Poissons Ratio (y) = 0.38968 0.03254
# Poissons Ratio (z) = 0.35314 0.04123
#
# Static dielectric constant tensor:
#      x y z
#    x 3.940740 0.000000 0.000000 
#    y 0.000000 3.990650 0.000000 
#    z 0.000000 0.000000 3.333300 
# 
# 
# High freq. dielectric constant tensor:
#      x y z
#    x 1.795850 0.000000 0.000000 
#    y 0.000000 1.783700 0.000000 
#    z 0.000000 0.000000 1.747650 
# 
# From -- ./inp_files/38358.got.cif
#   From: 2010.03.12/outbox.cif.g09.slc.cpg/sg67_20_cif.got.tgz:38358.got - 2010.04.10 22:41:39.
