data_PCOD8280666
_publ_section_title
;
Structure prediction by ZEFSAII (Michael W. Deem and Ramdas Pophale) SiO2 
 PCOD8280666
Probable space group: C M M A
;
_chemical_formula_sum "Si O2"
_cell_formula_units_Z 64
_cell_length_a 8.586921
_cell_length_b 38.032247
_cell_length_c 8.157163
_cell_angle_alpha 90.000000
_cell_angle_beta 90.000000
_cell_angle_gamma 90.000000
_cell_volume 2663.965480
_symmetry_space_group_name_H-M "C M M A"
_symmetry_group_IT_number 67
_symmetry_cell_setting 'orthorhombic'
loop_
_space_group_symop_operation_xyz
x,y,z
-x,1/2-y,z
x,-y,-z
-x,1/2+y,-z
-x,-y,-z
x,1/2+y,-z
-x,y,z
x,1/2-y,z
1/2+x,1/2+y,z
1/2-x,-y,z
1/2+x,1/2-y,-z
1/2-x,y,-z
1/2-x,1/2-y,-z
1/2+x,y,-z
1/2-x,1/2+y,z
1/2+x,-y,z
loop_
_atom_site_type_symbol
_atom_site_label
_atom_site_fract_x
_atom_site_fract_y
_atom_site_fract_z
Si Si1 0.000000 0.291289 0.537688
Si Si2 0.185235 0.535579 0.181312
Si Si3 0.177369 0.106742 0.667798
Si Si4 0.172848 0.321271 0.819265
Si Si5 0.500000 0.208217 0.840868
O O1 0.154074 0.305395 0.635139
O O2 0.000000 0.303706 0.350036
O O3 0.000000 0.250000 0.548180
O O4 0.250000 0.500000 0.267984
O O5 0.252760 0.569967 0.273561
O O6 0.000000 0.535045 0.177579
O O7 0.250000 0.537272 0.000000
O O8 0.250000 0.120392 0.500000
O O9 0.194416 0.136710 0.807163
O O10 0.000000 0.099496 0.628352
O O11 0.331613 0.307009 0.907602
O O12 0.000000 0.311827 0.906794
O O13 0.500000 0.250000 0.867079
#
# Coordination Sequence:
#
# PCOD8280666 Si02
#       5
#     8  16  16  16   8
#     4   9  16  26  40  58  92 135 172 214 261 309
#     4  10  21  39  60  84 110 142 181 226 273 325
#     4  10  21  35  54  79 112 147 182 223 276 331
#     4   9  20  30  42  66 102 139 179 225 270 323
#     4  11  18  26  42  64  94 141 186 220 269 327
#
# _framework density 24.024338
#
# number of rings (size 3 to 8) (size 9 to 14) (size 15 to 20)
#    0.750    1.500    0.000    4.500    1.750    4.500 
#    0.000    2.500    0.000    0.000    0.000    0.000 
#    0.000    6.000    0.000    0.000    0.000    0.000 
#
# Total GULP energy -396607.481219 kJ/mol
# GULP energy per Si atom -12393.983788 kJ/mol
# Density = 2.396966 g / cm^3
# Si number density = 24.024338 Si / 1000 Ang^3
#
#
#
# Elastic Constant Matrix: (Units=GPa)
#
#
# Indices 1 2 3 4 5 6 
#
# 1 148.1176 83.2583 86.4038 0.0000 0.0000 0.0000
# 2 83.2583 170.5559 35.6569 0.0000 0.0000 0.0000
# 3 86.4038 35.6569 94.9759 0.0000 0.0000 0.0000
# 4 0.0000 0.0000 0.0000 185.7709 0.0000 0.0000
# 5 0.0000 0.0000 0.0000 0.0000 42.9841 0.0000
# 6 0.0000 0.0000 0.0000 0.0000 0.0000 44.5090
#
#
#
# Elastic Compliance Matrix: (Units=1/GPa)
#
#
# Indices 1 2 3 4 5 6 
#
# 1 0.018839 -0.006092 -0.014852 0.000000 0.000000 0.000000
# 2 -0.006092 0.008332 0.002414 0.000000 0.000000 0.000000
# 3 -0.014852 0.002414 0.023134 0.000000 0.000000 0.000000
# 4 0.000000 0.000000 0.000000 0.005383 0.000000 0.000000
# 5 0.000000 0.000000 0.000000 0.000000 0.023264 0.000000
# 6 0.000000 0.000000 0.000000 0.000000 0.000000 0.022467
#
#
# Mechanical properties :
#
#
# Convention : Reuss Voigt Hill
#
# Bulk Modulus (GPa) = 75.49466 91.58749 83.54108
# Shear Modulus (GPa) = 34.99036 68.54149 51.76593
#
# Velocity S-wave (km/s) = 3.82049 5.34715 4.64694
# Velocity P-wave (km/s) = 7.13821 8.73660 7.97754
#
# Compressibility (1/GPa) = 0.01324597
#
# Stress axis : x y z
#
# Youngs Moduli (GPa) = 53.08001 120.01553 43.22555
#
# Poissons Ratio (x) = 0.73109 0.64199
# Poissons Ratio (y) = 0.32334 -0.10433
# Poissons Ratio (z) = 0.78835 -0.28967
#
# Static dielectric constant tensor:
#      x y z
#    x 4.631180 0.000000 0.000000 
#    y 0.000000 4.653520 0.000000 
#    z 0.000000 0.000000 4.617230 
# 
# 
# High freq. dielectric constant tensor:
#      x y z
#    x 1.974710 0.000000 0.000000 
#    y 0.000000 1.953310 0.000000 
#    z 0.000000 0.000000 1.973650 
# 
# From -- ./inp_files/15851.got.cif
#   From: 2010.03.12/outbox.cif.g09.slc.cpg/sg67_8_cif.got.tgz:15851.got - 2010.04.10 22:41:39.
