data_PCOD8280533
_publ_section_title
;
Structure prediction by ZEFSAII (Michael W. Deem and Ramdas Pophale) SiO2 
 PCOD8280533
Probable space group: C M M A
;
_chemical_formula_sum "Si O2"
_cell_formula_units_Z 64
_cell_length_a 16.807292
_cell_length_b 26.740716
_cell_length_c 7.321477
_cell_angle_alpha 90.000000
_cell_angle_beta 90.000000
_cell_angle_gamma 90.000000
_cell_volume 3290.557463
_symmetry_space_group_name_H-M "C M M A"
_symmetry_group_IT_number 67
_symmetry_cell_setting 'orthorhombic'
loop_
_space_group_symop_operation_xyz
x,y,z
-x,1/2-y,z
x,-y,-z
-x,1/2+y,-z
-x,-y,-z
x,1/2+y,-z
-x,y,z
x,1/2-y,z
1/2+x,1/2+y,z
1/2-x,-y,z
1/2+x,1/2-y,-z
1/2-x,y,-z
1/2-x,1/2-y,-z
1/2+x,y,-z
1/2-x,1/2+y,z
1/2+x,-y,z
loop_
_atom_site_type_symbol
_atom_site_label
_atom_site_fract_x
_atom_site_fract_y
_atom_site_fract_z
Si Si1 0.261234 0.806467 0.213086
Si Si2 0.174785 0.603248 0.391382
Si Si3 0.909923 0.131807 0.269028
Si Si4 0.408028 0.943744 0.945324
O O1 0.245247 0.750000 0.278648
O O2 0.199692 0.841730 0.319988
O O3 0.352386 0.820689 0.255283
O O4 0.250000 0.812613 0.000000
O O5 0.250000 0.579286 0.500000
O O6 0.101083 0.607168 0.531283
O O7 0.148794 0.568693 0.224310
O O8 0.000000 0.150325 0.245342
O O9 0.886482 0.091508 0.115226
O O10 0.500000 0.937098 0.888372
O O11 0.388766 0.000000 0.000000
#
# Coordination Sequence:
#
# PCOD8280533 Si02
#       4
#    16  16  16  16
#     4  10  20  38  61  83 114 155 192 234 291 348
#     4  10  21  37  60  86 116 152 192 242 289 344
#     4  10  21  37  60  87 115 151 195 240 285 343
#     4  10  21  39  61  83 117 158 194 238 291 343
#
# _framework density 19.449593
#
# number of rings (size 3 to 8) (size 9 to 14) (size 15 to 20)
#    0.000    2.000    2.500    0.750    0.000    6.000 
#    0.000   17.500    0.000    2.250    0.000    0.000 
#    0.000    0.000    0.000    0.000    0.000    0.000 
#
# Total GULP energy -396785.245705 kJ/mol
# GULP energy per Si atom -12399.538928 kJ/mol
# Density = 1.940532 g / cm^3
# Si number density = 19.449593 Si / 1000 Ang^3
#
#
#
# Elastic Constant Matrix: (Units=GPa)
#
#
# Indices 1 2 3 4 5 6 
#
# 1 83.2864 47.8612 57.6322 0.0000 0.0000 0.0000
# 2 47.8612 95.5000 56.9145 0.0000 0.0000 0.0000
# 3 57.6322 56.9145 143.0716 0.0000 0.0000 0.0000
# 4 0.0000 0.0000 0.0000 17.5929 0.0000 0.0000
# 5 0.0000 0.0000 0.0000 0.0000 35.0360 0.0000
# 6 0.0000 0.0000 0.0000 0.0000 0.0000 18.6357
#
#
#
# Elastic Compliance Matrix: (Units=1/GPa)
#
#
# Indices 1 2 3 4 5 6 
#
# 1 0.019403 -0.006640 -0.005174 0.000000 0.000000 0.000000
# 2 -0.006640 0.015998 -0.003689 0.000000 0.000000 0.000000
# 3 -0.005174 -0.003689 0.010541 0.000000 0.000000 0.000000
# 4 0.000000 0.000000 0.000000 0.056841 0.000000 0.000000
# 5 0.000000 0.000000 0.000000 0.000000 0.028542 0.000000
# 6 0.000000 0.000000 0.000000 0.000000 0.000000 0.053660
#
#
# Mechanical properties :
#
#
# Convention : Reuss Voigt Hill
#
# Bulk Modulus (GPa) = 66.95902 71.85266 69.40584
# Shear Modulus (GPa) = 22.62730 24.88295 23.75512
#
# Velocity S-wave (km/s) = 3.41454 3.58069 3.49860
# Velocity P-wave (km/s) = 7.07440 7.35652 7.21684
#
# Compressibility (1/GPa) = 0.01493451
#
# Stress axis : x y z
#
# Youngs Moduli (GPa) = 51.53740 62.50897 94.86404
#
# Poissons Ratio (x) = 0.41509 0.49087
# Poissons Ratio (y) = 0.34223 0.34996
# Poissons Ratio (z) = 0.26668 0.23060
#
# Static dielectric constant tensor:
#      x y z
#    x 3.629800 0.000000 0.000000 
#    y 0.000000 3.388520 0.000000 
#    z 0.000000 0.000000 3.831640 
# 
# 
# High freq. dielectric constant tensor:
#      x y z
#    x 1.754640 0.000000 0.000000 
#    y 0.000000 1.739130 0.000000 
#    z 0.000000 0.000000 1.782180 
# 
# From -- ./inp_files/9632.got.cif
#   From: 2010.03.12/outbox.cif.g09.slc.cpg/sg67_5_cif.got.tgz:9632.got - 2010.04.10 22:41:39.
