data_PCOD8280809
_publ_section_title
;
Structure prediction by ZEFSAII (Michael W. Deem and Ramdas Pophale) SiO2 
 PCOD8280809
Probable space group: C M M A
;
_chemical_formula_sum "Si O2"
_cell_formula_units_Z 80
_cell_length_a 13.974681
_cell_length_b 20.713730
_cell_length_c 12.877714
_cell_angle_alpha 90.000000
_cell_angle_beta 90.000000
_cell_angle_gamma 90.000000
_cell_volume 3727.683142
_symmetry_space_group_name_H-M "C M M A"
_symmetry_group_IT_number 67
_symmetry_cell_setting 'orthorhombic'
loop_
_space_group_symop_operation_xyz
x,y,z
-x,1/2-y,z
x,-y,-z
-x,1/2+y,-z
-x,-y,-z
x,1/2+y,-z
-x,y,z
x,1/2-y,z
1/2+x,1/2+y,z
1/2-x,-y,z
1/2+x,1/2-y,-z
1/2-x,y,-z
1/2-x,1/2-y,-z
1/2+x,y,-z
1/2-x,1/2+y,z
1/2+x,-y,z
loop_
_atom_site_type_symbol
_atom_site_label
_atom_site_fract_x
_atom_site_fract_y
_atom_site_fract_z
Si Si1 0.612777 0.321157 0.506801
Si Si2 0.105210 0.824900 0.272720
Si Si3 0.888212 0.953811 0.586856
Si Si4 0.389068 0.982325 0.181673
Si Si5 0.230681 0.398172 0.884753
O O1 0.500000 0.314393 0.514950
O O2 0.656500 0.250000 0.537485
O O3 0.641324 0.340417 0.388878
O O4 0.652903 0.379768 0.579269
O O5 0.090106 0.750000 0.259204
O O6 0.183820 0.845167 0.188715
O O7 0.000000 0.858344 0.253120
O O8 0.870820 0.990440 0.695310
O O9 0.000000 0.946358 0.564116
O O10 0.840834 0.000000 0.500000
O O11 0.500000 0.977243 0.152109
O O12 0.336984 0.915616 0.154016
O O13 0.340148 0.039925 0.117284
O O14 0.250000 0.371227 0.000000
#
# Coordination Sequence:
#
# PCOD8280809 Si02
#       5
#    16  16  16  16  16
#     4   8  14  27  50  80 112 146 182 220 270 333
#     4   9  18  35  60  86 112 145 185 229 276 330
#     4   9  16  28  50  77 106 142 181 224 275 334
#     4  10  21  37  55  78 109 143 181 225 280 341
#     4  11  23  37  56  80 107 141 185 241 289 328
#
# _framework density 21.461051999999999
#
# number of rings (size 3 to 8) (size 9 to 14) (size 15 to 20)
#    0.000    2.600    0.000    4.200    0.000    6.000 
#    0.000    8.000    0.000    4.200    0.000    0.000 
#    0.000    0.000    0.000    0.000    0.000    0.000 
#
# Total GULP energy -495570.080498 kJ/mol
# GULP energy per Si atom -12389.252012 kJ/mol
# Density = 2.141221 g / cm^3
# Si number density = 21.461052 Si / 1000 Ang^3
#
#
#
# Elastic Constant Matrix: (Units=GPa)
#
#
# Indices 1 2 3 4 5 6 
#
# 1 83.1200 0.0532 -3.7892 0.0000 0.0000 0.0000
# 2 0.0532 64.3372 0.4438 0.0000 0.0000 0.0000
# 3 -3.7892 0.4438 27.3716 0.0000 0.0000 0.0000
# 4 0.0000 0.0000 0.0000 32.2642 0.0000 0.0000
# 5 0.0000 0.0000 0.0000 0.0000 39.0926 0.0000
# 6 0.0000 0.0000 0.0000 0.0000 0.0000 13.3136
#
#
#
# Elastic Compliance Matrix: (Units=1/GPa)
#
#
# Indices 1 2 3 4 5 6 
#
# 1 0.012107 -0.000022 0.001676 0.000000 0.000000 0.000000
# 2 -0.000022 0.015545 -0.000255 0.000000 0.000000 0.000000
# 3 0.001676 -0.000255 0.036770 0.000000 0.000000 0.000000
# 4 0.000000 0.000000 0.000000 0.030994 0.000000 0.000000
# 5 0.000000 0.000000 0.000000 0.000000 0.025580 0.000000
# 6 0.000000 0.000000 0.000000 0.000000 0.000000 0.075111
#
#
# Mechanical properties :
#
#
# Convention : Reuss Voigt Hill
#
# Bulk Modulus (GPa) = 14.87604 18.69383 16.78493
# Shear Modulus (GPa) = 23.17862 28.80880 25.99371
#
# Velocity S-wave (km/s) = 3.28995 3.66782 3.48401
# Velocity P-wave (km/s) = 4.62368 5.16398 4.90128
#
# Compressibility (1/GPa) = 0.06722219
#
# Stress axis : x y z
#
# Youngs Moduli (GPa) = 82.59522 64.32984 27.19572
#
# Poissons Ratio (x) = 0.00139 -0.04559
# Poissons Ratio (y) = 0.00178 0.00694
# Poissons Ratio (z) = -0.13846 0.01641
#
# Static dielectric constant tensor:
#      x y z
#    x 4.246480 0.000000 0.000000 
#    y 0.000000 3.986010 0.000000 
#    z 0.000000 0.000000 3.788570 
# 
# 
# High freq. dielectric constant tensor:
#      x y z
#    x 1.843270 0.000000 0.000000 
#    y 0.000000 1.830850 0.000000 
#    z 0.000000 0.000000 1.821860 
# 
# From -- ./inp_files/17910.got.cif
#   From: 2010.03.12/outbox.cif.g09.slc.cpg/sg67_9_cif.got.tgz:17910.got - 2010.04.10 22:41:39.
