data_PCOD8280671
_publ_section_title
;
Structure prediction by ZEFSAII (Michael W. Deem and Ramdas Pophale) SiO2 
 PCOD8280671
Probable space group: C M M A
;
_chemical_formula_sum "Si O2"
_cell_formula_units_Z 128
_cell_length_a 22.257324
_cell_length_b 25.228127
_cell_length_c 10.787221
_cell_angle_alpha 90.000000
_cell_angle_beta 90.000000
_cell_angle_gamma 90.000000
_cell_volume 6057.138899
_symmetry_space_group_name_H-M "C M M A"
_symmetry_group_IT_number 67
_symmetry_cell_setting 'orthorhombic'
loop_
_space_group_symop_operation_xyz
x,y,z
-x,1/2-y,z
x,-y,-z
-x,1/2+y,-z
-x,-y,-z
x,1/2+y,-z
-x,y,z
x,1/2-y,z
1/2+x,1/2+y,z
1/2-x,-y,z
1/2+x,1/2-y,-z
1/2-x,y,-z
1/2-x,1/2-y,-z
1/2+x,y,-z
1/2-x,1/2+y,z
1/2+x,-y,z
loop_
_atom_site_type_symbol
_atom_site_label
_atom_site_fract_x
_atom_site_fract_y
_atom_site_fract_z
Si Si1 0.131000 0.977248 0.864375
Si Si2 0.931737 0.433058 0.712340
Si Si3 0.845362 0.648767 0.202813
Si Si4 0.933505 0.623007 0.812881
Si Si5 0.184539 0.810032 0.457515
Si Si6 0.068111 0.376020 0.470634
Si Si7 0.738067 0.909610 0.133967
Si Si8 0.837044 0.310852 0.071016
O O1 0.085884 0.928505 0.891245
O O2 0.191190 0.950330 0.803401
O O3 0.106660 0.018206 0.763982
O O4 0.143590 0.000000 0.000000
O O5 0.910361 0.376517 0.768713
O O6 0.924972 0.426680 0.562827
O O7 0.000000 0.442737 0.752997
O O8 0.821905 0.688101 0.308968
O O9 0.801039 0.596688 0.204693
O O10 0.848810 0.679750 0.074267
O O11 0.927901 0.604883 0.670239
O O12 0.895644 0.674950 0.848719
O O13 0.000000 0.639000 0.850300
O O14 0.182965 0.750000 0.504878
O O15 0.250000 0.834643 0.500000
O O16 0.125130 0.837286 0.513948
O O17 0.000000 0.350985 0.493278
O O18 0.715485 0.848665 0.120698
O O19 0.750000 0.934517 0.000000
O O20 0.818897 0.250000 0.094254
#
# Coordination Sequence:
#
# PCOD8280671 Si02
#       8
#    16  16  16  16  16  16  16  16
#     4  11  22  35  58  89 117 149 193 245 299 359
#     4  10  21  38  60  84 112 152 197 241 294 355
#     4  10  21  38  58  86 119 156 192 243 297 357
#     4  10  22  39  59  85 119 156 198 251 303 355
#     4  10  22  37  61  92 122 160 205 254 301 352
#     4   9  21  42  62  83 118 162 205 250 301 364
#     4   9  20  36  55  82 118 155 192 235 291 357
#     4  10  21  35  56  85 117 153 195 242 296 358
#
# _framework density 21.132090000000002
#
# number of rings (size 3 to 8) (size 9 to 14) (size 15 to 20)
#    0.000    2.125    0.000    3.000    3.500    8.500 
#    0.000    3.125    0.000    2.250    0.000    0.000 
#    0.000    0.000    0.000    0.000    0.000    0.000 
#
# Total GULP energy -792954.053449 kJ/mol
# GULP energy per Si atom -12389.907085 kJ/mol
# Density = 2.108399 g / cm^3
# Si number density = 21.132090 Si / 1000 Ang^3
#
#
#
# Elastic Constant Matrix: (Units=GPa)
#
#
# Indices 1 2 3 4 5 6 
#
# 1 131.1567 47.6194 32.4913 0.0000 0.0000 0.0000
# 2 47.6194 97.5828 29.7372 0.0000 0.0000 0.0000
# 3 32.4913 29.7372 61.0354 0.0000 0.0000 0.0000
# 4 0.0000 0.0000 0.0000 17.0908 0.0000 0.0000
# 5 0.0000 0.0000 0.0000 0.0000 28.4636 0.0000
# 6 0.0000 0.0000 0.0000 0.0000 0.0000 7.9682
#
#
#
# Elastic Compliance Matrix: (Units=1/GPa)
#
#
# Indices 1 2 3 4 5 6 
#
# 1 0.009833 -0.003762 -0.003402 0.000000 0.000000 0.000000
# 2 -0.003762 0.013474 -0.004562 0.000000 0.000000 0.000000
# 3 -0.003402 -0.004562 0.020417 0.000000 0.000000 0.000000
# 4 0.000000 0.000000 0.000000 0.058511 0.000000 0.000000
# 5 0.000000 0.000000 0.000000 0.000000 0.035133 0.000000
# 6 0.000000 0.000000 0.000000 0.000000 0.000000 0.125499
#
#
# Mechanical properties :
#
#
# Convention : Reuss Voigt Hill
#
# Bulk Modulus (GPa) = 49.32627 56.60785 52.96706
# Shear Modulus (GPa) = 17.06050 22.69966 19.88008
#
# Velocity S-wave (km/s) = 2.84443 3.28102 3.07050
# Velocity P-wave (km/s) = 5.84639 6.41867 6.13920
#
# Compressibility (1/GPa) = 0.02027317
#
# Stress axis : x y z
#
# Youngs Moduli (GPa) = 101.69892 74.21908 48.97774
#
# Poissons Ratio (x) = 0.27919 0.16661
# Poissons Ratio (y) = 0.38257 0.22344
# Poissons Ratio (z) = 0.34594 0.33859
#
# Static dielectric constant tensor:
#      x y z
#    x 4.237880 0.000000 0.000000 
#    y 0.000000 3.544710 0.000000 
#    z 0.000000 0.000000 3.807590 
# 
# 
# High freq. dielectric constant tensor:
#      x y z
#    x 1.847540 0.000000 0.000000 
#    y 0.000000 1.807730 0.000000 
#    z 0.000000 0.000000 1.819400 
# 
# From -- ./inp_files/22326.got.cif
#   From: 2010.03.12/outbox.cif.g09.slc.cpg/sg67_12_cif.got.tgz:22326.got - 2010.04.10 22:41:39.
