data_PCOD8280496
_publ_section_title
;
Structure prediction by ZEFSAII (Michael W. Deem and Ramdas Pophale) SiO2 
 PCOD8280496
Probable space group: C M M A
;
_chemical_formula_sum "Si O2"
_cell_formula_units_Z 104
_cell_length_a 16.075679
_cell_length_b 18.446043
_cell_length_c 17.282934
_cell_angle_alpha 90.000000
_cell_angle_beta 90.000000
_cell_angle_gamma 90.000000
_cell_volume 5124.954497
_symmetry_space_group_name_H-M "C M M A"
_symmetry_group_IT_number 67
_symmetry_cell_setting 'orthorhombic'
loop_
_space_group_symop_operation_xyz
x,y,z
-x,1/2-y,z
x,-y,-z
-x,1/2+y,-z
-x,-y,-z
x,1/2+y,-z
-x,y,z
x,1/2-y,z
1/2+x,1/2+y,z
1/2-x,-y,z
1/2+x,1/2-y,-z
1/2-x,y,-z
1/2-x,1/2-y,-z
1/2+x,y,-z
1/2-x,1/2+y,z
1/2+x,-y,z
loop_
_atom_site_type_symbol
_atom_site_label
_atom_site_fract_x
_atom_site_fract_y
_atom_site_fract_z
Si Si1 0.326096 0.409903 0.695497
Si Si2 0.097335 0.969476 0.414798
Si Si3 0.346029 0.833319 0.014856
Si Si4 0.290335 0.667534 0.583010
Si Si5 0.594381 0.670158 0.176274
Si Si6 0.750000 0.500000 0.181485
Si Si7 0.093528 0.042706 0.921549
O O1 0.357008 0.478559 0.646130
O O2 0.282986 0.349707 0.642825
O O3 0.401196 0.373755 0.743240
O O4 0.261140 0.431513 0.762177
O O5 0.133334 0.888341 0.407275
O O6 0.000000 0.966560 0.396143
O O7 0.114916 0.000000 0.500000
O O8 0.374603 0.750000 0.012801
O O9 0.361946 0.866667 0.101073
O O10 0.250000 0.844619 0.000000
O O11 0.395802 0.873349 0.946240
O O12 0.322592 0.750000 0.595859
O O13 0.250000 0.658194 0.500000
O O14 0.500000 0.675931 0.151414
O O15 0.633351 0.750000 0.189848
O O16 0.834850 0.515793 0.135728
O O17 0.000000 0.031292 0.886189
O O18 0.105732 0.000000 0.000000
#
# Coordination Sequence:
#
# PCOD8280496 Si02
#       7
#    16  16  16  16  16   8  16
#     4  12  22  40  64  91 124 165 207 261 314 377
#     4  11  23  41  67  95 128 167 211 261 310 375
#     4  10  20  37  62  88 121 167 215 263 318 381
#     4  11  23  42  68  94 126 167 211 258 312 378
#     4  10  21  36  57  89 125 159 203 261 323 379
#     4  12  25  38  61  90 120 164 210 264 313 386
#     4  11  23  39  60  88 123 161 210 268 320 376
#
# _framework density 20.292863000000001
#
# number of rings (size 3 to 8) (size 9 to 14) (size 15 to 20)
#    0.000    1.077    3.077    4.385    0.000    3.692 
#    0.000    0.769    0.000    0.000    0.000    0.000 
#    0.000    0.000    0.000    0.000    0.000    0.000 
#
# Total GULP energy -644599.897019 kJ/mol
# GULP energy per Si atom -12396.151866 kJ/mol
# Density = 2.024668 g / cm^3
# Si number density = 20.292863 Si / 1000 Ang^3
#
#
#
# Elastic Constant Matrix: (Units=GPa)
#
#
# Indices 1 2 3 4 5 6 
#
# 1 123.9770 41.3246 64.9386 0.0000 0.0000 0.0000
# 2 41.3246 107.0285 49.4700 0.0000 0.0000 0.0000
# 3 64.9386 49.4700 123.1466 0.0000 0.0000 0.0000
# 4 0.0000 0.0000 0.0000 23.4342 0.0000 0.0000
# 5 0.0000 0.0000 0.0000 0.0000 28.7393 0.0000
# 6 0.0000 0.0000 0.0000 0.0000 0.0000 19.9217
#
#
#
# Elastic Compliance Matrix: (Units=1/GPa)
#
#
# Indices 1 2 3 4 5 6 
#
# 1 0.011485 -0.002008 -0.005250 0.000000 0.000000 0.000000
# 2 -0.002008 0.011825 -0.003691 0.000000 0.000000 0.000000
# 3 -0.005250 -0.003691 0.012372 0.000000 0.000000 0.000000
# 4 0.000000 0.000000 0.000000 0.042673 0.000000 0.000000
# 5 0.000000 0.000000 0.000000 0.000000 0.034796 0.000000
# 6 0.000000 0.000000 0.000000 0.000000 0.000000 0.050196
#
#
# Mechanical properties :
#
#
# Convention : Reuss Voigt Hill
#
# Bulk Modulus (GPa) = 72.55142 73.95760 73.25451
# Shear Modulus (GPa) = 26.33812 27.64698 26.99255
#
# Velocity S-wave (km/s) = 3.60655 3.69507 3.65108
# Velocity P-wave (km/s) = 7.29196 7.39791 7.34512
#
# Compressibility (1/GPa) = 0.01378333
#
# Stress axis : x y z
#
# Youngs Moduli (GPa) = 87.06899 84.56811 80.83001
#
# Poissons Ratio (x) = 0.16981 0.42434
# Poissons Ratio (y) = 0.17483 0.29837
# Poissons Ratio (z) = 0.45709 0.31217
#
# Static dielectric constant tensor:
#      x y z
#    x 3.643610 0.000000 0.000000 
#    y 0.000000 3.995580 0.000000 
#    z 0.000000 0.000000 3.819880 
# 
# 
# High freq. dielectric constant tensor:
#      x y z
#    x 1.788120 0.000000 0.000000 
#    y 0.000000 1.803160 0.000000 
#    z 0.000000 0.000000 1.797430 
# 
# From -- ./inp_files/34284.got.cif
#   From: 2010.03.12/outbox.cif.g09.slc.cpg/sg67_18_cif.got.tgz:34284.got - 2010.04.10 22:41:39.
