data_PCOD8280708
_publ_section_title
;
Structure prediction by ZEFSAII (Michael W. Deem and Ramdas Pophale) SiO2 
 PCOD8280708
Probable space group: C M M A
;
_chemical_formula_sum "Si O2"
_cell_formula_units_Z 88
_cell_length_a 27.616446
_cell_length_b 9.239185
_cell_length_c 19.053120
_cell_angle_alpha 90.000000
_cell_angle_beta 90.000000
_cell_angle_gamma 90.000000
_cell_volume 4861.469371
_symmetry_space_group_name_H-M "C M M A"
_symmetry_group_IT_number 67
_symmetry_cell_setting 'orthorhombic'
loop_
_space_group_symop_operation_xyz
x,y,z
-x,1/2-y,z
x,-y,-z
-x,1/2+y,-z
-x,-y,-z
x,1/2+y,-z
-x,y,z
x,1/2-y,z
1/2+x,1/2+y,z
1/2-x,-y,z
1/2+x,1/2-y,-z
1/2-x,y,-z
1/2-x,1/2-y,-z
1/2+x,y,-z
1/2-x,1/2+y,z
1/2+x,-y,z
loop_
_atom_site_type_symbol
_atom_site_label
_atom_site_fract_x
_atom_site_fract_y
_atom_site_fract_z
Si Si1 0.500000 0.084732 0.929896
Si Si2 0.387444 0.418039 0.427419
Si Si3 0.444970 0.416442 0.683029
Si Si4 0.142532 0.918384 0.782193
Si Si5 0.604950 0.418184 0.927470
Si Si6 0.297917 0.082171 0.326544
O O1 0.500000 0.250000 0.951232
O O2 0.448623 0.047571 0.893371
O O3 0.500000 0.000000 0.000000
O O4 0.382612 0.500000 0.500000
O O5 0.398066 0.250000 0.440789
O O6 0.431788 0.484041 0.383324
O O7 0.337477 0.442562 0.386432
O O8 0.500000 0.449810 0.706825
O O9 0.439337 0.250000 0.659546
O O10 0.409768 0.451930 0.747907
O O11 0.155705 0.750000 0.772481
O O12 0.141376 0.961397 0.864749
O O13 0.183928 0.014791 0.746822
O O14 0.609883 0.250000 0.945559
O O15 0.616579 0.500000 0.000000
O O16 0.286459 0.250000 0.314381
O O17 0.250000 0.000000 0.351955
#
# Coordination Sequence:
#
# PCOD8280708 Si02
#       6
#     8  16  16  16  16  16
#     4   8  14  24  38  60  92 128 165 200 237 282
#     4  10  21  36  54  77 105 134 166 205 248 297
#     4   9  18  32  51  74 101 137 178 214 249 291
#     4   9  18  32  51  75 102 134 172 213 254 300
#     4   9  17  28  45  69 100 136 172 211 252 295
#     4  10  21  37  57  79 102 129 162 204 254 307
#
# _framework density 18.101523
#
# number of rings (size 3 to 8) (size 9 to 14) (size 15 to 20)
#    0.000    2.727    0.000    1.091    1.273    4.000 
#    0.000    1.818    0.000    0.545    0.000    3.818 
#    0.000    0.000    0.000    0.000    0.000    0.000 
#
# Total GULP energy -545296.611274 kJ/mol
# GULP energy per Si atom -12393.104802 kJ/mol
# Density = 1.806032 g / cm^3
# Si number density = 18.101523 Si / 1000 Ang^3
#
#
#
# Elastic Constant Matrix: (Units=GPa)
#
#
# Indices 1 2 3 4 5 6 
#
# 1 57.1140 26.4095 10.3561 0.0000 0.0000 0.0000
# 2 26.4095 78.1258 41.7638 0.0000 0.0000 0.0000
# 3 10.3561 41.7638 97.7013 0.0000 0.0000 0.0000
# 4 0.0000 0.0000 0.0000 28.9582 0.0000 0.0000
# 5 0.0000 0.0000 0.0000 0.0000 13.9144 0.0000
# 6 0.0000 0.0000 0.0000 0.0000 0.0000 26.6706
#
#
#
# Elastic Compliance Matrix: (Units=1/GPa)
#
#
# Indices 1 2 3 4 5 6 
#
# 1 0.020834 -0.007598 0.001040 0.000000 0.000000 0.000000
# 2 -0.007598 0.019362 -0.007471 0.000000 0.000000 0.000000
# 3 0.001040 -0.007471 0.013319 0.000000 0.000000 0.000000
# 4 0.000000 0.000000 0.000000 0.034532 0.000000 0.000000
# 5 0.000000 0.000000 0.000000 0.000000 0.071868 0.000000
# 6 0.000000 0.000000 0.000000 0.000000 0.000000 0.037494
#
#
# Mechanical properties :
#
#
# Convention : Reuss Voigt Hill
#
# Bulk Modulus (GPa) = 39.28509 43.33332 41.30920
# Shear Modulus (GPa) = 21.37164 24.20277 22.78720
#
# Velocity S-wave (km/s) = 3.43979 3.66055 3.55188
# Velocity P-wave (km/s) = 6.12585 6.46971 6.30012
#
# Compressibility (1/GPa) = 0.02545495
#
# Stress axis : x y z
#
# Youngs Moduli (GPa) = 47.99887 51.64654 75.08198
#
# Poissons Ratio (x) = 0.39243 -0.07807
# Poissons Ratio (y) = 0.36472 0.56096
# Poissons Ratio (z) = -0.04991 0.38587
#
# Static dielectric constant tensor:
#      x y z
#    x 3.218450 0.000000 0.000000 
#    y 0.000000 3.397480 0.000000 
#    z 0.000000 0.000000 3.207940 
# 
# 
# High freq. dielectric constant tensor:
#      x y z
#    x 1.688030 0.000000 0.000000 
#    y 0.000000 1.702120 0.000000 
#    z 0.000000 0.000000 1.692870 
# 
# From -- ./inp_files/32414.got.cif
#   From: 2010.03.12/outbox.cif.g09.slc.cpg/sg67_17_cif.got.tgz:32414.got - 2010.04.10 22:41:39.
