data_PCOD8280627
_publ_section_title
;
Structure prediction by ZEFSAII (Michael W. Deem and Ramdas Pophale) SiO2 
 PCOD8280627
Probable space group: C M M A
;
_chemical_formula_sum "Si O2"
_cell_formula_units_Z 104
_cell_length_a 21.590621
_cell_length_b 28.845107
_cell_length_c 8.781056
_cell_angle_alpha 90.000000
_cell_angle_beta 90.000000
_cell_angle_gamma 90.000000
_cell_volume 5468.699186
_symmetry_space_group_name_H-M "C M M A"
_symmetry_group_IT_number 67
_symmetry_cell_setting 'orthorhombic'
loop_
_space_group_symop_operation_xyz
x,y,z
-x,1/2-y,z
x,-y,-z
-x,1/2+y,-z
-x,-y,-z
x,1/2+y,-z
-x,y,z
x,1/2-y,z
1/2+x,1/2+y,z
1/2-x,-y,z
1/2+x,1/2-y,-z
1/2-x,y,-z
1/2-x,1/2-y,-z
1/2+x,y,-z
1/2-x,1/2+y,z
1/2+x,-y,z
loop_
_atom_site_type_symbol
_atom_site_label
_atom_site_fract_x
_atom_site_fract_y
_atom_site_fract_z
Si Si1 0.570658 0.382115 0.016888
Si Si2 0.833628 0.379582 0.241886
Si Si3 0.314144 0.481737 0.669158
Si Si4 0.677313 0.196701 0.513387
Si Si5 0.569056 0.523745 0.838396
Si Si6 0.363982 0.198259 0.177964
Si Si7 0.750000 0.165648 0.000000
O O1 0.500000 0.383336 0.968200
O O2 0.586766 0.422570 0.136620
O O3 0.585562 0.334484 0.101923
O O4 0.605883 0.388699 0.858402
O O5 0.814919 0.425978 0.331555
O O6 0.848907 0.337834 0.358514
O O7 0.777625 0.367238 0.129806
O O8 0.313744 0.500000 0.500000
O O9 0.250000 0.500000 0.749304
O O10 0.376777 0.500732 0.742584
O O11 0.662294 0.250000 0.559498
O O12 0.750000 0.189170 0.500000
O O13 0.647107 0.183416 0.352245
O O14 0.500000 0.519157 0.761703
O O15 0.566210 0.500000 0.000000
O O16 0.390731 0.250000 0.172201
O O17 0.300938 0.197701 0.079849
#
# Coordination Sequence:
#
# PCOD8280627 Si02
#       7
#    16  16  16  16  16  16   8
#     4  10  23  42  63  88 115 156 207 257 299 348
#     4  11  23  38  60  88 120 160 200 247 302 359
#     4  11  27  38  57  93 131 162 195 250 311 363
#     4  10  21  37  59  87 124 161 195 240 298 366
#     4  10  21  42  65  85 118 162 207 247 295 366
#     4  10  21  36  60  89 121 156 196 244 301 364
#     4  10  21  34  59  90 118 154 197 244 295 360
#
# _framework density 19.017320000000002
#
# number of rings (size 3 to 8) (size 9 to 14) (size 15 to 20)
#    0.000    1.692    3.077    0.231    8.615    3.385 
#    0.000    0.769    0.000    0.923    0.000    0.000 
#    0.000    0.000    0.000    0.000    0.000    0.000 
#
# Total GULP energy -644723.281916 kJ/mol
# GULP energy per Si atom -12398.524652 kJ/mol
# Density = 1.897404 g / cm^3
# Si number density = 19.017320 Si / 1000 Ang^3
#
#
#
# Elastic Constant Matrix: (Units=GPa)
#
#
# Indices 1 2 3 4 5 6 
#
# 1 73.5160 33.5949 20.3578 0.0000 0.0000 0.0000
# 2 33.5949 121.5870 46.6003 0.0000 0.0000 0.0000
# 3 20.3578 46.6003 82.3169 0.0000 0.0000 0.0000
# 4 0.0000 0.0000 0.0000 27.9639 0.0000 0.0000
# 5 0.0000 0.0000 0.0000 0.0000 19.8492 0.0000
# 6 0.0000 0.0000 0.0000 0.0000 0.0000 19.1476
#
#
#
# Elastic Compliance Matrix: (Units=1/GPa)
#
#
# Indices 1 2 3 4 5 6 
#
# 1 0.015782 -0.003658 -0.001832 0.000000 0.000000 0.000000
# 2 -0.003658 0.011352 -0.005521 0.000000 0.000000 0.000000
# 3 -0.001832 -0.005521 0.015727 0.000000 0.000000 0.000000
# 4 0.000000 0.000000 0.000000 0.035760 0.000000 0.000000
# 5 0.000000 0.000000 0.000000 0.000000 0.050380 0.000000
# 6 0.000000 0.000000 0.000000 0.000000 0.000000 0.052226
#
#
# Mechanical properties :
#
#
# Convention : Reuss Voigt Hill
#
# Bulk Modulus (GPa) = 47.99247 53.16955 50.58101
# Shear Modulus (GPa) = 23.78739 25.18326 24.48532
#
# Velocity S-wave (km/s) = 3.54054 3.64294 3.59211
# Velocity P-wave (km/s) = 6.48112 6.76120 6.62264
#
# Compressibility (1/GPa) = 0.02083660
#
# Stress axis : x y z
#
# Youngs Moduli (GPa) = 63.36512 88.09330 63.58502
#
# Poissons Ratio (x) = 0.32228 0.11648
# Poissons Ratio (y) = 0.23182 0.35108
# Poissons Ratio (z) = 0.11608 0.48641
#
# Static dielectric constant tensor:
#      x y z
#    x 3.898850 0.000000 0.000000 
#    y 0.000000 4.069110 0.000000 
#    z 0.000000 0.000000 3.432700 
# 
# 
# High freq. dielectric constant tensor:
#      x y z
#    x 1.731390 0.000000 0.000000 
#    y 0.000000 1.754790 0.000000 
#    z 0.000000 0.000000 1.733440 
# 
# From -- ./inp_files/12820.got.cif
#   From: 2010.03.12/outbox.cif.g09.slc.cpg/sg67_7_cif.got.tgz:12820.got - 2010.04.10 22:41:39.
