data_PCOD8280173
_publ_section_title
;
Structure prediction by ZEFSAII (Michael W. Deem and Ramdas Pophale) SiO2 
 PCOD8280173
Probable space group: C M M A
;
_chemical_formula_sum "Si O2"
_cell_formula_units_Z 104
_cell_length_a 26.384839
_cell_length_b 8.967096
_cell_length_c 22.757914
_cell_angle_alpha 90.000000
_cell_angle_beta 90.000000
_cell_angle_gamma 90.000000
_cell_volume 5384.417408
_symmetry_space_group_name_H-M "C M M A"
_symmetry_group_IT_number 67
_symmetry_cell_setting 'orthorhombic'
loop_
_space_group_symop_operation_xyz
x,y,z
-x,1/2-y,z
x,-y,-z
-x,1/2+y,-z
-x,-y,-z
x,1/2+y,-z
-x,y,z
x,1/2-y,z
1/2+x,1/2+y,z
1/2-x,-y,z
1/2+x,1/2-y,-z
1/2-x,y,-z
1/2-x,1/2-y,-z
1/2+x,y,-z
1/2-x,1/2+y,z
1/2+x,-y,z
loop_
_atom_site_type_symbol
_atom_site_label
_atom_site_fract_x
_atom_site_fract_y
_atom_site_fract_z
Si Si1 0.199676 0.078694 0.825549
Si Si2 0.557899 0.080845 0.869157
Si Si3 0.599336 0.424352 0.240367
Si Si4 0.500000 0.575607 0.437793
Si Si5 0.858434 0.573260 0.060717
Si Si6 0.301998 0.927321 0.437226
Si Si7 0.401994 0.575497 0.364176
O O1 0.212558 0.250000 0.828176
O O2 0.157016 0.042256 0.777833
O O3 0.182408 0.024901 0.890192
O O4 0.250000 0.000000 0.803938
O O5 0.500000 0.077815 0.888717
O O6 0.578691 0.250000 0.866889
O O7 0.562570 0.008479 0.804712
O O8 0.587273 0.988013 0.918792
O O9 0.586689 0.250000 0.236971
O O10 0.590996 0.482966 0.305277
O O11 0.500000 0.750000 0.448141
O O12 0.500000 0.500000 0.500000
O O13 0.449093 0.526034 0.404306
O O14 0.862473 0.750000 0.053898
O O15 0.841014 0.500000 0.000000
O O16 0.295060 0.750000 0.444207
O O17 0.348739 0.966498 0.394658
O O18 0.314218 0.000000 0.500000
O O19 0.250000 0.000000 0.411748
O O20 0.404203 0.750000 0.349379
#
# Coordination Sequence:
#
# PCOD8280173 Si02
#       7
#    16  16  16   8  16  16  16
#     4   9  20  37  56  80 110 146 185 229 278 330
#     4  10  21  37  58  81 108 145 184 227 281 334
#     4  10  22  38  56  82 113 144 184 230 276 329
#     4  10  22  40  60  84 116 150 189 234 283 340
#     4  10  21  37  56  82 114 146 187 233 278 333
#     4  10  20  35  56  81 110 145 185 231 283 336
#     4  10  22  38  57  83 114 149 188 233 283 339
#
# _framework density 19.314997000000002
#
# number of rings (size 3 to 8) (size 9 to 14) (size 15 to 20)
#    0.000    2.154    0.000    3.692    1.077    8.000 
#    0.000    4.615    0.000    0.000    0.000    0.000 
#    0.000    0.000    0.000    0.000    0.000    0.000 
#
# Total GULP energy -644884.952605 kJ/mol
# GULP energy per Si atom -12401.633704 kJ/mol
# Density = 1.927104 g / cm^3
# Si number density = 19.314997 Si / 1000 Ang^3
#
#
#
# Elastic Constant Matrix: (Units=GPa)
#
#
# Indices 1 2 3 4 5 6 
#
# 1 84.6586 25.5379 17.5546 0.0000 0.0000 0.0000
# 2 25.5379 74.6192 28.7488 0.0000 0.0000 0.0000
# 3 17.5546 28.7488 94.5450 0.0000 0.0000 0.0000
# 4 0.0000 0.0000 0.0000 38.1998 0.0000 0.0000
# 5 0.0000 0.0000 0.0000 0.0000 13.0744 0.0000
# 6 0.0000 0.0000 0.0000 0.0000 0.0000 29.5975
#
#
#
# Elastic Compliance Matrix: (Units=1/GPa)
#
#
# Indices 1 2 3 4 5 6 
#
# 1 0.013297 -0.004077 -0.001229 0.000000 0.000000 0.000000
# 2 -0.004077 0.016430 -0.004239 0.000000 0.000000 0.000000
# 3 -0.001229 -0.004239 0.012094 0.000000 0.000000 0.000000
# 4 0.000000 0.000000 0.000000 0.026178 0.000000 0.000000
# 5 0.000000 0.000000 0.000000 0.000000 0.076485 0.000000
# 6 0.000000 0.000000 0.000000 0.000000 0.000000 0.033787
#
#
# Mechanical properties :
#
#
# Convention : Reuss Voigt Hill
#
# Bulk Modulus (GPa) = 43.99376 44.16727 44.08051
# Shear Modulus (GPa) = 24.39755 28.30642 26.35198
#
# Velocity S-wave (km/s) = 3.55792 3.83236 3.69769
# Velocity P-wave (km/s) = 6.30118 6.51913 6.41108
#
# Compressibility (1/GPa) = 0.02273050
#
# Stress axis : x y z
#
# Youngs Moduli (GPa) = 75.20518 60.86457 82.68478
#
# Poissons Ratio (x) = 0.24816 0.10163
# Poissons Ratio (y) = 0.30663 0.35049
# Poissons Ratio (z) = 0.09244 0.25800
#
# Static dielectric constant tensor:
#      x y z
#    x 3.664620 0.000000 0.000000 
#    y 0.000000 3.618860 0.000000 
#    z 0.000000 0.000000 3.489020 
# 
# 
# High freq. dielectric constant tensor:
#      x y z
#    x 1.756590 0.000000 0.000000 
#    y 0.000000 1.760250 0.000000 
#    z 0.000000 0.000000 1.749510 
# 
# From -- ./inp_files/39993.got.cif
#   From: 2010.03.12/outbox.cif.g09.slc.cpg/sg67_20_cif.got.tgz:39993.got - 2010.04.10 22:41:39.
