data_PCOD8280245
_publ_section_title
;
Structure prediction by ZEFSAII (Michael W. Deem and Ramdas Pophale) SiO2 
 PCOD8280245
Probable space group: C M M A
;
_chemical_formula_sum "Si O2"
_cell_formula_units_Z 72
_cell_length_a 8.869593
_cell_length_b 14.577109
_cell_length_c 28.556791
_cell_angle_alpha 90.000000
_cell_angle_beta 90.000000
_cell_angle_gamma 90.000000
_cell_volume 3692.193863
_symmetry_space_group_name_H-M "C M M A"
_symmetry_group_IT_number 67
_symmetry_cell_setting 'orthorhombic'
loop_
_space_group_symop_operation_xyz
x,y,z
-x,1/2-y,z
x,-y,-z
-x,1/2+y,-z
-x,-y,-z
x,1/2+y,-z
-x,y,z
x,1/2-y,z
1/2+x,1/2+y,z
1/2-x,-y,z
1/2+x,1/2-y,-z
1/2-x,y,-z
1/2-x,1/2-y,-z
1/2+x,y,-z
1/2-x,1/2+y,z
1/2+x,-y,z
loop_
_atom_site_type_symbol
_atom_site_label
_atom_site_fract_x
_atom_site_fract_y
_atom_site_fract_z
Si Si1 0.667056 0.357880 0.045322
Si Si2 0.675495 0.408283 0.858839
Si Si3 0.324945 0.750000 0.450037
Si Si4 0.678392 0.750000 0.689097
Si Si5 0.320653 0.600987 0.375078
Si Si6 0.825816 0.750000 0.787251
O O1 0.500000 0.401101 0.049191
O O2 0.654939 0.250000 0.039203
O O3 0.759065 0.380676 0.091372
O O4 0.750000 0.400659 0.000000
O O5 0.500000 0.421055 0.866222
O O6 0.750000 0.500000 0.839759
O O7 0.713442 0.336436 0.818849
O O8 0.500000 0.750000 0.459078
O O9 0.250000 0.750000 0.500000
O O10 0.278502 0.658094 0.421846
O O11 0.500000 0.750000 0.680061
O O12 0.751005 0.842727 0.668134
O O13 0.713365 0.750000 0.743827
O O14 0.500000 0.593657 0.368139
O O15 0.250000 0.500000 0.378424
O O16 0.000000 0.750000 0.770567
#
# Coordination Sequence:
#
# PCOD8280245 Si02
#       6
#    16  16   8   8  16   8
#     4  10  20  35  58  85 114 148 186 229 277 335
#     4  11  23  40  61  86 115 149 188 231 283 340
#     4   9  20  36  56  85 124 167 208 253 299 352
#     4  11  23  39  63  90 117 154 196 245 302 360
#     4  10  21  39  61  88 122 160 205 254 303 354
#     4  10  23  43  63  83 117 155 188 238 294 350
#
# _framework density 19.500602000000001
#
# number of rings (size 3 to 8) (size 9 to 14) (size 15 to 20)
#    0.000    1.778    1.111    3.667    0.000    7.111 
#    0.000    6.667    0.000    0.000    0.000    0.000 
#    0.000    0.000    0.000    0.000    0.000    0.000 
#
# Total GULP energy -446423.354335 kJ/mol
# GULP energy per Si atom -12400.648732 kJ/mol
# Density = 1.945622 g / cm^3
# Si number density = 19.500602 Si / 1000 Ang^3
#
#
#
# Elastic Constant Matrix: (Units=GPa)
#
#
# Indices 1 2 3 4 5 6 
#
# 1 140.3107 72.2283 79.7896 0.0000 0.0000 0.0000
# 2 72.2283 125.0331 61.5479 0.0000 0.0000 0.0000
# 3 79.7896 61.5479 148.4629 0.0000 0.0000 0.0000
# 4 0.0000 0.0000 0.0000 3.5893 0.0000 0.0000
# 5 0.0000 0.0000 0.0000 0.0000 35.9448 0.0000
# 6 0.0000 0.0000 0.0000 0.0000 0.0000 31.2141
#
#
#
# Elastic Compliance Matrix: (Units=1/GPa)
#
#
# Indices 1 2 3 4 5 6 
#
# 1 0.012191 -0.004796 -0.004564 0.000000 0.000000 0.000000
# 2 -0.004796 0.011935 -0.002370 0.000000 0.000000 0.000000
# 3 -0.004564 -0.002370 0.010171 0.000000 0.000000 0.000000
# 4 0.000000 0.000000 0.000000 0.278608 0.000000 0.000000
# 5 0.000000 0.000000 0.000000 0.000000 0.027820 0.000000
# 6 0.000000 0.000000 0.000000 0.000000 0.000000 0.032037
#
#
# Mechanical properties :
#
#
# Convention : Reuss Voigt Hill
#
# Bulk Modulus (GPa) = 92.27450 93.43758 92.85604
# Shear Modulus (GPa) = 12.50515 27.49904 20.00210
#
# Velocity S-wave (km/s) = 2.53508 3.75929 3.20616
# Velocity P-wave (km/s) = 7.48267 8.17693 7.83749
#
# Compressibility (1/GPa) = 0.01083723
#
# Stress axis : x y z
#
# Youngs Moduli (GPa) = 82.02716 83.78551 98.31784
#
# Poissons Ratio (x) = 0.40183 0.44869
# Poissons Ratio (y) = 0.39340 0.23306
# Poissons Ratio (z) = 0.37435 0.19861
#
# Static dielectric constant tensor:
#      x y z
#    x 3.759430 0.000000 0.000000 
#    y 0.000000 3.752900 0.000000 
#    z 0.000000 0.000000 5.494220 
# 
# 
# High freq. dielectric constant tensor:
#      x y z
#    x 1.773580 0.000000 0.000000 
#    y 0.000000 1.766720 0.000000 
#    z 0.000000 0.000000 1.758780 
# 
# From -- ./inp_files/43156.got.cif
#   From: 2010.03.12/outbox.cif.g09.slc.cpg/sg67_22_cif.got.tgz:43156.got - 2010.04.10 22:41:39.
