data_PCOD8280831
_publ_section_title
;
Structure prediction by ZEFSAII (Michael W. Deem and Ramdas Pophale) SiO2 
 PCOD8280831
Probable space group: C M M A
;
_chemical_formula_sum "Si O2"
_cell_formula_units_Z 96
_cell_length_a 19.689676
_cell_length_b 8.734468
_cell_length_c 29.704565
_cell_angle_alpha 90.000000
_cell_angle_beta 90.000000
_cell_angle_gamma 90.000000
_cell_volume 5108.556779
_symmetry_space_group_name_H-M "C M M A"
_symmetry_group_IT_number 67
_symmetry_cell_setting 'orthorhombic'
loop_
_space_group_symop_operation_xyz
x,y,z
-x,1/2-y,z
x,-y,-z
-x,1/2+y,-z
-x,-y,-z
x,1/2+y,-z
-x,y,z
x,1/2-y,z
1/2+x,1/2+y,z
1/2-x,-y,z
1/2+x,1/2-y,-z
1/2-x,y,-z
1/2-x,1/2-y,-z
1/2+x,y,-z
1/2-x,1/2+y,z
1/2+x,-y,z
loop_
_atom_site_type_symbol
_atom_site_label
_atom_site_fract_x
_atom_site_fract_y
_atom_site_fract_z
Si Si1 0.921653 0.929440 0.546415
Si Si2 0.320781 0.070824 0.280525
Si Si3 0.320445 0.928435 0.614902
Si Si4 0.078800 0.927051 0.788106
Si Si5 0.321173 0.569095 0.048186
Si Si6 0.420683 0.572542 0.881740
O O1 0.910106 0.750000 0.544524
O O2 0.000000 0.974300 0.553057
O O3 0.893467 0.000000 0.500000
O O4 0.882448 0.997713 0.588581
O O5 0.320616 0.250000 0.270168
O O6 0.332205 0.034772 0.332841
O O7 0.250000 0.000000 0.263656
O O8 0.381636 0.989688 0.254733
O O9 0.317955 0.750000 0.604953
O O10 0.250000 0.000000 0.597831
O O11 0.095895 0.750000 0.796428
O O12 0.000000 0.952783 0.777607
O O13 0.101463 0.021219 0.831999
O O14 0.313898 0.750000 0.043793
O O15 0.250000 0.500000 0.065609
O O16 0.380463 0.528311 0.082554
O O17 0.340835 0.500000 0.000000
O O18 0.500000 0.540098 0.889478
O O19 0.402558 0.750000 0.888115
#
# Coordination Sequence:
#
# PCOD8280831 Si02
#       6
#    16  16  16  16  16  16
#     4  10  21  37  57  81 110 143 180 223 270 321
#     4  10  21  37  57  81 110 144 182 225 272 322
#     4  10  21  37  57  81 110 143 181 225 271 322
#     4  10  21  37  57  82 112 145 182 225 272 323
#     4  11  22  38  59  83 113 146 184 227 273 325
#     4  10  21  38  59  83 112 145 183 227 274 324
#
# _framework density 18.792000000000002
#
# number of rings (size 3 to 8) (size 9 to 14) (size 15 to 20)
#    0.000    1.833    0.000    4.500    0.000    7.000 
#    0.000    8.333    0.000    0.000    0.000    0.000 
#    0.000    0.000    0.000    0.000    0.000    0.000 
#
# Total GULP energy -595485.455717 kJ/mol
# GULP energy per Si atom -12405.946994 kJ/mol
# Density = 1.874923 g / cm^3
# Si number density = 18.792000 Si / 1000 Ang^3
#
#
#
# Elastic Constant Matrix: (Units=GPa)
#
#
# Indices 1 2 3 4 5 6 
#
# 1 87.4860 56.6385 64.0536 0.0000 0.0000 0.0000
# 2 56.6385 119.5447 49.9126 0.0000 0.0000 0.0000
# 3 64.0536 49.9126 86.0621 0.0000 0.0000 0.0000
# 4 0.0000 0.0000 0.0000 37.7349 0.0000 0.0000
# 5 0.0000 0.0000 0.0000 0.0000 -62.0540 0.0000
# 6 0.0000 0.0000 0.0000 0.0000 0.0000 36.6360
#
#
#
# Elastic Compliance Matrix: (Units=1/GPa)
#
#
# Indices 1 2 3 4 5 6 
#
# 1 0.028074 -0.006040 -0.017392 0.000000 0.000000 0.000000
# 2 -0.006040 0.012337 -0.002660 0.000000 0.000000 0.000000
# 3 -0.017392 -0.002660 0.026107 0.000000 0.000000 0.000000
# 4 0.000000 0.000000 0.000000 0.026501 0.000000 0.000000
# 5 0.000000 0.000000 0.000000 0.000000 -0.016115 0.000000
# 6 0.000000 0.000000 0.000000 0.000000 0.000000 0.027296
#
#
# Mechanical properties :
#
#
# Convention : Reuss Voigt Hill
#
# Bulk Modulus (GPa) = 69.76089 70.47802 70.11946
# Shear Modulus (GPa) = 31.02493 10.62927 20.82710
#
# Velocity S-wave (km/s) = 4.06761 2.38087 3.33272
# Velocity P-wave (km/s) = 7.69831 6.71891 7.22522
#
# Compressibility (1/GPa) = 0.01433468
#
# Stress axis : x y z
#
# Youngs Moduli (GPa) = 35.61991 81.05627 38.30437
#
# Poissons Ratio (x) = 0.48954 0.66620
# Poissons Ratio (y) = 0.21513 0.10189
# Poissons Ratio (z) = 0.61951 0.21561
#
# Static dielectric constant tensor:
#      x y z
#    x 3.485400 0.000000 0.000000 
#    y 0.000000 3.628730 0.000000 
#    z 0.000000 0.000000 3.426440 
# 
# 
# High freq. dielectric constant tensor:
#      x y z
#    x 1.730850 0.000000 0.000000 
#    y 0.000000 1.750740 0.000000 
#    z 0.000000 0.000000 1.731930 
# 
# From -- ./inp_files/43484.got.cif
#   From: 2010.03.12/outbox.cif.g09.slc.cpg/sg67_22_cif.got.tgz:43484.got - 2010.04.10 22:41:39.
