data_PCOD8280298
_publ_section_title
;
Structure prediction by ZEFSAII (Michael W. Deem and Ramdas Pophale) SiO2 
 PCOD8280298
Probable space group: C M M A
;
_chemical_formula_sum "Si O2"
_cell_formula_units_Z 72
_cell_length_a 14.656494
_cell_length_b 8.915018
_cell_length_c 28.970973
_cell_angle_alpha 90.000000
_cell_angle_beta 90.000000
_cell_angle_gamma 90.000000
_cell_volume 3785.431575
_symmetry_space_group_name_H-M "C M M A"
_symmetry_group_IT_number 67
_symmetry_cell_setting 'orthorhombic'
loop_
_space_group_symop_operation_xyz
x,y,z
-x,1/2-y,z
x,-y,-z
-x,1/2+y,-z
-x,-y,-z
x,1/2+y,-z
-x,y,z
x,1/2-y,z
1/2+x,1/2+y,z
1/2-x,-y,z
1/2+x,1/2-y,-z
1/2-x,y,-z
1/2-x,1/2-y,-z
1/2+x,y,-z
1/2-x,1/2+y,z
1/2+x,-y,z
loop_
_atom_site_type_symbol
_atom_site_label
_atom_site_fract_x
_atom_site_fract_y
_atom_site_fract_z
Si Si1 0.158192 0.928945 0.644150
Si Si2 0.891860 0.583014 0.544455
Si Si3 0.500000 0.570314 0.185809
Si Si4 0.850659 0.571195 0.122751
Si Si5 0.000000 0.076302 0.951017
Si Si6 0.500000 0.572385 0.290972
O O1 0.159908 0.750000 0.642959
O O2 0.137909 0.993156 0.592715
O O3 0.086321 0.989715 0.681183
O O4 0.250000 0.000000 0.662825
O O5 0.849770 0.500000 0.500000
O O6 0.852793 0.750000 0.542541
O O7 0.000000 0.582154 0.542224
O O8 0.500000 0.750000 0.179871
O O9 0.592644 0.501782 0.164596
O O10 0.500000 0.515806 0.238639
O O11 0.843244 0.750000 0.130102
O O12 0.750000 0.500000 0.119338
O O13 0.908110 0.531543 0.076660
O O14 0.000000 0.250000 0.960750
O O15 0.000000 0.000000 0.000000
O O16 0.500000 0.750000 0.291564
#
# Coordination Sequence:
#
# PCOD8280298 Si02
#       6
#    16  16   8  16   8   8
#     4  10  20  36  55  76 103 136 171 210 259 316
#     4   9  17  31  52  73  97 132 168 205 251 305
#     4  10  20  36  60  85 108 144 186 232 288 340
#     4  10  21  38  58  84 117 153 193 238 283 332
#     4   9  20  36  55  82 118 157 196 237 280 327
#     4   9  19  38  59  77 105 141 175 213 269 331
#
# _framework density 19.020288000000001
#
# number of rings (size 3 to 8) (size 9 to 14) (size 15 to 20)
#    0.000    2.444    1.111    1.667    0.000    5.333 
#    0.000    9.444    0.000    0.000    0.000    0.000 
#    0.000    0.000    0.000    0.000    0.000    0.000 
#
# Total GULP energy -446231.985617 kJ/mol
# GULP energy per Si atom -12395.332934 kJ/mol
# Density = 1.897700 g / cm^3
# Si number density = 19.020288 Si / 1000 Ang^3
#
#
#
# Elastic Constant Matrix: (Units=GPa)
#
#
# Indices 1 2 3 4 5 6 
#
# 1 152.2252 49.1662 88.9114 0.0000 0.0000 0.0000
# 2 49.1662 61.3104 54.3455 0.0000 0.0000 0.0000
# 3 88.9114 54.3455 190.5999 0.0000 0.0000 0.0000
# 4 0.0000 0.0000 0.0000 26.1855 0.0000 0.0000
# 5 0.0000 0.0000 0.0000 0.0000 80.9904 0.0000
# 6 0.0000 0.0000 0.0000 0.0000 0.0000 32.9316
#
#
#
# Elastic Compliance Matrix: (Units=1/GPa)
#
#
# Indices 1 2 3 4 5 6 
#
# 1 0.010166 -0.005284 -0.003235 0.000000 0.000000 0.000000
# 2 -0.005284 0.024574 -0.004542 0.000000 0.000000 0.000000
# 3 -0.003235 -0.004542 0.008051 0.000000 0.000000 0.000000
# 4 0.000000 0.000000 0.000000 0.038189 0.000000 0.000000
# 5 0.000000 0.000000 0.000000 0.000000 0.012347 0.000000
# 6 0.000000 0.000000 0.000000 0.000000 0.000000 0.030366
#
#
# Mechanical properties :
#
#
# Convention : Reuss Voigt Hill
#
# Bulk Modulus (GPa) = 59.99669 87.66465 73.83067
# Shear Modulus (GPa) = 32.18107 42.13566 37.15836
#
# Velocity S-wave (km/s) = 4.11777 4.71180 4.42477
# Velocity P-wave (km/s) = 7.36343 8.70584 8.06262
#
# Compressibility (1/GPa) = 0.01666759
#
# Stress axis : x y z
#
# Youngs Moduli (GPa) = 98.37039 40.69384 124.21084
#
# Poissons Ratio (x) = 0.21503 0.40187
# Poissons Ratio (y) = 0.51981 0.56413
# Poissons Ratio (z) = 0.31827 0.18482
#
# Static dielectric constant tensor:
#      x y z
#    x 3.519100 0.000000 0.000000 
#    y 0.000000 3.402190 0.000000 
#    z 0.000000 0.000000 4.055300 
# 
# 
# High freq. dielectric constant tensor:
#      x y z
#    x 1.744790 0.000000 0.000000 
#    y 0.000000 1.724890 0.000000 
#    z 0.000000 0.000000 1.743770 
# 
# From -- ./inp_files/45169.got.cif
#   From: 2010.03.12/outbox.cif.g09.slc.cpg/sg67_23_cif.got.tgz:45169.got - 2010.04.10 22:41:39.
