data_PCOD8280428
_publ_section_title
;
Structure prediction by ZEFSAII (Michael W. Deem and Ramdas Pophale) SiO2 
 PCOD8280428
Probable space group: C M M A
;
_chemical_formula_sum "Si O2"
_cell_formula_units_Z 112
_cell_length_a 13.973760
_cell_length_b 17.351945
_cell_length_c 22.798809
_cell_angle_alpha 90.000000
_cell_angle_beta 90.000000
_cell_angle_gamma 90.000000
_cell_volume 5528.070877
_symmetry_space_group_name_H-M "C M M A"
_symmetry_group_IT_number 67
_symmetry_cell_setting 'orthorhombic'
loop_
_space_group_symop_operation_xyz
x,y,z
-x,1/2-y,z
x,-y,-z
-x,1/2+y,-z
-x,-y,-z
x,1/2+y,-z
-x,y,z
x,1/2-y,z
1/2+x,1/2+y,z
1/2-x,-y,z
1/2+x,1/2-y,-z
1/2-x,y,-z
1/2-x,1/2-y,-z
1/2+x,y,-z
1/2-x,1/2+y,z
1/2+x,-y,z
loop_
_atom_site_type_symbol
_atom_site_label
_atom_site_fract_x
_atom_site_fract_y
_atom_site_fract_z
Si Si1 0.890047 0.840080 0.312719
Si Si2 0.774460 0.910424 0.415020
Si Si3 0.195628 0.159017 0.809960
Si Si4 0.110123 0.406837 0.047460
Si Si5 0.387722 0.425376 0.078956
Si Si6 0.110294 0.840131 0.519370
Si Si7 0.397405 0.162707 0.834592
O O1 0.870232 0.750000 0.323862
O O2 0.818978 0.889713 0.352486
O O3 0.868734 0.862968 0.245643
O O4 0.000000 0.860559 0.326953
O O5 0.852937 0.889228 0.464127
O O6 0.676091 0.862397 0.424863
O O7 0.750000 0.000000 0.418250
O O8 0.191616 0.250000 0.822398
O O9 0.161709 0.115962 0.867280
O O10 0.306213 0.131738 0.797995
O O11 0.147636 0.486088 0.076710
O O12 0.126790 0.340587 0.095518
O O13 0.000000 0.421927 0.033223
O O14 0.151924 0.387711 0.982500
O O15 0.500000 0.415236 0.088781
O O16 0.121542 0.750000 0.504755
O O17 0.000000 0.861055 0.532808
O O18 0.500000 0.119156 0.821432
O O19 0.413076 0.250000 0.816967
#
# Coordination Sequence:
#
# PCOD8280428 Si02
#       7
#    16  16  16  16  16  16  16
#     4  10  21  40  63  83 111 153 199 246 294 348
#     4  11  22  36  57  89 126 160 197 241 293 342
#     4  10  21  35  54  79 103 137 188 239 286 335
#     4   8  16  31  50  73 101 136 170 208 276 351
#     4   9  17  31  50  75 106 133 168 220 277 344
#     4  10  20  36  62  93 124 163 205 242 284 336
#     4   9  18  34  52  70  96 132 175 221 272 336
#
# _framework density 20.260231999999998
#
# number of rings (size 3 to 8) (size 9 to 14) (size 15 to 20)
#    0.000    2.429    0.000    4.286    0.000    5.429 
#    2.571    5.000    0.000    2.571    0.000    0.000 
#    0.000    0.000    0.000    0.000    0.000    0.000 
#
# Total GULP energy -693837.091470 kJ/mol
# GULP energy per Si atom -12389.948062 kJ/mol
# Density = 2.021412 g / cm^3
# Si number density = 20.260232 Si / 1000 Ang^3
#
#
#
# Elastic Constant Matrix: (Units=GPa)
#
#
# Indices 1 2 3 4 5 6 
#
# 1 137.1007 42.9273 53.4017 0.0000 0.0000 0.0000
# 2 42.9273 70.5907 40.4723 0.0000 0.0000 0.0000
# 3 53.4017 40.4723 92.1662 0.0000 0.0000 0.0000
# 4 0.0000 0.0000 0.0000 21.7947 0.0000 0.0000
# 5 0.0000 0.0000 0.0000 0.0000 -139.2752 0.0000
# 6 0.0000 0.0000 0.0000 0.0000 0.0000 18.7758
#
#
#
# Elastic Compliance Matrix: (Units=1/GPa)
#
#
# Indices 1 2 3 4 5 6 
#
# 1 0.010103 -0.003726 -0.004218 0.000000 0.000000 0.000000
# 2 -0.003726 0.020307 -0.006758 0.000000 0.000000 0.000000
# 3 -0.004218 -0.006758 0.016262 0.000000 0.000000 0.000000
# 4 0.000000 0.000000 0.000000 0.045883 0.000000 0.000000
# 5 0.000000 0.000000 0.000000 0.000000 -0.007180 0.000000
# 6 0.000000 0.000000 0.000000 0.000000 0.000000 0.053260
#
#
# Mechanical properties :
#
#
# Convention : Reuss Voigt Hill
#
# Bulk Modulus (GPa) = 57.91202 63.71780 60.81491
# Shear Modulus (GPa) = 28.76964 -8.87051 9.94956
#
# Velocity S-wave (km/s) = 3.77238 -2.09471 2.21846
# Velocity P-wave (km/s) = 6.90077 5.06632 6.05344
#
# Compressibility (1/GPa) = 0.01726757
#
# Stress axis : x y z
#
# Youngs Moduli (GPa) = 98.97688 49.24481 61.49439
#
# Poissons Ratio (x) = 0.18347 0.25938
# Poissons Ratio (y) = 0.36876 0.41561
# Poissons Ratio (z) = 0.41748 0.33282
#
# Static dielectric constant tensor:
#      x y z
#    x 4.144890 0.000000 0.000000 
#    y 0.000000 3.503040 0.000000 
#    z 0.000000 0.000000 3.523970 
# 
# 
# High freq. dielectric constant tensor:
#      x y z
#    x 1.812170 0.000000 0.000000 
#    y 0.000000 1.768850 0.000000 
#    z 0.000000 0.000000 1.770000 
# 
# From -- ./inp_files/41906.got.cif
#   From: 2010.03.12/outbox.cif.g09.slc.cpg/sg67_21_cif.got.tgz:41906.got - 2010.04.10 22:41:39.
