data_PCOD8280096
_publ_section_title
;
Structure prediction by ZEFSAII (Michael W. Deem and Ramdas Pophale) SiO2 
 PCOD8280096
Probable space group: C M M A
;
_chemical_formula_sum "Si O2"
_cell_formula_units_Z 72
_cell_length_a 30.177315
_cell_length_b 8.869566
_cell_length_c 14.555582
_cell_angle_alpha 90.000000
_cell_angle_beta 90.000000
_cell_angle_gamma 90.000000
_cell_volume 3895.942524
_symmetry_space_group_name_H-M "C M M A"
_symmetry_group_IT_number 67
_symmetry_cell_setting 'orthorhombic'
loop_
_space_group_symop_operation_xyz
x,y,z
-x,1/2-y,z
x,-y,-z
-x,1/2+y,-z
-x,-y,-z
x,1/2+y,-z
-x,y,z
x,1/2-y,z
1/2+x,1/2+y,z
1/2-x,-y,z
1/2+x,1/2-y,-z
1/2-x,y,-z
1/2-x,1/2-y,-z
1/2+x,y,-z
1/2-x,1/2+y,z
1/2+x,-y,z
loop_
_atom_site_type_symbol
_atom_site_label
_atom_site_fract_x
_atom_site_fract_y
_atom_site_fract_z
Si Si1 0.295903 0.072682 0.904053
Si Si2 0.448821 0.926192 0.903369
Si Si3 0.500000 0.422205 0.404765
Si Si4 0.877524 0.073303 0.224282
Si Si5 0.096357 0.427330 0.600160
O O1 0.289477 0.250000 0.918242
O O2 0.332655 0.034496 0.828941
O O3 0.250000 0.000000 0.869969
O O4 0.311178 0.000000 0.000000
O O5 0.500000 0.957350 0.878176
O O6 0.438782 0.750000 0.910453
O O7 0.419238 0.997255 0.824434
O O8 0.435981 0.000000 0.000000
O O9 0.500000 0.250000 0.430573
O O10 0.500000 0.500000 0.500000
O O11 0.453165 0.460905 0.356437
O O12 0.886292 0.250000 0.230297
O O13 0.871100 0.005120 0.326564
O O14 0.103000 0.500000 0.500000
O O15 0.106261 0.250000 0.592905
#
# Coordination Sequence:
#
# PCOD8280096 Si02
#       5
#    16  16   8  16  16
#     4  10  21  37  59  85 113 141 177 222 273 330
#     4  10  21  36  53  75 107 146 186 225 267 320
#     4   8  16  30  48  70  97 132 177 222 266 310
#     4  11  23  36  54  82 111 144 184 225 272 329
#     4  10  20  35  54  77 108 145 186 232 277 324
#
# _framework density 18.480765999999999
#
# number of rings (size 3 to 8) (size 9 to 14) (size 15 to 20)
#    0.000    2.000    0.000    4.000    1.556    7.556 
#    0.000    0.000    0.000    0.667    0.000    4.667 
#    0.000    0.000    0.000    0.000    0.000    0.000 
#
# Total GULP energy -446252.077028 kJ/mol
# GULP energy per Si atom -12395.891029 kJ/mol
# Density = 1.843870 g / cm^3
# Si number density = 18.480766 Si / 1000 Ang^3
#
#
#
# Elastic Constant Matrix: (Units=GPa)
#
#
# Indices 1 2 3 4 5 6 
#
# 1 86.6194 59.8108 73.7883 0.0000 0.0000 0.0000
# 2 59.8108 113.4605 71.8160 0.0000 0.0000 0.0000
# 3 73.7883 71.8160 136.8256 0.0000 0.0000 0.0000
# 4 0.0000 0.0000 0.0000 35.4495 0.0000 0.0000
# 5 0.0000 0.0000 0.0000 0.0000 22.0180 0.0000
# 6 0.0000 0.0000 0.0000 0.0000 0.0000 24.3713
#
#
#
# Elastic Compliance Matrix: (Units=1/GPa)
#
#
# Indices 1 2 3 4 5 6 
#
# 1 0.024414 -0.006793 -0.009601 0.000000 0.000000 0.000000
# 2 -0.006793 0.015089 -0.004256 0.000000 0.000000 0.000000
# 3 -0.009601 -0.004256 0.014720 0.000000 0.000000 0.000000
# 4 0.000000 0.000000 0.000000 0.028209 0.000000 0.000000
# 5 0.000000 0.000000 0.000000 0.000000 0.045417 0.000000
# 6 0.000000 0.000000 0.000000 0.000000 0.000000 0.041032
#
#
# Mechanical properties :
#
#
# Convention : Reuss Voigt Hill
#
# Bulk Modulus (GPa) = 77.38249 83.08174 80.23211
# Shear Modulus (GPa) = 23.31135 25.13380 24.22258
#
# Velocity S-wave (km/s) = 3.55545 3.69182 3.62427
# Velocity P-wave (km/s) = 7.66927 7.95148 7.81165
#
# Compressibility (1/GPa) = 0.01292282
#
# Stress axis : x y z
#
# Youngs Moduli (GPa) = 40.96054 66.27543 67.93463
#
# Poissons Ratio (x) = 0.45020 0.65221
# Poissons Ratio (y) = 0.27824 0.28914
# Poissons Ratio (z) = 0.39325 0.28208
#
# Static dielectric constant tensor:
#      x y z
#    x 3.441940 0.000000 0.000000 
#    y 0.000000 3.526070 0.000000 
#    z 0.000000 0.000000 3.313560 
# 
# 
# High freq. dielectric constant tensor:
#      x y z
#    x 1.700930 0.000000 0.000000 
#    y 0.000000 1.735280 0.000000 
#    z 0.000000 0.000000 1.713540 
# 
# From -- ./inp_files/25085.got.cif
#   From: 2010.03.12/outbox.cif.g09.slc.cpg/sg67_13_cif.got.tgz:25085.got - 2010.04.10 22:41:39.
