data_PCOD8280218
_publ_section_title
;
Structure prediction by ZEFSAII (Michael W. Deem and Ramdas Pophale) SiO2 
 PCOD8280218
Probable space group: C M M A
;
_chemical_formula_sum "Si O2"
_cell_formula_units_Z 96
_cell_length_a 28.465498
_cell_length_b 8.586307
_cell_length_c 20.559497
_cell_angle_alpha 90.000000
_cell_angle_beta 90.000000
_cell_angle_gamma 90.000000
_cell_volume 5025.018717
_symmetry_space_group_name_H-M "C M M A"
_symmetry_group_IT_number 67
_symmetry_cell_setting 'orthorhombic'
loop_
_space_group_symop_operation_xyz
x,y,z
-x,1/2-y,z
x,-y,-z
-x,1/2+y,-z
-x,-y,-z
x,1/2+y,-z
-x,y,z
x,1/2-y,z
1/2+x,1/2+y,z
1/2-x,-y,z
1/2+x,1/2-y,-z
1/2-x,y,-z
1/2-x,1/2-y,-z
1/2+x,y,-z
1/2-x,1/2+y,z
1/2+x,-y,z
loop_
_atom_site_type_symbol
_atom_site_label
_atom_site_fract_x
_atom_site_fract_y
_atom_site_fract_z
Si Si1 0.052884 0.570680 0.870765
Si Si2 0.800129 0.932768 0.430954
Si Si3 0.139925 0.932848 0.066564
Si Si4 0.198077 0.433500 0.806273
Si Si5 0.143385 0.568862 0.684534
Si Si6 0.553138 0.569473 0.732052
O O1 0.061964 0.750000 0.851886
O O2 0.089332 0.514645 0.924992
O O3 0.061308 0.465503 0.807650
O O4 0.000000 0.547609 0.897712
O O5 0.795216 0.750000 0.437642
O O6 0.816694 0.000000 0.500000
O O7 0.750000 0.000000 0.409187
O O8 0.837996 0.975270 0.377093
O O9 0.132484 0.750000 0.061125
O O10 0.174894 0.977060 0.124899
O O11 0.162154 0.000000 0.000000
O O12 0.199046 0.250000 0.793854
O O13 0.250000 0.500000 0.805210
O O14 0.168063 0.513061 0.750153
O O15 0.152789 0.750000 0.673913
O O16 0.087847 0.534347 0.688648
O O17 0.500000 0.527536 0.711347
O O18 0.564560 0.750000 0.720551
#
# Coordination Sequence:
#
# PCOD8280218 Si02
#       6
#    16  16  16  16  16  16
#     4  10  20  35  57  84 113 146 186 233 288 348
#     4  11  22  39  61  89 126 162 201 242 289 345
#     4  11  24  40  59  80 110 148 191 238 294 352
#     4  11  24  41  60  84 112 147 191 242 294 345
#     4  12  23  37  61  90 121 157 196 240 288 340
#     4  10  20  35  57  86 119 153 191 237 289 343
#
# _framework density 19.104406999999998
#
# number of rings (size 3 to 8) (size 9 to 14) (size 15 to 20)
#    0.000    1.167    1.667    6.000    0.000    4.667 
#    0.000    1.667    0.000    0.500    0.000    0.000 
#    0.000    0.000    0.000    0.000    0.000    0.000 
#
# Total GULP energy -595461.758689 kJ/mol
# GULP energy per Si atom -12405.453306 kJ/mol
# Density = 1.906092 g / cm^3
# Si number density = 19.104407 Si / 1000 Ang^3
#
#
#
# Elastic Constant Matrix: (Units=GPa)
#
#
# Indices 1 2 3 4 5 6 
#
# 1 107.4288 37.8204 45.4060 0.0000 0.0000 0.0000
# 2 37.8204 111.1977 35.5702 0.0000 0.0000 0.0000
# 3 45.4060 35.5702 95.3392 0.0000 0.0000 0.0000
# 4 0.0000 0.0000 0.0000 32.5875 0.0000 0.0000
# 5 0.0000 0.0000 0.0000 0.0000 28.2163 0.0000
# 6 0.0000 0.0000 0.0000 0.0000 0.0000 29.1183
#
#
#
# Elastic Compliance Matrix: (Units=1/GPa)
#
#
# Indices 1 2 3 4 5 6 
#
# 1 0.012292 -0.002621 -0.004876 0.000000 0.000000 0.000000
# 2 -0.002621 0.010771 -0.002770 0.000000 0.000000 0.000000
# 3 -0.004876 -0.002770 0.013845 0.000000 0.000000 0.000000
# 4 0.000000 0.000000 0.000000 0.030687 0.000000 0.000000
# 5 0.000000 0.000000 0.000000 0.000000 0.035441 0.000000
# 6 0.000000 0.000000 0.000000 0.000000 0.000000 0.034343
#
#
# Mechanical properties :
#
#
# Convention : Reuss Voigt Hill
#
# Bulk Modulus (GPa) = 61.07773 61.28433 61.18103
# Shear Modulus (GPa) = 30.60538 30.99570 30.80054
#
# Velocity S-wave (km/s) = 4.00685 4.03232 4.01960
# Velocity P-wave (km/s) = 7.31070 7.33674 7.32373
#
# Compressibility (1/GPa) = 0.01637258
#
# Stress axis : x y z
#
# Youngs Moduli (GPa) = 81.35186 92.84574 72.22913
#
# Poissons Ratio (x) = 0.24334 0.35222
# Poissons Ratio (y) = 0.21322 0.20009
# Poissons Ratio (z) = 0.39671 0.25720
#
# Static dielectric constant tensor:
#      x y z
#    x 3.624460 0.000000 0.000000 
#    y 0.000000 3.647280 0.000000 
#    z 0.000000 0.000000 3.402610 
# 
# 
# High freq. dielectric constant tensor:
#      x y z
#    x 1.747000 0.000000 0.000000 
#    y 0.000000 1.762560 0.000000 
#    z 0.000000 0.000000 1.728060 
# 
# From -- ./inp_files/37151.got.cif
#   From: 2010.03.12/outbox.cif.g09.slc.cpg/sg67_19_cif.got.tgz:37151.got - 2010.04.10 22:41:39.
