data_PCOD8280170
_publ_section_title
;
Structure prediction by ZEFSAII (Michael W. Deem and Ramdas Pophale) SiO2 
 PCOD8280170
Probable space group: C M M A
;
_chemical_formula_sum "Si O2"
_cell_formula_units_Z 52
_cell_length_a 19.149268
_cell_length_b 9.162747
_cell_length_c 15.900495
_cell_angle_alpha 90.000000
_cell_angle_beta 90.000000
_cell_angle_gamma 90.000000
_cell_volume 2789.899230
_symmetry_space_group_name_H-M "C M M A"
_symmetry_group_IT_number 67
_symmetry_cell_setting 'orthorhombic'
loop_
_space_group_symop_operation_xyz
x,y,z
-x,1/2-y,z
x,-y,-z
-x,1/2+y,-z
-x,-y,-z
x,1/2+y,-z
-x,y,z
x,1/2-y,z
1/2+x,1/2+y,z
1/2-x,-y,z
1/2+x,1/2-y,-z
1/2-x,y,-z
1/2-x,1/2-y,-z
1/2+x,y,-z
1/2-x,1/2+y,z
1/2+x,-y,z
loop_
_atom_site_type_symbol
_atom_site_label
_atom_site_fract_x
_atom_site_fract_y
_atom_site_fract_z
Si Si1 0.750000 0.500000 0.500000
Si Si2 0.678455 0.077013 0.914568
Si Si3 0.314151 0.412074 0.338421
Si Si4 0.420305 0.919048 0.240061
O O1 0.699140 0.595151 0.560487
O O2 0.690014 0.250000 0.928329
O O3 0.619408 0.044962 0.845968
O O4 0.750000 0.000000 0.885280
O O5 0.652370 0.000000 0.000000
O O6 0.315551 0.250000 0.300843
O O7 0.250000 0.500000 0.294640
O O8 0.386586 0.491850 0.317279
O O9 0.500000 0.969016 0.229364
O O10 0.414561 0.750000 0.263684
#
# Coordination Sequence:
#
# PCOD8280170 Si02
#       4
#     4  16  16  16
#     4   8  22  36  60  88 112 136 180 232 278 328
#     4  10  20  35  56  81 109 144 187 232 276 320
#     4  10  20  35  59  85 110 141 182 228 274 329
#     4  10  22  38  55  80 116 152 185 227 279 329
#
# _framework density 18.638666000000001
#
# number of rings (size 3 to 8) (size 9 to 14) (size 15 to 20)
#    0.923    1.231    0.000    4.154    0.000    6.154 
#    0.000    0.769    0.000    0.000    0.000    0.000 
#    0.000    0.000    0.000    0.000    0.000    0.000 
#
# Total GULP energy -322243.480982 kJ/mol
# GULP energy per Si atom -12393.980038 kJ/mol
# Density = 1.859624 g / cm^3
# Si number density = 18.638666 Si / 1000 Ang^3
#
#
#
# Elastic Constant Matrix: (Units=GPa)
#
#
# Indices 1 2 3 4 5 6 
#
# 1 157.4019 69.3408 70.6442 0.0000 0.0000 0.0000
# 2 69.3408 121.8518 48.1213 0.0000 0.0000 0.0000
# 3 70.6442 48.1213 99.6750 0.0000 0.0000 0.0000
# 4 0.0000 0.0000 0.0000 22.2118 0.0000 0.0000
# 5 0.0000 0.0000 0.0000 0.0000 18.8735 0.0000
# 6 0.0000 0.0000 0.0000 0.0000 0.0000 27.1325
#
#
#
# Elastic Compliance Matrix: (Units=1/GPa)
#
#
# Indices 1 2 3 4 5 6 
#
# 1 0.010555 -0.003771 -0.005660 0.000000 0.000000 0.000000
# 2 -0.003771 0.011487 -0.002873 0.000000 0.000000 0.000000
# 3 -0.005660 -0.002873 0.015431 0.000000 0.000000 0.000000
# 4 0.000000 0.000000 0.000000 0.045021 0.000000 0.000000
# 5 0.000000 0.000000 0.000000 0.000000 0.052984 0.000000
# 6 0.000000 0.000000 0.000000 0.000000 0.000000 0.036856
#
#
# Mechanical properties :
#
#
# Convention : Reuss Voigt Hill
#
# Bulk Modulus (GPa) = 77.73136 83.90458 80.81797
# Shear Modulus (GPa) = 24.84702 26.36508 25.60605
#
# Velocity S-wave (km/s) = 3.65511 3.76511 3.71052
# Velocity P-wave (km/s) = 7.72062 8.00097 7.86205
#
# Compressibility (1/GPa) = 0.01286482
#
# Stress axis : x y z
#
# Youngs Moduli (GPa) = 94.74437 87.05282 64.80367
#
# Poissons Ratio (x) = 0.32828 0.36679
# Poissons Ratio (y) = 0.35728 0.18619
# Poissons Ratio (z) = 0.53626 0.25012
#
# Static dielectric constant tensor:
#      x y z
#    x 3.349200 0.000000 0.000000 
#    y 0.000000 3.412230 0.000000 
#    z 0.000000 0.000000 3.282320 
# 
# 
# High freq. dielectric constant tensor:
#      x y z
#    x 1.707850 0.000000 0.000000 
#    y 0.000000 1.729550 0.000000 
#    z 0.000000 0.000000 1.718390 
# 
# From -- ./inp_files/24526.got.cif
#   From: 2010.03.12/outbox.cif.g09.slc.cpg/sg67_13_cif.got.tgz:24526.got - 2010.04.10 22:41:39.
