data_PCOD8280353
_publ_section_title
;
Structure prediction by ZEFSAII (Michael W. Deem and Ramdas Pophale) SiO2 
 PCOD8280353
Probable space group: C M M A
;
_chemical_formula_sum "Si O2"
_cell_formula_units_Z 72
_cell_length_a 15.487834
_cell_length_b 9.390688
_cell_length_c 24.941529
_cell_angle_alpha 90.000000
_cell_angle_beta 90.000000
_cell_angle_gamma 90.000000
_cell_volume 3627.531317
_symmetry_space_group_name_H-M "C M M A"
_symmetry_group_IT_number 67
_symmetry_cell_setting 'orthorhombic'
loop_
_space_group_symop_operation_xyz
x,y,z
-x,1/2-y,z
x,-y,-z
-x,1/2+y,-z
-x,-y,-z
x,1/2+y,-z
-x,y,z
x,1/2-y,z
1/2+x,1/2+y,z
1/2-x,-y,z
1/2+x,1/2-y,-z
1/2-x,y,-z
1/2-x,1/2-y,-z
1/2+x,y,-z
1/2-x,1/2+y,z
1/2+x,-y,z
loop_
_atom_site_type_symbol
_atom_site_label
_atom_site_fract_x
_atom_site_fract_y
_atom_site_fract_z
Si Si1 0.896833 0.909583 0.649915
Si Si2 0.595556 0.081044 0.766849
Si Si3 0.396943 0.589131 0.550557
Si Si4 0.832305 0.917285 0.877458
Si Si5 0.000000 0.583715 0.945161
O O1 0.863114 0.750000 0.637349
O O2 0.864767 0.962858 0.708775
O O3 0.000000 0.908128 0.650179
O O4 0.860782 0.016410 0.604773
O O5 0.500000 0.014115 0.773757
O O6 0.586587 0.250000 0.769105
O O7 0.654556 0.029241 0.816057
O O8 0.361649 0.500000 0.500000
O O9 0.500000 0.588230 0.550648
O O10 0.361621 0.750000 0.547160
O O11 0.814244 0.750000 0.880600
O O12 0.915914 0.959794 0.911510
O O13 0.750000 0.000000 0.901347
O O14 0.000000 0.750000 0.958101
O O15 0.000000 0.500000 0.000000
#
# Coordination Sequence:
#
# PCOD8280353 Si02
#       5
#    16  16  16  16   8
#     4   8  13  21  36  57  78 108 154 204 251 304
#     4   8  13  26  49  71  94 129 173 214 258 317
#     4   9  15  21  29  44  73 113 155 201 252 306
#     4  10  20  36  58  84 112 146 185 227 272 322
#     4  10  22  40  62  84 114 152 189 226 269 320
#
# _framework density 19.848209000000001
#
# number of rings (size 3 to 8) (size 9 to 14) (size 15 to 20)
#    0.000    3.111    1.111    2.000    0.000    4.000 
#    0.000    3.333    0.000    1.333    0.000    0.000 
#    0.000    0.889    0.000   10.222    0.000   12.444 
#
# Total GULP energy -446198.365800 kJ/mol
# GULP energy per Si atom -12394.399050 kJ/mol
# Density = 1.980303 g / cm^3
# Si number density = 19.848209 Si / 1000 Ang^3
#
#
#
# Elastic Constant Matrix: (Units=GPa)
#
#
# Indices 1 2 3 4 5 6 
#
# 1 78.2204 37.7704 47.7278 0.0000 0.0000 0.0000
# 2 37.7704 92.1134 73.4225 0.0000 0.0000 0.0000
# 3 47.7278 73.4225 171.9455 0.0000 0.0000 0.0000
# 4 0.0000 0.0000 0.0000 33.5171 0.0000 0.0000
# 5 0.0000 0.0000 0.0000 0.0000 1.6601 0.0000
# 6 0.0000 0.0000 0.0000 0.0000 0.0000 18.0621
#
#
#
# Elastic Compliance Matrix: (Units=1/GPa)
#
#
# Indices 1 2 3 4 5 6 
#
# 1 0.016668 -0.004770 -0.002590 0.000000 0.000000 0.000000
# 2 -0.004770 0.017823 -0.006287 0.000000 0.000000 0.000000
# 3 -0.002590 -0.006287 0.009219 0.000000 0.000000 0.000000
# 4 0.000000 0.000000 0.000000 0.029836 0.000000 0.000000
# 5 0.000000 0.000000 0.000000 0.000000 0.602380 0.000000
# 6 0.000000 0.000000 0.000000 0.000000 0.000000 0.055365
#
#
# Mechanical properties :
#
#
# Convention : Reuss Voigt Hill
#
# Bulk Modulus (GPa) = 60.91223 73.34674 67.12949
# Shear Modulus (GPa) = 6.54403 22.87175 14.70789
#
# Velocity S-wave (km/s) = 1.81774 3.39829 2.72512
# Velocity P-wave (km/s) = 5.92969 7.24098 6.61790
#
# Compressibility (1/GPa) = 0.01641706
#
# Stress axis : x y z
#
# Youngs Moduli (GPa) = 59.99522 56.10665 108.47143
#
# Poissons Ratio (x) = 0.26765 0.28090
# Poissons Ratio (y) = 0.28620 0.68191
# Poissons Ratio (z) = 0.15536 0.35272
#
# Static dielectric constant tensor:
#      x y z
#    x 3.157070 0.000000 0.000000 
#    y 0.000000 3.365730 0.000000 
#    z 0.000000 0.000000 3.956570 
# 
# 
# High freq. dielectric constant tensor:
#      x y z
#    x 1.736410 0.000000 0.000000 
#    y 0.000000 1.743950 0.000000 
#    z 0.000000 0.000000 1.785970 
# 
# From -- ./inp_files/43115.got.cif
#   From: 2010.03.12/outbox.cif.g09.slc.cpg/sg67_22_cif.got.tgz:43115.got - 2010.04.10 22:41:39.
