data_PCOD8280453
_publ_section_title
;
Structure prediction by ZEFSAII (Michael W. Deem and Ramdas Pophale) SiO2 
 PCOD8280453
Probable space group: C M M A
;
_chemical_formula_sum "Si O2"
_cell_formula_units_Z 96
_cell_length_a 18.937458
_cell_length_b 23.114253
_cell_length_c 10.675178
_cell_angle_alpha 90.000000
_cell_angle_beta 90.000000
_cell_angle_gamma 90.000000
_cell_volume 4672.794376
_symmetry_space_group_name_H-M "C M M A"
_symmetry_group_IT_number 67
_symmetry_cell_setting 'orthorhombic'
loop_
_space_group_symop_operation_xyz
x,y,z
-x,1/2-y,z
x,-y,-z
-x,1/2+y,-z
-x,-y,-z
x,1/2+y,-z
-x,y,z
x,1/2-y,z
1/2+x,1/2+y,z
1/2-x,-y,z
1/2+x,1/2-y,-z
1/2-x,y,-z
1/2-x,1/2-y,-z
1/2+x,y,-z
1/2-x,1/2+y,z
1/2+x,-y,z
loop_
_atom_site_type_symbol
_atom_site_label
_atom_site_fract_x
_atom_site_fract_y
_atom_site_fract_z
Si Si1 0.790941 0.184498 0.787315
Si Si2 0.831769 0.514260 0.304586
Si Si3 0.823259 0.081129 0.947223
Si Si4 0.420290 0.578122 0.182328
Si Si5 0.368551 0.183403 0.695721
Si Si6 0.829375 0.622522 0.453609
O O1 0.811397 0.250000 0.817194
O O2 0.811493 0.148336 0.910758
O O3 0.708794 0.177127 0.755130
O O4 0.835390 0.162473 0.668946
O O5 0.750000 0.500000 0.324507
O O6 0.845707 0.546219 0.174380
O O7 0.877883 0.455617 0.294219
O O8 0.855805 0.557058 0.418427
O O9 0.750000 0.055778 0.000000
O O10 0.884143 0.070838 0.047895
O O11 0.500000 0.554900 0.173836
O O12 0.420491 0.646206 0.216797
O O13 0.392946 0.250000 0.689919
O O14 0.375037 0.155116 0.557926
O O15 0.750000 0.617241 0.500000
#
# Coordination Sequence:
#
# PCOD8280453 Si02
#       6
#    16  16  16  16  16  16
#     4   9  17  31  58  92 118 148 198 252 293 336
#     4  11  21  36  61  86 118 156 197 245 292 347
#     4  11  20  36  58  86 117 156 197 240 290 347
#     4  12  26  40  57  87 120 156 199 241 294 357
#     4  10  20  37  59  83 120 159 194 245 298 348
#     4   9  18  33  56  90 120 149 197 249 297 338
#
# _framework density 20.544453000000001
#
# number of rings (size 3 to 8) (size 9 to 14) (size 15 to 20)
#    0.000    1.667    3.333    3.000    0.000    7.000 
#    0.000    1.667    0.000    1.000    0.000    0.000 
#    0.000    0.000    0.000    0.000    0.000    0.000 
#
# Total GULP energy -595060.405618 kJ/mol
# GULP energy per Si atom -12397.091784 kJ/mol
# Density = 2.049769 g / cm^3
# Si number density = 20.544453 Si / 1000 Ang^3
#
#
#
# Elastic Constant Matrix: (Units=GPa)
#
#
# Indices 1 2 3 4 5 6 
#
# 1 79.3899 20.7011 11.6263 0.0000 0.0000 0.0000
# 2 20.7011 136.9310 17.4417 0.0000 0.0000 0.0000
# 3 11.6263 17.4417 44.4905 0.0000 0.0000 0.0000
# 4 0.0000 0.0000 0.0000 24.1296 0.0000 0.0000
# 5 0.0000 0.0000 0.0000 0.0000 9.4693 0.0000
# 6 0.0000 0.0000 0.0000 0.0000 0.0000 14.2248
#
#
#
# Elastic Compliance Matrix: (Units=1/GPa)
#
#
# Indices 1 2 3 4 5 6 
#
# 1 0.013450 -0.001669 -0.002860 0.000000 0.000000 0.000000
# 2 -0.001669 0.007894 -0.002659 0.000000 0.000000 0.000000
# 3 -0.002860 -0.002659 0.024266 0.000000 0.000000 0.000000
# 4 0.000000 0.000000 0.000000 0.041443 0.000000 0.000000
# 5 0.000000 0.000000 0.000000 0.000000 0.105605 0.000000
# 6 0.000000 0.000000 0.000000 0.000000 0.000000 0.070300
#
#
# Mechanical properties :
#
#
# Convention : Reuss Voigt Hill
#
# Bulk Modulus (GPa) = 32.01594 40.03884 36.02739
# Shear Modulus (GPa) = 17.37648 23.63422 20.50535
#
# Velocity S-wave (km/s) = 2.91142 3.39543 3.16269
# Velocity P-wave (km/s) = 5.18839 5.90788 5.55979
#
# Compressibility (1/GPa) = 0.03123444
#
# Stress axis : x y z
#
# Youngs Moduli (GPa) = 74.34852 126.68012 41.20921
#
# Poissons Ratio (x) = 0.21143 0.11788
# Poissons Ratio (y) = 0.12409 0.10955
# Poissons Ratio (z) = 0.21267 0.33678
#
# Static dielectric constant tensor:
#      x y z
#    x 3.117180 0.000000 0.000000 
#    y 0.000000 4.097680 0.000000 
#    z 0.000000 0.000000 3.963790 
# 
# 
# High freq. dielectric constant tensor:
#      x y z
#    x 1.734430 0.000000 0.000000 
#    y 0.000000 1.825040 0.000000 
#    z 0.000000 0.000000 1.816870 
# 
# From -- ./inp_files/19657.got.cif
#   From: 2010.03.12/outbox.cif.g09.slc.cpg/sg67_10_cif.got.tgz:19657.got - 2010.04.10 22:41:39.
