data_PCOD8280778
_publ_section_title
;
Structure prediction by ZEFSAII (Michael W. Deem and Ramdas Pophale) SiO2 
 PCOD8280778
Probable space group: C M M A
;
_chemical_formula_sum "Si O2"
_cell_formula_units_Z 80
_cell_length_a 27.307208
_cell_length_b 16.194353
_cell_length_c 8.903387
_cell_angle_alpha 90.000000
_cell_angle_beta 90.000000
_cell_angle_gamma 90.000000
_cell_volume 3937.278643
_symmetry_space_group_name_H-M "C M M A"
_symmetry_group_IT_number 67
_symmetry_cell_setting 'orthorhombic'
loop_
_space_group_symop_operation_xyz
x,y,z
-x,1/2-y,z
x,-y,-z
-x,1/2+y,-z
-x,-y,-z
x,1/2+y,-z
-x,y,z
x,1/2-y,z
1/2+x,1/2+y,z
1/2-x,-y,z
1/2+x,1/2-y,-z
1/2-x,y,-z
1/2-x,1/2-y,-z
1/2+x,y,-z
1/2-x,1/2+y,z
1/2+x,-y,z
loop_
_atom_site_type_symbol
_atom_site_label
_atom_site_fract_x
_atom_site_fract_y
_atom_site_fract_z
Si Si1 0.407900 0.534566 0.339181
Si Si2 0.318266 0.845992 0.385475
Si Si3 0.445920 0.843137 0.115462
Si Si4 0.214295 0.844054 0.279425
Si Si5 0.631356 0.576873 0.900653
O O1 0.425786 0.500000 0.500000
O O2 0.359596 0.590819 0.337988
O O3 0.447052 0.593394 0.256635
O O4 0.398917 0.451756 0.244593
O O5 0.330346 0.750000 0.345968
O O6 0.269760 0.877595 0.297217
O O7 0.312940 0.855395 0.563149
O O8 0.500000 0.850561 0.040467
O O9 0.437251 0.750000 0.174753
O O10 0.403808 0.861958 0.993674
O O11 0.218687 0.750000 0.234645
O O12 0.183116 0.884280 0.146454
O O13 0.646498 0.500000 0.000000
#
# Coordination Sequence:
#
# PCOD8280778 Si02
#       5
#    16  16  16  16  16
#     4  11  21  36  59  90 122 153 192 248 305 352
#     4   9  18  33  56  84 118 158 195 238 291 345
#     4  10  23  44  65  83 112 158 203 246 302 364
#     4   9  17  33  56  83 115 158 204 239 281 344
#     4  10  21  36  58  87 122 158 196 242 302 356
#
# _framework density 20.318601999999998
#
# number of rings (size 3 to 8) (size 9 to 14) (size 15 to 20)
#    0.000    2.200    2.000    2.400    0.000    4.800 
#    0.000    7.000    0.000   13.200    0.000    0.000 
#    0.000    0.000    0.000    0.000    0.000    0.000 
#
# Total GULP energy -495687.997342 kJ/mol
# GULP energy per Si atom -12392.199934 kJ/mol
# Density = 2.027236 g / cm^3
# Si number density = 20.318602 Si / 1000 Ang^3
#
#
#
# Elastic Constant Matrix: (Units=GPa)
#
#
# Indices 1 2 3 4 5 6 
#
# 1 92.4093 36.0592 25.1639 0.0000 0.0000 0.0000
# 2 36.0592 67.9590 30.7314 0.0000 0.0000 0.0000
# 3 25.1639 30.7314 91.3070 0.0000 0.0000 0.0000
# 4 0.0000 0.0000 0.0000 30.7592 0.0000 0.0000
# 5 0.0000 0.0000 0.0000 0.0000 27.3136 0.0000
# 6 0.0000 0.0000 0.0000 0.0000 0.0000 11.1434
#
#
#
# Elastic Compliance Matrix: (Units=1/GPa)
#
#
# Indices 1 2 3 4 5 6 
#
# 1 0.013838 -0.006627 -0.001583 0.000000 0.000000 0.000000
# 2 -0.006627 0.020530 -0.005083 0.000000 0.000000 0.000000
# 3 -0.001583 -0.005083 0.013099 0.000000 0.000000 0.000000
# 4 0.000000 0.000000 0.000000 0.032511 0.000000 0.000000
# 5 0.000000 0.000000 0.000000 0.000000 0.036612 0.000000
# 6 0.000000 0.000000 0.000000 0.000000 0.000000 0.089739
#
#
# Mechanical properties :
#
#
# Convention : Reuss Voigt Hill
#
# Bulk Modulus (GPa) = 47.89188 48.39823 48.14506
# Shear Modulus (GPa) = 20.84407 24.49129 22.66768
#
# Velocity S-wave (km/s) = 3.20638 3.47560 3.34370
# Velocity P-wave (km/s) = 6.10979 6.32280 6.21720
#
# Compressibility (1/GPa) = 0.02088037
#
# Stress axis : x y z
#
# Youngs Moduli (GPa) = 72.26268 48.71014 76.33935
#
# Poissons Ratio (x) = 0.32278 0.12088
# Poissons Ratio (y) = 0.47886 0.38807
# Poissons Ratio (z) = 0.11443 0.24761
#
# Static dielectric constant tensor:
#      x y z
#    x 3.706530 0.000000 0.000000 
#    y 0.000000 3.796980 0.000000 
#    z 0.000000 0.000000 3.945200 
# 
# 
# High freq. dielectric constant tensor:
#      x y z
#    x 1.786660 0.000000 0.000000 
#    y 0.000000 1.799340 0.000000 
#    z 0.000000 0.000000 1.785710 
# 
# From -- ./inp_files/9925.got.cif
#   From: 2010.03.12/outbox.cif.g09.slc.cpg/sg67_5_cif.got.tgz:9925.got - 2010.04.10 22:41:39.
