data_PCOD8280933
_publ_section_title
;
Structure prediction by ZEFSAII (Michael W. Deem and Ramdas Pophale) SiO2 
 PCOD8280933
Probable space group: C M M A
;
_chemical_formula_sum "Si O2"
_cell_formula_units_Z 64
_cell_length_a 24.378689
_cell_length_b 15.148943
_cell_length_c 8.704570
_cell_angle_alpha 90.000000
_cell_angle_beta 90.000000
_cell_angle_gamma 90.000000
_cell_volume 3214.696673
_symmetry_space_group_name_H-M "C M M A"
_symmetry_group_IT_number 67
_symmetry_cell_setting 'orthorhombic'
loop_
_space_group_symop_operation_xyz
x,y,z
-x,1/2-y,z
x,-y,-z
-x,1/2+y,-z
-x,-y,-z
x,1/2+y,-z
-x,y,z
x,1/2-y,z
1/2+x,1/2+y,z
1/2-x,-y,z
1/2+x,1/2-y,-z
1/2-x,y,-z
1/2-x,1/2-y,-z
1/2+x,y,-z
1/2-x,1/2+y,z
1/2+x,-y,z
loop_
_atom_site_type_symbol
_atom_site_label
_atom_site_fract_x
_atom_site_fract_y
_atom_site_fract_z
Si Si1 0.500000 0.853072 0.407133
Si Si2 0.611543 0.593250 0.567001
Si Si3 0.810249 0.250000 0.567549
Si Si4 0.500000 0.097976 0.937440
Si Si5 0.388533 0.903612 0.931271
Si Si6 0.190715 0.250000 0.929246
O O1 0.500000 0.750000 0.371366
O O2 0.447518 0.880501 0.503879
O O3 0.500000 0.904381 0.246374
O O4 0.630998 0.500000 0.500000
O O5 0.656641 0.663885 0.511680
O O6 0.606993 0.588787 0.749332
O O7 0.750000 0.250000 0.500000
O O8 0.804666 0.250000 0.748302
O O9 0.444359 0.141432 0.002665
O O10 0.500000 0.000000 0.000000
O O11 0.340303 0.838324 0.984375
O O12 0.376578 0.000000 0.000000
O O13 0.250000 0.250000 0.000000
#
# Coordination Sequence:
#
# PCOD8280933 Si02
#       6
#     8  16   8   8  16   8
#     4  12  24  38  63  98 127 165 206 252 312 373
#     4  11  22  42  65  90 126 165 202 254 310 369
#     4  10  24  43  62  89 123 158 210 256 307 366
#     4  10  21  38  59  93 124 156 200 246 299 364
#     4  10  22  41  62  91 122 160 203 248 306 366
#     4  10  24  41  62  85 119 162 202 254 305 354
#
# _framework density 19.908566
#
# number of rings (size 3 to 8) (size 9 to 14) (size 15 to 20)
#    0.000    1.500    1.250    4.125    1.750    5.000 
#    0.000    5.000    0.000    0.000    0.000    0.000 
#    0.000    0.000    0.000    0.000    0.000    0.000 
#
# Total GULP energy -396844.781394 kJ/mol
# GULP energy per Si atom -12401.399419 kJ/mol
# Density = 1.986325 g / cm^3
# Si number density = 19.908566 Si / 1000 Ang^3
#
#
#
# Elastic Constant Matrix: (Units=GPa)
#
#
# Indices 1 2 3 4 5 6 
#
# 1 201.0275 92.9541 59.6857 0.0000 0.0000 0.0000
# 2 92.9541 157.9492 52.5600 0.0000 0.0000 0.0000
# 3 59.6857 52.5600 98.1917 0.0000 0.0000 0.0000
# 4 0.0000 0.0000 0.0000 27.8836 0.0000 0.0000
# 5 0.0000 0.0000 0.0000 0.0000 48.1184 0.0000
# 6 0.0000 0.0000 0.0000 0.0000 0.0000 27.8126
#
#
#
# Elastic Compliance Matrix: (Units=1/GPa)
#
#
# Indices 1 2 3 4 5 6 
#
# 1 0.007349 -0.003453 -0.002618 0.000000 0.000000 0.000000
# 2 -0.003453 0.009326 -0.002893 0.000000 0.000000 0.000000
# 3 -0.002618 -0.002893 0.013324 0.000000 0.000000 0.000000
# 4 0.000000 0.000000 0.000000 0.035863 0.000000 0.000000
# 5 0.000000 0.000000 0.000000 0.000000 0.020782 0.000000
# 6 0.000000 0.000000 0.000000 0.000000 0.000000 0.035955
#
#
# Mechanical properties :
#
#
# Convention : Reuss Voigt Hill
#
# Bulk Modulus (GPa) = 82.85229 96.39647 89.62438
# Shear Modulus (GPa) = 34.58958 37.56082 36.07520
#
# Velocity S-wave (km/s) = 4.17276 4.34829 4.26143
# Velocity P-wave (km/s) = 8.05746 8.58690 8.32639
#
# Compressibility (1/GPa) = 0.01206967
#
# Stress axis : x y z
#
# Youngs Moduli (GPa) = 136.07850 107.22478 75.05119
#
# Poissons Ratio (x) = 0.37030 0.19651
# Poissons Ratio (y) = 0.46994 0.21712
# Poissons Ratio (z) = 0.35630 0.31019
#
# Static dielectric constant tensor:
#      x y z
#    x 1.811470 0.000000 0.000000 
#    y 0.000000 3.916700 0.000000 
#    z 0.000000 0.000000 3.655980 
# 
# 
# High freq. dielectric constant tensor:
#      x y z
#    x 1.781620 0.000000 0.000000 
#    y 0.000000 1.788040 0.000000 
#    z 0.000000 0.000000 1.784490 
# 
# From -- ./inp_files/8073.got.cif
#   From: 2010.03.12/outbox.cif.g09.slc.cpg/sg67_5_cif.got.tgz:8073.got - 2010.04.10 22:41:39.
