data_PCOD8280574
_publ_section_title
;
Structure prediction by ZEFSAII (Michael W. Deem and Ramdas Pophale) SiO2 
 PCOD8280574
Probable space group: C M M A
;
_chemical_formula_sum "Si O2"
_cell_formula_units_Z 88
_cell_length_a 14.473027
_cell_length_b 14.397074
_cell_length_c 20.807913
_cell_angle_alpha 90.000000
_cell_angle_beta 90.000000
_cell_angle_gamma 90.000000
_cell_volume 4335.729033
_symmetry_space_group_name_H-M "C M M A"
_symmetry_group_IT_number 67
_symmetry_cell_setting 'orthorhombic'
loop_
_space_group_symop_operation_xyz
x,y,z
-x,1/2-y,z
x,-y,-z
-x,1/2+y,-z
-x,-y,-z
x,1/2+y,-z
-x,y,z
x,1/2-y,z
1/2+x,1/2+y,z
1/2-x,-y,z
1/2+x,1/2-y,-z
1/2-x,y,-z
1/2-x,1/2-y,-z
1/2+x,y,-z
1/2-x,1/2+y,z
1/2+x,-y,z
loop_
_atom_site_type_symbol
_atom_site_label
_atom_site_fract_x
_atom_site_fract_y
_atom_site_fract_z
Si Si1 0.109009 0.982345 0.602516
Si Si2 0.500000 0.147321 0.133688
Si Si3 0.805335 0.361258 0.818097
Si Si4 0.250000 0.000000 0.711218
Si Si5 0.197484 0.356229 0.060292
Si Si6 0.500000 0.392796 0.987837
Si Si7 0.109068 0.146553 0.512218
O O1 0.162420 0.969655 0.668862
O O2 0.136800 0.082627 0.572727
O O3 0.000000 0.975827 0.615789
O O4 0.142841 0.901780 0.553659
O O5 0.500000 0.250000 0.162290
O O6 0.406422 0.100148 0.159908
O O7 0.500000 0.156642 0.056500
O O8 0.803099 0.250000 0.808465
O O9 0.777147 0.410055 0.752354
O O10 0.733367 0.397514 0.872395
O O11 0.229356 0.250000 0.060991
O O12 0.087727 0.364823 0.054604
O O13 0.250000 0.405237 0.000000
O O14 0.500000 0.500000 0.000000
O O15 0.152567 0.250000 0.518989
O O16 0.000000 0.153054 0.509278
#
# Coordination Sequence:
#
# PCOD8280574 Si02
#       7
#    16   8  16   8  16   8  16
#     4   9  20  38  57  87 121 157 195 237 301 351
#     4  10  20  42  66  84 112 151 198 253 307 357
#     4  10  24  42  62  86 116 160 205 246 299 361
#     4  12  26  39  59  82 126 166 202 250 286 348
#     4  10  20  39  62  83 113 147 190 251 308 358
#     4  12  24  32  60  96 116 140 186 248 321 379
#     4   8  15  33  63  92 119 149 191 247 298 349
#
# _framework density 20.296469999999999
#
# number of rings (size 3 to 8) (size 9 to 14) (size 15 to 20)
#    0.000    2.182    1.818    1.909    3.818    3.273 
#    1.636    0.909    0.000    0.000    0.000    0.000 
#    0.000    0.000    0.000    0.000    0.000    0.000 
#
# Total GULP energy -545449.854092 kJ/mol
# GULP energy per Si atom -12396.587593 kJ/mol
# Density = 2.025027 g / cm^3
# Si number density = 20.296470 Si / 1000 Ang^3
#
#
#
# Elastic Constant Matrix: (Units=GPa)
#
#
# Indices 1 2 3 4 5 6 
#
# 1 134.5922 18.3610 69.4280 0.0000 0.0000 0.0000
# 2 18.3610 91.5108 33.1222 0.0000 0.0000 0.0000
# 3 69.4280 33.1222 138.3778 0.0000 0.0000 0.0000
# 4 0.0000 0.0000 0.0000 26.3688 0.0000 0.0000
# 5 0.0000 0.0000 0.0000 0.0000 39.3022 0.0000
# 6 0.0000 0.0000 0.0000 0.0000 0.0000 12.7773
#
#
#
# Elastic Compliance Matrix: (Units=1/GPa)
#
#
# Indices 1 2 3 4 5 6 
#
# 1 0.010028 -0.000209 -0.004981 0.000000 0.000000 0.000000
# 2 -0.000209 0.011969 -0.002760 0.000000 0.000000 0.000000
# 3 -0.004981 -0.002760 0.010386 0.000000 0.000000 0.000000
# 4 0.000000 0.000000 0.000000 0.037924 0.000000 0.000000
# 5 0.000000 0.000000 0.000000 0.000000 0.025444 0.000000
# 6 0.000000 0.000000 0.000000 0.000000 0.000000 0.078264
#
#
# Mechanical properties :
#
#
# Convention : Reuss Voigt Hill
#
# Bulk Modulus (GPa) = 60.67054 67.36701 64.01878
# Shear Modulus (GPa) = 25.58738 31.92764 28.75751
#
# Velocity S-wave (km/s) = 3.55446 3.97049 3.76822
# Velocity P-wave (km/s) = 6.84124 7.36772 7.10936
#
# Compressibility (1/GPa) = 0.01648247
#
# Stress axis : x y z
#
# Youngs Moduli (GPa) = 99.72191 83.55217 96.27953
#
# Poissons Ratio (x) = 0.01747 0.47959
# Poissons Ratio (y) = 0.02085 0.26572
# Poissons Ratio (z) = 0.49674 0.23060
#
# Static dielectric constant tensor:
#      x y z
#    x 3.686150 0.000000 0.000000 
#    y 0.000000 3.900930 0.000000 
#    z 0.000000 0.000000 3.454480 
# 
# 
# High freq. dielectric constant tensor:
#      x y z
#    x 1.801150 0.000000 0.000000 
#    y 0.000000 1.789130 0.000000 
#    z 0.000000 0.000000 1.775610 
# 
# From -- ./inp_files/38346.got.cif
#   From: 2010.03.12/outbox.cif.g09.slc.cpg/sg67_20_cif.got.tgz:38346.got - 2010.04.10 22:41:39.
