data_PCOD8280435
_publ_section_title
;
Structure prediction by ZEFSAII (Michael W. Deem and Ramdas Pophale) SiO2 
 PCOD8280435
Probable space group: C M M A
;
_chemical_formula_sum "Si O2"
_cell_formula_units_Z 112
_cell_length_a 14.815232
_cell_length_b 15.249799
_cell_length_c 21.890117
_cell_angle_alpha 90.000000
_cell_angle_beta 90.000000
_cell_angle_gamma 90.000000
_cell_volume 4945.619033
_symmetry_space_group_name_H-M "C M M A"
_symmetry_group_IT_number 67
_symmetry_cell_setting 'orthorhombic'
loop_
_space_group_symop_operation_xyz
x,y,z
-x,1/2-y,z
x,-y,-z
-x,1/2+y,-z
-x,-y,-z
x,1/2+y,-z
-x,y,z
x,1/2-y,z
1/2+x,1/2+y,z
1/2-x,-y,z
1/2+x,1/2-y,-z
1/2-x,y,-z
1/2-x,1/2-y,-z
1/2+x,y,-z
1/2-x,1/2+y,z
1/2+x,-y,z
loop_
_atom_site_type_symbol
_atom_site_label
_atom_site_fract_x
_atom_site_fract_y
_atom_site_fract_z
Si Si1 0.897993 0.654480 0.386518
Si Si2 0.605238 0.850506 0.017182
Si Si3 0.099091 0.652784 0.194058
Si Si4 0.852971 0.906447 0.511190
Si Si5 0.729099 0.097567 0.090711
Si Si6 0.847402 0.519153 0.294055
Si Si7 0.897405 0.654583 0.643778
O O1 0.865480 0.750000 0.363029
O O2 0.893817 0.657684 0.460079
O O3 0.838129 0.576852 0.356454
O O4 0.000000 0.636710 0.364831
O O5 0.500000 0.882067 0.029382
O O6 0.602421 0.750000 0.996024
O O7 0.673136 0.858108 0.075501
O O8 0.656162 0.905776 0.964714
O O9 0.107878 0.750000 0.224046
O O10 0.180717 0.646322 0.146290
O O11 0.099091 0.576885 0.245029
O O12 0.000000 0.644622 0.161841
O O13 0.750000 0.920355 0.500000
O O14 0.855817 0.869636 0.579051
O O15 0.902904 0.000000 0.500000
O O16 0.750000 0.000000 0.111656
O O17 0.750000 0.500000 0.266593
O O18 0.888867 0.423135 0.306518
O O19 0.857534 0.750000 0.666422
O O20 0.000000 0.668749 0.629537
#
# Coordination Sequence:
#
# PCOD8280435 Si02
#       7
#    16  16  16  16  16  16  16
#     4  11  23  39  62  89 117 154 202 256 313 376
#     4  10  20  36  62  96 137 183 226 270 320 377
#     4  11  24  44  70  95 123 165 218 278 337 390
#     4  11  22  36  57  89 123 158 194 244 313 384
#     4  11  22  37  60  96 137 177 219 268 325 390
#     4  12  25  42  63  90 120 156 205 261 322 382
#     4  11  24  41  62  88 120 160 202 248 312 387
#
# _framework density 22.646305999999999
#
# number of rings (size 3 to 8) (size 9 to 14) (size 15 to 20)
#    0.000    1.000    1.429    6.857    0.000    9.143 
#    0.000    0.000    0.000    0.000    0.000    4.000 
#    0.000    0.000    0.000    0.000    0.000    0.000 
#
# Total GULP energy -693790.225149 kJ/mol
# GULP energy per Si atom -12389.111163 kJ/mol
# Density = 2.259476 g / cm^3
# Si number density = 22.646306 Si / 1000 Ang^3
#
#
#
# Elastic Constant Matrix: (Units=GPa)
#
#
# Indices 1 2 3 4 5 6 
#
# 1 134.9510 40.2636 34.4785 0.0000 0.0000 0.0000
# 2 40.2636 169.9203 40.0000 0.0000 0.0000 0.0000
# 3 34.4785 40.0000 86.1069 0.0000 0.0000 0.0000
# 4 0.0000 0.0000 0.0000 29.1255 0.0000 0.0000
# 5 0.0000 0.0000 0.0000 0.0000 34.1324 0.0000
# 6 0.0000 0.0000 0.0000 0.0000 0.0000 -27.9854
#
#
#
# Elastic Compliance Matrix: (Units=1/GPa)
#
#
# Indices 1 2 3 4 5 6 
#
# 1 0.008528 -0.001366 -0.002780 0.000000 0.000000 0.000000
# 2 -0.001366 0.006827 -0.002624 0.000000 0.000000 0.000000
# 3 -0.002780 -0.002624 0.013946 0.000000 0.000000 0.000000
# 4 0.000000 0.000000 0.000000 0.034334 0.000000 0.000000
# 5 0.000000 0.000000 0.000000 0.000000 0.029298 0.000000
# 6 0.000000 0.000000 0.000000 0.000000 0.000000 -0.035733
#
#
# Mechanical properties :
#
#
# Convention : Reuss Voigt Hill
#
# Bulk Modulus (GPa) = 63.45462 68.94027 66.19745
# Shear Modulus (GPa) = 65.79534 25.47025 45.63279
#
# Velocity S-wave (km/s) = 5.39597 3.35729 4.49377
# Velocity P-wave (km/s) = 8.17941 6.74809 7.49798
#
# Compressibility (1/GPa) = 0.01575929
#
# Stress axis : x y z
#
# Youngs Moduli (GPa) = 117.26049 146.48576 71.70696
#
# Poissons Ratio (x) = 0.20015 0.19935
# Poissons Ratio (y) = 0.16022 0.18817
# Poissons Ratio (z) = 0.32599 0.38440
#
# Static dielectric constant tensor:
#      x y z
#    x 4.267550 0.000000 0.000000 
#    y 0.000000 8.596700 0.000000 
#    z 0.000000 0.000000 3.648430 
# 
# 
# High freq. dielectric constant tensor:
#      x y z
#    x 1.902480 0.000000 0.000000 
#    y 0.000000 1.910110 0.000000 
#    z 0.000000 0.000000 1.857120 
# 
# From -- ./inp_files/42017.got.cif
#   From: 2010.03.12/outbox.cif.g09.slc.cpg/sg67_22_cif.got.tgz:42017.got - 2010.04.10 22:41:39.
