data_PCOD8280155
_publ_section_title
;
Structure prediction by ZEFSAII (Michael W. Deem and Ramdas Pophale) SiO2 
 PCOD8280155
Probable space group: C M M A
;
_chemical_formula_sum "Si O2"
_cell_formula_units_Z 80
_cell_length_a 11.093091
_cell_length_b 17.561341
_cell_length_c 20.290403
_cell_angle_alpha 90.000000
_cell_angle_beta 90.000000
_cell_angle_gamma 90.000000
_cell_volume 3952.764355
_symmetry_space_group_name_H-M "C M M A"
_symmetry_group_IT_number 67
_symmetry_cell_setting 'orthorhombic'
loop_
_space_group_symop_operation_xyz
x,y,z
-x,1/2-y,z
x,-y,-z
-x,1/2+y,-z
-x,-y,-z
x,1/2+y,-z
-x,y,z
x,1/2-y,z
1/2+x,1/2+y,z
1/2-x,-y,z
1/2+x,1/2-y,-z
1/2-x,y,-z
1/2-x,1/2-y,-z
1/2+x,y,-z
1/2-x,1/2+y,z
1/2+x,-y,z
loop_
_atom_site_type_symbol
_atom_site_label
_atom_site_fract_x
_atom_site_fract_y
_atom_site_fract_z
Si Si1 0.636925 0.840719 0.043935
Si Si2 0.000000 0.160106 0.788231
Si Si3 0.762988 0.410159 0.573891
Si Si4 0.361554 0.666036 0.312959
Si Si5 0.500000 0.658890 0.636749
Si Si6 0.257018 0.840760 0.179179
O O1 0.500000 0.868654 0.023479
O O2 0.638263 0.750000 0.040616
O O3 0.664140 0.870829 0.117935
O O4 0.750000 0.871850 0.000000
O O5 0.118036 0.131739 0.827882
O O6 0.000000 0.250000 0.786846
O O7 0.000000 0.132631 0.712652
O O8 0.750000 0.500000 0.573085
O O9 0.750000 0.377636 0.500000
O O10 0.655788 0.380989 0.620403
O O11 0.886592 0.379439 0.602684
O O12 0.500000 0.673866 0.297113
O O13 0.302917 0.750000 0.322861
O O14 0.303376 0.625640 0.248805
O O15 0.500000 0.750000 0.627630
O O16 0.267401 0.750000 0.181317
#
# Coordination Sequence:
#
# PCOD8280155 Si02
#       6
#    16   8  16  16   8  16
#     4   9  17  26  38  61  97 141 184 225 279 347
#     4   9  16  28  49  75  99 130 179 239 291 330
#     4  11  26  41  58  81 118 153 186 232 301 363
#     4  10  20  35  56  80 105 140 190 240 286 342
#     4  11  22  41  65  87 112 147 201 253 292 348
#     4   9  16  28  46  69 100 136 179 233 288 339
#
# _framework density 20.238999
#
# number of rings (size 3 to 8) (size 9 to 14) (size 15 to 20)
#    0.000    2.200    2.000    1.200    4.200    4.800 
#    0.000    0.000    0.000    0.000    0.000    0.000 
#    0.000    0.800    0.000    5.600    0.000    7.000 
#
# Total GULP energy -495631.544760 kJ/mol
# GULP energy per Si atom -12390.788619 kJ/mol
# Density = 2.019293 g / cm^3
# Si number density = 20.238999 Si / 1000 Ang^3
#
#
#
# Elastic Constant Matrix: (Units=GPa)
#
#
# Indices 1 2 3 4 5 6 
#
# 1 146.0722 13.8606 54.7247 0.0000 0.0000 0.0000
# 2 13.8606 29.3588 16.6880 0.0000 0.0000 0.0000
# 3 54.7247 16.6880 131.9896 0.0000 0.0000 0.0000
# 4 0.0000 0.0000 0.0000 -1.0576 0.0000 0.0000
# 5 0.0000 0.0000 0.0000 0.0000 -282.7447 0.0000
# 6 0.0000 0.0000 0.0000 0.0000 0.0000 14.5432
#
#
#
# Elastic Compliance Matrix: (Units=1/GPa)
#
#
# Indices 1 2 3 4 5 6 
#
# 1 0.008223 -0.002095 -0.003144 0.000000 0.000000 0.000000
# 2 -0.002095 0.037232 -0.003839 0.000000 0.000000 0.000000
# 3 -0.003144 -0.003839 0.009365 0.000000 0.000000 0.000000
# 4 0.000000 0.000000 0.000000 -0.945497 0.000000 0.000000
# 5 0.000000 0.000000 0.000000 0.000000 -0.003537 0.000000
# 6 0.000000 0.000000 0.000000 0.000000 0.000000 0.068760
#
#
# Mechanical properties :
#
#
# Convention : Reuss Voigt Hill
#
# Bulk Modulus (GPa) = 27.27438 53.10748 40.19093
# Shear Modulus (GPa) = -6.28872 -39.04200 -22.66536
#
# Velocity S-wave (km/s) = -1.76465 -4.39686 -3.35010
# Velocity P-wave (km/s) = 3.05834 0.72157 2.22195
#
# Compressibility (1/GPa) = 0.03666445
#
# Stress axis : x y z
#
# Youngs Moduli (GPa) = 121.61422 26.85829 106.77549
#
# Poissons Ratio (x) = 0.05626 0.33575
# Poissons Ratio (y) = 0.25475 0.40991
# Poissons Ratio (z) = 0.38241 0.10311
#
# Static dielectric constant tensor:
#      x y z
#    x 3.606650 0.000000 0.000000 
#    y 0.000000 3.077310 0.000000 
#    z 0.000000 0.000000 3.978240 
# 
# 
# High freq. dielectric constant tensor:
#      x y z
#    x 1.811630 0.000000 0.000000 
#    y 0.000000 1.717470 0.000000 
#    z 0.000000 0.000000 1.800320 
# 
# From -- ./inp_files/32868.got.cif
#   From: 2010.03.12/outbox.cif.g09.slc.cpg/sg67_17_cif.got.tgz:32868.got - 2010.04.10 22:41:39.
