data_PCOD8280766
_publ_section_title
;
Structure prediction by ZEFSAII (Michael W. Deem and Ramdas Pophale) SiO2 
 PCOD8280766
Probable space group: C M M A
;
_chemical_formula_sum "Si O2"
_cell_formula_units_Z 96
_cell_length_a 24.484056
_cell_length_b 21.503692
_cell_length_c 9.031492
_cell_angle_alpha 90.000000
_cell_angle_beta 90.000000
_cell_angle_gamma 90.000000
_cell_volume 4755.058855
_symmetry_space_group_name_H-M "C M M A"
_symmetry_group_IT_number 67
_symmetry_cell_setting 'orthorhombic'
loop_
_space_group_symop_operation_xyz
x,y,z
-x,1/2-y,z
x,-y,-z
-x,1/2+y,-z
-x,-y,-z
x,1/2+y,-z
-x,y,z
x,1/2-y,z
1/2+x,1/2+y,z
1/2-x,-y,z
1/2+x,1/2-y,-z
1/2-x,y,-z
1/2-x,1/2-y,-z
1/2+x,y,-z
1/2-x,1/2+y,z
1/2+x,-y,z
loop_
_atom_site_type_symbol
_atom_site_label
_atom_site_fract_x
_atom_site_fract_y
_atom_site_fract_z
Si Si1 0.846798 0.178803 0.629727
Si Si2 0.061112 0.318791 0.108500
Si Si3 0.437084 0.880246 0.810255
Si Si4 0.742984 0.178171 0.826566
Si Si5 0.859539 0.625190 0.685097
Si Si6 0.937995 0.988205 0.673493
O O1 0.841551 0.250000 0.579051
O O2 0.903577 0.168301 0.712368
O O3 0.798030 0.160189 0.740082
O O4 0.845595 0.135187 0.486201
O O5 0.067025 0.250000 0.038428
O O6 0.100121 0.322361 0.250688
O O7 0.000000 0.330653 0.165666
O O8 0.077060 0.369127 0.982855
O O9 0.500000 0.865085 0.777843
O O10 0.422728 0.950621 0.766638
O O11 0.726659 0.250000 0.792902
O O12 0.697044 0.129750 0.773861
O O13 0.750000 0.167947 0.000000
O O14 0.891217 0.560817 0.715186
O O15 0.000000 0.965952 0.715275
O O16 0.935566 0.000000 0.500000
#
# Coordination Sequence:
#
# PCOD8280766 Si02
#       6
#    16  16  16  16  16  16
#     4  11  22  36  60  92 121 155 204 257 313 373
#     4  10  21  36  56  89 128 161 199 254 315 371
#     4  10  21  39  62  86 121 166 208 248 303 373
#     4  10  22  41  63  88 122 162 203 254 316 381
#     4  12  22  37  62  89 120 160 206 257 308 367
#     4  10  21  40  63  90 124 164 209 254 303 364
#
# _framework density 20.189025000000001
#
# number of rings (size 3 to 8) (size 9 to 14) (size 15 to 20)
#    0.000    1.500    1.667    4.000    0.000    5.000 
#    0.000    3.333    0.000    1.000    0.000    0.000 
#    0.000    0.000    0.000    0.000    0.000    0.000 
#
# Total GULP energy -595167.199345 kJ/mol
# GULP energy per Si atom -12399.316653 kJ/mol
# Density = 2.014307 g / cm^3
# Si number density = 20.189025 Si / 1000 Ang^3
#
#
#
# Elastic Constant Matrix: (Units=GPa)
#
#
# Indices 1 2 3 4 5 6 
#
# 1 124.9172 51.0792 59.9977 0.0000 0.0000 0.0000
# 2 51.0792 81.0744 34.5951 0.0000 0.0000 0.0000
# 3 59.9977 34.5951 116.8277 0.0000 0.0000 0.0000
# 4 0.0000 0.0000 0.0000 29.2431 0.0000 0.0000
# 5 0.0000 0.0000 0.0000 0.0000 39.5648 0.0000
# 6 0.0000 0.0000 0.0000 0.0000 0.0000 34.1153
#
#
#
# Elastic Compliance Matrix: (Units=1/GPa)
#
#
# Indices 1 2 3 4 5 6 
#
# 1 0.012749 -0.005996 -0.004772 0.000000 0.000000 0.000000
# 2 -0.005996 0.016938 -0.001936 0.000000 0.000000 0.000000
# 3 -0.004772 -0.001936 0.011584 0.000000 0.000000 0.000000
# 4 0.000000 0.000000 0.000000 0.034196 0.000000 0.000000
# 5 0.000000 0.000000 0.000000 0.000000 0.025275 0.000000
# 6 0.000000 0.000000 0.000000 0.000000 0.000000 0.029312
#
#
# Mechanical properties :
#
#
# Convention : Reuss Voigt Hill
#
# Bulk Modulus (GPa) = 63.04242 68.24036 65.64139
# Shear Modulus (GPa) = 31.10408 32.39446 31.74927
#
# Velocity S-wave (km/s) = 3.92936 4.01004 3.96990
# Velocity P-wave (km/s) = 7.20280 7.43738 7.32103
#
# Compressibility (1/GPa) = 0.01586233
#
# Stress axis : x y z
#
# Youngs Moduli (GPa) = 78.43742 59.03753 86.32879
#
# Poissons Ratio (x) = 0.35399 0.41194
# Poissons Ratio (y) = 0.47032 0.16717
# Poissons Ratio (z) = 0.37429 0.11432
#
# Static dielectric constant tensor:
#      x y z
#    x 3.789660 0.000000 0.000000 
#    y 0.000000 3.560070 0.000000 
#    z 0.000000 0.000000 3.698220 
# 
# 
# High freq. dielectric constant tensor:
#      x y z
#    x 1.794930 0.000000 0.000000 
#    y 0.000000 1.771190 0.000000 
#    z 0.000000 0.000000 1.795550 
# 
# From -- ./inp_files/13720.got.cif
#   From: 2010.03.12/outbox.cif.g09.slc.cpg/sg67_7_cif.got.tgz:13720.got - 2010.04.10 22:41:39.
