data_PCOD8280133
_publ_section_title
;
Structure prediction by ZEFSAII (Michael W. Deem and Ramdas Pophale) SiO2 
 PCOD8280133
Probable space group: C M M A
;
_chemical_formula_sum "Si O2"
_cell_formula_units_Z 80
_cell_length_a 10.367439
_cell_length_b 14.100631
_cell_length_c 28.064195
_cell_angle_alpha 90.000000
_cell_angle_beta 90.000000
_cell_angle_gamma 90.000000
_cell_volume 4102.632591
_symmetry_space_group_name_H-M "C M M A"
_symmetry_group_IT_number 67
_symmetry_cell_setting 'orthorhombic'
loop_
_space_group_symop_operation_xyz
x,y,z
-x,1/2-y,z
x,-y,-z
-x,1/2+y,-z
-x,-y,-z
x,1/2+y,-z
-x,y,z
x,1/2-y,z
1/2+x,1/2+y,z
1/2-x,-y,z
1/2+x,1/2-y,-z
1/2-x,y,-z
1/2-x,1/2-y,-z
1/2+x,y,-z
1/2-x,1/2+y,z
1/2+x,-y,z
loop_
_atom_site_type_symbol
_atom_site_label
_atom_site_fract_x
_atom_site_fract_y
_atom_site_fract_z
Si Si1 0.148672 0.923360 0.110565
Si Si2 0.148830 0.853743 0.211940
Si Si3 0.750000 0.000000 0.714321
Si Si4 0.142590 0.750000 0.040068
Si Si5 0.645290 0.637565 0.463220
Si Si6 0.351170 0.646702 0.358657
O O1 0.204902 0.890697 0.161923
O O2 0.158105 0.840026 0.073216
O O3 0.000000 0.961170 0.114066
O O4 0.250000 0.000000 0.091203
O O5 0.210872 0.750000 0.224771
O O6 0.165230 0.930814 0.253319
O O7 0.000000 0.837519 0.203353
O O8 0.664373 0.067271 0.681420
O O9 0.000000 0.750000 0.016233
O O10 0.250000 0.750000 0.000000
O O11 0.500000 0.596341 0.472329
O O12 0.639207 0.750000 0.469109
O O13 0.750000 0.593618 0.500000
O O14 0.700283 0.612239 0.410275
O O15 0.500000 0.664713 0.366371
O O16 0.288839 0.750000 0.344348
#
# Coordination Sequence:
#
# PCOD8280133 Si02
#       6
#    16  16   8   8  16  16
#     4  10  20  38  61  87 117 154 193 238 287 335
#     4  10  20  35  55  79 109 145 187 231 281 331
#     4  12  20  32  55  80 105 140 188 230 274 328
#     4  10  22  40  64  88 124 164 196 236 289 344
#     4   8  14  28  51  75 100 135 177 222 274 332
#     4   9  19  35  52  74 108 143 176 223 283 339
#
# _framework density 19.499675
#
# number of rings (size 3 to 8) (size 9 to 14) (size 15 to 20)
#    0.000    2.400    2.000    2.400    0.000    1.200 
#    0.000    4.500    0.000    8.400    0.000    0.000 
#    0.000    0.000    0.000    0.000    0.000    0.800 
#
# Total GULP energy -495595.633295 kJ/mol
# GULP energy per Si atom -12389.890832 kJ/mol
# Density = 1.945529 g / cm^3
# Si number density = 19.499675 Si / 1000 Ang^3
#
#
#
# Elastic Constant Matrix: (Units=GPa)
#
#
# Indices 1 2 3 4 5 6 
#
# 1 79.8525 43.5202 49.6269 0.0000 0.0000 0.0000
# 2 43.5202 109.1892 47.8794 0.0000 0.0000 0.0000
# 3 49.6269 47.8794 128.2485 0.0000 0.0000 0.0000
# 4 0.0000 0.0000 0.0000 12.2068 0.0000 0.0000
# 5 0.0000 0.0000 0.0000 0.0000 29.3509 0.0000
# 6 0.0000 0.0000 0.0000 0.0000 0.0000 18.2132
#
#
#
# Elastic Compliance Matrix: (Units=1/GPa)
#
#
# Indices 1 2 3 4 5 6 
#
# 1 0.018585 -0.005087 -0.005292 0.000000 0.000000 0.000000
# 2 -0.005087 0.012343 -0.002640 0.000000 0.000000 0.000000
# 3 -0.005292 -0.002640 0.010831 0.000000 0.000000 0.000000
# 4 0.000000 0.000000 0.000000 0.081921 0.000000 0.000000
# 5 0.000000 0.000000 0.000000 0.000000 0.034071 0.000000
# 6 0.000000 0.000000 0.000000 0.000000 0.000000 0.054905
#
#
# Mechanical properties :
#
#
# Convention : Reuss Voigt Hill
#
# Bulk Modulus (GPa) = 63.60960 66.59371 65.10165
# Shear Modulus (GPa) = 20.49733 23.70508 22.10120
#
# Velocity S-wave (km/s) = 3.24568 3.49042 3.37027
# Velocity P-wave (km/s) = 6.83649 7.10418 6.97162
#
# Compressibility (1/GPa) = 0.01572090
#
# Stress axis : x y z
#
# Youngs Moduli (GPa) = 53.80827 81.01491 92.32858
#
# Poissons Ratio (x) = 0.41209 0.48864
# Poissons Ratio (y) = 0.27370 0.24374
# Poissons Ratio (z) = 0.28478 0.21387
#
# Static dielectric constant tensor:
#      x y z
#    x 3.426420 0.000000 0.000000 
#    y 0.000000 3.760700 0.000000 
#    z 0.000000 0.000000 3.676550 
# 
# 
# High freq. dielectric constant tensor:
#      x y z
#    x 1.733050 0.000000 0.000000 
#    y 0.000000 1.764350 0.000000 
#    z 0.000000 0.000000 1.763370 
# 
# From -- ./inp_files/41352.got.cif
#   From: 2010.03.12/outbox.cif.g09.slc.cpg/sg67_21_cif.got.tgz:41352.got - 2010.04.10 22:41:39.
