data_PCOD8280365
_publ_section_title
;
Structure prediction by ZEFSAII (Michael W. Deem and Ramdas Pophale) SiO2 
 PCOD8280365
Probable space group: C M M A
;
_chemical_formula_sum "Si O2"
_cell_formula_units_Z 96
_cell_length_a 22.394295
_cell_length_b 14.931221
_cell_length_c 14.252651
_cell_angle_alpha 90.000000
_cell_angle_beta 90.000000
_cell_angle_gamma 90.000000
_cell_volume 4765.718317
_symmetry_space_group_name_H-M "C M M A"
_symmetry_group_IT_number 67
_symmetry_cell_setting 'orthorhombic'
loop_
_space_group_symop_operation_xyz
x,y,z
-x,1/2-y,z
x,-y,-z
-x,1/2+y,-z
-x,-y,-z
x,1/2+y,-z
-x,y,z
x,1/2-y,z
1/2+x,1/2+y,z
1/2-x,-y,z
1/2+x,1/2-y,-z
1/2-x,y,-z
1/2-x,1/2-y,-z
1/2+x,y,-z
1/2-x,1/2+y,z
1/2+x,-y,z
loop_
_atom_site_type_symbol
_atom_site_label
_atom_site_fract_x
_atom_site_fract_y
_atom_site_fract_z
Si Si1 0.145821 0.648963 0.846324
Si Si2 0.685247 0.848363 0.957169
Si Si3 0.930981 0.968771 0.713540
Si Si4 0.068368 0.351178 0.463037
Si Si5 0.769988 0.096846 0.772359
Si Si6 0.122322 0.649764 0.339966
O O1 0.120341 0.750000 0.839409
O O2 0.103928 0.578481 0.796468
O O3 0.211674 0.653443 0.799108
O O4 0.145442 0.616673 0.955679
O O5 0.663240 0.750000 0.923328
O O6 0.686930 0.912081 0.865259
O O7 0.750000 0.839003 0.000000
O O8 0.912416 0.921908 0.615865
O O9 0.000000 0.954986 0.733809
O O10 0.915426 0.073975 0.713885
O O11 0.073924 0.250000 0.422875
O O12 0.113614 0.365235 0.549060
O O13 0.000000 0.369324 0.496544
O O14 0.807663 0.141441 0.687821
O O15 0.750000 0.000000 0.737545
O O16 0.099373 0.750000 0.313470
#
# Coordination Sequence:
#
# PCOD8280365 Si02
#       6
#    16  16  16  16  16  16
#     4  10  20  36  58  87 121 153 191 243 298 350
#     4   8  16  31  54  83 111 145 187 230 282 343
#     4  11  22  38  60  89 117 152 200 248 293 343
#     4   9  19  37  62  88 113 149 198 248 294 346
#     4  11  20  36  58  88 117 155 190 242 288 354
#     4  11  22  37  58  86 119 154 196 241 294 350
#
# _framework density 20.143868000000001
#
# number of rings (size 3 to 8) (size 9 to 14) (size 15 to 20)
#    0.000    2.000    1.667    4.000    0.000    6.333 
#    0.000    0.833    0.000    6.000    0.000    4.667 
#    0.000    0.000    0.000    0.000    0.000    0.000 
#
# Total GULP energy -594873.600940 kJ/mol
# GULP energy per Si atom -12393.200020 kJ/mol
# Density = 2.009802 g / cm^3
# Si number density = 20.143868 Si / 1000 Ang^3
#
#
#
# Elastic Constant Matrix: (Units=GPa)
#
#
# Indices 1 2 3 4 5 6 
#
# 1 70.9148 33.4908 52.4514 0.0000 0.0000 0.0000
# 2 33.4908 125.6759 47.7956 0.0000 0.0000 0.0000
# 3 52.4514 47.7956 86.6570 0.0000 0.0000 0.0000
# 4 0.0000 0.0000 0.0000 21.7204 0.0000 0.0000
# 5 0.0000 0.0000 0.0000 0.0000 25.7321 0.0000
# 6 0.0000 0.0000 0.0000 0.0000 0.0000 22.0425
#
#
#
# Elastic Compliance Matrix: (Units=1/GPa)
#
#
# Indices 1 2 3 4 5 6 
#
# 1 0.025669 -0.001179 -0.014886 0.000000 0.000000 0.000000
# 2 -0.001179 0.010123 -0.004870 0.000000 0.000000 0.000000
# 3 -0.014886 -0.004870 0.023236 0.000000 0.000000 0.000000
# 4 0.000000 0.000000 0.000000 0.046040 0.000000 0.000000
# 5 0.000000 0.000000 0.000000 0.000000 0.038862 0.000000
# 6 0.000000 0.000000 0.000000 0.000000 0.000000 0.045367
#
#
# Mechanical properties :
#
#
# Convention : Reuss Voigt Hill
#
# Bulk Modulus (GPa) = 58.28314 61.19147 59.73730
# Shear Modulus (GPa) = 21.10715 23.86632 22.48674
#
# Velocity S-wave (km/s) = 3.24052 3.44582 3.34474
# Velocity P-wave (km/s) = 6.55725 6.80255 6.68103
#
# Compressibility (1/GPa) = 0.01715762
#
# Stress axis : x y z
#
# Youngs Moduli (GPa) = 38.95781 98.78312 43.03640
#
# Poissons Ratio (x) = 0.11646 0.64066
# Poissons Ratio (y) = 0.04593 0.20958
# Poissons Ratio (z) = 0.57994 0.48106
#
# Static dielectric constant tensor:
#      x y z
#    x 3.432260 0.000000 0.000000 
#    y 0.000000 3.840190 0.000000 
#    z 0.000000 0.000000 3.775150 
# 
# 
# High freq. dielectric constant tensor:
#      x y z
#    x 1.746640 0.000000 0.000000 
#    y 0.000000 1.802600 0.000000 
#    z 0.000000 0.000000 1.777310 
# 
# From -- ./inp_files/29299.got.cif
#   From: 2010.03.12/outbox.cif.g09.slc.cpg/sg67_15_cif.got.tgz:29299.got - 2010.04.10 22:41:39.
