data_PCOD8280297
_publ_section_title
;
Structure prediction by ZEFSAII (Michael W. Deem and Ramdas Pophale) SiO2 
 PCOD8280297
Probable space group: C M M A
;
_chemical_formula_sum "Si O2"
_cell_formula_units_Z 112
_cell_length_a 22.962966
_cell_length_b 20.310109
_cell_length_c 12.371768
_cell_angle_alpha 90.000000
_cell_angle_beta 90.000000
_cell_angle_gamma 90.000000
_cell_volume 5769.949396
_symmetry_space_group_name_H-M "C M M A"
_symmetry_group_IT_number 67
_symmetry_cell_setting 'orthorhombic'
loop_
_space_group_symop_operation_xyz
x,y,z
-x,1/2-y,z
x,-y,-z
-x,1/2+y,-z
-x,-y,-z
x,1/2+y,-z
-x,y,z
x,1/2-y,z
1/2+x,1/2+y,z
1/2-x,-y,z
1/2+x,1/2-y,-z
1/2-x,y,-z
1/2-x,1/2-y,-z
1/2+x,y,-z
1/2-x,1/2+y,z
1/2+x,-y,z
loop_
_atom_site_type_symbol
_atom_site_label
_atom_site_fract_x
_atom_site_fract_y
_atom_site_fract_z
Si Si1 0.066184 0.867903 0.865205
Si Si2 0.665764 0.047908 0.405519
Si Si3 0.769776 0.070356 0.813483
Si Si4 0.677282 0.322183 0.767253
Si Si5 0.064515 0.997982 0.262160
Si Si6 0.318150 0.823933 0.480458
Si Si7 0.617050 0.433876 0.064817
O O1 0.113853 0.816564 0.822650
O O2 0.000000 0.840013 0.861242
O O3 0.072962 0.930183 0.787306
O O4 0.082656 0.883429 0.989005
O O5 0.712921 0.058624 0.311344
O O6 0.608323 0.012585 0.360609
O O7 0.648906 0.120630 0.449692
O O8 0.690910 0.000000 0.500000
O O9 0.717591 0.122863 0.823690
O O10 0.822751 0.096258 0.887935
O O11 0.750000 0.000000 0.860741
O O12 0.707083 0.250000 0.777925
O O13 0.667622 0.339634 0.642938
O O14 0.075103 0.946224 0.166315
O O15 0.000000 0.988044 0.308513
O O16 0.338858 0.750000 0.513443
O O17 0.250000 0.831884 0.500000
O O18 0.631472 0.500000 0.000000
#
# Coordination Sequence:
#
# PCOD8280297 Si02
#       7
#    16  16  16  16  16  16  16
#     4  10  20  37  58  78 106 145 188 231 275 325
#     4  11  21  31  52  84 113 143 184 230 278 324
#     4  11  21  33  53  82 116 144 180 228 278 333
#     4  11  23  38  56  82 111 143 186 229 277 331
#     4   9  18  33  54  82 113 142 181 234 281 323
#     4  10  20  36  55  75 106 149 185 213 263 340
#     4   9  18  33  54  81 109 146 185 222 273 338
#
# _framework density 19.410914999999999
#
# number of rings (size 3 to 8) (size 9 to 14) (size 15 to 20)
#    0.000    1.857    1.429    4.714    0.000    4.286 
#    0.000    2.143    0.000    2.143    0.000    0.000 
#    0.000    0.000    0.000    0.000    0.000    0.000 
#
# Total GULP energy -694233.821405 kJ/mol
# GULP energy per Si atom -12397.032525 kJ/mol
# Density = 1.936673 g / cm^3
# Si number density = 19.410915 Si / 1000 Ang^3
#
#
#
# Elastic Constant Matrix: (Units=GPa)
#
#
# Indices 1 2 3 4 5 6 
#
# 1 100.5937 26.8894 24.9651 0.0000 0.0000 0.0000
# 2 26.8894 74.8805 14.0074 0.0000 0.0000 0.0000
# 3 24.9651 14.0074 66.5395 0.0000 0.0000 0.0000
# 4 0.0000 0.0000 0.0000 -20.0124 0.0000 0.0000
# 5 0.0000 0.0000 0.0000 0.0000 21.6723 0.0000
# 6 0.0000 0.0000 0.0000 0.0000 0.0000 17.2841
#
#
#
# Elastic Compliance Matrix: (Units=1/GPa)
#
#
# Indices 1 2 3 4 5 6 
#
# 1 0.011804 -0.003550 -0.003681 0.000000 0.000000 0.000000
# 2 -0.003550 0.014970 -0.001819 0.000000 0.000000 0.000000
# 3 -0.003681 -0.001819 0.016793 0.000000 0.000000 0.000000
# 4 0.000000 0.000000 0.000000 -0.049969 0.000000 0.000000
# 5 0.000000 0.000000 0.000000 0.000000 0.046142 0.000000
# 6 0.000000 0.000000 0.000000 0.000000 0.000000 0.057857
#
#
# Mechanical properties :
#
#
# Convention : Reuss Voigt Hill
#
# Bulk Modulus (GPa) = 39.26985 41.52638 40.39812
# Shear Modulus (GPa) = 40.26238 15.53223 27.89731
#
# Velocity S-wave (km/s) = 4.55929 2.83181 3.79515
# Velocity P-wave (km/s) = 6.92755 5.66851 6.32941
#
# Compressibility (1/GPa) = 0.02546483
#
# Stress axis : x y z
#
# Youngs Moduli (GPa) = 84.72043 66.80139 59.54910
#
# Poissons Ratio (x) = 0.23714 0.21922
# Poissons Ratio (y) = 0.30076 0.10834
# Poissons Ratio (z) = 0.31188 0.12154
#
# Static dielectric constant tensor:
#      x y z
#    x 3.516270 0.000000 0.000000 
#    y 0.000000 3.413330 0.000000 
#    z 0.000000 0.000000 3.627980 
# 
# 
# High freq. dielectric constant tensor:
#      x y z
#    x 1.745360 0.000000 0.000000 
#    y 0.000000 1.734270 0.000000 
#    z 0.000000 0.000000 1.759840 
# 
# From -- ./inp_files/22129.got.cif
#   From: 2010.03.12/outbox.cif.g09.slc.cpg/sg67_12_cif.got.tgz:22129.got - 2010.04.10 22:41:39.
