data_PCOD8280788
_publ_section_title
;
Structure prediction by ZEFSAII (Michael W. Deem and Ramdas Pophale) SiO2 
 PCOD8280788
Probable space group: C M M A
;
_chemical_formula_sum "Si O2"
_cell_formula_units_Z 112
_cell_length_a 23.620350
_cell_length_b 18.032433
_cell_length_c 13.350846
_cell_angle_alpha 90.000000
_cell_angle_beta 90.000000
_cell_angle_gamma 90.000000
_cell_volume 5686.557596
_symmetry_space_group_name_H-M "C M M A"
_symmetry_group_IT_number 67
_symmetry_cell_setting 'orthorhombic'
loop_
_space_group_symop_operation_xyz
x,y,z
-x,1/2-y,z
x,-y,-z
-x,1/2+y,-z
-x,-y,-z
x,1/2+y,-z
-x,y,z
x,1/2-y,z
1/2+x,1/2+y,z
1/2-x,-y,z
1/2+x,1/2-y,-z
1/2-x,y,-z
1/2-x,1/2-y,-z
1/2+x,y,-z
1/2-x,1/2+y,z
1/2+x,-y,z
loop_
_atom_site_type_symbol
_atom_site_label
_atom_site_fract_x
_atom_site_fract_y
_atom_site_fract_z
Si Si1 0.655540 0.920578 0.043821
Si Si2 0.564899 0.086000 0.483238
Si Si3 0.670911 0.835958 0.848855
Si Si4 0.435766 0.165164 0.843489
Si Si5 0.864766 0.335489 0.352036
Si Si6 0.936197 0.665206 0.278178
Si Si7 0.269709 0.580371 0.241247
O O1 0.596754 0.884941 0.077444
O O2 0.699385 0.926463 0.134470
O O3 0.682648 0.871049 0.956900
O O4 0.640945 0.000000 0.000000
O O5 0.500000 0.103098 0.514427
O O6 0.607914 0.135640 0.546179
O O7 0.574882 0.107917 0.368040
O O8 0.579307 0.000000 0.500000
O O9 0.683140 0.750000 0.858787
O O10 0.607176 0.853335 0.811240
O O11 0.714662 0.868485 0.768536
O O12 0.500000 0.138077 0.841548
O O13 0.429963 0.250000 0.878891
O O14 0.411651 0.154650 0.732970
O O15 0.846647 0.250000 0.364518
O O16 0.809547 0.383406 0.325168
O O17 0.927400 0.750000 0.316067
O O18 0.000000 0.654783 0.236323
O O19 0.250000 0.500000 0.279216
#
# Coordination Sequence:
#
# PCOD8280788 Si02
#       7
#    16  16  16  16  16  16  16
#     4  11  22  36  56  84 115 155 202 243 297 357
#     4  10  21  36  61  94 124 157 199 244 297 360
#     4  11  23  38  61  86 114 157 203 247 295 355
#     4   9  19  35  55  83 119 153 191 243 298 352
#     4  10  21  38  62  89 117 156 203 247 300 361
#     4   9  20  39  61  87 119 155 196 243 297 358
#     4  11  23  39  61  85 118 156 195 254 305 356
#
# _framework density 19.695571000000001
#
# number of rings (size 3 to 8) (size 9 to 14) (size 15 to 20)
#    0.000    1.857    1.429    2.143    2.000    4.571 
#    0.000    3.571    0.000    2.571    0.000    0.000 
#    0.000    0.000    0.000    0.000    0.000    0.000 
#
# Total GULP energy -694605.429668 kJ/mol
# GULP energy per Si atom -12403.668387 kJ/mol
# Density = 1.965074 g / cm^3
# Si number density = 19.695571 Si / 1000 Ang^3
#
#
#
# Elastic Constant Matrix: (Units=GPa)
#
#
# Indices 1 2 3 4 5 6 
#
# 1 105.4330 40.4666 15.2190 0.0000 0.0000 0.0000
# 2 40.4666 113.8431 21.5300 0.0000 0.0000 0.0000
# 3 15.2190 21.5300 42.6280 0.0000 0.0000 0.0000
# 4 0.0000 0.0000 0.0000 30.4207 0.0000 0.0000
# 5 0.0000 0.0000 0.0000 0.0000 28.5419 0.0000
# 6 0.0000 0.0000 0.0000 0.0000 0.0000 27.0394
#
#
#
# Elastic Compliance Matrix: (Units=1/GPa)
#
#
# Indices 1 2 3 4 5 6 
#
# 1 0.011165 -0.003554 -0.002191 0.000000 0.000000 0.000000
# 2 -0.003554 0.010843 -0.004208 0.000000 0.000000 0.000000
# 3 -0.002191 -0.004208 0.026366 0.000000 0.000000 0.000000
# 4 0.000000 0.000000 0.000000 0.032872 0.000000 0.000000
# 5 0.000000 0.000000 0.000000 0.000000 0.035036 0.000000
# 6 0.000000 0.000000 0.000000 0.000000 0.000000 0.036983
#
#
# Mechanical properties :
#
#
# Convention : Reuss Voigt Hill
#
# Bulk Modulus (GPa) = 35.12643 46.25949 40.69296
# Shear Modulus (GPa) = 27.37304 29.51297 28.44300
#
# Velocity S-wave (km/s) = 3.73206 3.87519 3.80430
# Velocity P-wave (km/s) = 6.03692 6.60008 6.32477
#
# Compressibility (1/GPa) = 0.02846859
#
# Stress axis : x y z
#
# Youngs Moduli (GPa) = 89.56410 92.22376 37.92755
#
# Poissons Ratio (x) = 0.32780 0.08310
# Poissons Ratio (y) = 0.31835 0.15958
# Poissons Ratio (z) = 0.19623 0.38803
#
# Static dielectric constant tensor:
#      x y z
#    x 3.675270 0.000000 0.000000 
#    y 0.000000 3.650470 0.000000 
#    z 0.000000 0.000000 3.368780 
# 
# 
# High freq. dielectric constant tensor:
#      x y z
#    x 1.773940 0.000000 0.000000 
#    y 0.000000 1.778180 0.000000 
#    z 0.000000 0.000000 1.750570 
# 
# From -- ./inp_files/27486.got.cif
#   From: 2010.03.12/outbox.cif.g09.slc.cpg/sg67_14_cif.got.tgz:27486.got - 2010.04.10 22:41:39.
