data_PCOD8280843
_publ_section_title
;
Structure prediction by ZEFSAII (Michael W. Deem and Ramdas Pophale) SiO2 
 PCOD8280843
Probable space group: C M M A
;
_chemical_formula_sum "Si O2"
_cell_formula_units_Z 112
_cell_length_a 14.429680
_cell_length_b 30.376578
_cell_length_c 11.677356
_cell_angle_alpha 90.000000
_cell_angle_beta 90.000000
_cell_angle_gamma 90.000000
_cell_volume 5118.468895
_symmetry_space_group_name_H-M "C M M A"
_symmetry_group_IT_number 67
_symmetry_cell_setting 'orthorhombic'
loop_
_space_group_symop_operation_xyz
x,y,z
-x,1/2-y,z
x,-y,-z
-x,1/2+y,-z
-x,-y,-z
x,1/2+y,-z
-x,y,z
x,1/2-y,z
1/2+x,1/2+y,z
1/2-x,-y,z
1/2+x,1/2-y,-z
1/2-x,y,-z
1/2-x,1/2-y,-z
1/2+x,y,-z
1/2-x,1/2+y,z
1/2+x,-y,z
loop_
_atom_site_type_symbol
_atom_site_label
_atom_site_fract_x
_atom_site_fract_y
_atom_site_fract_z
Si Si1 0.103726 0.463101 0.076161
Si Si2 0.647213 0.133326 0.987893
Si Si3 0.897982 0.299867 0.202975
Si Si4 0.604584 0.514856 0.330028
Si Si5 0.395375 0.863635 0.750736
Si Si6 0.274759 0.932390 0.621222
Si Si7 0.235850 0.198320 0.629063
O O1 0.152675 0.415598 0.068282
O O2 0.098353 0.489593 0.194651
O O3 0.000000 0.453663 0.030563
O O4 0.155488 0.500000 0.000000
O O5 0.596577 0.167211 0.904220
O O6 0.750000 0.151521 0.000000
O O7 0.599553 0.135962 0.111942
O O8 0.873274 0.250000 0.162134
O O9 0.825348 0.316475 0.297705
O O10 0.000000 0.300406 0.260099
O O11 0.500000 0.521293 0.381174
O O12 0.655924 0.474211 0.393224
O O13 0.671322 0.556862 0.337421
O O14 0.500000 0.871826 0.705453
O O15 0.324163 0.900854 0.710260
O O16 0.356497 0.819257 0.692738
O O17 0.250000 0.909974 0.500000
O O18 0.223592 0.250000 0.624751
O O19 0.250000 0.179848 0.500000
#
# Coordination Sequence:
#
# PCOD8280843 Si02
#       7
#    16  16  16  16  16  16  16
#     4  10  21  37  57  87 124 164 212 267 332 397
#     4  12  23  40  66  96 137 178 225 280 339 406
#     4  10  22  42  69 100 136 177 218 270 341 410
#     4  10  21  38  62  89 119 164 218 275 336 396
#     4  12  25  42  65  97 134 177 223 275 338 400
#     4  11  24  42  61  87 127 168 221 278 335 396
#     4  10  23  45  70  99 134 172 221 275 330 397
#
# _framework density 21.881543000000001
#
# number of rings (size 3 to 8) (size 9 to 14) (size 15 to 20)
#    0.000    1.286    1.429    4.714    0.000    6.000 
#    0.000    1.429    0.000    0.000    0.000    0.000 
#    0.000    0.000    0.000    0.000    0.000    0.000 
#
# Total GULP energy -693884.666384 kJ/mol
# GULP energy per Si atom -12390.797614 kJ/mol
# Density = 2.183174 g / cm^3
# Si number density = 21.881543 Si / 1000 Ang^3
#
#
#
# Elastic Constant Matrix: (Units=GPa)
#
#
# Indices 1 2 3 4 5 6 
#
# 1 153.1683 31.0330 33.6876 0.0000 0.0000 0.0000
# 2 31.0330 93.1536 41.3701 0.0000 0.0000 0.0000
# 3 33.6876 41.3701 120.5466 0.0000 0.0000 0.0000
# 4 0.0000 0.0000 0.0000 12.1027 0.0000 0.0000
# 5 0.0000 0.0000 0.0000 0.0000 21.1456 0.0000
# 6 0.0000 0.0000 0.0000 0.0000 0.0000 26.1815
#
#
#
# Elastic Compliance Matrix: (Units=1/GPa)
#
#
# Indices 1 2 3 4 5 6 
#
# 1 0.007197 -0.001775 -0.001402 0.000000 0.000000 0.000000
# 2 -0.001775 0.013103 -0.004001 0.000000 0.000000 0.000000
# 3 -0.001402 -0.004001 0.010060 0.000000 0.000000 0.000000
# 4 0.000000 0.000000 0.000000 0.082626 0.000000 0.000000
# 5 0.000000 0.000000 0.000000 0.000000 0.047291 0.000000
# 6 0.000000 0.000000 0.000000 0.000000 0.000000 0.038195
#
#
# Mechanical properties :
#
#
# Convention : Reuss Voigt Hill
#
# Bulk Modulus (GPa) = 62.48163 64.33890 63.41026
# Shear Modulus (GPa) = 22.91869 29.27115 26.09492
#
# Velocity S-wave (km/s) = 3.23986 3.66144 3.45708
# Velocity P-wave (km/s) = 6.52780 6.88055 6.70649
#
# Compressibility (1/GPa) = 0.01600470
#
# Stress axis : x y z
#
# Youngs Moduli (GPa) = 138.95192 76.31840 99.39974
#
# Poissons Ratio (x) = 0.13545 0.13937
# Poissons Ratio (y) = 0.24662 0.39768
# Poissons Ratio (z) = 0.19482 0.30533
#
# Static dielectric constant tensor:
#      x y z
#    x 4.243830 0.000000 0.000000 
#    y 0.000000 3.907920 0.000000 
#    z 0.000000 0.000000 4.042350 
# 
# 
# High freq. dielectric constant tensor:
#      x y z
#    x 1.872940 0.000000 0.000000 
#    y 0.000000 1.851900 0.000000 
#    z 0.000000 0.000000 1.862620 
# 
# From -- ./inp_files/18596.got.cif
#   From: 2010.03.12/outbox.cif.g09.slc.cpg/sg67_10_cif.got.tgz:18596.got - 2010.04.10 22:41:39.
