data_PCOD8280418
_publ_section_title
;
Structure prediction by ZEFSAII (Michael W. Deem and Ramdas Pophale) SiO2 
 PCOD8280418
Probable space group: C M M A
;
_chemical_formula_sum "Si O2"
_cell_formula_units_Z 96
_cell_length_a 14.462855
_cell_length_b 25.859438
_cell_length_c 13.780242
_cell_angle_alpha 90.000000
_cell_angle_beta 90.000000
_cell_angle_gamma 90.000000
_cell_volume 5153.828452
_symmetry_space_group_name_H-M "C M M A"
_symmetry_group_IT_number 67
_symmetry_cell_setting 'orthorhombic'
loop_
_space_group_symop_operation_xyz
x,y,z
-x,1/2-y,z
x,-y,-z
-x,1/2+y,-z
-x,-y,-z
x,1/2+y,-z
-x,y,z
x,1/2-y,z
1/2+x,1/2+y,z
1/2-x,-y,z
1/2+x,1/2-y,-z
1/2-x,y,-z
1/2-x,1/2-y,-z
1/2+x,y,-z
1/2-x,1/2+y,z
1/2+x,-y,z
loop_
_atom_site_type_symbol
_atom_site_label
_atom_site_fract_x
_atom_site_fract_y
_atom_site_fract_z
Si Si1 0.307658 0.189140 0.268102
Si Si2 0.500000 0.308354 0.542810
Si Si3 0.000000 0.193572 0.681188
Si Si4 0.106623 0.431166 0.235383
Si Si5 0.316361 0.372534 0.590503
Si Si6 0.105590 0.973588 0.102169
Si Si7 0.746285 0.618536 0.889910
O O1 0.309366 0.250000 0.277153
O O2 0.408118 0.163348 0.287247
O O3 0.238957 0.169243 0.349008
O O4 0.280900 0.171719 0.161173
O O5 0.500000 0.250000 0.593122
O O6 0.500000 0.296955 0.431432
O O7 0.410099 0.342977 0.563923
O O8 0.000000 0.250000 0.732623
O O9 0.158012 0.421890 0.339674
O O10 0.114353 0.489773 0.196822
O O11 0.153557 0.397141 0.151056
O O12 0.000000 0.413921 0.244732
O O13 0.250000 0.390218 0.500000
O O14 0.172156 0.926597 0.127770
O O15 0.000000 0.954518 0.089621
O O16 0.137651 0.000000 0.000000
O O17 0.750000 0.634097 0.000000
#
# Coordination Sequence:
#
# PCOD8280418 Si02
#       7
#    16   8   8  16  16  16  16
#     4  10  22  37  55  83 118 154 194 240 292 345
#     4  11  20  32  58  84 115 154 198 250 288 343
#     4   9  18  34  54  80 111 148 192 244 289 332
#     4  10  21  37  57  86 122 153 188 243 300 346
#     4  11  21  36  59  88 117 157 200 241 291 352
#     4  10  20  36  61  89 117 146 189 247 297 348
#     4  11  22  35  60  87 114 152 197 243 290 355
#
# _framework density 18.626930000000002
#
# number of rings (size 3 to 8) (size 9 to 14) (size 15 to 20)
#    0.000    1.667    4.167    1.000    1.167    1.000 
#    0.000    0.000    0.000    8.000    0.000   16.333 
#    0.000    0.000    0.000    0.000    0.000    0.000 
#
# Total GULP energy -594701.389543 kJ/mol
# GULP energy per Si atom -12389.612282 kJ/mol
# Density = 1.858453 g / cm^3
# Si number density = 18.626930 Si / 1000 Ang^3
#
#
#
# Elastic Constant Matrix: (Units=GPa)
#
#
# Indices 1 2 3 4 5 6 
#
# 1 128.9543 26.1078 49.5289 0.0000 0.0000 0.0000
# 2 26.1078 38.8657 28.3772 0.0000 0.0000 0.0000
# 3 49.5289 28.3772 121.9936 0.0000 0.0000 0.0000
# 4 0.0000 0.0000 0.0000 15.6238 0.0000 0.0000
# 5 0.0000 0.0000 0.0000 0.0000 26.7531 0.0000
# 6 0.0000 0.0000 0.0000 0.0000 0.0000 27.7184
#
#
#
# Elastic Compliance Matrix: (Units=1/GPa)
#
#
# Indices 1 2 3 4 5 6 
#
# 1 0.009780 -0.004421 -0.002942 0.000000 0.000000 0.000000
# 2 -0.004421 0.032992 -0.005879 0.000000 0.000000 0.000000
# 3 -0.002942 -0.005879 0.010759 0.000000 0.000000 0.000000
# 4 0.000000 0.000000 0.000000 0.064005 0.000000 0.000000
# 5 0.000000 0.000000 0.000000 0.000000 0.037379 0.000000
# 6 0.000000 0.000000 0.000000 0.000000 0.000000 0.036077
#
#
# Mechanical properties :
#
#
# Convention : Reuss Voigt Hill
#
# Bulk Modulus (GPa) = 36.97443 55.31571 46.14507
# Shear Modulus (GPa) = 22.07570 26.40570 24.24070
#
# Velocity S-wave (km/s) = 3.44634 3.76920 3.61138
# Velocity P-wave (km/s) = 5.97741 6.97880 6.49742
#
# Compressibility (1/GPa) = 0.02704572
#
# Stress axis : x y z
#
# Youngs Moduli (GPa) = 102.25116 30.31003 92.94338
#
# Poissons Ratio (x) = 0.13401 0.27345
# Poissons Ratio (y) = 0.45210 0.54645
# Poissons Ratio (z) = 0.30083 0.17820
#
# Static dielectric constant tensor:
#      x y z
#    x 4.318860 0.000000 0.000000 
#    y 0.000000 3.236010 0.000000 
#    z 0.000000 0.000000 3.661700 
# 
# 
# High freq. dielectric constant tensor:
#      x y z
#    x 1.749240 0.000000 0.000000 
#    y 0.000000 1.694440 0.000000 
#    z 0.000000 0.000000 1.721300 
# 
# From -- ./inp_files/18484.got.cif
#   From: 2010.03.12/outbox.cif.g09.slc.cpg/sg67_10_cif.got.tgz:18484.got - 2010.04.10 22:41:39.
