data_PCOD8280572
_publ_section_title
;
Structure prediction by ZEFSAII (Michael W. Deem and Ramdas Pophale) SiO2 
 PCOD8280572
Probable space group: C M M A
;
_chemical_formula_sum "Si O2"
_cell_formula_units_Z 96
_cell_length_a 21.444705
_cell_length_b 24.478075
_cell_length_c 9.534369
_cell_angle_alpha 90.000000
_cell_angle_beta 90.000000
_cell_angle_gamma 90.000000
_cell_volume 5004.829575
_symmetry_space_group_name_H-M "C M M A"
_symmetry_group_IT_number 67
_symmetry_cell_setting 'orthorhombic'
loop_
_space_group_symop_operation_xyz
x,y,z
-x,1/2-y,z
x,-y,-z
-x,1/2+y,-z
-x,-y,-z
x,1/2+y,-z
-x,y,z
x,1/2-y,z
1/2+x,1/2+y,z
1/2-x,-y,z
1/2+x,1/2-y,-z
1/2-x,y,-z
1/2-x,1/2-y,-z
1/2+x,y,-z
1/2-x,1/2+y,z
1/2+x,-y,z
loop_
_atom_site_type_symbol
_atom_site_label
_atom_site_fract_x
_atom_site_fract_y
_atom_site_fract_z
Si Si1 0.885409 0.961857 0.225165
Si Si2 0.855695 0.686990 0.246914
Si Si3 0.570651 0.372490 0.023821
Si Si4 0.627171 0.586053 0.247245
Si Si5 0.573942 0.115383 0.457186
Si Si6 0.236769 0.097155 0.834493
O O1 0.906551 0.940090 0.377224
O O2 0.812078 0.951422 0.196628
O O3 0.899991 0.025708 0.218679
O O4 0.924604 0.929863 0.107084
O O5 0.838821 0.750000 0.262842
O O6 0.891357 0.666763 0.386258
O O7 0.791633 0.654185 0.220926
O O8 0.900901 0.676686 0.114714
O O9 0.500000 0.358576 0.989322
O O10 0.608315 0.374839 0.879812
O O11 0.597168 0.611306 0.384857
O O12 0.701933 0.584821 0.256526
O O13 0.500000 0.124575 0.451252
O O14 0.250000 0.099766 0.000000
#
# Coordination Sequence:
#
# PCOD8280572 Si02
#       6
#    16  16  16  16  16  16
#     4  10  21  34  58  83 119 170 197 224 281 353
#     4  10  22  43  67  82 105 156 200 245 307 357
#     4  10  21  35  55  89 117 147 201 247 283 346
#     4  12  21  35  57  87 124 159 188 238 297 338
#     4  10  23  40  57  86 122 156 201 243 283 349
#     4  10  20  39  58  91 122 148 197 248 287 348
#
# _framework density 19.181470999999998
#
# number of rings (size 3 to 8) (size 9 to 14) (size 15 to 20)
#    0.000    2.000    3.333    4.000    0.000    9.000 
#    0.000    5.833    0.000    2.000    0.000    0.000 
#    0.000    0.000    0.000    0.000    0.000    0.000 
#
# Total GULP energy -595224.850513 kJ/mol
# GULP energy per Si atom -12400.517719 kJ/mol
# Density = 1.913781 g / cm^3
# Si number density = 19.181471 Si / 1000 Ang^3
#
#
#
# Elastic Constant Matrix: (Units=GPa)
#
#
# Indices 1 2 3 4 5 6 
#
# 1 70.8458 -2.8213 17.0293 0.0000 0.0000 0.0000
# 2 -2.8213 79.9327 24.7676 0.0000 0.0000 0.0000
# 3 17.0293 24.7676 115.8892 0.0000 0.0000 0.0000
# 4 0.0000 0.0000 0.0000 9.4765 0.0000 0.0000
# 5 0.0000 0.0000 0.0000 0.0000 35.1245 0.0000
# 6 0.0000 0.0000 0.0000 0.0000 0.0000 10.5582
#
#
#
# Elastic Compliance Matrix: (Units=1/GPa)
#
#
# Indices 1 2 3 4 5 6 
#
# 1 0.014753 0.001277 -0.002441 0.000000 0.000000 0.000000
# 2 0.001277 0.013508 -0.003075 0.000000 0.000000 0.000000
# 3 -0.002441 -0.003075 0.009645 0.000000 0.000000 0.000000
# 4 0.000000 0.000000 0.000000 0.105524 0.000000 0.000000
# 5 0.000000 0.000000 0.000000 0.000000 0.028470 0.000000
# 6 0.000000 0.000000 0.000000 0.000000 0.000000 0.094714
#
#
# Mechanical properties :
#
#
# Convention : Reuss Voigt Hill
#
# Bulk Modulus (GPa) = 33.98018 38.29101 36.13560
# Shear Modulus (GPa) = 17.55002 26.21131 21.88067
#
# Velocity S-wave (km/s) = 3.02809 3.70062 3.38112
# Velocity P-wave (km/s) = 5.47534 6.18589 5.84143
#
# Compressibility (1/GPa) = 0.02942892
#
# Stress axis : x y z
#
# Youngs Moduli (GPa) = 67.78420 74.02870 103.68407
#
# Poissons Ratio (x) = -0.09453 0.25307
# Poissons Ratio (y) = -0.08656 0.31879
# Poissons Ratio (z) = 0.16544 0.22761
#
# Static dielectric constant tensor:
#      x y z
#    x 3.647940 0.000000 0.000000 
#    y 0.000000 3.171150 0.000000 
#    z 0.000000 0.000000 3.534780 
# 
# 
# High freq. dielectric constant tensor:
#      x y z
#    x 1.758260 0.000000 0.000000 
#    y 0.000000 1.715430 0.000000 
#    z 0.000000 0.000000 1.749600 
# 
# From -- ./inp_files/11475.got.cif
#   From: 2010.03.12/outbox.cif.g09.slc.cpg/sg67_6_cif.got.tgz:11475.got - 2010.04.10 22:41:39.
