data_PCOD8280008
_publ_section_title
;
Structure prediction by ZEFSAII (Michael W. Deem and Ramdas Pophale) SiO2 
 PCOD8280008
Probable space group: C M M A
;
_chemical_formula_sum "Si O2"
_cell_formula_units_Z 112
_cell_length_a 15.288728
_cell_length_b 30.066099
_cell_length_c 11.307688
_cell_angle_alpha 90.000000
_cell_angle_beta 90.000000
_cell_angle_gamma 90.000000
_cell_volume 5197.832190
_symmetry_space_group_name_H-M "C M M A"
_symmetry_group_IT_number 67
_symmetry_cell_setting 'orthorhombic'
loop_
_space_group_symop_operation_xyz
x,y,z
-x,1/2-y,z
x,-y,-z
-x,1/2+y,-z
-x,-y,-z
x,1/2+y,-z
-x,y,z
x,1/2-y,z
1/2+x,1/2+y,z
1/2-x,-y,z
1/2+x,1/2-y,-z
1/2-x,y,-z
1/2-x,1/2-y,-z
1/2+x,y,-z
1/2-x,1/2+y,z
1/2+x,-y,z
loop_
_atom_site_type_symbol
_atom_site_label
_atom_site_fract_x
_atom_site_fract_y
_atom_site_fract_z
Si Si1 0.396115 0.543235 0.426702
Si Si2 0.745963 0.698446 0.130093
Si Si3 0.402589 0.801153 0.303336
Si Si4 0.399730 0.149635 0.224793
Si Si5 0.849041 0.637828 0.490918
Si Si6 0.896243 0.934175 0.075700
Si Si7 0.395989 0.972078 0.164216
O O1 0.365681 0.500000 0.500000
O O2 0.500000 0.548530 0.433156
O O3 0.350479 0.586023 0.479853
O O4 0.361065 0.541336 0.292402
O O5 0.726352 0.750000 0.116351
O O6 0.666015 0.678638 0.208179
O O7 0.838964 0.691486 0.193782
O O8 0.750000 0.676153 0.000000
O O9 0.500000 0.803809 0.247762
O O10 0.379360 0.750000 0.337246
O O11 0.403670 0.831462 0.420087
O O12 0.500000 0.160326 0.191560
O O13 0.392309 0.141132 0.363107
O O14 0.361076 0.108432 0.147461
O O15 0.750000 0.655288 0.500000
O O16 0.000000 0.933579 0.086385
O O17 0.858465 0.978895 0.135687
O O18 0.867075 0.936116 0.936770
O O19 0.500000 0.975022 0.164835
#
# Coordination Sequence:
#
# PCOD8280008 Si02
#       7
#    16  16  16  16  16  16  16
#     4  10  20  34  55  85 122 167 215 262 313 375
#     4  10  23  43  65  94 129 162 201 252 308 374
#     4  10  22  43  70  95 122 162 211 263 318 378
#     4  11  22  38  61  92 128 167 206 253 313 377
#     4  12  24  40  61  90 128 168 211 267 322 382
#     4   8  15  29  52  83 118 157 204 253 304 360
#     4   8  14  28  51  81 115 156 208 259 302 355
#
# _framework density 21.547445
#
# number of rings (size 3 to 8) (size 9 to 14) (size 15 to 20)
#    0.000    2.143    1.429    3.000    0.000    5.429 
#    0.000    2.857    0.000    0.000    0.000    0.000 
#    0.000    0.000    0.000    2.571    0.000    0.286 
#
# Total GULP energy -694237.487469 kJ/mol
# GULP energy per Si atom -12397.097991 kJ/mol
# Density = 2.149840 g / cm^3
# Si number density = 21.547445 Si / 1000 Ang^3
#
#
#
# Elastic Constant Matrix: (Units=GPa)
#
#
# Indices 1 2 3 4 5 6 
#
# 1 85.8695 20.0088 33.9205 0.0000 0.0000 0.0000
# 2 20.0088 55.0169 36.1113 0.0000 0.0000 0.0000
# 3 33.9205 36.1113 167.5127 0.0000 0.0000 0.0000
# 4 0.0000 0.0000 0.0000 31.3807 0.0000 0.0000
# 5 0.0000 0.0000 0.0000 0.0000 26.0120 0.0000
# 6 0.0000 0.0000 0.0000 0.0000 0.0000 22.1824
#
#
#
# Elastic Compliance Matrix: (Units=1/GPa)
#
#
# Indices 1 2 3 4 5 6 
#
# 1 0.013230 -0.003556 -0.001912 0.000000 0.000000 0.000000
# 2 -0.003556 0.022128 -0.004050 0.000000 0.000000 0.000000
# 3 -0.001912 -0.004050 0.007230 0.000000 0.000000 0.000000
# 4 0.000000 0.000000 0.000000 0.031867 0.000000 0.000000
# 5 0.000000 0.000000 0.000000 0.000000 0.038444 0.000000
# 6 0.000000 0.000000 0.000000 0.000000 0.000000 0.045081
#
#
# Mechanical properties :
#
#
# Convention : Reuss Voigt Hill
#
# Bulk Modulus (GPa) = 42.46222 54.27558 48.36890
# Shear Modulus (GPa) = 27.04659 30.47225 28.75942
#
# Velocity S-wave (km/s) = 3.54674 3.76466 3.65732
# Velocity P-wave (km/s) = 6.04331 6.64382 6.35067
#
# Compressibility (1/GPa) = 0.02355035
#
# Stress axis : x y z
#
# Youngs Moduli (GPa) = 75.58783 45.19176 138.31224
#
# Poissons Ratio (x) = 0.16071 0.26450
# Poissons Ratio (y) = 0.26881 0.56017
# Poissons Ratio (z) = 0.14455 0.18303
#
# Static dielectric constant tensor:
#      x y z
#    x 3.624030 0.000000 0.000000 
#    y 0.000000 3.783500 0.000000 
#    z 0.000000 0.000000 4.262810 
# 
# 
# High freq. dielectric constant tensor:
#      x y z
#    x 1.831300 0.000000 0.000000 
#    y 0.000000 1.833800 0.000000 
#    z 0.000000 0.000000 1.856140 
# 
# From -- ./inp_files/18639.got.cif
#   From: 2010.03.12/outbox.cif.g09.slc.cpg/sg67_10_cif.got.tgz:18639.got - 2010.04.10 22:41:39.
