data_PCOD8280102
_publ_section_title
;
Structure prediction by ZEFSAII (Michael W. Deem and Ramdas Pophale) SiO2 
 PCOD8280102
Probable space group: C M M A
;
_chemical_formula_sum "Si O2"
_cell_formula_units_Z 80
_cell_length_a 24.702614
_cell_length_b 18.997499
_cell_length_c 9.327470
_cell_angle_alpha 90.000000
_cell_angle_beta 90.000000
_cell_angle_gamma 90.000000
_cell_volume 4377.268666
_symmetry_space_group_name_H-M "C M M A"
_symmetry_group_IT_number 67
_symmetry_cell_setting 'orthorhombic'
loop_
_space_group_symop_operation_xyz
x,y,z
-x,1/2-y,z
x,-y,-z
-x,1/2+y,-z
-x,-y,-z
x,1/2+y,-z
-x,y,z
x,1/2-y,z
1/2+x,1/2+y,z
1/2-x,-y,z
1/2+x,1/2-y,-z
1/2-x,y,-z
1/2-x,1/2-y,-z
1/2+x,y,-z
1/2-x,1/2+y,z
1/2+x,-y,z
loop_
_atom_site_type_symbol
_atom_site_label
_atom_site_fract_x
_atom_site_fract_y
_atom_site_fract_z
Si Si1 0.235361 0.826985 0.665278
Si Si2 0.646657 0.330646 0.295445
Si Si3 0.938071 0.393842 0.908860
Si Si4 0.061023 0.950785 0.791830
Si Si5 0.649192 0.926264 0.437266
O O1 0.213535 0.750000 0.718774
O O2 0.250000 0.820265 0.500000
O O3 0.290721 0.847324 0.750817
O O4 0.191506 0.889585 0.673783
O O5 0.642624 0.250000 0.344065
O O6 0.605511 0.342661 0.164395
O O7 0.630957 0.376938 0.432357
O O8 0.930097 0.470429 0.843930
O O9 0.000000 0.367449 0.883673
O O10 0.924993 0.397112 0.078496
O O11 0.095646 0.938685 0.651838
O O12 0.000000 0.938226 0.742673
O O13 0.672718 0.000000 0.500000
#
# Coordination Sequence:
#
# PCOD8280102 Si02
#       5
#    16  16  16  16  16
#     4   8  17  33  50  71 107 144 171 209 266 319
#     4  10  20  35  54  79 109 143 181 219 265 320
#     4   9  18  36  56  74 103 142 179 216 266 322
#     4   9  19  35  54  77 107 137 170 221 276 319
#     4  11  19  31  54  85 106 137 180 224 266 318
#
# _framework density 18.276237999999999
#
# number of rings (size 3 to 8) (size 9 to 14) (size 15 to 20)
#    0.000    2.600    2.000    3.000    0.000    5.200 
#    0.000    3.000    0.000    9.000    0.000    0.000 
#    0.000    0.000    0.000    0.000    0.000    0.000 
#
# Total GULP energy -495666.167760 kJ/mol
# GULP energy per Si atom -12391.654194 kJ/mol
# Density = 1.823464 g / cm^3
# Si number density = 18.276238 Si / 1000 Ang^3
#
#
#
# Elastic Constant Matrix: (Units=GPa)
#
#
# Indices 1 2 3 4 5 6 
#
# 1 101.9618 48.8220 35.5191 0.0000 0.0000 0.0000
# 2 48.8220 88.7155 28.7024 0.0000 0.0000 0.0000
# 3 35.5191 28.7024 41.6872 0.0000 0.0000 0.0000
# 4 0.0000 0.0000 0.0000 21.2551 0.0000 0.0000
# 5 0.0000 0.0000 0.0000 0.0000 17.8024 0.0000
# 6 0.0000 0.0000 0.0000 0.0000 0.0000 22.2518
#
#
#
# Elastic Compliance Matrix: (Units=1/GPa)
#
#
# Indices 1 2 3 4 5 6 
#
# 1 0.015851 -0.005601 -0.009649 0.000000 0.000000 0.000000
# 2 -0.005601 0.016482 -0.006576 0.000000 0.000000 0.000000
# 3 -0.009649 -0.006576 0.036737 0.000000 0.000000 0.000000
# 4 0.000000 0.000000 0.000000 0.047048 0.000000 0.000000
# 5 0.000000 0.000000 0.000000 0.000000 0.056172 0.000000
# 6 0.000000 0.000000 0.000000 0.000000 0.000000 0.044940
#
#
# Mechanical properties :
#
#
# Convention : Reuss Voigt Hill
#
# Bulk Modulus (GPa) = 39.34223 50.93905 45.14064
# Shear Modulus (GPa) = 18.56293 20.21661 19.38977
#
# Velocity S-wave (km/s) = 3.19044 3.32952 3.26072
# Velocity P-wave (km/s) = 5.92833 6.53553 6.23932
#
# Compressibility (1/GPa) = 0.02541798
#
# Stress axis : x y z
#
# Youngs Moduli (GPa) = 63.08770 60.67258 27.22062
#
# Poissons Ratio (x) = 0.33985 0.26265
# Poissons Ratio (y) = 0.35338 0.17899
# Poissons Ratio (z) = 0.60873 0.39895
#
# Static dielectric constant tensor:
#      x y z
#    x 3.733600 0.000000 0.000000 
#    y 0.000000 3.506260 0.000000 
#    z 0.000000 0.000000 3.556070 
# 
# 
# High freq. dielectric constant tensor:
#      x y z
#    x 1.709570 0.000000 0.000000 
#    y 0.000000 1.704510 0.000000 
#    z 0.000000 0.000000 1.679290 
# 
# From -- ./inp_files/9892.got.cif
#   From: 2010.03.12/outbox.cif.g09.slc.cpg/sg67_5_cif.got.tgz:9892.got - 2010.04.10 22:41:39.
