data_PCOD8280722
_publ_section_title
;
Structure prediction by ZEFSAII (Michael W. Deem and Ramdas Pophale) SiO2 
 PCOD8280722
Probable space group: C M M A
;
_chemical_formula_sum "Si O2"
_cell_formula_units_Z 112
_cell_length_a 17.652613
_cell_length_b 22.991672
_cell_length_c 13.906041
_cell_angle_alpha 90.000000
_cell_angle_beta 90.000000
_cell_angle_gamma 90.000000
_cell_volume 5643.948743
_symmetry_space_group_name_H-M "C M M A"
_symmetry_group_IT_number 67
_symmetry_cell_setting 'orthorhombic'
loop_
_space_group_symop_operation_xyz
x,y,z
-x,1/2-y,z
x,-y,-z
-x,1/2+y,-z
-x,-y,-z
x,1/2+y,-z
-x,y,z
x,1/2-y,z
1/2+x,1/2+y,z
1/2-x,-y,z
1/2+x,1/2-y,-z
1/2-x,y,-z
1/2-x,1/2-y,-z
1/2+x,y,-z
1/2-x,1/2+y,z
1/2+x,-y,z
loop_
_atom_site_type_symbol
_atom_site_label
_atom_site_fract_x
_atom_site_fract_y
_atom_site_fract_z
Si Si1 0.415339 0.183573 0.352379
Si Si2 0.663230 0.590469 0.529120
Si Si3 0.411803 0.593803 0.328673
Si Si4 0.335623 0.018579 0.284897
Si Si5 0.326750 0.681907 0.203693
Si Si6 0.587867 0.816859 0.007217
Si Si7 0.340434 0.135068 0.175647
O O1 0.500000 0.157844 0.364856
O O2 0.413762 0.250000 0.383317
O O3 0.356514 0.151356 0.421045
O O4 0.390736 0.177441 0.241583
O O5 0.750000 0.592339 0.500000
O O6 0.609534 0.580449 0.438490
O O7 0.650179 0.539203 0.605689
O O8 0.500000 0.606822 0.318514
O O9 0.389345 0.537048 0.265694
O O10 0.365938 0.650592 0.294148
O O11 0.354861 0.068731 0.208408
O O12 0.250000 0.000000 0.270146
O O13 0.316628 0.750000 0.227621
O O14 0.380127 0.671582 0.112612
O O15 0.246786 0.652184 0.184104
O O16 0.500000 0.833567 0.007393
O O17 0.601059 0.750000 0.977165
O O18 0.632555 0.858071 0.933622
#
# Coordination Sequence:
#
# PCOD8280722 Si02
#       7
#    16  16  16  16  16  16  16
#     4  10  21  36  54  85 127 158 193 254 315 364
#     4  11  22  37  63  86 116 162 206 253 302 369
#     4  12  25  40  62  91 123 163 209 256 306 367
#     4  11  22  42  63  87 120 160 200 254 313 359
#     4  11  23  41  64  92 126 166 207 253 307 371
#     4  10  21  38  62  94 129 161 200 252 306 364
#     4  11  21  37  67  90 118 157 209 252 305 371
#
# _framework density 19.844262000000001
#
# number of rings (size 3 to 8) (size 9 to 14) (size 15 to 20)
#    0.000    1.143    2.857    4.286    0.000    8.000 
#    0.000    0.714    0.000    1.714    0.000    0.000 
#    0.000    0.000    0.000    0.000    0.000    0.000 
#
# Total GULP energy -694645.078516 kJ/mol
# GULP energy per Si atom -12404.376402 kJ/mol
# Density = 1.979910 g / cm^3
# Si number density = 19.844262 Si / 1000 Ang^3
#
#
#
# Elastic Constant Matrix: (Units=GPa)
#
#
# Indices 1 2 3 4 5 6 
#
# 1 84.7811 18.1954 6.4579 0.0000 0.0000 0.0000
# 2 18.1954 67.0482 17.0130 0.0000 0.0000 0.0000
# 3 6.4579 17.0130 56.7041 0.0000 0.0000 0.0000
# 4 0.0000 0.0000 0.0000 179.2505 0.0000 0.0000
# 5 0.0000 0.0000 0.0000 0.0000 -273.8852 0.0000
# 6 0.0000 0.0000 0.0000 0.0000 0.0000 28.7262
#
#
#
# Elastic Compliance Matrix: (Units=1/GPa)
#
#
# Indices 1 2 3 4 5 6 
#
# 1 0.012535 -0.003290 -0.000440 0.000000 0.000000 0.000000
# 2 -0.003290 0.017007 -0.004728 0.000000 0.000000 0.000000
# 3 -0.000440 -0.004728 0.019104 0.000000 0.000000 0.000000
# 4 0.000000 0.000000 0.000000 0.005579 0.000000 0.000000
# 5 0.000000 0.000000 0.000000 0.000000 -0.003651 0.000000
# 6 0.000000 0.000000 0.000000 0.000000 0.000000 0.034811
#
#
# Mechanical properties :
#
#
# Convention : Reuss Voigt Hill
#
# Bulk Modulus (GPa) = 31.51666 32.42956 31.97311
# Shear Modulus (GPa) = 44.29556 -2.05724 21.11916
#
# Velocity S-wave (km/s) = 4.72970 -1.01929 3.26582
# Velocity P-wave (km/s) = 6.76337 3.87198 5.51069
#
# Compressibility (1/GPa) = 0.03172925
#
# Stress axis : x y z
#
# Youngs Moduli (GPa) = 79.77860 58.79887 52.34470
#
# Poissons Ratio (x) = 0.19344 0.02306
# Poissons Ratio (y) = 0.26246 0.24749
# Poissons Ratio (z) = 0.03514 0.27800
#
# Static dielectric constant tensor:
#      x y z
#    x 3.728820 0.000000 0.000000 
#    y 0.000000 3.705800 0.000000 
#    z 0.000000 0.000000 3.622230 
# 
# 
# High freq. dielectric constant tensor:
#      x y z
#    x 1.786780 0.000000 0.000000 
#    y 0.000000 1.776360 0.000000 
#    z 0.000000 0.000000 1.766070 
# 
# From -- ./inp_files/27516.got.cif
#   From: 2010.03.12/outbox.cif.g09.slc.cpg/sg67_14_cif.got.tgz:27516.got - 2010.04.10 22:41:39.
