data_PCOD8280159
_publ_section_title
;
Structure prediction by ZEFSAII (Michael W. Deem and Ramdas Pophale) SiO2 
 PCOD8280159
Probable space group: C M M A
;
_chemical_formula_sum "Si O2"
_cell_formula_units_Z 112
_cell_length_a 27.006227
_cell_length_b 17.639748
_cell_length_c 12.195294
_cell_angle_alpha 90.000000
_cell_angle_beta 90.000000
_cell_angle_gamma 90.000000
_cell_volume 5809.631214
_symmetry_space_group_name_H-M "C M M A"
_symmetry_group_IT_number 67
_symmetry_cell_setting 'orthorhombic'
loop_
_space_group_symop_operation_xyz
x,y,z
-x,1/2-y,z
x,-y,-z
-x,1/2+y,-z
-x,-y,-z
x,1/2+y,-z
-x,y,z
x,1/2-y,z
1/2+x,1/2+y,z
1/2-x,-y,z
1/2+x,1/2-y,-z
1/2-x,y,-z
1/2-x,1/2-y,-z
1/2+x,y,-z
1/2-x,1/2+y,z
1/2+x,-y,z
loop_
_atom_site_type_symbol
_atom_site_label
_atom_site_fract_x
_atom_site_fract_y
_atom_site_fract_z
Si Si1 0.055973 0.839669 0.677227
Si Si2 0.307633 0.164575 0.979206
Si Si3 0.558115 0.163885 0.220160
Si Si4 0.849000 0.088907 0.233034
Si Si5 0.374005 0.051941 0.101590
Si Si6 0.803890 0.913055 0.529248
Si Si7 0.101177 0.161449 0.548988
O O1 0.061664 0.750000 0.690249
O O2 0.094861 0.879753 0.757851
O O3 0.067848 0.866053 0.553121
O O4 0.000000 0.865357 0.706725
O O5 0.328034 0.250000 0.994485
O O6 0.330372 0.108666 0.068885
O O7 0.250000 0.162028 0.000000
O O8 0.319977 0.136934 0.857230
O O9 0.500000 0.160474 0.208252
O O10 0.576944 0.250000 0.197436
O O11 0.579905 0.103979 0.134889
O O12 0.573327 0.136780 0.341296
O O13 0.817593 0.099244 0.343600
O O14 0.853346 0.000564 0.199777
O O15 0.391312 0.000000 0.000000
O O16 0.750000 0.877728 0.500000
O O17 0.844390 0.874218 0.452065
O O18 0.803661 0.000000 0.500000
O O19 0.108808 0.250000 0.542258
#
# Coordination Sequence:
#
# PCOD8280159 Si02
#       7
#    16  16  16  16  16  16  16
#     4   9  17  32  55  81 110 144 180 220 266 315
#     4  10  22  40  61  82 104 136 181 231 277 319
#     4  10  20  35  56  80 108 143 179 219 270 324
#     4  10  21  36  56  82 112 143 180 223 265 318
#     4  10  22  38  57  79 105 139 181 228 273 317
#     4  10  21  35  52  78 114 149 177 210 259 319
#     4   9  18  33  53  79 109 140 180 222 261 315
#
# _framework density 19.278331999999999
#
# number of rings (size 3 to 8) (size 9 to 14) (size 15 to 20)
#    0.000    2.286    0.000    2.143    0.000    9.429 
#    0.000    3.571    0.000   12.429    0.000    0.000 
#    0.000    0.000    0.000    0.000    0.000    0.000 
#
# Total GULP energy -694402.924804 kJ/mol
# GULP energy per Si atom -12400.052229 kJ/mol
# Density = 1.923445 g / cm^3
# Si number density = 19.278332 Si / 1000 Ang^3
#
#
#
# Elastic Constant Matrix: (Units=GPa)
#
#
# Indices 1 2 3 4 5 6 
#
# 1 117.0886 47.9461 50.4934 0.0000 0.0000 0.0000
# 2 47.9461 82.7169 48.1173 0.0000 0.0000 0.0000
# 3 50.4934 48.1173 73.9641 0.0000 0.0000 0.0000
# 4 0.0000 0.0000 0.0000 24.0563 0.0000 0.0000
# 5 0.0000 0.0000 0.0000 0.0000 32.1900 0.0000
# 6 0.0000 0.0000 0.0000 0.0000 0.0000 45.7902
#
#
#
# Elastic Compliance Matrix: (Units=1/GPa)
#
#
# Indices 1 2 3 4 5 6 
#
# 1 0.012790 -0.003756 -0.006288 0.000000 0.000000 0.000000
# 2 -0.003756 0.020553 -0.010807 0.000000 0.000000 0.000000
# 3 -0.006288 -0.010807 0.024843 0.000000 0.000000 0.000000
# 4 0.000000 0.000000 0.000000 0.041569 0.000000 0.000000
# 5 0.000000 0.000000 0.000000 0.000000 0.031066 0.000000
# 6 0.000000 0.000000 0.000000 0.000000 0.000000 0.021839
#
#
# Mechanical properties :
#
#
# Convention : Reuss Voigt Hill
#
# Bulk Modulus (GPa) = 60.66177 62.98701 61.82439
# Shear Modulus (GPa) = 25.01805 28.88816 26.95310
#
# Velocity S-wave (km/s) = 3.60631 3.87522 3.74318
# Velocity P-wave (km/s) = 6.99108 7.26405 7.12887
#
# Compressibility (1/GPa) = 0.01648485
#
# Stress axis : x y z
#
# Youngs Moduli (GPa) = 78.18464 48.65534 40.25261
#
# Poissons Ratio (x) = 0.18274 0.25312
# Poissons Ratio (y) = 0.29365 0.43499
# Poissons Ratio (z) = 0.49164 0.52580
#
# Static dielectric constant tensor:
#      x y z
#    x 3.589660 0.000000 0.000000 
#    y 0.000000 3.664050 0.000000 
#    z 0.000000 0.000000 3.715220 
# 
# 
# High freq. dielectric constant tensor:
#      x y z
#    x 1.752000 0.000000 0.000000 
#    y 0.000000 1.754750 0.000000 
#    z 0.000000 0.000000 1.748750 
# 
# From -- ./inp_files/23826.got.cif
#   From: 2010.03.12/outbox.cif.g09.slc.cpg/sg67_12_cif.got.tgz:23826.got - 2010.04.10 22:41:39.
