data_PCOD8280929
_publ_section_title
;
Structure prediction by ZEFSAII (Michael W. Deem and Ramdas Pophale) SiO2 
 PCOD8280929
Probable space group: C M M A
;
_chemical_formula_sum "Si O2"
_cell_formula_units_Z 80
_cell_length_a 17.864906
_cell_length_b 9.856541
_cell_length_c 23.686389
_cell_angle_alpha 90.000000
_cell_angle_beta 90.000000
_cell_angle_gamma 90.000000
_cell_volume 4170.845720
_symmetry_space_group_name_H-M "C M M A"
_symmetry_group_IT_number 67
_symmetry_cell_setting 'orthorhombic'
loop_
_space_group_symop_operation_xyz
x,y,z
-x,1/2-y,z
x,-y,-z
-x,1/2+y,-z
-x,-y,-z
x,1/2+y,-z
-x,y,z
x,1/2-y,z
1/2+x,1/2+y,z
1/2-x,-y,z
1/2+x,1/2-y,-z
1/2-x,y,-z
1/2-x,1/2-y,-z
1/2+x,y,-z
1/2-x,1/2+y,z
1/2+x,-y,z
loop_
_atom_site_type_symbol
_atom_site_label
_atom_site_fract_x
_atom_site_fract_y
_atom_site_fract_z
Si Si1 0.677917 0.091161 0.661648
Si Si2 0.911725 0.250000 0.920709
Si Si3 0.335197 0.019051 0.877066
Si Si4 0.329147 0.250000 0.968042
Si Si5 0.917700 0.905729 0.765223
Si Si6 0.413435 0.095776 0.549205
O O1 0.699323 0.250000 0.668624
O O2 0.633764 0.031741 0.716055
O O3 0.627654 0.065614 0.607248
O O4 0.750000 0.000000 0.654321
O O5 0.873417 0.378318 0.892131
O O6 0.000000 0.250000 0.909398
O O7 0.896815 0.250000 0.987541
O O8 0.337431 0.115624 0.931204
O O9 0.379709 0.084151 0.825885
O O10 0.250000 0.000000 0.857487
O O11 0.250000 0.250000 0.000000
O O12 0.928717 0.750000 0.749649
O O13 0.000000 0.976114 0.766226
O O14 0.500000 0.063078 0.560073
O O15 0.401130 0.250000 0.529399
O O16 0.380588 0.000000 0.500000
#
# Coordination Sequence:
#
# PCOD8280929 Si02
#       6
#    16   8  16   8  16  16
#     4  10  21  38  59  85 119 156 200 248 302 357
#     4  12  28  42  62  96 132 158 197 257 313 365
#     4  12  23  42  68  90 124 162 204 249 308 373
#     4  12  24  44  66  94 122 164 209 251 304 372
#     4  10  21  39  63  89 115 151 206 255 299 358
#     4   9  18  34  58  86 118 158 201 247 299 353
#
# _framework density 19.180761
#
# number of rings (size 3 to 8) (size 9 to 14) (size 15 to 20)
#    0.000    1.400    3.000    2.400    0.000    6.000 
#    1.800    2.000    0.000    1.200    0.000    0.000 
#    0.000    0.000    0.000    0.000    0.000    0.000 
#
# Total GULP energy -496083.320309 kJ/mol
# GULP energy per Si atom -12402.083008 kJ/mol
# Density = 1.913710 g / cm^3
# Si number density = 19.180761 Si / 1000 Ang^3
#
#
#
# Elastic Constant Matrix: (Units=GPa)
#
#
# Indices 1 2 3 4 5 6 
#
# 1 120.5424 52.7665 48.1064 0.0000 0.0000 0.0000
# 2 52.7665 85.0537 43.5784 0.0000 0.0000 0.0000
# 3 48.1064 43.5784 125.9904 0.0000 0.0000 0.0000
# 4 0.0000 0.0000 0.0000 20.1346 0.0000 0.0000
# 5 0.0000 0.0000 0.0000 0.0000 31.1213 0.0000
# 6 0.0000 0.0000 0.0000 0.0000 0.0000 -21.3696
#
#
#
# Elastic Compliance Matrix: (Units=1/GPa)
#
#
# Indices 1 2 3 4 5 6 
#
# 1 0.011973 -0.006181 -0.002434 0.000000 0.000000 0.000000
# 2 -0.006181 0.017481 -0.003686 0.000000 0.000000 0.000000
# 3 -0.002434 -0.003686 0.010141 0.000000 0.000000 0.000000
# 4 0.000000 0.000000 0.000000 0.049666 0.000000 0.000000
# 5 0.000000 0.000000 0.000000 0.000000 0.032132 0.000000
# 6 0.000000 0.000000 0.000000 0.000000 0.000000 -0.046796
#
#
# Mechanical properties :
#
#
# Convention : Reuss Voigt Hill
#
# Bulk Modulus (GPa) = 66.69730 68.94324 67.82027
# Shear Modulus (GPa) = 47.98637 18.45294 33.21966
#
# Velocity S-wave (km/s) = 5.00722 3.10507 4.16616
# Velocity P-wave (km/s) = 8.26306 6.99122 7.65361
#
# Compressibility (1/GPa) = 0.01499311
#
# Stress axis : x y z
#
# Youngs Moduli (GPa) = 83.52367 57.20651 98.60608
#
# Poissons Ratio (x) = 0.35358 0.23997
# Poissons Ratio (y) = 0.51625 0.36349
# Poissons Ratio (z) = 0.20326 0.21088
#
# Static dielectric constant tensor:
#      x y z
#    x 3.682110 0.000000 0.000000 
#    y 0.000000 3.618280 0.000000 
#    z 0.000000 0.000000 3.619100 
# 
# 
# High freq. dielectric constant tensor:
#      x y z
#    x 1.754880 0.000000 0.000000 
#    y 0.000000 1.738340 0.000000 
#    z 0.000000 0.000000 1.758080 
# 
# From -- ./inp_files/44453.got.cif
#   From: 2010.03.12/outbox.cif.g09.slc.cpg/sg67_23_cif.got.tgz:44453.got - 2010.04.10 22:41:39.
