data_PCOD8280129
_publ_section_title
;
Structure prediction by ZEFSAII (Michael W. Deem and Ramdas Pophale) SiO2 
 PCOD8280129
Probable space group: C M M A
;
_chemical_formula_sum "Si O2"
_cell_formula_units_Z 68
_cell_length_a 18.533980
_cell_length_b 31.136592
_cell_length_c 6.831250
_cell_angle_alpha 90.000000
_cell_angle_beta 90.000000
_cell_angle_gamma 90.000000
_cell_volume 3942.211725
_symmetry_space_group_name_H-M "C M M A"
_symmetry_group_IT_number 67
_symmetry_cell_setting 'orthorhombic'
loop_
_space_group_symop_operation_xyz
x,y,z
-x,1/2-y,z
x,-y,-z
-x,1/2+y,-z
-x,-y,-z
x,1/2+y,-z
-x,y,z
x,1/2-y,z
1/2+x,1/2+y,z
1/2-x,-y,z
1/2+x,1/2-y,-z
1/2-x,y,-z
1/2-x,1/2-y,-z
1/2+x,y,-z
1/2-x,1/2+y,z
1/2+x,-y,z
loop_
_atom_site_type_symbol
_atom_site_label
_atom_site_fract_x
_atom_site_fract_y
_atom_site_fract_z
Si Si1 0.818174 0.081991 0.388317
Si Si2 0.250000 0.500000 0.500000
Si Si3 0.417174 0.200947 0.663099
Si Si4 0.083458 0.869104 0.346455
Si Si5 0.669693 0.144813 0.953388
O O1 0.750000 0.104402 0.500000
O O2 0.888729 0.091271 0.520287
O O3 0.802029 0.030741 0.368709
O O4 0.827789 0.101245 0.173457
O O5 0.500000 0.196351 0.729570
O O6 0.395888 0.250000 0.621720
O O7 0.403201 0.175181 0.463158
O O8 0.368932 0.183244 0.839113
O O9 0.126399 0.867087 0.146114
O O10 0.000000 0.877059 0.300013
O O11 0.750000 0.160808 0.000000
#
# Coordination Sequence:
#
# PCOD8280129 Si02
#       5
#    16   4  16  16  16
#     4   9  18  35  57  79 103 138 176 213 257 319
#     4   8  16  36  60  80 102 142 174 208 266 312
#     4   9  20  36  52  74 106 143 182 221 263 312
#     4  10  20  35  55  79 108 142 177 220 265 308
#     4  11  19  32  55  79 106 139 179 221 261 314
#
# _framework density 17.249200999999999
#
# number of rings (size 3 to 8) (size 9 to 14) (size 15 to 20)
#    0.706    1.647    2.353    0.706    0.000    2.353 
#    0.000    9.412    0.000    1.412    0.000    0.000 
#    0.000    0.000    0.000    0.000    0.000    0.000 
#
# Total GULP energy -421475.985643 kJ/mol
# GULP energy per Si atom -12396.352519 kJ/mol
# Density = 1.720994 g / cm^3
# Si number density = 17.249201 Si / 1000 Ang^3
#
#
#
# Elastic Constant Matrix: (Units=GPa)
#
#
# Indices 1 2 3 4 5 6 
#
# 1 117.4604 49.3194 65.4814 0.0000 0.0000 0.0000
# 2 49.3194 133.5819 51.5874 0.0000 0.0000 0.0000
# 3 65.4814 51.5874 119.1721 0.0000 0.0000 0.0000
# 4 0.0000 0.0000 0.0000 12.1459 0.0000 0.0000
# 5 0.0000 0.0000 0.0000 0.0000 38.1458 0.0000
# 6 0.0000 0.0000 0.0000 0.0000 0.0000 27.5946
#
#
#
# Elastic Compliance Matrix: (Units=1/GPa)
#
#
# Indices 1 2 3 4 5 6 
#
# 1 0.012899 -0.002432 -0.006035 0.000000 0.000000 0.000000
# 2 -0.002432 0.009447 -0.002753 0.000000 0.000000 0.000000
# 3 -0.006035 -0.002753 0.012899 0.000000 0.000000 0.000000
# 4 0.000000 0.000000 0.000000 0.082332 0.000000 0.000000
# 5 0.000000 0.000000 0.000000 0.000000 0.026215 0.000000
# 6 0.000000 0.000000 0.000000 0.000000 0.000000 0.036239
#
#
# Mechanical properties :
#
#
# Convention : Reuss Voigt Hill
#
# Bulk Modulus (GPa) = 78.09342 78.11010 78.10176
# Shear Modulus (GPa) = 24.18500 29.16566 26.67533
#
# Velocity S-wave (km/s) = 3.74852 4.11645 3.93678
# Velocity P-wave (km/s) = 8.00669 8.24470 8.12657
#
# Compressibility (1/GPa) = 0.01280518
#
# Stress axis : x y z
#
# Youngs Moduli (GPa) = 77.52624 105.85189 77.52504
#
# Poissons Ratio (x) = 0.25741 0.46785
# Poissons Ratio (y) = 0.18853 0.21345
# Poissons Ratio (z) = 0.46786 0.29144
#
# Static dielectric constant tensor:
#      x y z
#    x 3.390310 0.000000 0.000000 
#    y 0.000000 3.044220 0.000000 
#    z 0.000000 0.000000 3.147890 
# 
# 
# High freq. dielectric constant tensor:
#      x y z
#    x 1.675000 0.000000 0.000000 
#    y 0.000000 1.646040 0.000000 
#    z 0.000000 0.000000 1.666410 
# 
# From -- ./inp_files/3021.got.cif
#   From: 2010.03.12/outbox.cif.g09.slc.cpg/sg67_2_cif.got.tgz:3021.got - 2010.04.10 22:41:39.
