data_PCOD8280460
_publ_section_title
;
Structure prediction by ZEFSAII (Michael W. Deem and Ramdas Pophale) SiO2 
 PCOD8280460
Probable space group: C M M A
;
_chemical_formula_sum "Si O2"
_cell_formula_units_Z 88
_cell_length_a 25.842186
_cell_length_b 14.582748
_cell_length_c 11.629556
_cell_angle_alpha 90.000000
_cell_angle_beta 90.000000
_cell_angle_gamma 90.000000
_cell_volume 4382.599181
_symmetry_space_group_name_H-M "C M M A"
_symmetry_group_IT_number 67
_symmetry_cell_setting 'orthorhombic'
loop_
_space_group_symop_operation_xyz
x,y,z
-x,1/2-y,z
x,-y,-z
-x,1/2+y,-z
-x,-y,-z
x,1/2+y,-z
-x,y,z
x,1/2-y,z
1/2+x,1/2+y,z
1/2-x,-y,z
1/2+x,1/2-y,-z
1/2-x,y,-z
1/2-x,1/2-y,-z
1/2+x,y,-z
1/2-x,1/2+y,z
1/2+x,-y,z
loop_
_atom_site_type_symbol
_atom_site_label
_atom_site_fract_x
_atom_site_fract_y
_atom_site_fract_z
Si Si1 0.617402 0.250000 0.566024
Si Si2 0.898292 0.939631 0.893179
Si Si3 0.559559 0.750000 0.194830
Si Si4 0.308270 0.395701 0.473403
Si Si5 0.939304 0.750000 0.334195
Si Si6 0.807855 0.854389 0.008640
Si Si7 0.134374 0.397266 0.758497
O O1 0.593613 0.250000 0.691535
O O2 0.653106 0.160867 0.553456
O O3 0.572466 0.250000 0.470393
O O4 0.929912 0.844560 0.875878
O O5 0.891715 0.002388 0.779092
O O6 0.839111 0.915247 0.919254
O O7 0.922295 0.000000 0.000000
O O8 0.500000 0.750000 0.229913
O O9 0.316709 0.500000 0.500000
O O10 0.250000 0.362521 0.500000
O O11 0.322552 0.385556 0.339949
O O12 0.915627 0.837992 0.272001
O O13 0.000000 0.750000 0.314151
O O14 0.808687 0.750000 0.966061
O O15 0.835037 0.861028 0.131679
O O16 0.750000 0.893445 0.000000
#
# Coordination Sequence:
#
# PCOD8280460 Si02
#       7
#     8  16   8  16   8  16  16
#     4  10  22  40  60  88 120 156 200 247 289 353
#     4  10  23  41  62  88 119 154 199 247 296 351
#     4  12  25  42  62  86 119 157 197 249 308 353
#     4  10  21  37  58  90 126 159 194 237 293 355
#     4  10  21  40  64  86 113 155 206 256 298 342
#     4  10  20  37  59  87 118 154 194 233 286 352
#     4  10  21  38  61  87 120 155 200 246 291 354
#
# _framework density 20.079409999999999
#
# number of rings (size 3 to 8) (size 9 to 14) (size 15 to 20)
#    0.000    1.818    1.818    1.636    0.000    8.727 
#    0.000    6.364    0.000    6.000    0.000    0.000 
#    0.000    0.000    0.000    0.000    0.000    0.000 
#
# Total GULP energy -545363.795827 kJ/mol
# GULP energy per Si atom -12394.631723 kJ/mol
# Density = 2.003371 g / cm^3
# Si number density = 20.079410 Si / 1000 Ang^3
#
#
#
# Elastic Constant Matrix: (Units=GPa)
#
#
# Indices 1 2 3 4 5 6 
#
# 1 143.5833 51.9336 57.5940 0.0000 0.0000 0.0000
# 2 51.9336 124.0556 45.2985 0.0000 0.0000 0.0000
# 3 57.5940 45.2985 94.6320 0.0000 0.0000 0.0000
# 4 0.0000 0.0000 0.0000 30.0156 0.0000 0.0000
# 5 0.0000 0.0000 0.0000 0.0000 18.5503 0.0000
# 6 0.0000 0.0000 0.0000 0.0000 0.0000 13.2468
#
#
#
# Elastic Compliance Matrix: (Units=1/GPa)
#
#
# Indices 1 2 3 4 5 6 
#
# 1 0.009734 -0.002317 -0.004815 0.000000 0.000000 0.000000
# 2 -0.002317 0.010320 -0.003530 0.000000 0.000000 0.000000
# 3 -0.004815 -0.003530 0.015188 0.000000 0.000000 0.000000
# 4 0.000000 0.000000 0.000000 0.033316 0.000000 0.000000
# 5 0.000000 0.000000 0.000000 0.000000 0.053908 0.000000
# 6 0.000000 0.000000 0.000000 0.000000 0.000000 0.075490
#
#
# Mechanical properties :
#
#
# Convention : Reuss Voigt Hill
#
# Bulk Modulus (GPa) = 71.85151 74.65812 73.25482
# Shear Modulus (GPa) = 22.32965 26.19220 24.26092
#
# Velocity S-wave (km/s) = 3.33838 3.61561 3.47976
# Velocity P-wave (km/s) = 7.12188 7.39543 7.25994
#
# Compressibility (1/GPa) = 0.01391759
#
# Stress axis : x y z
#
# Youngs Moduli (GPa) = 102.73222 96.90248 65.84333
#
# Poissons Ratio (x) = 0.22449 0.31705
# Poissons Ratio (y) = 0.23800 0.23242
# Poissons Ratio (z) = 0.49469 0.34205
#
# Static dielectric constant tensor:
#      x y z
#    x 3.530710 0.000000 0.000000 
#    y 0.000000 3.943720 0.000000 
#    z 0.000000 0.000000 3.837020 
# 
# 
# High freq. dielectric constant tensor:
#      x y z
#    x 1.773680 0.000000 0.000000 
#    y 0.000000 1.807780 0.000000 
#    z 0.000000 0.000000 1.778530 
# 
# From -- ./inp_files/21802.got.cif
#   From: 2010.03.12/outbox.cif.g09.slc.cpg/sg67_11_cif.got.tgz:21802.got - 2010.04.10 22:41:39.
