data_PCOD8280553
_publ_section_title
;
Structure prediction by ZEFSAII (Michael W. Deem and Ramdas Pophale) SiO2 
 PCOD8280553
Probable space group: C M M A
;
_chemical_formula_sum "Si O2"
_cell_formula_units_Z 96
_cell_length_a 14.047202
_cell_length_b 14.677182
_cell_length_c 22.709733
_cell_angle_alpha 90.000000
_cell_angle_beta 90.000000
_cell_angle_gamma 90.000000
_cell_volume 4682.141511
_symmetry_space_group_name_H-M "C M M A"
_symmetry_group_IT_number 67
_symmetry_cell_setting 'orthorhombic'
loop_
_space_group_symop_operation_xyz
x,y,z
-x,1/2-y,z
x,-y,-z
-x,1/2+y,-z
-x,-y,-z
x,1/2+y,-z
-x,y,z
x,1/2-y,z
1/2+x,1/2+y,z
1/2-x,-y,z
1/2+x,1/2-y,-z
1/2-x,y,-z
1/2-x,1/2-y,-z
1/2+x,y,-z
1/2-x,1/2+y,z
1/2+x,-y,z
loop_
_atom_site_type_symbol
_atom_site_label
_atom_site_fract_x
_atom_site_fract_y
_atom_site_fract_z
Si Si1 0.752995 0.855608 0.618326
Si Si2 0.113376 0.250000 0.944577
Si Si3 0.886245 0.591973 0.973082
Si Si4 0.603876 0.646986 0.150266
Si Si5 0.886577 0.750000 0.189621
Si Si6 0.609640 0.999245 0.569496
Si Si7 0.253337 0.391475 0.245686
O O1 0.750464 0.750000 0.596854
O O2 0.845957 0.906819 0.593546
O O3 0.758091 0.858050 0.688223
O O4 0.659588 0.909352 0.595993
O O5 0.151495 0.250000 0.877594
O O6 0.000000 0.250000 0.941608
O O7 0.153886 0.164925 0.980780
O O8 0.846735 0.599054 0.906229
O O9 0.000000 0.598584 0.969393
O O10 0.847496 0.500000 0.000000
O O11 0.500000 0.603637 0.164112
O O12 0.590717 0.750000 0.129814
O O13 0.664074 0.643425 0.209257
O O14 0.848192 0.843099 0.219990
O O15 0.000000 0.750000 0.195117
O O16 0.500000 0.995700 0.588607
O O17 0.623175 0.000000 0.500000
O O18 0.250000 0.500000 0.241303
#
# Coordination Sequence:
#
# PCOD8280553 Si02
#       7
#    16   8  16  16   8  16  16
#     4  11  22  43  68  95 134 180 218 264 322 372
#     4   9  18  35  57  82 114 154 203 260 322 387
#     4   9  17  31  54  84 115 153 202 253 320 399
#     4  10  20  38  63  87 119 161 203 262 331 386
#     4  11  26  45  66  92 127 172 218 272 334 391
#     4  10  23  43  68 103 140 174 218 266 313 373
#     4  12  25  44  63  92 130 165 220 272 313 387
#
# _framework density 20.503437999999999
#
# number of rings (size 3 to 8) (size 9 to 14) (size 15 to 20)
#    0.000    1.667    4.167    1.000    2.333    4.000 
#    0.000    3.333    0.000    0.000    0.000    0.000 
#    0.000    0.000    0.000    0.000    0.000    0.000 
#
# Total GULP energy -595029.514314 kJ/mol
# GULP energy per Si atom -12396.448215 kJ/mol
# Density = 2.045677 g / cm^3
# Si number density = 20.503438 Si / 1000 Ang^3
#
#
#
# Elastic Constant Matrix: (Units=GPa)
#
#
# Indices 1 2 3 4 5 6 
#
# 1 113.9320 47.1507 57.6641 0.0000 0.0000 0.0000
# 2 47.1507 174.5465 48.5632 0.0000 0.0000 0.0000
# 3 57.6641 48.5632 152.2113 0.0000 0.0000 0.0000
# 4 0.0000 0.0000 0.0000 28.5436 0.0000 0.0000
# 5 0.0000 0.0000 0.0000 0.0000 69.4918 0.0000
# 6 0.0000 0.0000 0.0000 0.0000 0.0000 -89.3054
#
#
#
# Elastic Compliance Matrix: (Units=1/GPa)
#
#
# Indices 1 2 3 4 5 6 
#
# 1 0.011509 -0.002081 -0.003696 0.000000 0.000000 0.000000
# 2 -0.002081 0.006663 -0.001338 0.000000 0.000000 0.000000
# 3 -0.003696 -0.001338 0.008397 0.000000 0.000000 0.000000
# 4 0.000000 0.000000 0.000000 0.035034 0.000000 0.000000
# 5 0.000000 0.000000 0.000000 0.000000 0.014390 0.000000
# 6 0.000000 0.000000 0.000000 0.000000 0.000000 -0.011198
#
#
# Mechanical properties :
#
#
# Convention : Reuss Voigt Hill
#
# Bulk Modulus (GPa) = 81.03666 83.04953 82.04310
# Shear Modulus (GPa) = 60.14051 20.90011 40.52031
#
# Velocity S-wave (km/s) = 5.42177 3.19618 4.45035
# Velocity P-wave (km/s) = 8.87713 7.36301 8.15528
#
# Compressibility (1/GPa) = 0.01234009
#
# Stress axis : x y z
#
# Youngs Moduli (GPa) = 86.88854 150.07457 119.09105
#
# Poissons Ratio (x) = 0.31224 0.44020
# Poissons Ratio (y) = 0.18078 0.15931
# Poissons Ratio (z) = 0.32117 0.20076
#
# Static dielectric constant tensor:
#      x y z
#    x 3.604150 0.000000 0.000000 
#    y 0.000000 4.356640 0.000000 
#    z 0.000000 0.000000 3.824120 
# 
# 
# High freq. dielectric constant tensor:
#      x y z
#    x 1.796820 0.000000 0.000000 
#    y 0.000000 1.806480 0.000000 
#    z 0.000000 0.000000 1.813450 
# 
# From -- ./inp_files/38516.got.cif
#   From: 2010.03.12/outbox.cif.g09.slc.cpg/sg67_20_cif.got.tgz:38516.got - 2010.04.10 22:41:39.
