data_PCOD8280210
_publ_section_title
;
Structure prediction by ZEFSAII (Michael W. Deem and Ramdas Pophale) SiO2 
 PCOD8280210
Probable space group: C M M A
;
_chemical_formula_sum "Si O2"
_cell_formula_units_Z 88
_cell_length_a 8.833481
_cell_length_b 30.248297
_cell_length_c 17.745520
_cell_angle_alpha 90.000000
_cell_angle_beta 90.000000
_cell_angle_gamma 90.000000
_cell_volume 4741.563138
_symmetry_space_group_name_H-M "C M M A"
_symmetry_group_IT_number 67
_symmetry_cell_setting 'orthorhombic'
loop_
_space_group_symop_operation_xyz
x,y,z
-x,1/2-y,z
x,-y,-z
-x,1/2+y,-z
-x,-y,-z
x,1/2+y,-z
-x,y,z
x,1/2-y,z
1/2+x,1/2+y,z
1/2-x,-y,z
1/2+x,1/2-y,-z
1/2-x,y,-z
1/2-x,1/2-y,-z
1/2+x,y,-z
1/2-x,1/2+y,z
1/2+x,-y,z
loop_
_atom_site_type_symbol
_atom_site_label
_atom_site_fract_x
_atom_site_fract_y
_atom_site_fract_z
Si Si1 0.171766 0.924048 0.423610
Si Si2 0.173848 0.250000 0.420837
Si Si3 0.677524 0.200238 0.920972
Si Si4 0.682173 0.546513 0.740701
Si Si5 0.319900 0.132162 0.791156
Si Si6 0.672608 0.667700 0.643191
O O1 0.250000 0.941575 0.500000
O O2 0.236644 0.945069 0.346086
O O3 0.189291 0.871030 0.418560
O O4 0.000000 0.938818 0.431366
O O5 0.250000 0.250000 0.500000
O O6 0.215830 0.207059 0.374705
O O7 0.000000 0.250000 0.437251
O O8 0.500000 0.199791 0.932126
O O9 0.729412 0.250000 0.895428
O O10 0.726066 0.162507 0.861971
O O11 0.750000 0.187041 0.000000
O O12 0.500000 0.548726 0.747461
O O13 0.750000 0.500000 0.766925
O O14 0.759808 0.581765 0.798084
O O15 0.500000 0.133348 0.776048
O O16 0.222217 0.150967 0.723600
O O17 0.500000 0.684489 0.646133
#
# Coordination Sequence:
#
# PCOD8280210 Si02
#       6
#    16   8  16  16  16  16
#     4   9  19  33  50  71  99 132 172 222 273 327
#     4  12  24  36  50  70  99 138 183 232 280 328
#     4   9  19  35  56  85 119 151 183 218 259 316
#     4  10  21  37  55  78 107 140 183 231 279 335
#     4  10  20  35  57  83 112 146 181 223 273 323
#     4  10  21  36  51  73 102 138 184 228 272 325
#
# _framework density 18.559280000000001
#
# number of rings (size 3 to 8) (size 9 to 14) (size 15 to 20)
#    0.000    2.182    0.000    4.091    1.273    7.636 
#    0.000    1.818    0.000    0.545    0.000    3.818 
#    0.000    0.000    0.000    0.000    0.000    0.000 
#
# Total GULP energy -545417.992284 kJ/mol
# GULP energy per Si atom -12395.863461 kJ/mol
# Density = 1.851704 g / cm^3
# Si number density = 18.559280 Si / 1000 Ang^3
#
#
#
# Elastic Constant Matrix: (Units=GPa)
#
#
# Indices 1 2 3 4 5 6 
#
# 1 77.3436 31.8093 25.7756 0.0000 0.0000 0.0000
# 2 31.8093 119.0014 44.2987 0.0000 0.0000 0.0000
# 3 25.7756 44.2987 83.3896 0.0000 0.0000 0.0000
# 4 0.0000 0.0000 0.0000 16.2071 0.0000 0.0000
# 5 0.0000 0.0000 0.0000 0.0000 30.6924 0.0000
# 6 0.0000 0.0000 0.0000 0.0000 0.0000 29.3042
#
#
#
# Elastic Compliance Matrix: (Units=1/GPa)
#
#
# Indices 1 2 3 4 5 6 
#
# 1 0.015166 -0.002878 -0.003159 0.000000 0.000000 0.000000
# 2 -0.002878 0.011021 -0.004965 0.000000 0.000000 0.000000
# 3 -0.003159 -0.004965 0.015606 0.000000 0.000000 0.000000
# 4 0.000000 0.000000 0.000000 0.061701 0.000000 0.000000
# 5 0.000000 0.000000 0.000000 0.000000 0.032581 0.000000
# 6 0.000000 0.000000 0.000000 0.000000 0.000000 0.034125
#
#
# Mechanical properties :
#
#
# Convention : Reuss Voigt Hill
#
# Bulk Modulus (GPa) = 50.53371 53.72244 52.12808
# Shear Modulus (GPa) = 25.15096 27.09746 26.12421
#
# Velocity S-wave (km/s) = 3.68526 3.82520 3.75588
# Velocity P-wave (km/s) = 6.73762 6.96555 6.85253
#
# Compressibility (1/GPa) = 0.01978877
#
# Stress axis : x y z
#
# Youngs Moduli (GPa) = 65.93849 90.73788 64.07865
#
# Poissons Ratio (x) = 0.26114 0.20242
# Poissons Ratio (y) = 0.18976 0.31815
# Poissons Ratio (z) = 0.20829 0.45051
#
# Static dielectric constant tensor:
#      x y z
#    x 3.373050 0.000000 0.000000 
#    y 0.000000 3.682870 0.000000 
#    z 0.000000 0.000000 3.209200 
# 
# 
# High freq. dielectric constant tensor:
#      x y z
#    x 1.727310 0.000000 0.000000 
#    y 0.000000 1.726580 0.000000 
#    z 0.000000 0.000000 1.694590 
# 
# From -- ./inp_files/32427.got.cif
#   From: 2010.03.12/outbox.cif.g09.slc.cpg/sg67_17_cif.got.tgz:32427.got - 2010.04.10 22:41:39.
