data_PCOD8280815
_publ_section_title
;
Structure prediction by ZEFSAII (Michael W. Deem and Ramdas Pophale) SiO2 
 PCOD8280815
Probable space group: C M M A
;
_chemical_formula_sum "Si O2"
_cell_formula_units_Z 80
_cell_length_a 19.524476
_cell_length_b 8.768240
_cell_length_c 25.724467
_cell_angle_alpha 90.000000
_cell_angle_beta 90.000000
_cell_angle_gamma 90.000000
_cell_volume 4403.907625
_symmetry_space_group_name_H-M "C M M A"
_symmetry_group_IT_number 67
_symmetry_cell_setting 'orthorhombic'
loop_
_space_group_symop_operation_xyz
x,y,z
-x,1/2-y,z
x,-y,-z
-x,1/2+y,-z
-x,-y,-z
x,1/2+y,-z
-x,y,z
x,1/2-y,z
1/2+x,1/2+y,z
1/2-x,-y,z
1/2+x,1/2-y,-z
1/2-x,y,-z
1/2-x,1/2-y,-z
1/2+x,y,-z
1/2-x,1/2+y,z
1/2+x,-y,z
loop_
_atom_site_type_symbol
_atom_site_label
_atom_site_fract_x
_atom_site_fract_y
_atom_site_fract_z
Si Si1 0.821888 0.569629 0.055315
Si Si2 0.675358 0.428368 0.450231
Si Si3 0.078675 0.071991 0.754985
Si Si4 0.919899 0.426110 0.137113
Si Si5 0.323995 0.428899 0.336267
O O1 0.814544 0.750000 0.049970
O O2 0.750000 0.500000 0.074618
O O3 0.880493 0.529392 0.096036
O O4 0.843071 0.500000 0.000000
O O5 0.634198 0.500000 0.500000
O O6 0.679997 0.250000 0.459242
O O7 0.750000 0.500000 0.449935
O O8 0.643849 0.467870 0.393432
O O9 0.091280 0.250000 0.766070
O O10 0.123315 0.010279 0.706836
O O11 0.000000 0.039747 0.740910
O O12 0.101759 0.977731 0.805345
O O13 0.900094 0.250000 0.129516
O O14 0.000000 0.454965 0.128160
O O15 0.314002 0.250000 0.331018
O O16 0.250000 0.500000 0.326855
#
# Coordination Sequence:
#
# PCOD8280815 Si02
#       5
#    16  16  16  16  16
#     4  11  22  38  59  82 110 141 173 209 253 302
#     4   9  15  24  39  61  89 119 152 191 238 288
#     4   9  18  34  53  71  95 130 169 206 247 296
#     4  10  21  37  56  79 106 136 173 214 254 299
#     4   9  18  30  46  70  96 123 158 201 246 293
#
# _framework density 18.165685
#
# number of rings (size 3 to 8) (size 9 to 14) (size 15 to 20)
#    0.000    2.400    0.000    4.200    0.000    4.000 
#    0.000    2.000    0.000    0.600    0.000    0.000 
#    0.000    0.000    0.000    0.000    0.000    5.400 
#
# Total GULP energy -495836.213420 kJ/mol
# GULP energy per Si atom -12395.905336 kJ/mol
# Density = 1.812434 g / cm^3
# Si number density = 18.165685 Si / 1000 Ang^3
#
#
#
# Elastic Constant Matrix: (Units=GPa)
#
#
# Indices 1 2 3 4 5 6 
#
# 1 63.5851 34.6322 70.4278 0.0000 0.0000 0.0000
# 2 34.6322 97.8364 59.6369 0.0000 0.0000 0.0000
# 3 70.4278 59.6369 153.6457 0.0000 0.0000 0.0000
# 4 0.0000 0.0000 0.0000 28.1413 0.0000 0.0000
# 5 0.0000 0.0000 0.0000 0.0000 34.1310 0.0000
# 6 0.0000 0.0000 0.0000 0.0000 0.0000 22.8305
#
#
#
# Elastic Compliance Matrix: (Units=1/GPa)
#
#
# Indices 1 2 3 4 5 6 
#
# 1 0.032691 -0.003193 -0.013745 0.000000 0.000000 0.000000
# 2 -0.003193 0.013701 -0.003854 0.000000 0.000000 0.000000
# 3 -0.013745 -0.003854 0.014305 0.000000 0.000000 0.000000
# 4 0.000000 0.000000 0.000000 0.035535 0.000000 0.000000
# 5 0.000000 0.000000 0.000000 0.000000 0.029299 0.000000
# 6 0.000000 0.000000 0.000000 0.000000 0.000000 0.043801
#
#
# Mechanical properties :
#
#
# Convention : Reuss Voigt Hill
#
# Bulk Modulus (GPa) = 52.32580 71.60677 61.96629
# Shear Modulus (GPa) = 23.01104 27.04525 25.02814
#
# Velocity S-wave (km/s) = 3.56298 3.86270 3.71586
# Velocity P-wave (km/s) = 6.76710 7.70702 7.25231
#
# Compressibility (1/GPa) = 0.01911103
#
# Stress axis : x y z
#
# Youngs Moduli (GPa) = 30.58979 72.98808 69.90588
#
# Poissons Ratio (x) = 0.23308 0.96087
# Poissons Ratio (y) = 0.09768 0.26943
# Poissons Ratio (z) = 0.42046 0.28131
#
# Static dielectric constant tensor:
#      x y z
#    x 3.106490 0.000000 0.000000 
#    y 0.000000 3.411490 0.000000 
#    z 0.000000 0.000000 4.141340 
# 
# 
# High freq. dielectric constant tensor:
#      x y z
#    x 1.668870 0.000000 0.000000 
#    y 0.000000 1.711810 0.000000 
#    z 0.000000 0.000000 1.723930 
# 
# From -- ./inp_files/43312.got.cif
#   From: 2010.03.12/outbox.cif.g09.slc.cpg/sg67_22_cif.got.tgz:43312.got - 2010.04.10 22:41:39.
