data_PCOD8280396
_publ_section_title
;
Structure prediction by ZEFSAII (Michael W. Deem and Ramdas Pophale) SiO2 
 PCOD8280396
Probable space group: C M M A
;
_chemical_formula_sum "Si O2"
_cell_formula_units_Z 88
_cell_length_a 16.318515
_cell_length_b 8.873602
_cell_length_c 29.291903
_cell_angle_alpha 90.000000
_cell_angle_beta 90.000000
_cell_angle_gamma 90.000000
_cell_volume 4241.584937
_symmetry_space_group_name_H-M "C M M A"
_symmetry_group_IT_number 67
_symmetry_cell_setting 'orthorhombic'
loop_
_space_group_symop_operation_xyz
x,y,z
-x,1/2-y,z
x,-y,-z
-x,1/2+y,-z
-x,-y,-z
x,1/2+y,-z
-x,y,z
x,1/2-y,z
1/2+x,1/2+y,z
1/2-x,-y,z
1/2+x,1/2-y,-z
1/2-x,y,-z
1/2-x,1/2-y,-z
1/2+x,y,-z
1/2-x,1/2+y,z
1/2+x,-y,z
loop_
_atom_site_type_symbol
_atom_site_label
_atom_site_fract_x
_atom_site_fract_y
_atom_site_fract_z
Si Si1 0.593067 0.579341 0.287773
Si Si2 0.164133 0.427081 0.898640
Si Si3 0.000000 0.070691 0.950545
Si Si4 0.165288 0.427768 0.793946
Si Si5 0.405542 0.583948 0.456661
Si Si6 0.165586 0.071663 0.626015
O O1 0.500000 0.578120 0.304580
O O2 0.626643 0.750000 0.285056
O O3 0.596382 0.501038 0.238063
O O4 0.646270 0.485499 0.323323
O O5 0.175034 0.250000 0.904841
O O6 0.250000 0.500000 0.916222
O O7 0.147438 0.471860 0.846246
O O8 0.083648 0.485436 0.925711
O O9 0.000000 0.250000 0.953103
O O10 0.000000 0.000000 0.000000
O O11 0.167202 0.250000 0.787230
O O12 0.250000 0.500000 0.777446
O O13 0.363462 0.500000 0.500000
O O14 0.500000 0.606522 0.467882
O O15 0.365020 0.750000 0.450095
O O16 0.399937 0.485034 0.410786
O O17 0.169264 0.250000 0.626889
O O18 0.250000 0.000000 0.609234
#
# Coordination Sequence:
#
# PCOD8280396 Si02
#       6
#    16  16   8  16  16  16
#     4  11  24  40  58  84 118 153 191 238 289 346
#     4   9  20  38  61  87 121 160 203 253 308 366
#     4  10  22  40  60  88 122 162 206 256 309 366
#     4  10  20  36  60  86 116 153 194 241 293 353
#     4  10  21  39  63  90 119 150 187 234 287 344
#     4  12  25  41  61  84 114 152 194 239 288 345
#
# _framework density 20.746962
#
# number of rings (size 3 to 8) (size 9 to 14) (size 15 to 20)
#    0.000    1.636    0.000    4.364    1.273    6.909 
#    0.000    3.636    0.000    0.000    0.000    0.000 
#    0.000    0.000    0.000    0.000    0.000    0.000 
#
# Total GULP energy -545643.831067 kJ/mol
# GULP energy per Si atom -12400.996161 kJ/mol
# Density = 2.069974 g / cm^3
# Si number density = 20.746962 Si / 1000 Ang^3
#
#
#
# Elastic Constant Matrix: (Units=GPa)
#
#
# Indices 1 2 3 4 5 6 
#
# 1 92.3349 40.9653 45.1677 0.0000 0.0000 0.0000
# 2 40.9653 145.5938 57.2207 0.0000 0.0000 0.0000
# 3 45.1677 57.2207 123.5626 0.0000 0.0000 0.0000
# 4 0.0000 0.0000 0.0000 37.6914 0.0000 0.0000
# 5 0.0000 0.0000 0.0000 0.0000 22.7386 0.0000
# 6 0.0000 0.0000 0.0000 0.0000 0.0000 30.1470
#
#
#
# Elastic Compliance Matrix: (Units=1/GPa)
#
#
# Indices 1 2 3 4 5 6 
#
# 1 0.013803 -0.002324 -0.003970 0.000000 0.000000 0.000000
# 2 -0.002324 0.008788 -0.003220 0.000000 0.000000 0.000000
# 3 -0.003970 -0.003220 0.011035 0.000000 0.000000 0.000000
# 4 0.000000 0.000000 0.000000 0.026531 0.000000 0.000000
# 5 0.000000 0.000000 0.000000 0.000000 0.043978 0.000000
# 6 0.000000 0.000000 0.000000 0.000000 0.000000 0.033171
#
#
# Mechanical properties :
#
#
# Convention : Reuss Voigt Hill
#
# Bulk Modulus (GPa) = 68.49601 72.02208 70.25904
# Shear Modulus (GPa) = 31.01756 32.65791 31.83774
#
# Velocity S-wave (km/s) = 3.87077 3.97180 3.92161
# Velocity P-wave (km/s) = 7.28449 7.47151 7.37859
#
# Compressibility (1/GPa) = 0.01459939
#
# Stress axis : x y z
#
# Youngs Moduli (GPa) = 72.44909 113.79441 90.61808
#
# Poissons Ratio (x) = 0.26441 0.35971
# Poissons Ratio (y) = 0.16834 0.29181
# Poissons Ratio (z) = 0.28759 0.36644
#
# Static dielectric constant tensor:
#      x y z
#    x 3.734630 0.000000 0.000000 
#    y 0.000000 3.898140 0.000000 
#    z 0.000000 0.000000 3.697830 
# 
# 
# High freq. dielectric constant tensor:
#      x y z
#    x 1.806680 0.000000 0.000000 
#    y 0.000000 1.820120 0.000000 
#    z 0.000000 0.000000 1.814160 
# 
# From -- ./inp_files/45792.got.cif
#   From: 2010.03.12/outbox.cif.g09.slc.cpg/sg67_23_cif.got.tgz:45792.got - 2010.04.10 22:41:39.
