data_PCOD8280959
_publ_section_title
;
Structure prediction by ZEFSAII (Michael W. Deem and Ramdas Pophale) SiO2 
 PCOD8280959
Probable space group: C M M A
;
_chemical_formula_sum "Si O2"
_cell_formula_units_Z 96
_cell_length_a 20.810571
_cell_length_b 14.854741
_cell_length_c 14.282883
_cell_angle_alpha 90.000000
_cell_angle_beta 90.000000
_cell_angle_gamma 90.000000
_cell_volume 4415.348210
_symmetry_space_group_name_H-M "C M M A"
_symmetry_group_IT_number 67
_symmetry_cell_setting 'orthorhombic'
loop_
_space_group_symop_operation_xyz
x,y,z
-x,1/2-y,z
x,-y,-z
-x,1/2+y,-z
-x,-y,-z
x,1/2+y,-z
-x,y,z
x,1/2-y,z
1/2+x,1/2+y,z
1/2-x,-y,z
1/2+x,1/2-y,-z
1/2-x,y,-z
1/2-x,1/2-y,-z
1/2+x,y,-z
1/2-x,1/2+y,z
1/2+x,-y,z
loop_
_atom_site_type_symbol
_atom_site_label
_atom_site_fract_x
_atom_site_fract_y
_atom_site_fract_z
Si Si1 0.429914 0.950411 0.904250
Si Si2 0.357005 0.648200 0.619373
Si Si3 0.389720 0.973543 0.281216
Si Si4 0.429776 0.149518 0.562103
Si Si5 0.767551 0.352004 0.275725
Si Si6 0.296432 0.145172 0.080958
O O1 0.500000 0.904216 0.880761
O O2 0.370683 0.883376 0.919916
O O3 0.414735 0.026195 0.824925
O O4 0.439390 0.000000 0.000000
O O5 0.382084 0.750000 0.641114
O O6 0.390109 0.578396 0.689675
O O7 0.375356 0.620917 0.513034
O O8 0.280320 0.644223 0.635220
O O9 0.434913 0.917615 0.350467
O O10 0.321015 0.926201 0.292202
O O11 0.500000 0.147352 0.513023
O O12 0.414006 0.250000 0.599178
O O13 0.795357 0.250000 0.265624
O O14 0.730718 0.381364 0.181919
O O15 0.296888 0.250000 0.063590
O O16 0.250000 0.101335 0.000000
#
# Coordination Sequence:
#
# PCOD8280959 Si02
#       6
#    16  16  16  16  16  16
#     4  11  25  41  60  93 134 170 214 270 327 393
#     4  10  22  39  60  91 128 161 209 274 327 389
#     4  12  22  38  67  91 125 175 218 262 333 395
#     4  10  23  43  64  90 125 170 223 275 330 397
#     4  10  21  38  60  95 129 159 215 275 328 391
#     4  10  21  40  66  93 124 167 218 270 327 395
#
# _framework density 21.742341
#
# number of rings (size 3 to 8) (size 9 to 14) (size 15 to 20)
#    0.000    1.500    1.667    3.000    0.000    4.667 
#    0.000    5.000    0.000    2.000    0.000    0.000 
#    0.000    0.000    0.000    0.000    0.000    0.000 
#
# Total GULP energy -594840.921199 kJ/mol
# GULP energy per Si atom -12392.519192 kJ/mol
# Density = 2.169285 g / cm^3
# Si number density = 21.742341 Si / 1000 Ang^3
#
#
#
# Elastic Constant Matrix: (Units=GPa)
#
#
# Indices 1 2 3 4 5 6 
#
# 1 134.1305 24.9969 52.5297 0.0000 0.0000 0.0000
# 2 24.9969 83.5457 39.2850 0.0000 0.0000 0.0000
# 3 52.5297 39.2850 130.7166 0.0000 0.0000 0.0000
# 4 0.0000 0.0000 0.0000 27.8540 0.0000 0.0000
# 5 0.0000 0.0000 0.0000 0.0000 43.4974 0.0000
# 6 0.0000 0.0000 0.0000 0.0000 0.0000 29.0334
#
#
#
# Elastic Compliance Matrix: (Units=1/GPa)
#
#
# Indices 1 2 3 4 5 6 
#
# 1 0.008941 -0.001148 -0.003248 0.000000 0.000000 0.000000
# 2 -0.001148 0.014087 -0.003772 0.000000 0.000000 0.000000
# 3 -0.003248 -0.003772 0.010089 0.000000 0.000000 0.000000
# 4 0.000000 0.000000 0.000000 0.035902 0.000000 0.000000
# 5 0.000000 0.000000 0.000000 0.000000 0.022990 0.000000
# 6 0.000000 0.000000 0.000000 0.000000 0.000000 0.034443
#
#
# Mechanical properties :
#
#
# Convention : Reuss Voigt Hill
#
# Bulk Modulus (GPa) = 59.59272 64.66846 62.13059
# Shear Modulus (GPa) = 33.69677 35.51571 34.60624
#
# Velocity S-wave (km/s) = 3.94105 4.04602 3.99388
# Velocity P-wave (km/s) = 6.94098 7.18573 7.06442
#
# Compressibility (1/GPa) = 0.01678057
#
# Stress axis : x y z
#
# Youngs Moduli (GPa) = 111.83859 70.98870 99.11618
#
# Poissons Ratio (x) = 0.08149 0.32195
# Poissons Ratio (y) = 0.12838 0.37389
# Poissons Ratio (z) = 0.36328 0.26779
#
# Static dielectric constant tensor:
#      x y z
#    x 4.370910 0.000000 0.000000 
#    y 0.000000 3.974600 0.000000 
#    z 0.000000 0.000000 4.106240 
# 
# 
# High freq. dielectric constant tensor:
#      x y z
#    x 1.858220 0.000000 0.000000 
#    y 0.000000 1.848240 0.000000 
#    z 0.000000 0.000000 1.855550 
# 
# From -- ./inp_files/29282.got.cif
#   From: 2010.03.12/outbox.cif.g09.slc.cpg/sg67_15_cif.got.tgz:29282.got - 2010.04.10 22:41:39.
