data_PCOD8280609
_publ_section_title
;
Structure prediction by ZEFSAII (Michael W. Deem and Ramdas Pophale) SiO2 
 PCOD8280609
Probable space group: C M M A
;
_chemical_formula_sum "Si O2"
_cell_formula_units_Z 112
_cell_length_a 33.723010
_cell_length_b 15.109471
_cell_length_c 11.774669
_cell_angle_alpha 90.000000
_cell_angle_beta 90.000000
_cell_angle_gamma 90.000000
_cell_volume 5999.627653
_symmetry_space_group_name_H-M "C M M A"
_symmetry_group_IT_number 67
_symmetry_cell_setting 'orthorhombic'
loop_
_space_group_symop_operation_xyz
x,y,z
-x,1/2-y,z
x,-y,-z
-x,1/2+y,-z
-x,-y,-z
x,1/2+y,-z
-x,y,z
x,1/2-y,z
1/2+x,1/2+y,z
1/2-x,-y,z
1/2+x,1/2-y,-z
1/2-x,y,-z
1/2-x,1/2-y,-z
1/2+x,y,-z
1/2-x,1/2+y,z
1/2+x,-y,z
loop_
_atom_site_type_symbol
_atom_site_label
_atom_site_fract_x
_atom_site_fract_y
_atom_site_fract_z
Si Si1 0.955405 0.855115 0.500000
Si Si2 0.707461 0.500000 0.792850
Si Si3 0.379842 1.000000 0.129253
Si Si4 0.812260 0.849290 0.627203
Si Si5 0.400076 0.851250 0.299608
Si Si6 0.687740 0.849290 0.627203
Si Si7 0.400076 0.148750 0.299608
O O1 0.954185 0.750000 0.500000
O O2 0.933874 0.887770 0.615061
O O3 0.933874 0.887770 0.384939
O O4 0.000000 0.892774 0.500000
O O5 0.750000 0.500000 0.860475
O O6 0.668471 0.500000 0.871339
O O7 0.708578 0.413620 0.714715
O O8 0.708578 0.586380 0.714715
O O9 0.397709 0.912730 0.188436
O O10 0.397709 0.087270 0.188436
O O11 0.394369 0.000000 0.000000
O O12 0.799258 0.750000 0.659526
O O13 0.859553 0.858677 0.631006
O O14 0.798475 0.872914 0.500000
O O15 0.408294 0.750000 0.260421
O O16 0.700742 0.750000 0.659526
O O17 0.640447 0.858678 0.631006
O O18 0.408294 0.250000 0.260421
#
# Coordination Sequence:
#
# PCOD8280609 Si02
#       7
#    16  16  16  16  16  16  16
#     4   9  16  29  55  89 116 136 160 196 254 313
#     4  10  21  33  46  68  95 123 163 216 264 299
#     4  10  22  37  54  73  92 132 187 219 246 295
#     4   9  16  28  47  69  98 134 163 192 242 308
#     4   9  17  32  53  77 107 135 164 208 251 296
#     4   9  16  28  47  69  98 134 163 192 242 308
#     4   9  17  32  53  77 107 135 164 208 251 296
#
# _framework density 18.667824
#
# number of rings (size 3 to 8) (size 9 to 14) (size 15 to 20)
#    0.000    2.714    1.429    0.429    0.000    3.143 
#    0.000    2.857    0.000    1.714    0.000   12.000 
#    0.000    0.000    0.000    0.000    0.000    0.000 
#
# Total GULP energy -694109.743011 kJ/mol
# GULP energy per Si atom -12394.816839 kJ/mol
# Density = 1.862534 g / cm^3
# Si number density = 18.667824 Si / 1000 Ang^3
#
#
#
# Elastic Constant Matrix: (Units=GPa)
#
#
# Indices 1 2 3 4 5 6 
#
# 1 107.0795 18.5434 35.5788 0.0000 0.0000 0.0000
# 2 18.5434 93.9127 48.9713 0.0000 0.0000 0.0000
# 3 35.5788 48.9713 114.0255 0.0000 0.0000 0.0000
# 4 0.0000 0.0000 0.0000 18.5477 0.0000 0.0000
# 5 0.0000 0.0000 0.0000 0.0000 10.1688 0.0000
# 6 0.0000 0.0000 0.0000 0.0000 0.0000 10.4910
#
#
#
# Elastic Compliance Matrix: (Units=1/GPa)
#
#
# Indices 1 2 3 4 5 6 
#
# 1 0.010435 -0.000467 -0.003055 0.000000 0.000000 0.000000
# 2 -0.000467 0.013742 -0.005756 0.000000 0.000000 0.000000
# 3 -0.003055 -0.005756 0.012195 0.000000 0.000000 0.000000
# 4 0.000000 0.000000 0.000000 0.053915 0.000000 0.000000
# 5 0.000000 0.000000 0.000000 0.000000 0.098340 0.000000
# 6 0.000000 0.000000 0.000000 0.000000 0.000000 0.095320
#
#
# Mechanical properties :
#
#
# Convention : Reuss Voigt Hill
#
# Bulk Modulus (GPa) = 56.13206 57.91162 57.02184
# Shear Modulus (GPa) = 16.21048 21.96978 19.09013
#
# Velocity S-wave (km/s) = 2.95000 3.43429 3.20132
# Velocity P-wave (km/s) = 6.46046 6.84217 6.65405
#
# Compressibility (1/GPa) = 0.01781513
#
# Stress axis : x y z
#
# Youngs Moduli (GPa) = 95.83190 72.76977 81.99814
#
# Poissons Ratio (x) = 0.03400 0.25053
# Poissons Ratio (y) = 0.04477 0.47199
# Poissons Ratio (z) = 0.29280 0.41887
#
# Static dielectric constant tensor:
#      x y z
#    x 3.469290 0.000000 0.000000 
#    y 0.000000 3.618150 0.000000 
#    z 0.000000 0.000000 2.999360 
# 
# 
# High freq. dielectric constant tensor:
#      x y z
#    x 1.715810 0.000000 0.000000 
#    y 0.000000 1.731470 0.000000 
#    z 0.000000 0.000000 1.685690 
# 
# From -- ./inp_files/23858.got.cif
#   From: 2010.03.12/outbox.cif.g09.slc.cpg/sg67_12_cif.got.tgz:23858.got - 2010.04.10 22:41:39.
