data_PCOD8280992
_publ_section_title
;
Structure prediction by ZEFSAII (Michael W. Deem and Ramdas Pophale) SiO2 
 PCOD8280992
Probable space group: C M M A
;
_chemical_formula_sum "Si O2"
_cell_formula_units_Z 96
_cell_length_a 14.440115
_cell_length_b 20.795710
_cell_length_c 14.305626
_cell_angle_alpha 90.000000
_cell_angle_beta 90.000000
_cell_angle_gamma 90.000000
_cell_volume 4295.871393
_symmetry_space_group_name_H-M "C M M A"
_symmetry_group_IT_number 67
_symmetry_cell_setting 'orthorhombic'
loop_
_space_group_symop_operation_xyz
x,y,z
-x,1/2-y,z
x,-y,-z
-x,1/2+y,-z
-x,-y,-z
x,1/2+y,-z
-x,y,z
x,1/2-y,z
1/2+x,1/2+y,z
1/2-x,-y,z
1/2+x,1/2-y,-z
1/2-x,y,-z
1/2-x,1/2-y,-z
1/2+x,y,-z
1/2-x,1/2+y,z
1/2+x,-y,z
loop_
_atom_site_type_symbol
_atom_site_label
_atom_site_fract_x
_atom_site_fract_y
_atom_site_fract_z
Si Si1 0.352330 0.436412 0.459125
Si Si2 0.717736 0.324877 0.751931
Si Si3 0.607296 0.402452 0.256758
Si Si4 0.897218 0.177688 0.420677
Si Si5 0.390849 0.676299 0.067624
Si Si6 0.392413 0.440069 0.054799
O O1 0.403485 0.500000 0.500000
O O2 0.250000 0.436247 0.500000
O O3 0.361225 0.442589 0.347243
O O4 0.398888 0.369226 0.489674
O O5 0.701598 0.250000 0.749241
O O6 0.826679 0.340458 0.753026
O O7 0.671555 0.352462 0.656918
O O8 0.663465 0.351152 0.842152
O O9 0.500000 0.380189 0.261699
O O10 0.625728 0.446707 0.165666
O O11 0.867166 0.250000 0.452445
O O12 0.000000 0.180237 0.377324
O O13 0.500000 0.672043 0.088205
O O14 0.363101 0.750000 0.042057
O O15 0.358005 0.629641 0.983133
O O16 0.500000 0.442485 0.032213
O O17 0.344395 0.500000 0.000000
#
# Coordination Sequence:
#
# PCOD8280992 Si02
#       6
#    16  16  16  16  16  16
#     4  11  24  44  68  94 126 168 212 263 324 386
#     4  10  21  38  62  93 130 167 211 266 316 373
#     4  11  24  42  63  90 125 167 215 261 317 386
#     4  10  21  39  65  95 126 166 215 265 321 380
#     4   9  18  36  63  92 125 167 212 257 310 373
#     4   9  20  40  63  91 128 168 209 258 315 374
#
# _framework density 22.347035999999999
#
# number of rings (size 3 to 8) (size 9 to 14) (size 15 to 20)
#    0.000    2.000    1.667    1.000    0.000    7.333 
#    0.000    5.833    0.000    0.000    0.000    0.000 
#    0.000    0.000    0.000    0.000    0.000    0.000 
#
# Total GULP energy -594946.055306 kJ/mol
# GULP energy per Si atom -12394.709486 kJ/mol
# Density = 2.229617 g / cm^3
# Si number density = 22.347036 Si / 1000 Ang^3
#
#
#
# Elastic Constant Matrix: (Units=GPa)
#
#
# Indices 1 2 3 4 5 6 
#
# 1 98.5483 21.5793 37.1770 0.0000 0.0000 0.0000
# 2 21.5793 125.4251 75.0483 0.0000 0.0000 0.0000
# 3 37.1770 75.0483 181.0068 0.0000 0.0000 0.0000
# 4 0.0000 0.0000 0.0000 30.6634 0.0000 0.0000
# 5 0.0000 0.0000 0.0000 0.0000 25.6625 0.0000
# 6 0.0000 0.0000 0.0000 0.0000 0.0000 0.0856
#
#
#
# Elastic Compliance Matrix: (Units=1/GPa)
#
#
# Indices 1 2 3 4 5 6 
#
# 1 0.011049 -0.000722 -0.001970 0.000000 0.000000 0.000000
# 2 -0.000722 0.010651 -0.004268 0.000000 0.000000 0.000000
# 3 -0.001970 -0.004268 0.007699 0.000000 0.000000 0.000000
# 4 0.000000 0.000000 0.000000 0.032612 0.000000 0.000000
# 5 0.000000 0.000000 0.000000 0.000000 0.038967 0.000000
# 6 0.000000 0.000000 0.000000 0.000000 0.000000 11.679552
#
#
# Mechanical properties :
#
#
# Convention : Reuss Voigt Hill
#
# Bulk Modulus (GPa) = 64.60548 74.73217 69.66882
# Shear Modulus (GPa) = 0.42374 29.36067 14.89221
#
# Velocity S-wave (km/s) = 0.43593 3.62864 2.58429
# Velocity P-wave (km/s) = 5.40613 7.14635 6.33626
#
# Compressibility (1/GPa) = 0.01547856
#
# Stress axis : x y z
#
# Youngs Moduli (GPa) = 90.50946 93.89079 129.89295
#
# Poissons Ratio (x) = 0.06781 0.25586
# Poissons Ratio (y) = 0.06537 0.55433
# Poissons Ratio (z) = 0.17829 0.40069
#
# Static dielectric constant tensor:
#      x y z
#    x 3.929120 0.000000 0.000000 
#    y 0.000000 4.254660 0.000000 
#    z 0.000000 0.000000 4.158340 
# 
# 
# High freq. dielectric constant tensor:
#      x y z
#    x 1.880980 0.000000 0.000000 
#    y 0.000000 1.866140 0.000000 
#    z 0.000000 0.000000 1.882470 
# 
# From -- ./inp_files/27162.got.cif
#   From: 2010.03.12/outbox.cif.g09.slc.cpg/sg67_14_cif.got.tgz:27162.got - 2010.04.10 22:41:39.
