data_PCOD8280863
_publ_section_title
;
Structure prediction by ZEFSAII (Michael W. Deem and Ramdas Pophale) SiO2 
 PCOD8280863
Probable space group: C M M A
;
_chemical_formula_sum "Si O2"
_cell_formula_units_Z 64
_cell_length_a 23.760356
_cell_length_b 15.805481
_cell_length_c 8.398490
_cell_angle_alpha 90.000000
_cell_angle_beta 90.000000
_cell_angle_gamma 90.000000
_cell_volume 3154.001313
_symmetry_space_group_name_H-M "C M M A"
_symmetry_group_IT_number 67
_symmetry_cell_setting 'orthorhombic'
loop_
_space_group_symop_operation_xyz
x,y,z
-x,1/2-y,z
x,-y,-z
-x,1/2+y,-z
-x,-y,-z
x,1/2+y,-z
-x,y,z
x,1/2-y,z
1/2+x,1/2+y,z
1/2-x,-y,z
1/2+x,1/2-y,-z
1/2-x,y,-z
1/2-x,1/2-y,-z
1/2+x,y,-z
1/2-x,1/2+y,z
1/2+x,-y,z
loop_
_atom_site_type_symbol
_atom_site_label
_atom_site_fract_x
_atom_site_fract_y
_atom_site_fract_z
Si Si1 0.500000 0.912836 0.396851
Si Si2 0.107706 0.153459 0.219403
Si Si3 0.684217 0.011700 0.681834
Si Si4 0.000000 0.156185 0.717522
Si Si5 0.899848 0.579887 0.101906
O O1 0.444916 0.901396 0.286515
O O2 0.500000 0.837861 0.526516
O O3 0.500000 0.000000 0.500000
O O4 0.106458 0.250000 0.281577
O O5 0.164967 0.106822 0.273331
O O6 0.108279 0.155121 0.026239
O O7 0.656042 0.942400 0.798149
O O8 0.665838 0.000000 0.500000
O O9 0.750000 0.000000 0.706566
O O10 0.945861 0.104593 0.770252
O O11 0.000000 0.250000 0.790650
O O12 0.920677 0.500000 0.000000
#
# Coordination Sequence:
#
# PCOD8280863 Si02
#       5
#     8  16  16   8  16
#     4  12  23  38  61  88 121 161 196 233 293 364
#     4  11  22  38  60  91 124 156 196 251 302 348
#     4  10  22  42  64  84 113 156 204 247 296 361
#     4  12  22  34  54  86 118 149 189 237 283 338
#     4  10  21  37  59  84 117 158 196 236 293 359
#
# _framework density 20.291685000000001
#
# number of rings (size 3 to 8) (size 9 to 14) (size 15 to 20)
#    0.000    1.250    0.000    8.250    0.000    4.500 
#    0.000    7.500    0.000    0.000    0.000    0.000 
#    0.000    0.000    0.000    0.000    0.000    0.000 
#
# Total GULP energy -396698.735777 kJ/mol
# GULP energy per Si atom -12396.835493 kJ/mol
# Density = 2.024550 g / cm^3
# Si number density = 20.291685 Si / 1000 Ang^3
#
#
#
# Elastic Constant Matrix: (Units=GPa)
#
#
# Indices 1 2 3 4 5 6 
#
# 1 116.1343 57.1742 57.4987 0.0000 0.0000 0.0000
# 2 57.1742 107.6444 29.6500 0.0000 0.0000 0.0000
# 3 57.4987 29.6500 137.8680 0.0000 0.0000 0.0000
# 4 0.0000 0.0000 0.0000 27.6801 0.0000 0.0000
# 5 0.0000 0.0000 0.0000 0.0000 28.4371 0.0000
# 6 0.0000 0.0000 0.0000 0.0000 0.0000 16.3931
#
#
#
# Elastic Compliance Matrix: (Units=1/GPa)
#
#
# Indices 1 2 3 4 5 6 
#
# 1 0.013826 -0.006118 -0.004451 0.000000 0.000000 0.000000
# 2 -0.006118 0.012582 -0.000154 0.000000 0.000000 0.000000
# 3 -0.004451 -0.000154 0.009143 0.000000 0.000000 0.000000
# 4 0.000000 0.000000 0.000000 0.036127 0.000000 0.000000
# 5 0.000000 0.000000 0.000000 0.000000 0.035165 0.000000
# 6 0.000000 0.000000 0.000000 0.000000 0.000000 0.061001
#
#
# Mechanical properties :
#
#
# Convention : Reuss Voigt Hill
#
# Bulk Modulus (GPa) = 70.89636 72.25473 71.57554
# Shear Modulus (GPa) = 25.77436 28.99029 27.38233
#
# Velocity S-wave (km/s) = 3.56784 3.78389 3.67745
# Velocity P-wave (km/s) = 7.21021 7.40106 7.30626
#
# Compressibility (1/GPa) = 0.01410510
#
# Stress axis : x y z
#
# Youngs Moduli (GPa) = 72.32751 79.48042 109.37750
#
# Poissons Ratio (x) = 0.48623 0.48679
# Poissons Ratio (y) = 0.44248 0.01689
# Poissons Ratio (z) = 0.32190 0.01227
#
# Static dielectric constant tensor:
#      x y z
#    x 3.454720 0.000000 0.000000 
#    y 0.000000 3.608580 0.000000 
#    z 0.000000 0.000000 4.144770 
# 
# 
# High freq. dielectric constant tensor:
#      x y z
#    x 1.779040 0.000000 0.000000 
#    y 0.000000 1.786150 0.000000 
#    z 0.000000 0.000000 1.818690 
# 
# From -- ./inp_files/8226.got.cif
#   From: 2010.03.12/outbox.cif.g09.slc.cpg/sg67_5_cif.got.tgz:8226.got - 2010.04.10 22:41:39.
