data_PCOD8280833
_publ_section_title
;
Structure prediction by ZEFSAII (Michael W. Deem and Ramdas Pophale) SiO2 
 PCOD8280833
Probable space group: C M M A
;
_chemical_formula_sum "Si O2"
_cell_formula_units_Z 96
_cell_length_a 18.611665
_cell_length_b 8.899633
_cell_length_c 30.109044
_cell_angle_alpha 90.000000
_cell_angle_beta 90.000000
_cell_angle_gamma 90.000000
_cell_volume 4987.171360
_symmetry_space_group_name_H-M "C M M A"
_symmetry_group_IT_number 67
_symmetry_cell_setting 'orthorhombic'
loop_
_space_group_symop_operation_xyz
x,y,z
-x,1/2-y,z
x,-y,-z
-x,1/2+y,-z
-x,-y,-z
x,1/2+y,-z
-x,y,z
x,1/2-y,z
1/2+x,1/2+y,z
1/2-x,-y,z
1/2+x,1/2-y,-z
1/2-x,y,-z
1/2-x,1/2-y,-z
1/2+x,y,-z
1/2-x,1/2+y,z
1/2+x,-y,z
loop_
_atom_site_type_symbol
_atom_site_label
_atom_site_fract_x
_atom_site_fract_y
_atom_site_fract_z
Si Si1 0.827501 0.572097 0.124548
Si Si2 0.176274 0.074194 0.281764
Si Si3 0.582655 0.074112 0.953052
Si Si4 0.414884 0.079688 0.455671
Si Si5 0.582495 0.424767 0.210712
Si Si6 0.323892 0.073440 0.616325
O O1 0.820817 0.750000 0.118864
O O2 0.750000 0.500000 0.130291
O O3 0.866162 0.504488 0.081997
O O4 0.873514 0.526778 0.167438
O O5 0.184948 0.250000 0.275311
O O6 0.160739 0.030242 0.332666
O O7 0.250000 0.000000 0.264734
O O8 0.109803 0.016037 0.253155
O O9 0.500000 0.044931 0.939626
O O10 0.600092 0.250000 0.955557
O O11 0.600271 0.000000 0.000000
O O12 0.500000 0.074036 0.454710
O O13 0.386285 0.250000 0.455084
O O14 0.384962 0.000000 0.500000
O O15 0.388457 0.992087 0.412427
O O16 0.500000 0.467418 0.202246
O O17 0.592234 0.250000 0.221110
O O18 0.318825 0.250000 0.609360
O O19 0.250000 0.000000 0.599803
#
# Coordination Sequence:
#
# PCOD8280833 Si02
#       6
#    16  16  16  16  16  16
#     4  11  23  39  59  84 115 150 190 234 281 332
#     4  10  21  37  58  83 112 147 185 228 277 329
#     4  10  21  38  61  88 117 150 188 231 280 333
#     4  10  21  37  57  81 110 145 184 227 276 329
#     4  10  22  39  59  84 114 148 186 230 279 331
#     4  10  21  37  57  82 112 145 184 229 276 328
#
# _framework density 19.249389000000001
#
# number of rings (size 3 to 8) (size 9 to 14) (size 15 to 20)
#    0.000    1.833    0.000    3.500    0.000    9.000 
#    0.000    6.667    0.000    0.000    0.000    0.000 
#    0.000    0.000    0.000    0.000    0.000    0.000 
#
# Total GULP energy -595477.517118 kJ/mol
# GULP energy per Si atom -12405.781607 kJ/mol
# Density = 1.920558 g / cm^3
# Si number density = 19.249389 Si / 1000 Ang^3
#
#
#
# Elastic Constant Matrix: (Units=GPa)
#
#
# Indices 1 2 3 4 5 6 
#
# 1 106.7617 54.9537 70.4497 0.0000 0.0000 0.0000
# 2 54.9537 105.4226 62.6571 0.0000 0.0000 0.0000
# 3 70.4497 62.6571 116.9964 0.0000 0.0000 0.0000
# 4 0.0000 0.0000 0.0000 35.1920 0.0000 0.0000
# 5 0.0000 0.0000 0.0000 0.0000 20.3328 0.0000
# 6 0.0000 0.0000 0.0000 0.0000 0.0000 35.5378
#
#
#
# Elastic Compliance Matrix: (Units=1/GPa)
#
#
# Indices 1 2 3 4 5 6 
#
# 1 0.016608 -0.003981 -0.007869 0.000000 0.000000 0.000000
# 2 -0.003981 0.014869 -0.005566 0.000000 0.000000 0.000000
# 3 -0.007869 -0.005566 0.016266 0.000000 0.000000 0.000000
# 4 0.000000 0.000000 0.000000 0.028416 0.000000 0.000000
# 5 0.000000 0.000000 0.000000 0.000000 0.049182 0.000000
# 6 0.000000 0.000000 0.000000 0.000000 0.000000 0.028139
#
#
# Mechanical properties :
#
#
# Convention : Reuss Voigt Hill
#
# Bulk Modulus (GPa) = 77.44496 78.36686 77.90591
# Shear Modulus (GPa) = 25.95868 27.62056 26.78962
#
# Velocity S-wave (km/s) = 3.67624 3.79209 3.73461
# Velocity P-wave (km/s) = 7.63802 7.74422 7.69131
#
# Compressibility (1/GPa) = 0.01291240
#
# Stress axis : x y z
#
# Youngs Moduli (GPa) = 60.21196 67.25557 61.47668
#
# Poissons Ratio (x) = 0.26771 0.48375
# Poissons Ratio (y) = 0.23967 0.34218
# Poissons Ratio (z) = 0.47380 0.37434
#
# Static dielectric constant tensor:
#      x y z
#    x 3.504910 0.000000 0.000000 
#    y 0.000000 3.659630 0.000000 
#    z 0.000000 0.000000 3.593970 
# 
# 
# High freq. dielectric constant tensor:
#      x y z
#    x 1.748530 0.000000 0.000000 
#    y 0.000000 1.763260 0.000000 
#    z 0.000000 0.000000 1.758280 
# 
# From -- ./inp_files/44565.got.cif
#   From: 2010.03.12/outbox.cif.g09.slc.cpg/sg67_23_cif.got.tgz:44565.got - 2010.04.10 22:41:39.
