data_PCOD8280169
_publ_section_title
;
Structure prediction by ZEFSAII (Michael W. Deem and Ramdas Pophale) SiO2 
 PCOD8280169
Probable space group: C M M A
;
_chemical_formula_sum "Si O2"
_cell_formula_units_Z 80
_cell_length_a 16.265177
_cell_length_b 18.097727
_cell_length_c 13.948846
_cell_angle_alpha 90.000000
_cell_angle_beta 90.000000
_cell_angle_gamma 90.000000
_cell_volume 4106.020430
_symmetry_space_group_name_H-M "C M M A"
_symmetry_group_IT_number 67
_symmetry_cell_setting 'orthorhombic'
loop_
_space_group_symop_operation_xyz
x,y,z
-x,1/2-y,z
x,-y,-z
-x,1/2+y,-z
-x,-y,-z
x,1/2+y,-z
-x,y,z
x,1/2-y,z
1/2+x,1/2+y,z
1/2-x,-y,z
1/2+x,1/2-y,-z
1/2-x,y,-z
1/2-x,1/2-y,-z
1/2+x,y,-z
1/2-x,1/2+y,z
1/2+x,-y,z
loop_
_atom_site_type_symbol
_atom_site_label
_atom_site_fract_x
_atom_site_fract_y
_atom_site_fract_z
Si Si1 0.097638 0.163986 0.408803
Si Si2 0.405724 0.107011 0.389669
Si Si3 0.402592 0.022908 0.103396
Si Si4 0.902384 0.330019 0.805110
Si Si5 0.340536 0.030881 0.700674
O O1 0.119892 0.250000 0.394987
O O2 0.133359 0.135018 0.510985
O O3 0.146277 0.116086 0.329183
O O4 0.000000 0.151208 0.398196
O O5 0.500000 0.129219 0.396271
O O6 0.364776 0.149751 0.299240
O O7 0.397843 0.019339 0.368810
O O8 0.500000 0.011931 0.108260
O O9 0.376026 0.108348 0.118042
O O10 0.363506 0.973486 0.187130
O O11 0.367267 0.000000 0.000000
O O12 0.868937 0.250000 0.838247
O O13 0.000000 0.329537 0.796072
O O14 0.250000 0.000000 0.683097
#
# Coordination Sequence:
#
# PCOD8280169 Si02
#       5
#    16  16  16  16  16
#     4  10  20  35  56  81 109 142 182 226 267 310
#     4   9  17  31  52  75 101 138 182 221 255 301
#     4   9  18  34  55  75  96 128 174 225 272 320
#     4   8  13  24  45  74 101 121 153 206 260 304
#     4  11  22  35  51  75 107 143 178 214 266 327
#
# _framework density 19.483585999999999
#
# number of rings (size 3 to 8) (size 9 to 14) (size 15 to 20)
#    0.000    2.600    0.000    4.200    0.000    6.000 
#    0.000    7.000    0.000    3.600    0.000    7.000 
#    0.000    0.000    0.000    0.000    0.000    0.000 
#
# Total GULP energy -495746.395645 kJ/mol
# GULP energy per Si atom -12393.659891 kJ/mol
# Density = 1.943924 g / cm^3
# Si number density = 19.483586 Si / 1000 Ang^3
#
#
#
# Elastic Constant Matrix: (Units=GPa)
#
#
# Indices 1 2 3 4 5 6 
#
# 1 31.5737 18.6513 27.7134 0.0000 0.0000 0.0000
# 2 18.6513 162.1492 95.8305 0.0000 0.0000 0.0000
# 3 27.7134 95.8305 150.7239 0.0000 0.0000 0.0000
# 4 0.0000 0.0000 0.0000 22.6087 0.0000 0.0000
# 5 0.0000 0.0000 0.0000 0.0000 10.5445 0.0000
# 6 0.0000 0.0000 0.0000 0.0000 0.0000 17.1161
#
#
#
# Elastic Compliance Matrix: (Units=1/GPa)
#
#
# Indices 1 2 3 4 5 6 
#
# 1 0.037782 -0.000385 -0.006702 0.000000 0.000000 0.000000
# 2 -0.000385 0.009883 -0.006213 0.000000 0.000000 0.000000
# 3 -0.006702 -0.006213 0.011817 0.000000 0.000000 0.000000
# 4 0.000000 0.000000 0.000000 0.044231 0.000000 0.000000
# 5 0.000000 0.000000 0.000000 0.000000 0.094836 0.000000
# 6 0.000000 0.000000 0.000000 0.000000 0.000000 0.058424
#
#
# Mechanical properties :
#
#
# Convention : Reuss Voigt Hill
#
# Bulk Modulus (GPa) = 30.41151 69.87080 50.14116
# Shear Modulus (GPa) = 16.97590 23.53730 20.25660
#
# Velocity S-wave (km/s) = 2.95497 3.47948 3.22790
# Velocity P-wave (km/s) = 5.22352 7.21676 6.29947
#
# Compressibility (1/GPa) = 0.03288229
#
# Stress axis : x y z
#
# Youngs Moduli (GPa) = 26.46760 101.17989 84.62180
#
# Poissons Ratio (x) = 0.03894 0.56716
# Poissons Ratio (y) = 0.01019 0.52576
# Poissons Ratio (z) = 0.17739 0.62864
#
# Static dielectric constant tensor:
#      x y z
#    x 3.148670 0.000000 0.000000 
#    y 0.000000 3.761560 0.000000 
#    z 0.000000 0.000000 3.582580 
# 
# 
# High freq. dielectric constant tensor:
#      x y z
#    x 1.720510 0.000000 0.000000 
#    y 0.000000 1.759550 0.000000 
#    z 0.000000 0.000000 1.747580 
# 
# From -- ./inp_files/28384.got.cif
#   From: 2010.03.12/outbox.cif.g09.slc.cpg/sg67_15_cif.got.tgz:28384.got - 2010.04.10 22:41:39.
