data_PCOD8280615
_publ_section_title
;
Structure prediction by ZEFSAII (Michael W. Deem and Ramdas Pophale) SiO2 
 PCOD8280615
Probable space group: C M M A
;
_chemical_formula_sum "Si O2"
_cell_formula_units_Z 56
_cell_length_a 10.379993
_cell_length_b 28.719142
_cell_length_c 9.310970
_cell_angle_alpha 90.000000
_cell_angle_beta 90.000000
_cell_angle_gamma 90.000000
_cell_volume 2775.641990
_symmetry_space_group_name_H-M "C M M A"
_symmetry_group_IT_number 67
_symmetry_cell_setting 'orthorhombic'
loop_
_space_group_symop_operation_xyz
x,y,z
-x,1/2-y,z
x,-y,-z
-x,1/2+y,-z
-x,-y,-z
x,1/2+y,-z
-x,y,z
x,1/2-y,z
1/2+x,1/2+y,z
1/2-x,-y,z
1/2+x,1/2-y,-z
1/2-x,y,-z
1/2-x,1/2-y,-z
1/2+x,y,-z
1/2-x,1/2+y,z
1/2+x,-y,z
loop_
_atom_site_type_symbol
_atom_site_label
_atom_site_fract_x
_atom_site_fract_y
_atom_site_fract_z
Si Si1 0.143978 0.570859 0.110084
Si Si2 0.352663 0.679140 0.880567
Si Si3 0.136193 0.549657 0.422918
Si Si4 0.648888 0.250000 0.368543
O O1 0.167941 0.624669 0.147939
O O2 0.163376 0.541753 0.255362
O O3 0.000000 0.563264 0.046163
O O4 0.250000 0.551732 0.000000
O O5 0.500000 0.689605 0.932503
O O6 0.325626 0.704764 0.730330
O O7 0.250000 0.696627 0.000000
O O8 0.128639 0.500000 0.500000
O O9 0.250000 0.579154 0.500000
O O10 0.000000 0.576466 0.442419
O O11 0.500000 0.250000 0.424872
O O12 0.750000 0.250000 0.500000
#
# Coordination Sequence:
#
# PCOD8280615 Si02
#       4
#    16  16  16   8
#     4   9  18  33  53  76 100 128 166 209 250 294
#     4   9  18  33  52  74 100 131 168 209 250 293
#     4   9  18  33  51  71  97 128 161 199 246 298
#     4  10  21  34  48  72 106 138 169 206 246 292
#
# _framework density 20.175514
#
# number of rings (size 3 to 8) (size 9 to 14) (size 15 to 20)
#    0.000    2.857    0.000    0.429    0.000    3.429 
#    0.000    2.857    0.000   15.429    0.000    0.000 
#    0.000    0.000    0.000    0.000    0.000    0.000 
#
# Total GULP energy -346891.776566 kJ/mol
# GULP energy per Si atom -12388.992020 kJ/mol
# Density = 2.012959 g / cm^3
# Si number density = 20.175514 Si / 1000 Ang^3
#
#
#
# Elastic Constant Matrix: (Units=GPa)
#
#
# Indices 1 2 3 4 5 6 
#
# 1 206.9390 13.5041 120.9933 0.0000 0.0000 0.0000
# 2 13.5041 39.9642 35.0377 0.0000 0.0000 0.0000
# 3 120.9933 35.0377 152.4701 0.0000 0.0000 0.0000
# 4 0.0000 0.0000 0.0000 26.7232 0.0000 0.0000
# 5 0.0000 0.0000 0.0000 0.0000 49.5227 0.0000
# 6 0.0000 0.0000 0.0000 0.0000 0.0000 -36.0244
#
#
#
# Elastic Compliance Matrix: (Units=1/GPa)
#
#
# Indices 1 2 3 4 5 6 
#
# 1 0.009568 0.004287 -0.008578 0.000000 0.000000 0.000000
# 2 0.004287 0.033257 -0.011045 0.000000 0.000000 0.000000
# 3 -0.008578 -0.011045 0.015904 0.000000 0.000000 0.000000
# 4 0.000000 0.000000 0.000000 0.037421 0.000000 0.000000
# 5 0.000000 0.000000 0.000000 0.000000 0.020193 0.000000
# 6 0.000000 0.000000 0.000000 0.000000 0.000000 -0.027759
#
#
# Mechanical properties :
#
#
# Convention : Reuss Voigt Hill
#
# Bulk Modulus (GPa) = 35.64032 82.04928 58.84480
# Shear Modulus (GPa) = 38.87835 23.36684 31.12260
#
# Velocity S-wave (km/s) = 4.39453 3.40689 3.93185
# Velocity P-wave (km/s) = 6.59187 7.49880 7.05991
#
# Compressibility (1/GPa) = 0.02805811
#
# Stress axis : x y z
#
# Youngs Moduli (GPa) = 104.51614 30.06896 62.87805
#
# Poissons Ratio (x) = -0.12892 0.53936
# Poissons Ratio (y) = -0.44811 0.69447
# Poissons Ratio (z) = 0.89653 0.33211
#
# Static dielectric constant tensor:
#      x y z
#    x 3.082570 0.000000 0.000000 
#    y 0.000000 3.403420 0.000000 
#    z 0.000000 0.000000 3.638810 
# 
# 
# High freq. dielectric constant tensor:
#      x y z
#    x 1.813490 0.000000 0.000000 
#    y 0.000000 1.762550 0.000000 
#    z 0.000000 0.000000 1.775930 
# 
# From -- ./inp_files/6645.got.cif
#   From: 2010.03.12/outbox.cif.g09.slc.cpg/sg67_4_cif.got.tgz:6645.got - 2010.04.10 22:41:39.
