data_PCOD8280314
_publ_section_title
;
Structure prediction by ZEFSAII (Michael W. Deem and Ramdas Pophale) SiO2 
 PCOD8280314
Probable space group: C M M A
;
_chemical_formula_sum "Si O2"
_cell_formula_units_Z 88
_cell_length_a 8.709561
_cell_length_b 20.783046
_cell_length_c 24.290960
_cell_angle_alpha 90.000000
_cell_angle_beta 90.000000
_cell_angle_gamma 90.000000
_cell_volume 4396.935986
_symmetry_space_group_name_H-M "C M M A"
_symmetry_group_IT_number 67
_symmetry_cell_setting 'orthorhombic'
loop_
_space_group_symop_operation_xyz
x,y,z
-x,1/2-y,z
x,-y,-z
-x,1/2+y,-z
-x,-y,-z
x,1/2+y,-z
-x,y,z
x,1/2-y,z
1/2+x,1/2+y,z
1/2-x,-y,z
1/2+x,1/2-y,-z
1/2-x,y,-z
1/2-x,1/2-y,-z
1/2+x,y,-z
1/2-x,1/2+y,z
1/2+x,-y,z
loop_
_atom_site_type_symbol
_atom_site_label
_atom_site_fract_x
_atom_site_fract_y
_atom_site_fract_z
Si Si1 0.179142 0.176080 0.866449
Si Si2 0.181412 0.566893 0.940231
Si Si3 0.322862 0.750000 0.441653
Si Si4 0.818215 0.064325 0.666986
Si Si5 0.681403 0.889073 0.439331
Si Si6 0.817840 0.179462 0.740980
O O1 0.212655 0.250000 0.884039
O O2 0.278533 0.127421 0.902328
O O3 0.231157 0.165269 0.803512
O O4 0.000000 0.160350 0.874273
O O5 0.250000 0.500000 0.916092
O O6 0.000000 0.559617 0.944588
O O7 0.250000 0.580691 0.000000
O O8 0.500000 0.750000 0.453647
O O9 0.250000 0.750000 0.500000
O O10 0.276809 0.682254 0.413820
O O11 0.760681 0.063778 0.603836
O O12 0.749972 0.124706 0.701040
O O13 0.000000 0.062794 0.668951
O O14 0.750000 0.000000 0.694818
O O15 0.500000 0.901535 0.441946
O O16 0.750000 0.900303 0.500000
O O17 0.754633 0.250000 0.722693
O O18 0.000000 0.180247 0.737258
#
# Coordination Sequence:
#
# PCOD8280314 Si02
#       6
#    16  16   8  16  16  16
#     4   9  18  36  61  87 117 152 191 236 287 341
#     4  11  22  37  57  83 118 157 200 243 288 340
#     4   8  16  30  50  76 106 134 166 210 257 312
#     4  11  23  38  57  82 113 147 185 228 276 333
#     4  10  20  36  56  81 111 143 180 222 275 332
#     4   8  17  36  61  86 111 145 188 232 280 334
#
# _framework density 20.013936999999999
#
# number of rings (size 3 to 8) (size 9 to 14) (size 15 to 20)
#    0.000    2.364    0.000    4.364    1.273    2.545 
#    0.000    5.455    0.000    2.182    0.000    0.000 
#    0.000    0.000    0.000    0.000    0.000    0.000 
#
# Total GULP energy -545294.107860 kJ/mol
# GULP energy per Si atom -12393.047906 kJ/mol
# Density = 1.996838 g / cm^3
# Si number density = 20.013937 Si / 1000 Ang^3
#
#
#
# Elastic Constant Matrix: (Units=GPa)
#
#
# Indices 1 2 3 4 5 6 
#
# 1 87.8076 50.1925 35.5386 0.0000 0.0000 0.0000
# 2 50.1925 154.6912 76.3384 0.0000 0.0000 0.0000
# 3 35.5386 76.3384 91.9531 0.0000 0.0000 0.0000
# 4 0.0000 0.0000 0.0000 28.6282 0.0000 0.0000
# 5 0.0000 0.0000 0.0000 0.0000 20.2909 0.0000
# 6 0.0000 0.0000 0.0000 0.0000 0.0000 31.5932
#
#
#
# Elastic Compliance Matrix: (Units=1/GPa)
#
#
# Indices 1 2 3 4 5 6 
#
# 1 0.014412 -0.003265 -0.002859 0.000000 0.000000 0.000000
# 2 -0.003265 0.011691 -0.008444 0.000000 0.000000 0.000000
# 3 -0.002859 -0.008444 0.018990 0.000000 0.000000 0.000000
# 4 0.000000 0.000000 0.000000 0.034931 0.000000 0.000000
# 5 0.000000 0.000000 0.000000 0.000000 0.049283 0.000000
# 6 0.000000 0.000000 0.000000 0.000000 0.000000 0.031652
#
#
# Mechanical properties :
#
#
# Convention : Reuss Voigt Hill
#
# Bulk Modulus (GPa) = 62.66984 73.17678 67.92331
# Shear Modulus (GPa) = 25.58666 27.59464 26.59065
#
# Velocity S-wave (km/s) = 3.57941 3.71721 3.64896
# Velocity P-wave (km/s) = 6.96161 7.42063 7.19478
#
# Compressibility (1/GPa) = 0.01595664
#
# Stress axis : x y z
#
# Youngs Moduli (GPa) = 69.38509 85.53742 52.65937
#
# Poissons Ratio (x) = 0.27930 0.15057
# Poissons Ratio (y) = 0.22656 0.44463
# Poissons Ratio (z) = 0.19840 0.72224
#
# Static dielectric constant tensor:
#      x y z
#    x 3.382770 0.000000 0.000000 
#    y 0.000000 4.221740 0.000000 
#    z 0.000000 0.000000 3.516420 
# 
# 
# High freq. dielectric constant tensor:
#      x y z
#    x 1.766040 0.000000 0.000000 
#    y 0.000000 1.800880 0.000000 
#    z 0.000000 0.000000 1.766210 
# 
# From -- ./inp_files/40651.got.cif
#   From: 2010.03.12/outbox.cif.g09.slc.cpg/sg67_21_cif.got.tgz:40651.got - 2010.04.10 22:41:39.
