data_PCOD8280064
_publ_section_title
;
Structure prediction by ZEFSAII (Michael W. Deem and Ramdas Pophale) SiO2 
 PCOD8280064
Probable space group: C M M A
;
_chemical_formula_sum "Si O2"
_cell_formula_units_Z 88
_cell_length_a 30.468633
_cell_length_b 8.671238
_cell_length_c 17.567369
_cell_angle_alpha 90.000000
_cell_angle_beta 90.000000
_cell_angle_gamma 90.000000
_cell_volume 4641.312386
_symmetry_space_group_name_H-M "C M M A"
_symmetry_group_IT_number 67
_symmetry_cell_setting 'orthorhombic'
loop_
_space_group_symop_operation_xyz
x,y,z
-x,1/2-y,z
x,-y,-z
-x,1/2+y,-z
-x,-y,-z
x,1/2+y,-z
-x,y,z
x,1/2-y,z
1/2+x,1/2+y,z
1/2-x,-y,z
1/2+x,1/2-y,-z
1/2-x,y,-z
1/2-x,1/2-y,-z
1/2+x,y,-z
1/2-x,1/2+y,z
1/2+x,-y,z
loop_
_atom_site_type_symbol
_atom_site_label
_atom_site_fract_x
_atom_site_fract_y
_atom_site_fract_z
Si Si1 0.294272 0.927612 0.260682
Si Si2 0.087047 0.569960 0.360951
Si Si3 0.171655 0.432776 0.422188
Si Si4 0.500000 0.568928 0.417523
Si Si5 0.549821 0.069058 0.083302
Si Si6 0.112631 0.929905 0.793409
O O1 0.284955 0.750000 0.271130
O O2 0.304018 0.994824 0.345889
O O3 0.334463 0.955632 0.201471
O O4 0.250000 0.000000 0.226435
O O5 0.084406 0.750000 0.379008
O O6 0.121857 0.492887 0.417821
O O7 0.041246 0.488544 0.371437
O O8 0.097666 0.541709 0.273288
O O9 0.193308 0.500000 0.500000
O O10 0.171951 0.250000 0.425791
O O11 0.500000 0.750000 0.423345
O O12 0.500000 0.500000 0.500000
O O13 0.500000 0.040735 0.114334
O O14 0.560566 0.250000 0.082086
O O15 0.586524 0.980137 0.131824
O O16 0.553894 0.000000 0.000000
O O17 0.103114 0.750000 0.774949
#
# Coordination Sequence:
#
# PCOD8280064 Si02
#       6
#    16  16  16   8  16  16
#     4   9  20  36  55  79 108 142 185 232 281 338
#     4  11  22  36  53  75 102 138 183 229 275 329
#     4  10  20  35  52  74 103 138 180 228 284 340
#     4  12  24  38  52  70  99 138 181 230 280 328
#     4  10  21  37  59  89 122 154 188 224 267 322
#     4  10  21  38  58  83 114 149 185 225 276 329
#
# _framework density 18.960153999999999
#
# number of rings (size 3 to 8) (size 9 to 14) (size 15 to 20)
#    0.000    1.818    0.000    5.727    1.273    5.818 
#    0.000    1.818    0.000    0.545    0.000    3.818 
#    0.000    0.000    0.000    0.000    0.000    0.000 
#
# Total GULP energy -545467.633028 kJ/mol
# GULP energy per Si atom -12396.991660 kJ/mol
# Density = 1.891700 g / cm^3
# Si number density = 18.960154 Si / 1000 Ang^3
#
#
#
# Elastic Constant Matrix: (Units=GPa)
#
#
# Indices 1 2 3 4 5 6 
#
# 1 128.0408 44.5059 36.0580 0.0000 0.0000 0.0000
# 2 44.5059 98.9347 22.6869 0.0000 0.0000 0.0000
# 3 36.0580 22.6869 66.3176 0.0000 0.0000 0.0000
# 4 0.0000 0.0000 0.0000 33.6029 0.0000 0.0000
# 5 0.0000 0.0000 0.0000 0.0000 15.7632 0.0000
# 6 0.0000 0.0000 0.0000 0.0000 0.0000 30.7741
#
#
#
# Elastic Compliance Matrix: (Units=1/GPa)
#
#
# Indices 1 2 3 4 5 6 
#
# 1 0.010300 -0.003634 -0.004357 0.000000 0.000000 0.000000
# 2 -0.003634 0.012251 -0.002215 0.000000 0.000000 0.000000
# 3 -0.004357 -0.002215 0.018206 0.000000 0.000000 0.000000
# 4 0.000000 0.000000 0.000000 0.029759 0.000000 0.000000
# 5 0.000000 0.000000 0.000000 0.000000 0.063439 0.000000
# 6 0.000000 0.000000 0.000000 0.000000 0.000000 0.032495
#
#
# Mechanical properties :
#
#
# Convention : Reuss Voigt Hill
#
# Bulk Modulus (GPa) = 49.15490 55.53274 52.34382
# Shear Modulus (GPa) = 25.82065 28.69753 27.25909
#
# Velocity S-wave (km/s) = 3.69431 3.89468 3.79582
# Velocity P-wave (km/s) = 6.64672 7.04113 6.84677
#
# Compressibility (1/GPa) = 0.02034385
#
# Stress axis : x y z
#
# Youngs Moduli (GPa) = 97.08400 81.62926 54.92801
#
# Poissons Ratio (x) = 0.29668 0.23933
# Poissons Ratio (y) = 0.35285 0.12165
# Poissons Ratio (z) = 0.42301 0.18078
#
# Static dielectric constant tensor:
#      x y z
#    x 3.684400 0.000000 0.000000 
#    y 0.000000 3.516020 0.000000 
#    z 0.000000 0.000000 3.299790 
# 
# 
# High freq. dielectric constant tensor:
#      x y z
#    x 1.740090 0.000000 0.000000 
#    y 0.000000 1.749600 0.000000 
#    z 0.000000 0.000000 1.712910 
# 
# From -- ./inp_files/32408.got.cif
#   From: 2010.03.12/outbox.cif.g09.slc.cpg/sg67_17_cif.got.tgz:32408.got - 2010.04.10 22:41:39.
