data_PCOD8280975
_publ_section_title
;
Structure prediction by ZEFSAII (Michael W. Deem and Ramdas Pophale) SiO2 
 PCOD8280975
Probable space group: C M M A
;
_chemical_formula_sum "Si O2"
_cell_formula_units_Z 64
_cell_length_a 16.233544
_cell_length_b 20.596732
_cell_length_c 8.816676
_cell_angle_alpha 90.000000
_cell_angle_beta 90.000000
_cell_angle_gamma 90.000000
_cell_volume 2947.925759
_symmetry_space_group_name_H-M "C M M A"
_symmetry_group_IT_number 67
_symmetry_cell_setting 'orthorhombic'
loop_
_space_group_symop_operation_xyz
x,y,z
-x,1/2-y,z
x,-y,-z
-x,1/2+y,-z
-x,-y,-z
x,1/2+y,-z
-x,y,z
x,1/2-y,z
1/2+x,1/2+y,z
1/2-x,-y,z
1/2+x,1/2-y,-z
1/2-x,y,-z
1/2-x,1/2-y,-z
1/2+x,y,-z
1/2-x,1/2+y,z
1/2+x,-y,z
loop_
_atom_site_type_symbol
_atom_site_label
_atom_site_fract_x
_atom_site_fract_y
_atom_site_fract_z
Si Si1 0.841357 0.434497 0.565541
Si Si2 0.406660 0.177716 0.622622
Si Si3 0.341418 0.675930 0.056423
Si Si4 0.906116 0.942049 0.110496
O O1 0.882632 0.500000 0.500000
O O2 0.750000 0.427827 0.500000
O O3 0.892494 0.371845 0.514151
O O4 0.844259 0.439667 0.747099
O O5 0.500000 0.171412 0.682348
O O6 0.389968 0.250000 0.558308
O O7 0.345901 0.163285 0.763047
O O8 0.367824 0.750000 0.019070
O O9 0.250000 0.661078 0.000000
O O10 0.403166 0.626836 0.974446
O O11 0.000000 0.954336 0.164301
O O12 0.876545 0.000000 0.000000
#
# Coordination Sequence:
#
# PCOD8280975 Si02
#       4
#    16  16  16  16
#     4  11  24  41  61  88 120 158 204 251 305 364
#     4  10  21  38  61  88 120 160 202 245 297 358
#     4  10  21  38  61  89 121 159 203 251 304 361
#     4  11  24  40  62  92 124 161 204 253 308 366
#
# _framework density 21.710180999999999
#
# number of rings (size 3 to 8) (size 9 to 14) (size 15 to 20)
#    0.000    1.500    0.000    4.500    0.000    9.500 
#    0.000    0.000    0.000    0.000    0.000    0.000 
#    0.000    0.000    0.000    0.000    0.000    0.000 
#
# Total GULP energy -396895.192310 kJ/mol
# GULP energy per Si atom -12402.974760 kJ/mol
# Density = 2.166077 g / cm^3
# Si number density = 21.710181 Si / 1000 Ang^3
#
#
#
# Elastic Constant Matrix: (Units=GPa)
#
#
# Indices 1 2 3 4 5 6 
#
# 1 80.4687 35.3617 45.9464 0.0000 0.0000 0.0000
# 2 35.3617 163.0711 79.6717 0.0000 0.0000 0.0000
# 3 45.9464 79.6717 144.7304 0.0000 0.0000 0.0000
# 4 0.0000 0.0000 0.0000 43.4784 0.0000 0.0000
# 5 0.0000 0.0000 0.0000 0.0000 30.6626 0.0000
# 6 0.0000 0.0000 0.0000 0.0000 0.0000 29.9049
#
#
#
# Elastic Compliance Matrix: (Units=1/GPa)
#
#
# Indices 1 2 3 4 5 6 
#
# 1 0.015377 -0.001299 -0.004167 0.000000 0.000000 0.000000
# 2 -0.001299 0.008498 -0.004266 0.000000 0.000000 0.000000
# 3 -0.004167 -0.004266 0.010580 0.000000 0.000000 0.000000
# 4 0.000000 0.000000 0.000000 0.023000 0.000000 0.000000
# 5 0.000000 0.000000 0.000000 0.000000 0.032613 0.000000
# 6 0.000000 0.000000 0.000000 0.000000 0.000000 0.033439
#
#
# Mechanical properties :
#
#
# Convention : Reuss Voigt Hill
#
# Bulk Modulus (GPa) = 66.69725 78.91440 72.80583
# Shear Modulus (GPa) = 33.79114 35.96187 34.87650
#
# Velocity S-wave (km/s) = 3.94949 4.07437 4.01241
# Velocity P-wave (km/s) = 7.18236 7.65258 7.42119
#
# Compressibility (1/GPa) = 0.01499312
#
# Stress axis : x y z
#
# Youngs Moduli (GPa) = 65.03203 117.67433 94.51469
#
# Poissons Ratio (x) = 0.15283 0.39381
# Poissons Ratio (y) = 0.08446 0.40317
# Poissons Ratio (z) = 0.27097 0.50197
#
# Static dielectric constant tensor:
#      x y z
#    x 3.672040 0.000000 0.000000 
#    y 0.000000 4.258830 0.000000 
#    z 0.000000 0.000000 3.711960 
# 
# 
# High freq. dielectric constant tensor:
#      x y z
#    x 1.844050 0.000000 0.000000 
#    y 0.000000 1.874040 0.000000 
#    z 0.000000 0.000000 1.845140 
# 
# From -- ./inp_files/7992.got.cif
#   From: 2010.03.12/outbox.cif.g09.slc.cpg/sg67_4_cif.got.tgz:7992.got - 2010.04.10 22:41:39.
