data_PCOD8280647
_publ_section_title
;
Structure prediction by ZEFSAII (Michael W. Deem and Ramdas Pophale) SiO2 
 PCOD8280647
Probable space group: C M M A
;
_chemical_formula_sum "Si O2"
_cell_formula_units_Z 80
_cell_length_a 16.268472
_cell_length_b 27.670644
_cell_length_c 8.651017
_cell_angle_alpha 90.000000
_cell_angle_beta 90.000000
_cell_angle_gamma 90.000000
_cell_volume 3894.334002
_symmetry_space_group_name_H-M "C M M A"
_symmetry_group_IT_number 67
_symmetry_cell_setting 'orthorhombic'
loop_
_space_group_symop_operation_xyz
x,y,z
-x,1/2-y,z
x,-y,-z
-x,1/2+y,-z
-x,-y,-z
x,1/2+y,-z
-x,y,z
x,1/2-y,z
1/2+x,1/2+y,z
1/2-x,-y,z
1/2+x,1/2-y,-z
1/2-x,y,-z
1/2-x,1/2-y,-z
1/2+x,y,-z
1/2-x,1/2+y,z
1/2+x,-y,z
loop_
_atom_site_type_symbol
_atom_site_label
_atom_site_fract_x
_atom_site_fract_y
_atom_site_fract_z
Si Si1 0.329672 0.621013 0.103001
Si Si2 0.907821 0.061586 0.605415
Si Si3 0.249860 0.304750 0.679295
Si Si4 0.093164 0.847594 0.191007
Si Si5 0.834903 0.470786 0.301788
O O1 0.314520 0.659694 0.238660
O O2 0.350424 0.567990 0.167601
O O3 0.250000 0.615806 0.000000
O O4 0.402044 0.640778 0.992253
O O5 0.879936 0.104723 0.715520
O O6 0.842473 0.057541 0.465559
O O7 0.000000 0.070080 0.542571
O O8 0.905820 0.011684 0.704077
O O9 0.280975 0.250000 0.702635
O O10 0.250000 0.318856 0.500000
O O11 0.158305 0.307422 0.754056
O O12 0.000000 0.830897 0.228546
O O13 0.750000 0.500000 0.285488
#
# Coordination Sequence:
#
# PCOD8280647 Si02
#       5
#    16  16  16  16  16
#     4  10  22  36  54  82 111 143 183 226 279 335
#     4  10  21  35  51  76 110 148 186 225 274 323
#     4  10  21  40  64  85 108 143 186 232 284 340
#     4  10  22  38  57  84 117 150 185 230 283 338
#     4  11  20  32  53  78 106 145 193 235 267 316
#
# _framework density 20.542666000000001
#
# number of rings (size 3 to 8) (size 9 to 14) (size 15 to 20)
#    0.000    1.800    0.000    6.000    0.000   10.000 
#    0.000    3.000    0.000    1.200    0.000    0.000 
#    0.000    0.000    0.000    0.000    0.000    0.000 
#
# Total GULP energy -495836.994347 kJ/mol
# GULP energy per Si atom -12395.924859 kJ/mol
# Density = 2.049591 g / cm^3
# Si number density = 20.542666 Si / 1000 Ang^3
#
#
#
# Elastic Constant Matrix: (Units=GPa)
#
#
# Indices 1 2 3 4 5 6 
#
# 1 53.0236 -3.3201 10.2144 0.0000 0.0000 0.0000
# 2 -3.3201 68.6929 30.6762 0.0000 0.0000 0.0000
# 3 10.2144 30.6762 92.2062 0.0000 0.0000 0.0000
# 4 0.0000 0.0000 0.0000 22.5734 0.0000 0.0000
# 5 0.0000 0.0000 0.0000 0.0000 21.2105 0.0000
# 6 0.0000 0.0000 0.0000 0.0000 0.0000 24.4040
#
#
#
# Elastic Compliance Matrix: (Units=1/GPa)
#
#
# Indices 1 2 3 4 5 6 
#
# 1 0.019562 0.002247 -0.002915 0.000000 0.000000 0.000000
# 2 0.002247 0.017356 -0.006023 0.000000 0.000000 0.000000
# 3 -0.002915 -0.006023 0.013172 0.000000 0.000000 0.000000
# 4 0.000000 0.000000 0.000000 0.044300 0.000000 0.000000
# 5 0.000000 0.000000 0.000000 0.000000 0.047146 0.000000
# 6 0.000000 0.000000 0.000000 0.000000 0.000000 0.040977
#
#
# Mechanical properties :
#
#
# Convention : Reuss Voigt Hill
#
# Bulk Modulus (GPa) = 27.24180 32.11819 29.67999
# Shear Modulus (GPa) = 24.02344 25.39440 24.70892
#
# Velocity S-wave (km/s) = 3.42342 3.51975 3.47192
# Velocity P-wave (km/s) = 5.37739 5.67336 5.52735
#
# Compressibility (1/GPa) = 0.03670829
#
# Stress axis : x y z
#
# Youngs Moduli (GPa) = 51.12036 57.61733 75.91893
#
# Poissons Ratio (x) = -0.12947 0.22127
# Poissons Ratio (y) = -0.11487 0.45727
# Poissons Ratio (z) = 0.14899 0.34703
#
# Static dielectric constant tensor:
#      x y z
#    x 3.668600 0.000000 0.000000 
#    y 0.000000 3.731140 0.000000 
#    z 0.000000 0.000000 3.978680 
# 
# 
# High freq. dielectric constant tensor:
#      x y z
#    x 1.787820 0.000000 0.000000 
#    y 0.000000 1.801720 0.000000 
#    z 0.000000 0.000000 1.802720 
# 
# From -- ./inp_files/10138.got.cif
#   From: 2010.03.12/outbox.cif.g09.slc.cpg/sg67_6_cif.got.tgz:10138.got - 2010.04.10 22:41:39.
