data_PCOD8280904
_publ_section_title
;
Structure prediction by ZEFSAII (Michael W. Deem and Ramdas Pophale) SiO2 
 PCOD8280904
Probable space group: C M M A
;
_chemical_formula_sum "Si O2"
_cell_formula_units_Z 52
_cell_length_a 33.382791
_cell_length_b 10.303633
_cell_length_c 7.125152
_cell_angle_alpha 90.000000
_cell_angle_beta 90.000000
_cell_angle_gamma 90.000000
_cell_volume 2450.795975
_symmetry_space_group_name_H-M "C M M A"
_symmetry_group_IT_number 67
_symmetry_cell_setting 'orthorhombic'
loop_
_space_group_symop_operation_xyz
x,y,z
-x,1/2-y,z
x,-y,-z
-x,1/2+y,-z
-x,-y,-z
x,1/2+y,-z
-x,y,z
x,1/2-y,z
1/2+x,1/2+y,z
1/2-x,-y,z
1/2+x,1/2-y,-z
1/2-x,y,-z
1/2-x,1/2-y,-z
1/2+x,y,-z
1/2-x,1/2+y,z
1/2+x,-y,z
loop_
_atom_site_type_symbol
_atom_site_label
_atom_site_fract_x
_atom_site_fract_y
_atom_site_fract_z
Si Si1 0.544302 0.603875 0.660787
Si Si2 0.624798 0.393816 0.142749
Si Si3 0.702278 0.605327 0.655359
Si Si4 0.250000 0.500000 0.000000
O O1 0.549705 0.500000 0.500000
O O2 0.500000 0.589586 0.753332
O O3 0.549672 0.750000 0.578810
O O4 0.578636 0.575741 0.811057
O O5 0.628155 0.250000 0.053054
O O6 0.654060 0.403673 0.322522
O O7 0.640746 0.500000 0.000000
O O8 0.716426 0.500000 0.500000
O O9 0.713612 0.750000 0.582794
O O10 0.722479 0.585626 0.860250
#
# Coordination Sequence:
#
# PCOD8280904 Si02
#       4
#    16  16  16   4
#     4   9  18  33  54  81 114 151 194 242 292 349
#     4  10  21  38  58  84 118 156 198 245 297 354
#     4  11  25  43  66  94 124 162 204 251 306 365
#     4  12  24  44  68  92 124 160 202 254 302 374
#
# _framework density 21.217597000000001
#
# number of rings (size 3 to 8) (size 9 to 14) (size 15 to 20)
#    0.000    1.846    1.538    1.846    0.000    6.769 
#    0.000    0.000    0.000    0.000    0.000    0.000 
#    0.000    0.000    0.000    0.000    0.000    0.000 
#
# Total GULP energy -322191.883677 kJ/mol
# GULP energy per Si atom -12391.995526 kJ/mol
# Density = 2.116930 g / cm^3
# Si number density = 21.217597 Si / 1000 Ang^3
#
#
#
# Elastic Constant Matrix: (Units=GPa)
#
#
# Indices 1 2 3 4 5 6 
#
# 1 115.6127 44.7771 33.1513 0.0000 0.0000 0.0000
# 2 44.7771 146.0550 63.4498 0.0000 0.0000 0.0000
# 3 33.1513 63.4498 90.6577 0.0000 0.0000 0.0000
# 4 0.0000 0.0000 0.0000 36.8090 0.0000 0.0000
# 5 0.0000 0.0000 0.0000 0.0000 21.6686 0.0000
# 6 0.0000 0.0000 0.0000 0.0000 0.0000 36.5213
#
#
#
# Elastic Compliance Matrix: (Units=1/GPa)
#
#
# Indices 1 2 3 4 5 6 
#
# 1 0.010110 -0.002146 -0.002195 0.000000 0.000000 0.000000
# 2 -0.002146 0.010293 -0.006419 0.000000 0.000000 0.000000
# 3 -0.002195 -0.006419 0.016326 0.000000 0.000000 0.000000
# 4 0.000000 0.000000 0.000000 0.027167 0.000000 0.000000
# 5 0.000000 0.000000 0.000000 0.000000 0.046150 0.000000
# 6 0.000000 0.000000 0.000000 0.000000 0.000000 0.027381
#
#
# Mechanical properties :
#
#
# Convention : Reuss Voigt Hill
#
# Bulk Modulus (GPa) = 65.75235 70.56464 68.15850
# Shear Modulus (GPa) = 30.48437 33.06292 31.77365
#
# Velocity S-wave (km/s) = 3.79456 3.95179 3.87397
# Velocity P-wave (km/s) = 7.08908 7.35880 7.22520
#
# Compressibility (1/GPa) = 0.01520858
#
# Stress axis : x y z
#
# Youngs Moduli (GPa) = 98.91073 97.14964 61.25165
#
# Poissons Ratio (x) = 0.20848 0.13446
# Poissons Ratio (y) = 0.21225 0.39320
# Poissons Ratio (z) = 0.21712 0.62365
#
# Static dielectric constant tensor:
#      x y z
#    x 4.243760 0.000000 0.000000 
#    y 0.000000 3.952340 0.000000 
#    z 0.000000 0.000000 3.249600 
# 
# 
# High freq. dielectric constant tensor:
#      x y z
#    x 1.867750 0.000000 0.000000 
#    y 0.000000 1.845810 0.000000 
#    z 0.000000 0.000000 1.780470 
# 
# From -- ./inp_files/14288.got.cif
#   From: 2010.03.12/outbox.cif.g09.slc.cpg/sg67_8_cif.got.tgz:14288.got - 2010.04.10 22:41:39.
