data_PCOD8280579
_publ_section_title
;
Structure prediction by ZEFSAII (Michael W. Deem and Ramdas Pophale) SiO2 
 PCOD8280579
Probable space group: C M M A
;
_chemical_formula_sum "Si O2"
_cell_formula_units_Z 112
_cell_length_a 27.828264
_cell_length_b 17.283464
_cell_length_c 11.560364
_cell_angle_alpha 90.000000
_cell_angle_beta 90.000000
_cell_angle_gamma 90.000000
_cell_volume 5560.174389
_symmetry_space_group_name_H-M "C M M A"
_symmetry_group_IT_number 67
_symmetry_cell_setting 'orthorhombic'
loop_
_space_group_symop_operation_xyz
x,y,z
-x,1/2-y,z
x,-y,-z
-x,1/2+y,-z
-x,-y,-z
x,1/2+y,-z
-x,y,z
x,1/2-y,z
1/2+x,1/2+y,z
1/2-x,-y,z
1/2+x,1/2-y,-z
1/2-x,y,-z
1/2-x,1/2-y,-z
1/2+x,y,-z
1/2-x,1/2+y,z
1/2+x,-y,z
loop_
_atom_site_type_symbol
_atom_site_label
_atom_site_fract_x
_atom_site_fract_y
_atom_site_fract_z
Si Si1 0.694316 0.483852 0.368752
Si Si2 0.444188 0.838306 0.356632
Si Si3 0.122282 0.439513 0.202554
Si Si4 0.648096 0.661256 0.735232
Si Si5 0.947869 0.057183 0.895629
Si Si6 0.124454 0.662142 0.011980
Si Si7 0.552492 0.159192 0.389251
O O1 0.677953 0.500000 0.500000
O O2 0.750000 0.500000 0.352172
O O3 0.667064 0.543061 0.284678
O O4 0.683661 0.394504 0.335327
O O5 0.500000 0.847723 0.326706
O O6 0.427628 0.750000 0.350744
O O7 0.414786 0.881661 0.259802
O O8 0.433138 0.873966 0.484082
O O9 0.094436 0.520373 0.183360
O O10 0.142416 0.398266 0.085760
O O11 0.656909 0.750000 0.694022
O O12 0.657778 0.654534 0.872925
O O13 0.592179 0.637236 0.706681
O O14 0.929454 0.139160 0.947311
O O15 0.000000 0.069125 0.833602
O O16 0.956264 0.000000 0.000000
O O17 0.124737 0.750000 0.965109
O O18 0.500000 0.126171 0.351649
O O19 0.547751 0.250000 0.405745
#
# Coordination Sequence:
#
# PCOD8280579 Si02
#       7
#    16  16  16  16  16  16  16
#     4  11  25  45  67  94 119 153 205 262 322 388
#     4   9  17  30  51  82 120 161 205 254 304 360
#     4  11  20  37  59  83 120 163 203 254 313 361
#     4  10  20  39  62  87 124 163 196 248 308 360
#     4   9  18  32  52  81 121 163 200 238 288 352
#     4  10  21  36  58  88 121 159 206 245 290 362
#     4   8  15  29  51  81 116 156 201 244 293 355
#
# _framework density 20.143252
#
# number of rings (size 3 to 8) (size 9 to 14) (size 15 to 20)
#    0.000    2.286    1.429    2.571    0.000    1.429 
#    0.000    6.429    0.000    4.714    0.000    0.000 
#    0.000    0.000    0.000    0.000    0.000    0.000 
#
# Total GULP energy -694025.450652 kJ/mol
# GULP energy per Si atom -12393.311619 kJ/mol
# Density = 2.009741 g / cm^3
# Si number density = 20.143252 Si / 1000 Ang^3
#
#
#
# Elastic Constant Matrix: (Units=GPa)
#
#
# Indices 1 2 3 4 5 6 
#
# 1 82.9488 35.8848 42.1611 0.0000 0.0000 0.0000
# 2 35.8848 107.7078 47.3919 0.0000 0.0000 0.0000
# 3 42.1611 47.3919 125.2481 0.0000 0.0000 0.0000
# 4 0.0000 0.0000 0.0000 33.1051 0.0000 0.0000
# 5 0.0000 0.0000 0.0000 0.0000 15.9066 0.0000
# 6 0.0000 0.0000 0.0000 0.0000 0.0000 30.0360
#
#
#
# Elastic Compliance Matrix: (Units=1/GPa)
#
#
# Indices 1 2 3 4 5 6 
#
# 1 0.015545 -0.003451 -0.003927 0.000000 0.000000 0.000000
# 2 -0.003451 0.011905 -0.003343 0.000000 0.000000 0.000000
# 3 -0.003927 -0.003343 0.010571 0.000000 0.000000 0.000000
# 4 0.000000 0.000000 0.000000 0.030207 0.000000 0.000000
# 5 0.000000 0.000000 0.000000 0.000000 0.062867 0.000000
# 6 0.000000 0.000000 0.000000 0.000000 0.000000 0.033293
#
#
# Mechanical properties :
#
#
# Convention : Reuss Voigt Hill
#
# Bulk Modulus (GPa) = 60.31803 62.97560 61.64681
# Shear Modulus (GPa) = 26.12936 28.50734 27.31835
#
# Velocity S-wave (km/s) = 3.60554 3.76604 3.68666
# Velocity P-wave (km/s) = 6.88061 7.08819 6.98517
#
# Compressibility (1/GPa) = 0.01657879
#
# Stress axis : x y z
#
# Youngs Moduli (GPa) = 64.33130 83.99752 94.59926
#
# Poissons Ratio (x) = 0.28989 0.37147
# Poissons Ratio (y) = 0.22202 0.31624
# Poissons Ratio (z) = 0.25261 0.28080
#
# Static dielectric constant tensor:
#      x y z
#    x 3.341820 0.000000 0.000000 
#    y 0.000000 3.667440 0.000000 
#    z 0.000000 0.000000 3.825780 
# 
# 
# High freq. dielectric constant tensor:
#      x y z
#    x 1.743520 0.000000 0.000000 
#    y 0.000000 1.790380 0.000000 
#    z 0.000000 0.000000 1.802540 
# 
# From -- ./inp_files/23781.got.cif
#   From: 2010.03.12/outbox.cif.g09.slc.cpg/sg67_12_cif.got.tgz:23781.got - 2010.04.10 22:41:39.
