data_PCOD8280954
_publ_section_title
;
Structure prediction by ZEFSAII (Michael W. Deem and Ramdas Pophale) SiO2 
 PCOD8280954
Probable space group: C M M A
;
_chemical_formula_sum "Si O2"
_cell_formula_units_Z 96
_cell_length_a 16.410780
_cell_length_b 19.434753
_cell_length_c 14.807495
_cell_angle_alpha 90.000000
_cell_angle_beta 90.000000
_cell_angle_gamma 90.000000
_cell_volume 4722.694398
_symmetry_space_group_name_H-M "C M M A"
_symmetry_group_IT_number 67
_symmetry_cell_setting 'orthorhombic'
loop_
_space_group_symop_operation_xyz
x,y,z
-x,1/2-y,z
x,-y,-z
-x,1/2+y,-z
-x,-y,-z
x,1/2+y,-z
-x,y,z
x,1/2-y,z
1/2+x,1/2+y,z
1/2-x,-y,z
1/2+x,1/2-y,-z
1/2-x,y,-z
1/2-x,1/2-y,-z
1/2+x,y,-z
1/2-x,1/2+y,z
1/2+x,-y,z
loop_
_atom_site_type_symbol
_atom_site_label
_atom_site_fract_x
_atom_site_fract_y
_atom_site_fract_z
Si Si1 0.167708 0.669160 0.132630
Si Si2 0.592209 0.920838 0.023685
Si Si3 0.838988 0.415434 0.541301
Si Si4 0.802209 0.070670 0.194159
Si Si5 0.911782 0.329310 0.684304
Si Si6 0.093848 0.053303 0.369537
O O1 0.180242 0.750000 0.109395
O O2 0.145465 0.627288 0.042358
O O3 0.247823 0.637882 0.178503
O O4 0.099561 0.657571 0.208979
O O5 0.500000 0.893001 0.021176
O O6 0.625354 0.919883 0.124024
O O7 0.597892 0.000000 0.000000
O O8 0.750000 0.426803 0.500000
O O9 0.841126 0.358240 0.619322
O O10 0.897053 0.395360 0.455749
O O11 0.872687 0.481753 0.592822
O O12 0.845670 0.075686 0.290352
O O13 0.750000 0.000000 0.182548
O O14 0.911876 0.250000 0.663781
O O15 0.000000 0.362150 0.660046
O O16 0.000000 0.049315 0.336683
#
# Coordination Sequence:
#
# PCOD8280954 Si02
#       6
#    16  16  16  16  16  16
#     4  11  24  42  66  94 126 165 209 259 317 377
#     4  11  24  41  63  93 125 162 208 257 312 370
#     4  11  21  36  58  88 122 160 204 258 314 372
#     4  12  23  40  63  90 125 164 207 263 313 374
#     4  10  21  38  60  87 119 157 203 255 310 370
#     4  11  22  37  59  87 121 161 207 256 311 370
#
# _framework density 20.327379000000001
#
# number of rings (size 3 to 8) (size 9 to 14) (size 15 to 20)
#    0.000    1.000    1.667    7.500    0.000    2.667 
#    0.000    0.833    0.000    2.500    0.000    0.000 
#    0.000    0.000    0.000    0.000    0.000    0.000 
#
# Total GULP energy -594768.211784 kJ/mol
# GULP energy per Si atom -12391.004412 kJ/mol
# Density = 2.028111 g / cm^3
# Si number density = 20.327379 Si / 1000 Ang^3
#
#
#
# Elastic Constant Matrix: (Units=GPa)
#
#
# Indices 1 2 3 4 5 6 
#
# 1 80.3738 21.5539 15.5214 0.0000 0.0000 0.0000
# 2 21.5539 63.7391 32.7981 0.0000 0.0000 0.0000
# 3 15.5214 32.7981 123.5096 0.0000 0.0000 0.0000
# 4 0.0000 0.0000 0.0000 27.1330 0.0000 0.0000
# 5 0.0000 0.0000 0.0000 0.0000 6.5598 0.0000
# 6 0.0000 0.0000 0.0000 0.0000 0.0000 23.6623
#
#
#
# Elastic Compliance Matrix: (Units=1/GPa)
#
#
# Indices 1 2 3 4 5 6 
#
# 1 0.013717 -0.004345 -0.000570 0.000000 0.000000 0.000000
# 2 -0.004345 0.019549 -0.004645 0.000000 0.000000 0.000000
# 3 -0.000570 -0.004645 0.009402 0.000000 0.000000 0.000000
# 4 0.000000 0.000000 0.000000 0.036855 0.000000 0.000000
# 5 0.000000 0.000000 0.000000 0.000000 0.152445 0.000000
# 6 0.000000 0.000000 0.000000 0.000000 0.000000 0.042261
#
#
# Mechanical properties :
#
#
# Convention : Reuss Voigt Hill
#
# Bulk Modulus (GPa) = 42.46861 45.26326 43.86594
# Shear Modulus (GPa) = 16.60035 24.65428 20.62731
#
# Velocity S-wave (km/s) = 2.86081 3.48639 3.18898
# Velocity P-wave (km/s) = 5.64358 6.20661 5.93178
#
# Compressibility (1/GPa) = 0.02354680
#
# Stress axis : x y z
#
# Youngs Moduli (GPa) = 72.90112 51.15459 106.36413
#
# Poissons Ratio (x) = 0.22228 0.06062
# Poissons Ratio (y) = 0.31678 0.49407
# Poissons Ratio (z) = 0.04155 0.23762
#
# Static dielectric constant tensor:
#      x y z
#    x 4.174760 0.000000 0.000000 
#    y 0.000000 3.540150 0.000000 
#    z 0.000000 0.000000 4.574620 
# 
# 
# High freq. dielectric constant tensor:
#      x y z
#    x 1.804830 0.000000 0.000000 
#    y 0.000000 1.769180 0.000000 
#    z 0.000000 0.000000 1.815940 
# 
# From -- ./inp_files/27223.got.cif
#   From: 2010.03.12/outbox.cif.g09.slc.cpg/sg67_14_cif.got.tgz:27223.got - 2010.04.10 22:41:39.
