data_PCOD8280474
_publ_section_title
;
Structure prediction by ZEFSAII (Michael W. Deem and Ramdas Pophale) SiO2 
 PCOD8280474
Probable space group: C M M A
;
_chemical_formula_sum "Si O2"
_cell_formula_units_Z 96
_cell_length_a 17.194918
_cell_length_b 17.394470
_cell_length_c 16.649499
_cell_angle_alpha 90.000000
_cell_angle_beta 90.000000
_cell_angle_gamma 90.000000
_cell_volume 4979.806633
_symmetry_space_group_name_H-M "C M M A"
_symmetry_group_IT_number 67
_symmetry_cell_setting 'orthorhombic'
loop_
_space_group_symop_operation_xyz
x,y,z
-x,1/2-y,z
x,-y,-z
-x,1/2+y,-z
-x,-y,-z
x,1/2+y,-z
-x,y,z
x,1/2-y,z
1/2+x,1/2+y,z
1/2-x,-y,z
1/2+x,1/2-y,-z
1/2-x,y,-z
1/2-x,1/2-y,-z
1/2+x,y,-z
1/2-x,1/2+y,z
1/2+x,-y,z
loop_
_atom_site_type_symbol
_atom_site_label
_atom_site_fract_x
_atom_site_fract_y
_atom_site_fract_z
Si Si1 0.677136 0.340729 0.144114
Si Si2 0.408360 0.050230 0.249946
Si Si3 0.589868 0.165489 0.676102
Si Si4 0.910107 0.588265 0.997810
Si Si5 0.346005 0.601197 0.169628
Si Si6 0.408532 0.479660 0.585729
O O1 0.691549 0.250000 0.151758
O O2 0.621747 0.367828 0.217880
O O3 0.756047 0.389090 0.148666
O O4 0.637730 0.359611 0.059362
O O5 0.500000 0.041554 0.234886
O O6 0.364474 0.984934 0.199017
O O7 0.388615 0.042094 0.344986
O O8 0.500000 0.145953 0.692835
O O9 0.601417 0.250000 0.638743
O O10 0.632975 0.161612 0.761046
O O11 0.624125 0.103462 0.613533
O O12 0.896450 0.621243 0.908875
O O13 0.000000 0.594081 0.022046
O O14 0.881142 0.500000 0.000000
O O15 0.368808 0.500000 0.500000
O O16 0.500000 0.474067 0.572837
#
# Coordination Sequence:
#
# PCOD8280474 Si02
#       6
#    16  16  16  16  16  16
#     4  12  26  39  55  84 121 152 183 231 287 338
#     4  10  20  37  61  85 110 149 195 232 276 334
#     4   9  17  30  52  82 113 143 182 236 288 329
#     4  11  23  39  61  84 110 149 194 236 279 331
#     4  11  21  37  60  81 108 148 193 232 275 331
#     4   8  15  30  54  83 111 140 181 232 281 334
#
# _framework density 19.277857000000001
#
# number of rings (size 3 to 8) (size 9 to 14) (size 15 to 20)
#    0.000    1.833    1.667    4.500    0.000    4.000 
#    0.000    0.833    0.000   11.000    0.000    5.833 
#    0.000    0.000    0.000    0.000    0.000    0.000 
#
# Total GULP energy -595132.515746 kJ/mol
# GULP energy per Si atom -12398.594078 kJ/mol
# Density = 1.923398 g / cm^3
# Si number density = 19.277857 Si / 1000 Ang^3
#
#
#
# Elastic Constant Matrix: (Units=GPa)
#
#
# Indices 1 2 3 4 5 6 
#
# 1 73.8773 30.6076 32.2459 0.0000 0.0000 0.0000
# 2 30.6076 81.0274 44.8325 0.0000 0.0000 0.0000
# 3 32.2459 44.8325 157.1189 0.0000 0.0000 0.0000
# 4 0.0000 0.0000 0.0000 22.0658 0.0000 0.0000
# 5 0.0000 0.0000 0.0000 0.0000 6.7764 0.0000
# 6 0.0000 0.0000 0.0000 0.0000 0.0000 23.3494
#
#
#
# Elastic Compliance Matrix: (Units=1/GPa)
#
#
# Indices 1 2 3 4 5 6 
#
# 1 0.016517 -0.005182 -0.001911 0.000000 0.000000 0.000000
# 2 -0.005182 0.016281 -0.003582 0.000000 0.000000 0.000000
# 3 -0.001911 -0.003582 0.007779 0.000000 0.000000 0.000000
# 4 0.000000 0.000000 0.000000 0.045319 0.000000 0.000000
# 5 0.000000 0.000000 0.000000 0.000000 0.147570 0.000000
# 6 0.000000 0.000000 0.000000 0.000000 0.000000 0.042828
#
#
# Mechanical properties :
#
#
# Convention : Reuss Voigt Hill
#
# Bulk Modulus (GPa) = 52.01122 58.59952 55.30537
# Shear Modulus (GPa) = 16.44453 24.06085 20.25269
#
# Velocity S-wave (km/s) = 2.92383 3.53669 3.24476
# Velocity P-wave (km/s) = 6.19974 6.86592 6.54131
#
# Compressibility (1/GPa) = 0.01922662
#
# Stress axis : x y z
#
# Youngs Moduli (GPa) = 60.54378 61.42187 128.55136
#
# Poissons Ratio (x) = 0.31827 0.24570
# Poissons Ratio (y) = 0.31372 0.46049
# Poissons Ratio (z) = 0.11572 0.22002
#
# Static dielectric constant tensor:
#      x y z
#    x 3.376310 0.000000 0.000000 
#    y 0.000000 3.438620 0.000000 
#    z 0.000000 0.000000 3.777910 
# 
# 
# High freq. dielectric constant tensor:
#      x y z
#    x 1.735910 0.000000 0.000000 
#    y 0.000000 1.737650 0.000000 
#    z 0.000000 0.000000 1.750660 
# 
# From -- ./inp_files/34250.got.cif
#   From: 2010.03.12/outbox.cif.g09.slc.cpg/sg67_18_cif.got.tgz:34250.got - 2010.04.10 22:41:39.
