data_PCOD8280332
_publ_section_title
;
Structure prediction by ZEFSAII (Michael W. Deem and Ramdas Pophale) SiO2 
 PCOD8280332
Probable space group: C M M A
;
_chemical_formula_sum "Si O2"
_cell_formula_units_Z 72
_cell_length_a 9.045727
_cell_length_b 20.689940
_cell_length_c 19.819584
_cell_angle_alpha 90.000000
_cell_angle_beta 90.000000
_cell_angle_gamma 90.000000
_cell_volume 3709.345122
_symmetry_space_group_name_H-M "C M M A"
_symmetry_group_IT_number 67
_symmetry_cell_setting 'orthorhombic'
loop_
_space_group_symop_operation_xyz
x,y,z
-x,1/2-y,z
x,-y,-z
-x,1/2+y,-z
-x,-y,-z
x,1/2+y,-z
-x,y,z
x,1/2-y,z
1/2+x,1/2+y,z
1/2-x,-y,z
1/2+x,1/2-y,-z
1/2-x,y,-z
1/2-x,1/2-y,-z
1/2+x,y,-z
1/2-x,1/2+y,z
1/2+x,-y,z
loop_
_atom_site_type_symbol
_atom_site_label
_atom_site_fract_x
_atom_site_fract_y
_atom_site_fract_z
Si Si1 0.666691 0.250000 0.568163
Si Si2 0.827080 0.676501 0.200139
Si Si3 0.825599 0.110016 0.427015
Si Si4 0.834538 0.173245 0.064864
Si Si5 0.674812 0.437430 0.299672
O O1 0.500000 0.250000 0.544388
O O2 0.750000 0.250000 0.500000
O O3 0.701826 0.182324 0.605178
O O4 0.779043 0.750000 0.219979
O O5 0.746373 0.651739 0.133035
O O6 0.782570 0.627585 0.259521
O O7 0.000000 0.674206 0.184869
O O8 0.750000 0.101683 0.500000
O O9 0.744519 0.063758 0.374543
O O10 0.000000 0.093842 0.432613
O O11 0.836877 0.250000 0.059909
O O12 0.000000 0.145024 0.065544
O O13 0.750000 0.144118 0.000000
O O14 0.500000 0.446756 0.304158
O O15 0.750000 0.500000 0.263936
#
# Coordination Sequence:
#
# PCOD8280332 Si02
#       5
#     8  16  16  16  16
#     4   8  16  30  50  78 108 136 165 210 267 322
#     4   9  19  36  57  82 111 145 185 227 272 325
#     4  10  20  36  57  82 110 141 181 227 278 333
#     4   9  16  27  48  80 115 148 181 222 270 319
#     4  11  24  40  58  80 110 148 186 229 281 333
#
# _framework density 19.410435
#
# number of rings (size 3 to 8) (size 9 to 14) (size 15 to 20)
#    0.000    2.444    0.000    2.000    1.556    5.778 
#    0.000    2.222    0.000    0.667    0.000    4.667 
#    0.000    0.000    0.000    0.000    0.000    0.000 
#
# Total GULP energy -446113.037212 kJ/mol
# GULP energy per Si atom -12392.028811 kJ/mol
# Density = 1.936626 g / cm^3
# Si number density = 19.410435 Si / 1000 Ang^3
#
#
#
# Elastic Constant Matrix: (Units=GPa)
#
#
# Indices 1 2 3 4 5 6 
#
# 1 97.9884 47.0427 63.3945 0.0000 0.0000 0.0000
# 2 47.0427 88.3428 48.5657 0.0000 0.0000 0.0000
# 3 63.3945 48.5657 118.5887 0.0000 0.0000 0.0000
# 4 0.0000 0.0000 0.0000 8.6732 0.0000 0.0000
# 5 0.0000 0.0000 0.0000 0.0000 33.7394 0.0000
# 6 0.0000 0.0000 0.0000 0.0000 0.0000 25.8942
#
#
#
# Elastic Compliance Matrix: (Units=1/GPa)
#
#
# Indices 1 2 3 4 5 6 
#
# 1 0.017359 -0.005346 -0.007090 0.000000 0.000000 0.000000
# 2 -0.005346 0.016255 -0.003799 0.000000 0.000000 0.000000
# 3 -0.007090 -0.003799 0.013779 0.000000 0.000000 0.000000
# 4 0.000000 0.000000 0.000000 0.115298 0.000000 0.000000
# 5 0.000000 0.000000 0.000000 0.000000 0.029639 0.000000
# 6 0.000000 0.000000 0.000000 0.000000 0.000000 0.038619
#
#
# Mechanical properties :
#
#
# Convention : Reuss Voigt Hill
#
# Bulk Modulus (GPa) = 67.01596 69.21398 68.11497
# Shear Modulus (GPa) = 18.62942 23.38913 21.00927
#
# Velocity S-wave (km/s) = 3.10137 3.47504 3.29351
# Velocity P-wave (km/s) = 6.88660 7.19978 7.04493
#
# Compressibility (1/GPa) = 0.01492182
#
# Stress axis : x y z
#
# Youngs Moduli (GPa) = 57.60735 61.52072 72.57592
#
# Poissons Ratio (x) = 0.32888 0.51459
# Poissons Ratio (y) = 0.30796 0.27572
# Poissons Ratio (z) = 0.40846 0.23372
#
# Static dielectric constant tensor:
#      x y z
#    x 3.629310 0.000000 0.000000 
#    y 0.000000 3.695980 0.000000 
#    z 0.000000 0.000000 3.366140 
# 
# 
# High freq. dielectric constant tensor:
#      x y z
#    x 1.766550 0.000000 0.000000 
#    y 0.000000 1.737210 0.000000 
#    z 0.000000 0.000000 1.740810 
# 
# From -- ./inp_files/36734.got.cif
#   From: 2010.03.12/outbox.cif.g09.slc.cpg/sg67_19_cif.got.tgz:36734.got - 2010.04.10 22:41:39.
