data_PCOD8280015
_publ_section_title
;
Structure prediction by ZEFSAII (Michael W. Deem and Ramdas Pophale) SiO2 
 PCOD8280015
Probable space group: C M M A
;
_chemical_formula_sum "Si O2"
_cell_formula_units_Z 104
_cell_length_a 9.268875
_cell_length_b 21.156863
_cell_length_c 26.414457
_cell_angle_alpha 90.000000
_cell_angle_beta 90.000000
_cell_angle_gamma 90.000000
_cell_volume 5179.883432
_symmetry_space_group_name_H-M "C M M A"
_symmetry_group_IT_number 67
_symmetry_cell_setting 'orthorhombic'
loop_
_space_group_symop_operation_xyz
x,y,z
-x,1/2-y,z
x,-y,-z
-x,1/2+y,-z
-x,-y,-z
x,1/2+y,-z
-x,y,z
x,1/2-y,z
1/2+x,1/2+y,z
1/2-x,-y,z
1/2+x,1/2-y,-z
1/2-x,y,-z
1/2-x,1/2-y,-z
1/2+x,y,-z
1/2-x,1/2+y,z
1/2+x,-y,z
loop_
_atom_site_type_symbol
_atom_site_label
_atom_site_fract_x
_atom_site_fract_y
_atom_site_fract_z
Si Si1 0.330792 0.817938 0.759474
Si Si2 0.671085 0.177739 0.446673
Si Si3 0.163429 0.118098 0.859950
Si Si4 0.347355 0.417672 0.712877
Si Si5 0.666946 0.060497 0.599885
Si Si6 0.750000 0.000000 0.799725
Si Si7 0.331300 0.177294 0.948370
O O1 0.500000 0.817932 0.756321
O O2 0.265154 0.750000 0.745860
O O3 0.281980 0.834870 0.816177
O O4 0.279580 0.867553 0.718120
O O5 0.500000 0.162872 0.451529
O O6 0.692618 0.250000 0.426082
O O7 0.750000 0.170889 0.500000
O O8 0.748504 0.126149 0.410829
O O9 0.270103 0.128964 0.906719
O O10 0.000000 0.133056 0.877213
O O11 0.167413 0.047517 0.837248
O O12 0.500000 0.380959 0.712557
O O13 0.328329 0.453100 0.659887
O O14 0.357477 0.465090 0.760796
O O15 0.500000 0.063864 0.580534
O O16 0.750000 0.000000 0.574683
O O17 0.500000 0.164001 0.955797
O O18 0.302370 0.250000 0.932265
O O19 0.250000 0.161444 0.000000
#
# Coordination Sequence:
#
# PCOD8280015 Si02
#       7
#    16  16  16  16  16   8  16
#     4   9  19  34  52  77 110 147 185 229 282 341
#     4  10  22  42  67  94 125 162 203 250 306 367
#     4  10  20  34  56  81 108 144 185 230 278 334
#     4  10  21  36  56  81 111 150 194 239 285 336
#     4  11  23  39  61  90 123 161 206 256 306 359
#     4  10  20  38  57  80 111 150 194 230 280 332
#     4  10  21  37  58  83 111 142 177 223 279 338
#
# _framework density 20.077673000000001
#
# number of rings (size 3 to 8) (size 9 to 14) (size 15 to 20)
#    0.000    2.000    0.769    2.308    0.000    8.615 
#    0.000    5.000    0.000    1.846    0.000    0.000 
#    0.000    0.000    0.000    0.000    0.000    0.000 
#
# Total GULP energy -644372.948965 kJ/mol
# GULP energy per Si atom -12391.787480 kJ/mol
# Density = 2.003198 g / cm^3
# Si number density = 20.077673 Si / 1000 Ang^3
#
#
#
# Elastic Constant Matrix: (Units=GPa)
#
#
# Indices 1 2 3 4 5 6 
#
# 1 113.3617 48.1036 40.9975 0.0000 0.0000 0.0000
# 2 48.1036 120.0726 33.7717 0.0000 0.0000 0.0000
# 3 40.9975 33.7717 66.2640 0.0000 0.0000 0.0000
# 4 0.0000 0.0000 0.0000 19.0373 0.0000 0.0000
# 5 0.0000 0.0000 0.0000 0.0000 31.9706 0.0000
# 6 0.0000 0.0000 0.0000 0.0000 0.0000 28.1182
#
#
#
# Elastic Compliance Matrix: (Units=1/GPa)
#
#
# Indices 1 2 3 4 5 6 
#
# 1 0.012376 -0.003274 -0.005989 0.000000 0.000000 0.000000
# 2 -0.003274 0.010588 -0.003371 0.000000 0.000000 0.000000
# 3 -0.005989 -0.003371 0.020514 0.000000 0.000000 0.000000
# 4 0.000000 0.000000 0.000000 0.052528 0.000000 0.000000
# 5 0.000000 0.000000 0.000000 0.000000 0.031279 0.000000
# 6 0.000000 0.000000 0.000000 0.000000 0.000000 0.035564
#
#
# Mechanical properties :
#
#
# Convention : Reuss Voigt Hill
#
# Bulk Modulus (GPa) = 54.90859 60.60488 57.75673
# Shear Modulus (GPa) = 25.74838 27.61357 26.68098
#
# Velocity S-wave (km/s) = 3.58500 3.71258 3.64935
# Velocity P-wave (km/s) = 6.67411 6.97341 6.82540
#
# Compressibility (1/GPa) = 0.01821209
#
# Stress axis : x y z
#
# Youngs Moduli (GPa) = 80.79913 94.44750 48.74664
#
# Poissons Ratio (x) = 0.30921 0.29193
# Poissons Ratio (y) = 0.26452 0.16431
# Poissons Ratio (z) = 0.48388 0.31835
#
# Static dielectric constant tensor:
#      x y z
#    x 3.783560 0.000000 0.000000 
#    y 0.000000 3.932750 0.000000 
#    z 0.000000 0.000000 3.473760 
# 
# 
# High freq. dielectric constant tensor:
#      x y z
#    x 1.792060 0.000000 0.000000 
#    y 0.000000 1.781090 0.000000 
#    z 0.000000 0.000000 1.769520 
# 
# From -- ./inp_files/43570.got.cif
#   From: 2010.03.12/outbox.cif.g09.slc.cpg/sg67_22_cif.got.tgz:43570.got - 2010.04.10 22:41:39.
