data_PCOD8280903
_publ_section_title
;
Structure prediction by ZEFSAII (Michael W. Deem and Ramdas Pophale) SiO2 
 PCOD8280903
Probable space group: C M M A
;
_chemical_formula_sum "Si O2"
_cell_formula_units_Z 112
_cell_length_a 28.087630
_cell_length_b 15.178010
_cell_length_c 12.544627
_cell_angle_alpha 90.000000
_cell_angle_beta 90.000000
_cell_angle_gamma 90.000000
_cell_volume 5347.954242
_symmetry_space_group_name_H-M "C M M A"
_symmetry_group_IT_number 67
_symmetry_cell_setting 'orthorhombic'
loop_
_space_group_symop_operation_xyz
x,y,z
-x,1/2-y,z
x,-y,-z
-x,1/2+y,-z
-x,-y,-z
x,1/2+y,-z
-x,y,z
x,1/2-y,z
1/2+x,1/2+y,z
1/2-x,-y,z
1/2+x,1/2-y,-z
1/2-x,y,-z
1/2-x,1/2-y,-z
1/2+x,y,-z
1/2-x,1/2+y,z
1/2+x,-y,z
loop_
_atom_site_type_symbol
_atom_site_label
_atom_site_fract_x
_atom_site_fract_y
_atom_site_fract_z
Si Si1 0.945427 0.483899 0.682272
Si Si2 0.112971 0.351466 0.358548
Si Si3 0.205654 0.146122 0.770344
Si Si4 0.190034 0.850050 0.802252
Si Si5 0.850832 0.600997 0.023620
Si Si6 0.551033 0.577342 0.918160
Si Si7 0.869850 0.850237 0.402674
O O1 0.932238 0.583879 0.647813
O O2 0.936595 0.468911 0.806617
O O3 0.914261 0.412741 0.619546
O O4 0.000000 0.468954 0.649351
O O5 0.097032 0.250000 0.334977
O O6 0.148973 0.392181 0.270349
O O7 0.140333 0.356559 0.471506
O O8 0.207517 0.250000 0.787308
O O9 0.259091 0.105478 0.774074
O O10 0.179697 0.104751 0.870671
O O11 0.177746 0.120562 0.661821
O O12 0.193784 0.750000 0.765138
O O13 0.176564 0.852583 0.927105
O O14 0.904356 0.640112 0.046326
O O15 0.859489 0.500000 0.000000
O O16 0.500000 0.629851 0.910980
O O17 0.543248 0.500000 0.000000
O O18 0.883501 0.750000 0.369914
#
# Coordination Sequence:
#
# PCOD8280903 Si02
#       7
#    16  16  16  16  16  16  16
#     4  11  22  40  64  89 120 157 198 245 298 355
#     4  10  22  40  60  87 120 155 199 247 295 352
#     4  10  21  38  58  83 116 156 198 243 296 353
#     4  10  22  38  58  83 115 157 199 241 296 355
#     4  11  20  34  57  85 119 152 190 245 295 349
#     4   9  18  33  56  84 115 155 196 236 293 356
#     4  10  22  40  61  86 120 157 197 247 296 349
#
# _framework density 20.942589000000002
#
# number of rings (size 3 to 8) (size 9 to 14) (size 15 to 20)
#    0.000    1.857    1.429    3.000    0.000    4.571 
#    0.000    4.286    0.000    4.286    0.000    4.000 
#    0.000    0.000    0.000    0.000    0.000    0.000 
#
# Total GULP energy -694040.626531 kJ/mol
# GULP energy per Si atom -12393.582617 kJ/mol
# Density = 2.089492 g / cm^3
# Si number density = 20.942589 Si / 1000 Ang^3
#
#
#
# Elastic Constant Matrix: (Units=GPa)
#
#
# Indices 1 2 3 4 5 6 
#
# 1 155.1594 32.8086 30.0977 0.0000 0.0000 0.0000
# 2 32.8086 57.3464 6.7359 0.0000 0.0000 0.0000
# 3 30.0977 6.7359 90.3687 0.0000 0.0000 0.0000
# 4 0.0000 0.0000 0.0000 21.4734 0.0000 0.0000
# 5 0.0000 0.0000 0.0000 0.0000 27.8869 0.0000
# 6 0.0000 0.0000 0.0000 0.0000 0.0000 25.0321
#
#
#
# Elastic Compliance Matrix: (Units=1/GPa)
#
#
# Indices 1 2 3 4 5 6 
#
# 1 0.007770 -0.004178 -0.002276 0.000000 0.000000 0.000000
# 2 -0.004178 0.019838 -0.000087 0.000000 0.000000 0.000000
# 3 -0.002276 -0.000087 0.011830 0.000000 0.000000 0.000000
# 4 0.000000 0.000000 0.000000 0.046569 0.000000 0.000000
# 5 0.000000 0.000000 0.000000 0.000000 0.035859 0.000000
# 6 0.000000 0.000000 0.000000 0.000000 0.000000 0.039949
#
#
# Mechanical properties :
#
#
# Convention : Reuss Voigt Hill
#
# Bulk Modulus (GPa) = 37.94252 49.12877 43.53564
# Shear Modulus (GPa) = 27.22065 30.42732 28.82398
#
# Velocity S-wave (km/s) = 3.60915 3.81582 3.71392
# Velocity P-wave (km/s) = 5.96026 6.55162 6.26292
#
# Compressibility (1/GPa) = 0.02635566
#
# Stress axis : x y z
#
# Youngs Moduli (GPa) = 128.70036 50.40739 84.52766
#
# Poissons Ratio (x) = 0.21060 0.19242
# Poissons Ratio (y) = 0.53770 0.00737
# Poissons Ratio (z) = 0.29298 0.00440
#
# Static dielectric constant tensor:
#      x y z
#    x 4.403840 0.000000 0.000000 
#    y 0.000000 3.553310 0.000000 
#    z 0.000000 0.000000 4.136060 
# 
# 
# High freq. dielectric constant tensor:
#      x y z
#    x 1.829060 0.000000 0.000000 
#    y 0.000000 1.796100 0.000000 
#    z 0.000000 0.000000 1.831270 
# 
# From -- ./inp_files/18593.got.cif
#   From: 2010.03.12/outbox.cif.g09.slc.cpg/sg67_10_cif.got.tgz:18593.got - 2010.04.10 22:41:39.
