data_PCOD8280744
_publ_section_title
;
Structure prediction by ZEFSAII (Michael W. Deem and Ramdas Pophale) SiO2 
 PCOD8280744
Probable space group: C M M A
;
_chemical_formula_sum "Si O2"
_cell_formula_units_Z 72
_cell_length_a 8.714022
_cell_length_b 16.423387
_cell_length_c 24.768978
_cell_angle_alpha 90.000000
_cell_angle_beta 90.000000
_cell_angle_gamma 90.000000
_cell_volume 3544.781465
_symmetry_space_group_name_H-M "C M M A"
_symmetry_group_IT_number 67
_symmetry_cell_setting 'orthorhombic'
loop_
_space_group_symop_operation_xyz
x,y,z
-x,1/2-y,z
x,-y,-z
-x,1/2+y,-z
-x,-y,-z
x,1/2+y,-z
-x,y,z
x,1/2-y,z
1/2+x,1/2+y,z
1/2-x,-y,z
1/2+x,1/2-y,-z
1/2-x,y,-z
1/2-x,1/2-y,-z
1/2+x,y,-z
1/2-x,1/2+y,z
1/2+x,-y,z
loop_
_atom_site_type_symbol
_atom_site_label
_atom_site_fract_x
_atom_site_fract_y
_atom_site_fract_z
Si Si1 0.822013 0.587883 0.552407
Si Si2 0.167184 0.342635 0.652799
Si Si3 0.315809 0.250000 0.940494
Si Si4 0.320699 0.583346 0.761199
Si Si5 0.815944 0.910481 0.117645
O O1 0.750000 0.500000 0.555241
O O2 0.750000 0.634512 0.500000
O O3 0.790932 0.629127 0.609594
O O4 0.000000 0.582860 0.542389
O O5 0.140117 0.250000 0.641628
O O6 0.226670 0.353065 0.714494
O O7 0.000000 0.387134 0.645623
O O8 0.500000 0.250000 0.939685
O O9 0.255039 0.334210 0.914281
O O10 0.250000 0.250000 0.000000
O O11 0.500000 0.572686 0.766308
O O12 0.250000 0.500000 0.740634
O O13 0.261340 0.607288 0.820733
O O14 0.000000 0.911319 0.110107
O O15 0.750000 0.000000 0.099401
#
# Coordination Sequence:
#
# PCOD8280744 Si02
#       5
#    16  16   8  16  16
#     4  11  22  38  59  80 105 140 187 237 290 348
#     4  10  21  36  55  82 116 152 189 232 287 347
#     4  12  26  44  66  96 130 170 217 264 317 372
#     4   9  19  35  59  86 117 155 195 239 292 350
#     4  10  21  40  66  96 131 170 214 262 316 375
#
# _framework density 20.311547999999998
#
# number of rings (size 3 to 8) (size 9 to 14) (size 15 to 20)
#    0.000    1.778    0.000    5.000    1.556    4.889 
#    0.000    2.222    0.000    0.000    0.000    0.000 
#    0.000    0.000    0.000    0.000    0.000    0.000 
#
# Total GULP energy -446012.993152 kJ/mol
# GULP energy per Si atom -12389.249810 kJ/mol
# Density = 2.026532 g / cm^3
# Si number density = 20.311548 Si / 1000 Ang^3
#
#
#
# Elastic Constant Matrix: (Units=GPa)
#
#
# Indices 1 2 3 4 5 6 
#
# 1 118.8837 52.8997 58.6287 0.0000 0.0000 0.0000
# 2 52.8997 109.4509 64.4381 0.0000 0.0000 0.0000
# 3 58.6287 64.4381 141.4609 0.0000 0.0000 0.0000
# 4 0.0000 0.0000 0.0000 -42.1765 0.0000 0.0000
# 5 0.0000 0.0000 0.0000 0.0000 30.6149 0.0000
# 6 0.0000 0.0000 0.0000 0.0000 0.0000 25.3734
#
#
#
# Elastic Compliance Matrix: (Units=1/GPa)
#
#
# Indices 1 2 3 4 5 6 
#
# 1 0.011625 -0.003802 -0.003086 0.000000 0.000000 0.000000
# 2 -0.003802 0.013728 -0.004678 0.000000 0.000000 0.000000
# 3 -0.003086 -0.004678 0.010479 0.000000 0.000000 0.000000
# 4 0.000000 0.000000 0.000000 -0.023710 0.000000 0.000000
# 5 0.000000 0.000000 0.000000 0.000000 0.032664 0.000000
# 6 0.000000 0.000000 0.000000 0.000000 0.000000 0.039411
#
#
# Mechanical properties :
#
#
# Convention : Reuss Voigt Hill
#
# Bulk Modulus (GPa) = 78.73579 80.19205 79.46392
# Shear Modulus (GPa) = 44.81794 15.68431 30.25113
#
# Velocity S-wave (km/s) = 4.70246 2.78184 3.86340
# Velocity P-wave (km/s) = 8.26634 7.06292 7.68822
#
# Compressibility (1/GPa) = 0.01270070
#
# Stress axis : x y z
#
# Youngs Moduli (GPa) = 86.01933 72.84454 95.42869
#
# Poissons Ratio (x) = 0.27693 0.29453
# Poissons Ratio (y) = 0.32701 0.44639
# Poissons Ratio (z) = 0.26549 0.34074
#
# Static dielectric constant tensor:
#      x y z
#    x 3.804860 0.000000 0.000000 
#    y 0.000000 3.616010 0.000000 
#    z 0.000000 0.000000 4.401610 
# 
# 
# High freq. dielectric constant tensor:
#      x y z
#    x 1.796610 0.000000 0.000000 
#    y 0.000000 1.782950 0.000000 
#    z 0.000000 0.000000 1.809220 
# 
# From -- ./inp_files/40488.got.cif
#   From: 2010.03.12/outbox.cif.g09.slc.cpg/sg67_21_cif.got.tgz:40488.got - 2010.04.10 22:41:39.
