data_PCOD8280598
_publ_section_title
;
Structure prediction by ZEFSAII (Michael W. Deem and Ramdas Pophale) SiO2 
 PCOD8280598
Probable space group: C M M A
;
_chemical_formula_sum "Si O2"
_cell_formula_units_Z 56
_cell_length_a 30.819819
_cell_length_b 15.608913
_cell_length_c 5.125340
_cell_angle_alpha 90.000000
_cell_angle_beta 90.000000
_cell_angle_gamma 90.000000
_cell_volume 2465.615913
_symmetry_space_group_name_H-M "C M M A"
_symmetry_group_IT_number 67
_symmetry_cell_setting 'orthorhombic'
loop_
_space_group_symop_operation_xyz
x,y,z
-x,1/2-y,z
x,-y,-z
-x,1/2+y,-z
-x,-y,-z
x,1/2+y,-z
-x,y,z
x,1/2-y,z
1/2+x,1/2+y,z
1/2-x,-y,z
1/2+x,1/2-y,-z
1/2-x,y,-z
1/2-x,1/2-y,-z
1/2+x,y,-z
1/2-x,1/2+y,z
1/2+x,-y,z
loop_
_atom_site_type_symbol
_atom_site_label
_atom_site_fract_x
_atom_site_fract_y
_atom_site_fract_z
Si Si1 0.230606 0.904171 0.751097
Si Si2 0.408177 0.404950 0.386569
Si Si3 0.000000 0.559465 0.253771
Si Si4 0.138073 0.847480 0.869873
O O1 0.250000 0.855465 0.500000
O O2 0.178600 0.901781 0.758382
O O3 0.250000 0.000000 0.749456
O O4 0.250000 0.854559 0.000000
O O5 0.403967 0.500000 0.500000
O O6 0.456384 0.383393 0.274182
O O7 0.397296 0.345372 0.635272
O O8 0.377005 0.391953 0.138102
O O9 0.000000 0.500000 0.500000
O O10 0.000000 0.500000 0.000000
O O11 0.150939 0.750000 0.934257
#
# Coordination Sequence:
#
# PCOD8280598 Si02
#       4
#    16  16   8  16
#     4  10  23  40  63  92 129 170 234 273 333 402
#     4  11  24  42  73  98 134 183 230 278 336 405
#     4  10  20  42  65 106 133 168 233 286 315 386
#     4  12  26  43  65 103 142 175 224 287 349 407
#
# _framework density 22.712377
#
# number of rings (size 3 to 8) (size 9 to 14) (size 15 to 20)
#    0.000    1.143    0.000    6.857   12.000    1.143 
#    0.000    4.286    0.000    0.000    0.000    0.000 
#    0.000    0.000    0.000    0.000    0.000    0.000 
#
# Total GULP energy -346965.072537 kJ/mol
# GULP energy per Si atom -12391.609733 kJ/mol
# Density = 2.266068 g / cm^3
# Si number density = 22.712377 Si / 1000 Ang^3
#
#
#
# Elastic Constant Matrix: (Units=GPa)
#
#
# Indices 1 2 3 4 5 6 
#
# 1 152.1916 55.7233 67.2552 0.0000 0.0000 0.0000
# 2 55.7233 78.8738 25.5430 0.0000 0.0000 0.0000
# 3 67.2552 25.5430 223.2896 0.0000 0.0000 0.0000
# 4 0.0000 0.0000 0.0000 22.2651 0.0000 0.0000
# 5 0.0000 0.0000 0.0000 0.0000 46.4874 0.0000
# 6 0.0000 0.0000 0.0000 0.0000 0.0000 12.6134
#
#
#
# Elastic Compliance Matrix: (Units=1/GPa)
#
#
# Indices 1 2 3 4 5 6 
#
# 1 0.009846 -0.006226 -0.002253 0.000000 0.000000 0.000000
# 2 -0.006226 0.017104 -0.000081 0.000000 0.000000 0.000000
# 3 -0.002253 -0.000081 0.005167 0.000000 0.000000 0.000000
# 4 0.000000 0.000000 0.000000 0.044913 0.000000 0.000000
# 5 0.000000 0.000000 0.000000 0.000000 0.021511 0.000000
# 6 0.000000 0.000000 0.000000 0.000000 0.000000 0.079281
#
#
# Mechanical properties :
#
#
# Convention : Reuss Voigt Hill
#
# Bulk Modulus (GPa) = 66.69179 83.48867 75.09023
# Shear Modulus (GPa) = 25.00727 36.66207 30.83467
#
# Velocity S-wave (km/s) = 3.32179 4.02206 3.68858
# Velocity P-wave (km/s) = 6.64378 7.64252 7.16059
#
# Compressibility (1/GPa) = 0.01499435
#
# Stress axis : x y z
#
# Youngs Moduli (GPa) = 101.56155 58.46689 193.55433
#
# Poissons Ratio (x) = 0.36404 0.43616
# Poissons Ratio (y) = 0.63237 0.01570
# Poissons Ratio (z) = 0.22886 0.00474
#
# Static dielectric constant tensor:
#      x y z
#    x 5.180250 0.000000 0.000000 
#    y 0.000000 3.558970 0.000000 
#    z 0.000000 0.000000 -0.653240 
# 
# 
# High freq. dielectric constant tensor:
#      x y z
#    x 1.903910 0.000000 0.000000 
#    y 0.000000 1.852620 0.000000 
#    z 0.000000 0.000000 1.934910 
# 
# From -- ./inp_files/4445.got.cif
#   From: 2010.03.12/outbox.cif.g09.slc.cpg/sg67_3_cif.got.tgz:4445.got - 2010.04.10 22:41:39.
