data_PCOD8280379
_publ_section_title
;
Structure prediction by ZEFSAII (Michael W. Deem and Ramdas Pophale) SiO2 
 PCOD8280379
Probable space group: C M M A
;
_chemical_formula_sum "Si O2"
_cell_formula_units_Z 104
_cell_length_a 9.048925
_cell_length_b 29.616238
_cell_length_c 20.122488
_cell_angle_alpha 90.000000
_cell_angle_beta 90.000000
_cell_angle_gamma 90.000000
_cell_volume 5392.728515
_symmetry_space_group_name_H-M "C M M A"
_symmetry_group_IT_number 67
_symmetry_cell_setting 'orthorhombic'
loop_
_space_group_symop_operation_xyz
x,y,z
-x,1/2-y,z
x,-y,-z
-x,1/2+y,-z
-x,-y,-z
x,1/2+y,-z
-x,y,z
x,1/2-y,z
1/2+x,1/2+y,z
1/2-x,-y,z
1/2+x,1/2-y,-z
1/2-x,y,-z
1/2-x,1/2-y,-z
1/2+x,y,-z
1/2-x,1/2+y,z
1/2+x,-y,z
loop_
_atom_site_type_symbol
_atom_site_label
_atom_site_fract_x
_atom_site_fract_y
_atom_site_fract_z
Si Si1 0.333109 0.750000 0.932790
Si Si2 0.824019 0.452948 0.568281
Si Si3 0.337910 0.825266 0.129994
Si Si4 0.671993 0.576758 0.070805
Si Si5 0.327995 0.386440 0.313339
Si Si6 0.823835 0.455358 0.799773
Si Si7 0.666517 0.698421 0.279387
O O1 0.500000 0.750000 0.951800
O O2 0.295389 0.794032 0.891599
O O3 0.250000 0.750000 0.000000
O O4 0.750000 0.500000 0.590001
O O5 0.750000 0.436023 0.500000
O O6 0.784040 0.416296 0.623574
O O7 0.000000 0.459316 0.559965
O O8 0.500000 0.805926 0.109790
O O9 0.312223 0.872035 0.093726
O O10 0.328333 0.826692 0.208853
O O11 0.500000 0.562175 0.066384
O O12 0.757347 0.548079 0.126138
O O13 0.750000 0.569073 0.000000
O O14 0.500000 0.377602 0.309688
O O15 0.278005 0.412729 0.246131
O O16 0.256597 0.336795 0.324535
O O17 0.750000 0.500000 0.767493
O O18 0.000000 0.460792 0.802900
O O19 0.500000 0.701278 0.306118
O O20 0.732097 0.750000 0.277972
#
# Coordination Sequence:
#
# PCOD8280379 Si02
#       7
#     8  16  16  16  16  16  16
#     4  12  24  34  50  74 102 138 179 230 291 354
#     4  10  20  36  59  92 129 164 198 235 278 334
#     4  10  20  37  56  76 105 138 180 233 290 351
#     4  11  23  39  58  78 104 142 185 236 292 348
#     4  10  22  38  59  88 122 155 192 237 285 337
#     4  11  23  39  59  84 113 146 189 236 286 346
#     4  10  20  36  59  85 114 149 190 236 286 343
#
# _framework density 19.285229000000001
#
# number of rings (size 3 to 8) (size 9 to 14) (size 15 to 20)
#    0.000    1.538    2.308    3.462    0.000    5.538 
#    0.000    1.538    0.000    0.462    0.000    0.000 
#    0.000    0.000    0.000    0.000    0.000    0.000 
#
# Total GULP energy -644552.614068 kJ/mol
# GULP energy per Si atom -12395.242578 kJ/mol
# Density = 1.924133 g / cm^3
# Si number density = 19.285229 Si / 1000 Ang^3
#
#
#
# Elastic Constant Matrix: (Units=GPa)
#
#
# Indices 1 2 3 4 5 6 
#
# 1 110.4302 54.4230 41.2924 0.0000 0.0000 0.0000
# 2 54.4230 114.6877 48.1170 0.0000 0.0000 0.0000
# 3 41.2924 48.1170 93.9866 0.0000 0.0000 0.0000
# 4 0.0000 0.0000 0.0000 28.3012 0.0000 0.0000
# 5 0.0000 0.0000 0.0000 0.0000 28.5061 0.0000
# 6 0.0000 0.0000 0.0000 0.0000 0.0000 27.1999
#
#
#
# Elastic Compliance Matrix: (Units=1/GPa)
#
#
# Indices 1 2 3 4 5 6 
#
# 1 0.012502 -0.004621 -0.003127 0.000000 0.000000 0.000000
# 2 -0.004621 0.012812 -0.004529 0.000000 0.000000 0.000000
# 3 -0.003127 -0.004529 0.014332 0.000000 0.000000 0.000000
# 4 0.000000 0.000000 0.000000 0.035334 0.000000 0.000000
# 5 0.000000 0.000000 0.000000 0.000000 0.035080 0.000000
# 6 0.000000 0.000000 0.000000 0.000000 0.000000 0.036765
#
#
# Mechanical properties :
#
#
# Convention : Reuss Voigt Hill
#
# Bulk Modulus (GPa) = 66.25725 67.41884 66.83804
# Shear Modulus (GPa) = 28.34296 28.48624 28.41460
#
# Velocity S-wave (km/s) = 3.83779 3.84748 3.84264
# Velocity P-wave (km/s) = 7.35318 7.40082 7.37704
#
# Compressibility (1/GPa) = 0.01509269
#
# Stress axis : x y z
#
# Youngs Moduli (GPa) = 79.98750 78.05065 69.77165
#
# Poissons Ratio (x) = 0.36064 0.21818
# Poissons Ratio (y) = 0.36959 0.31601
# Poissons Ratio (z) = 0.25013 0.35351
#
# Static dielectric constant tensor:
#      x y z
#    x 3.541780 0.000000 0.000000 
#    y 0.000000 3.609750 0.000000 
#    z 0.000000 0.000000 3.441940 
# 
# 
# High freq. dielectric constant tensor:
#      x y z
#    x 1.756170 0.000000 0.000000 
#    y 0.000000 1.755760 0.000000 
#    z 0.000000 0.000000 1.732080 
# 
# From -- ./inp_files/37503.got.cif
#   From: 2010.03.12/outbox.cif.g09.slc.cpg/sg67_19_cif.got.tgz:37503.got - 2010.04.10 22:41:39.
