data_PCOD8280728
_publ_section_title
;
Structure prediction by ZEFSAII (Michael W. Deem and Ramdas Pophale) SiO2 
 PCOD8280728
Probable space group: C M M A
;
_chemical_formula_sum "Si O2"
_cell_formula_units_Z 96
_cell_length_a 19.816644
_cell_length_b 8.853932
_cell_length_c 29.519491
_cell_angle_alpha 90.000000
_cell_angle_beta 90.000000
_cell_angle_gamma 90.000000
_cell_volume 5179.348742
_symmetry_space_group_name_H-M "C M M A"
_symmetry_group_IT_number 67
_symmetry_cell_setting 'orthorhombic'
loop_
_space_group_symop_operation_xyz
x,y,z
-x,1/2-y,z
x,-y,-z
-x,1/2+y,-z
-x,-y,-z
x,1/2+y,-z
-x,y,z
x,1/2-y,z
1/2+x,1/2+y,z
1/2-x,-y,z
1/2+x,1/2-y,-z
1/2-x,y,-z
1/2-x,1/2-y,-z
1/2+x,y,-z
1/2-x,1/2+y,z
1/2+x,-y,z
loop_
_atom_site_type_symbol
_atom_site_label
_atom_site_fract_x
_atom_site_fract_y
_atom_site_fract_z
Si Si1 0.078691 0.074089 0.547001
Si Si2 0.819774 0.071347 0.385063
Si Si3 0.922047 0.077339 0.781833
Si Si4 0.181979 0.074206 0.281638
Si Si5 0.820378 0.571452 0.952187
Si Si6 0.921745 0.423588 0.885894
O O1 0.096383 0.250000 0.545294
O O2 0.000000 0.045086 0.555843
O O3 0.101965 0.000000 0.500000
O O4 0.117902 0.995186 0.587552
O O5 0.816655 0.250000 0.391422
O O6 0.831854 0.022339 0.333095
O O7 0.750000 0.000000 0.403132
O O8 0.904435 0.250000 0.770364
O O9 0.904227 0.042060 0.833812
O O10 0.000000 0.043986 0.772544
O O11 0.880627 0.969268 0.749325
O O12 0.193395 0.250000 0.279141
O O13 0.250000 0.000000 0.262399
O O14 0.811959 0.750000 0.957523
O O15 0.750000 0.500000 0.935358
O O16 0.878041 0.535930 0.916047
O O17 0.841890 0.500000 0.000000
O O18 0.904622 0.250000 0.897662
O O19 0.000000 0.456523 0.895651
#
# Coordination Sequence:
#
# PCOD8280728 Si02
#       6
#    16  16  16  16  16  16
#     4  10  21  37  57  81 109 141 177 218 264 315
#     4  10  21  37  56  79 108 141 179 222 267 315
#     4   9  19  36  57  80 108 142 178 219 266 315
#     4  10  21  36  55  79 108 142 179 222 267 314
#     4  11  22  37  57  80 108 141 178 220 266 316
#     4   9  19  37  58  80 108 141 178 220 265 314
#
# _framework density 18.535146999999998
#
# number of rings (size 3 to 8) (size 9 to 14) (size 15 to 20)
#    0.000    2.167    0.000    4.500    0.000    6.333 
#    0.000    6.667    0.000    0.000    0.000    0.000 
#    0.000    0.000    0.000    0.000    0.000    0.000 
#
# Total GULP energy -595387.264157 kJ/mol
# GULP energy per Si atom -12403.901337 kJ/mol
# Density = 1.849296 g / cm^3
# Si number density = 18.535147 Si / 1000 Ang^3
#
#
#
# Elastic Constant Matrix: (Units=GPa)
#
#
# Indices 1 2 3 4 5 6 
#
# 1 88.6523 49.6662 63.6687 0.0000 0.0000 0.0000
# 2 49.6662 106.3466 50.3053 0.0000 0.0000 0.0000
# 3 63.6687 50.3053 90.4330 0.0000 0.0000 0.0000
# 4 0.0000 0.0000 0.0000 34.7409 0.0000 0.0000
# 5 0.0000 0.0000 0.0000 0.0000 -118.6166 0.0000
# 6 0.0000 0.0000 0.0000 0.0000 0.0000 37.2003
#
#
#
# Elastic Compliance Matrix: (Units=1/GPa)
#
#
# Indices 1 2 3 4 5 6 
#
# 1 0.024251 -0.004410 -0.014621 0.000000 0.000000 0.000000
# 2 -0.004410 0.013563 -0.004440 0.000000 0.000000 0.000000
# 3 -0.014621 -0.004440 0.023821 0.000000 0.000000 0.000000
# 4 0.000000 0.000000 0.000000 0.028785 0.000000 0.000000
# 5 0.000000 0.000000 0.000000 0.000000 -0.008431 0.000000
# 6 0.000000 0.000000 0.000000 0.000000 0.000000 0.026881
#
#
# Mechanical properties :
#
#
# Convention : Reuss Voigt Hill
#
# Bulk Modulus (GPa) = 68.05343 68.07914 68.06629
# Shear Modulus (GPa) = 31.11207 -1.21563 14.94822
#
# Velocity S-wave (km/s) = 4.10145 -0.81072 2.84294
# Velocity P-wave (km/s) = 7.69576 5.99442 6.89775
#
# Compressibility (1/GPa) = 0.01469434
#
# Stress axis : x y z
#
# Youngs Moduli (GPa) = 41.23578 73.73043 41.97916
#
# Poissons Ratio (x) = 0.32512 0.61376
# Poissons Ratio (y) = 0.18183 0.18639
# Poissons Ratio (z) = 0.60289 0.32737
#
# Static dielectric constant tensor:
#      x y z
#    x 3.359060 0.000000 0.000000 
#    y 0.000000 3.426300 0.000000 
#    z 0.000000 0.000000 3.394950 
# 
# 
# High freq. dielectric constant tensor:
#      x y z
#    x 1.721850 0.000000 0.000000 
#    y 0.000000 1.728130 0.000000 
#    z 0.000000 0.000000 1.719390 
# 
# From -- ./inp_files/43416.got.cif
#   From: 2010.03.12/outbox.cif.g09.slc.cpg/sg67_22_cif.got.tgz:43416.got - 2010.04.10 22:41:39.
