data_PCOD8280584
_publ_section_title
;
Structure prediction by ZEFSAII (Michael W. Deem and Ramdas Pophale) SiO2 
 PCOD8280584
Probable space group: C M M A
;
_chemical_formula_sum "Si O2"
_cell_formula_units_Z 80
_cell_length_a 22.290090
_cell_length_b 13.383780
_cell_length_c 12.186931
_cell_angle_alpha 90.000000
_cell_angle_beta 90.000000
_cell_angle_gamma 90.000000
_cell_volume 3635.674243
_symmetry_space_group_name_H-M "C M M A"
_symmetry_group_IT_number 67
_symmetry_cell_setting 'orthorhombic'
loop_
_space_group_symop_operation_xyz
x,y,z
-x,1/2-y,z
x,-y,-z
-x,1/2+y,-z
-x,-y,-z
x,1/2+y,-z
-x,y,z
x,1/2-y,z
1/2+x,1/2+y,z
1/2-x,-y,z
1/2+x,1/2-y,-z
1/2-x,y,-z
1/2-x,1/2-y,-z
1/2+x,y,-z
1/2-x,1/2+y,z
1/2+x,-y,z
loop_
_atom_site_type_symbol
_atom_site_label
_atom_site_fract_x
_atom_site_fract_y
_atom_site_fract_z
Si Si1 0.208135 0.632230 0.778143
Si Si2 0.374873 0.132701 0.970164
Si Si3 0.622513 0.472449 0.618941
Si Si4 0.500000 0.136516 0.639123
Si Si5 0.343361 0.367805 0.217691
Si Si6 0.000000 0.362150 0.101994
O O1 0.214696 0.750000 0.788380
O O2 0.168456 0.606041 0.672527
O O3 0.275687 0.590363 0.766213
O O4 0.175854 0.588842 0.887967
O O5 0.376924 0.250000 0.949820
O O6 0.361440 0.104165 0.094346
O O7 0.439422 0.084085 0.940174
O O8 0.648929 0.500000 0.500000
O O9 0.558459 0.421501 0.597820
O O10 0.615905 0.571146 0.696000
O O11 0.500000 0.250000 0.592691
O O12 0.500000 0.138612 0.768689
O O13 0.350865 0.250000 0.240645
O O14 0.000000 0.250000 0.054031
#
# Coordination Sequence:
#
# PCOD8280584 Si02
#       6
#    16  16  16   8  16   8
#     4  10  20  39  66  92 125 174 220 264 318 381
#     4   9  17  34  61  95 129 165 213 266 321 385
#     4  12  26  43  63  94 127 164 221 277 315 371
#     4  11  23  46  72  94 121 163 218 269 325 388
#     4  10  23  40  61  93 135 174 208 259 329 386
#     4   9  16  32  63  94 121 158 202 256 318 382
#
# _framework density 22.004170999999999
#
# number of rings (size 3 to 8) (size 9 to 14) (size 15 to 20)
#    0.000    1.800    2.000    2.100    0.000    7.200 
#    0.000    6.500    0.000    0.000    0.000    0.000 
#    0.000    0.000    0.000    0.000    0.000    0.000 
#
# Total GULP energy -495962.091475 kJ/mol
# GULP energy per Si atom -12399.052287 kJ/mol
# Density = 2.195409 g / cm^3
# Si number density = 22.004171 Si / 1000 Ang^3
#
#
#
# Elastic Constant Matrix: (Units=GPa)
#
#
# Indices 1 2 3 4 5 6 
#
# 1 105.4523 17.2868 27.7550 0.0000 0.0000 0.0000
# 2 17.2868 56.4966 14.4682 0.0000 0.0000 0.0000
# 3 27.7550 14.4682 124.7115 0.0000 0.0000 0.0000
# 4 0.0000 0.0000 0.0000 37.5428 0.0000 0.0000
# 5 0.0000 0.0000 0.0000 0.0000 19.8040 0.0000
# 6 0.0000 0.0000 0.0000 0.0000 0.0000 30.6304
#
#
#
# Elastic Compliance Matrix: (Units=1/GPa)
#
#
# Indices 1 2 3 4 5 6 
#
# 1 0.010453 -0.002682 -0.002015 0.000000 0.000000 0.000000
# 2 -0.002682 0.018930 -0.001599 0.000000 0.000000 0.000000
# 3 -0.002015 -0.001599 0.008653 0.000000 0.000000 0.000000
# 4 0.000000 0.000000 0.000000 0.026636 0.000000 0.000000
# 5 0.000000 0.000000 0.000000 0.000000 0.050495 0.000000
# 6 0.000000 0.000000 0.000000 0.000000 0.000000 0.032647
#
#
# Mechanical properties :
#
#
# Convention : Reuss Voigt Hill
#
# Bulk Modulus (GPa) = 39.30426 45.07562 42.18994
# Shear Modulus (GPa) = 29.60527 32.73880 31.17204
#
# Velocity S-wave (km/s) = 3.67200 3.86144 3.76791
# Velocity P-wave (km/s) = 5.98992 6.35693 6.17615
#
# Compressibility (1/GPa) = 0.02544254
#
# Stress axis : x y z
#
# Youngs Moduli (GPa) = 95.66563 52.82491 115.57319
#
# Poissons Ratio (x) = 0.14170 0.23290
# Poissons Ratio (y) = 0.25661 0.18483
# Poissons Ratio (z) = 0.19278 0.08448
#
# Static dielectric constant tensor:
#      x y z
#    x 4.343330 0.000000 0.000000 
#    y 0.000000 4.033940 0.000000 
#    z 0.000000 0.000000 3.705200 
# 
# 
# High freq. dielectric constant tensor:
#      x y z
#    x 1.870260 0.000000 0.000000 
#    y 0.000000 1.880370 0.000000 
#    z 0.000000 0.000000 1.849400 
# 
# From -- ./inp_files/21672.got.cif
#   From: 2010.03.12/outbox.cif.g09.slc.cpg/sg67_11_cif.got.tgz:21672.got - 2010.04.10 22:41:39.
