data_PCOD8280758
_publ_section_title
;
Structure prediction by ZEFSAII (Michael W. Deem and Ramdas Pophale) SiO2 
 PCOD8280758
Probable space group: C M M A
;
_chemical_formula_sum "Si O2"
_cell_formula_units_Z 112
_cell_length_a 14.349187
_cell_length_b 17.499305
_cell_length_c 23.819693
_cell_angle_alpha 90.000000
_cell_angle_beta 90.000000
_cell_angle_gamma 90.000000
_cell_volume 5981.143964
_symmetry_space_group_name_H-M "C M M A"
_symmetry_group_IT_number 67
_symmetry_cell_setting 'orthorhombic'
loop_
_space_group_symop_operation_xyz
x,y,z
-x,1/2-y,z
x,-y,-z
-x,1/2+y,-z
-x,-y,-z
x,1/2+y,-z
-x,y,z
x,1/2-y,z
1/2+x,1/2+y,z
1/2-x,-y,z
1/2+x,1/2-y,-z
1/2-x,y,-z
1/2-x,1/2-y,-z
1/2+x,y,-z
1/2-x,1/2+y,z
1/2+x,-y,z
loop_
_atom_site_type_symbol
_atom_site_label
_atom_site_fract_x
_atom_site_fract_y
_atom_site_fract_z
Si Si1 0.890209 0.664394 0.561679
Si Si2 0.891840 0.840628 0.148043
Si Si3 0.892019 0.340504 0.146725
Si Si4 0.245545 0.410485 0.357951
Si Si5 0.249560 0.089889 0.934692
Si Si6 0.895692 0.840480 0.437073
Si Si7 0.751490 0.908947 0.769046
O O1 0.850906 0.750000 0.569995
O O2 0.848349 0.611681 0.609809
O O3 0.861788 0.634902 0.499496
O O4 0.000000 0.663563 0.568219
O O5 0.879717 0.750000 0.148683
O O6 0.843323 0.873989 0.092291
O O7 0.841848 0.875626 0.202677
O O8 0.000000 0.864775 0.148370
O O9 0.879015 0.250000 0.148870
O O10 0.842525 0.372997 0.091168
O O11 0.844131 0.377430 0.201168
O O12 0.000000 0.364301 0.145581
O O13 0.250000 0.500000 0.356284
O O14 0.334196 0.377951 0.389660
O O15 0.245021 0.378782 0.294696
O O16 0.250000 0.000000 0.922353
O O17 0.250000 0.109062 0.000000
O O18 0.891446 0.750000 0.432241
O O19 0.000000 0.870268 0.426976
O O20 0.750000 0.000000 0.773539
#
# Coordination Sequence:
#
# PCOD8280758 Si02
#       7
#    16  16  16  16  16  16  16
#     4   9  19  36  56  77 102 135 175 216 260 314
#     4  10  21  37  58  82 107 139 179 222 267 310
#     4  10  21  37  58  82 107 139 179 222 267 310
#     4  11  23  35  51  79 109 137 172 215 266 319
#     4  10  21  36  56  84 115 146 180 215 253 306
#     4   9  19  36  56  77 102 135 175 216 260 314
#     4  10  22  38  54  75 106 142 178 218 263 314
#
# _framework density 18.725515000000001
#
# number of rings (size 3 to 8) (size 9 to 14) (size 15 to 20)
#    0.000    2.143    0.000    5.143    0.000   10.286 
#    0.000   10.000    0.000    0.000    0.000    0.000 
#    0.000    0.000    0.000    0.000    0.000    0.000 
#
# Total GULP energy -694430.189275 kJ/mol
# GULP energy per Si atom -12400.539094 kJ/mol
# Density = 1.868289 g / cm^3
# Si number density = 18.725515 Si / 1000 Ang^3
#
#
#
# Elastic Constant Matrix: (Units=GPa)
#
#
# Indices 1 2 3 4 5 6 
#
# 1 144.8071 46.9114 78.1951 0.0000 0.0000 0.0000
# 2 46.9114 77.0120 55.1890 0.0000 0.0000 0.0000
# 3 78.1951 55.1890 180.1483 0.0000 0.0000 0.0000
# 4 0.0000 0.0000 0.0000 395.4433 0.0000 0.0000
# 5 0.0000 0.0000 0.0000 0.0000 36.0772 0.0000
# 6 0.0000 0.0000 0.0000 0.0000 0.0000 63.2104
#
#
#
# Elastic Compliance Matrix: (Units=1/GPa)
#
#
# Indices 1 2 3 4 5 6 
#
# 1 0.009795 -0.003741 -0.003105 0.000000 0.000000 0.000000
# 2 -0.003741 0.018066 -0.003911 0.000000 0.000000 0.000000
# 3 -0.003105 -0.003911 0.008097 0.000000 0.000000 0.000000
# 4 0.000000 0.000000 0.000000 0.002529 0.000000 0.000000
# 5 0.000000 0.000000 0.000000 0.000000 0.027718 0.000000
# 6 0.000000 0.000000 0.000000 0.000000 0.000000 0.015820
#
#
# Mechanical properties :
#
#
# Convention : Reuss Voigt Hill
#
# Bulk Modulus (GPa) = 69.23491 84.72871 76.98181
# Shear Modulus (GPa) = 46.14500 113.72432 79.93466
#
# Velocity S-wave (km/s) = 4.96954 7.80155 6.54066
# Velocity P-wave (km/s) = 8.36554 11.24714 9.91162
#
# Compressibility (1/GPa) = 0.01444358
#
# Stress axis : x y z
#
# Youngs Moduli (GPa) = 102.09804 55.35140 123.50208
#
# Poissons Ratio (x) = 0.20706 0.38352
# Poissons Ratio (y) = 0.38193 0.48301
# Poissons Ratio (z) = 0.31705 0.21648
#
# Static dielectric constant tensor:
#      x y z
#    x 3.412310 0.000000 0.000000 
#    y 0.000000 3.471490 0.000000 
#    z 0.000000 0.000000 3.761210 
# 
# 
# High freq. dielectric constant tensor:
#      x y z
#    x 1.734470 0.000000 0.000000 
#    y 0.000000 1.732360 0.000000 
#    z 0.000000 0.000000 1.731100 
# 
# From -- ./inp_files/41908.got.cif
#   From: 2010.03.12/outbox.cif.g09.slc.cpg/sg67_21_cif.got.tgz:41908.got - 2010.04.10 22:41:39.
