data_PCOD8280184
_publ_section_title
;
Structure prediction by ZEFSAII (Michael W. Deem and Ramdas Pophale) SiO2 
 PCOD8280184
Probable space group: C M M A
;
_chemical_formula_sum "Si O2"
_cell_formula_units_Z 88
_cell_length_a 8.526715
_cell_length_b 21.858783
_cell_length_c 24.246966
_cell_angle_alpha 90.000000
_cell_angle_beta 90.000000
_cell_angle_gamma 90.000000
_cell_volume 4519.237125
_symmetry_space_group_name_H-M "C M M A"
_symmetry_group_IT_number 67
_symmetry_cell_setting 'orthorhombic'
loop_
_space_group_symop_operation_xyz
x,y,z
-x,1/2-y,z
x,-y,-z
-x,1/2+y,-z
-x,-y,-z
x,1/2+y,-z
-x,y,z
x,1/2-y,z
1/2+x,1/2+y,z
1/2-x,-y,z
1/2+x,1/2-y,-z
1/2-x,y,-z
1/2-x,1/2-y,-z
1/2+x,y,-z
1/2-x,1/2+y,z
1/2+x,-y,z
loop_
_atom_site_type_symbol
_atom_site_label
_atom_site_fract_x
_atom_site_fract_y
_atom_site_fract_z
Si Si1 0.818264 0.647580 0.361928
Si Si2 0.322545 0.678952 0.249086
Si Si3 0.317806 0.750000 0.439081
Si Si4 0.315427 0.181058 0.131620
Si Si5 0.686883 0.433660 0.554598
Si Si6 0.813203 0.435113 0.938737
O O1 0.756164 0.644434 0.299771
O O2 0.727706 0.692263 0.402784
O O3 0.777786 0.583144 0.389111
O O4 0.000000 0.664456 0.360713
O O5 0.500000 0.656264 0.240967
O O6 0.316012 0.750000 0.263700
O O7 0.227800 0.664018 0.193899
O O8 0.500000 0.750000 0.447783
O O9 0.250000 0.750000 0.500000
O O10 0.500000 0.183675 0.125496
O O11 0.248341 0.250000 0.116327
O O12 0.250182 0.125279 0.093921
O O13 0.500000 0.427805 0.560408
O O14 0.750000 0.500000 0.543800
O O15 0.750000 0.396023 0.500000
O O16 0.750000 0.500000 0.913680
O O17 0.000000 0.437721 0.938230
O O18 0.750000 0.427402 0.000000
#
# Coordination Sequence:
#
# PCOD8280184 Si02
#       6
#    16  16   8  16  16  16
#     4  12  23  37  57  81 109 145 182 224 278 335
#     4  10  20  35  56  82 112 145 184 231 282 335
#     4  12  24  38  54  80 112 142 179 226 279 336
#     4   9  19  36  57  82 113 150 194 239 287 344
#     4  11  22  39  59  80 106 138 179 226 276 336
#     4  10  20  35  57  84 117 156 194 237 287 344
#
# _framework density 19.472314000000001
#
# number of rings (size 3 to 8) (size 9 to 14) (size 15 to 20)
#    0.000    1.455    0.909    6.818    0.000    2.545 
#    0.000    0.909    0.000    2.182    0.000    0.000 
#    0.000    0.000    0.000    0.000    0.000    0.000 
#
# Total GULP energy -545245.435364 kJ/mol
# GULP energy per Si atom -12391.941713 kJ/mol
# Density = 1.942799 g / cm^3
# Si number density = 19.472314 Si / 1000 Ang^3
#
#
#
# Elastic Constant Matrix: (Units=GPa)
#
#
# Indices 1 2 3 4 5 6 
#
# 1 44.3446 21.0703 9.8484 0.0000 0.0000 0.0000
# 2 21.0703 106.7879 68.9674 0.0000 0.0000 0.0000
# 3 9.8484 68.9674 115.4657 0.0000 0.0000 0.0000
# 4 0.0000 0.0000 0.0000 13.6612 0.0000 0.0000
# 5 0.0000 0.0000 0.0000 0.0000 32.5089 0.0000
# 6 0.0000 0.0000 0.0000 0.0000 0.0000 27.7091
#
#
#
# Elastic Compliance Matrix: (Units=1/GPa)
#
#
# Indices 1 2 3 4 5 6 
#
# 1 0.025008 -0.005790 0.001326 0.000000 0.000000 0.000000
# 2 -0.005790 0.016586 -0.009413 0.000000 0.000000 0.000000
# 3 0.001326 -0.009413 0.014170 0.000000 0.000000 0.000000
# 4 0.000000 0.000000 0.000000 0.073200 0.000000 0.000000
# 5 0.000000 0.000000 0.000000 0.000000 0.030761 0.000000
# 6 0.000000 0.000000 0.000000 0.000000 0.000000 0.036089
#
#
# Mechanical properties :
#
#
# Convention : Reuss Voigt Hill
#
# Bulk Modulus (GPa) = 35.70403 51.81894 43.76149
# Shear Modulus (GPa) = 21.46800 25.88998 23.67899
#
# Velocity S-wave (km/s) = 3.32398 3.65030 3.49095
# Velocity P-wave (km/s) = 5.75390 6.66600 6.22667
#
# Compressibility (1/GPa) = 0.02800804
#
# Stress axis : x y z
#
# Youngs Moduli (GPa) = 39.98796 60.29155 70.57236
#
# Poissons Ratio (x) = 0.34911 -0.09355
# Poissons Ratio (y) = 0.23154 0.66429
# Poissons Ratio (z) = -0.05301 0.56752
#
# Static dielectric constant tensor:
#      x y z
#    x 3.616060 0.000000 0.000000 
#    y 0.000000 4.573550 0.000000 
#    z 0.000000 0.000000 3.607400 
# 
# 
# High freq. dielectric constant tensor:
#      x y z
#    x 1.766500 0.000000 0.000000 
#    y 0.000000 1.752430 0.000000 
#    z 0.000000 0.000000 1.759610 
# 
# From -- ./inp_files/36938.got.cif
#   From: 2010.03.12/outbox.cif.g09.slc.cpg/sg67_19_cif.got.tgz:36938.got - 2010.04.10 22:41:39.
