data_PCOD8280147
_publ_section_title
;
Structure prediction by ZEFSAII (Michael W. Deem and Ramdas Pophale) SiO2 
 PCOD8280147
Probable space group: C M M A
;
_chemical_formula_sum "Si O2"
_cell_formula_units_Z 104
_cell_length_a 26.912649
_cell_length_b 8.643285
_cell_length_c 23.027846
_cell_angle_alpha 90.000000
_cell_angle_beta 90.000000
_cell_angle_gamma 90.000000
_cell_volume 5356.592355
_symmetry_space_group_name_H-M "C M M A"
_symmetry_group_IT_number 67
_symmetry_cell_setting 'orthorhombic'
loop_
_space_group_symop_operation_xyz
x,y,z
-x,1/2-y,z
x,-y,-z
-x,1/2+y,-z
-x,-y,-z
x,1/2+y,-z
-x,y,z
x,1/2-y,z
1/2+x,1/2+y,z
1/2-x,-y,z
1/2+x,1/2-y,-z
1/2-x,y,-z
1/2-x,1/2-y,-z
1/2+x,y,-z
1/2-x,1/2+y,z
1/2+x,-y,z
loop_
_atom_site_type_symbol
_atom_site_label
_atom_site_fract_x
_atom_site_fract_y
_atom_site_fract_z
Si Si1 0.197164 0.565256 0.935957
Si Si2 0.000000 0.433058 0.936402
Si Si3 0.054055 0.934399 0.371282
Si Si4 0.198874 0.067720 0.676312
Si Si5 0.104435 0.566566 0.257257
Si Si6 0.600566 0.565495 0.872872
Si Si7 0.148037 0.567431 0.438507
O O1 0.199724 0.750000 0.937493
O O2 0.250000 0.500000 0.911425
O O3 0.150473 0.511856 0.897530
O O4 0.188092 0.500000 0.000000
O O5 0.949432 0.491096 0.905354
O O6 0.000000 0.250000 0.938321
O O7 0.000000 0.500000 0.000000
O O8 0.056304 0.750000 0.370309
O O9 0.065397 0.993876 0.305677
O O10 0.093821 0.995351 0.418346
O O11 0.000000 0.996621 0.389835
O O12 0.200731 0.250000 0.677000
O O13 0.158316 0.007333 0.721993
O O14 0.186809 0.011741 0.610644
O O15 0.250000 0.000000 0.698430
O O16 0.103038 0.750000 0.255546
O O17 0.093189 0.504225 0.193023
O O18 0.606829 0.750000 0.876615
O O19 0.164173 0.500000 0.500000
O O20 0.147383 0.750000 0.443899
#
# Coordination Sequence:
#
# PCOD8280147 Si02
#       7
#    16   8  16  16  16  16  16
#     4  11  22  38  59  82 108 141 178 221 271 321
#     4  10  22  36  54  80 112 148 183 220 264 312
#     4   8  14  26  47  72  97 128 164 206 254 301
#     4   9  18  33  50  70  97 131 166 207 256 304
#     4   8  16  30  49  73 102 130 165 213 255 298
#     4  10  20  35  55  83 113 143 182 224 266 319
#     4   9  18  31  46  69  99 127 163 208 253 301
#
# _framework density 19.415329
#
# number of rings (size 3 to 8) (size 9 to 14) (size 15 to 20)
#    0.000    2.769    0.000    4.154    1.077    3.692 
#    0.000    3.846    0.000    0.923    0.000    0.000 
#    0.000    0.000    0.000    0.000    0.000    0.000 
#
# Total GULP energy -644401.992326 kJ/mol
# GULP energy per Si atom -12392.346006 kJ/mol
# Density = 1.937114 g / cm^3
# Si number density = 19.415329 Si / 1000 Ang^3
#
#
#
# Elastic Constant Matrix: (Units=GPa)
#
#
# Indices 1 2 3 4 5 6 
#
# 1 105.7460 16.5554 22.3438 0.0000 0.0000 0.0000
# 2 16.5554 39.2317 14.3652 0.0000 0.0000 0.0000
# 3 22.3438 14.3652 105.7373 0.0000 0.0000 0.0000
# 4 0.0000 0.0000 0.0000 20.2661 0.0000 0.0000
# 5 0.0000 0.0000 0.0000 0.0000 17.2134 0.0000
# 6 0.0000 0.0000 0.0000 0.0000 0.0000 24.0928
#
#
#
# Elastic Compliance Matrix: (Units=1/GPa)
#
#
# Indices 1 2 3 4 5 6 
#
# 1 0.010404 -0.003773 -0.001686 0.000000 0.000000 0.000000
# 2 -0.003773 0.028192 -0.003033 0.000000 0.000000 0.000000
# 3 -0.001686 -0.003033 0.010226 0.000000 0.000000 0.000000
# 4 0.000000 0.000000 0.000000 0.049343 0.000000 0.000000
# 5 0.000000 0.000000 0.000000 0.000000 0.058094 0.000000
# 6 0.000000 0.000000 0.000000 0.000000 0.000000 0.041506
#
#
# Mechanical properties :
#
#
# Convention : Reuss Voigt Hill
#
# Bulk Modulus (GPa) = 31.40877 39.69376 35.55127
# Shear Modulus (GPa) = 22.18661 25.47784 23.83222
#
# Velocity S-wave (km/s) = 3.38411 3.62643 3.50736
# Velocity P-wave (km/s) = 5.61088 6.16633 5.89515
#
# Compressibility (1/GPa) = 0.03183824
#
# Stress axis : x y z
#
# Youngs Moduli (GPa) = 96.12139 35.47079 97.79302
#
# Poissons Ratio (x) = 0.13383 0.16486
# Poissons Ratio (y) = 0.36265 0.29659
# Poissons Ratio (z) = 0.16204 0.10758
#
# Static dielectric constant tensor:
#      x y z
#    x 3.317850 0.000000 0.000000 
#    y 0.000000 3.108910 0.000000 
#    z 0.000000 0.000000 3.785250 
# 
# 
# High freq. dielectric constant tensor:
#      x y z
#    x 1.767650 0.000000 0.000000 
#    y 0.000000 1.714210 0.000000 
#    z 0.000000 0.000000 1.758410 
# 
# From -- ./inp_files/40173.got.cif
#   From: 2010.03.12/outbox.cif.g09.slc.cpg/sg67_21_cif.got.tgz:40173.got - 2010.04.10 22:41:39.
