data_PCOD8280704
_publ_section_title
;
Structure prediction by ZEFSAII (Michael W. Deem and Ramdas Pophale) SiO2 
 PCOD8280704
Probable space group: C M M A
;
_chemical_formula_sum "Si O2"
_cell_formula_units_Z 96
_cell_length_a 8.602388
_cell_length_b 28.733669
_cell_length_c 20.515902
_cell_angle_alpha 90.000000
_cell_angle_beta 90.000000
_cell_angle_gamma 90.000000
_cell_volume 5071.083100
_symmetry_space_group_name_H-M "C M M A"
_symmetry_group_IT_number 67
_symmetry_cell_setting 'orthorhombic'
loop_
_space_group_symop_operation_xyz
x,y,z
-x,1/2-y,z
x,-y,-z
-x,1/2+y,-z
-x,-y,-z
x,1/2+y,-z
-x,y,z
x,1/2-y,z
1/2+x,1/2+y,z
1/2-x,-y,z
1/2+x,1/2-y,-z
1/2-x,y,-z
1/2-x,1/2-y,-z
1/2+x,y,-z
1/2-x,1/2+y,z
1/2+x,-y,z
loop_
_atom_site_type_symbol
_atom_site_label
_atom_site_fract_x
_atom_site_fract_y
_atom_site_fract_z
Si Si1 0.818469 0.392396 0.315898
Si Si2 0.319621 0.697556 0.729081
Si Si3 0.183554 0.104174 0.932217
Si Si4 0.315266 0.300434 0.122451
Si Si5 0.683230 0.049569 0.430306
Si Si6 0.315608 0.948897 0.803608
O O1 0.783085 0.337330 0.314139
O O2 0.729419 0.412163 0.377987
O O3 0.755691 0.415260 0.250054
O O4 0.000000 0.402040 0.323449
O O5 0.500000 0.683200 0.724214
O O6 0.294152 0.750000 0.703018
O O7 0.260421 0.693562 0.803307
O O8 0.250801 0.156467 0.919640
O O9 0.236495 0.069876 0.874461
O O10 0.000000 0.105582 0.936574
O O11 0.250000 0.084786 0.000000
O O12 0.500000 0.301109 0.121555
O O13 0.255462 0.250000 0.095511
O O14 0.500000 0.045315 0.435673
O O15 0.750000 0.064761 0.500000
O O16 0.750000 0.000000 0.407530
O O17 0.500000 0.949091 0.795773
O O18 0.250000 0.000000 0.793311
#
# Coordination Sequence:
#
# PCOD8280704 Si02
#       6
#    16  16  16  16  16  16
#     4  12  23  36  58  88 120 152 188 233 281 331
#     4   9  17  33  58  84 112 148 189 232 281 335
#     4  10  21  36  54  75 105 141 182 228 282 342
#     4   8  14  29  53  77 103 137 176 220 275 336
#     4  11  22  39  61  88 123 158 195 233 279 334
#     4  11  23  40  58  79 106 141 187 237 288 340
#
# _framework density 18.930866999999999
#
# number of rings (size 3 to 8) (size 9 to 14) (size 15 to 20)
#    0.000    1.833    1.667    5.500    0.000    2.333 
#    0.000    1.667    0.000    0.500    0.000    0.000 
#    0.000    0.000    0.000    0.000    0.000    0.000 
#
# Total GULP energy -595198.519366 kJ/mol
# GULP energy per Si atom -12399.969153 kJ/mol
# Density = 1.888778 g / cm^3
# Si number density = 18.930867 Si / 1000 Ang^3
#
#
#
# Elastic Constant Matrix: (Units=GPa)
#
#
# Indices 1 2 3 4 5 6 
#
# 1 89.0171 28.6477 33.6335 0.0000 0.0000 0.0000
# 2 28.6477 99.7453 40.3830 0.0000 0.0000 0.0000
# 3 33.6335 40.3830 96.1092 0.0000 0.0000 0.0000
# 4 0.0000 0.0000 0.0000 28.9449 0.0000 0.0000
# 5 0.0000 0.0000 0.0000 0.0000 26.5527 0.0000
# 6 0.0000 0.0000 0.0000 0.0000 0.0000 26.9279
#
#
#
# Elastic Compliance Matrix: (Units=1/GPa)
#
#
# Indices 1 2 3 4 5 6 
#
# 1 0.013387 -0.002347 -0.003698 0.000000 0.000000 0.000000
# 2 -0.002347 0.012492 -0.004427 0.000000 0.000000 0.000000
# 3 -0.003698 -0.004427 0.013559 0.000000 0.000000 0.000000
# 4 0.000000 0.000000 0.000000 0.034548 0.000000 0.000000
# 5 0.000000 0.000000 0.000000 0.000000 0.037661 0.000000
# 6 0.000000 0.000000 0.000000 0.000000 0.000000 0.037136
#
#
# Mechanical properties :
#
#
# Convention : Reuss Voigt Hill
#
# Bulk Modulus (GPa) = 54.07810 54.46666 54.27238
# Shear Modulus (GPa) = 28.42618 28.63226 28.52922
#
# Velocity S-wave (km/s) = 3.87922 3.89326 3.88625
# Velocity P-wave (km/s) = 6.97801 7.00313 6.99058
#
# Compressibility (1/GPa) = 0.01849178
#
# Stress axis : x y z
#
# Youngs Moduli (GPa) = 74.70159 80.04949 73.74959
#
# Poissons Ratio (x) = 0.18791 0.27275
# Poissons Ratio (y) = 0.17536 0.32653
# Poissons Ratio (z) = 0.27627 0.35442
#
# Static dielectric constant tensor:
#      x y z
#    x 3.324760 0.000000 0.000000 
#    y 0.000000 3.745750 0.000000 
#    z 0.000000 0.000000 3.464540 
# 
# 
# High freq. dielectric constant tensor:
#      x y z
#    x 1.723700 0.000000 0.000000 
#    y 0.000000 1.744550 0.000000 
#    z 0.000000 0.000000 1.720940 
# 
# From -- ./inp_files/37133.got.cif
#   From: 2010.03.12/outbox.cif.g09.slc.cpg/sg67_19_cif.got.tgz:37133.got - 2010.04.10 22:41:39.
