data_PCOD8280822
_publ_section_title
;
Structure prediction by ZEFSAII (Michael W. Deem and Ramdas Pophale) SiO2 
 PCOD8280822
Probable space group: C M M A
;
_chemical_formula_sum "Si O2"
_cell_formula_units_Z 56
_cell_length_a 15.759288
_cell_length_b 8.692929
_cell_length_c 19.727519
_cell_angle_alpha 90.000000
_cell_angle_beta 90.000000
_cell_angle_gamma 90.000000
_cell_volume 2702.559070
_symmetry_space_group_name_H-M "C M M A"
_symmetry_group_IT_number 67
_symmetry_cell_setting 'orthorhombic'
loop_
_space_group_symop_operation_xyz
x,y,z
-x,1/2-y,z
x,-y,-z
-x,1/2+y,-z
-x,-y,-z
x,1/2+y,-z
-x,y,z
x,1/2-y,z
1/2+x,1/2+y,z
1/2-x,-y,z
1/2+x,1/2-y,-z
1/2-x,y,-z
1/2-x,1/2-y,-z
1/2+x,y,-z
1/2-x,1/2+y,z
1/2+x,-y,z
loop_
_atom_site_type_symbol
_atom_site_label
_atom_site_fract_x
_atom_site_fract_y
_atom_site_fract_z
Si Si1 0.500000 0.431779 0.074089
Si Si2 0.660111 0.068700 0.693178
Si Si3 0.158201 0.932586 0.163719
Si Si4 0.903011 0.581707 0.435127
O O1 0.500000 0.250000 0.069918
O O2 0.585540 0.488363 0.111794
O O3 0.500000 0.500000 0.000000
O O4 0.664247 0.250000 0.703942
O O5 0.750000 0.000000 0.672132
O O6 0.628754 0.992493 0.762936
O O7 0.599072 0.024471 0.631627
O O8 0.166057 0.750000 0.165967
O O9 0.250000 0.000000 0.142239
O O10 0.858138 0.500000 0.500000
O O11 0.860352 0.750000 0.422588
O O12 0.000000 0.608274 0.454032
#
# Coordination Sequence:
#
# PCOD8280822 Si02
#       4
#     8  16  16  16
#     4  10  24  42  64  92 125 160 201 242 296 360
#     4  11  22  37  58  85 114 150 195 242 293 352
#     4  10  21  40  62  90 123 161 201 249 302 356
#     4  10  21  37  56  80 113 151 192 242 295 350
#
# _framework density 20.721101000000001
#
# number of rings (size 3 to 8) (size 9 to 14) (size 15 to 20)
#    0.000    1.714    0.000    6.000    2.000    5.143 
#    0.000    5.714    0.000    0.000    0.000    0.000 
#    0.000    0.000    0.000    0.000    0.000    0.000 
#
# Total GULP energy -347154.756986 kJ/mol
# GULP energy per Si atom -12398.384178 kJ/mol
# Density = 2.067394 g / cm^3
# Si number density = 20.721101 Si / 1000 Ang^3
#
#
#
# Elastic Constant Matrix: (Units=GPa)
#
#
# Indices 1 2 3 4 5 6 
#
# 1 89.7527 41.1569 73.7065 0.0000 0.0000 0.0000
# 2 41.1569 121.8931 51.1571 0.0000 0.0000 0.0000
# 3 73.7065 51.1571 167.3963 0.0000 0.0000 0.0000
# 4 0.0000 0.0000 0.0000 39.2868 0.0000 0.0000
# 5 0.0000 0.0000 0.0000 0.0000 18.2588 0.0000
# 6 0.0000 0.0000 0.0000 0.0000 0.0000 28.5621
#
#
#
# Elastic Compliance Matrix: (Units=1/GPa)
#
#
# Indices 1 2 3 4 5 6 
#
# 1 0.018508 -0.003245 -0.007157 0.000000 0.000000 0.000000
# 2 -0.003245 0.009980 -0.001621 0.000000 0.000000 0.000000
# 3 -0.007157 -0.001621 0.009621 0.000000 0.000000 0.000000
# 4 0.000000 0.000000 0.000000 0.025454 0.000000 0.000000
# 5 0.000000 0.000000 0.000000 0.000000 0.054768 0.000000
# 6 0.000000 0.000000 0.000000 0.000000 0.000000 0.035011
#
#
# Mechanical properties :
#
#
# Convention : Reuss Voigt Hill
#
# Bulk Modulus (GPa) = 71.11812 79.00924 75.06368
# Shear Modulus (GPa) = 27.46109 31.42299 29.44204
#
# Velocity S-wave (km/s) = 3.64438 3.89842 3.77354
# Velocity P-wave (km/s) = 7.21836 7.64697 7.43576
#
# Compressibility (1/GPa) = 0.01406111
#
# Stress axis : x y z
#
# Youngs Moduli (GPa) = 54.03188 100.20072 103.94236
#
# Poissons Ratio (x) = 0.32517 0.74395
# Poissons Ratio (y) = 0.17534 0.16849
# Poissons Ratio (z) = 0.38673 0.16243
#
# Static dielectric constant tensor:
#      x y z
#    x 3.702500 0.000000 0.000000 
#    y 0.000000 4.036460 0.000000 
#    z 0.000000 0.000000 3.418320 
# 
# 
# High freq. dielectric constant tensor:
#      x y z
#    x 1.799380 0.000000 0.000000 
#    y 0.000000 1.826010 0.000000 
#    z 0.000000 0.000000 1.812750 
# 
# From -- ./inp_files/28932.got.cif
#   From: 2010.03.12/outbox.cif.g09.slc.cpg/sg67_15_cif.got.tgz:28932.got - 2010.04.10 22:41:39.
