data_PCOD8280281
_publ_section_title
;
Structure prediction by ZEFSAII (Michael W. Deem and Ramdas Pophale) SiO2 
 PCOD8280281
Probable space group: C M M A
;
_chemical_formula_sum "Si O2"
_cell_formula_units_Z 120
_cell_length_a 20.114903
_cell_length_b 17.998160
_cell_length_c 16.424284
_cell_angle_alpha 90.000000
_cell_angle_beta 90.000000
_cell_angle_gamma 90.000000
_cell_volume 5946.103945
_symmetry_space_group_name_H-M "C M M A"
_symmetry_group_IT_number 67
_symmetry_cell_setting 'orthorhombic'
loop_
_space_group_symop_operation_xyz
x,y,z
-x,1/2-y,z
x,-y,-z
-x,1/2+y,-z
-x,-y,-z
x,1/2+y,-z
-x,y,z
x,1/2-y,z
1/2+x,1/2+y,z
1/2-x,-y,z
1/2+x,1/2-y,-z
1/2-x,y,-z
1/2-x,1/2-y,-z
1/2+x,y,-z
1/2-x,1/2+y,z
1/2+x,-y,z
loop_
_atom_site_type_symbol
_atom_site_label
_atom_site_fract_x
_atom_site_fract_y
_atom_site_fract_z
Si Si1 0.175787 0.665749 0.942618
Si Si2 0.250000 0.500000 0.229602
Si Si3 0.190958 0.614909 0.114440
Si Si4 0.077412 0.074983 0.624958
Si Si5 0.360660 0.424680 0.672097
Si Si6 0.923816 0.666880 0.807341
Si Si7 0.577271 0.336649 0.536334
Si Si8 0.425574 0.166074 0.219177
O O1 0.175893 0.750000 0.977617
O O2 0.238296 0.657420 0.880385
O O3 0.110459 0.647968 0.892434
O O4 0.178343 0.606370 0.017008
O O5 0.197417 0.540000 0.168655
O O6 0.287847 0.559263 0.288762
O O7 0.127446 0.659826 0.146850
O O8 0.097313 0.121000 0.545682
O O9 0.100209 0.118802 0.704824
O O10 0.000000 0.058456 0.625728
O O11 0.114917 0.997402 0.625412
O O12 0.408432 0.398041 0.744215
O O13 0.367956 0.360219 0.604106
O O14 0.902523 0.750000 0.776075
O O15 0.000000 0.665253 0.828321
O O16 0.500000 0.354108 0.562241
O O17 0.585473 0.250000 0.519676
O O18 0.500000 0.140941 0.190636
O O19 0.428717 0.250000 0.249877
#
# Coordination Sequence:
#
# PCOD8280281 Si02
#       8
#    16   8  16  16  16  16  16  16
#     4  10  21  37  63  91 116 159 211 256 305 370
#     4  12  26  41  59  86 118 170 210 260 299 365
#     4  11  21  41  59  84 120 161 212 254 305 362
#     4  10  20  36  61  92 124 156 197 245 302 368
#     4  12  22  40  60  87 123 165 209 244 304 363
#     4  10  21  38  62  95 130 159 198 258 316 368
#     4  10  21  39  66  97 124 155 198 250 308 372
#     4  10  20  35  60  91 123 159 201 256 311 363
#
# _framework density 20.181280999999998
#
# number of rings (size 3 to 8) (size 9 to 14) (size 15 to 20)
#    0.000    1.467    2.667    4.000    0.000    5.333 
#    0.000    2.667    0.000    1.600    0.000    0.000 
#    0.000    0.000    0.000    0.000    0.000    0.000 
#
# Total GULP energy -743544.693513 kJ/mol
# GULP energy per Si atom -12392.411559 kJ/mol
# Density = 2.013535 g / cm^3
# Si number density = 20.181281 Si / 1000 Ang^3
#
#
#
# Elastic Constant Matrix: (Units=GPa)
#
#
# Indices 1 2 3 4 5 6 
#
# 1 83.9827 28.6531 58.7558 0.0000 0.0000 0.0000
# 2 28.6531 86.0947 43.7026 0.0000 0.0000 0.0000
# 3 58.7558 43.7026 109.5123 0.0000 0.0000 0.0000
# 4 0.0000 0.0000 0.0000 34.7670 0.0000 0.0000
# 5 0.0000 0.0000 0.0000 0.0000 33.6209 0.0000
# 6 0.0000 0.0000 0.0000 0.0000 0.0000 29.9012
#
#
#
# Elastic Compliance Matrix: (Units=1/GPa)
#
#
# Indices 1 2 3 4 5 6 
#
# 1 0.019207 -0.001456 -0.009724 0.000000 0.000000 0.000000
# 2 -0.001456 0.014676 -0.005075 0.000000 0.000000 0.000000
# 3 -0.009724 -0.005075 0.016374 0.000000 0.000000 0.000000
# 4 0.000000 0.000000 0.000000 0.028763 0.000000 0.000000
# 5 0.000000 0.000000 0.000000 0.000000 0.029743 0.000000
# 6 0.000000 0.000000 0.000000 0.000000 0.000000 0.033443
#
#
# Mechanical properties :
#
#
# Convention : Reuss Voigt Hill
#
# Bulk Modulus (GPa) = 56.35101 60.20142 58.27622
# Shear Modulus (GPa) = 27.68038 29.55635 28.61836
#
# Velocity S-wave (km/s) = 3.70751 3.83109 3.76981
# Velocity P-wave (km/s) = 6.80519 7.03312 6.92009
#
# Compressibility (1/GPa) = 0.01774591
#
# Stress axis : x y z
#
# Youngs Moduli (GPa) = 52.06409 68.13785 61.07288
#
# Poissons Ratio (x) = 0.09923 0.59386
# Poissons Ratio (y) = 0.07582 0.30997
# Poissons Ratio (z) = 0.50626 0.34582
#
# Static dielectric constant tensor:
#      x y z
#    x 3.620320 0.000000 0.000000 
#    y 0.000000 3.728640 0.000000 
#    z 0.000000 0.000000 3.706760 
# 
# 
# High freq. dielectric constant tensor:
#      x y z
#    x 1.774380 0.000000 0.000000 
#    y 0.000000 1.786230 0.000000 
#    z 0.000000 0.000000 1.790210 
# 
# From -- ./inp_files/35176.got.cif
#   From: 2010.03.12/outbox.cif.g09.slc.cpg/sg67_18_cif.got.tgz:35176.got - 2010.04.10 22:41:39.
