data_PCOD8280772
_publ_section_title
;
Structure prediction by ZEFSAII (Michael W. Deem and Ramdas Pophale) SiO2 
 PCOD8280772
Probable space group: C M M A
;
_chemical_formula_sum "Si O2"
_cell_formula_units_Z 112
_cell_length_a 14.322575
_cell_length_b 14.472252
_cell_length_c 26.834410
_cell_angle_alpha 90.000000
_cell_angle_beta 90.000000
_cell_angle_gamma 90.000000
_cell_volume 5562.234216
_symmetry_space_group_name_H-M "C M M A"
_symmetry_group_IT_number 67
_symmetry_cell_setting 'orthorhombic'
loop_
_space_group_symop_operation_xyz
x,y,z
-x,1/2-y,z
x,-y,-z
-x,1/2+y,-z
-x,-y,-z
x,1/2+y,-z
-x,y,z
x,1/2-y,z
1/2+x,1/2+y,z
1/2-x,-y,z
1/2+x,1/2-y,-z
1/2-x,y,-z
1/2-x,1/2-y,-z
1/2+x,y,-z
1/2-x,1/2+y,z
1/2+x,-y,z
loop_
_atom_site_type_symbol
_atom_site_label
_atom_site_fract_x
_atom_site_fract_y
_atom_site_fract_z
Si Si1 0.261462 0.360566 0.258547
Si Si2 0.898390 0.877319 0.453287
Si Si3 0.249422 0.856522 0.940950
Si Si4 0.892554 0.991988 0.783426
Si Si5 0.892631 0.497270 0.098892
Si Si6 0.101397 0.090504 0.440556
Si Si7 0.251565 0.149615 0.370453
O O1 0.261530 0.250000 0.248558
O O2 0.163920 0.405893 0.240542
O O3 0.347893 0.408870 0.230635
O O4 0.279508 0.387902 0.316350
O O5 0.860324 0.855382 0.509861
O O6 0.836718 0.839686 0.408588
O O7 0.000000 0.831039 0.446966
O O8 0.909908 0.985124 0.452697
O O9 0.251778 0.750000 0.922369
O O10 0.338675 0.910397 0.918597
O O11 0.153810 0.905370 0.923883
O O12 0.250000 0.861610 0.000000
O O13 0.885973 0.985180 0.842358
O O14 0.000000 0.987580 0.765073
O O15 0.000000 0.504332 0.080992
O O16 0.171178 0.088444 0.394299
O O17 0.000000 0.131483 0.425358
O O18 0.206917 0.250000 0.362356
#
# Coordination Sequence:
#
# PCOD8280772 Si02
#       7
#    16  16  16  16  16  16  16
#     4  10  23  41  59  85 119 149 186 242 301 356
#     4   9  19  35  54  76 101 133 173 212 254 314
#     4  10  21  36  57  89 128 167 202 239 289 345
#     4  10  23  41  63  89 113 151 203 247 297 351
#     4  10  21  38  60  87 118 155 205 255 293 339
#     4   9  19  35  54  76 101 133 173 212 254 314
#     4  11  23  35  51  78 106 135 170 212 270 334
#
# _framework density 20.135794000000001
#
# number of rings (size 3 to 8) (size 9 to 14) (size 15 to 20)
#    0.000    2.143    0.000    4.286    4.000    8.571 
#    0.000    8.571    0.000    0.000    0.000    0.000 
#    0.000    0.000    0.000    0.000    0.000    0.000 
#
# Total GULP energy -693822.837368 kJ/mol
# GULP energy per Si atom -12389.693524 kJ/mol
# Density = 2.008996 g / cm^3
# Si number density = 20.135794 Si / 1000 Ang^3
#
#
#
# Elastic Constant Matrix: (Units=GPa)
#
#
# Indices 1 2 3 4 5 6 
#
# 1 139.1181 52.9065 42.1747 0.0000 0.0000 0.0000
# 2 52.9065 132.7517 33.9902 0.0000 0.0000 0.0000
# 3 42.1747 33.9902 96.3187 0.0000 0.0000 0.0000
# 4 0.0000 0.0000 0.0000 32.0756 0.0000 0.0000
# 5 0.0000 0.0000 0.0000 0.0000 -62.5295 0.0000
# 6 0.0000 0.0000 0.0000 0.0000 0.0000 26.5583
#
#
#
# Elastic Compliance Matrix: (Units=1/GPa)
#
#
# Indices 1 2 3 4 5 6 
#
# 1 0.009201 -0.002897 -0.003007 0.000000 0.000000 0.000000
# 2 -0.002897 0.009193 -0.001976 0.000000 0.000000 0.000000
# 3 -0.003007 -0.001976 0.012396 0.000000 0.000000 0.000000
# 4 0.000000 0.000000 0.000000 0.031176 0.000000 0.000000
# 5 0.000000 0.000000 0.000000 0.000000 -0.015992 0.000000
# 6 0.000000 0.000000 0.000000 0.000000 0.000000 0.037653
#
#
# Mechanical properties :
#
#
# Convention : Reuss Voigt Hill
#
# Bulk Modulus (GPa) = 66.52625 69.59237 68.05931
# Shear Modulus (GPa) = 47.89396 15.16201 31.52798
#
# Velocity S-wave (km/s) = 4.88233 2.74704 3.96127
# Velocity P-wave (km/s) = 8.05564 6.68567 7.40242
#
# Compressibility (1/GPa) = 0.01503166
#
# Stress axis : x y z
#
# Youngs Moduli (GPa) = 108.67861 108.77368 80.67204
#
# Poissons Ratio (x) = 0.31515 0.24255
# Poissons Ratio (y) = 0.31488 0.15938
# Poissons Ratio (z) = 0.32675 0.21490
#
# Static dielectric constant tensor:
#      x y z
#    x 3.880120 0.000000 0.000000 
#    y 0.000000 3.748670 0.000000 
#    z 0.000000 0.000000 3.872620 
# 
# 
# High freq. dielectric constant tensor:
#      x y z
#    x 1.784760 0.000000 0.000000 
#    y 0.000000 1.791350 0.000000 
#    z 0.000000 0.000000 1.790840 
# 
# From -- ./inp_files/41961.got.cif
#   From: 2010.03.12/outbox.cif.g09.slc.cpg/sg67_21_cif.got.tgz:41961.got - 2010.04.10 22:41:39.
