data_PCOD8280378
_publ_section_title
;
Structure prediction by ZEFSAII (Michael W. Deem and Ramdas Pophale) SiO2 
 PCOD8280378
Probable space group: C M M A
;
_chemical_formula_sum "Si O2"
_cell_formula_units_Z 72
_cell_length_a 21.847902
_cell_length_b 9.451042
_cell_length_c 17.189765
_cell_angle_alpha 90.000000
_cell_angle_beta 90.000000
_cell_angle_gamma 90.000000
_cell_volume 3549.436179
_symmetry_space_group_name_H-M "C M M A"
_symmetry_group_IT_number 67
_symmetry_cell_setting 'orthorhombic'
loop_
_space_group_symop_operation_xyz
x,y,z
-x,1/2-y,z
x,-y,-z
-x,1/2+y,-z
-x,-y,-z
x,1/2+y,-z
-x,y,z
x,1/2-y,z
1/2+x,1/2+y,z
1/2-x,-y,z
1/2+x,1/2-y,-z
1/2-x,y,-z
1/2-x,1/2-y,-z
1/2+x,y,-z
1/2-x,1/2+y,z
1/2+x,-y,z
loop_
_atom_site_type_symbol
_atom_site_label
_atom_site_fract_x
_atom_site_fract_y
_atom_site_fract_z
Si Si1 0.429630 0.584686 0.921593
Si Si2 0.173674 0.907516 0.431873
Si Si3 0.430036 0.089262 0.634342
Si Si4 0.132631 0.092183 0.206797
Si Si5 0.250000 0.000000 0.705621
O O1 0.500000 0.561817 0.895037
O O2 0.415435 0.750000 0.934450
O O3 0.382600 0.524506 0.857883
O O4 0.416530 0.500000 0.000000
O O5 0.163119 0.750000 0.463537
O O6 0.205875 0.000000 0.500000
O O7 0.108607 0.980357 0.416153
O O8 0.213892 0.895835 0.353098
O O9 0.500000 0.052316 0.618901
O O10 0.413826 0.250000 0.609860
O O11 0.416101 0.068697 0.725136
O O12 0.125709 0.250000 0.171433
O O13 0.201810 0.079294 0.239236
#
# Coordination Sequence:
#
# PCOD8280378 Si02
#       5
#    16  16  16  16   8
#     4  10  21  37  59  88 120 152 186 225 271 325
#     4  11  23  38  58  82 109 144 187 235 284 335
#     4   9  19  36  57  82 113 148 185 227 280 340
#     4  10  20  36  59  85 114 148 186 231 280 329
#     4  10  23  40  59  82 110 146 190 232 277 334
#
# _framework density 20.284911000000001
#
# number of rings (size 3 to 8) (size 9 to 14) (size 15 to 20)
#    0.000    2.000    0.000    3.000    0.000   11.111 
#    0.000    0.556    0.000    2.667    0.000    0.000 
#    0.000    0.000    0.000    0.000    0.000    0.000 
#
# Total GULP energy -446293.221341 kJ/mol
# GULP energy per Si atom -12397.033926 kJ/mol
# Density = 2.023874 g / cm^3
# Si number density = 20.284911 Si / 1000 Ang^3
#
#
#
# Elastic Constant Matrix: (Units=GPa)
#
#
# Indices 1 2 3 4 5 6 
#
# 1 111.7909 51.8385 50.9771 0.0000 0.0000 0.0000
# 2 51.8385 166.9420 64.2704 0.0000 0.0000 0.0000
# 3 50.9771 64.2704 96.1470 0.0000 0.0000 0.0000
# 4 0.0000 0.0000 0.0000 35.5544 0.0000 0.0000
# 5 0.0000 0.0000 0.0000 0.0000 20.6635 0.0000
# 6 0.0000 0.0000 0.0000 0.0000 0.0000 11.1826
#
#
#
# Elastic Compliance Matrix: (Units=1/GPa)
#
#
# Indices 1 2 3 4 5 6 
#
# 1 0.012163 -0.001743 -0.005284 0.000000 0.000000 0.000000
# 2 -0.001743 0.008315 -0.004635 0.000000 0.000000 0.000000
# 3 -0.005284 -0.004635 0.016300 0.000000 0.000000 0.000000
# 4 0.000000 0.000000 0.000000 0.028126 0.000000 0.000000
# 5 0.000000 0.000000 0.000000 0.000000 0.048394 0.000000
# 6 0.000000 0.000000 0.000000 0.000000 0.000000 0.089425
#
#
# Mechanical properties :
#
#
# Convention : Reuss Voigt Hill
#
# Bulk Modulus (GPa) = 74.31398 78.78354 76.54876
# Shear Modulus (GPa) = 21.68903 27.33303 24.51103
#
# Velocity S-wave (km/s) = 3.27344 3.67475 3.47989
# Velocity P-wave (km/s) = 7.14156 7.54506 7.34608
#
# Compressibility (1/GPa) = 0.01345642
#
# Stress axis : x y z
#
# Youngs Moduli (GPa) = 82.21803 120.25773 61.34837
#
# Poissons Ratio (x) = 0.20955 0.32416
# Poissons Ratio (y) = 0.14327 0.28433
# Poissons Ratio (z) = 0.43443 0.55735
#
# Static dielectric constant tensor:
#      x y z
#    x 3.598970 0.000000 0.000000 
#    y 0.000000 3.650450 0.000000 
#    z 0.000000 0.000000 3.561920 
# 
# 
# High freq. dielectric constant tensor:
#      x y z
#    x 1.793990 0.000000 0.000000 
#    y 0.000000 1.793510 0.000000 
#    z 0.000000 0.000000 1.782700 
# 
# From -- ./inp_files/35363.got.cif
#   From: 2010.03.12/outbox.cif.g09.slc.cpg/sg67_18_cif.got.tgz:35363.got - 2010.04.10 22:41:39.
