data_PCOD8280091
_publ_section_title
;
Structure prediction by ZEFSAII (Michael W. Deem and Ramdas Pophale) SiO2 
 PCOD8280091
Probable space group: C M M A
;
_chemical_formula_sum "Si O2"
_cell_formula_units_Z 96
_cell_length_a 19.760542
_cell_length_b 8.716083
_cell_length_c 29.958481
_cell_angle_alpha 90.000000
_cell_angle_beta 90.000000
_cell_angle_gamma 90.000000
_cell_volume 5159.884721
_symmetry_space_group_name_H-M "C M M A"
_symmetry_group_IT_number 67
_symmetry_cell_setting 'orthorhombic'
loop_
_space_group_symop_operation_xyz
x,y,z
-x,1/2-y,z
x,-y,-z
-x,1/2+y,-z
-x,-y,-z
x,1/2+y,-z
-x,y,z
x,1/2-y,z
1/2+x,1/2+y,z
1/2-x,-y,z
1/2+x,1/2-y,-z
1/2-x,y,-z
1/2-x,1/2-y,-z
1/2+x,y,-z
1/2-x,1/2+y,z
1/2+x,-y,z
loop_
_atom_site_type_symbol
_atom_site_label
_atom_site_fract_x
_atom_site_fract_y
_atom_site_fract_z
Si Si1 0.421917 0.573986 0.283354
Si Si2 0.576559 0.431137 0.953779
Si Si3 0.321292 0.070160 0.216621
Si Si4 0.921989 0.074055 0.386383
Si Si5 0.321224 0.070456 0.453089
Si Si6 0.822278 0.567696 0.877545
O O1 0.500000 0.540154 0.272618
O O2 0.404340 0.750000 0.271893
O O3 0.376919 0.460898 0.254102
O O4 0.406224 0.539558 0.334873
O O5 0.500000 0.488082 0.944620
O O6 0.579781 0.250000 0.957596
O O7 0.623206 0.490398 0.913527
O O8 0.604300 0.500000 0.000000
O O9 0.312142 0.250000 0.209376
O O10 0.250000 0.000000 0.232353
O O11 0.345592 0.994443 0.170447
O O12 0.904553 0.250000 0.397796
O O13 0.000000 0.039584 0.397063
O O14 0.877104 0.961916 0.415911
O O15 0.311931 0.250000 0.459268
O O16 0.345275 0.000000 0.500000
O O17 0.250000 0.000000 0.437511
O O18 0.817732 0.750000 0.875591
O O19 0.750000 0.500000 0.891454
#
# Coordination Sequence:
#
# PCOD8280091 Si02
#       6
#    16  16  16  16  16  16
#     4   9  19  37  59  81 108 142 177 217 266 317
#     4   9  19  35  54  76 102 134 171 211 256 307
#     4  11  22  36  55  79 108 141 179 222 266 314
#     4   9  19  37  59  82 109 141 178 219 264 316
#     4  11  22  37  57  80 109 143 180 223 268 316
#     4  10  20  35  54  76 104 137 174 215 261 313
#
# _framework density 18.605066000000001
#
# number of rings (size 3 to 8) (size 9 to 14) (size 15 to 20)
#    0.000    2.167    0.000    6.000    0.000    4.667 
#    0.000    5.000    0.000    0.000    0.000    0.000 
#    0.000    0.000    0.000    0.000    0.000    0.000 
#
# Total GULP energy -595350.583469 kJ/mol
# GULP energy per Si atom -12403.137156 kJ/mol
# Density = 1.856272 g / cm^3
# Si number density = 18.605066 Si / 1000 Ang^3
#
#
#
# Elastic Constant Matrix: (Units=GPa)
#
#
# Indices 1 2 3 4 5 6 
#
# 1 97.5363 44.0364 78.5085 0.0000 0.0000 0.0000
# 2 44.0364 100.8652 46.9411 0.0000 0.0000 0.0000
# 3 78.5085 46.9411 111.0032 0.0000 0.0000 0.0000
# 4 0.0000 0.0000 0.0000 32.7479 0.0000 0.0000
# 5 0.0000 0.0000 0.0000 0.0000 42.4871 0.0000
# 6 0.0000 0.0000 0.0000 0.0000 0.0000 30.9892
#
#
#
# Elastic Compliance Matrix: (Units=1/GPa)
#
#
# Indices 1 2 3 4 5 6 
#
# 1 0.024654 -0.003298 -0.016043 0.000000 0.000000 0.000000
# 2 -0.003298 0.012785 -0.003074 0.000000 0.000000 0.000000
# 3 -0.016043 -0.003074 0.021655 0.000000 0.000000 0.000000
# 4 0.000000 0.000000 0.000000 0.030536 0.000000 0.000000
# 5 0.000000 0.000000 0.000000 0.000000 0.023537 0.000000
# 6 0.000000 0.000000 0.000000 0.000000 0.000000 0.032269
#
#
# Mechanical properties :
#
#
# Convention : Reuss Voigt Hill
#
# Bulk Modulus (GPa) = 70.10006 72.04187 71.07097
# Shear Modulus (GPa) = 25.63838 30.57275 28.10557
#
# Velocity S-wave (km/s) = 3.71621 4.05810 3.89091
# Velocity P-wave (km/s) = 7.49489 7.79508 7.64646
#
# Compressibility (1/GPa) = 0.01426532
#
# Stress axis : x y z
#
# Youngs Moduli (GPa) = 40.56055 78.21941 46.17865
#
# Poissons Ratio (x) = 0.25795 0.74083
# Poissons Ratio (y) = 0.13376 0.14195
# Poissons Ratio (z) = 0.65070 0.24044
#
# Static dielectric constant tensor:
#      x y z
#    x 3.430710 0.000000 0.000000 
#    y 0.000000 3.354400 0.000000 
#    z 0.000000 0.000000 3.420350 
# 
# 
# High freq. dielectric constant tensor:
#      x y z
#    x 1.722590 0.000000 0.000000 
#    y 0.000000 1.724690 0.000000 
#    z 0.000000 0.000000 1.725610 
# 
# From -- ./inp_files/43446.got.cif
#   From: 2010.03.12/outbox.cif.g09.slc.cpg/sg67_22_cif.got.tgz:43446.got - 2010.04.10 22:41:39.
