data_PCOD8280068
_publ_section_title
;
Structure prediction by ZEFSAII (Michael W. Deem and Ramdas Pophale) SiO2 
 PCOD8280068
Probable space group: C M M A
;
_chemical_formula_sum "Si O2"
_cell_formula_units_Z 80
_cell_length_a 14.872051
_cell_length_b 18.637103
_cell_length_c 15.766939
_cell_angle_alpha 90.000000
_cell_angle_beta 90.000000
_cell_angle_gamma 90.000000
_cell_volume 4370.153170
_symmetry_space_group_name_H-M "C M M A"
_symmetry_group_IT_number 67
_symmetry_cell_setting 'orthorhombic'
loop_
_space_group_symop_operation_xyz
x,y,z
-x,1/2-y,z
x,-y,-z
-x,1/2+y,-z
-x,-y,-z
x,1/2+y,-z
-x,y,z
x,1/2-y,z
1/2+x,1/2+y,z
1/2-x,-y,z
1/2+x,1/2-y,-z
1/2-x,y,-z
1/2-x,1/2-y,-z
1/2+x,y,-z
1/2-x,1/2+y,z
1/2+x,-y,z
loop_
_atom_site_type_symbol
_atom_site_label
_atom_site_fract_x
_atom_site_fract_y
_atom_site_fract_z
Si Si1 0.267413 0.165004 0.869101
Si Si2 0.667764 0.830616 0.565517
Si Si3 0.767613 0.582438 0.697719
Si Si4 0.602185 0.834721 0.980875
Si Si5 0.401762 0.435151 0.551751
O O1 0.269536 0.250000 0.853891
O O2 0.289091 0.124366 0.783069
O O3 0.168274 0.141502 0.903764
O O4 0.347425 0.141660 0.932905
O O5 0.642033 0.750000 0.592985
O O6 0.750000 0.832129 0.500000
O O7 0.685658 0.877525 0.649996
O O8 0.588247 0.867736 0.512473
O O9 0.750000 0.500000 0.719890
O O10 0.853453 0.587284 0.637467
O O11 0.500000 0.867743 0.973895
O O12 0.593727 0.750000 0.979688
O O13 0.351651 0.500000 0.500000
O O14 0.500000 0.461728 0.578844
#
# Coordination Sequence:
#
# PCOD8280068 Si02
#       5
#    16  16  16  16  16
#     4   9  18  32  53  82 107 132 179 227 263 322
#     4   9  18  32  52  74  97 132 177 220 261 311
#     4  11  20  33  53  75 104 142 176 217 269 321
#     4   8  15  32  56  77 104 142 174 212 273 331
#     4  10  20  35  53  73 102 140 181 221 268 326
#
# _framework density 18.305993000000001
#
# number of rings (size 3 to 8) (size 9 to 14) (size 15 to 20)
#    0.000    2.600    2.000    1.800    0.000    2.000 
#    0.000    4.000    0.000    3.600    0.000    0.000 
#    0.000    0.000    0.000    0.000    0.000    0.000 
#
# Total GULP energy -495588.351468 kJ/mol
# GULP energy per Si atom -12389.708787 kJ/mol
# Density = 1.826433 g / cm^3
# Si number density = 18.305993 Si / 1000 Ang^3
#
#
#
# Elastic Constant Matrix: (Units=GPa)
#
#
# Indices 1 2 3 4 5 6 
#
# 1 106.1078 20.8341 47.3014 0.0000 0.0000 0.0000
# 2 20.8341 95.1642 50.7944 0.0000 0.0000 0.0000
# 3 47.3014 50.7944 135.0194 0.0000 0.0000 0.0000
# 4 0.0000 0.0000 0.0000 33.4304 0.0000 0.0000
# 5 0.0000 0.0000 0.0000 0.0000 13.7873 0.0000
# 6 0.0000 0.0000 0.0000 0.0000 0.0000 13.6874
#
#
#
# Elastic Compliance Matrix: (Units=1/GPa)
#
#
# Indices 1 2 3 4 5 6 
#
# 1 0.011184 -0.000447 -0.003750 0.000000 0.000000 0.000000
# 2 -0.000447 0.013166 -0.004797 0.000000 0.000000 0.000000
# 3 -0.003750 -0.004797 0.010525 0.000000 0.000000 0.000000
# 4 0.000000 0.000000 0.000000 0.029913 0.000000 0.000000
# 5 0.000000 0.000000 0.000000 0.000000 0.072530 0.000000
# 6 0.000000 0.000000 0.000000 0.000000 0.000000 0.073060
#
#
# Mechanical properties :
#
#
# Convention : Reuss Voigt Hill
#
# Bulk Modulus (GPa) = 59.21453 63.79457 61.50455
# Shear Modulus (GPa) = 21.36811 26.67179 24.01995
#
# Velocity S-wave (km/s) = 3.42025 3.82120 3.62627
# Velocity P-wave (km/s) = 6.92927 7.37519 7.15570
#
# Compressibility (1/GPa) = 0.01688775
#
# Stress axis : x y z
#
# Youngs Moduli (GPa) = 89.41519 75.95215 95.01633
#
# Poissons Ratio (x) = 0.03394 0.35630
# Poissons Ratio (y) = 0.03996 0.45575
# Poissons Ratio (z) = 0.33530 0.36431
#
# Static dielectric constant tensor:
#      x y z
#    x 3.461540 0.000000 0.000000 
#    y 0.000000 3.341350 0.000000 
#    z 0.000000 0.000000 3.253260 
# 
# 
# High freq. dielectric constant tensor:
#      x y z
#    x 1.696920 0.000000 0.000000 
#    y 0.000000 1.695850 0.000000 
#    z 0.000000 0.000000 1.702490 
# 
# From -- ./inp_files/26966.got.cif
#   From: 2010.03.12/outbox.cif.g09.slc.cpg/sg67_14_cif.got.tgz:26966.got - 2010.04.10 22:41:39.
