data_PCOD8280082
_publ_section_title
;
Structure prediction by ZEFSAII (Michael W. Deem and Ramdas Pophale) SiO2 
 PCOD8280082
Probable space group: C M M A
;
_chemical_formula_sum "Si O2"
_cell_formula_units_Z 96
_cell_length_a 19.485267
_cell_length_b 8.955161
_cell_length_c 30.815493
_cell_angle_alpha 90.000000
_cell_angle_beta 90.000000
_cell_angle_gamma 90.000000
_cell_volume 5377.109487
_symmetry_space_group_name_H-M "C M M A"
_symmetry_group_IT_number 67
_symmetry_cell_setting 'orthorhombic'
loop_
_space_group_symop_operation_xyz
x,y,z
-x,1/2-y,z
x,-y,-z
-x,1/2+y,-z
-x,-y,-z
x,1/2+y,-z
-x,y,z
x,1/2-y,z
1/2+x,1/2+y,z
1/2-x,-y,z
1/2+x,1/2-y,-z
1/2-x,y,-z
1/2-x,1/2-y,-z
1/2+x,y,-z
1/2-x,1/2+y,z
1/2+x,-y,z
loop_
_atom_site_type_symbol
_atom_site_label
_atom_site_fract_x
_atom_site_fract_y
_atom_site_fract_z
Si Si1 0.581900 0.583602 0.542274
Si Si2 0.422139 0.575008 0.043611
Si Si3 0.419765 0.075998 0.722197
Si Si4 0.081437 0.914969 0.625425
Si Si5 0.678262 0.071771 0.879845
Si Si6 0.677840 0.572051 0.789304
O O1 0.610895 0.500000 0.500000
O O2 0.500000 0.576579 0.542800
O O3 0.609716 0.750000 0.539176
O O4 0.612001 0.516500 0.587030
O O5 0.500000 0.522171 0.052511
O O6 0.417745 0.750000 0.036494
O O7 0.377212 0.524799 0.084432
O O8 0.392892 0.500000 0.000000
O O9 0.500000 0.049192 0.730293
O O10 0.401551 0.250000 0.729965
O O11 0.398567 0.026644 0.673328
O O12 0.378902 0.968287 0.754018
O O13 0.111806 0.750000 0.618530
O O14 0.000000 0.908629 0.622097
O O15 0.685309 0.250000 0.874654
O O16 0.750000 0.000000 0.894462
O O17 0.653886 0.999284 0.834767
O O18 0.685322 0.750000 0.793613
O O19 0.750000 0.500000 0.775029
#
# Coordination Sequence:
#
# PCOD8280082 Si02
#       6
#    16  16  16  16  16  16
#     4   9  15  21  31  49  76 112 152 192 234 282
#     4   9  19  35  54  76 102 133 166 200 240 286
#     4   9  18  33  52  73  99 131 164 201 249 302
#     4   8  14  25  40  58  83 116 152 190 235 287
#     4  10  20  35  54  75 100 130 165 203 246 294
#     4  11  22  36  54  75 101 132 168 209 252 297
#
# _framework density 17.853459000000001
#
# number of rings (size 3 to 8) (size 9 to 14) (size 15 to 20)
#    0.000    2.667    0.000    4.500    0.000    5.333 
#    0.000    5.000    0.000    0.000    0.000    0.000 
#    0.000    0.667    0.000    7.000    0.000    9.667 
#
# Total GULP energy -595047.148171 kJ/mol
# GULP energy per Si atom -12396.815587 kJ/mol
# Density = 1.781282 g / cm^3
# Si number density = 17.853459 Si / 1000 Ang^3
#
#
#
# Elastic Constant Matrix: (Units=GPa)
#
#
# Indices 1 2 3 4 5 6 
#
# 1 49.2435 37.4116 63.0337 0.0000 0.0000 0.0000
# 2 37.4116 112.8775 75.1505 0.0000 0.0000 0.0000
# 3 63.0337 75.1505 157.7964 0.0000 0.0000 0.0000
# 4 0.0000 0.0000 0.0000 37.0633 0.0000 0.0000
# 5 0.0000 0.0000 0.0000 0.0000 -0.7608 0.0000
# 6 0.0000 0.0000 0.0000 0.0000 0.0000 22.3280
#
#
#
# Elastic Compliance Matrix: (Units=1/GPa)
#
#
# Indices 1 2 3 4 5 6 
#
# 1 0.042817 -0.004106 -0.015148 0.000000 0.000000 0.000000
# 2 -0.004106 0.013366 -0.004725 0.000000 0.000000 0.000000
# 3 -0.015148 -0.004725 0.014639 0.000000 0.000000 0.000000
# 4 0.000000 0.000000 0.000000 0.026981 0.000000 0.000000
# 5 0.000000 0.000000 0.000000 0.000000 -1.314442 0.000000
# 6 0.000000 0.000000 0.000000 0.000000 0.000000 0.044787
#
#
# Mechanical properties :
#
#
# Convention : Reuss Voigt Hill
#
# Bulk Modulus (GPa) = 43.73914 74.56765 59.15340
# Shear Modulus (GPa) = -4.47920 21.34753 8.43417
#
# Velocity S-wave (km/s) = -1.58566 3.46165 2.17586
# Velocity P-wave (km/s) = 4.60432 7.60490 6.28627
#
# Compressibility (1/GPa) = 0.02286282
#
# Stress axis : x y z
#
# Youngs Moduli (GPa) = 23.35517 74.81653 68.31052
#
# Poissons Ratio (x) = 0.30717 1.03480
# Poissons Ratio (y) = 0.09589 0.32280
# Poissons Ratio (z) = 0.35379 0.35354
#
# Static dielectric constant tensor:
#      x y z
#    x 2.941130 0.000000 0.000000 
#    y 0.000000 3.388070 0.000000 
#    z 0.000000 0.000000 3.521730 
# 
# 
# High freq. dielectric constant tensor:
#      x y z
#    x 1.643930 0.000000 0.000000 
#    y 0.000000 1.695550 0.000000 
#    z 0.000000 0.000000 1.706280 
# 
# From -- ./inp_files/43436.got.cif
#   From: 2010.03.12/outbox.cif.g09.slc.cpg/sg67_22_cif.got.tgz:43436.got - 2010.04.10 22:41:39.
