data_PCOD8280571
_publ_section_title
;
Structure prediction by ZEFSAII (Michael W. Deem and Ramdas Pophale) SiO2 
 PCOD8280571
Probable space group: C M M A
;
_chemical_formula_sum "Si O2"
_cell_formula_units_Z 64
_cell_length_a 10.440355
_cell_length_b 30.953917
_cell_length_c 9.721203
_cell_angle_alpha 90.000000
_cell_angle_beta 90.000000
_cell_angle_gamma 90.000000
_cell_volume 3141.600028
_symmetry_space_group_name_H-M "C M M A"
_symmetry_group_IT_number 67
_symmetry_cell_setting 'orthorhombic'
loop_
_space_group_symop_operation_xyz
x,y,z
-x,1/2-y,z
x,-y,-z
-x,1/2+y,-z
-x,-y,-z
x,1/2+y,-z
-x,y,z
x,1/2-y,z
1/2+x,1/2+y,z
1/2-x,-y,z
1/2+x,1/2-y,-z
1/2-x,y,-z
1/2-x,1/2-y,-z
1/2+x,y,-z
1/2-x,1/2+y,z
1/2+x,-y,z
loop_
_atom_site_type_symbol
_atom_site_label
_atom_site_fract_x
_atom_site_fract_y
_atom_site_fract_z
Si Si1 0.728838 0.410914 0.797796
Si Si2 0.500000 0.854577 0.605426
Si Si3 0.750000 0.876227 0.500000
Si Si4 0.000000 0.025641 0.143383
Si Si5 0.500000 0.701002 0.878038
Si Si6 0.000000 0.562572 0.238291
Si Si7 0.250000 0.836351 0.000000
O O1 0.724063 0.405902 0.632898
O O2 0.625907 0.445660 0.844250
O O3 0.870492 0.426311 0.847352
O O4 0.704866 0.365176 0.870564
O O5 0.628740 0.844018 0.521513
O O6 0.500000 0.831540 0.750830
O O7 0.500000 0.907313 0.625411
O O8 0.000000 0.989178 0.265020
O O9 0.000000 0.000000 0.000000
O O10 0.500000 0.750000 0.823929
O O11 0.628207 0.693433 0.965860
#
# Coordination Sequence:
#
# PCOD8280571 Si02
#       7
#    16   8   8   8   8   8   8
#     4  11  22  39  66  94 127 179 221 269 325 393
#     4  10  21  43  65  92 131 174 212 273 335 394
#     4  10  20  42  70  92 128 178 226 262 333 405
#     4  12  24  35  56  97 132 170 228 275 311 368
#     4  12  25  43  69 101 134 165 214 278 338 406
#     4  10  20  39  55  85 132 170 207 266 315 369
#     4  12  21  44  69  96 130 176 212 267 343 392
#
# _framework density 20.371786
#
# number of rings (size 3 to 8) (size 9 to 14) (size 15 to 20)
#    0.000    1.000    5.000    4.125    0.000    1.000 
#    0.000   15.625    0.000    0.000    0.000    0.000 
#    0.000    0.000    0.000    0.000    0.000    0.000 
#
# Total GULP energy -396607.701193 kJ/mol
# GULP energy per Si atom -12393.990662 kJ/mol
# Density = 2.032542 g / cm^3
# Si number density = 20.371786 Si / 1000 Ang^3
#
#
#
# Elastic Constant Matrix: (Units=GPa)
#
#
# Indices 1 2 3 4 5 6 
#
# 1 212.0045 45.9142 47.5420 0.0000 0.0000 0.0000
# 2 45.9142 83.3348 31.6651 0.0000 0.0000 0.0000
# 3 47.5420 31.6651 114.9330 0.0000 0.0000 0.0000
# 4 0.0000 0.0000 0.0000 6.1250 0.0000 0.0000
# 5 0.0000 0.0000 0.0000 0.0000 13.7750 0.0000
# 6 0.0000 0.0000 0.0000 0.0000 0.0000 17.9390
#
#
#
# Elastic Compliance Matrix: (Units=1/GPa)
#
#
# Indices 1 2 3 4 5 6 
#
# 1 0.005621 -0.002472 -0.001644 0.000000 0.000000 0.000000
# 2 -0.002472 0.014490 -0.002970 0.000000 0.000000 0.000000
# 3 -0.001644 -0.002970 0.010199 0.000000 0.000000 0.000000
# 4 0.000000 0.000000 0.000000 0.163266 0.000000 0.000000
# 5 0.000000 0.000000 0.000000 0.000000 0.072596 0.000000
# 6 0.000000 0.000000 0.000000 0.000000 0.000000 0.055745
#
#
# Mechanical properties :
#
#
# Convention : Reuss Voigt Hill
#
# Bulk Modulus (GPa) = 61.96349 73.39056 67.67702
# Shear Modulus (GPa) = 14.64268 26.57784 20.61026
#
# Velocity S-wave (km/s) = 2.68390 3.61590 3.18418
# Velocity P-wave (km/s) = 6.33141 7.31688 6.84191
#
# Compressibility (1/GPa) = 0.01613854
#
# Stress axis : x y z
#
# Youngs Moduli (GPa) = 177.90536 69.01183 98.04989
#
# Poissons Ratio (x) = 0.17062 0.16119
# Poissons Ratio (y) = 0.43983 0.29116
# Poissons Ratio (z) = 0.29247 0.20493
#
# Static dielectric constant tensor:
#      x y z
#    x 4.398100 0.000000 0.000000 
#    y 0.000000 3.525780 0.000000 
#    z 0.000000 0.000000 3.530450 
# 
# 
# High freq. dielectric constant tensor:
#      x y z
#    x 1.831260 0.000000 0.000000 
#    y 0.000000 1.766680 0.000000 
#    z 0.000000 0.000000 1.782530 
# 
# From -- ./inp_files/6786.got.cif
#   From: 2010.03.12/outbox.cif.g09.slc.cpg/sg67_4_cif.got.tgz:6786.got - 2010.04.10 22:41:39.
