data_PCOD8280525
_publ_section_title
;
Structure prediction by ZEFSAII (Michael W. Deem and Ramdas Pophale) SiO2 
 PCOD8280525
Probable space group: C M M A
;
_chemical_formula_sum "Si O2"
_cell_formula_units_Z 112
_cell_length_a 14.853559
_cell_length_b 28.326725
_cell_length_c 12.303501
_cell_angle_alpha 90.000000
_cell_angle_beta 90.000000
_cell_angle_gamma 90.000000
_cell_volume 5176.731032
_symmetry_space_group_name_H-M "C M M A"
_symmetry_group_IT_number 67
_symmetry_cell_setting 'orthorhombic'
loop_
_space_group_symop_operation_xyz
x,y,z
-x,1/2-y,z
x,-y,-z
-x,1/2+y,-z
-x,-y,-z
x,1/2+y,-z
-x,y,z
x,1/2-y,z
1/2+x,1/2+y,z
1/2-x,-y,z
1/2+x,1/2-y,-z
1/2-x,y,-z
1/2-x,1/2-y,-z
1/2+x,y,-z
1/2-x,1/2+y,z
1/2+x,-y,z
loop_
_atom_site_type_symbol
_atom_site_label
_atom_site_fract_x
_atom_site_fract_y
_atom_site_fract_z
Si Si1 0.103187 0.195673 0.709292
Si Si2 0.099919 0.429791 0.343083
Si Si3 0.893507 0.882418 0.870862
Si Si4 0.104011 0.047289 0.952938
Si Si5 0.342662 0.473753 0.284214
Si Si6 0.393668 0.107042 0.431917
Si Si7 0.259789 0.802404 0.127965
O O1 0.118138 0.250000 0.671261
O O2 0.123599 0.160947 0.607078
O O3 0.167663 0.181956 0.810623
O O4 0.000000 0.188434 0.749294
O O5 0.141487 0.416315 0.226352
O O6 0.098211 0.486972 0.347806
O O7 0.144195 0.402686 0.446162
O O8 0.000000 0.409895 0.343205
O O9 0.845319 0.833706 0.843250
O O10 0.000000 0.873319 0.873588
O O11 0.857238 0.906669 0.983289
O O12 0.114623 0.048321 0.824280
O O13 0.000000 0.046369 0.986036
O O14 0.150625 0.000000 0.000000
O O15 0.250000 0.500000 0.259694
O O16 0.333212 0.428430 0.360365
O O17 0.500000 0.094120 0.421139
O O18 0.284236 0.750000 0.167088
O O19 0.250000 0.804714 0.000000
#
# Coordination Sequence:
#
# PCOD8280525 Si02
#       7
#    16  16  16  16  16  16  16
#     4   9  20  41  66  93 124 161 211 266 318 375
#     4  10  21  41  60  83 122 164 201 248 307 367
#     4  10  22  39  63  90 122 165 207 251 308 375
#     4  10  20  38  60  82 115 159 202 244 297 365
#     4  12  25  36  55  89 125 160 203 258 307 369
#     4  10  22  39  64  90 117 160 210 258 310 370
#     4  10  23  41  62  90 126 162 202 258 319 373
#
# _framework density 21.635273999999999
#
# number of rings (size 3 to 8) (size 9 to 14) (size 15 to 20)
#    0.000    1.857    1.429    1.714    4.000    3.429 
#    0.000    2.143    0.000    4.286    0.000    0.000 
#    0.000    0.571    0.000    0.000    0.000    0.000 
#
# Total GULP energy -693928.307762 kJ/mol
# GULP energy per Si atom -12391.576924 kJ/mol
# Density = 2.158603 g / cm^3
# Si number density = 21.635274 Si / 1000 Ang^3
#
#
#
# Elastic Constant Matrix: (Units=GPa)
#
#
# Indices 1 2 3 4 5 6 
#
# 1 63.3121 49.0187 29.6437 0.0000 0.0000 0.0000
# 2 49.0187 138.4896 65.9099 0.0000 0.0000 0.0000
# 3 29.6437 65.9099 148.9969 0.0000 0.0000 0.0000
# 4 0.0000 0.0000 0.0000 35.5200 0.0000 0.0000
# 5 0.0000 0.0000 0.0000 0.0000 18.4473 0.0000
# 6 0.0000 0.0000 0.0000 0.0000 0.0000 28.8376
#
#
#
# Elastic Compliance Matrix: (Units=1/GPa)
#
#
# Indices 1 2 3 4 5 6 
#
# 1 0.021919 -0.007198 -0.001177 0.000000 0.000000 0.000000
# 2 -0.007198 0.011510 -0.003660 0.000000 0.000000 0.000000
# 3 -0.001177 -0.003660 0.008564 0.000000 0.000000 0.000000
# 4 0.000000 0.000000 0.000000 0.028153 0.000000 0.000000
# 5 0.000000 0.000000 0.000000 0.000000 0.054208 0.000000
# 6 0.000000 0.000000 0.000000 0.000000 0.000000 0.034677
#
#
# Mechanical properties :
#
#
# Convention : Reuss Voigt Hill
#
# Bulk Modulus (GPa) = 55.78888 71.10480 63.44684
# Shear Modulus (GPa) = 26.44443 30.30942 28.37692
#
# Velocity S-wave (km/s) = 3.49991 3.74696 3.62554
# Velocity P-wave (km/s) = 6.49419 7.18722 6.84948
#
# Compressibility (1/GPa) = 0.01792472
#
# Stress axis : x y z
#
# Youngs Moduli (GPa) = 45.62277 86.87929 116.76154
#
# Poissons Ratio (x) = 0.62538 0.13739
# Poissons Ratio (y) = 0.32840 0.42729
# Poissons Ratio (z) = 0.05368 0.31794
#
# Static dielectric constant tensor:
#      x y z
#    x 3.750580 0.000000 0.000000 
#    y 0.000000 4.065850 0.000000 
#    z 0.000000 0.000000 4.003350 
# 
# 
# High freq. dielectric constant tensor:
#      x y z
#    x 1.841570 0.000000 0.000000 
#    y 0.000000 1.847990 0.000000 
#    z 0.000000 0.000000 1.847830 
# 
# From -- ./inp_files/18584.got.cif
#   From: 2010.03.12/outbox.cif.g09.slc.cpg/sg67_10_cif.got.tgz:18584.got - 2010.04.10 22:41:39.
