data_PCOD8280459
_publ_section_title
;
Structure prediction by ZEFSAII (Michael W. Deem and Ramdas Pophale) SiO2 
 PCOD8280459
Probable space group: C M M A
;
_chemical_formula_sum "Si O2"
_cell_formula_units_Z 72
_cell_length_a 20.594444
_cell_length_b 8.799208
_cell_length_c 19.774757
_cell_angle_alpha 90.000000
_cell_angle_beta 90.000000
_cell_angle_gamma 90.000000
_cell_volume 3583.478564
_symmetry_space_group_name_H-M "C M M A"
_symmetry_group_IT_number 67
_symmetry_cell_setting 'orthorhombic'
loop_
_space_group_symop_operation_xyz
x,y,z
-x,1/2-y,z
x,-y,-z
-x,1/2+y,-z
-x,-y,-z
x,1/2+y,-z
-x,y,z
x,1/2-y,z
1/2+x,1/2+y,z
1/2-x,-y,z
1/2+x,1/2-y,-z
1/2-x,y,-z
1/2-x,1/2-y,-z
1/2+x,y,-z
1/2-x,1/2+y,z
1/2+x,-y,z
loop_
_atom_site_type_symbol
_atom_site_label
_atom_site_fract_x
_atom_site_fract_y
_atom_site_fract_z
Si Si1 0.923182 0.079871 0.066676
Si Si2 0.924818 0.071292 0.793872
Si Si3 0.814781 0.070413 0.295472
Si Si4 0.859315 0.929244 0.425589
Si Si5 0.000000 0.577095 0.429690
O O1 0.894310 0.250000 0.073731
O O2 0.000000 0.088979 0.059477
O O3 0.903657 0.980583 0.131419
O O4 0.893455 0.000000 0.000000
O O5 0.914056 0.250000 0.786957
O O6 0.000000 0.028133 0.779097
O O7 0.879595 0.986451 0.740817
O O8 0.811579 0.250000 0.291909
O O9 0.750000 0.000000 0.260731
O O10 0.812732 0.013833 0.373330
O O11 0.843758 0.750000 0.428599
O O12 0.931862 0.961552 0.393454
O O13 0.850354 0.000000 0.500000
O O14 0.000000 0.500000 0.500000
O O15 0.000000 0.750000 0.449510
#
# Coordination Sequence:
#
# PCOD8280459 Si02
#       5
#    16  16  16  16   8
#     4   9  16  28  50  83 121 157 195 240 289 339
#     4  10  21  38  61  89 121 157 197 242 292 347
#     4  12  26  43  61  84 115 155 198 244 297 353
#     4  10  20  37  59  86 115 149 190 238 293 349
#     4   8  16  30  52  80 112 142 173 218 277 336
#
# _framework density 20.092209
#
# number of rings (size 3 to 8) (size 9 to 14) (size 15 to 20)
#    0.000    2.000    0.000    4.000    1.556    5.333 
#    0.000    2.222    0.000    0.667    0.000    4.667 
#    0.000    0.000    0.000    0.000    0.000    0.000 
#
# Total GULP energy -446163.373405 kJ/mol
# GULP energy per Si atom -12393.427039 kJ/mol
# Density = 2.004648 g / cm^3
# Si number density = 20.092209 Si / 1000 Ang^3
#
#
#
# Elastic Constant Matrix: (Units=GPa)
#
#
# Indices 1 2 3 4 5 6 
#
# 1 80.9501 54.3432 46.6223 0.0000 0.0000 0.0000
# 2 54.3432 151.6862 57.9541 0.0000 0.0000 0.0000
# 3 46.6223 57.9541 109.0449 0.0000 0.0000 0.0000
# 4 0.0000 0.0000 0.0000 38.6103 0.0000 0.0000
# 5 0.0000 0.0000 0.0000 0.0000 7.9188 0.0000
# 6 0.0000 0.0000 0.0000 0.0000 0.0000 25.5414
#
#
#
# Elastic Compliance Matrix: (Units=1/GPa)
#
#
# Indices 1 2 3 4 5 6 
#
# 1 0.018592 -0.004547 -0.005532 0.000000 0.000000 0.000000
# 2 -0.004547 0.009384 -0.003043 0.000000 0.000000 0.000000
# 3 -0.005532 -0.003043 0.013153 0.000000 0.000000 0.000000
# 4 0.000000 0.000000 0.000000 0.025900 0.000000 0.000000
# 5 0.000000 0.000000 0.000000 0.000000 0.126281 0.000000
# 6 0.000000 0.000000 0.000000 0.000000 0.000000 0.039152
#
#
# Mechanical properties :
#
#
# Convention : Reuss Voigt Hill
#
# Bulk Modulus (GPa) = 67.18589 73.28003 70.23296
# Shear Modulus (GPa) = 18.96306 26.59821 22.78064
#
# Velocity S-wave (km/s) = 3.07547 3.64236 3.37085
# Velocity P-wave (km/s) = 6.79137 7.36479 7.08388
#
# Compressibility (1/GPa) = 0.01488408
#
# Stress axis : x y z
#
# Youngs Moduli (GPa) = 53.78606 106.56009 76.02575
#
# Poissons Ratio (x) = 0.48454 0.42061
# Poissons Ratio (y) = 0.24457 0.23138
# Poissons Ratio (z) = 0.29757 0.32431
#
# Static dielectric constant tensor:
#      x y z
#    x 3.801350 0.000000 0.000000 
#    y 0.000000 3.769140 0.000000 
#    z 0.000000 0.000000 3.604000 
# 
# 
# High freq. dielectric constant tensor:
#      x y z
#    x 1.763430 0.000000 0.000000 
#    y 0.000000 1.798440 0.000000 
#    z 0.000000 0.000000 1.777930 
# 
# From -- ./inp_files/39227.got.cif
#   From: 2010.03.12/outbox.cif.g09.slc.cpg/sg67_20_cif.got.tgz:39227.got - 2010.04.10 22:41:39.
