data_PCOD8280202
_publ_section_title
;
Structure prediction by ZEFSAII (Michael W. Deem and Ramdas Pophale) SiO2 
 PCOD8280202
Probable space group: C M M A
;
_chemical_formula_sum "Si O2"
_cell_formula_units_Z 80
_cell_length_a 18.562348
_cell_length_b 8.802384
_cell_length_c 26.142477
_cell_angle_alpha 90.000000
_cell_angle_beta 90.000000
_cell_angle_gamma 90.000000
_cell_volume 4271.495523
_symmetry_space_group_name_H-M "C M M A"
_symmetry_group_IT_number 67
_symmetry_cell_setting 'orthorhombic'
loop_
_space_group_symop_operation_xyz
x,y,z
-x,1/2-y,z
x,-y,-z
-x,1/2+y,-z
-x,-y,-z
x,1/2+y,-z
-x,y,z
x,1/2-y,z
1/2+x,1/2+y,z
1/2-x,-y,z
1/2+x,1/2-y,-z
1/2-x,y,-z
1/2-x,1/2-y,-z
1/2+x,y,-z
1/2-x,1/2+y,z
1/2+x,-y,z
loop_
_atom_site_type_symbol
_atom_site_label
_atom_site_fract_x
_atom_site_fract_y
_atom_site_fract_z
Si Si1 0.416239 0.574771 0.348850
Si Si2 0.325640 0.927948 0.447056
Si Si3 0.671343 0.428577 0.260233
Si Si4 0.671696 0.928142 0.159670
Si Si5 0.171463 0.072724 0.048890
O O1 0.500000 0.536293 0.350392
O O2 0.401548 0.750000 0.334611
O O3 0.384590 0.535276 0.404293
O O4 0.379482 0.468302 0.307236
O O5 0.314240 0.750000 0.455007
O O6 0.353309 0.000000 0.500000
O O7 0.250000 0.000000 0.429806
O O8 0.680070 0.250000 0.255771
O O9 0.750000 0.500000 0.268684
O O10 0.632935 0.492757 0.208160
O O11 0.677648 0.750000 0.170439
O O12 0.633087 0.958264 0.104269
O O13 0.750000 0.000000 0.156959
O O14 0.179071 0.250000 0.039202
O O15 0.250000 0.000000 0.050721
O O16 0.128762 0.000000 0.000000
#
# Coordination Sequence:
#
# PCOD8280202 Si02
#       5
#    16  16  16  16  16
#     4  10  22  39  56  76 105 138 170 208 256 305
#     4  10  20  35  57  82 107 137 171 207 247 292
#     4  11  21  33  52  75  99 131 171 214 257 302
#     4   9  16  26  40  60  87 121 161 203 248 298
#     4   9  15  21  32  51  79 116 154 193 240 294
#
# _framework density 18.728802999999999
#
# number of rings (size 3 to 8) (size 9 to 14) (size 15 to 20)
#    0.000    2.200    0.000    6.600    0.000    6.400 
#    0.000    0.000    0.000    0.000    0.000    0.000 
#    0.000    0.800    0.000    2.600    0.000    9.800 
#
# Total GULP energy -495671.146434 kJ/mol
# GULP energy per Si atom -12391.778661 kJ/mol
# Density = 1.868618 g / cm^3
# Si number density = 18.728803 Si / 1000 Ang^3
#
#
#
# Elastic Constant Matrix: (Units=GPa)
#
#
# Indices 1 2 3 4 5 6 
#
# 1 57.0073 36.7852 55.7564 0.0000 0.0000 0.0000
# 2 36.7852 139.0668 82.1642 0.0000 0.0000 0.0000
# 3 55.7564 82.1642 172.3186 0.0000 0.0000 0.0000
# 4 0.0000 0.0000 0.0000 45.6348 0.0000 0.0000
# 5 0.0000 0.0000 0.0000 0.0000 -0.7759 0.0000
# 6 0.0000 0.0000 0.0000 0.0000 0.0000 14.4945
#
#
#
# Elastic Compliance Matrix: (Units=1/GPa)
#
#
# Indices 1 2 3 4 5 6 
#
# 1 0.026368 -0.002692 -0.007248 0.000000 0.000000 0.000000
# 2 -0.002692 0.010286 -0.004033 0.000000 0.000000 0.000000
# 3 -0.007248 -0.004033 0.010072 0.000000 0.000000 0.000000
# 4 0.000000 0.000000 0.000000 0.021913 0.000000 0.000000
# 5 0.000000 0.000000 0.000000 0.000000 -1.288830 0.000000
# 6 0.000000 0.000000 0.000000 0.000000 0.000000 0.068992
#
#
# Mechanical properties :
#
#
# Convention : Reuss Voigt Hill
#
# Bulk Modulus (GPa) = 53.25385 79.75605 66.50495
# Shear Modulus (GPa) = -4.47631 24.78313 10.15341
#
# Velocity S-wave (km/s) = -1.54766 3.64161 2.33089
# Velocity P-wave (km/s) = 5.03013 7.76910 6.54451
#
# Compressibility (1/GPa) = 0.01877799
#
# Stress axis : x y z
#
# Youngs Moduli (GPa) = 37.92494 97.21980 99.28949
#
# Poissons Ratio (x) = 0.26175 0.71965
# Poissons Ratio (y) = 0.10211 0.40047
# Poissons Ratio (z) = 0.27488 0.39212
#
# Static dielectric constant tensor:
#      x y z
#    x 2.855940 0.000000 0.000000 
#    y 0.000000 3.566090 0.000000 
#    z 0.000000 0.000000 4.531790 
# 
# 
# High freq. dielectric constant tensor:
#      x y z
#    x 1.655170 0.000000 0.000000 
#    y 0.000000 1.742210 0.000000 
#    z 0.000000 0.000000 1.761770 
# 
# From -- ./inp_files/44443.got.cif
#   From: 2010.03.12/outbox.cif.g09.slc.cpg/sg67_23_cif.got.tgz:44443.got - 2010.04.10 22:41:39.
