data_PCOD8280043
_publ_section_title
;
Structure prediction by ZEFSAII (Michael W. Deem and Ramdas Pophale) SiO2 
 PCOD8280043
Probable space group: C M M A
;
_chemical_formula_sum "Si O2"
_cell_formula_units_Z 112
_cell_length_a 14.855195
_cell_length_b 14.481841
_cell_length_c 24.323972
_cell_angle_alpha 90.000000
_cell_angle_beta 90.000000
_cell_angle_gamma 90.000000
_cell_volume 5232.830010
_symmetry_space_group_name_H-M "C M M A"
_symmetry_group_IT_number 67
_symmetry_cell_setting 'orthorhombic'
loop_
_space_group_symop_operation_xyz
x,y,z
-x,1/2-y,z
x,-y,-z
-x,1/2+y,-z
-x,-y,-z
x,1/2+y,-z
-x,y,z
x,1/2-y,z
1/2+x,1/2+y,z
1/2-x,-y,z
1/2+x,1/2-y,-z
1/2-x,y,-z
1/2-x,1/2-y,-z
1/2+x,y,-z
1/2-x,1/2+y,z
1/2+x,-y,z
loop_
_atom_site_type_symbol
_atom_site_label
_atom_site_fract_x
_atom_site_fract_y
_atom_site_fract_z
Si Si1 0.649843 0.646879 0.482266
Si Si2 0.896465 0.148790 0.678678
Si Si3 0.899145 0.853807 0.845431
Si Si4 0.899064 0.646030 0.140855
Si Si5 0.766555 0.098553 0.771596
Si Si6 0.399448 0.477715 0.419028
Si Si7 0.643963 0.501597 0.938604
O O1 0.608802 0.750000 0.468680
O O2 0.750000 0.663721 0.500000
O O3 0.596809 0.595039 0.530649
O O4 0.652742 0.574272 0.430980
O O5 0.897019 0.250000 0.650534
O O6 0.823412 0.157973 0.727827
O O7 0.860790 0.073775 0.634728
O O8 0.000000 0.126389 0.698387
O O9 0.890621 0.750000 0.868315
O O10 0.827859 0.862139 0.794668
O O11 0.886524 0.919586 0.898059
O O12 0.000000 0.871777 0.821415
O O13 0.860881 0.750000 0.138419
O O14 0.833877 0.583001 0.177442
O O15 0.894878 0.599858 0.081423
O O16 0.000000 0.645705 0.164682
O O17 0.750000 0.000000 0.743699
O O18 0.500000 0.509429 0.406670
O O19 0.750000 0.500000 0.940705
O O20 0.603540 0.500000 0.000000
#
# Coordination Sequence:
#
# PCOD8280043 Si02
#       7
#    16  16  16  16  16  16  16
#     4  10  20  34  57  87 123 169 213 252 299 361
#     4  10  22  40  63  92 125 160 203 260 320 372
#     4  11  23  40  63  89 121 162 203 245 303 374
#     4  11  22  38  63  91 118 153 200 251 302 357
#     4  12  23  39  63  89 119 158 201 252 308 364
#     4  10  20  35  58  90 125 160 202 253 309 368
#     4  11  23  40  62  91 125 163 202 248 305 362
#
# _framework density 21.403331999999999
#
# number of rings (size 3 to 8) (size 9 to 14) (size 15 to 20)
#    0.000    1.286    2.857    4.286    0.000    6.286 
#    0.000    2.857    0.000    1.714    0.000    0.000 
#    0.000    0.000    0.000    0.000    0.000    0.000 
#
# Total GULP energy -693737.174668 kJ/mol
# GULP energy per Si atom -12388.163833 kJ/mol
# Density = 2.135462 g / cm^3
# Si number density = 21.403332 Si / 1000 Ang^3
#
#
#
# Elastic Constant Matrix: (Units=GPa)
#
#
# Indices 1 2 3 4 5 6 
#
# 1 114.1948 32.9193 39.8661 0.0000 0.0000 0.0000
# 2 32.9193 149.5562 50.0701 0.0000 0.0000 0.0000
# 3 39.8661 50.0701 106.6187 0.0000 0.0000 0.0000
# 4 0.0000 0.0000 0.0000 20.7255 0.0000 0.0000
# 5 0.0000 0.0000 0.0000 0.0000 20.3658 0.0000
# 6 0.0000 0.0000 0.0000 0.0000 0.0000 31.8238
#
#
#
# Elastic Compliance Matrix: (Units=1/GPa)
#
#
# Indices 1 2 3 4 5 6 
#
# 1 0.010237 -0.001153 -0.003286 0.000000 0.000000 0.000000
# 2 -0.001153 0.008064 -0.003356 0.000000 0.000000 0.000000
# 3 -0.003286 -0.003356 0.012184 0.000000 0.000000 0.000000
# 4 0.000000 0.000000 0.000000 0.048250 0.000000 0.000000
# 5 0.000000 0.000000 0.000000 0.000000 0.049102 0.000000
# 6 0.000000 0.000000 0.000000 0.000000 0.000000 0.031423
#
#
# Mechanical properties :
#
#
# Convention : Reuss Voigt Hill
#
# Bulk Modulus (GPa) = 67.13943 68.45344 67.79644
# Shear Modulus (GPa) = 27.80662 31.08396 29.44529
#
# Velocity S-wave (km/s) = 3.60831 3.81503 3.71311
# Velocity P-wave (km/s) = 6.98546 7.17342 7.08007
#
# Compressibility (1/GPa) = 0.01489438
#
# Stress axis : x y z
#
# Youngs Moduli (GPa) = 97.68913 124.01225 82.07586
#
# Poissons Ratio (x) = 0.14299 0.26971
# Poissons Ratio (y) = 0.11264 0.27542
# Poissons Ratio (z) = 0.32102 0.41615
#
# Static dielectric constant tensor:
#      x y z
#    x 3.963070 0.000000 0.000000 
#    y 0.000000 4.121730 0.000000 
#    z 0.000000 0.000000 3.768900 
# 
# 
# High freq. dielectric constant tensor:
#      x y z
#    x 1.850370 0.000000 0.000000 
#    y 0.000000 1.851800 0.000000 
#    z 0.000000 0.000000 1.809240 
# 
# From -- ./inp_files/41965.got.cif
#   From: 2010.03.12/outbox.cif.g09.slc.cpg/sg67_21_cif.got.tgz:41965.got - 2010.04.10 22:41:39.
