data_PCOD8280767
_publ_section_title
;
Structure prediction by ZEFSAII (Michael W. Deem and Ramdas Pophale) SiO2 
 PCOD8280767
Probable space group: C M M A
;
_chemical_formula_sum "Si O2"
_cell_formula_units_Z 96
_cell_length_a 14.123593
_cell_length_b 14.155695
_cell_length_c 25.945784
_cell_angle_alpha 90.000000
_cell_angle_beta 90.000000
_cell_angle_gamma 90.000000
_cell_volume 5187.321780
_symmetry_space_group_name_H-M "C M M A"
_symmetry_group_IT_number 67
_symmetry_cell_setting 'orthorhombic'
loop_
_space_group_symop_operation_xyz
x,y,z
-x,1/2-y,z
x,-y,-z
-x,1/2+y,-z
-x,-y,-z
x,1/2+y,-z
-x,y,z
x,1/2-y,z
1/2+x,1/2+y,z
1/2-x,-y,z
1/2+x,1/2-y,-z
1/2-x,y,-z
1/2-x,1/2-y,-z
1/2+x,y,-z
1/2-x,1/2+y,z
1/2+x,-y,z
loop_
_atom_site_type_symbol
_atom_site_label
_atom_site_fract_x
_atom_site_fract_y
_atom_site_fract_z
Si Si1 0.140609 0.497008 0.607122
Si Si2 0.746017 0.857949 0.894272
Si Si3 0.108356 0.493726 0.060836
Si Si4 0.755094 0.358205 0.773043
Si Si5 0.500000 0.641477 0.557027
Si Si6 0.000000 0.858109 0.564804
Si Si7 0.609396 0.503328 0.272639
O O1 0.250000 0.500000 0.592215
O O2 0.093987 0.407442 0.579058
O O3 0.124732 0.485003 0.667453
O O4 0.093570 0.593969 0.588001
O O5 0.733078 0.750000 0.911276
O O6 0.840004 0.898707 0.920835
O O7 0.759510 0.868591 0.833608
O O8 0.653747 0.914511 0.912655
O O9 0.000000 0.488304 0.078259
O O10 0.119909 0.500000 0.000000
O O11 0.764660 0.250000 0.755689
O O12 0.664666 0.402481 0.744261
O O13 0.850755 0.412531 0.757559
O O14 0.500000 0.750000 0.574273
O O15 0.500000 0.629790 0.496084
O O16 0.000000 0.750000 0.582310
O O17 0.500000 0.516360 0.258560
#
# Coordination Sequence:
#
# PCOD8280767 Si02
#       7
#    16  16  16  16   8   8  16
#     4  11  21  39  60  87 114 150 188 231 283 334
#     4  10  21  38  58  81 114 153 189 231 285 339
#     4  10  21  36  57  86 115 148 190 236 284 335
#     4  10  23  39  57  85 115 147 191 237 281 339
#     4  10  23  41  60  87 119 150 189 233 280 339
#     4  10  23  41  60  87 119 150 189 233 280 339
#     4  11  21  39  58  84 114 147 188 232 286 331
#
# _framework density 18.50666
#
# number of rings (size 3 to 8) (size 9 to 14) (size 15 to 20)
#    0.000    1.667    3.333    4.000    0.000    8.667 
#    0.000    6.667    0.000    0.000    0.000    0.000 
#    0.000    0.000    0.000    0.000    0.000    0.000 
#
# Total GULP energy -595359.772239 kJ/mol
# GULP energy per Si atom -12403.328588 kJ/mol
# Density = 1.846454 g / cm^3
# Si number density = 18.506660 Si / 1000 Ang^3
#
#
#
# Elastic Constant Matrix: (Units=GPa)
#
#
# Indices 1 2 3 4 5 6 
#
# 1 143.4920 28.9385 13.9701 0.0000 0.0000 0.0000
# 2 28.9385 120.4584 17.8885 0.0000 0.0000 0.0000
# 3 13.9701 17.8885 65.4411 0.0000 0.0000 0.0000
# 4 0.0000 0.0000 0.0000 -7.7304 0.0000 0.0000
# 5 0.0000 0.0000 0.0000 0.0000 4.9096 0.0000
# 6 0.0000 0.0000 0.0000 0.0000 0.0000 10.5524
#
#
#
# Elastic Compliance Matrix: (Units=1/GPa)
#
#
# Indices 1 2 3 4 5 6 
#
# 1 0.007405 -0.001609 -0.001141 0.000000 0.000000 0.000000
# 2 -0.001609 0.009003 -0.002117 0.000000 0.000000 0.000000
# 3 -0.001141 -0.002117 0.016103 0.000000 0.000000 0.000000
# 4 0.000000 0.000000 0.000000 -0.129359 0.000000 0.000000
# 5 0.000000 0.000000 0.000000 0.000000 0.203681 0.000000
# 6 0.000000 0.000000 0.000000 0.000000 0.000000 0.094765
#
#
# Mechanical properties :
#
#
# Convention : Reuss Voigt Hill
#
# Bulk Modulus (GPa) = 43.90688 50.10953 47.00821
# Shear Modulus (GPa) = 22.83890 19.45261 21.14576
#
# Velocity S-wave (km/s) = 3.51677 3.24561 3.38391
# Velocity P-wave (km/s) = 6.34560 6.41721 6.38151
#
# Compressibility (1/GPa) = 0.02277547
#
# Stress axis : x y z
#
# Youngs Moduli (GPa) = 135.04975 111.07770 62.09936
#
# Poissons Ratio (x) = 0.17878 0.07084
# Poissons Ratio (y) = 0.21736 0.13148
# Poissons Ratio (z) = 0.15406 0.23519
#
# Static dielectric constant tensor:
#      x y z
#    x 3.481290 0.000000 0.000000 
#    y 0.000000 3.373010 0.000000 
#    z 0.000000 0.000000 3.563120 
# 
# 
# High freq. dielectric constant tensor:
#      x y z
#    x 1.721430 0.000000 0.000000 
#    y 0.000000 1.721680 0.000000 
#    z 0.000000 0.000000 1.735520 
# 
# From -- ./inp_files/41894.got.cif
#   From: 2010.03.12/outbox.cif.g09.slc.cpg/sg67_21_cif.got.tgz:41894.got - 2010.04.10 22:41:39.
