data_PCOD8280321
_publ_section_title
;
Structure prediction by ZEFSAII (Michael W. Deem and Ramdas Pophale) SiO2 
 PCOD8280321
Probable space group: C M M A
;
_chemical_formula_sum "Si O2"
_cell_formula_units_Z 96
_cell_length_a 18.412596
_cell_length_b 13.832557
_cell_length_c 20.656710
_cell_angle_alpha 90.000000
_cell_angle_beta 90.000000
_cell_angle_gamma 90.000000
_cell_volume 5261.125300
_symmetry_space_group_name_H-M "C M M A"
_symmetry_group_IT_number 67
_symmetry_cell_setting 'orthorhombic'
loop_
_space_group_symop_operation_xyz
x,y,z
-x,1/2-y,z
x,-y,-z
-x,1/2+y,-z
-x,-y,-z
x,1/2+y,-z
-x,y,z
x,1/2-y,z
1/2+x,1/2+y,z
1/2-x,-y,z
1/2+x,1/2-y,-z
1/2-x,y,-z
1/2-x,1/2-y,-z
1/2+x,y,-z
1/2-x,1/2+y,z
1/2+x,-y,z
loop_
_atom_site_type_symbol
_atom_site_label
_atom_site_fract_x
_atom_site_fract_y
_atom_site_fract_z
Si Si1 0.413552 0.856539 0.034033
Si Si2 0.583302 0.361373 0.596400
Si Si3 0.167025 0.022505 0.658506
Si Si4 0.414866 0.136157 0.230817
Si Si5 0.173618 0.361375 0.528750
Si Si6 0.913851 0.451447 0.903357
O O1 0.500000 0.853934 0.032272
O O2 0.382747 0.750000 0.052250
O O3 0.387987 0.936843 0.086566
O O4 0.384451 0.886631 0.962885
O O5 0.500000 0.392410 0.597468
O O6 0.594847 0.250000 0.614865
O O7 0.625669 0.420687 0.651452
O O8 0.612282 0.381828 0.524313
O O9 0.131557 0.087356 0.713367
O O10 0.155724 0.077730 0.591494
O O11 0.250000 0.000000 0.675854
O O12 0.500000 0.113999 0.241291
O O13 0.400072 0.250000 0.230483
O O14 0.384720 0.090955 0.163917
O O15 0.177266 0.250000 0.549496
O O16 0.250000 0.396277 0.500000
O O17 0.000000 0.446318 0.903349
#
# Coordination Sequence:
#
# PCOD8280321 Si02
#       6
#    16  16  16  16  16  16
#     4   8  12  20  40  70 101 134 174 218 263 312
#     4  10  22  38  56  79 106 135 169 216 272 323
#     4  12  23  35  56  79 104 138 180 218 262 317
#     4  10  21  36  53  76 108 143 178 218 266 318
#     4  10  20  36  57  80 104 130 167 215 269 322
#     4   8  14  25  42  68 104 141 174 213 264 316
#
# _framework density 18.247046999999998
#
# number of rings (size 3 to 8) (size 9 to 14) (size 15 to 20)
#    0.000    2.333    1.667    3.000    0.000    4.667 
#    0.000    2.500    0.000    3.000    0.000    2.333 
#    0.000    6.667    0.000    0.000    0.000    0.000 
#
# Total GULP energy -595086.748859 kJ/mol
# GULP energy per Si atom -12397.640601 kJ/mol
# Density = 1.820552 g / cm^3
# Si number density = 18.247047 Si / 1000 Ang^3
#
#
#
# Elastic Constant Matrix: (Units=GPa)
#
#
# Indices 1 2 3 4 5 6 
#
# 1 87.0941 50.2322 45.1015 0.0000 0.0000 0.0000
# 2 50.2322 139.7446 74.1026 0.0000 0.0000 0.0000
# 3 45.1015 74.1026 105.0577 0.0000 0.0000 0.0000
# 4 0.0000 0.0000 0.0000 25.9705 0.0000 0.0000
# 5 0.0000 0.0000 0.0000 0.0000 13.5300 0.0000
# 6 0.0000 0.0000 0.0000 0.0000 0.0000 15.7587
#
#
#
# Elastic Compliance Matrix: (Units=1/GPa)
#
#
# Indices 1 2 3 4 5 6 
#
# 1 0.015661 -0.003298 -0.004397 0.000000 0.000000 0.000000
# 2 -0.003298 0.012126 -0.007137 0.000000 0.000000 0.000000
# 3 -0.004397 -0.007137 0.016441 0.000000 0.000000 0.000000
# 4 0.000000 0.000000 0.000000 0.038505 0.000000 0.000000
# 5 0.000000 0.000000 0.000000 0.000000 0.073910 0.000000
# 6 0.000000 0.000000 0.000000 0.000000 0.000000 0.063457
#
#
# Mechanical properties :
#
#
# Convention : Reuss Voigt Hill
#
# Bulk Modulus (GPa) = 68.66728 74.52989 71.59858
# Shear Modulus (GPa) = 19.63720 21.88252 20.75986
#
# Velocity S-wave (km/s) = 3.28409 3.46676 3.37666
# Velocity P-wave (km/s) = 7.21762 7.54706 7.38417
#
# Compressibility (1/GPa) = 0.01456298
#
# Stress axis : x y z
#
# Youngs Moduli (GPa) = 63.85332 82.46692 60.82468
#
# Poissons Ratio (x) = 0.27195 0.26746
# Poissons Ratio (y) = 0.21057 0.43413
# Poissons Ratio (z) = 0.28078 0.58860
#
# Static dielectric constant tensor:
#      x y z
#    x 3.119210 0.000000 0.000000 
#    y 0.000000 3.764210 0.000000 
#    z 0.000000 0.000000 3.407820 
# 
# 
# High freq. dielectric constant tensor:
#      x y z
#    x 1.669450 0.000000 0.000000 
#    y 0.000000 1.729660 0.000000 
#    z 0.000000 0.000000 1.692480 
# 
# From -- ./inp_files/38466.got.cif
#   From: 2010.03.12/outbox.cif.g09.slc.cpg/sg67_20_cif.got.tgz:38466.got - 2010.04.10 22:41:39.
