data_PCOD8280393
_publ_section_title
;
Structure prediction by ZEFSAII (Michael W. Deem and Ramdas Pophale) SiO2 
 PCOD8280393
Probable space group: C M M A
;
_chemical_formula_sum "Si O2"
_cell_formula_units_Z 88
_cell_length_a 16.701784
_cell_length_b 8.958441
_cell_length_c 29.506173
_cell_angle_alpha 90.000000
_cell_angle_beta 90.000000
_cell_angle_gamma 90.000000
_cell_volume 4414.771040
_symmetry_space_group_name_H-M "C M M A"
_symmetry_group_IT_number 67
_symmetry_cell_setting 'orthorhombic'
loop_
_space_group_symop_operation_xyz
x,y,z
-x,1/2-y,z
x,-y,-z
-x,1/2+y,-z
-x,-y,-z
x,1/2+y,-z
-x,y,z
x,1/2-y,z
1/2+x,1/2+y,z
1/2-x,-y,z
1/2+x,1/2-y,-z
1/2-x,y,-z
1/2-x,1/2-y,-z
1/2+x,y,-z
1/2-x,1/2+y,z
1/2+x,-y,z
loop_
_atom_site_type_symbol
_atom_site_label
_atom_site_fract_x
_atom_site_fract_y
_atom_site_fract_z
Si Si1 0.168445 0.574373 0.701420
Si Si2 0.334104 0.075026 0.596898
Si Si3 0.409008 0.087416 0.220169
Si Si4 0.166477 0.427024 0.138240
Si Si5 0.000000 0.927624 0.548781
Si Si6 0.908106 0.425276 0.044885
O O1 0.171278 0.750000 0.709308
O O2 0.250000 0.500000 0.718291
O O3 0.151733 0.534308 0.649249
O O4 0.101754 0.500402 0.732675
O O5 0.322300 0.250000 0.589072
O O6 0.416435 0.018984 0.572648
O O7 0.250000 0.000000 0.579432
O O8 0.500000 0.126399 0.216230
O O9 0.363535 0.250000 0.219195
O O10 0.390108 0.981212 0.178132
O O11 0.171004 0.250000 0.138948
O O12 0.250000 0.500000 0.149093
O O13 0.136454 0.485311 0.089438
O O14 0.000000 0.750000 0.545845
O O15 0.000000 0.000000 0.500000
O O16 0.898389 0.250000 0.039763
O O17 0.000000 0.473884 0.049848
O O18 0.870063 0.500000 0.000000
#
# Coordination Sequence:
#
# PCOD8280393 Si02
#       6
#    16  16  16  16   8  16
#     4  10  20  36  60  85 114 151 190 235 287 344
#     4   9  20  38  61  87 120 158 201 249 300 358
#     4  11  24  39  56  82 114 147 186 233 282 337
#     4  11  23  39  58  80 110 147 187 230 276 333
#     4  10  22  40  60  88 122 160 204 252 301 358
#     4   9  19  36  58  82 107 138 178 224 275 331
#
# _framework density 19.933084000000001
#
# number of rings (size 3 to 8) (size 9 to 14) (size 15 to 20)
#    0.000    2.000    0.000    2.727    1.273    5.818 
#    0.000    5.455    0.000    0.000    0.000    0.000 
#    0.000    0.000    0.000    0.000    0.000    0.000 
#
# Total GULP energy -545406.010751 kJ/mol
# GULP energy per Si atom -12395.591153 kJ/mol
# Density = 1.988772 g / cm^3
# Si number density = 19.933084 Si / 1000 Ang^3
#
#
#
# Elastic Constant Matrix: (Units=GPa)
#
#
# Indices 1 2 3 4 5 6 
#
# 1 111.3751 37.0011 55.7793 0.0000 0.0000 0.0000
# 2 37.0011 75.9002 46.5948 0.0000 0.0000 0.0000
# 3 55.7793 46.5948 124.4631 0.0000 0.0000 0.0000
# 4 0.0000 0.0000 0.0000 55.4907 0.0000 0.0000
# 5 0.0000 0.0000 0.0000 0.0000 27.8720 0.0000
# 6 0.0000 0.0000 0.0000 0.0000 0.0000 25.7167
#
#
#
# Elastic Compliance Matrix: (Units=1/GPa)
#
#
# Indices 1 2 3 4 5 6 
#
# 1 0.012205 -0.003366 -0.004210 0.000000 0.000000 0.000000
# 2 -0.003366 0.018035 -0.005243 0.000000 0.000000 0.000000
# 3 -0.004210 -0.005243 0.011884 0.000000 0.000000 0.000000
# 4 0.000000 0.000000 0.000000 0.018021 0.000000 0.000000
# 5 0.000000 0.000000 0.000000 0.000000 0.035878 0.000000
# 6 0.000000 0.000000 0.000000 0.000000 0.000000 0.038885
#
#
# Mechanical properties :
#
#
# Convention : Reuss Voigt Hill
#
# Bulk Modulus (GPa) = 60.65555 65.60986 63.13271
# Shear Modulus (GPa) = 30.11292 33.30676 31.70984
#
# Velocity S-wave (km/s) = 3.89099 4.09213 3.99283
# Velocity P-wave (km/s) = 7.11913 7.43733 7.27997
#
# Compressibility (1/GPa) = 0.01648654
#
# Stress axis : x y z
#
# Youngs Moduli (GPa) = 81.93227 55.44864 84.14568
#
# Poissons Ratio (x) = 0.18661 0.35425
# Poissons Ratio (y) = 0.27575 0.44120
# Poissons Ratio (z) = 0.34493 0.29073
#
# Static dielectric constant tensor:
#      x y z
#    x 3.686310 0.000000 0.000000 
#    y 0.000000 3.598220 0.000000 
#    z 0.000000 0.000000 3.729340 
# 
# 
# High freq. dielectric constant tensor:
#      x y z
#    x 1.776880 0.000000 0.000000 
#    y 0.000000 1.780600 0.000000 
#    z 0.000000 0.000000 1.783870 
# 
# From -- ./inp_files/45807.got.cif
#   From: 2010.03.12/outbox.cif.g09.slc.cpg/sg67_23_cif.got.tgz:45807.got - 2010.04.10 22:41:39.
