data_PCOD8280538
_publ_section_title
;
Structure prediction by ZEFSAII (Michael W. Deem and Ramdas Pophale) SiO2 
 PCOD8280538
Probable space group: C M M A
;
_chemical_formula_sum "Si O2"
_cell_formula_units_Z 112
_cell_length_a 17.397354
_cell_length_b 20.268146
_cell_length_c 16.832765
_cell_angle_alpha 90.000000
_cell_angle_beta 90.000000
_cell_angle_gamma 90.000000
_cell_volume 5935.436799
_symmetry_space_group_name_H-M "C M M A"
_symmetry_group_IT_number 67
_symmetry_cell_setting 'orthorhombic'
loop_
_space_group_symop_operation_xyz
x,y,z
-x,1/2-y,z
x,-y,-z
-x,1/2+y,-z
-x,-y,-z
x,1/2+y,-z
-x,y,z
x,1/2-y,z
1/2+x,1/2+y,z
1/2-x,-y,z
1/2+x,1/2-y,-z
1/2-x,y,-z
1/2-x,1/2-y,-z
1/2+x,y,-z
1/2-x,1/2+y,z
1/2+x,-y,z
loop_
_atom_site_type_symbol
_atom_site_label
_atom_site_fract_x
_atom_site_fract_y
_atom_site_fract_z
Si Si1 0.298762 0.173515 0.694188
Si Si2 0.915100 0.172963 0.175609
Si Si3 0.910850 0.088299 0.038438
Si Si4 0.687298 0.056955 0.282694
Si Si5 0.662899 0.325011 0.518789
Si Si6 0.091121 0.043070 0.874540
Si Si7 0.089602 0.054426 0.563111
O O1 0.273917 0.250000 0.707555
O O2 0.354814 0.144625 0.761822
O O3 0.223509 0.128217 0.696532
O O4 0.347327 0.166964 0.613205
O O5 0.918642 0.250000 0.185073
O O6 0.890192 0.155420 0.085191
O O7 0.000000 0.142253 0.192207
O O8 0.000000 0.076609 0.023842
O O9 0.883805 0.030029 0.097563
O O10 0.878058 0.088744 0.948564
O O11 0.637265 0.064253 0.203271
O O12 0.632860 0.038118 0.355640
O O13 0.750000 0.000000 0.272102
O O14 0.645038 0.250000 0.491531
O O15 0.750000 0.344512 0.500000
O O16 0.606309 0.372858 0.471428
O O17 0.000000 0.049919 0.856867
O O18 0.000000 0.048592 0.580843
O O19 0.117503 0.000000 0.500000
#
# Coordination Sequence:
#
# PCOD8280538 Si02
#       7
#    16  16  16  16  16  16  16
#     4  10  21  36  55  81 112 143 179 221 272 328
#     4   9  17  31  53  80 109 139 174 220 272 328
#     4   8  15  31  54  77 102 136 176 220 272 321
#     4  12  23  36  57  81 109 147 184 221 274 333
#     4  10  20  38  62  82 106 149 194 227 270 333
#     4   9  18  34  55  76 102 137 181 229 267 314
#     4  11  25  40  57  85 116 145 184 234 281 328
#
# _framework density 18.869713999999998
#
# number of rings (size 3 to 8) (size 9 to 14) (size 15 to 20)
#    0.000    2.143    1.429    3.000    0.000    0.857 
#    0.000   10.714    0.000    3.857    0.000    0.000 
#    0.000    0.000    0.000    0.000    0.000    0.000 
#
# Total GULP energy -694110.950946 kJ/mol
# GULP energy per Si atom -12394.838410 kJ/mol
# Density = 1.882677 g / cm^3
# Si number density = 18.869714 Si / 1000 Ang^3
#
#
#
# Elastic Constant Matrix: (Units=GPa)
#
#
# Indices 1 2 3 4 5 6 
#
# 1 60.4415 23.3383 45.0500 0.0000 0.0000 0.0000
# 2 23.3383 49.7563 23.3703 0.0000 0.0000 0.0000
# 3 45.0500 23.3703 131.8336 0.0000 0.0000 0.0000
# 4 0.0000 0.0000 0.0000 32.0579 0.0000 0.0000
# 5 0.0000 0.0000 0.0000 0.0000 32.4830 0.0000
# 6 0.0000 0.0000 0.0000 0.0000 0.0000 19.2629
#
#
#
# Elastic Compliance Matrix: (Units=1/GPa)
#
#
# Indices 1 2 3 4 5 6 
#
# 1 0.025075 -0.008440 -0.007073 0.000000 0.000000 0.000000
# 2 -0.008440 0.024764 -0.001506 0.000000 0.000000 0.000000
# 3 -0.007073 -0.001506 0.010269 0.000000 0.000000 0.000000
# 4 0.000000 0.000000 0.000000 0.031194 0.000000 0.000000
# 5 0.000000 0.000000 0.000000 0.000000 0.030785 0.000000
# 6 0.000000 0.000000 0.000000 0.000000 0.000000 0.051913
#
#
# Mechanical properties :
#
#
# Convention : Reuss Voigt Hill
#
# Bulk Modulus (GPa) = 38.35535 47.28316 42.81926
# Shear Modulus (GPa) = 23.07044 26.77894 24.92469
#
# Velocity S-wave (km/s) = 3.50039 3.77125 3.63834
# Velocity P-wave (km/s) = 6.05867 6.63891 6.35542
#
# Compressibility (1/GPa) = 0.02607198
#
# Stress axis : x y z
#
# Youngs Moduli (GPa) = 39.87997 40.38131 97.37944
#
# Poissons Ratio (x) = 0.34080 0.68872
# Poissons Ratio (y) = 0.33657 0.14665
# Poissons Ratio (z) = 0.28205 0.06081
#
# Static dielectric constant tensor:
#      x y z
#    x 3.392850 0.000000 0.000000 
#    y 0.000000 3.393200 0.000000 
#    z 0.000000 0.000000 3.694560 
# 
# 
# High freq. dielectric constant tensor:
#      x y z
#    x 1.712200 0.000000 0.000000 
#    y 0.000000 1.725360 0.000000 
#    z 0.000000 0.000000 1.748570 
# 
# From -- ./inp_files/27488.got.cif
#   From: 2010.03.12/outbox.cif.g09.slc.cpg/sg67_14_cif.got.tgz:27488.got - 2010.04.10 22:41:39.
