data_PCOD8280031
_publ_section_title
;
Structure prediction by ZEFSAII (Michael W. Deem and Ramdas Pophale) SiO2 
 PCOD8280031
Probable space group: C M M A
;
_chemical_formula_sum "Si O2"
_cell_formula_units_Z 72
_cell_length_a 25.007281
_cell_length_b 9.110204
_cell_length_c 16.774614
_cell_angle_alpha 90.000000
_cell_angle_beta 90.000000
_cell_angle_gamma 90.000000
_cell_volume 3821.616573
_symmetry_space_group_name_H-M "C M M A"
_symmetry_group_IT_number 67
_symmetry_cell_setting 'orthorhombic'
loop_
_space_group_symop_operation_xyz
x,y,z
-x,1/2-y,z
x,-y,-z
-x,1/2+y,-z
-x,-y,-z
x,1/2+y,-z
-x,y,z
x,1/2-y,z
1/2+x,1/2+y,z
1/2-x,-y,z
1/2+x,1/2-y,-z
1/2-x,y,-z
1/2-x,1/2-y,-z
1/2+x,y,-z
1/2-x,1/2+y,z
1/2+x,-y,z
loop_
_atom_site_type_symbol
_atom_site_label
_atom_site_fract_x
_atom_site_fract_y
_atom_site_fract_z
Si Si1 0.939876 0.916444 0.123110
Si Si2 0.303674 0.576467 0.250677
Si Si3 0.093856 0.081523 0.699395
Si Si4 0.339228 0.578603 0.075991
Si Si5 0.500000 0.923681 0.584401
O O1 0.923201 0.750000 0.100617
O O2 0.936941 0.937946 0.217790
O O3 0.000000 0.951130 0.095299
O O4 0.901104 0.029183 0.078573
O O5 0.299503 0.750000 0.261045
O O6 0.250000 0.500000 0.282547
O O7 0.353041 0.518174 0.303109
O O8 0.310893 0.530462 0.157965
O O9 0.111099 0.250000 0.686109
O O10 0.053387 0.026627 0.631160
O O11 0.335866 0.750000 0.062294
O O12 0.311161 0.500000 0.000000
O O13 0.500000 0.750000 0.574260
O O14 0.500000 0.000000 0.500000
#
# Coordination Sequence:
#
# PCOD8280031 Si02
#       5
#    16  16  16  16   8
#     4   9  16  29  50  71  94 131 175 216 260 310
#     4  10  21  36  55  79 103 135 180 225 270 316
#     4   9  17  33  55  79 109 142 177 215 256 308
#     4  10  21  34  47  68  98 132 173 220 270 319
#     4  10  20  34  56  88 121 150 175 204 253 310
#
# _framework density 18.840195000000001
#
# number of rings (size 3 to 8) (size 9 to 14) (size 15 to 20)
#    0.000    2.444    1.111    1.333    0.000    4.889 
#    0.000    2.222    0.000    0.667    0.000    4.667 
#    0.000    0.000    0.000    0.000    0.000    0.000 
#
# Total GULP energy -446413.685749 kJ/mol
# GULP energy per Si atom -12400.380160 kJ/mol
# Density = 1.879731 g / cm^3
# Si number density = 18.840195 Si / 1000 Ang^3
#
#
#
# Elastic Constant Matrix: (Units=GPa)
#
#
# Indices 1 2 3 4 5 6 
#
# 1 121.6329 49.7730 33.8990 0.0000 0.0000 0.0000
# 2 49.7730 72.0007 32.2452 0.0000 0.0000 0.0000
# 3 33.8990 32.2452 83.1713 0.0000 0.0000 0.0000
# 4 0.0000 0.0000 0.0000 29.2021 0.0000 0.0000
# 5 0.0000 0.0000 0.0000 0.0000 13.1143 0.0000
# 6 0.0000 0.0000 0.0000 0.0000 0.0000 29.1815
#
#
#
# Elastic Compliance Matrix: (Units=1/GPa)
#
#
# Indices 1 2 3 4 5 6 
#
# 1 0.011728 -0.007220 -0.001981 0.000000 0.000000 0.000000
# 2 -0.007220 0.021252 -0.005296 0.000000 0.000000 0.000000
# 3 -0.001981 -0.005296 0.014884 0.000000 0.000000 0.000000
# 4 0.000000 0.000000 0.000000 0.034244 0.000000 0.000000
# 5 0.000000 0.000000 0.000000 0.000000 0.076253 0.000000
# 6 0.000000 0.000000 0.000000 0.000000 0.000000 0.034268
#
#
# Mechanical properties :
#
#
# Convention : Reuss Voigt Hill
#
# Bulk Modulus (GPa) = 52.99697 56.51546 54.75621
# Shear Modulus (GPa) = 21.93806 25.02543 23.48174
#
# Velocity S-wave (km/s) = 3.41607 3.64854 3.53422
# Velocity P-wave (km/s) = 6.61439 6.91459 6.76616
#
# Compressibility (1/GPa) = 0.01886900
#
# Stress axis : x y z
#
# Youngs Moduli (GPa) = 85.26490 47.05422 67.18554
#
# Poissons Ratio (x) = 0.33975 0.13308
# Poissons Ratio (y) = 0.61565 0.35585
# Poissons Ratio (z) = 0.16890 0.24922
#
# Static dielectric constant tensor:
#      x y z
#    x 3.405780 0.000000 0.000000 
#    y 0.000000 3.352340 0.000000 
#    z 0.000000 0.000000 3.258950 
# 
# 
# High freq. dielectric constant tensor:
#      x y z
#    x 1.732840 0.000000 0.000000 
#    y 0.000000 1.729230 0.000000 
#    z 0.000000 0.000000 1.700980 
# 
# From -- ./inp_files/25064.got.cif
#   From: 2010.03.12/outbox.cif.g09.slc.cpg/sg67_13_cif.got.tgz:25064.got - 2010.04.10 22:41:39.
