data_PCOD8280585
_publ_section_title
;
Structure prediction by ZEFSAII (Michael W. Deem and Ramdas Pophale) SiO2 
 PCOD8280585
Probable space group: C M M A
;
_chemical_formula_sum "Si O2"
_cell_formula_units_Z 112
_cell_length_a 24.980871
_cell_length_b 18.470898
_cell_length_c 12.036251
_cell_angle_alpha 90.000000
_cell_angle_beta 90.000000
_cell_angle_gamma 90.000000
_cell_volume 5553.756347
_symmetry_space_group_name_H-M "C M M A"
_symmetry_group_IT_number 67
_symmetry_cell_setting 'orthorhombic'
loop_
_space_group_symop_operation_xyz
x,y,z
-x,1/2-y,z
x,-y,-z
-x,1/2+y,-z
-x,-y,-z
x,1/2+y,-z
-x,y,z
x,1/2-y,z
1/2+x,1/2+y,z
1/2-x,-y,z
1/2+x,1/2-y,-z
1/2-x,y,-z
1/2-x,1/2-y,-z
1/2+x,y,-z
1/2-x,1/2+y,z
1/2+x,-y,z
loop_
_atom_site_type_symbol
_atom_site_label
_atom_site_fract_x
_atom_site_fract_y
_atom_site_fract_z
Si Si1 0.059486 0.891403 0.712208
Si Si2 0.653655 0.332922 0.847629
Si Si3 0.299843 0.832708 0.580185
Si Si4 0.100419 0.918151 0.479706
Si Si5 0.439453 0.556452 0.759223
Si Si6 0.355666 0.923032 0.942906
Si Si7 0.740563 0.918467 0.785686
O O1 0.103873 0.838438 0.763129
O O2 0.061215 0.893620 0.578403
O O3 0.000000 0.864672 0.745853
O O4 0.070733 0.970833 0.760698
O O5 0.672506 0.250000 0.852615
O O6 0.702680 0.381377 0.806052
O O7 0.635700 0.359035 0.969024
O O8 0.311068 0.750000 0.612481
O O9 0.250000 0.840268 0.500000
O O10 0.349385 0.865055 0.513556
O O11 0.292235 0.877003 0.692323
O O12 0.069940 0.910523 0.362919
O O13 0.120504 0.000000 0.500000
O O14 0.500000 0.574775 0.795388
O O15 0.398664 0.591777 0.846223
O O16 0.295156 0.919388 0.896872
O O17 0.365829 0.000000 0.000000
O O18 0.750000 0.000000 0.744033
#
# Coordination Sequence:
#
# PCOD8280585 Si02
#       7
#    16  16  16  16  16  16  16
#     4  10  21  40  67  95 130 170 214 271 327 383
#     4  12  27  43  64  97 135 170 215 267 327 387
#     4  11  25  40  60  94 136 173 210 263 331 394
#     4  10  21  38  64  97 128 166 221 269 322 389
#     4  10  20  39  67  99 129 165 219 277 325 378
#     4  12  23  42  66  98 127 171 221 267 318 382
#     4  12  24  41  69  95 126 171 220 268 315 385
#
# _framework density 20.166530000000002
#
# number of rings (size 3 to 8) (size 9 to 14) (size 15 to 20)
#    0.000    1.000    4.286    2.143    4.000    6.286 
#    0.000    0.000    0.000    2.143    0.000    0.000 
#    0.000    0.000    0.000    0.000    0.000    0.000 
#
# Total GULP energy -694696.086633 kJ/mol
# GULP energy per Si atom -12405.287261 kJ/mol
# Density = 2.012063 g / cm^3
# Si number density = 20.166530 Si / 1000 Ang^3
#
#
#
# Elastic Constant Matrix: (Units=GPa)
#
#
# Indices 1 2 3 4 5 6 
#
# 1 123.8857 38.4236 31.5482 0.0000 0.0000 0.0000
# 2 38.4236 110.9999 31.7907 0.0000 0.0000 0.0000
# 3 31.5482 31.7907 94.7432 0.0000 0.0000 0.0000
# 4 0.0000 0.0000 0.0000 16.9976 0.0000 0.0000
# 5 0.0000 0.0000 0.0000 0.0000 29.2417 0.0000
# 6 0.0000 0.0000 0.0000 0.0000 0.0000 6.5679
#
#
#
# Elastic Compliance Matrix: (Units=1/GPa)
#
#
# Indices 1 2 3 4 5 6 
#
# 1 0.009465 -0.002626 -0.002270 0.000000 0.000000 0.000000
# 2 -0.002626 0.010695 -0.002714 0.000000 0.000000 0.000000
# 3 -0.002270 -0.002714 0.012222 0.000000 0.000000 0.000000
# 4 0.000000 0.000000 0.000000 0.058832 0.000000 0.000000
# 5 0.000000 0.000000 0.000000 0.000000 0.034198 0.000000
# 6 0.000000 0.000000 0.000000 0.000000 0.000000 0.152256
#
#
# Mechanical properties :
#
#
# Convention : Reuss Voigt Hill
#
# Bulk Modulus (GPa) = 58.27488 59.23934 58.75711
# Shear Modulus (GPa) = 16.74431 25.75253 21.24842
#
# Velocity S-wave (km/s) = 2.88462 3.57738 3.24952
# Velocity P-wave (km/s) = 6.32885 6.81927 6.57863
#
# Compressibility (1/GPa) = 0.01716005
#
# Stress axis : x y z
#
# Youngs Moduli (GPa) = 105.65691 93.49781 81.82186
#
# Poissons Ratio (x) = 0.24552 0.18577
# Poissons Ratio (y) = 0.27745 0.22210
# Poissons Ratio (z) = 0.23989 0.25379
#
# Static dielectric constant tensor:
#      x y z
#    x 3.688720 0.000000 0.000000 
#    y 0.000000 3.535870 0.000000 
#    z 0.000000 0.000000 4.000560 
# 
# 
# High freq. dielectric constant tensor:
#      x y z
#    x 1.795610 0.000000 0.000000 
#    y 0.000000 1.767480 0.000000 
#    z 0.000000 0.000000 1.797610 
# 
# From -- ./inp_files/22139.got.cif
#   From: 2010.03.12/outbox.cif.g09.slc.cpg/sg67_12_cif.got.tgz:22139.got - 2010.04.10 22:41:39.
