data_PCOD8280576
_publ_section_title
;
Structure prediction by ZEFSAII (Michael W. Deem and Ramdas Pophale) SiO2 
 PCOD8280576
Probable space group: C M M A
;
_chemical_formula_sum "Si O2"
_cell_formula_units_Z 96
_cell_length_a 14.263437
_cell_length_b 16.630342
_cell_length_c 20.544552
_cell_angle_alpha 90.000000
_cell_angle_beta 90.000000
_cell_angle_gamma 90.000000
_cell_volume 4873.287620
_symmetry_space_group_name_H-M "C M M A"
_symmetry_group_IT_number 67
_symmetry_cell_setting 'orthorhombic'
loop_
_space_group_symop_operation_xyz
x,y,z
-x,1/2-y,z
x,-y,-z
-x,1/2+y,-z
-x,-y,-z
x,1/2+y,-z
-x,y,z
x,1/2-y,z
1/2+x,1/2+y,z
1/2-x,-y,z
1/2+x,1/2-y,-z
1/2-x,y,-z
1/2-x,1/2-y,-z
1/2+x,y,-z
1/2-x,1/2+y,z
1/2+x,-y,z
loop_
_atom_site_type_symbol
_atom_site_label
_atom_site_fract_x
_atom_site_fract_y
_atom_site_fract_z
Si Si1 0.500000 0.052329 0.169503
Si Si2 0.000000 0.934652 0.944211
Si Si3 0.500000 0.158204 0.608934
Si Si4 0.196361 0.422612 0.686552
Si Si5 0.691262 0.655283 0.061078
Si Si6 0.179280 0.343544 0.821545
Si Si7 0.295408 0.842292 0.434087
Si Si8 0.500000 0.505802 0.684722
O O1 0.589273 0.107244 0.156426
O O2 0.500000 0.008432 0.238243
O O3 0.500000 0.976819 0.124173
O O4 0.911074 0.878372 0.948027
O O5 0.000000 0.000000 0.000000
O O6 0.500000 0.250000 0.639420
O O7 0.408179 0.147491 0.563808
O O8 0.500000 0.088161 0.663493
O O9 0.250000 0.500000 0.714289
O O10 0.199760 0.358980 0.745366
O O11 0.254073 0.389528 0.626324
O O12 0.092229 0.445731 0.660845
O O13 0.684376 0.750000 0.057548
O O14 0.736485 0.629198 0.130569
O O15 0.750000 0.621414 0.000000
O O16 0.157324 0.250000 0.830659
O O17 0.265516 0.750000 0.426357
O O18 0.250000 0.877882 0.500000
#
# Coordination Sequence:
#
# PCOD8280576 Si02
#       8
#     8   8   8  16  16  16  16   8
#     4  10  23  37  62  86 125 152 194 257 291 358
#     4  12  25  38  58  92 119 157 199 249 309 356
#     4  10  20  39  62  85 120 157 201 247 295 366
#     4  11  22  38  62  88 126 156 197 255 300 360
#     4  10  23  42  63  87 121 160 203 249 298 362
#     4  10  22  40  63  88 117 163 203 242 300 357
#     4  10  22  40  62  89 120 161 205 247 302 363
#     4  10  22  40  56  93 117 158 199 245 308 344
#
# _framework density 19.699225999999999
#
# number of rings (size 3 to 8) (size 9 to 14) (size 15 to 20)
#    0.000    1.667    1.667    2.000    4.667    2.667 
#    0.000    7.083    0.000    0.000    0.000    0.000 
#    0.000    0.000    0.000    0.000    0.000    0.000 
#
# Total GULP energy -595169.638869 kJ/mol
# GULP energy per Si atom -12399.367476 kJ/mol
# Density = 1.965439 g / cm^3
# Si number density = 19.699226 Si / 1000 Ang^3
#
#
#
# Elastic Constant Matrix: (Units=GPa)
#
#
# Indices 1 2 3 4 5 6 
#
# 1 168.6012 43.6702 59.7452 0.0000 0.0000 0.0000
# 2 43.6702 61.2113 38.0001 0.0000 0.0000 0.0000
# 3 59.7452 38.0001 101.4615 0.0000 0.0000 0.0000
# 4 0.0000 0.0000 0.0000 28.0039 0.0000 0.0000
# 5 0.0000 0.0000 0.0000 0.0000 17.5757 0.0000
# 6 0.0000 0.0000 0.0000 0.0000 0.0000 42.5786
#
#
#
# Elastic Compliance Matrix: (Units=1/GPa)
#
#
# Indices 1 2 3 4 5 6 
#
# 1 0.008080 -0.003662 -0.003386 0.000000 0.000000 0.000000
# 2 -0.003662 0.022946 -0.006437 0.000000 0.000000 0.000000
# 3 -0.003386 -0.006437 0.014261 0.000000 0.000000 0.000000
# 4 0.000000 0.000000 0.000000 0.035709 0.000000 0.000000
# 5 0.000000 0.000000 0.000000 0.000000 0.056897 0.000000
# 6 0.000000 0.000000 0.000000 0.000000 0.000000 0.023486
#
#
# Mechanical properties :
#
#
# Convention : Reuss Voigt Hill
#
# Bulk Modulus (GPa) = 54.59992 68.23386 61.41689
# Shear Modulus (GPa) = 25.71293 30.28887 28.00090
#
# Velocity S-wave (km/s) = 3.61678 3.92544 3.77426
# Velocity P-wave (km/s) = 6.72446 7.43360 7.08791
#
# Compressibility (1/GPa) = 0.01831505
#
# Stress axis : x y z
#
# Youngs Moduli (GPa) = 123.76877 43.58070 70.12231
#
# Poissons Ratio (x) = 0.15960 0.23744
# Poissons Ratio (y) = 0.45326 0.45141
# Poissons Ratio (z) = 0.41909 0.28055
#
# Static dielectric constant tensor:
#      x y z
#    x 3.940550 0.000000 0.000000 
#    y 0.000000 3.496790 0.000000 
#    z 0.000000 0.000000 3.559310 
# 
# 
# High freq. dielectric constant tensor:
#      x y z
#    x 1.783660 0.000000 0.000000 
#    y 0.000000 1.773440 0.000000 
#    z 0.000000 0.000000 1.764840 
# 
# From -- ./inp_files/38593.got.cif
#   From: 2010.03.12/outbox.cif.g09.slc.cpg/sg67_20_cif.got.tgz:38593.got - 2010.04.10 22:41:39.
