data_PCOD8280409
_publ_section_title
;
Structure prediction by ZEFSAII (Michael W. Deem and Ramdas Pophale) SiO2 
 PCOD8280409
Probable space group: C M M A
;
_chemical_formula_sum "Si O2"
_cell_formula_units_Z 112
_cell_length_a 17.181440
_cell_length_b 13.975227
_cell_length_c 22.702969
_cell_angle_alpha 90.000000
_cell_angle_beta 90.000000
_cell_angle_gamma 90.000000
_cell_volume 5451.312599
_symmetry_space_group_name_H-M "C M M A"
_symmetry_group_IT_number 67
_symmetry_cell_setting 'orthorhombic'
loop_
_space_group_symop_operation_xyz
x,y,z
-x,1/2-y,z
x,-y,-z
-x,1/2+y,-z
-x,-y,-z
x,1/2+y,-z
-x,y,z
x,1/2-y,z
1/2+x,1/2+y,z
1/2-x,-y,z
1/2+x,1/2-y,-z
1/2-x,y,-z
1/2-x,1/2-y,-z
1/2+x,y,-z
1/2-x,1/2+y,z
1/2+x,-y,z
loop_
_atom_site_type_symbol
_atom_site_label
_atom_site_fract_x
_atom_site_fract_y
_atom_site_fract_z
Si Si1 0.656848 0.353998 0.603095
Si Si2 0.586862 0.390048 0.485347
Si Si3 0.672265 0.358568 0.364813
Si Si4 0.339862 0.971901 0.084574
Si Si5 0.591695 0.138656 0.806711
Si Si6 0.411851 0.982305 0.306115
Si Si7 0.409251 0.139695 0.022345
O O1 0.647920 0.250000 0.632735
O O2 0.642633 0.341371 0.533486
O O3 0.742905 0.394680 0.615312
O O4 0.594510 0.425170 0.632233
O O5 0.588501 0.500000 0.500000
O O6 0.500000 0.348130 0.490905
O O7 0.615514 0.367567 0.420212
O O8 0.673801 0.250000 0.341980
O O9 0.641808 0.423273 0.310403
O O10 0.361241 0.918820 0.144361
O O11 0.250000 0.000000 0.083950
O O12 0.389544 0.070521 0.077633
O O13 0.358060 0.897525 0.032196
O O14 0.500000 0.130409 0.819152
O O15 0.617136 0.250000 0.805346
O O16 0.615677 0.088502 0.745563
O O17 0.500000 0.015872 0.296593
O O18 0.500000 0.130851 0.005999
O O19 0.387646 0.250000 0.036912
#
# Coordination Sequence:
#
# PCOD8280409 Si02
#       7
#    16  16  16  16  16  16  16
#     4  11  23  38  59  85 113 146 185 233 291 350
#     4  11  22  36  57  86 114 147 187 233 287 343
#     4  11  24  40  59  84 116 153 187 227 291 362
#     4  11  22  35  58  92 127 162 201 248 303 351
#     4  10  22  42  66  88 114 153 201 250 296 348
#     4  11  23  40  62  86 111 145 194 245 292 341
#     4  10  20  36  60  89 126 171 212 249 290 342
#
# _framework density 20.545511000000001
#
# number of rings (size 3 to 8) (size 9 to 14) (size 15 to 20)
#    0.000    1.286    1.429    5.571    0.000    9.143 
#    0.000    0.714    0.000    0.857    0.000    0.000 
#    0.000    0.000    0.000    0.000    0.000    0.000 
#
# Total GULP energy -694371.993205 kJ/mol
# GULP energy per Si atom -12399.499879 kJ/mol
# Density = 2.049875 g / cm^3
# Si number density = 20.545511 Si / 1000 Ang^3
#
#
#
# Elastic Constant Matrix: (Units=GPa)
#
#
# Indices 1 2 3 4 5 6 
#
# 1 108.2664 47.2558 37.5961 0.0000 0.0000 0.0000
# 2 47.2558 146.4526 50.7008 0.0000 0.0000 0.0000
# 3 37.5961 50.7008 94.1815 0.0000 0.0000 0.0000
# 4 0.0000 0.0000 0.0000 32.7795 0.0000 0.0000
# 5 0.0000 0.0000 0.0000 0.0000 6.9901 0.0000
# 6 0.0000 0.0000 0.0000 0.0000 0.0000 35.0794
#
#
#
# Elastic Compliance Matrix: (Units=1/GPa)
#
#
# Indices 1 2 3 4 5 6 
#
# 1 0.011477 -0.002602 -0.003181 0.000000 0.000000 0.000000
# 2 -0.002602 0.008982 -0.003797 0.000000 0.000000 0.000000
# 3 -0.003181 -0.003797 0.013931 0.000000 0.000000 0.000000
# 4 0.000000 0.000000 0.000000 0.030507 0.000000 0.000000
# 5 0.000000 0.000000 0.000000 0.000000 0.143059 0.000000
# 6 0.000000 0.000000 0.000000 0.000000 0.000000 0.028507
#
#
# Mechanical properties :
#
#
# Convention : Reuss Voigt Hill
#
# Bulk Modulus (GPa) = 65.65333 68.88955 67.27144
# Shear Modulus (GPa) = 19.17921 29.19300 24.18611
#
# Velocity S-wave (km/s) = 3.05864 3.77356 3.43475
# Velocity P-wave (km/s) = 6.67069 7.25185 6.96734
#
# Compressibility (1/GPa) = 0.01523152
#
# Stress axis : x y z
#
# Youngs Moduli (GPa) = 87.13309 111.33220 71.78085
#
# Poissons Ratio (x) = 0.28970 0.22830
# Poissons Ratio (y) = 0.22673 0.27253
# Poissons Ratio (z) = 0.27713 0.42269
#
# Static dielectric constant tensor:
#      x y z
#    x 3.772490 0.000000 0.000000 
#    y 0.000000 4.114350 0.000000 
#    z 0.000000 0.000000 3.588340 
# 
# 
# High freq. dielectric constant tensor:
#      x y z
#    x 1.805480 0.000000 0.000000 
#    y 0.000000 1.823670 0.000000 
#    z 0.000000 0.000000 1.777070 
# 
# From -- ./inp_files/41926.got.cif
#   From: 2010.03.12/outbox.cif.g09.slc.cpg/sg67_21_cif.got.tgz:41926.got - 2010.04.10 22:41:39.
