data_PCOD8280181
_publ_section_title
;
Structure prediction by ZEFSAII (Michael W. Deem and Ramdas Pophale) SiO2 
 PCOD8280181
Probable space group: C M M A
;
_chemical_formula_sum "Si O2"
_cell_formula_units_Z 96
_cell_length_a 18.635884
_cell_length_b 8.820911
_cell_length_c 30.947294
_cell_angle_alpha 90.000000
_cell_angle_beta 90.000000
_cell_angle_gamma 90.000000
_cell_volume 5087.285598
_symmetry_space_group_name_H-M "C M M A"
_symmetry_group_IT_number 67
_symmetry_cell_setting 'orthorhombic'
loop_
_space_group_symop_operation_xyz
x,y,z
-x,1/2-y,z
x,-y,-z
-x,1/2+y,-z
-x,-y,-z
x,1/2+y,-z
-x,y,z
x,1/2-y,z
1/2+x,1/2+y,z
1/2-x,-y,z
1/2+x,1/2-y,-z
1/2-x,y,-z
1/2-x,1/2-y,-z
1/2+x,y,-z
1/2-x,1/2+y,z
1/2+x,-y,z
loop_
_atom_site_type_symbol
_atom_site_label
_atom_site_fract_x
_atom_site_fract_y
_atom_site_fract_z
Si Si1 0.585339 0.079306 0.204693
Si Si2 0.914896 0.922478 0.881775
Si Si3 0.672075 0.070223 0.625696
Si Si4 0.582388 0.928221 0.291943
Si Si5 0.174164 0.070324 0.954631
Si Si6 0.918307 0.929106 0.544313
O O1 0.500000 0.075389 0.205086
O O2 0.614574 0.250000 0.200315
O O3 0.614141 0.981747 0.164347
O O4 0.614059 0.008183 0.249262
O O5 0.888745 0.750000 0.888087
O O6 0.000000 0.934511 0.883939
O O7 0.884446 0.029283 0.919048
O O8 0.677764 0.250000 0.625068
O O9 0.628565 0.014498 0.667589
O O10 0.630332 0.010399 0.583467
O O11 0.750000 0.000000 0.626632
O O12 0.500000 0.974544 0.300561
O O13 0.589166 0.750000 0.284877
O O14 0.181162 0.250000 0.959324
O O15 0.250000 0.000000 0.940473
O O16 0.148705 0.000000 0.000000
O O17 0.913797 0.750000 0.540500
O O18 0.000000 0.982143 0.552788
O O19 0.888468 0.000000 0.500000
#
# Coordination Sequence:
#
# PCOD8280181 Si02
#       6
#    16  16  16  16  16  16
#     4   9  17  30  50  78 108 135 167 212 264 312
#     4  10  20  35  56  82 111 142 178 220 266 316
#     4  10  21  35  51  73 103 136 168 206 253 304
#     4   9  17  32  54  75  96 129 172 212 251 300
#     4  11  22  38  58  79 107 142 181 222 266 318
#     4   9  18  34  55  77 100 129 168 211 252 297
#
# _framework density 18.870573
#
# number of rings (size 3 to 8) (size 9 to 14) (size 15 to 20)
#    0.000    2.333    0.000    3.500    0.000    7.000 
#    0.000    2.500    0.000    7.000    0.000    0.000 
#    0.000    0.000    0.000    0.000    0.000    0.000 
#
# Total GULP energy -595295.449986 kJ/mol
# GULP energy per Si atom -12401.988541 kJ/mol
# Density = 1.882762 g / cm^3
# Si number density = 18.870573 Si / 1000 Ang^3
#
#
#
# Elastic Constant Matrix: (Units=GPa)
#
#
# Indices 1 2 3 4 5 6 
#
# 1 68.4330 32.8046 63.7331 0.0000 0.0000 0.0000
# 2 32.8046 92.7266 58.5662 0.0000 0.0000 0.0000
# 3 63.7331 58.5662 170.9639 0.0000 0.0000 0.0000
# 4 0.0000 0.0000 0.0000 35.4611 0.0000 0.0000
# 5 0.0000 0.0000 0.0000 0.0000 7.0433 0.0000
# 6 0.0000 0.0000 0.0000 0.0000 0.0000 27.6147
#
#
#
# Elastic Compliance Matrix: (Units=1/GPa)
#
#
# Indices 1 2 3 4 5 6 
#
# 1 0.023246 -0.003510 -0.007464 0.000000 0.000000 0.000000
# 2 -0.003510 0.014292 -0.003587 0.000000 0.000000 0.000000
# 3 -0.007464 -0.003587 0.009860 0.000000 0.000000 0.000000
# 4 0.000000 0.000000 0.000000 0.028200 0.000000 0.000000
# 5 0.000000 0.000000 0.000000 0.000000 0.141978 0.000000
# 6 0.000000 0.000000 0.000000 0.000000 0.000000 0.036213
#
#
# Mechanical properties :
#
#
# Convention : Reuss Voigt Hill
#
# Bulk Modulus (GPa) = 54.71432 71.37013 63.04223
# Shear Modulus (GPa) = 17.30080 25.82512 21.56296
#
# Velocity S-wave (km/s) = 3.03118 3.70339 3.38402
# Velocity P-wave (km/s) = 6.42714 7.49598 6.98205
#
# Compressibility (1/GPa) = 0.01827675
#
# Stress axis : x y z
#
# Youngs Moduli (GPa) = 43.01738 69.96921 101.41562
#
# Poissons Ratio (x) = 0.24560 0.75692
# Poissons Ratio (y) = 0.15100 0.36382
# Poissons Ratio (z) = 0.32106 0.25101
#
# Static dielectric constant tensor:
#      x y z
#    x 3.220380 0.000000 0.000000 
#    y 0.000000 3.473580 0.000000 
#    z 0.000000 0.000000 3.699250 
# 
# 
# High freq. dielectric constant tensor:
#      x y z
#    x 1.705830 0.000000 0.000000 
#    y 0.000000 1.734240 0.000000 
#    z 0.000000 0.000000 1.749990 
# 
# From -- ./inp_files/43518.got.cif
#   From: 2010.03.12/outbox.cif.g09.slc.cpg/sg67_22_cif.got.tgz:43518.got - 2010.04.10 22:41:39.
