data_PCOD8280493
_publ_section_title
;
Structure prediction by ZEFSAII (Michael W. Deem and Ramdas Pophale) SiO2 
 PCOD8280493
Probable space group: C M M A
;
_chemical_formula_sum "Si O2"
_cell_formula_units_Z 96
_cell_length_a 15.393480
_cell_length_b 18.773055
_cell_length_c 16.402096
_cell_angle_alpha 90.000000
_cell_angle_beta 90.000000
_cell_angle_gamma 90.000000
_cell_volume 4739.921113
_symmetry_space_group_name_H-M "C M M A"
_symmetry_group_IT_number 67
_symmetry_cell_setting 'orthorhombic'
loop_
_space_group_symop_operation_xyz
x,y,z
-x,1/2-y,z
x,-y,-z
-x,1/2+y,-z
-x,-y,-z
x,1/2+y,-z
-x,y,z
x,1/2-y,z
1/2+x,1/2+y,z
1/2-x,-y,z
1/2+x,1/2-y,-z
1/2-x,y,-z
1/2-x,1/2-y,-z
1/2+x,y,-z
1/2-x,1/2+y,z
1/2+x,-y,z
loop_
_atom_site_type_symbol
_atom_site_label
_atom_site_fract_x
_atom_site_fract_y
_atom_site_fract_z
Si Si1 0.849336 0.076019 0.981592
Si Si2 0.400191 0.171759 0.873735
Si Si3 0.746283 0.916235 0.408524
Si Si4 0.596978 0.831391 0.663906
Si Si5 0.404362 0.929280 0.805556
Si Si6 0.604090 0.075104 0.724432
O O1 0.851597 0.090910 0.885685
O O2 0.750000 0.071882 0.000000
O O3 0.891775 0.136747 0.037084
O O4 0.894972 0.000000 0.000000
O O5 0.500000 0.182239 0.854488
O O6 0.354770 0.250000 0.873867
O O7 0.363380 0.123586 0.800142
O O8 0.750000 0.884573 0.500000
O O9 0.834455 0.884158 0.374562
O O10 0.659709 0.897989 0.354628
O O11 0.750000 0.000000 0.412199
O O12 0.500000 0.840640 0.624817
O O13 0.628238 0.750000 0.657456
O O14 0.592281 0.855073 0.757642
O O15 0.500000 0.954217 0.833320
O O16 0.367400 0.994601 0.750100
O O17 0.500000 0.080431 0.705241
#
# Coordination Sequence:
#
# PCOD8280493 Si02
#       6
#    16  16  16  16  16  16
#     4  11  23  34  54  87 122 160 205 258 306 364
#     4  10  22  39  58  83 118 161 208 258 310 366
#     4  11  24  40  66 100 131 164 208 264 325 391
#     4  10  23  43  66  93 127 167 211 263 323 385
#     4  10  20  37  62  87 116 163 215 259 312 376
#     4  10  21  39  64  91 124 166 213 263 320 386
#
# _framework density 20.253502000000001
#
# number of rings (size 3 to 8) (size 9 to 14) (size 15 to 20)
#    0.000    1.667    3.333    0.500    2.333    3.333 
#    0.000    3.333    0.000    2.000    0.000    0.000 
#    0.000    0.000    0.000    0.000    0.000    0.000 
#
# Total GULP energy -594690.192678 kJ/mol
# GULP energy per Si atom -12389.379014 kJ/mol
# Density = 2.020740 g / cm^3
# Si number density = 20.253502 Si / 1000 Ang^3
#
#
#
# Elastic Constant Matrix: (Units=GPa)
#
#
# Indices 1 2 3 4 5 6 
#
# 1 81.6492 27.9197 53.9439 0.0000 0.0000 0.0000
# 2 27.9197 111.3818 32.2864 0.0000 0.0000 0.0000
# 3 53.9439 32.2864 136.9291 0.0000 0.0000 0.0000
# 4 0.0000 0.0000 0.0000 7.5071 0.0000 0.0000
# 5 0.0000 0.0000 0.0000 0.0000 23.7504 0.0000
# 6 0.0000 0.0000 0.0000 0.0000 0.0000 23.9518
#
#
#
# Elastic Compliance Matrix: (Units=1/GPa)
#
#
# Indices 1 2 3 4 5 6 
#
# 1 0.017191 -0.002518 -0.006179 0.000000 0.000000 0.000000
# 2 -0.002518 0.010006 -0.001367 0.000000 0.000000 0.000000
# 3 -0.006179 -0.001367 0.010060 0.000000 0.000000 0.000000
# 4 0.000000 0.000000 0.000000 0.133208 0.000000 0.000000
# 5 0.000000 0.000000 0.000000 0.000000 0.042105 0.000000
# 6 0.000000 0.000000 0.000000 0.000000 0.000000 0.041751
#
#
# Mechanical properties :
#
#
# Convention : Reuss Voigt Hill
#
# Bulk Modulus (GPa) = 58.38401 62.02889 60.20645
# Shear Modulus (GPa) = 17.84719 25.42918 21.63819
#
# Velocity S-wave (km/s) = 2.97171 3.54721 3.27214
# Velocity P-wave (km/s) = 6.37683 6.88982 6.63828
#
# Compressibility (1/GPa) = 0.01712798
#
# Stress axis : x y z
#
# Youngs Moduli (GPa) = 58.17123 99.94351 99.40848
#
# Poissons Ratio (x) = 0.25167 0.61420
# Poissons Ratio (y) = 0.14648 0.13591
# Poissons Ratio (z) = 0.35942 0.13664
#
# Static dielectric constant tensor:
#      x y z
#    x 3.639690 0.000000 0.000000 
#    y 0.000000 4.063660 0.000000 
#    z 0.000000 0.000000 4.006090 
# 
# 
# High freq. dielectric constant tensor:
#      x y z
#    x 1.788720 0.000000 0.000000 
#    y 0.000000 1.786050 0.000000 
#    z 0.000000 0.000000 1.785660 
# 
# From -- ./inp_files/27132.got.cif
#   From: 2010.03.12/outbox.cif.g09.slc.cpg/sg67_14_cif.got.tgz:27132.got - 2010.04.10 22:41:39.
