data_PCOD8280948
_publ_section_title
;
Structure prediction by ZEFSAII (Michael W. Deem and Ramdas Pophale) SiO2 
 PCOD8280948
Probable space group: C M M A
;
_chemical_formula_sum "Si O2"
_cell_formula_units_Z 96
_cell_length_a 23.508235
_cell_length_b 15.200912
_cell_length_c 13.400958
_cell_angle_alpha 90.000000
_cell_angle_beta 90.000000
_cell_angle_gamma 90.000000
_cell_volume 4788.786932
_symmetry_space_group_name_H-M "C M M A"
_symmetry_group_IT_number 67
_symmetry_cell_setting 'orthorhombic'
loop_
_space_group_symop_operation_xyz
x,y,z
-x,1/2-y,z
x,-y,-z
-x,1/2+y,-z
-x,-y,-z
x,1/2+y,-z
-x,y,z
x,1/2-y,z
1/2+x,1/2+y,z
1/2-x,-y,z
1/2+x,1/2-y,-z
1/2-x,y,-z
1/2-x,1/2-y,-z
1/2+x,y,-z
1/2-x,1/2+y,z
1/2+x,-y,z
loop_
_atom_site_type_symbol
_atom_site_label
_atom_site_fract_x
_atom_site_fract_y
_atom_site_fract_z
Si Si1 0.567819 0.574983 0.075831
Si Si2 0.063389 0.250000 0.753860
Si Si3 0.348126 0.083116 0.751309
Si Si4 0.666006 0.750000 0.387727
Si Si5 0.298904 0.250000 0.411940
Si Si6 0.246717 0.853198 0.115109
Si Si7 0.436990 0.250000 0.012536
Si Si8 0.343078 0.611998 0.728947
O O1 0.500000 0.572388 0.086627
O O2 0.594277 0.569533 0.185381
O O3 0.594073 0.663814 0.028424
O O4 0.588549 0.500000 0.000000
O O5 0.095568 0.339906 0.723840
O O6 0.000000 0.250000 0.706485
O O7 0.058889 0.250000 0.871003
O O8 0.353231 0.163345 0.672734
O O9 0.294656 0.094909 0.823776
O O10 0.343889 0.989712 0.694582
O O11 0.647957 0.750000 0.504816
O O12 0.731035 0.750000 0.428144
O O13 0.303076 0.338826 0.348445
O O14 0.258942 0.750000 0.126794
O O15 0.184808 0.877221 0.160362
O O16 0.250000 0.882804 0.000000
O O17 0.500000 0.250000 0.965900
#
# Coordination Sequence:
#
# PCOD8280948 Si02
#       8
#    16   8  16   8   8  16   8  16
#     4  10  22  37  54  84 124 167 210 248 290 358
#     4  10  21  38  60  85 118 164 210 258 305 353
#     4  12  23  36  61  89 123 161 211 248 311 379
#     4  11  23  42  63  87 118 160 200 263 323 386
#     4  10  22  44  63  84 120 150 204 267 329 382
#     4  11  23  37  56  84 130 172 206 244 313 380
#     4   9  18  32  51  72 107 156 201 233 274 330
#     4  11  22  39  60  89 119 154 205 261 309 384
#
# _framework density 20.046831000000001
#
# number of rings (size 3 to 8) (size 9 to 14) (size 15 to 20)
#    0.000    1.333    4.167    2.000    4.667    3.333 
#    0.000    1.667    0.000    4.000    0.000    5.833 
#    0.000    0.000    0.000    0.000    0.000    0.000 
#
# Total GULP energy -594707.171708 kJ/mol
# GULP energy per Si atom -12389.732744 kJ/mol
# Density = 2.000120 g / cm^3
# Si number density = 20.046831 Si / 1000 Ang^3
#
#
#
# Elastic Constant Matrix: (Units=GPa)
#
#
# Indices 1 2 3 4 5 6 
#
# 1 67.9297 20.1759 7.6678 0.0000 0.0000 0.0000
# 2 20.1759 181.1325 40.9633 0.0000 0.0000 0.0000
# 3 7.6678 40.9633 80.9979 0.0000 0.0000 0.0000
# 4 0.0000 0.0000 0.0000 12.2357 0.0000 0.0000
# 5 0.0000 0.0000 0.0000 0.0000 17.0692 0.0000
# 6 0.0000 0.0000 0.0000 0.0000 0.0000 15.5498
#
#
#
# Elastic Compliance Matrix: (Units=1/GPa)
#
#
# Indices 1 2 3 4 5 6 
#
# 1 0.015256 -0.001550 -0.000660 0.000000 0.000000 0.000000
# 2 -0.001550 0.006391 -0.003086 0.000000 0.000000 0.000000
# 3 -0.000660 -0.003086 0.013969 0.000000 0.000000 0.000000
# 4 0.000000 0.000000 0.000000 0.081728 0.000000 0.000000
# 5 0.000000 0.000000 0.000000 0.000000 0.058585 0.000000
# 6 0.000000 0.000000 0.000000 0.000000 0.000000 0.064309
#
#
# Mechanical properties :
#
#
# Convention : Reuss Voigt Hill
#
# Bulk Modulus (GPa) = 39.96087 51.96379 45.96233
# Shear Modulus (GPa) = 19.29221 26.38781 22.84001
#
# Velocity S-wave (km/s) = 3.10555 3.63203 3.37906
# Velocity P-wave (km/s) = 5.73030 6.60048 6.18072
#
# Compressibility (1/GPa) = 0.02502448
#
# Stress axis : x y z
#
# Youngs Moduli (GPa) = 65.54792 156.46341 71.58717
#
# Poissons Ratio (x) = 0.24252 0.04727
# Poissons Ratio (y) = 0.10160 0.22089
# Poissons Ratio (z) = 0.04328 0.48278
#
# Static dielectric constant tensor:
#      x y z
#    x 3.769520 0.000000 0.000000 
#    y 0.000000 3.819710 0.000000 
#    z 0.000000 0.000000 3.619840 
# 
# 
# High freq. dielectric constant tensor:
#      x y z
#    x 1.768450 0.000000 0.000000 
#    y 0.000000 1.797710 0.000000 
#    z 0.000000 0.000000 1.763190 
# 
# From -- ./inp_files/30110.got.cif
#   From: 2010.03.12/outbox.cif.g09.slc.cpg/sg67_16_cif.got.tgz:30110.got - 2010.04.10 22:41:39.
