data_PCOD8280544
_publ_section_title
;
Structure prediction by ZEFSAII (Michael W. Deem and Ramdas Pophale) SiO2 
 PCOD8280544
Probable space group: C M M A
;
_chemical_formula_sum "Si O2"
_cell_formula_units_Z 96
_cell_length_a 26.202509
_cell_length_b 18.358008
_cell_length_c 9.890626
_cell_angle_alpha 90.000000
_cell_angle_beta 90.000000
_cell_angle_gamma 90.000000
_cell_volume 4757.646975
_symmetry_space_group_name_H-M "C M M A"
_symmetry_group_IT_number 67
_symmetry_cell_setting 'orthorhombic'
loop_
_space_group_symop_operation_xyz
x,y,z
-x,1/2-y,z
x,-y,-z
-x,1/2+y,-z
-x,-y,-z
x,1/2+y,-z
-x,y,z
x,1/2-y,z
1/2+x,1/2+y,z
1/2-x,-y,z
1/2+x,1/2-y,-z
1/2-x,y,-z
1/2-x,1/2-y,-z
1/2+x,y,-z
1/2-x,1/2+y,z
1/2+x,-y,z
loop_
_atom_site_type_symbol
_atom_site_label
_atom_site_fract_x
_atom_site_fract_y
_atom_site_fract_z
Si Si1 0.382854 0.600152 0.281272
Si Si2 0.559029 0.331069 0.486206
Si Si3 0.618644 0.080398 0.022735
Si Si4 0.721484 0.166518 0.634714
Si Si5 0.288723 0.167653 0.108515
Si Si6 0.559536 0.951617 0.727895
O O1 0.414101 0.656910 0.370503
O O2 0.323605 0.610842 0.323244
O O3 0.403868 0.519047 0.310766
O O4 0.391874 0.618480 0.122230
O O5 0.500000 0.340859 0.514861
O O6 0.572213 0.250000 0.433772
O O7 0.577001 0.387258 0.371761
O O8 0.658774 0.124654 0.110488
O O9 0.567937 0.073761 0.116276
O O10 0.641580 0.000000 0.000000
O O11 0.700774 0.250000 0.620454
O O12 0.750000 0.139733 0.500000
O O13 0.765580 0.163020 0.744328
O O14 0.300852 0.250000 0.063782
O O15 0.250000 0.132444 0.000000
O O16 0.500000 0.972596 0.709620
#
# Coordination Sequence:
#
# PCOD8280544 Si02
#       6
#    16  16  16  16  16  16
#     4  11  21  38  63  93 121 162 206 251 309 373
#     4  10  22  40  63  89 119 159 205 256 311 368
#     4  10  23  39  61  92 122 163 207 256 305 368
#     4  10  22  39  60  91 127 164 205 257 309 364
#     4  10  20  38  62  87 121 164 205 250 312 370
#     4  10  23  43  65  91 127 165 205 258 320 378
#
# _framework density 20.178041
#
# number of rings (size 3 to 8) (size 9 to 14) (size 15 to 20)
#    0.000    1.833    1.667    1.500    2.333    6.667 
#    0.000    0.000    0.000    2.000    0.000    0.000 
#    0.000    0.000    0.000    0.000    0.000    0.000 
#
# Total GULP energy -595115.408567 kJ/mol
# GULP energy per Si atom -12398.237678 kJ/mol
# Density = 2.013212 g / cm^3
# Si number density = 20.178041 Si / 1000 Ang^3
#
#
#
# Elastic Constant Matrix: (Units=GPa)
#
#
# Indices 1 2 3 4 5 6 
#
# 1 84.7953 62.1521 43.0275 0.0000 0.0000 0.0000
# 2 62.1521 85.4169 37.7207 0.0000 0.0000 0.0000
# 3 43.0275 37.7207 123.7095 0.0000 0.0000 0.0000
# 4 0.0000 0.0000 0.0000 26.0116 0.0000 0.0000
# 5 0.0000 0.0000 0.0000 0.0000 34.9636 0.0000
# 6 0.0000 0.0000 0.0000 0.0000 0.0000 33.6446
#
#
#
# Elastic Compliance Matrix: (Units=1/GPa)
#
#
# Indices 1 2 3 4 5 6 
#
# 1 0.026807 -0.017783 -0.003902 0.000000 0.000000 0.000000
# 2 -0.017783 0.025325 -0.001537 0.000000 0.000000 0.000000
# 3 -0.003902 -0.001537 0.009909 0.000000 0.000000 0.000000
# 4 0.000000 0.000000 0.000000 0.038444 0.000000 0.000000
# 5 0.000000 0.000000 0.000000 0.000000 0.028601 0.000000
# 6 0.000000 0.000000 0.000000 0.000000 0.000000 0.029722
#
#
# Mechanical properties :
#
#
# Convention : Reuss Voigt Hill
#
# Bulk Modulus (GPa) = 64.10725 64.41359 64.26042
# Shear Modulus (GPa) = 23.75847 28.99206 26.37527
#
# Velocity S-wave (km/s) = 3.43511 3.79464 3.61934
# Velocity P-wave (km/s) = 6.89732 7.15479 7.02724
#
# Compressibility (1/GPa) = 0.01559886
#
# Stress axis : x y z
#
# Youngs Moduli (GPa) = 37.30382 39.48632 100.91707
#
# Poissons Ratio (x) = 0.70217 0.39374
# Poissons Ratio (y) = 0.66336 0.15511
# Poissons Ratio (z) = 0.14554 0.06069
#
# Static dielectric constant tensor:
#      x y z
#    x 3.540410 0.000000 0.000000 
#    y 0.000000 3.772400 0.000000 
#    z 0.000000 0.000000 3.882650 
# 
# 
# High freq. dielectric constant tensor:
#      x y z
#    x 1.780460 0.000000 0.000000 
#    y 0.000000 1.779170 0.000000 
#    z 0.000000 0.000000 1.802710 
# 
# From -- ./inp_files/13739.got.cif
#   From: 2010.03.12/outbox.cif.g09.slc.cpg/sg67_7_cif.got.tgz:13739.got - 2010.04.10 22:41:39.
