data_PCOD8280841
_publ_section_title
;
Structure prediction by ZEFSAII (Michael W. Deem and Ramdas Pophale) SiO2 
 PCOD8280841
Probable space group: C M M A
;
_chemical_formula_sum "Si O2"
_cell_formula_units_Z 104
_cell_length_a 9.431214
_cell_length_b 25.728708
_cell_length_c 22.486683
_cell_angle_alpha 90.000000
_cell_angle_beta 90.000000
_cell_angle_gamma 90.000000
_cell_volume 5456.459990
_symmetry_space_group_name_H-M "C M M A"
_symmetry_group_IT_number 67
_symmetry_cell_setting 'orthorhombic'
loop_
_space_group_symop_operation_xyz
x,y,z
-x,1/2-y,z
x,-y,-z
-x,1/2+y,-z
-x,-y,-z
x,1/2+y,-z
-x,y,z
x,1/2-y,z
1/2+x,1/2+y,z
1/2-x,-y,z
1/2+x,1/2-y,-z
1/2-x,y,-z
1/2-x,1/2-y,-z
1/2+x,y,-z
1/2-x,1/2+y,z
1/2+x,-y,z
loop_
_atom_site_type_symbol
_atom_site_label
_atom_site_fract_x
_atom_site_fract_y
_atom_site_fract_z
Si Si1 0.000000 0.191362 0.422588
Si Si2 0.500000 0.813281 0.554823
Si Si3 0.732845 0.653891 0.641627
Si Si4 0.326445 0.750000 0.937055
Si Si5 0.661533 0.451445 0.840012
Si Si6 0.834987 0.161160 0.132277
Si Si7 0.831464 0.051263 0.297311
Si Si8 0.346179 0.809256 0.765838
O O1 0.000000 0.164324 0.487289
O O2 0.874696 0.179528 0.379009
O O3 0.000000 0.250000 0.442652
O O4 0.500000 0.750000 0.561431
O O5 0.367259 0.840922 0.585089
O O6 0.759798 0.595313 0.662597
O O7 0.670762 0.687291 0.695528
O O8 0.500000 0.750000 0.940956
O O9 0.270755 0.697298 0.905658
O O10 0.250000 0.750000 0.000000
O O11 0.500000 0.469559 0.842205
O O12 0.750000 0.500000 0.865618
O O13 0.683833 0.400368 0.881997
O O14 0.703703 0.438248 0.772019
O O15 0.787198 0.164799 0.201055
O O16 0.000000 0.178233 0.124976
O O17 0.000000 0.047220 0.308812
O O18 0.750000 0.000000 0.318448
O O19 0.500000 0.834050 0.783687
O O20 0.348597 0.750000 0.786408
#
# Coordination Sequence:
#
# PCOD8280841 Si02
#       8
#     8   8  16   8  16  16  16  16
#     4  11  24  40  61  83 111 153 202 250 308 374
#     4  11  24  42  59  83 113 155 202 248 304 380
#     4  12  22  38  59  84 116 153 198 254 310 378
#     4  12  26  46  68  96 134 182 225 254 301 362
#     4   9  19  35  55  85 124 163 204 251 311 373
#     4  11  22  38  61  92 129 169 207 263 307 360
#     4  10  21  37  57  85 116 154 199 248 311 378
#     4  11  22  34  52  85 126 159 198 246 311 370
#
# _framework density 19.059975999999999
#
# number of rings (size 3 to 8) (size 9 to 14) (size 15 to 20)
#    0.000    1.231    3.846    3.000    2.154    2.462 
#    0.000    0.000    0.000    3.231    0.000    3.231 
#    0.000    0.000    0.000    0.000    0.000    0.000 
#
# Total GULP energy -644375.273587 kJ/mol
# GULP energy per Si atom -12391.832184 kJ/mol
# Density = 1.901660 g / cm^3
# Si number density = 19.059976 Si / 1000 Ang^3
#
#
#
# Elastic Constant Matrix: (Units=GPa)
#
#
# Indices 1 2 3 4 5 6 
#
# 1 130.7612 55.3365 28.4436 0.0000 0.0000 0.0000
# 2 55.3365 113.7973 30.7509 0.0000 0.0000 0.0000
# 3 28.4436 30.7509 55.9261 0.0000 0.0000 0.0000
# 4 0.0000 0.0000 0.0000 15.6313 0.0000 0.0000
# 5 0.0000 0.0000 0.0000 0.0000 35.4340 0.0000
# 6 0.0000 0.0000 0.0000 0.0000 0.0000 35.5292
#
#
#
# Elastic Compliance Matrix: (Units=1/GPa)
#
#
# Indices 1 2 3 4 5 6 
#
# 1 0.009997 -0.004096 -0.002832 0.000000 0.000000 0.000000
# 2 -0.004096 0.011999 -0.004515 0.000000 0.000000 0.000000
# 3 -0.002832 -0.004515 0.021804 0.000000 0.000000 0.000000
# 4 0.000000 0.000000 0.000000 0.063974 0.000000 0.000000
# 5 0.000000 0.000000 0.000000 0.000000 0.028222 0.000000
# 6 0.000000 0.000000 0.000000 0.000000 0.000000 0.028146
#
#
# Mechanical properties :
#
#
# Convention : Reuss Voigt Hill
#
# Bulk Modulus (GPa) = 47.81439 58.83851 53.32645
# Shear Modulus (GPa) = 25.77345 29.71581 27.74463
#
# Velocity S-wave (km/s) = 3.68126 3.95279 3.81944
# Velocity P-wave (km/s) = 6.57340 7.19513 6.89128
#
# Compressibility (1/GPa) = 0.02091420
#
# Stress axis : x y z
#
# Youngs Moduli (GPa) = 100.03063 83.33863 45.86408
#
# Poissons Ratio (x) = 0.34135 0.12990
# Poissons Ratio (y) = 0.40971 0.20706
# Poissons Ratio (z) = 0.28331 0.37624
#
# Static dielectric constant tensor:
#      x y z
#    x 3.644380 0.000000 0.000000 
#    y 0.000000 3.537100 0.000000 
#    z 0.000000 0.000000 3.383550 
# 
# 
# High freq. dielectric constant tensor:
#      x y z
#    x 1.759440 0.000000 0.000000 
#    y 0.000000 1.738670 0.000000 
#    z 0.000000 0.000000 1.715250 
# 
# From -- ./inp_files/37364.got.cif
#   From: 2010.03.12/outbox.cif.g09.slc.cpg/sg67_19_cif.got.tgz:37364.got - 2010.04.10 22:41:39.
