data_PCOD8280042
_publ_section_title
;
Structure prediction by ZEFSAII (Michael W. Deem and Ramdas Pophale) SiO2 
 PCOD8280042
Probable space group: C M M A
;
_chemical_formula_sum "Si O2"
_cell_formula_units_Z 72
_cell_length_a 8.802416
_cell_length_b 32.121497
_cell_length_c 13.428474
_cell_angle_alpha 90.000000
_cell_angle_beta 90.000000
_cell_angle_gamma 90.000000
_cell_volume 3796.857772
_symmetry_space_group_name_H-M "C M M A"
_symmetry_group_IT_number 67
_symmetry_cell_setting 'orthorhombic'
loop_
_space_group_symop_operation_xyz
x,y,z
-x,1/2-y,z
x,-y,-z
-x,1/2+y,-z
-x,-y,-z
x,1/2+y,-z
-x,y,z
x,1/2-y,z
1/2+x,1/2+y,z
1/2-x,-y,z
1/2+x,1/2-y,-z
1/2-x,y,-z
1/2-x,1/2-y,-z
1/2+x,y,-z
1/2-x,1/2+y,z
1/2+x,-y,z
loop_
_atom_site_type_symbol
_atom_site_label
_atom_site_fract_x
_atom_site_fract_y
_atom_site_fract_z
Si Si1 0.820640 0.665563 0.211964
Si Si2 0.819586 0.375516 0.396663
Si Si3 0.678731 0.250000 0.107878
Si Si4 0.176155 0.083503 0.897607
Si Si5 0.319904 0.543703 0.693972
O O1 0.730470 0.657770 0.313665
O O2 0.767429 0.709674 0.168860
O O3 0.774594 0.630364 0.131645
O O4 0.000000 0.663522 0.234800
O O5 0.750000 0.359373 0.500000
O O6 0.752416 0.421061 0.374928
O O7 0.000000 0.377926 0.402463
O O8 0.500000 0.250000 0.093601
O O9 0.750000 0.250000 0.000000
O O10 0.224322 0.052412 0.808971
O O11 0.000000 0.081423 0.916627
O O12 0.250000 0.068776 0.000000
O O13 0.500000 0.544059 0.678178
O O14 0.250000 0.500000 0.660590
#
# Coordination Sequence:
#
# PCOD8280042 Si02
#       5
#    16  16   8  16  16
#     4   9  19  36  54  79 112 145 181 224 268 316
#     4  11  22  38  60  82 105 139 178 222 273 326
#     4  10  20  34  57  86 119 152 183 222 268 316
#     4   9  18  31  49  72 104 142 180 219 262 313
#     4  10  21  37  54  78 109 140 178 225 270 319
#
# _framework density 18.963049000000002
#
# number of rings (size 3 to 8) (size 9 to 14) (size 15 to 20)
#    0.000    2.222    0.000    4.667    0.000    6.222 
#    0.000    5.000    0.000    0.000    0.000    0.000 
#    0.000    0.000    0.000    0.000    0.000    0.000 
#
# Total GULP energy -446471.748118 kJ/mol
# GULP energy per Si atom -12401.993003 kJ/mol
# Density = 1.891989 g / cm^3
# Si number density = 18.963049 Si / 1000 Ang^3
#
#
#
# Elastic Constant Matrix: (Units=GPa)
#
#
# Indices 1 2 3 4 5 6 
#
# 1 81.8872 31.9836 41.8524 0.0000 0.0000 0.0000
# 2 31.9836 110.6203 30.3174 0.0000 0.0000 0.0000
# 3 41.8524 30.3174 110.1733 0.0000 0.0000 0.0000
# 4 0.0000 0.0000 0.0000 56.6718 0.0000 0.0000
# 5 0.0000 0.0000 0.0000 0.0000 37.0188 0.0000
# 6 0.0000 0.0000 0.0000 0.0000 0.0000 23.4758
#
#
#
# Elastic Compliance Matrix: (Units=1/GPa)
#
#
# Indices 1 2 3 4 5 6 
#
# 1 0.016157 -0.003233 -0.005248 0.000000 0.000000 0.000000
# 2 -0.003233 0.010424 -0.001640 0.000000 0.000000 0.000000
# 3 -0.005248 -0.001640 0.011522 0.000000 0.000000 0.000000
# 4 0.000000 0.000000 0.000000 0.017645 0.000000 0.000000
# 5 0.000000 0.000000 0.000000 0.000000 0.027013 0.000000
# 6 0.000000 0.000000 0.000000 0.000000 0.000000 0.042597
#
#
# Mechanical properties :
#
#
# Convention : Reuss Voigt Hill
#
# Bulk Modulus (GPa) = 55.99138 56.77640 56.38389
# Shear Modulus (GPa) = 32.99134 36.66844 34.82989
#
# Velocity S-wave (km/s) = 4.17558 4.40213 4.29035
# Velocity P-wave (km/s) = 7.26897 7.47288 7.37163
#
# Compressibility (1/GPa) = 0.01785989
#
# Stress axis : x y z
#
# Youngs Moduli (GPa) = 61.89285 95.92965 86.79368
#
# Poissons Ratio (x) = 0.31016 0.45549
# Poissons Ratio (y) = 0.20011 0.14237
# Poissons Ratio (z) = 0.32481 0.15736
#
# Static dielectric constant tensor:
#      x y z
#    x 3.406490 0.000000 0.000000 
#    y 0.000000 3.502490 0.000000 
#    z 0.000000 0.000000 3.710780 
# 
# 
# High freq. dielectric constant tensor:
#      x y z
#    x 1.737140 0.000000 0.000000 
#    y 0.000000 1.729290 0.000000 
#    z 0.000000 0.000000 1.741260 
# 
# From -- ./inp_files/25291.got.cif
#   From: 2010.03.12/outbox.cif.g09.slc.cpg/sg67_13_cif.got.tgz:25291.got - 2010.04.10 22:41:39.
