data_PCOD8280410
_publ_section_title
;
Structure prediction by ZEFSAII (Michael W. Deem and Ramdas Pophale) SiO2 
 PCOD8280410
Probable space group: C M M A
;
_chemical_formula_sum "Si O2"
_cell_formula_units_Z 104
_cell_length_a 27.423730
_cell_length_b 9.054678
_cell_length_c 20.831853
_cell_angle_alpha 90.000000
_cell_angle_beta 90.000000
_cell_angle_gamma 90.000000
_cell_volume 5172.820845
_symmetry_space_group_name_H-M "C M M A"
_symmetry_group_IT_number 67
_symmetry_cell_setting 'orthorhombic'
loop_
_space_group_symop_operation_xyz
x,y,z
-x,1/2-y,z
x,-y,-z
-x,1/2+y,-z
-x,-y,-z
x,1/2+y,-z
-x,y,z
x,1/2-y,z
1/2+x,1/2+y,z
1/2-x,-y,z
1/2+x,1/2-y,-z
1/2-x,y,-z
1/2-x,1/2-y,-z
1/2+x,y,-z
1/2-x,1/2+y,z
1/2+x,-y,z
loop_
_atom_site_type_symbol
_atom_site_label
_atom_site_fract_x
_atom_site_fract_y
_atom_site_fract_z
Si Si1 0.124603 0.000000 0.000000
Si Si2 0.132854 0.077382 0.663696
Si Si3 0.555716 0.414435 0.109778
Si Si4 0.197573 0.072681 0.437269
Si Si5 0.125260 0.574867 0.799099
Si Si6 0.445706 0.419588 0.438915
Si Si7 0.298516 0.912024 0.098463
O O1 0.161339 0.900237 0.958075
O O2 0.088829 0.092926 0.954256
O O3 0.148197 0.250000 0.664097
O O4 0.082367 0.051595 0.626878
O O5 0.172455 0.976857 0.628354
O O6 0.126171 0.018161 0.734694
O O7 0.500000 0.461364 0.093334
O O8 0.556586 0.250000 0.139736
O O9 0.577148 0.530084 0.160983
O O10 0.199433 0.250000 0.442935
O O11 0.170999 0.000000 0.500000
O O12 0.250000 0.000000 0.434418
O O13 0.123640 0.750000 0.786272
O O14 0.173974 0.526942 0.838206
O O15 0.421209 0.500000 0.500000
O O16 0.500000 0.481609 0.427347
O O17 0.445873 0.250000 0.457660
O O18 0.278829 0.750000 0.112807
O O19 0.250000 0.000000 0.079724
#
# Coordination Sequence:
#
# PCOD8280410 Si02
#       7
#     8  16  16  16  16  16  16
#     4  10  20  36  60  90 120 146 184 230 280 338
#     4  11  22  37  59  85 114 151 193 239 292 347
#     4  10  21  38  61  87 116 152 191 233 284 340
#     4  11  22  38  59  85 117 151 192 241 295 353
#     4  10  23  41  57  80 114 151 194 240 284 339
#     4   9  19  35  55  81 112 145 183 228 278 335
#     4  10  22  38  58  83 113 148 185 228 278 332
#
# _framework density 20.105083
#
# number of rings (size 3 to 8) (size 9 to 14) (size 15 to 20)
#    0.000    1.846    0.000    4.154    0.000    8.923 
#    0.000    3.077    0.000    0.000    0.000    0.000 
#    0.000    0.000    0.000    0.000    0.000    0.000 
#
# Total GULP energy -644522.910936 kJ/mol
# GULP energy per Si atom -12394.671364 kJ/mol
# Density = 2.005932 g / cm^3
# Si number density = 20.105083 Si / 1000 Ang^3
#
#
#
# Elastic Constant Matrix: (Units=GPa)
#
#
# Indices 1 2 3 4 5 6 
#
# 1 126.2493 51.2102 54.0169 0.0000 0.0000 0.0000
# 2 51.2102 115.1993 50.0249 0.0000 0.0000 0.0000
# 3 54.0169 50.0249 136.4632 0.0000 0.0000 0.0000
# 4 0.0000 0.0000 0.0000 31.5347 0.0000 0.0000
# 5 0.0000 0.0000 0.0000 0.0000 22.4310 0.0000
# 6 0.0000 0.0000 0.0000 0.0000 0.0000 26.2069
#
#
#
# Elastic Compliance Matrix: (Units=1/GPa)
#
#
# Indices 1 2 3 4 5 6 
#
# 1 0.010562 -0.003425 -0.002925 0.000000 0.000000 0.000000
# 2 -0.003425 0.011435 -0.002836 0.000000 0.000000 0.000000
# 3 -0.002925 -0.002836 0.009526 0.000000 0.000000 0.000000
# 4 0.000000 0.000000 0.000000 0.031711 0.000000 0.000000
# 5 0.000000 0.000000 0.000000 0.000000 0.044581 0.000000
# 6 0.000000 0.000000 0.000000 0.000000 0.000000 0.038158
#
#
# Mechanical properties :
#
#
# Convention : Reuss Voigt Hill
#
# Bulk Modulus (GPa) = 76.04755 76.49064 76.26909
# Shear Modulus (GPa) = 29.63363 30.87849 30.25606
#
# Velocity S-wave (km/s) = 3.84335 3.92325 3.88351
# Velocity P-wave (km/s) = 7.58962 7.65836 7.62407
#
# Compressibility (1/GPa) = 0.01314967
#
# Stress axis : x y z
#
# Youngs Moduli (GPa) = 94.68282 87.45401 104.98106
#
# Poissons Ratio (x) = 0.29951 0.30709
# Poissons Ratio (y) = 0.32426 0.29773
# Poissons Ratio (z) = 0.27697 0.24803
#
# Static dielectric constant tensor:
#      x y z
#    x 3.849040 0.000000 0.000000 
#    y 0.000000 3.657990 0.000000 
#    z 0.000000 0.000000 3.795310 
# 
# 
# High freq. dielectric constant tensor:
#      x y z
#    x 1.792110 0.000000 0.000000 
#    y 0.000000 1.786260 0.000000 
#    z 0.000000 0.000000 1.783250 
# 
# From -- ./inp_files/39977.got.cif
#   From: 2010.03.12/outbox.cif.g09.slc.cpg/sg67_20_cif.got.tgz:39977.got - 2010.04.10 22:41:39.
