data_PCOD8280731
_publ_section_title
;
Structure prediction by ZEFSAII (Michael W. Deem and Ramdas Pophale) SiO2 
 PCOD8280731
Probable space group: C M M A
;
_chemical_formula_sum "Si O2"
_cell_formula_units_Z 68
_cell_length_a 9.071896
_cell_length_b 28.421576
_cell_length_c 14.675097
_cell_angle_alpha 90.000000
_cell_angle_beta 90.000000
_cell_angle_gamma 90.000000
_cell_volume 3783.791521
_symmetry_space_group_name_H-M "C M M A"
_symmetry_group_IT_number 67
_symmetry_cell_setting 'orthorhombic'
loop_
_space_group_symop_operation_xyz
x,y,z
-x,1/2-y,z
x,-y,-z
-x,1/2+y,-z
-x,-y,-z
x,1/2+y,-z
-x,y,z
x,1/2-y,z
1/2+x,1/2+y,z
1/2-x,-y,z
1/2+x,1/2-y,-z
1/2-x,y,-z
1/2-x,1/2-y,-z
1/2+x,y,-z
1/2-x,1/2+y,z
1/2+x,-y,z
loop_
_atom_site_type_symbol
_atom_site_label
_atom_site_fract_x
_atom_site_fract_y
_atom_site_fract_z
Si Si1 0.673615 0.303369 0.903245
Si Si2 0.750000 0.000000 0.500000
Si Si3 0.833770 0.455904 0.320980
Si Si4 0.327222 0.635386 0.754024
Si Si5 0.331018 0.802482 0.583654
O O1 0.500000 0.312992 0.912177
O O2 0.702307 0.250000 0.866009
O O3 0.745059 0.344267 0.841931
O O4 0.750000 0.308776 0.000000
O O5 0.839601 0.035268 0.431745
O O6 0.750000 0.500000 0.274521
O O7 0.743155 0.411358 0.287127
O O8 0.000000 0.451795 0.284588
O O9 0.500000 0.627084 0.774860
O O10 0.299247 0.674167 0.678729
O O11 0.500000 0.803099 0.557642
O O12 0.267367 0.750000 0.593143
O O13 0.250000 0.828877 0.500000
#
# Coordination Sequence:
#
# PCOD8280731 Si02
#       5
#    16   4  16  16  16
#     4  10  21  38  61  88 117 150 189 236 289 343
#     4   8  22  36  58  76 110 148 194 244 290 340
#     4  10  21  36  55  79 110 144 187 236 284 334
#     4  11  22  35  55  82 112 147 189 234 284 339
#     4   9  19  33  47  68 102 143 183 222 266 321
#
# _framework density 17.971392000000002
#
# number of rings (size 3 to 8) (size 9 to 14) (size 15 to 20)
#    0.706    1.412    0.000    3.176    1.647    4.235 
#    0.000    2.353    0.000    0.706    0.000    4.941 
#    0.000    0.000    0.000    0.000    0.000    0.000 
#
# Total GULP energy -421207.899406 kJ/mol
# GULP energy per Si atom -12388.467630 kJ/mol
# Density = 1.793049 g / cm^3
# Si number density = 17.971392 Si / 1000 Ang^3
#
#
#
# Elastic Constant Matrix: (Units=GPa)
#
#
# Indices 1 2 3 4 5 6 
#
# 1 119.6454 68.3034 61.3269 0.0000 0.0000 0.0000
# 2 68.3034 99.4458 45.7071 0.0000 0.0000 0.0000
# 3 61.3269 45.7071 78.2521 0.0000 0.0000 0.0000
# 4 0.0000 0.0000 0.0000 31.3142 0.0000 0.0000
# 5 0.0000 0.0000 0.0000 0.0000 28.1650 0.0000
# 6 0.0000 0.0000 0.0000 0.0000 0.0000 25.5007
#
#
#
# Elastic Compliance Matrix: (Units=1/GPa)
#
#
# Indices 1 2 3 4 5 6 
#
# 1 0.017519 -0.007822 -0.009161 0.000000 0.000000 0.000000
# 2 -0.007822 0.017239 -0.003939 0.000000 0.000000 0.000000
# 3 -0.009161 -0.003939 0.022259 0.000000 0.000000 0.000000
# 4 0.000000 0.000000 0.000000 0.031934 0.000000 0.000000
# 5 0.000000 0.000000 0.000000 0.000000 0.035505 0.000000
# 6 0.000000 0.000000 0.000000 0.000000 0.000000 0.039215
#
#
# Mechanical properties :
#
#
# Convention : Reuss Voigt Hill
#
# Bulk Modulus (GPa) = 65.90532 72.00204 68.95368
# Shear Modulus (GPa) = 23.74466 25.12971 24.43718
#
# Velocity S-wave (km/s) = 3.63884 3.74346 3.69152
# Velocity P-wave (km/s) = 7.37610 7.67049 7.52474
#
# Compressibility (1/GPa) = 0.01517328
#
# Stress axis : x y z
#
# Youngs Moduli (GPa) = 57.07952 58.00868 44.92495
#
# Poissons Ratio (x) = 0.45377 0.41156
# Poissons Ratio (y) = 0.44650 0.17694
# Poissons Ratio (z) = 0.52291 0.22848
#
# Static dielectric constant tensor:
#      x y z
#    x 3.387070 0.000000 0.000000 
#    y 0.000000 2.163550 0.000000 
#    z 0.000000 0.000000 3.161140 
# 
# 
# High freq. dielectric constant tensor:
#      x y z
#    x 1.707780 0.000000 0.000000 
#    y 0.000000 1.690600 0.000000 
#    z 0.000000 0.000000 1.677440 
# 
# From -- ./inp_files/24998.got.cif
#   From: 2010.03.12/outbox.cif.g09.slc.cpg/sg67_13_cif.got.tgz:24998.got - 2010.04.10 22:41:39.
