data_PCOD8280045
_publ_section_title
;
Structure prediction by ZEFSAII (Michael W. Deem and Ramdas Pophale) SiO2 
 PCOD8280045
Probable space group: C M M A
;
_chemical_formula_sum "Si O2"
_cell_formula_units_Z 112
_cell_length_a 14.549240
_cell_length_b 29.814607
_cell_length_c 11.853821
_cell_angle_alpha 90.000000
_cell_angle_beta 90.000000
_cell_angle_gamma 90.000000
_cell_volume 5141.948965
_symmetry_space_group_name_H-M "C M M A"
_symmetry_group_IT_number 67
_symmetry_cell_setting 'orthorhombic'
loop_
_space_group_symop_operation_xyz
x,y,z
-x,1/2-y,z
x,-y,-z
-x,1/2+y,-z
-x,-y,-z
x,1/2+y,-z
-x,y,z
x,1/2-y,z
1/2+x,1/2+y,z
1/2-x,-y,z
1/2+x,1/2-y,-z
1/2-x,y,-z
1/2-x,1/2-y,-z
1/2+x,y,-z
1/2-x,1/2+y,z
1/2+x,-y,z
loop_
_atom_site_type_symbol
_atom_site_label
_atom_site_fract_x
_atom_site_fract_y
_atom_site_fract_z
Si Si1 0.601357 0.561143 0.296242
Si Si2 0.788521 0.329360 0.846985
Si Si3 0.103839 0.199184 0.057562
Si Si4 0.764142 0.070592 0.872442
Si Si5 0.645685 0.114324 0.486945
Si Si6 0.398919 0.199575 0.361835
Si Si7 0.604921 0.038446 0.304638
O O1 0.500000 0.562392 0.242362
O O2 0.668930 0.572849 0.194924
O O3 0.604839 0.596944 0.396431
O O4 0.619091 0.511947 0.352265
O O5 0.677786 0.323768 0.858589
O O6 0.811631 0.380833 0.871953
O O7 0.818282 0.314245 0.723337
O O8 0.850884 0.301309 0.933422
O O9 0.093835 0.250000 0.096387
O O10 0.000000 0.177387 0.061123
O O11 0.835590 0.038094 0.810102
O O12 0.750000 0.053394 0.000000
O O13 0.750000 0.127047 0.500000
O O14 0.596529 0.161356 0.458054
O O15 0.638691 0.075981 0.391502
O O16 0.500000 0.199688 0.303547
O O17 0.378527 0.250000 0.409548
O O18 0.500000 0.048657 0.273944
#
# Coordination Sequence:
#
# PCOD8280045 Si02
#       7
#    16  16  16  16  16  16  16
#     4  11  25  44  68  99 133 174 221 277 340 401
#     4  11  20  38  58  90 129 176 226 273 330 398
#     4  10  20  34  57  88 124 172 231 290 338 389
#     4  12  25  43  64  97 136 179 222 274 334 396
#     4  12  23  42  70 101 134 172 219 278 339 397
#     4  11  23  39  65 100 136 175 219 271 332 402
#     4  11  24  43  70  99 131 174 225 280 335 398
#
# _framework density 21.781624000000001
#
# number of rings (size 3 to 8) (size 9 to 14) (size 15 to 20)
#    0.000    0.857    4.286    4.286    0.000    6.000 
#    0.000    1.429    0.000    0.000    0.000    4.000 
#    0.000    0.000    0.000    0.000    0.000    0.000 
#
# Total GULP energy -694192.288210 kJ/mol
# GULP energy per Si atom -12396.290861 kJ/mol
# Density = 2.173205 g / cm^3
# Si number density = 21.781624 Si / 1000 Ang^3
#
#
#
# Elastic Constant Matrix: (Units=GPa)
#
#
# Indices 1 2 3 4 5 6 
#
# 1 140.0535 22.1408 40.0756 0.0000 0.0000 0.0000
# 2 22.1408 112.2524 35.9641 0.0000 0.0000 0.0000
# 3 40.0756 35.9641 117.4996 0.0000 0.0000 0.0000
# 4 0.0000 0.0000 0.0000 29.0251 0.0000 0.0000
# 5 0.0000 0.0000 0.0000 0.0000 16.9238 0.0000
# 6 0.0000 0.0000 0.0000 0.0000 0.0000 30.0125
#
#
#
# Elastic Compliance Matrix: (Units=1/GPa)
#
#
# Indices 1 2 3 4 5 6 
#
# 1 0.007973 -0.000778 -0.002481 0.000000 0.000000 0.000000
# 2 -0.000778 0.009953 -0.002781 0.000000 0.000000 0.000000
# 3 -0.002481 -0.002781 0.010208 0.000000 0.000000 0.000000
# 4 0.000000 0.000000 0.000000 0.034453 0.000000 0.000000
# 5 0.000000 0.000000 0.000000 0.000000 0.059089 0.000000
# 6 0.000000 0.000000 0.000000 0.000000 0.000000 0.033319
#
#
# Mechanical properties :
#
#
# Convention : Reuss Voigt Hill
#
# Bulk Modulus (GPa) = 62.28994 62.90740 62.59867
# Shear Modulus (GPa) = 28.99782 33.30060 31.14921
#
# Velocity S-wave (km/s) = 3.65265 3.91428 3.78573
# Velocity P-wave (km/s) = 6.81533 7.02655 6.92175
#
# Compressibility (1/GPa) = 0.01605396
#
# Stress axis : x y z
#
# Youngs Moduli (GPa) = 125.42182 100.47301 97.96007
#
# Poissons Ratio (x) = 0.07813 0.24308
# Poissons Ratio (y) = 0.09753 0.27244
# Poissons Ratio (z) = 0.31122 0.27943
#
# Static dielectric constant tensor:
#      x y z
#    x 4.203880 0.000000 0.000000 
#    y 0.000000 4.138150 0.000000 
#    z 0.000000 0.000000 3.740740 
# 
# 
# High freq. dielectric constant tensor:
#      x y z
#    x 1.872010 0.000000 0.000000 
#    y 0.000000 1.868230 0.000000 
#    z 0.000000 0.000000 1.826060 
# 
# From -- ./inp_files/18660.got.cif
#   From: 2010.03.12/outbox.cif.g09.slc.cpg/sg67_10_cif.got.tgz:18660.got - 2010.04.10 22:41:39.
