data_PCOD8280855
_publ_section_title
;
Structure prediction by ZEFSAII (Michael W. Deem and Ramdas Pophale) SiO2 
 PCOD8280855
Probable space group: C M M A
;
_chemical_formula_sum "Si O2"
_cell_formula_units_Z 72
_cell_length_a 8.972268
_cell_length_b 20.564924
_cell_length_c 19.862228
_cell_angle_alpha 90.000000
_cell_angle_beta 90.000000
_cell_angle_gamma 90.000000
_cell_volume 3664.859326
_symmetry_space_group_name_H-M "C M M A"
_symmetry_group_IT_number 67
_symmetry_cell_setting 'orthorhombic'
loop_
_space_group_symop_operation_xyz
x,y,z
-x,1/2-y,z
x,-y,-z
-x,1/2+y,-z
-x,-y,-z
x,1/2+y,-z
-x,y,z
x,1/2-y,z
1/2+x,1/2+y,z
1/2-x,-y,z
1/2+x,1/2-y,-z
1/2-x,y,-z
1/2-x,1/2-y,-z
1/2+x,y,-z
1/2-x,1/2+y,z
1/2+x,-y,z
loop_
_atom_site_type_symbol
_atom_site_label
_atom_site_fract_x
_atom_site_fract_y
_atom_site_fract_z
Si Si1 0.676054 0.674702 0.797047
Si Si2 0.175126 0.564758 0.711883
Si Si3 0.173689 0.250000 0.429855
Si Si4 0.172405 0.610052 0.570245
Si Si5 0.332588 0.327012 0.934500
O O1 0.500000 0.664234 0.797114
O O2 0.717193 0.750000 0.781401
O O3 0.751410 0.629520 0.741474
O O4 0.739175 0.652652 0.869180
O O5 0.250000 0.500000 0.743229
O O6 0.206544 0.561352 0.631348
O O7 0.000000 0.565708 0.728069
O O8 0.250000 0.250000 0.500000
O O9 0.221838 0.319125 0.397719
O O10 0.000000 0.250000 0.440344
O O11 0.250000 0.590151 0.500000
O O12 0.000000 0.610497 0.551470
O O13 0.500000 0.355800 0.929757
O O14 0.340518 0.250000 0.940928
O O15 0.250000 0.356373 0.000000
#
# Coordination Sequence:
#
# PCOD8280855 Si02
#       5
#    16  16   8  16  16
#     4  10  21  37  58  86 117 150 191 237 283 336
#     4  11  24  40  58  80 111 151 191 236 288 343
#     4   8  14  28  48  74 102 128 163 210 267 326
#     4   9  19  34  55  79 105 139 180 229 282 339
#     4   9  16  28  50  82 118 153 188 230 279 328
#
# _framework density 19.646048
#
# number of rings (size 3 to 8) (size 9 to 14) (size 15 to 20)
#    0.000    2.444    0.000    2.000    1.556    6.222 
#    0.000    2.222    0.000    0.667    0.000    4.667 
#    0.000    0.000    0.000    0.000    0.000    0.000 
#
# Total GULP energy -446002.036086 kJ/mol
# GULP energy per Si atom -12388.945447 kJ/mol
# Density = 1.960133 g / cm^3
# Si number density = 19.646048 Si / 1000 Ang^3
#
#
#
# Elastic Constant Matrix: (Units=GPa)
#
#
# Indices 1 2 3 4 5 6 
#
# 1 113.5435 47.8055 53.5759 0.0000 0.0000 0.0000
# 2 47.8055 74.1426 34.2454 0.0000 0.0000 0.0000
# 3 53.5759 34.2454 100.4495 0.0000 0.0000 0.0000
# 4 0.0000 0.0000 0.0000 9.5674 0.0000 0.0000
# 5 0.0000 0.0000 0.0000 0.0000 35.6318 0.0000
# 6 0.0000 0.0000 0.0000 0.0000 0.0000 23.2412
#
#
#
# Elastic Compliance Matrix: (Units=1/GPa)
#
#
# Indices 1 2 3 4 5 6 
#
# 1 0.014085 -0.006661 -0.005242 0.000000 0.000000 0.000000
# 2 -0.006661 0.019158 -0.002979 0.000000 0.000000 0.000000
# 3 -0.005242 -0.002979 0.013766 0.000000 0.000000 0.000000
# 4 0.000000 0.000000 0.000000 0.104522 0.000000 0.000000
# 5 0.000000 0.000000 0.000000 0.000000 0.028065 0.000000
# 6 0.000000 0.000000 0.000000 0.000000 0.000000 0.043027
#
#
# Mechanical properties :
#
#
# Convention : Reuss Voigt Hill
#
# Bulk Modulus (GPa) = 57.98025 62.15435 60.06730
# Shear Modulus (GPa) = 19.36979 23.85534 21.61256
#
# Velocity S-wave (km/s) = 3.14337 3.48840 3.32037
# Velocity P-wave (km/s) = 6.53842 6.92322 6.73357
#
# Compressibility (1/GPa) = 0.01724725
#
# Stress axis : x y z
#
# Youngs Moduli (GPa) = 70.99889 52.19751 72.64029
#
# Poissons Ratio (x) = 0.34766 0.38075
# Poissons Ratio (y) = 0.47289 0.21639
# Poissons Ratio (z) = 0.37214 0.15549
#
# Static dielectric constant tensor:
#      x y z
#    x 3.621590 0.000000 0.000000 
#    y 0.000000 3.430830 0.000000 
#    z 0.000000 0.000000 3.474630 
# 
# 
# High freq. dielectric constant tensor:
#      x y z
#    x 1.774190 0.000000 0.000000 
#    y 0.000000 1.741720 0.000000 
#    z 0.000000 0.000000 1.757130 
# 
# From -- ./inp_files/36735.got.cif
#   From: 2010.03.12/outbox.cif.g09.slc.cpg/sg67_19_cif.got.tgz:36735.got - 2010.04.10 22:41:39.
