data_PCOD8280995
_publ_section_title
;
Structure prediction by ZEFSAII (Michael W. Deem and Ramdas Pophale) SiO2 
 PCOD8280995
Probable space group: C M M A
;
_chemical_formula_sum "Si O2"
_cell_formula_units_Z 112
_cell_length_a 23.818830
_cell_length_b 14.900714
_cell_length_c 14.684635
_cell_angle_alpha 90.000000
_cell_angle_beta 90.000000
_cell_angle_gamma 90.000000
_cell_volume 5211.835024
_symmetry_space_group_name_H-M "C M M A"
_symmetry_group_IT_number 67
_symmetry_cell_setting 'orthorhombic'
loop_
_space_group_symop_operation_xyz
x,y,z
-x,1/2-y,z
x,-y,-z
-x,1/2+y,-z
-x,-y,-z
x,1/2+y,-z
-x,y,z
x,1/2-y,z
1/2+x,1/2+y,z
1/2-x,-y,z
1/2+x,1/2-y,-z
1/2-x,y,-z
1/2-x,1/2-y,-z
1/2+x,y,-z
1/2-x,1/2+y,z
1/2+x,-y,z
loop_
_atom_site_type_symbol
_atom_site_label
_atom_site_fract_x
_atom_site_fract_y
_atom_site_fract_z
Si Si1 0.141014 0.850147 0.902671
Si Si2 0.936868 0.028323 0.376850
Si Si3 0.145194 0.848856 0.106497
Si Si4 0.066322 0.996744 0.827957
Si Si5 0.747168 0.399677 0.790410
Si Si6 0.600073 0.145059 0.468481
Si Si7 0.274843 0.147625 0.408231
O O1 0.116971 0.750000 0.897146
O O2 0.189496 0.858689 0.827203
O O3 0.087992 0.914416 0.887868
O O4 0.164798 0.872000 0.003524
O O5 0.897282 0.100558 0.430097
O O6 0.000000 0.066281 0.381345
O O7 0.914823 0.024918 0.274533
O O8 0.939209 0.925630 0.414841
O O9 0.118506 0.750000 0.110799
O O10 0.096576 0.913126 0.141418
O O11 0.199705 0.847275 0.170358
O O12 0.000000 0.008851 0.839730
O O13 0.750000 0.500000 0.827616
O O14 0.750171 0.400587 0.680674
O O15 0.578825 0.250000 0.471316
O O16 0.658411 0.141080 0.415132
O O17 0.254147 0.250000 0.402337
O O18 0.250000 0.102537 0.500000
#
# Coordination Sequence:
#
# PCOD8280995 Si02
#       7
#    16  16  16  16  16  16  16
#     4  11  25  43  68  96 129 175 218 269 337 400
#     4  10  23  40  60  90 124 163 216 267 318 376
#     4  11  24  44  68  97 131 169 218 275 335 399
#     4  11  25  44  66  96 133 172 220 278 331 395
#     4  12  24  39  67  99 132 170 215 272 329 393
#     4  10  21  38  63  88 122 167 212 263 312 369
#     4  10  23  39  57  89 128 167 207 253 314 384
#
# _framework density 21.489550999999999
#
# number of rings (size 3 to 8) (size 9 to 14) (size 15 to 20)
#    0.000    1.286    1.429    3.857    2.000    8.286 
#    0.000    4.286    0.000    0.000    0.000    0.000 
#    0.000    0.000    0.000    0.000    0.000    0.000 
#
# Total GULP energy -694241.340211 kJ/mol
# GULP energy per Si atom -12397.166789 kJ/mol
# Density = 2.144064 g / cm^3
# Si number density = 21.489551 Si / 1000 Ang^3
#
#
#
# Elastic Constant Matrix: (Units=GPa)
#
#
# Indices 1 2 3 4 5 6 
#
# 1 79.9138 11.3969 25.6692 0.0000 0.0000 0.0000
# 2 11.3969 81.6307 3.1293 0.0000 0.0000 0.0000
# 3 25.6692 3.1293 120.8618 0.0000 0.0000 0.0000
# 4 0.0000 0.0000 0.0000 28.4490 0.0000 0.0000
# 5 0.0000 0.0000 0.0000 0.0000 33.0151 0.0000
# 6 0.0000 0.0000 0.0000 0.0000 0.0000 13.7549
#
#
#
# Elastic Compliance Matrix: (Units=1/GPa)
#
#
# Indices 1 2 3 4 5 6 
#
# 1 0.013689 -0.001802 -0.002861 0.000000 0.000000 0.000000
# 2 -0.001802 0.012500 0.000059 0.000000 0.000000 0.000000
# 3 -0.002861 0.000059 0.008880 0.000000 0.000000 0.000000
# 4 0.000000 0.000000 0.000000 0.035151 0.000000 0.000000
# 5 0.000000 0.000000 0.000000 0.000000 0.030289 0.000000
# 6 0.000000 0.000000 0.000000 0.000000 0.000000 0.072701
#
#
# Mechanical properties :
#
#
# Convention : Reuss Voigt Hill
#
# Bulk Modulus (GPa) = 38.66651 40.31079 39.48865
# Shear Modulus (GPa) = 26.17287 31.19119 28.68203
#
# Velocity S-wave (km/s) = 3.49368 3.81393 3.65731
# Velocity P-wave (km/s) = 5.85718 6.18012 6.02082
#
# Compressibility (1/GPa) = 0.02586217
#
# Stress axis : x y z
#
# Youngs Moduli (GPa) = 73.04967 80.00279 112.61312
#
# Poissons Ratio (x) = 0.14413 0.32216
# Poissons Ratio (y) = 0.13160 -0.00664
# Poissons Ratio (z) = 0.20898 -0.00472
#
# Static dielectric constant tensor:
#      x y z
#    x 3.597810 0.000000 0.000000 
#    y 0.000000 3.989970 0.000000 
#    z 0.000000 0.000000 4.134830 
# 
# 
# High freq. dielectric constant tensor:
#      x y z
#    x 1.826780 0.000000 0.000000 
#    y 0.000000 1.852010 0.000000 
#    z 0.000000 0.000000 1.857790 
# 
# From -- ./inp_files/30144.got.cif
#   From: 2010.03.12/outbox.cif.g09.slc.cpg/sg67_16_cif.got.tgz:30144.got - 2010.04.10 22:41:39.
