data_PCOD8280456
_publ_section_title
;
Structure prediction by ZEFSAII (Michael W. Deem and Ramdas Pophale) SiO2 
 PCOD8280456
Probable space group: C M M A
;
_chemical_formula_sum "Si O2"
_cell_formula_units_Z 72
_cell_length_a 15.260339
_cell_length_b 8.425995
_cell_length_c 28.300339
_cell_angle_alpha 90.000000
_cell_angle_beta 90.000000
_cell_angle_gamma 90.000000
_cell_volume 3638.957775
_symmetry_space_group_name_H-M "C M M A"
_symmetry_group_IT_number 67
_symmetry_cell_setting 'orthorhombic'
loop_
_space_group_symop_operation_xyz
x,y,z
-x,1/2-y,z
x,-y,-z
-x,1/2+y,-z
-x,-y,-z
x,1/2+y,-z
-x,y,z
x,1/2-y,z
1/2+x,1/2+y,z
1/2-x,-y,z
1/2+x,1/2-y,-z
1/2-x,y,-z
1/2-x,1/2-y,-z
1/2+x,y,-z
1/2-x,1/2+y,z
1/2+x,-y,z
loop_
_atom_site_type_symbol
_atom_site_label
_atom_site_fract_x
_atom_site_fract_y
_atom_site_fract_z
Si Si1 0.500000 0.564722 0.280682
Si Si2 0.500000 0.562164 0.052586
Si Si3 0.654318 0.939433 0.448085
Si Si4 0.500000 0.563202 0.615869
Si Si5 0.844598 0.437484 0.117770
Si Si6 0.655566 0.436643 0.220091
O O1 0.500000 0.750000 0.269500
O O2 0.500000 0.534586 0.336069
O O3 0.586320 0.486492 0.259186
O O4 0.500000 0.750000 0.052163
O O5 0.585730 0.497928 0.079764
O O6 0.500000 0.500000 0.000000
O O7 0.650275 0.750000 0.446703
O O8 0.629528 0.000000 0.500000
O O9 0.750000 0.000000 0.433131
O O10 0.586410 0.015023 0.412178
O O11 0.500000 0.750000 0.626092
O O12 0.842528 0.250000 0.119027
O O13 0.750000 0.500000 0.102311
O O14 0.872877 0.496165 0.169378
O O15 0.660542 0.250000 0.215924
O O16 0.750000 0.500000 0.236054
#
# Coordination Sequence:
#
# PCOD8280456 Si02
#       6
#     8   8  16   8  16  16
#     4  12  25  42  61  87 121 158 196 242 293 350
#     4  10  23  38  55  79 113 151 189 232 287 344
#     4  11  22  40  64  92 121 157 200 247 296 348
#     4  12  25  42  61  88 122 159 199 244 295 354
#     4  10  20  37  59  85 113 148 190 238 287 340
#     4  11  22  39  63  91 118 153 195 241 291 346
#
# _framework density 19.785886000000001
#
# number of rings (size 3 to 8) (size 9 to 14) (size 15 to 20)
#    0.000    1.111    0.000    9.667    0.000    4.000 
#    0.000    6.667    0.000    0.000    0.000    0.000 
#    0.000    0.000    0.000    0.000    0.000    0.000 
#
# Total GULP energy -446587.676873 kJ/mol
# GULP energy per Si atom -12405.213246 kJ/mol
# Density = 1.974085 g / cm^3
# Si number density = 19.785886 Si / 1000 Ang^3
#
#
#
# Elastic Constant Matrix: (Units=GPa)
#
#
# Indices 1 2 3 4 5 6 
#
# 1 141.5617 24.0047 87.4148 0.0000 0.0000 0.0000
# 2 24.0047 94.9425 3.0269 0.0000 0.0000 0.0000
# 3 87.4148 3.0269 117.4765 0.0000 0.0000 0.0000
# 4 0.0000 0.0000 0.0000 36.1885 0.0000 0.0000
# 5 0.0000 0.0000 0.0000 0.0000 30.3510 0.0000
# 6 0.0000 0.0000 0.0000 0.0000 0.0000 30.2987
#
#
#
# Elastic Compliance Matrix: (Units=1/GPa)
#
#
# Indices 1 2 3 4 5 6 
#
# 1 0.013981 -0.003206 -0.010320 0.000000 0.000000 0.000000
# 2 -0.003206 0.011276 0.002095 0.000000 0.000000 0.000000
# 3 -0.010320 0.002095 0.016138 0.000000 0.000000 0.000000
# 4 0.000000 0.000000 0.000000 0.027633 0.000000 0.000000
# 5 0.000000 0.000000 0.000000 0.000000 0.032948 0.000000
# 6 0.000000 0.000000 0.000000 0.000000 0.000000 0.033005
#
#
# Mechanical properties :
#
#
# Convention : Reuss Voigt Hill
#
# Bulk Modulus (GPa) = 53.96002 64.76373 59.36188
# Shear Modulus (GPa) = 30.48403 35.33658 32.91031
#
# Velocity S-wave (km/s) = 3.92943 4.23063 4.08281
# Velocity P-wave (km/s) = 6.92231 7.52779 7.23139
#
# Compressibility (1/GPa) = 0.01853224
#
# Stress axis : x y z
#
# Youngs Moduli (GPa) = 71.52816 88.68065 61.96636
#
# Poissons Ratio (x) = 0.28429 0.63952
# Poissons Ratio (y) = 0.22930 -0.12981
# Poissons Ratio (z) = 0.73820 -0.18577
#
# Static dielectric constant tensor:
#      x y z
#    x 3.939610 0.000000 0.000000 
#    y 0.000000 3.783230 0.000000 
#    z 0.000000 0.000000 2.978360 
# 
# 
# High freq. dielectric constant tensor:
#      x y z
#    x 1.789480 0.000000 0.000000 
#    y 0.000000 1.791570 0.000000 
#    z 0.000000 0.000000 1.769670 
# 
# From -- ./inp_files/44270.got.cif
#   From: 2010.03.12/outbox.cif.g09.slc.cpg/sg67_23_cif.got.tgz:44270.got - 2010.04.10 22:41:39.
