data_PCOD8280853
_publ_section_title
;
Structure prediction by ZEFSAII (Michael W. Deem and Ramdas Pophale) SiO2 
 PCOD8280853
Probable space group: C M M A
;
_chemical_formula_sum "Si O2"
_cell_formula_units_Z 80
_cell_length_a 18.769578
_cell_length_b 8.721374
_cell_length_c 25.489091
_cell_angle_alpha 90.000000
_cell_angle_beta 90.000000
_cell_angle_gamma 90.000000
_cell_volume 4172.475229
_symmetry_space_group_name_H-M "C M M A"
_symmetry_group_IT_number 67
_symmetry_cell_setting 'orthorhombic'
loop_
_space_group_symop_operation_xyz
x,y,z
-x,1/2-y,z
x,-y,-z
-x,1/2+y,-z
-x,-y,-z
x,1/2+y,-z
-x,y,z
x,1/2-y,z
1/2+x,1/2+y,z
1/2-x,-y,z
1/2+x,1/2-y,-z
1/2-x,y,-z
1/2-x,1/2-y,-z
1/2+x,y,-z
1/2-x,1/2+y,z
1/2+x,-y,z
loop_
_atom_site_type_symbol
_atom_site_label
_atom_site_fract_x
_atom_site_fract_y
_atom_site_fract_z
Si Si1 0.918295 0.430278 0.444299
Si Si2 0.825783 0.069802 0.945252
Si Si3 0.172059 0.068594 0.648605
Si Si4 0.918111 0.428762 0.748768
Si Si5 0.583921 0.424826 0.856692
O O1 0.896613 0.500000 0.500000
O O2 0.905597 0.250000 0.445973
O O3 0.867340 0.504723 0.401911
O O4 0.000000 0.471301 0.430567
O O5 0.817888 0.250000 0.951998
O O6 0.750000 0.000000 0.929270
O O7 0.881815 0.032470 0.900248
O O8 0.853449 0.000000 0.000000
O O9 0.176279 0.250000 0.644118
O O10 0.128703 0.016309 0.699875
O O11 0.250000 0.000000 0.652610
O O12 0.908148 0.250000 0.760705
O O13 0.890836 0.521730 0.799282
O O14 0.000000 0.467962 0.735697
O O15 0.500000 0.445081 0.861869
O O16 0.608109 0.250000 0.865341
#
# Coordination Sequence:
#
# PCOD8280853 Si02
#       5
#    16  16  16  16  16
#     4  10  21  38  61  87 114 146 186 230 277 332
#     4  11  22  38  59  82 112 148 187 230 278 334
#     4  11  23  38  57  83 116 151 188 231 279 331
#     4   9  19  37  59  81 108 146 189 232 280 332
#     4  10  21  37  58  85 115 147 186 231 278 329
#
# _framework density 19.173271
#
# number of rings (size 3 to 8) (size 9 to 14) (size 15 to 20)
#    0.000    1.800    0.000    4.800    0.000    6.400 
#    0.000    6.000    0.000    0.000    0.000    0.000 
#    0.000    0.000    0.000    0.000    0.000    0.000 
#
# Total GULP energy -496207.627146 kJ/mol
# GULP energy per Si atom -12405.190679 kJ/mol
# Density = 1.912963 g / cm^3
# Si number density = 19.173271 Si / 1000 Ang^3
#
#
#
# Elastic Constant Matrix: (Units=GPa)
#
#
# Indices 1 2 3 4 5 6 
#
# 1 93.5478 48.3879 82.8394 0.0000 0.0000 0.0000
# 2 48.3879 115.6414 65.3343 0.0000 0.0000 0.0000
# 3 82.8394 65.3343 154.5622 0.0000 0.0000 0.0000
# 4 0.0000 0.0000 0.0000 37.0491 0.0000 0.0000
# 5 0.0000 0.0000 0.0000 0.0000 -42.1868 0.0000
# 6 0.0000 0.0000 0.0000 0.0000 0.0000 2.9904
#
#
#
# Elastic Compliance Matrix: (Units=1/GPa)
#
#
# Indices 1 2 3 4 5 6 
#
# 1 0.021223 -0.003224 -0.010012 0.000000 0.000000 0.000000
# 2 -0.003224 0.011850 -0.003281 0.000000 0.000000 0.000000
# 3 -0.010012 -0.003281 0.013223 0.000000 0.000000 0.000000
# 4 0.000000 0.000000 0.000000 0.026991 0.000000 0.000000
# 5 0.000000 0.000000 0.000000 0.000000 -0.023704 0.000000
# 6 0.000000 0.000000 0.000000 0.000000 0.000000 0.334409
#
#
# Mechanical properties :
#
#
# Convention : Reuss Voigt Hill
#
# Bulk Modulus (GPa) = 75.40358 84.09719 79.75039
# Shear Modulus (GPa) = 11.86386 10.71653 11.29020
#
# Velocity S-wave (km/s) = 2.49021 2.36674 2.42926
# Velocity P-wave (km/s) = 6.90514 7.17116 7.03941
#
# Compressibility (1/GPa) = 0.01326197
#
# Stress axis : x y z
#
# Youngs Moduli (GPa) = 47.11795 84.38649 75.62579
#
# Poissons Ratio (x) = 0.27206 0.75717
# Poissons Ratio (y) = 0.15190 0.24815
# Poissons Ratio (z) = 0.47175 0.27689
#
# Static dielectric constant tensor:
#      x y z
#    x 3.452140 0.000000 0.000000 
#    y 0.000000 3.620810 0.000000 
#    z 0.000000 0.000000 3.612630 
# 
# 
# High freq. dielectric constant tensor:
#      x y z
#    x 1.741420 0.000000 0.000000 
#    y 0.000000 1.759480 0.000000 
#    z 0.000000 0.000000 1.758770 
# 
# From -- ./inp_files/43222.got.cif
#   From: 2010.03.12/outbox.cif.g09.slc.cpg/sg67_22_cif.got.tgz:43222.got - 2010.04.10 22:41:39.
