data_PCOD8280818
_publ_section_title
;
Structure prediction by ZEFSAII (Michael W. Deem and Ramdas Pophale) SiO2 
 PCOD8280818
Probable space group: C M M A
;
_chemical_formula_sum "Si O2"
_cell_formula_units_Z 64
_cell_length_a 8.898880
_cell_length_b 27.211979
_cell_length_c 13.747661
_cell_angle_alpha 90.000000
_cell_angle_beta 90.000000
_cell_angle_gamma 90.000000
_cell_volume 3329.080462
_symmetry_space_group_name_H-M "C M M A"
_symmetry_group_IT_number 67
_symmetry_cell_setting 'orthorhombic'
loop_
_space_group_symop_operation_xyz
x,y,z
-x,1/2-y,z
x,-y,-z
-x,1/2+y,-z
-x,-y,-z
x,1/2+y,-z
-x,y,z
x,1/2-y,z
1/2+x,1/2+y,z
1/2-x,-y,z
1/2+x,1/2-y,-z
1/2-x,y,-z
1/2-x,1/2-y,-z
1/2+x,y,-z
1/2-x,1/2+y,z
1/2+x,-y,z
loop_
_atom_site_type_symbol
_atom_site_label
_atom_site_fract_x
_atom_site_fract_y
_atom_site_fract_z
Si Si1 0.678142 0.889741 0.100727
Si Si2 0.326639 0.806591 0.783594
Si Si3 0.174400 0.050825 0.287450
Si Si4 0.677801 0.352557 0.602845
O O1 0.500000 0.884049 0.091262
O O2 0.723241 0.930517 0.180645
O O3 0.750000 0.907449 0.000000
O O4 0.753616 0.837377 0.868502
O O5 0.500000 0.822741 0.775008
O O6 0.311324 0.750000 0.813063
O O7 0.245620 0.814961 0.680684
O O8 0.219917 0.091804 0.366596
O O9 0.000000 0.040830 0.289618
O O10 0.250000 0.000000 0.315935
O O11 0.500000 0.344810 0.599056
O O12 0.750000 0.340104 0.500000
#
# Coordination Sequence:
#
# PCOD8280818 Si02
#       4
#    16  16  16  16
#     4  10  21  37  56  80 109 142 180 220 265 316
#     4  10  21  37  57  81 108 140 178 220 268 319
#     4   9  20  36  54  78 107 140 178 220 265 314
#     4  10  21  37  56  80 109 142 180 220 265 316
#
# _framework density 19.224527999999999
#
# number of rings (size 3 to 8) (size 9 to 14) (size 15 to 20)
#    0.000    2.250    0.000    3.750    0.000   10.000 
#    0.000    5.000    0.000    0.000    0.000    0.000 
#    0.000    0.000    0.000    0.000    0.000    0.000 
#
# Total GULP energy -396885.285721 kJ/mol
# GULP energy per Si atom -12402.665179 kJ/mol
# Density = 1.918077 g / cm^3
# Si number density = 19.224528 Si / 1000 Ang^3
#
#
#
# Elastic Constant Matrix: (Units=GPa)
#
#
# Indices 1 2 3 4 5 6 
#
# 1 80.8692 13.1374 7.9369 0.0000 0.0000 0.0000
# 2 13.1374 50.4571 -25.2523 0.0000 0.0000 0.0000
# 3 7.9369 -25.2523 54.9706 0.0000 0.0000 0.0000
# 4 0.0000 0.0000 0.0000 15.7563 0.0000 0.0000
# 5 0.0000 0.0000 0.0000 0.0000 36.7699 0.0000
# 6 0.0000 0.0000 0.0000 0.0000 0.0000 34.0488
#
#
#
# Elastic Compliance Matrix: (Units=1/GPa)
#
#
# Indices 1 2 3 4 5 6 
#
# 1 0.013798 -0.005960 -0.004730 0.000000 0.000000 0.000000
# 2 -0.005960 0.028310 0.013865 0.000000 0.000000 0.000000
# 3 -0.004730 0.013865 0.025244 0.000000 0.000000 0.000000
# 4 0.000000 0.000000 0.000000 0.063467 0.000000 0.000000
# 5 0.000000 0.000000 0.000000 0.000000 0.027196 0.000000
# 6 0.000000 0.000000 0.000000 0.000000 0.000000 0.029370
#
#
# Mechanical properties :
#
#
# Convention : Reuss Voigt Hill
#
# Bulk Modulus (GPa) = 13.56801 19.77122 16.66961
# Shear Modulus (GPa) = 24.31901 30.01334 27.16618
#
# Velocity S-wave (km/s) = 3.56054 3.95549 3.76320
# Velocity P-wave (km/s) = 4.89655 5.58282 5.25091
#
# Compressibility (1/GPa) = 0.07370279
#
# Stress axis : x y z
#
# Youngs Moduli (GPa) = 72.47397 35.32352 39.61353
#
# Poissons Ratio (x) = 0.21052 0.18737
# Poissons Ratio (y) = 0.43193 -0.54926
# Poissons Ratio (z) = 0.34280 -0.48977
#
# Static dielectric constant tensor:
#      x y z
#    x 3.600510 0.000000 0.000000 
#    y 0.000000 3.450530 0.000000 
#    z 0.000000 0.000000 3.483690 
# 
# 
# High freq. dielectric constant tensor:
#      x y z
#    x 1.760650 0.000000 0.000000 
#    y 0.000000 1.741970 0.000000 
#    z 0.000000 0.000000 1.747670 
# 
# From -- ./inp_files/16474.got.cif
#   From: 2010.03.12/outbox.cif.g09.slc.cpg/sg67_9_cif.got.tgz:16474.got - 2010.04.10 22:41:39.
