data_PCOD8280060
_publ_section_title
;
Structure prediction by ZEFSAII (Michael W. Deem and Ramdas Pophale) SiO2 
 PCOD8280060
Probable space group: C M M A
;
_chemical_formula_sum "Si O2"
_cell_formula_units_Z 104
_cell_length_a 30.670390
_cell_length_b 8.679327
_cell_length_c 23.014512
_cell_angle_alpha 90.000000
_cell_angle_beta 90.000000
_cell_angle_gamma 90.000000
_cell_volume 6126.424983
_symmetry_space_group_name_H-M "C M M A"
_symmetry_group_IT_number 67
_symmetry_cell_setting 'orthorhombic'
loop_
_space_group_symop_operation_xyz
x,y,z
-x,1/2-y,z
x,-y,-z
-x,1/2+y,-z
-x,-y,-z
x,1/2+y,-z
-x,y,z
x,1/2-y,z
1/2+x,1/2+y,z
1/2-x,-y,z
1/2+x,1/2-y,-z
1/2-x,y,-z
1/2-x,1/2-y,-z
1/2+x,y,-z
1/2-x,1/2+y,z
1/2+x,-y,z
loop_
_atom_site_type_symbol
_atom_site_label
_atom_site_fract_x
_atom_site_fract_y
_atom_site_fract_z
Si Si1 0.882330 0.078518 0.768611
Si Si2 0.051660 0.421968 0.442255
Si Si3 0.000000 0.069103 0.063037
Si Si4 0.295047 0.934525 0.820703
Si Si5 0.172657 0.932771 0.939333
Si Si6 0.950714 0.567128 0.322145
Si Si7 0.913610 0.576417 0.101827
O O1 0.874949 0.250000 0.744362
O O2 0.834192 0.003106 0.778483
O O3 0.915323 0.994507 0.723322
O O4 0.904853 0.082603 0.830460
O O5 0.071785 0.500000 0.500000
O O6 0.070730 0.250000 0.436459
O O7 0.065418 0.519797 0.386045
O O8 0.000000 0.416891 0.448007
O O9 0.000000 0.250000 0.059225
O O10 0.041463 0.011408 0.097585
O O11 0.000000 0.000000 0.000000
O O12 0.295761 0.750000 0.823101
O O13 0.250000 0.000000 0.794705
O O14 0.300097 0.996469 0.886183
O O15 0.177348 0.750000 0.938661
O O16 0.122354 0.982014 0.933690
O O17 0.191255 0.000000 0.000000
O O18 0.951925 0.750000 0.316962
O O19 0.000000 0.503063 0.309791
O O20 0.915828 0.750000 0.076149
#
# Coordination Sequence:
#
# PCOD8280060 Si02
#       7
#    16  16   8  16  16  16  16
#     4   8  17  32  51  72  95 123 157 195 234 284
#     4   9  16  26  40  61  92 129 167 203 237 269
#     4  12  24  36  48  66  88 118 159 202 243 288
#     4  10  20  36  54  74  97 123 157 195 242 291
#     4  11  21  35  53  73  96 120 148 187 238 295
#     4   9  16  27  46  70  96 129 166 197 230 275
#     4  10  20  35  52  69  91 122 157 197 240 286
#
# _framework density 16.975643000000002
#
# number of rings (size 3 to 8) (size 9 to 14) (size 15 to 20)
#    0.000    2.308    0.000    4.846    1.077    2.154 
#    0.000    6.154    0.000    0.000    0.000    0.000 
#    0.000    0.615    0.000    7.077    0.000    2.462 
#
# Total GULP energy -644513.985402 kJ/mol
# GULP energy per Si atom -12394.499719 kJ/mol
# Density = 1.693701 g / cm^3
# Si number density = 16.975643 Si / 1000 Ang^3
#
#
#
# Elastic Constant Matrix: (Units=GPa)
#
#
# Indices 1 2 3 4 5 6 
#
# 1 110.4412 29.9176 43.9151 0.0000 0.0000 0.0000
# 2 29.9176 81.9890 20.7829 0.0000 0.0000 0.0000
# 3 43.9151 20.7829 91.0581 0.0000 0.0000 0.0000
# 4 0.0000 0.0000 0.0000 21.1887 0.0000 0.0000
# 5 0.0000 0.0000 0.0000 0.0000 12.4993 0.0000
# 6 0.0000 0.0000 0.0000 0.0000 0.0000 22.2747
#
#
#
# Elastic Compliance Matrix: (Units=1/GPa)
#
#
# Indices 1 2 3 4 5 6 
#
# 1 0.011885 -0.003061 -0.005033 0.000000 0.000000 0.000000
# 2 -0.003061 0.013734 -0.001658 0.000000 0.000000 0.000000
# 3 -0.005033 -0.001658 0.013788 0.000000 0.000000 0.000000
# 4 0.000000 0.000000 0.000000 0.047195 0.000000 0.000000
# 5 0.000000 0.000000 0.000000 0.000000 0.080005 0.000000
# 6 0.000000 0.000000 0.000000 0.000000 0.000000 0.044894
#
#
# Mechanical properties :
#
#
# Convention : Reuss Voigt Hill
#
# Bulk Modulus (GPa) = 50.24662 52.52436 51.38549
# Shear Modulus (GPa) = 21.04021 23.78404 22.41212
#
# Velocity S-wave (km/s) = 3.52438 3.74715 3.63747
# Velocity P-wave (km/s) = 6.79891 7.05193 6.92657
#
# Compressibility (1/GPa) = 0.01990184
#
# Stress axis : x y z
#
# Youngs Moduli (GPa) = 84.13822 72.81149 72.52714
#
# Poissons Ratio (x) = 0.22288 0.36505
# Poissons Ratio (y) = 0.25755 0.12028
# Poissons Ratio (z) = 0.42349 0.12075
#
# Static dielectric constant tensor:
#      x y z
#    x 3.244890 0.000000 0.000000 
#    y 0.000000 3.090050 0.000000 
#    z 0.000000 0.000000 3.142910 
# 
# 
# High freq. dielectric constant tensor:
#      x y z
#    x 1.636000 0.000000 0.000000 
#    y 0.000000 1.652420 0.000000 
#    z 0.000000 0.000000 1.636830 
# 
# From -- ./inp_files/42943.got.cif
#   From: 2010.03.12/outbox.cif.g09.slc.cpg/sg67_22_cif.got.tgz:42943.got - 2010.04.10 22:41:39.
