data_PCOD8280012
_publ_section_title
;
Structure prediction by ZEFSAII (Michael W. Deem and Ramdas Pophale) SiO2 
 PCOD8280012
Probable space group: C M M A
;
_chemical_formula_sum "Si O2"
_cell_formula_units_Z 128
_cell_length_a 17.687598
_cell_length_b 18.087974
_cell_length_c 22.852181
_cell_angle_alpha 90.000000
_cell_angle_beta 90.000000
_cell_angle_gamma 90.000000
_cell_volume 7311.162545
_symmetry_space_group_name_H-M "C M M A"
_symmetry_group_IT_number 67
_symmetry_cell_setting 'orthorhombic'
loop_
_space_group_symop_operation_xyz
x,y,z
-x,1/2-y,z
x,-y,-z
-x,1/2+y,-z
-x,-y,-z
x,1/2+y,-z
-x,y,z
x,1/2-y,z
1/2+x,1/2+y,z
1/2-x,-y,z
1/2+x,1/2-y,-z
1/2-x,y,-z
1/2-x,1/2-y,-z
1/2+x,y,-z
1/2-x,1/2+y,z
1/2+x,-y,z
loop_
_atom_site_type_symbol
_atom_site_label
_atom_site_fract_x
_atom_site_fract_y
_atom_site_fract_z
Si Si1 0.262317 0.338099 0.732439
Si Si2 0.587050 0.574220 0.535619
Si Si3 0.845038 0.335955 0.436561
Si Si4 0.821773 0.169673 0.040995
Si Si5 0.283170 0.579443 0.621610
Si Si6 0.915463 0.661404 0.062064
Si Si7 0.721072 0.661473 0.860274
Si Si8 0.418113 0.663282 0.315660
O O1 0.256711 0.250000 0.727010
O O2 0.212062 0.372529 0.680810
O O3 0.230814 0.367437 0.794297
O O4 0.349604 0.365529 0.725247
O O5 0.603631 0.500000 0.500000
O O6 0.500000 0.583190 0.552637
O O7 0.613256 0.643205 0.496342
O O8 0.632623 0.571849 0.596294
O O9 0.824100 0.250000 0.437599
O O10 0.767362 0.381019 0.428234
O O11 0.900546 0.356008 0.382978
O O12 0.853882 0.250000 0.059581
O O13 0.791008 0.128910 0.099933
O O14 0.750000 0.181226 0.000000
O O15 0.886115 0.129318 0.001294
O O16 0.250000 0.500000 0.637835
O O17 0.913828 0.750000 0.058926
O O18 0.859968 0.634403 0.114327
O O19 0.000000 0.631651 0.074270
O O20 0.725415 0.750000 0.862762
O O21 0.500000 0.627378 0.299071
O O22 0.424371 0.750000 0.307395
#
# Coordination Sequence:
#
# PCOD8280012 Si02
#       8
#    16  16  16  16  16  16  16  16
#     4   9  18  31  47  67  91 125 167 201 235 289
#     4  11  23  37  53  76 104 128 154 196 252 308
#     4  10  20  34  56  79  98 125 161 200 244 299
#     4   7  10  17  30  48  73 105 137 173 223 275
#     4  11  21  36  54  72  97 130 163 201 245 295
#     4   8  12  18  31  54  82 114 153 193 233 279
#     4   8  13  23  37  53  80 118 155 191 232 282
#     4   8  14  26  43  65  90 112 142 189 238 280
#
# _framework density 17.507476
#
# number of rings (size 3 to 8) (size 9 to 14) (size 15 to 20)
#    0.000    3.000    1.250    3.375    0.000    2.250 
#    0.000    1.250    0.000    4.500    0.000    0.000 
#    0.000    4.500    0.000    1.125    0.000    1.250 
#
# Total GULP energy -792921.407619 kJ/mol
# GULP energy per Si atom -12389.396994 kJ/mol
# Density = 1.746763 g / cm^3
# Si number density = 17.507476 Si / 1000 Ang^3
#
#
#
# Elastic Constant Matrix: (Units=GPa)
#
#
# Indices 1 2 3 4 5 6 
#
# 1 127.8856 14.0299 73.3283 0.0000 0.0000 0.0000
# 2 14.0299 35.2089 16.0946 0.0000 0.0000 0.0000
# 3 73.3283 16.0946 128.9716 0.0000 0.0000 0.0000
# 4 0.0000 0.0000 0.0000 8.5485 0.0000 0.0000
# 5 0.0000 0.0000 0.0000 0.0000 20.3979 0.0000
# 6 0.0000 0.0000 0.0000 0.0000 0.0000 11.3340
#
#
#
# Elastic Compliance Matrix: (Units=1/GPa)
#
#
# Indices 1 2 3 4 5 6 
#
# 1 0.011699 -0.001719 -0.006437 0.000000 0.000000 0.000000
# 2 -0.001719 0.030373 -0.002813 0.000000 0.000000 0.000000
# 3 -0.006437 -0.002813 0.011765 0.000000 0.000000 0.000000
# 4 0.000000 0.000000 0.000000 0.116979 0.000000 0.000000
# 5 0.000000 0.000000 0.000000 0.000000 0.049025 0.000000
# 6 0.000000 0.000000 0.000000 0.000000 0.000000 0.088230
#
#
# Mechanical properties :
#
#
# Convention : Reuss Voigt Hill
#
# Bulk Modulus (GPa) = 31.34982 55.44130 43.39556
# Shear Modulus (GPa) = 14.67821 20.63032 17.65426
#
# Velocity S-wave (km/s) = 2.89865 3.43647 3.17895
# Velocity P-wave (km/s) = 5.39892 6.89070 6.18991
#
# Compressibility (1/GPa) = 0.03189811
#
# Stress axis : x y z
#
# Youngs Moduli (GPa) = 85.47694 32.92423 85.00130
#
# Poissons Ratio (x) = 0.05661 0.54716
# Poissons Ratio (y) = 0.14696 0.23909
# Poissons Ratio (z) = 0.55022 0.09261
#
# Static dielectric constant tensor:
#      x y z
#    x 3.497720 0.000000 0.000000 
#    y 0.000000 2.799730 0.000000 
#    z 0.000000 0.000000 3.358380 
# 
# 
# High freq. dielectric constant tensor:
#      x y z
#    x 1.673190 0.000000 0.000000 
#    y 0.000000 1.622970 0.000000 
#    z 0.000000 0.000000 1.666150 
# 
# From -- ./inp_files/42259.got.cif
#   From: 2010.03.12/outbox.cif.g09.slc.cpg/sg67_22_cif.got.tgz:42259.got - 2010.04.10 22:41:39.
