data_PCOD8280559
_publ_section_title
;
Structure prediction by ZEFSAII (Michael W. Deem and Ramdas Pophale) SiO2 
 PCOD8280559
Probable space group: C M M A
;
_chemical_formula_sum "Si O2"
_cell_formula_units_Z 52
_cell_length_a 14.753317
_cell_length_b 14.101035
_cell_length_c 11.794870
_cell_angle_alpha 90.000000
_cell_angle_beta 90.000000
_cell_angle_gamma 90.000000
_cell_volume 2453.769835
_symmetry_space_group_name_H-M "C M M A"
_symmetry_group_IT_number 67
_symmetry_cell_setting 'orthorhombic'
loop_
_space_group_symop_operation_xyz
x,y,z
-x,1/2-y,z
x,-y,-z
-x,1/2+y,-z
-x,-y,-z
x,1/2+y,-z
-x,y,z
x,1/2-y,z
1/2+x,1/2+y,z
1/2-x,-y,z
1/2+x,1/2-y,-z
1/2-x,y,-z
1/2-x,1/2-y,-z
1/2+x,y,-z
1/2-x,1/2+y,z
1/2+x,-y,z
loop_
_atom_site_type_symbol
_atom_site_label
_atom_site_fract_x
_atom_site_fract_y
_atom_site_fract_z
Si Si1 0.697846 0.641119 0.608109
Si Si2 0.250000 0.000000 0.000000
Si Si3 0.000000 0.647808 0.714538
Si Si4 0.000000 0.893082 0.464817
Si Si5 0.684377 0.864186 0.186183
O O1 0.725820 0.750000 0.605019
O O2 0.750000 0.592773 0.500000
O O3 0.589463 0.628821 0.607851
O O4 0.735845 0.602803 0.727773
O O5 0.189863 0.072767 0.073439
O O6 0.000000 0.666162 0.579876
O O7 0.908132 0.598092 0.754956
O O8 0.000000 0.750000 0.773811
O O9 0.000000 0.000000 0.500000
O O10 0.686729 0.750000 0.160783
#
# Coordination Sequence:
#
# PCOD8280559 Si02
#       5
#    16   4   8   8  16
#     4  10  20  38  63  90 124 161 201 248 308 376
#     4  12  26  42  66  82 132 166 218 268 308 354
#     4  10  20  41  66  90 124 163 206 252 314 382
#     4  12  24  32  58  97 136 160 195 244 311 394
#     4  10  23  42  67  94 123 167 213 258 312 370
#
# _framework density 21.191880999999999
#
# number of rings (size 3 to 8) (size 9 to 14) (size 15 to 20)
#    0.000    1.538    3.077    1.846    4.308    1.231 
#    0.000    1.538    0.000    3.692    0.000    0.000 
#    0.000    0.000    0.000    0.000    0.000    0.000 
#
# Total GULP energy -322155.455622 kJ/mol
# GULP energy per Si atom -12390.594447 kJ/mol
# Density = 2.114365 g / cm^3
# Si number density = 21.191881 Si / 1000 Ang^3
#
#
#
# Elastic Constant Matrix: (Units=GPa)
#
#
# Indices 1 2 3 4 5 6 
#
# 1 187.4411 17.7486 77.7721 0.0000 0.0000 0.0000
# 2 17.7486 71.7363 39.7442 0.0000 0.0000 0.0000
# 3 77.7721 39.7442 132.0694 0.0000 0.0000 0.0000
# 4 0.0000 0.0000 0.0000 26.2542 0.0000 0.0000
# 5 0.0000 0.0000 0.0000 0.0000 19.8445 0.0000
# 6 0.0000 0.0000 0.0000 0.0000 0.0000 5.5203
#
#
#
# Elastic Compliance Matrix: (Units=1/GPa)
#
#
# Indices 1 2 3 4 5 6 
#
# 1 0.007087 0.000671 -0.004375 0.000000 0.000000 0.000000
# 2 0.000671 0.016793 -0.005448 0.000000 0.000000 0.000000
# 3 -0.004375 -0.005448 0.011788 0.000000 0.000000 0.000000
# 4 0.000000 0.000000 0.000000 0.038089 0.000000 0.000000
# 5 0.000000 0.000000 0.000000 0.000000 0.050392 0.000000
# 6 0.000000 0.000000 0.000000 0.000000 0.000000 0.181149
#
#
# Mechanical properties :
#
#
# Convention : Reuss Voigt Hill
#
# Bulk Modulus (GPa) = 57.59888 73.53075 65.56481
# Shear Modulus (GPa) = 15.17959 27.38926 21.28443
#
# Velocity S-wave (km/s) = 2.67927 3.59895 3.17261
# Velocity P-wave (km/s) = 6.06712 7.21408 6.66532
#
# Compressibility (1/GPa) = 0.01736145
#
# Stress axis : x y z
#
# Youngs Moduli (GPa) = 141.10812 59.55010 84.83440
#
# Poissons Ratio (x) = -0.03993 0.37115
# Poissons Ratio (y) = -0.09462 0.46220
# Poissons Ratio (z) = 0.61735 0.32445
#
# Static dielectric constant tensor:
#      x y z
#    x 3.808770 0.000000 0.000000 
#    y 0.000000 3.811000 0.000000 
#    z 0.000000 0.000000 3.546410 
# 
# 
# High freq. dielectric constant tensor:
#      x y z
#    x 1.833860 0.000000 0.000000 
#    y 0.000000 1.837740 0.000000 
#    z 0.000000 0.000000 1.808000 
# 
# From -- ./inp_files/17242.got.cif
#   From: 2010.03.12/outbox.cif.g09.slc.cpg/sg67_9_cif.got.tgz:17242.got - 2010.04.10 22:41:39.
