data_PCOD8280140
_publ_section_title
;
Structure prediction by ZEFSAII (Michael W. Deem and Ramdas Pophale) SiO2 
 PCOD8280140
Probable space group: C M M A
;
_chemical_formula_sum "Si O2"
_cell_formula_units_Z 104
_cell_length_a 8.886000
_cell_length_b 26.524830
_cell_length_c 22.747614
_cell_angle_alpha 90.000000
_cell_angle_beta 90.000000
_cell_angle_gamma 90.000000
_cell_volume 5361.604417
_symmetry_space_group_name_H-M "C M M A"
_symmetry_group_IT_number 67
_symmetry_cell_setting 'orthorhombic'
loop_
_space_group_symop_operation_xyz
x,y,z
-x,1/2-y,z
x,-y,-z
-x,1/2+y,-z
-x,-y,-z
x,1/2+y,-z
-x,y,z
x,1/2-y,z
1/2+x,1/2+y,z
1/2-x,-y,z
1/2+x,1/2-y,-z
1/2-x,y,-z
1/2-x,1/2-y,-z
1/2+x,y,-z
1/2-x,1/2+y,z
1/2+x,-y,z
loop_
_atom_site_type_symbol
_atom_site_label
_atom_site_fract_x
_atom_site_fract_y
_atom_site_fract_z
Si Si1 0.678636 0.750000 0.563459
Si Si2 0.322886 0.900474 0.937513
Si Si3 0.674048 0.148241 0.757896
Si Si4 0.180029 0.051893 0.563688
Si Si5 0.327960 0.306053 0.135703
Si Si6 0.824361 0.549753 0.829724
Si Si7 0.677488 0.848517 0.632986
O O1 0.500000 0.750000 0.557691
O O2 0.750000 0.750000 0.500000
O O3 0.736511 0.800281 0.596562
O O4 0.500000 0.908312 0.942474
O O5 0.278393 0.844363 0.915537
O O6 0.256029 0.940202 0.891735
O O7 0.250000 0.910534 0.000000
O O8 0.500000 0.157024 0.745562
O O9 0.728190 0.188491 0.806009
O O10 0.709023 0.092867 0.782530
O O11 0.761432 0.156286 0.698155
O O12 0.250000 0.061712 0.500000
O O13 0.231072 0.098931 0.603868
O O14 0.000000 0.047059 0.559273
O O15 0.250000 0.000000 0.590088
O O16 0.500000 0.316709 0.153985
O O17 0.305663 0.250000 0.110308
O O18 0.750000 0.500000 0.802123
O O19 0.000000 0.542678 0.841227
O O20 0.500000 0.847205 0.636177
#
# Coordination Sequence:
#
# PCOD8280140 Si02
#       7
#     8  16  16  16  16  16  16
#     4  10  22  40  60  84 114 150 189 232 281 334
#     4  10  20  35  55  81 112 145 184 228 275 329
#     4  10  22  37  55  82 112 141 180 229 276 322
#     4  10  20  35  56  81 109 143 182 227 277 331
#     4   9  19  36  57  78 106 146 184 222 273 329
#     4  10  21  38  58  81 110 145 184 229 279 331
#     4  10  22  38  57  82 113 149 188 228 278 338
#
# _framework density 19.397179000000001
#
# number of rings (size 3 to 8) (size 9 to 14) (size 15 to 20)
#    0.000    2.154    0.000    2.769    1.077    5.846 
#    0.000    4.615    0.000    0.000    0.000    0.000 
#    0.000    0.000    0.000    0.000    0.000    0.000 
#
# Total GULP energy -644901.488747 kJ/mol
# GULP energy per Si atom -12401.951707 kJ/mol
# Density = 1.935303 g / cm^3
# Si number density = 19.397179 Si / 1000 Ang^3
#
#
#
# Elastic Constant Matrix: (Units=GPa)
#
#
# Indices 1 2 3 4 5 6 
#
# 1 46.2220 31.5371 24.1131 0.0000 0.0000 0.0000
# 2 31.5371 99.6244 23.3386 0.0000 0.0000 0.0000
# 3 24.1131 23.3386 92.4531 0.0000 0.0000 0.0000
# 4 0.0000 0.0000 0.0000 14.3939 0.0000 0.0000
# 5 0.0000 0.0000 0.0000 0.0000 30.0014 0.0000
# 6 0.0000 0.0000 0.0000 0.0000 0.0000 27.6042
#
#
#
# Elastic Compliance Matrix: (Units=1/GPa)
#
#
# Indices 1 2 3 4 5 6 
#
# 1 0.030282 -0.008222 -0.005822 0.000000 0.000000 0.000000
# 2 -0.008222 0.012901 -0.001112 0.000000 0.000000 0.000000
# 3 -0.005822 -0.001112 0.012616 0.000000 0.000000 0.000000
# 4 0.000000 0.000000 0.000000 0.069474 0.000000 0.000000
# 5 0.000000 0.000000 0.000000 0.000000 0.033332 0.000000
# 6 0.000000 0.000000 0.000000 0.000000 0.000000 0.036226
#
#
# Mechanical properties :
#
#
# Convention : Reuss Voigt Hill
#
# Bulk Modulus (GPa) = 39.23853 44.03082 41.63468
# Shear Modulus (GPa) = 21.40047 25.02060 23.21054
#
# Velocity S-wave (km/s) = 3.32517 3.59543 3.46293
# Velocity P-wave (km/s) = 5.91737 6.32337 6.12373
#
# Compressibility (1/GPa) = 0.02548515
#
# Stress axis : x y z
#
# Youngs Moduli (GPa) = 33.02285 77.51304 79.26666
#
# Poissons Ratio (x) = 0.63732 0.46153
# Poissons Ratio (y) = 0.27152 0.08817
# Poissons Ratio (z) = 0.19227 0.08621
#
# Static dielectric constant tensor:
#      x y z
#    x 3.570350 0.000000 0.000000 
#    y 0.000000 3.904110 0.000000 
#    z 0.000000 0.000000 3.382270 
# 
# 
# High freq. dielectric constant tensor:
#      x y z
#    x 1.759400 0.000000 0.000000 
#    y 0.000000 1.768200 0.000000 
#    z 0.000000 0.000000 1.747630 
# 
# From -- ./inp_files/37323.got.cif
#   From: 2010.03.12/outbox.cif.g09.slc.cpg/sg67_19_cif.got.tgz:37323.got - 2010.04.10 22:41:39.
