data_PCOD8280988
_publ_section_title
;
Structure prediction by ZEFSAII (Michael W. Deem and Ramdas Pophale) SiO2 
 PCOD8280988
Probable space group: C M M A
;
_chemical_formula_sum "Si O2"
_cell_formula_units_Z 112
_cell_length_a 27.316837
_cell_length_b 15.672159
_cell_length_c 12.507133
_cell_angle_alpha 90.000000
_cell_angle_beta 90.000000
_cell_angle_gamma 90.000000
_cell_volume 5354.476396
_symmetry_space_group_name_H-M "C M M A"
_symmetry_group_IT_number 67
_symmetry_cell_setting 'orthorhombic'
loop_
_space_group_symop_operation_xyz
x,y,z
-x,1/2-y,z
x,-y,-z
-x,1/2+y,-z
-x,-y,-z
x,1/2+y,-z
-x,y,z
x,1/2-y,z
1/2+x,1/2+y,z
1/2-x,-y,z
1/2+x,1/2-y,-z
1/2-x,y,-z
1/2-x,1/2-y,-z
1/2+x,y,-z
1/2-x,1/2+y,z
1/2+x,-y,z
loop_
_atom_site_type_symbol
_atom_site_label
_atom_site_fract_x
_atom_site_fract_y
_atom_site_fract_z
Si Si1 0.942644 0.483707 0.691233
Si Si2 0.112372 0.345141 0.351470
Si Si3 0.197310 0.104006 0.768428
Si Si4 0.191413 0.907962 0.802003
Si Si5 0.849167 0.344688 0.987087
Si Si6 0.553355 0.578567 0.923770
Si Si7 0.874742 0.845709 0.408354
O O1 0.927696 0.581487 0.668726
O O2 0.927438 0.457321 0.810868
O O3 0.915956 0.415995 0.615447
O O4 0.000000 0.476107 0.670104
O O5 0.088269 0.250000 0.343191
O O6 0.154433 0.349224 0.262864
O O7 0.137983 0.356910 0.466847
O O8 0.254411 0.125766 0.777682
O O9 0.172892 0.146223 0.870488
O O10 0.174791 0.142370 0.659997
O O11 0.186061 0.004256 0.763500
O O12 0.177807 0.906473 0.928342
O O13 0.840515 0.250000 0.030431
O O14 0.907400 0.358979 0.977198
O O15 0.500000 0.624439 0.910896
O O16 0.546117 0.500000 0.000000
O O17 0.895309 0.750000 0.385787
#
# Coordination Sequence:
#
# PCOD8280988 Si02
#       7
#    16  16  16  16  16  16  16
#     4  11  23  42  68  95 129 170 214 266 322 383
#     4  11  24  42  64  93 131 170 214 267 320 383
#     4  11  23  41  65  91 126 167 217 268 321 383
#     4  11  24  41  64  93 123 170 219 262 320 389
#     4  12  23  37  61  92 130 166 207 267 322 378
#     4  10  21  38  62  90 123 165 210 257 317 381
#     4  11  24  42  65  94 128 168 215 268 324 381
#
# _framework density 20.917078
#
# number of rings (size 3 to 8) (size 9 to 14) (size 15 to 20)
#    0.000    1.000    2.857    3.857    0.000    6.571 
#    0.000    5.714    0.000    4.286    0.000    0.000 
#    0.000    0.000    0.000    0.000    0.000    0.000 
#
# Total GULP energy -694431.869708 kJ/mol
# GULP energy per Si atom -12400.569102 kJ/mol
# Density = 2.086947 g / cm^3
# Si number density = 20.917078 Si / 1000 Ang^3
#
#
#
# Elastic Constant Matrix: (Units=GPa)
#
#
# Indices 1 2 3 4 5 6 
#
# 1 113.1976 43.0960 25.7934 0.0000 0.0000 0.0000
# 2 43.0960 97.5075 7.5465 0.0000 0.0000 0.0000
# 3 25.7934 7.5465 87.3598 0.0000 0.0000 0.0000
# 4 0.0000 0.0000 0.0000 27.0448 0.0000 0.0000
# 5 0.0000 0.0000 0.0000 0.0000 21.8225 0.0000
# 6 0.0000 0.0000 0.0000 0.0000 0.0000 17.7211
#
#
#
# Elastic Compliance Matrix: (Units=1/GPa)
#
#
# Indices 1 2 3 4 5 6 
#
# 1 0.011320 -0.004776 -0.002930 0.000000 0.000000 0.000000
# 2 -0.004776 0.012340 0.000344 0.000000 0.000000 0.000000
# 3 -0.002930 0.000344 0.012282 0.000000 0.000000 0.000000
# 4 0.000000 0.000000 0.000000 0.036976 0.000000 0.000000
# 5 0.000000 0.000000 0.000000 0.000000 0.045824 0.000000
# 6 0.000000 0.000000 0.000000 0.000000 0.000000 0.056430
#
#
# Mechanical properties :
#
#
# Convention : Reuss Voigt Hill
#
# Bulk Modulus (GPa) = 47.12853 50.10409 48.61631
# Shear Modulus (GPa) = 25.38469 28.09293 26.73881
#
# Velocity S-wave (km/s) = 3.48744 3.66876 3.57925
# Velocity P-wave (km/s) = 6.22867 6.47704 6.35407
#
# Compressibility (1/GPa) = 0.02121857
#
# Stress axis : x y z
#
# Youngs Moduli (GPa) = 88.33795 81.03682 81.41878
#
# Poissons Ratio (x) = 0.38707 0.23853
# Poissons Ratio (y) = 0.42195 -0.02803
# Poissons Ratio (z) = 0.25881 -0.02790
#
# Static dielectric constant tensor:
#      x y z
#    x 4.111050 0.000000 0.000000 
#    y 0.000000 3.820840 0.000000 
#    z 0.000000 0.000000 2.565010 
# 
# 
# High freq. dielectric constant tensor:
#      x y z
#    x 1.815860 0.000000 0.000000 
#    y 0.000000 1.822970 0.000000 
#    z 0.000000 0.000000 1.830340 
# 
# From -- ./inp_files/23800.got.cif
#   From: 2010.03.12/outbox.cif.g09.slc.cpg/sg67_12_cif.got.tgz:23800.got - 2010.04.10 22:41:39.
