data_PCOD8280145
_publ_section_title
;
Structure prediction by ZEFSAII (Michael W. Deem and Ramdas Pophale) SiO2 
 PCOD8280145
Probable space group: C M M A
;
_chemical_formula_sum "Si O2"
_cell_formula_units_Z 104
_cell_length_a 29.188508
_cell_length_b 8.871181
_cell_length_c 20.197388
_cell_angle_alpha 90.000000
_cell_angle_beta 90.000000
_cell_angle_gamma 90.000000
_cell_volume 5229.841717
_symmetry_space_group_name_H-M "C M M A"
_symmetry_group_IT_number 67
_symmetry_cell_setting 'orthorhombic'
loop_
_space_group_symop_operation_xyz
x,y,z
-x,1/2-y,z
x,-y,-z
-x,1/2+y,-z
-x,-y,-z
x,1/2+y,-z
-x,y,z
x,1/2-y,z
1/2+x,1/2+y,z
1/2-x,-y,z
1/2+x,1/2-y,-z
1/2-x,y,-z
1/2-x,1/2-y,-z
1/2+x,y,-z
1/2-x,1/2+y,z
1/2+x,-y,z
loop_
_atom_site_type_symbol
_atom_site_label
_atom_site_fract_x
_atom_site_fract_y
_atom_site_fract_z
Si Si1 0.051030 0.918366 0.740450
Si Si2 0.299603 0.570086 0.809559
Si Si3 0.451424 0.579488 0.102855
Si Si4 0.500000 0.422677 0.569863
Si Si5 0.852969 0.568722 0.932190
Si Si6 0.364123 0.076540 0.309703
Si Si7 0.100554 0.075339 0.429067
O O1 0.067498 0.750000 0.717501
O O2 0.049260 0.923673 0.818741
O O3 0.000000 0.947459 0.710440
O O4 0.085617 0.048097 0.719545
O O5 0.297983 0.750000 0.818495
O O6 0.250000 0.500000 0.802078
O O7 0.323392 0.495636 0.872529
O O8 0.326455 0.522056 0.743025
O O9 0.500000 0.502419 0.079136
O O10 0.451545 0.750000 0.077321
O O11 0.405182 0.504082 0.074519
O O12 0.500000 0.250000 0.551485
O O13 0.500000 0.500000 0.500000
O O14 0.549554 0.460144 0.604304
O O15 0.850247 0.750000 0.931402
O O16 0.832656 0.500000 0.000000
O O17 0.357696 0.250000 0.326190
O O18 0.360615 0.986483 0.379060
O O19 0.108840 0.250000 0.439868
O O20 0.105842 0.000000 0.500000
#
# Coordination Sequence:
#
# PCOD8280145 Si02
#       7
#    16  16  16   8  16  16  16
#     4   9  17  31  53  80 112 153 200 241 280 336
#     4  11  25  45  67  90 116 145 189 244 301 361
#     4   8  15  30  53  81 115 157 200 238 278 331
#     4   8  16  30  48  74 110 156 203 240 273 320
#     4  11  22  38  62  89 122 158 196 240 291 347
#     4  11  23  37  57  87 120 152 191 241 296 351
#     4  10  20  35  55  81 118 161 204 243 284 337
#
# _framework density 19.885878999999999
#
# number of rings (size 3 to 8) (size 9 to 14) (size 15 to 20)
#    0.000    2.154    1.538    2.769    1.077    3.385 
#    0.000    1.538    0.000    1.846    0.000    3.231 
#    0.000    0.000    0.000    0.000    0.000    0.000 
#
# Total GULP energy -644317.125204 kJ/mol
# GULP energy per Si atom -12390.713946 kJ/mol
# Density = 1.984062 g / cm^3
# Si number density = 19.885879 Si / 1000 Ang^3
#
#
#
# Elastic Constant Matrix: (Units=GPa)
#
#
# Indices 1 2 3 4 5 6 
#
# 1 122.2087 48.3774 71.7565 0.0000 0.0000 0.0000
# 2 48.3774 80.4192 58.9500 0.0000 0.0000 0.0000
# 3 71.7565 58.9500 116.1621 0.0000 0.0000 0.0000
# 4 0.0000 0.0000 0.0000 31.2827 0.0000 0.0000
# 5 0.0000 0.0000 0.0000 0.0000 114.0682 0.0000
# 6 0.0000 0.0000 0.0000 0.0000 0.0000 23.1306
#
#
#
# Elastic Compliance Matrix: (Units=1/GPa)
#
#
# Indices 1 2 3 4 5 6 
#
# 1 0.013325 -0.003156 -0.006629 0.000000 0.000000 0.000000
# 2 -0.003156 0.020548 -0.008478 0.000000 0.000000 0.000000
# 3 -0.006629 -0.008478 0.017006 0.000000 0.000000 0.000000
# 4 0.000000 0.000000 0.000000 0.031967 0.000000 0.000000
# 5 0.000000 0.000000 0.000000 0.000000 0.008767 0.000000
# 6 0.000000 0.000000 0.000000 0.000000 0.000000 0.043233
#
#
# Mechanical properties :
#
#
# Convention : Reuss Voigt Hill
#
# Bulk Modulus (GPa) = 69.67726 75.21752 72.44739
# Shear Modulus (GPa) = 28.38387 43.01003 35.69695
#
# Velocity S-wave (km/s) = 3.78211 4.65568 4.24145
# Velocity P-wave (km/s) = 7.36119 8.17357 7.77799
#
# Compressibility (1/GPa) = 0.01435188
#
# Stress axis : x y z
#
# Youngs Moduli (GPa) = 75.04928 48.66588 58.80175
#
# Poissons Ratio (x) = 0.15359 0.38981
# Poissons Ratio (y) = 0.23686 0.49853
# Poissons Ratio (z) = 0.49752 0.41260
#
# Static dielectric constant tensor:
#      x y z
#    x 3.749390 0.000000 0.000000 
#    y 0.000000 3.522970 0.000000 
#    z 0.000000 0.000000 3.664820 
# 
# 
# High freq. dielectric constant tensor:
#      x y z
#    x 1.756410 0.000000 0.000000 
#    y 0.000000 1.760860 0.000000 
#    z 0.000000 0.000000 1.791230 
# 
# From -- ./inp_files/39942.got.cif
#   From: 2010.03.12/outbox.cif.g09.slc.cpg/sg67_20_cif.got.tgz:39942.got - 2010.04.10 22:41:39.
