data_PCOD8280503
_publ_section_title
;
Structure prediction by ZEFSAII (Michael W. Deem and Ramdas Pophale) SiO2 
 PCOD8280503
Probable space group: C M M A
;
_chemical_formula_sum "Si O2"
_cell_formula_units_Z 112
_cell_length_a 27.900654
_cell_length_b 13.332068
_cell_length_c 13.042757
_cell_angle_alpha 90.000000
_cell_angle_beta 90.000000
_cell_angle_gamma 90.000000
_cell_volume 4851.558880
_symmetry_space_group_name_H-M "C M M A"
_symmetry_group_IT_number 67
_symmetry_cell_setting 'orthorhombic'
loop_
_space_group_symop_operation_xyz
x,y,z
-x,1/2-y,z
x,-y,-z
-x,1/2+y,-z
-x,-y,-z
x,1/2+y,-z
-x,y,z
x,1/2-y,z
1/2+x,1/2+y,z
1/2-x,-y,z
1/2+x,1/2-y,-z
1/2-x,y,-z
1/2-x,1/2-y,-z
1/2+x,y,-z
1/2-x,1/2+y,z
1/2+x,-y,z
loop_
_atom_site_type_symbol
_atom_site_label
_atom_site_fract_x
_atom_site_fract_y
_atom_site_fract_z
Si Si1 0.945741 0.869570 0.557687
Si Si2 0.882077 0.631170 0.746340
Si Si3 0.802317 0.020290 0.717453
Si Si4 0.794687 0.867495 0.068440
Si Si5 0.393965 0.367304 0.970476
Si Si6 0.887444 0.131124 0.638378
Si Si7 0.553449 0.129838 0.165855
O O1 0.946281 0.750000 0.556287
O O2 0.917457 0.908301 0.657697
O O3 0.918930 0.911058 0.456233
O O4 0.000000 0.911105 0.559466
O O5 0.874949 0.750000 0.743211
O O6 0.829310 0.585311 0.733011
O O7 0.905089 0.595471 0.854978
O O8 0.794765 0.075918 0.824607
O O9 0.833513 0.087647 0.638193
O O10 0.750000 0.000000 0.668304
O O11 0.793876 0.750000 0.094101
O O12 0.840244 0.897200 0.000334
O O13 0.750000 0.901253 0.000000
O O14 0.401790 0.250000 0.974160
O O15 0.428904 0.415351 0.056441
O O16 0.884779 0.250000 0.631538
O O17 0.911438 0.092368 0.744124
O O18 0.500000 0.090617 0.187533
O O19 0.554608 0.250000 0.164426
#
# Coordination Sequence:
#
# PCOD8280503 Si02
#       7
#    16  16  16  16  16  16  16
#     4   9  19  40  71  97 119 161 214 261 317 386
#     4  10  23  41  59  86 127 167 210 258 305 368
#     4  12  25  39  61  91 122 167 214 261 314 378
#     4  10  20  37  62  92 125 164 212 263 315 372
#     4   9  17  32  54  83 122 161 194 242 302 366
#     4  10  20  39  64  93 125 152 198 268 326 374
#     4   9  16  29  55  89 122 155 188 235 313 387
#
# _framework density 23.085363000000001
#
# number of rings (size 3 to 8) (size 9 to 14) (size 15 to 20)
#    0.000    2.143    1.429    1.714    0.000    7.143 
#    0.000    6.429    0.000    3.857    0.000    0.000 
#    0.000    0.000    0.000    0.000    0.000    0.000 
#
# Total GULP energy -694448.325771 kJ/mol
# GULP energy per Si atom -12400.862960 kJ/mol
# Density = 2.303282 g / cm^3
# Si number density = 23.085363 Si / 1000 Ang^3
#
#
#
# Elastic Constant Matrix: (Units=GPa)
#
#
# Indices 1 2 3 4 5 6 
#
# 1 194.2830 24.1267 99.0772 0.0000 0.0000 0.0000
# 2 24.1267 49.6533 37.0286 0.0000 0.0000 0.0000
# 3 99.0772 37.0286 142.7934 0.0000 0.0000 0.0000
# 4 0.0000 0.0000 0.0000 31.7583 0.0000 0.0000
# 5 0.0000 0.0000 0.0000 0.0000 45.0142 0.0000
# 6 0.0000 0.0000 0.0000 0.0000 0.0000 15.0171
#
#
#
# Elastic Compliance Matrix: (Units=1/GPa)
#
#
# Indices 1 2 3 4 5 6 
#
# 1 0.007970 0.000312 -0.005610 0.000000 0.000000 0.000000
# 2 0.000312 0.024980 -0.006694 0.000000 0.000000 0.000000
# 3 -0.005610 -0.006694 0.012632 0.000000 0.000000 0.000000
# 4 0.000000 0.000000 0.000000 0.031488 0.000000 0.000000
# 5 0.000000 0.000000 0.000000 0.000000 0.022215 0.000000
# 6 0.000000 0.000000 0.000000 0.000000 0.000000 0.066591
#
#
# Mechanical properties :
#
#
# Convention : Reuss Voigt Hill
#
# Bulk Modulus (GPa) = 46.30515 78.57718 62.44117
# Shear Modulus (GPa) = 25.37301 33.45774 29.41538
#
# Velocity S-wave (km/s) = 3.31886 3.81110 3.57347
# Velocity P-wave (km/s) = 5.89815 7.31284 6.64326
#
# Compressibility (1/GPa) = 0.02159587
#
# Stress axis : x y z
#
# Youngs Moduli (GPa) = 125.47710 40.03163 79.16534
#
# Poissons Ratio (x) = -0.01247 0.44416
# Poissons Ratio (y) = -0.03909 0.52993
# Poissons Ratio (z) = 0.70399 0.26797
#
# Static dielectric constant tensor:
#      x y z
#    x 4.318660 0.000000 0.000000 
#    y 0.000000 4.117340 0.000000 
#    z 0.000000 0.000000 4.250900 
# 
# 
# High freq. dielectric constant tensor:
#      x y z
#    x 1.902280 0.000000 0.000000 
#    y 0.000000 1.932550 0.000000 
#    z 0.000000 0.000000 1.908650 
# 
# From -- ./inp_files/23845.got.cif
#   From: 2010.03.12/outbox.cif.g09.slc.cpg/sg67_12_cif.got.tgz:23845.got - 2010.04.10 22:41:39.
