data_PCOD8280199
_publ_section_title
;
Structure prediction by ZEFSAII (Michael W. Deem and Ramdas Pophale) SiO2 
 PCOD8280199
Probable space group: C M M A
;
_chemical_formula_sum "Si O2"
_cell_formula_units_Z 88
_cell_length_a 16.261186
_cell_length_b 8.872261
_cell_length_c 30.445289
_cell_angle_alpha 90.000000
_cell_angle_beta 90.000000
_cell_angle_gamma 90.000000
_cell_volume 4392.447987
_symmetry_space_group_name_H-M "C M M A"
_symmetry_group_IT_number 67
_symmetry_cell_setting 'orthorhombic'
loop_
_space_group_symop_operation_xyz
x,y,z
-x,1/2-y,z
x,-y,-z
-x,1/2+y,-z
-x,-y,-z
x,1/2+y,-z
-x,y,z
x,1/2-y,z
1/2+x,1/2+y,z
1/2-x,-y,z
1/2+x,1/2-y,-z
1/2-x,y,-z
1/2-x,1/2-y,-z
1/2+x,y,-z
1/2-x,1/2+y,z
1/2+x,-y,z
loop_
_atom_site_type_symbol
_atom_site_label
_atom_site_fract_x
_atom_site_fract_y
_atom_site_fract_z
Si Si1 0.660879 0.071070 0.542936
Si Si2 0.905199 0.914472 0.635442
Si Si3 0.338225 0.574310 0.198714
Si Si4 0.838844 0.573287 0.282529
Si Si5 0.000000 0.929747 0.952370
Si Si6 0.160261 0.425874 0.100775
O O1 0.664353 0.250000 0.537854
O O2 0.615950 0.020875 0.587487
O O3 0.615445 0.000000 0.500000
O O4 0.750000 0.000000 0.545626
O O5 0.861524 0.750000 0.643224
O O6 0.000000 0.885727 0.637501
O O7 0.883525 0.035539 0.672304
O O8 0.332622 0.750000 0.208966
O O9 0.250000 0.500000 0.198318
O O10 0.386847 0.495566 0.239464
O O11 0.374280 0.543934 0.150194
O O12 0.833120 0.750000 0.276693
O O13 0.750000 0.500000 0.285115
O O14 0.915015 0.986484 0.929273
O O15 0.000000 0.750000 0.953964
O O16 0.000000 0.000000 0.000000
O O17 0.175215 0.250000 0.092971
O O18 0.250000 0.500000 0.090848
#
# Coordination Sequence:
#
# PCOD8280199 Si02
#       6
#    16  16  16  16   8  16
#     4  10  20  35  57  81 103 131 171 218 266 318
#     4  10  22  39  55  75 107 144 180 219 268 326
#     4   9  16  30  53  80 107 141 182 226 275 328
#     4  11  21  34  55  81 110 143 182 226 272 325
#     4  10  22  40  58  84 118 154 196 242 289 350
#     4   9  19  36  59  84 115 151 195 241 291 347
#
# _framework density 20.034386000000001
#
# number of rings (size 3 to 8) (size 9 to 14) (size 15 to 20)
#    0.000    2.182    0.000    4.909    0.000    5.455 
#    1.636    1.818    0.000    0.000    0.000    0.000 
#    0.000    0.000    0.000    0.000    0.000    0.000 
#
# Total GULP energy -545087.260232 kJ/mol
# GULP energy per Si atom -12388.346823 kJ/mol
# Density = 1.998879 g / cm^3
# Si number density = 20.034386 Si / 1000 Ang^3
#
#
#
# Elastic Constant Matrix: (Units=GPa)
#
#
# Indices 1 2 3 4 5 6 
#
# 1 78.0032 37.1934 59.6455 0.0000 0.0000 0.0000
# 2 37.1934 100.6717 76.0879 0.0000 0.0000 0.0000
# 3 59.6455 76.0879 188.9608 0.0000 0.0000 0.0000
# 4 0.0000 0.0000 0.0000 35.3705 0.0000 0.0000
# 5 0.0000 0.0000 0.0000 0.0000 -13.3312 0.0000
# 6 0.0000 0.0000 0.0000 0.0000 0.0000 15.4538
#
#
#
# Elastic Compliance Matrix: (Units=1/GPa)
#
#
# Indices 1 2 3 4 5 6 
#
# 1 0.017638 -0.003318 -0.004231 0.000000 0.000000 0.000000
# 2 -0.003318 0.014903 -0.004954 0.000000 0.000000 0.000000
# 3 -0.004231 -0.004954 0.008622 0.000000 0.000000 0.000000
# 4 0.000000 0.000000 0.000000 0.028272 0.000000 0.000000
# 5 0.000000 0.000000 0.000000 0.000000 -0.075012 0.000000
# 6 0.000000 0.000000 0.000000 0.000000 0.000000 0.064709
#
#
# Mechanical properties :
#
#
# Convention : Reuss Voigt Hill
#
# Bulk Modulus (GPa) = 61.89274 79.27657 70.58466
# Shear Modulus (GPa) = 55.85120 20.47922 38.16521
#
# Velocity S-wave (km/s) = 5.28566 3.20066 4.36935
# Velocity P-wave (km/s) = 8.25901 7.30172 7.79507
#
# Compressibility (1/GPa) = 0.01615698
#
# Stress axis : x y z
#
# Youngs Moduli (GPa) = 56.69703 67.09990 115.97869
#
# Poissons Ratio (x) = 0.22266 0.49072
# Poissons Ratio (y) = 0.18814 0.57450
# Poissons Ratio (z) = 0.23989 0.33238
#
# Static dielectric constant tensor:
#      x y z
#    x 3.433840 0.000000 0.000000 
#    y 0.000000 3.629170 0.000000 
#    z 0.000000 0.000000 7.319650 
# 
# 
# High freq. dielectric constant tensor:
#      x y z
#    x 1.749920 0.000000 0.000000 
#    y 0.000000 1.782940 0.000000 
#    z 0.000000 0.000000 1.805350 
# 
# From -- ./inp_files/45797.got.cif
#   From: 2010.03.12/outbox.cif.g09.slc.cpg/sg67_23_cif.got.tgz:45797.got - 2010.04.10 22:41:39.
