data_PCOD8280071
_publ_section_title
;
Structure prediction by ZEFSAII (Michael W. Deem and Ramdas Pophale) SiO2 
 PCOD8280071
Probable space group: C M M A
;
_chemical_formula_sum "Si O2"
_cell_formula_units_Z 96
_cell_length_a 8.849298
_cell_length_b 25.836793
_cell_length_c 23.453959
_cell_angle_alpha 90.000000
_cell_angle_beta 90.000000
_cell_angle_gamma 90.000000
_cell_volume 5362.454096
_symmetry_space_group_name_H-M "C M M A"
_symmetry_group_IT_number 67
_symmetry_cell_setting 'orthorhombic'
loop_
_space_group_symop_operation_xyz
x,y,z
-x,1/2-y,z
x,-y,-z
-x,1/2+y,-z
-x,-y,-z
x,1/2+y,-z
-x,y,z
x,1/2-y,z
1/2+x,1/2+y,z
1/2-x,-y,z
1/2+x,1/2-y,-z
1/2-x,y,-z
1/2-x,1/2-y,-z
1/2+x,y,-z
1/2-x,1/2+y,z
1/2+x,-y,z
loop_
_atom_site_type_symbol
_atom_site_label
_atom_site_fract_x
_atom_site_fract_y
_atom_site_fract_z
Si Si1 0.178918 0.152998 0.178511
Si Si2 0.180206 0.750000 0.242140
Si Si3 0.676717 0.191497 0.943343
Si Si4 0.823045 0.052863 0.634761
Si Si5 0.321084 0.054048 0.234245
Si Si6 0.820274 0.149552 0.561878
Si Si7 0.320760 0.750000 0.628008
O O1 0.256083 0.198820 0.213267
O O2 0.221039 0.158351 0.111946
O O3 0.245002 0.098478 0.197336
O O4 0.000000 0.155710 0.188591
O O5 0.237451 0.750000 0.307301
O O6 0.000000 0.750000 0.237851
O O7 0.500000 0.191829 0.952835
O O8 0.737485 0.250000 0.934287
O O9 0.750000 0.166503 0.000000
O O10 0.778378 0.064320 0.699985
O O11 0.761935 0.099581 0.596270
O O12 0.000000 0.046533 0.628344
O O13 0.750000 0.000000 0.612330
O O14 0.500000 0.053501 0.224425
O O15 0.250000 0.000000 0.213713
O O16 0.750000 0.148597 0.500000
O O17 0.758880 0.199600 0.595412
O O18 0.000000 0.150340 0.557214
O O19 0.500000 0.750000 0.627912
#
# Coordination Sequence:
#
# PCOD8280071 Si02
#       7
#    16   8  16  16  16  16   8
#     4  11  21  35  53  80 116 145 174 221 271 316
#     4  11  21  34  55  81 106 140 180 219 266 321
#     4   9  18  33  51  74 108 146 181 218 261 308
#     4   9  19  35  54  75 102 131 166 212 260 309
#     4  10  20  36  57  81 106 141 182 219 265 320
#     4  10  20  35  53  73  98 130 167 210 255 307
#     4   9  19  36  54  71  99 134 169 211 258 307
#
# _framework density 17.902251
#
# number of rings (size 3 to 8) (size 9 to 14) (size 15 to 20)
#    0.000    2.167    0.833    2.500    0.000    5.667 
#    0.000    5.000    0.000    0.500    0.000    3.500 
#    0.000    0.000    0.000    0.000    0.000    0.000 
#
# Total GULP energy -595281.775216 kJ/mol
# GULP energy per Si atom -12401.703650 kJ/mol
# Density = 1.786151 g / cm^3
# Si number density = 17.902251 Si / 1000 Ang^3
#
#
#
# Elastic Constant Matrix: (Units=GPa)
#
#
# Indices 1 2 3 4 5 6 
#
# 1 54.6187 49.4912 51.9719 0.0000 0.0000 0.0000
# 2 49.4912 166.7542 98.9917 0.0000 0.0000 0.0000
# 3 51.9719 98.9917 152.8754 0.0000 0.0000 0.0000
# 4 0.0000 0.0000 0.0000 27.7256 0.0000 0.0000
# 5 0.0000 0.0000 0.0000 0.0000 31.4209 0.0000
# 6 0.0000 0.0000 0.0000 0.0000 0.0000 30.2882
#
#
#
# Elastic Compliance Matrix: (Units=1/GPa)
#
#
# Indices 1 2 3 4 5 6 
#
# 1 0.028980 -0.004471 -0.006957 0.000000 0.000000 0.000000
# 2 -0.004471 0.010431 -0.005235 0.000000 0.000000 0.000000
# 3 -0.006957 -0.005235 0.012296 0.000000 0.000000 0.000000
# 4 0.000000 0.000000 0.000000 0.036068 0.000000 0.000000
# 5 0.000000 0.000000 0.000000 0.000000 0.031826 0.000000
# 6 0.000000 0.000000 0.000000 0.000000 0.000000 0.033016
#
#
# Mechanical properties :
#
#
# Convention : Reuss Voigt Hill
#
# Bulk Modulus (GPa) = 54.40128 86.12866 70.26497
# Shear Modulus (GPa) = 26.03227 29.47319 27.75273
#
# Velocity S-wave (km/s) = 3.81745 4.06191 3.94158
# Velocity P-wave (km/s) = 7.06289 8.37937 7.74914
#
# Compressibility (1/GPa) = 0.01838192
#
# Stress axis : x y z
#
# Youngs Moduli (GPa) = 34.50674 95.86559 81.32788
#
# Poissons Ratio (x) = 0.42862 0.56579
# Poissons Ratio (y) = 0.15428 0.42572
# Poissons Ratio (z) = 0.24006 0.50182
#
# Static dielectric constant tensor:
#      x y z
#    x 3.247430 0.000000 0.000000 
#    y 0.000000 3.676710 0.000000 
#    z 0.000000 0.000000 3.433390 
# 
# 
# High freq. dielectric constant tensor:
#      x y z
#    x 1.688180 0.000000 0.000000 
#    y 0.000000 1.693430 0.000000 
#    z 0.000000 0.000000 1.695760 
# 
# From -- ./inp_files/40842.got.cif
#   From: 2010.03.12/outbox.cif.g09.slc.cpg/sg67_21_cif.got.tgz:40842.got - 2010.04.10 22:41:39.
