data_PCOD8280928
_publ_section_title
;
Structure prediction by ZEFSAII (Michael W. Deem and Ramdas Pophale) SiO2 
 PCOD8280928
Probable space group: C M M A
;
_chemical_formula_sum "Si O2"
_cell_formula_units_Z 64
_cell_length_a 11.000649
_cell_length_b 14.726537
_cell_length_c 17.667488
_cell_angle_alpha 90.000000
_cell_angle_beta 90.000000
_cell_angle_gamma 90.000000
_cell_volume 2862.158930
_symmetry_space_group_name_H-M "C M M A"
_symmetry_group_IT_number 67
_symmetry_cell_setting 'orthorhombic'
loop_
_space_group_symop_operation_xyz
x,y,z
-x,1/2-y,z
x,-y,-z
-x,1/2+y,-z
-x,-y,-z
x,1/2+y,-z
-x,y,z
x,1/2-y,z
1/2+x,1/2+y,z
1/2-x,-y,z
1/2+x,1/2-y,-z
1/2-x,y,-z
1/2-x,1/2-y,-z
1/2+x,y,-z
1/2-x,1/2+y,z
1/2+x,-y,z
loop_
_atom_site_type_symbol
_atom_site_label
_atom_site_fract_x
_atom_site_fract_y
_atom_site_fract_z
Si Si1 0.641178 0.750000 0.733563
Si Si2 0.131595 0.938521 0.639191
Si Si3 0.630910 0.146070 0.961177
Si Si4 0.789011 0.750000 0.585794
Si Si5 0.204869 0.595699 0.802061
O O1 0.500000 0.750000 0.738359
O O2 0.678044 0.750000 0.645313
O O3 0.685140 0.840107 0.776074
O O4 0.134357 0.841430 0.598217
O O5 0.121996 0.922416 0.729006
O O6 0.000000 0.983715 0.616164
O O7 0.250000 0.000000 0.617226
O O8 0.500000 0.103128 0.987658
O O9 0.630476 0.250000 0.987441
O O10 0.633098 0.142507 0.870112
O O11 0.750000 0.098519 0.000000
O O12 0.750000 0.750000 0.500000
O O13 0.250000 0.500000 0.834633
#
# Coordination Sequence:
#
# PCOD8280928 Si02
#       5
#     8  16  16   8  16
#     4  10  22  39  61  92 127 159 197 259 320 364
#     4  10  22  41  65  93 126 164 209 258 310 367
#     4  10  21  38  59  85 118 158 201 249 305 365
#     4  10  23  41  62  92 126 167 212 253 304 374
#     4  10  21  38  62  90 119 158 207 254 305 369
#
# _framework density 22.360742999999999
#
# number of rings (size 3 to 8) (size 9 to 14) (size 15 to 20)
#    0.000    2.000    1.250    1.125    0.000   13.000 
#    0.000    2.500    0.000    0.000    0.000    0.000 
#    0.000    0.000    0.000    0.000    0.000    0.000 
#
# Total GULP energy -396422.642661 kJ/mol
# GULP energy per Si atom -12388.207583 kJ/mol
# Density = 2.230985 g / cm^3
# Si number density = 22.360743 Si / 1000 Ang^3
#
#
#
# Elastic Constant Matrix: (Units=GPa)
#
#
# Indices 1 2 3 4 5 6 
#
# 1 231.2801 54.7677 39.9275 0.0000 0.0000 0.0000
# 2 54.7677 99.9336 18.0673 0.0000 0.0000 0.0000
# 3 39.9275 18.0673 87.7670 0.0000 0.0000 0.0000
# 4 0.0000 0.0000 0.0000 13.6207 0.0000 0.0000
# 5 0.0000 0.0000 0.0000 0.0000 1.8099 0.0000
# 6 0.0000 0.0000 0.0000 0.0000 0.0000 11.8531
#
#
#
# Elastic Compliance Matrix: (Units=1/GPa)
#
#
# Indices 1 2 3 4 5 6 
#
# 1 0.005247 -0.002538 -0.001864 0.000000 0.000000 0.000000
# 2 -0.002538 0.011622 -0.001238 0.000000 0.000000 0.000000
# 3 -0.001864 -0.001238 0.012497 0.000000 0.000000 0.000000
# 4 0.000000 0.000000 0.000000 0.073418 0.000000 0.000000
# 5 0.000000 0.000000 0.000000 0.000000 0.552516 0.000000
# 6 0.000000 0.000000 0.000000 0.000000 0.000000 0.084366
#
#
# Mechanical properties :
#
#
# Convention : Reuss Voigt Hill
#
# Bulk Modulus (GPa) = 55.29632 71.61174 63.45403
# Shear Modulus (GPa) = 6.60525 25.87128 16.23827
#
# Velocity S-wave (km/s) = 1.72057 3.40515 2.69772
# Velocity P-wave (km/s) = 5.36004 6.89603 6.17597
#
# Compressibility (1/GPa) = 0.01808438
#
# Stress axis : x y z
#
# Youngs Moduli (GPa) = 190.59597 86.04736 80.02115
#
# Poissons Ratio (x) = 0.21842 0.14919
# Poissons Ratio (y) = 0.48380 0.09903
# Poissons Ratio (z) = 0.35533 0.10649
#
# Static dielectric constant tensor:
#      x y z
#    x 4.042160 0.000000 0.000000 
#    y 0.000000 7.710540 0.000000 
#    z 0.000000 0.000000 3.813920 
# 
# 
# High freq. dielectric constant tensor:
#      x y z
#    x 1.882370 0.000000 0.000000 
#    y 0.000000 1.877040 0.000000 
#    z 0.000000 0.000000 1.865920 
# 
# From -- ./inp_files/32696.got.cif
#   From: 2010.03.12/outbox.cif.g09.slc.cpg/sg67_17_cif.got.tgz:32696.got - 2010.04.10 22:41:39.
