data_PCOD8280800
_publ_section_title
;
Structure prediction by ZEFSAII (Michael W. Deem and Ramdas Pophale) SiO2 
 PCOD8280800
Probable space group: C M M A
;
_chemical_formula_sum "Si O2"
_cell_formula_units_Z 96
_cell_length_a 17.654861
_cell_length_b 14.559162
_cell_length_c 19.417873
_cell_angle_alpha 90.000000
_cell_angle_beta 90.000000
_cell_angle_gamma 90.000000
_cell_volume 4991.169714
_symmetry_space_group_name_H-M "C M M A"
_symmetry_group_IT_number 67
_symmetry_cell_setting 'orthorhombic'
loop_
_space_group_symop_operation_xyz
x,y,z
-x,1/2-y,z
x,-y,-z
-x,1/2+y,-z
-x,-y,-z
x,1/2+y,-z
-x,y,z
x,1/2-y,z
1/2+x,1/2+y,z
1/2-x,-y,z
1/2+x,1/2-y,-z
1/2-x,y,-z
1/2-x,1/2-y,-z
1/2+x,y,-z
1/2-x,1/2+y,z
1/2+x,-y,z
loop_
_atom_site_type_symbol
_atom_site_label
_atom_site_fract_x
_atom_site_fract_y
_atom_site_fract_z
Si Si1 0.164776 0.641121 0.500001
Si Si2 0.088266 0.142720 0.360556
Si Si3 0.588264 0.357282 0.360558
Si Si4 0.340165 0.352885 0.999999
Si Si5 0.340028 0.500002 0.737222
Si Si6 0.839931 0.499999 0.892540
O O1 0.164707 0.750000 0.500003
O O2 0.250000 0.601875 0.500000
O O3 0.121685 0.605136 0.567538
O O4 0.121684 0.605139 0.432465
O O5 0.104633 0.250000 0.351008
O O6 0.129187 0.091603 0.298387
O O7 0.000000 0.119801 0.359769
O O8 0.500000 0.380220 0.359768
O O9 0.604617 0.250000 0.351012
O O10 0.629193 0.408391 0.298389
O O11 0.375091 0.250000 0.999999
O O12 0.368301 0.408377 0.932336
O O13 0.250000 0.347363 0.000000
O O14 0.368302 0.408376 0.067663
O O15 0.250000 0.500000 0.734368
O O16 0.371601 0.500003 0.815154
O O17 0.750000 0.500000 0.891794
#
# Coordination Sequence:
#
# PCOD8280800 Si02
#       6
#    16  16  16  16  16  16
#     4   9  17  32  55  80 104 131 171 226 277 316
#     4  10  21  37  55  75 103 141 182 221 264 317
#     4  10  21  37  55  75 103 141 182 221 264 317
#     4   8  13  25  46  69  97 134 168 200 248 308
#     4  11  22  34  51  78 111 142 174 217 266 314
#     4   8  16  28  42  69 105 134 165 206 252 306
#
# _framework density 19.233968000000001
#
# number of rings (size 3 to 8) (size 9 to 14) (size 15 to 20)
#    0.000    2.667    0.000    3.000    0.000    6.000 
#    0.000    6.667    0.000    0.000    0.000    9.333 
#    0.000   16.000    0.000    0.000    0.000    0.000 
#
# Total GULP energy -595121.392537 kJ/mol
# GULP energy per Si atom -12398.362345 kJ/mol
# Density = 1.919019 g / cm^3
# Si number density = 19.233968 Si / 1000 Ang^3
#
#
#
# Elastic Constant Matrix: (Units=GPa)
#
#
# Indices 1 2 3 4 5 6 
#
# 1 86.1539 33.6602 55.2845 0.0000 0.0000 0.0000
# 2 33.6602 125.6724 77.4157 0.0000 0.0000 0.0000
# 3 55.2845 77.4157 202.2924 0.0000 0.0000 0.0000
# 4 0.0000 0.0000 0.0000 17.3069 0.0000 0.0000
# 5 0.0000 0.0000 0.0000 0.0000 2.0075 0.0000
# 6 0.0000 0.0000 0.0000 0.0000 0.0000 21.6291
#
#
#
# Elastic Compliance Matrix: (Units=1/GPa)
#
#
# Indices 1 2 3 4 5 6 
#
# 1 0.014406 -0.001875 -0.003219 0.000000 0.000000 0.000000
# 2 -0.001875 0.010656 -0.003565 0.000000 0.000000 0.000000
# 3 -0.003219 -0.003565 0.007188 0.000000 0.000000 0.000000
# 4 0.000000 0.000000 0.000000 0.057780 0.000000 0.000000
# 5 0.000000 0.000000 0.000000 0.000000 0.498129 0.000000
# 6 0.000000 0.000000 0.000000 0.000000 0.000000 0.046234
#
#
# Mechanical properties :
#
#
# Convention : Reuss Voigt Hill
#
# Bulk Modulus (GPa) = 66.98335 82.98217 74.98276
# Shear Modulus (GPa) = 7.61396 24.70591 16.15993
#
# Velocity S-wave (km/s) = 1.99178 3.58787 2.90172
# Velocity P-wave (km/s) = 6.33962 7.77181 7.09196
#
# Compressibility (1/GPa) = 0.01492908
#
# Stress axis : x y z
#
# Youngs Moduli (GPa) = 69.41748 93.84557 139.12914
#
# Poissons Ratio (x) = 0.17599 0.44789
# Poissons Ratio (y) = 0.13018 0.49605
# Poissons Ratio (z) = 0.22347 0.33460
#
# Static dielectric constant tensor:
#      x y z
#    x 3.267710 0.000000 0.000000 
#    y 0.000000 3.574040 0.000000 
#    z 0.000000 0.000000 3.765460 
# 
# 
# High freq. dielectric constant tensor:
#      x y z
#    x 1.721590 0.000000 0.000000 
#    y 0.000000 1.754340 0.000000 
#    z 0.000000 0.000000 1.749620 
# 
# From -- ./inp_files/38431.got.cif
#   From: 2010.03.12/outbox.cif.g09.slc.cpg/sg67_20_cif.got.tgz:38431.got - 2010.04.10 22:41:39.
