data_PCOD8280774
_publ_section_title
;
Structure prediction by ZEFSAII (Michael W. Deem and Ramdas Pophale) SiO2 
 PCOD8280774
Probable space group: C M M A
;
_chemical_formula_sum "Si O2"
_cell_formula_units_Z 96
_cell_length_a 17.605406
_cell_length_b 21.826851
_cell_length_c 12.152455
_cell_angle_alpha 90.000000
_cell_angle_beta 90.000000
_cell_angle_gamma 90.000000
_cell_volume 4669.830853
_symmetry_space_group_name_H-M "C M M A"
_symmetry_group_IT_number 67
_symmetry_cell_setting 'orthorhombic'
loop_
_space_group_symop_operation_xyz
x,y,z
-x,1/2-y,z
x,-y,-z
-x,1/2+y,-z
-x,-y,-z
x,1/2+y,-z
-x,y,z
x,1/2-y,z
1/2+x,1/2+y,z
1/2-x,-y,z
1/2+x,1/2-y,-z
1/2-x,y,-z
1/2-x,1/2-y,-z
1/2+x,y,-z
1/2-x,1/2+y,z
1/2+x,-y,z
loop_
_atom_site_type_symbol
_atom_site_label
_atom_site_fract_x
_atom_site_fract_y
_atom_site_fract_z
Si Si1 0.842984 0.626337 0.258757
Si Si2 0.910789 0.619733 0.841922
Si Si3 0.085827 0.318218 0.937772
Si Si4 0.160442 0.496611 0.874256
Si Si5 0.687320 0.320409 0.671369
Si Si6 0.085881 0.178976 0.534824
O O1 0.858019 0.677260 0.165658
O O2 0.861990 0.562361 0.198026
O O3 0.757611 0.634340 0.304098
O O4 0.900322 0.635895 0.359876
O O5 0.875623 0.554107 0.810293
O O6 0.875425 0.672076 0.765485
O O7 0.000000 0.619890 0.823283
O O8 0.888409 0.635032 0.967466
O O9 0.091011 0.250000 0.986482
O O10 0.000000 0.333252 0.899345
O O11 0.250000 0.500000 0.877581
O O12 0.128352 0.500000 0.000000
O O13 0.715106 0.250000 0.667176
O O14 0.647637 0.339293 0.556945
O O15 0.096560 0.250000 0.568274
O O16 0.000000 0.167382 0.491908
#
# Coordination Sequence:
#
# PCOD8280774 Si02
#       6
#    16  16  16  16  16  16
#     4  12  22  38  66  93 126 166 217 265 319 381
#     4  11  23  40  62  90 124 169 219 261 315 385
#     4  10  21  36  57  92 133 165 204 264 325 384
#     4  11  23  43  63  87 126 170 211 259 321 376
#     4  11  23  40  64  95 130 170 210 261 323 386
#     4  10  22  41  65  95 131 168 210 264 325 387
#
# _framework density 20.557489
#
# number of rings (size 3 to 8) (size 9 to 14) (size 15 to 20)
#    0.000    1.167    3.333    3.500    0.000    6.667 
#    0.000    2.500    0.000    2.000    0.000    0.000 
#    0.000    0.000    0.000    0.000    0.000    0.000 
#
# Total GULP energy -595194.283140 kJ/mol
# GULP energy per Si atom -12399.880899 kJ/mol
# Density = 2.051070 g / cm^3
# Si number density = 20.557489 Si / 1000 Ang^3
#
#
#
# Elastic Constant Matrix: (Units=GPa)
#
#
# Indices 1 2 3 4 5 6 
#
# 1 86.2461 31.7109 45.1126 0.0000 0.0000 0.0000
# 2 31.7109 89.7574 48.6422 0.0000 0.0000 0.0000
# 3 45.1126 48.6422 113.1130 0.0000 0.0000 0.0000
# 4 0.0000 0.0000 0.0000 34.4095 0.0000 0.0000
# 5 0.0000 0.0000 0.0000 0.0000 37.1447 0.0000
# 6 0.0000 0.0000 0.0000 0.0000 0.0000 27.9821
#
#
#
# Elastic Compliance Matrix: (Units=1/GPa)
#
#
# Indices 1 2 3 4 5 6 
#
# 1 0.015140 -0.002707 -0.004874 0.000000 0.000000 0.000000
# 2 -0.002707 0.015011 -0.005375 0.000000 0.000000 0.000000
# 3 -0.004874 -0.005375 0.013096 0.000000 0.000000 0.000000
# 4 0.000000 0.000000 0.000000 0.029062 0.000000 0.000000
# 5 0.000000 0.000000 0.000000 0.000000 0.026922 0.000000
# 6 0.000000 0.000000 0.000000 0.000000 0.000000 0.035737
#
#
# Mechanical properties :
#
#
# Convention : Reuss Voigt Hill
#
# Bulk Modulus (GPa) = 57.69257 60.00531 58.84894
# Shear Modulus (GPa) = 30.00163 30.81732 30.40947
#
# Velocity S-wave (km/s) = 3.82436 3.87600 3.85026
# Velocity P-wave (km/s) = 6.90115 7.02022 6.96094
#
# Compressibility (1/GPa) = 0.01733326
#
# Stress axis : x y z
#
# Youngs Moduli (GPa) = 66.05231 66.61910 76.35892
#
# Poissons Ratio (x) = 0.18037 0.37215
# Poissons Ratio (y) = 0.17884 0.41045
# Poissons Ratio (z) = 0.32192 0.35810
#
# Static dielectric constant tensor:
#      x y z
#    x 3.667660 0.000000 0.000000 
#    y 0.000000 3.702230 0.000000 
#    z 0.000000 0.000000 3.740940 
# 
# 
# High freq. dielectric constant tensor:
#      x y z
#    x 1.809340 0.000000 0.000000 
#    y 0.000000 1.791950 0.000000 
#    z 0.000000 0.000000 1.803250 
# 
# From -- ./inp_files/19677.got.cif
#   From: 2010.03.12/outbox.cif.g09.slc.cpg/sg67_10_cif.got.tgz:19677.got - 2010.04.10 22:41:39.
