data_PCOD8280851
_publ_section_title
;
Structure prediction by ZEFSAII (Michael W. Deem and Ramdas Pophale) SiO2 
 PCOD8280851
Probable space group: C M M A
;
_chemical_formula_sum "Si O2"
_cell_formula_units_Z 80
_cell_length_a 26.602449
_cell_length_b 9.378404
_cell_length_c 16.718405
_cell_angle_alpha 90.000000
_cell_angle_beta 90.000000
_cell_angle_gamma 90.000000
_cell_volume 4171.050022
_symmetry_space_group_name_H-M "C M M A"
_symmetry_group_IT_number 67
_symmetry_cell_setting 'orthorhombic'
loop_
_space_group_symop_operation_xyz
x,y,z
-x,1/2-y,z
x,-y,-z
-x,1/2+y,-z
-x,-y,-z
x,1/2+y,-z
-x,y,z
x,1/2-y,z
1/2+x,1/2+y,z
1/2-x,-y,z
1/2+x,1/2-y,-z
1/2-x,y,-z
1/2-x,1/2-y,-z
1/2+x,y,-z
1/2-x,1/2+y,z
1/2+x,-y,z
loop_
_atom_site_type_symbol
_atom_site_label
_atom_site_fract_x
_atom_site_fract_y
_atom_site_fract_z
Si Si1 0.702381 0.750000 0.887255
Si Si2 0.388289 0.918348 0.576789
Si Si3 0.818691 0.250000 0.067469
Si Si4 0.800887 0.412563 0.344189
Si Si5 0.444189 0.415619 0.260782
Si Si6 0.847918 0.480975 0.181186
O O1 0.761399 0.750000 0.902873
O O2 0.686350 0.618236 0.833254
O O3 0.674547 0.750000 0.972513
O O4 0.379176 0.750000 0.560548
O O5 0.427490 0.941530 0.648173
O O6 0.411241 0.000000 0.500000
O O7 0.336209 0.997173 0.596949
O O8 0.846510 0.388392 0.101018
O O9 0.793014 0.250000 0.375747
O O10 0.750000 0.500000 0.340632
O O11 0.824604 0.398948 0.256229
O O12 0.500000 0.480909 0.249395
O O13 0.444498 0.250000 0.241059
O O14 0.406232 0.486623 0.198071
#
# Coordination Sequence:
#
# PCOD8280851 Si02
#       6
#     8  16   8  16  16  16
#     4  11  22  36  57  85 118 165 187 229 281 357
#     4  10  21  37  58  84 118 149 187 236 289 342
#     4  11  22  36  55  87 126 149 193 233 291 335
#     4  11  22  35  56  82 115 156 199 236 281 340
#     4   9  19  38  63  85 108 150 199 239 287 341
#     4  11  21  36  58  84 116 154 196 241 285 338
#
# _framework density 19.179824
#
# number of rings (size 3 to 8) (size 9 to 14) (size 15 to 20)
#    0.000    1.600    2.000    3.600    2.800    2.400 
#    0.000    2.500    0.000    3.600    0.000    0.000 
#    0.000    0.000    0.000    0.000    0.000    0.000 
#
# Total GULP energy -495995.586628 kJ/mol
# GULP energy per Si atom -12399.889666 kJ/mol
# Density = 1.913617 g / cm^3
# Si number density = 19.179824 Si / 1000 Ang^3
#
#
#
# Elastic Constant Matrix: (Units=GPa)
#
#
# Indices 1 2 3 4 5 6 
#
# 1 128.8457 37.9119 27.5173 0.0000 0.0000 0.0000
# 2 37.9119 118.7489 30.5507 0.0000 0.0000 0.0000
# 3 27.5173 30.5507 77.9353 0.0000 0.0000 0.0000
# 4 0.0000 0.0000 0.0000 27.7238 0.0000 0.0000
# 5 0.0000 0.0000 0.0000 0.0000 18.1842 0.0000
# 6 0.0000 0.0000 0.0000 0.0000 0.0000 -8.1233
#
#
#
# Elastic Compliance Matrix: (Units=1/GPa)
#
#
# Indices 1 2 3 4 5 6 
#
# 1 0.008910 -0.002263 -0.002259 0.000000 0.000000 0.000000
# 2 -0.002263 0.009941 -0.003098 0.000000 0.000000 0.000000
# 3 -0.002259 -0.003098 0.014843 0.000000 0.000000 0.000000
# 4 0.000000 0.000000 0.000000 0.036070 0.000000 0.000000
# 5 0.000000 0.000000 0.000000 0.000000 0.054993 0.000000
# 6 0.000000 0.000000 0.000000 0.000000 0.000000 -0.123102
#
#
# Mechanical properties :
#
#
# Convention : Reuss Voigt Hill
#
# Bulk Modulus (GPa) = 54.18868 57.49885 55.84377
# Shear Modulus (GPa) = 216.97310 22.86026 119.91668
#
# Velocity S-wave (km/s) = 10.64760 3.45612 7.91568
# Velocity P-wave (km/s) = 13.39687 6.78014 10.61712
#
# Compressibility (1/GPa) = 0.01845404
#
# Stress axis : x y z
#
# Youngs Moduli (GPa) = 112.23892 100.59681 67.37253
#
# Poissons Ratio (x) = 0.22769 0.15216
# Poissons Ratio (y) = 0.25404 0.20869
# Poissons Ratio (z) = 0.25349 0.31161
#
# Static dielectric constant tensor:
#      x y z
#    x 3.507650 0.000000 0.000000 
#    y 0.000000 3.510960 0.000000 
#    z 0.000000 0.000000 3.528650 
# 
# 
# High freq. dielectric constant tensor:
#      x y z
#    x 1.730850 0.000000 0.000000 
#    y 0.000000 1.755140 0.000000 
#    z 0.000000 0.000000 1.743300 
# 
# From -- ./inp_files/35814.got.cif
#   From: 2010.03.12/outbox.cif.g09.slc.cpg/sg67_18_cif.got.tgz:35814.got - 2010.04.10 22:41:39.
