data_PCOD8280408
_publ_section_title
;
Structure prediction by ZEFSAII (Michael W. Deem and Ramdas Pophale) SiO2 
 PCOD8280408
Probable space group: C M M A
;
_chemical_formula_sum "Si O2"
_cell_formula_units_Z 72
_cell_length_a 8.735722
_cell_length_b 15.800409
_cell_length_c 24.819587
_cell_angle_alpha 90.000000
_cell_angle_beta 90.000000
_cell_angle_gamma 90.000000
_cell_volume 3425.797471
_symmetry_space_group_name_H-M "C M M A"
_symmetry_group_IT_number 67
_symmetry_cell_setting 'orthorhombic'
loop_
_space_group_symop_operation_xyz
x,y,z
-x,1/2-y,z
x,-y,-z
-x,1/2+y,-z
-x,-y,-z
x,1/2+y,-z
-x,y,z
x,1/2-y,z
1/2+x,1/2+y,z
1/2-x,-y,z
1/2+x,1/2-y,-z
1/2-x,y,-z
1/2-x,1/2-y,-z
1/2+x,y,-z
1/2-x,1/2+y,z
1/2+x,-y,z
loop_
_atom_site_type_symbol
_atom_site_label
_atom_site_fract_x
_atom_site_fract_y
_atom_site_fract_z
Si Si1 0.322963 0.649859 0.233066
Si Si2 0.818380 0.250000 0.941141
Si Si3 0.680836 0.412137 0.125620
Si Si4 0.831425 0.652691 0.340691
Si Si5 0.681099 0.907694 0.445560
O O1 0.500000 0.625357 0.229383
O O2 0.298124 0.750000 0.227106
O O3 0.232121 0.601642 0.186762
O O4 0.257681 0.613718 0.289624
O O5 0.758717 0.333854 0.910402
O O6 0.000000 0.250000 0.944174
O O7 0.750000 0.250000 0.000000
O O8 0.500000 0.418278 0.123205
O O9 0.750000 0.500000 0.103060
O O10 0.855571 0.750000 0.328088
O O11 0.729411 0.645921 0.394028
O O12 0.000000 0.609796 0.347776
O O13 0.500000 0.911249 0.450764
O O14 0.750000 0.865857 0.500000
O O15 0.750000 0.000000 0.437953
#
# Coordination Sequence:
#
# PCOD8280408 Si02
#       5
#    16   8  16  16  16
#     4  10  20  36  60  89 121 159 200 248 307 369
#     4  10  24  44  68  94 130 172 213 260 315 368
#     4  11  23  41  64  95 129 168 214 261 313 372
#     4  10  21  37  58  85 117 153 193 242 298 357
#     4  11  22  38  58  79 108 146 192 243 299 362
#
# _framework density 21.017005000000001
#
# number of rings (size 3 to 8) (size 9 to 14) (size 15 to 20)
#    0.000    1.556    1.111    4.667    0.000    5.778 
#    0.000    6.667    0.000    0.000    0.000    0.000 
#    0.000    0.000    0.000    0.000    0.000    0.000 
#
# Total GULP energy -446457.582715 kJ/mol
# GULP energy per Si atom -12401.599520 kJ/mol
# Density = 2.096917 g / cm^3
# Si number density = 21.017005 Si / 1000 Ang^3
#
#
#
# Elastic Constant Matrix: (Units=GPa)
#
#
# Indices 1 2 3 4 5 6 
#
# 1 135.4598 39.8870 47.1141 0.0000 0.0000 0.0000
# 2 39.8870 89.9875 53.2499 0.0000 0.0000 0.0000
# 3 47.1141 53.2499 160.7985 0.0000 0.0000 0.0000
# 4 0.0000 0.0000 0.0000 13.0504 0.0000 0.0000
# 5 0.0000 0.0000 0.0000 0.0000 37.5446 0.0000
# 6 0.0000 0.0000 0.0000 0.0000 0.0000 30.7160
#
#
#
# Elastic Compliance Matrix: (Units=1/GPa)
#
#
# Indices 1 2 3 4 5 6 
#
# 1 0.008810 -0.002957 -0.001602 0.000000 0.000000 0.000000
# 2 -0.002957 0.014814 -0.004039 0.000000 0.000000 0.000000
# 3 -0.001602 -0.004039 0.008026 0.000000 0.000000 0.000000
# 4 0.000000 0.000000 0.000000 0.076626 0.000000 0.000000
# 5 0.000000 0.000000 0.000000 0.000000 0.026635 0.000000
# 6 0.000000 0.000000 0.000000 0.000000 0.000000 0.032556
#
#
# Mechanical properties :
#
#
# Convention : Reuss Voigt Hill
#
# Bulk Modulus (GPa) = 69.19005 74.08308 71.63657
# Shear Modulus (GPa) = 26.38774 32.66185 29.52479
#
# Velocity S-wave (km/s) = 3.54721 3.94644 3.75214
# Velocity P-wave (km/s) = 7.05474 7.48943 7.27533
#
# Compressibility (1/GPa) = 0.01445294
#
# Stress axis : x y z
#
# Youngs Moduli (GPa) = 113.50439 67.50557 124.59472
#
# Poissons Ratio (x) = 0.19962 0.19962
# Poissons Ratio (y) = 0.33564 0.50327
# Poissons Ratio (z) = 0.18185 0.27267
#
# Static dielectric constant tensor:
#      x y z
#    x 3.964410 0.000000 0.000000 
#    y 0.000000 3.849370 0.000000 
#    z 0.000000 0.000000 3.954360 
# 
# 
# High freq. dielectric constant tensor:
#      x y z
#    x 1.836140 0.000000 0.000000 
#    y 0.000000 1.810580 0.000000 
#    z 0.000000 0.000000 1.829050 
# 
# From -- ./inp_files/40536.got.cif
#   From: 2010.03.12/outbox.cif.g09.slc.cpg/sg67_21_cif.got.tgz:40536.got - 2010.04.10 22:41:39.
