data_PCOD8280447
_publ_section_title
;
Structure prediction by ZEFSAII (Michael W. Deem and Ramdas Pophale) SiO2 
 PCOD8280447
Probable space group: C M M A
;
_chemical_formula_sum "Si O2"
_cell_formula_units_Z 88
_cell_length_a 21.083905
_cell_length_b 13.610585
_cell_length_c 15.011714
_cell_angle_alpha 90.000000
_cell_angle_beta 90.000000
_cell_angle_gamma 90.000000
_cell_volume 4307.825717
_symmetry_space_group_name_H-M "C M M A"
_symmetry_group_IT_number 67
_symmetry_cell_setting 'orthorhombic'
loop_
_space_group_symop_operation_xyz
x,y,z
-x,1/2-y,z
x,-y,-z
-x,1/2+y,-z
-x,-y,-z
x,1/2+y,-z
-x,y,z
x,1/2-y,z
1/2+x,1/2+y,z
1/2-x,-y,z
1/2+x,1/2-y,-z
1/2-x,y,-z
1/2-x,1/2-y,-z
1/2+x,y,-z
1/2-x,1/2+y,z
1/2+x,-y,z
loop_
_atom_site_type_symbol
_atom_site_label
_atom_site_fract_x
_atom_site_fract_y
_atom_site_fract_z
Si Si1 0.646749 0.538713 0.644779
Si Si2 0.178751 0.862498 0.526748
Si Si3 0.071103 0.134211 0.975872
Si Si4 0.750000 0.000000 0.777291
Si Si5 0.696528 0.866174 0.072994
Si Si6 0.073364 0.142275 0.780591
O O1 0.652399 0.427093 0.608797
O O2 0.640168 0.614218 0.562729
O O3 0.704438 0.562568 0.712039
O O4 0.585392 0.560065 0.704973
O O5 0.171771 0.750000 0.555531
O O6 0.250000 0.892756 0.500000
O O7 0.067125 0.250000 0.979504
O O8 0.095707 0.103115 0.877412
O O9 0.000000 0.091959 0.999435
O O10 0.126162 0.096902 0.042671
O O11 0.711494 0.078543 0.835400
O O12 0.696751 0.750000 0.091044
O O13 0.750000 0.893723 0.000000
O O14 0.104673 0.250000 0.758675
O O15 0.000000 0.159586 0.788913
#
# Coordination Sequence:
#
# PCOD8280447 Si02
#       6
#    16  16  16   8  16  16
#     4  11  20  36  55  83 114 140 182 233 280 336
#     4  10  20  37  58  80 111 149 182 218 276 349
#     4   8  15  32  56  80 109 150 197 236 275 334
#     4  12  23  33  52  84 114 140 182 237 289 336
#     4  10  21  35  51  77 113 150 185 230 288 335
#     4   9  18  33  57  86 113 147 190 232 274 322
#
# _framework density 20.427938000000001
#
# number of rings (size 3 to 8) (size 9 to 14) (size 15 to 20)
#    0.000    2.182    1.818    3.545    0.000    3.636 
#    0.000    2.727    0.000    6.000    0.000    0.000 
#    0.000    1.455    0.000    0.000    0.000    0.000 
#
# Total GULP energy -545175.146627 kJ/mol
# GULP energy per Si atom -12390.344242 kJ/mol
# Density = 2.038144 g / cm^3
# Si number density = 20.427938 Si / 1000 Ang^3
#
#
#
# Elastic Constant Matrix: (Units=GPa)
#
#
# Indices 1 2 3 4 5 6 
#
# 1 63.7886 23.0441 49.5187 0.0000 0.0000 0.0000
# 2 23.0441 106.6178 52.4447 0.0000 0.0000 0.0000
# 3 49.5187 52.4447 125.2706 0.0000 0.0000 0.0000
# 4 0.0000 0.0000 0.0000 2.1510 0.0000 0.0000
# 5 0.0000 0.0000 0.0000 0.0000 32.5695 0.0000
# 6 0.0000 0.0000 0.0000 0.0000 0.0000 0.4616
#
#
#
# Elastic Compliance Matrix: (Units=1/GPa)
#
#
# Indices 1 2 3 4 5 6 
#
# 1 0.022650 -0.000619 -0.008694 0.000000 0.000000 0.000000
# 2 -0.000619 0.011829 -0.004707 0.000000 0.000000 0.000000
# 3 -0.008694 -0.004707 0.013390 0.000000 0.000000 0.000000
# 4 0.000000 0.000000 0.000000 0.464911 0.000000 0.000000
# 5 0.000000 0.000000 0.000000 0.000000 0.030704 0.000000
# 6 0.000000 0.000000 0.000000 0.000000 0.000000 2.166192
#
#
# Mechanical properties :
#
#
# Convention : Reuss Voigt Hill
#
# Bulk Modulus (GPa) = 50.43483 60.63244 55.53364
# Shear Modulus (GPa) = 1.82194 18.41439 10.11816
#
# Velocity S-wave (km/s) = 0.94542 3.00564 2.22797
# Velocity P-wave (km/s) = 5.09259 6.46458 5.81916
#
# Compressibility (1/GPa) = 0.01982757
#
# Stress axis : x y z
#
# Youngs Moduli (GPa) = 44.15102 84.54074 74.68118
#
# Poissons Ratio (x) = 0.05231 0.64929
# Poissons Ratio (y) = 0.02732 0.35156
# Poissons Ratio (z) = 0.38386 0.39797
#
# Static dielectric constant tensor:
#      x y z
#    x 3.861780 0.000000 0.000000 
#    y 0.000000 3.752680 0.000000 
#    z 0.000000 0.000000 3.859800 
# 
# 
# High freq. dielectric constant tensor:
#      x y z
#    x 1.778640 0.000000 0.000000 
#    y 0.000000 1.798110 0.000000 
#    z 0.000000 0.000000 1.798200 
# 
# From -- ./inp_files/29153.got.cif
#   From: 2010.03.12/outbox.cif.g09.slc.cpg/sg67_15_cif.got.tgz:29153.got - 2010.04.10 22:41:39.
