data_PCOD8280641
_publ_section_title
;
Structure prediction by ZEFSAII (Michael W. Deem and Ramdas Pophale) SiO2 
 PCOD8280641
Probable space group: C M M A
;
_chemical_formula_sum "Si O2"
_cell_formula_units_Z 112
_cell_length_a 18.956719
_cell_length_b 9.627917
_cell_length_c 35.394189
_cell_angle_alpha 90.000000
_cell_angle_beta 90.000000
_cell_angle_gamma 90.000000
_cell_volume 6459.924999
_symmetry_space_group_name_H-M "C M M A"
_symmetry_group_IT_number 67
_symmetry_cell_setting 'orthorhombic'
loop_
_space_group_symop_operation_xyz
x,y,z
-x,1/2-y,z
x,-y,-z
-x,1/2+y,-z
-x,-y,-z
x,1/2+y,-z
-x,y,z
x,1/2-y,z
1/2+x,1/2+y,z
1/2-x,-y,z
1/2+x,1/2-y,-z
1/2-x,y,-z
1/2-x,1/2-y,-z
1/2+x,y,-z
1/2-x,1/2+y,z
1/2+x,-y,z
loop_
_atom_site_type_symbol
_atom_site_label
_atom_site_fract_x
_atom_site_fract_y
_atom_site_fract_z
Si Si1 0.580715 0.089271 0.963881
Si Si2 0.581203 0.411328 0.823522
Si Si3 0.683054 0.589641 0.601114
Si Si4 0.183111 0.089604 0.686570
Si Si5 0.081167 0.589636 0.465327
Si Si6 0.321464 0.412695 0.893888
Si Si7 0.581130 0.909659 0.752925
O O1 0.500000 0.057928 0.951545
O O2 0.589568 0.250000 0.974584
O O3 0.632884 0.046447 0.930379
O O4 0.602853 0.000000 0.000000
O O5 0.500000 0.448464 0.833686
O O6 0.588440 0.250000 0.813565
O O7 0.630878 0.453290 0.858148
O O8 0.608472 0.497655 0.787584
O O9 0.704309 0.750000 0.596956
O O10 0.750000 0.500000 0.589243
O O11 0.658537 0.555627 0.643847
O O12 0.619880 0.548916 0.573321
O O13 0.204221 0.250000 0.690698
O O14 0.120448 0.048215 0.714588
O O15 0.250000 0.000000 0.698415
O O16 0.111985 0.500000 0.500000
O O17 0.092388 0.750000 0.475789
O O18 0.000000 0.552748 0.458350
O O19 0.302524 0.250000 0.893760
O O20 0.250000 0.500000 0.893363
O O21 0.500000 0.940581 0.744689
O O22 0.594659 0.750000 0.763870
#
# Coordination Sequence:
#
# PCOD8280641 Si02
#       7
#    16  16  16  16  16  16  16
#     4   9  18  34  55  76  98 127 164 202 239 282
#     4   9  18  34  54  72  93 126 165 200 235 279
#     4   9  18  32  49  69  93 123 158 193 230 276
#     4   9  18  32  49  69  95 126 157 191 233 280
#     4   9  18  32  49  69  93 121 154 192 234 279
#     4  10  21  35  51  73 101 131 162 198 240 285
#     4   9  18  32  50  73  98 123 155 197 241 281
#
# _framework density 17.337661000000001
#
# number of rings (size 3 to 8) (size 9 to 14) (size 15 to 20)
#    0.000    2.857    0.000    0.429    0.000    5.714 
#    0.000    8.571    0.000    4.286    0.000    8.000 
#    0.000    0.000    0.000    0.000    0.000    0.000 
#
# Total GULP energy -694448.618730 kJ/mol
# GULP energy per Si atom -12400.868192 kJ/mol
# Density = 1.729820 g / cm^3
# Si number density = 17.337661 Si / 1000 Ang^3
#
#
#
# Elastic Constant Matrix: (Units=GPa)
#
#
# Indices 1 2 3 4 5 6 
#
# 1 100.4479 55.0929 86.2558 0.0000 0.0000 0.0000
# 2 55.0929 60.5420 68.4891 0.0000 0.0000 0.0000
# 3 86.2558 68.4891 146.7092 0.0000 0.0000 0.0000
# 4 0.0000 0.0000 0.0000 32.2089 0.0000 0.0000
# 5 0.0000 0.0000 0.0000 0.0000 22.4198 0.0000
# 6 0.0000 0.0000 0.0000 0.0000 0.0000 30.3937
#
#
#
# Elastic Compliance Matrix: (Units=1/GPa)
#
#
# Indices 1 2 3 4 5 6 
#
# 1 0.023786 -0.012344 -0.008222 0.000000 0.000000 0.000000
# 2 -0.012344 0.041409 -0.012074 0.000000 0.000000 0.000000
# 3 -0.008222 -0.012074 0.017287 0.000000 0.000000 0.000000
# 4 0.000000 0.000000 0.000000 0.031047 0.000000 0.000000
# 5 0.000000 0.000000 0.000000 0.000000 0.044603 0.000000
# 6 0.000000 0.000000 0.000000 0.000000 0.000000 0.032902
#
#
# Mechanical properties :
#
#
# Convention : Reuss Voigt Hill
#
# Bulk Modulus (GPa) = 58.13175 80.81940 69.47557
# Shear Modulus (GPa) = 19.08049 23.52858 21.30453
#
# Velocity S-wave (km/s) = 3.32101 3.68785 3.50923
# Velocity P-wave (km/s) = 6.95036 8.05294 7.52188
#
# Compressibility (1/GPa) = 0.01720230
#
# Stress axis : x y z
#
# Youngs Moduli (GPa) = 42.04127 24.14940 57.84739
#
# Poissons Ratio (x) = 0.29809 0.47564
# Poissons Ratio (y) = 0.51895 0.69844
# Poissons Ratio (z) = 0.34567 0.29158
#
# Static dielectric constant tensor:
#      x y z
#    x 3.183900 0.000000 0.000000 
#    y 0.000000 3.232020 0.000000 
#    z 0.000000 0.000000 3.361440 
# 
# 
# High freq. dielectric constant tensor:
#      x y z
#    x 1.663080 0.000000 0.000000 
#    y 0.000000 1.667160 0.000000 
#    z 0.000000 0.000000 1.676990 
# 
# From -- ./inp_files/45723.got.cif
#   From: 2010.03.12/outbox.cif.g09.slc.cpg/sg67_23_cif.got.tgz:45723.got - 2010.04.10 22:41:39.
