data_PCOD8280730
_publ_section_title
;
Structure prediction by ZEFSAII (Michael W. Deem and Ramdas Pophale) SiO2 
 PCOD8280730
Probable space group: C M M A
;
_chemical_formula_sum "Si O2"
_cell_formula_units_Z 64
_cell_length_a 18.405851
_cell_length_b 8.752907
_cell_length_c 20.468556
_cell_angle_alpha 90.000000
_cell_angle_beta 90.000000
_cell_angle_gamma 90.000000
_cell_volume 3297.580616
_symmetry_space_group_name_H-M "C M M A"
_symmetry_group_IT_number 67
_symmetry_cell_setting 'orthorhombic'
loop_
_space_group_symop_operation_xyz
x,y,z
-x,1/2-y,z
x,-y,-z
-x,1/2+y,-z
-x,-y,-z
x,1/2+y,-z
-x,y,z
x,1/2-y,z
1/2+x,1/2+y,z
1/2-x,-y,z
1/2+x,1/2-y,-z
1/2-x,y,-z
1/2-x,1/2-y,-z
1/2+x,y,-z
1/2-x,1/2+y,z
1/2+x,-y,z
loop_
_atom_site_type_symbol
_atom_site_label
_atom_site_fract_x
_atom_site_fract_y
_atom_site_fract_z
Si Si1 0.082680 0.930795 0.432786
Si Si2 0.326348 0.069582 0.930509
Si Si3 0.415367 0.573042 0.819050
Si Si4 0.671034 0.430648 0.308648
O O1 0.086831 0.750000 0.437061
O O2 0.131307 0.993837 0.373402
O O3 0.000000 0.985698 0.421201
O O4 0.113722 0.000000 0.500000
O O5 0.318302 0.250000 0.937307
O O6 0.250000 0.000000 0.906096
O O7 0.388683 0.028450 0.879302
O O8 0.348911 0.000000 0.000000
O O9 0.500000 0.543821 0.808371
O O10 0.398754 0.750000 0.834023
O O11 0.375141 0.517145 0.753851
O O12 0.676962 0.250000 0.311683
O O13 0.750000 0.500000 0.303094
#
# Coordination Sequence:
#
# PCOD8280730 Si02
#       4
#    16  16  16  16
#     4   9  18  34  55  78 105 139 179 221 267 320
#     4  11  22  38  60  85 114 147 184 225 271 324
#     4  10  21  38  59  82 110 145 184 227 276 328
#     4  10  21  36  55  79 108 143 181 223 271 324
#
# _framework density 19.408168
#
# number of rings (size 3 to 8) (size 9 to 14) (size 15 to 20)
#    0.000    2.000    0.000    4.500    0.000    8.500 
#    0.000    2.500    0.000    4.500    0.000    0.000 
#    0.000    0.000    0.000    0.000    0.000    0.000 
#
# Total GULP energy -396935.896794 kJ/mol
# GULP energy per Si atom -12404.246775 kJ/mol
# Density = 1.936399 g / cm^3
# Si number density = 19.408168 Si / 1000 Ang^3
#
#
#
# Elastic Constant Matrix: (Units=GPa)
#
#
# Indices 1 2 3 4 5 6 
#
# 1 128.6173 40.7607 88.1778 0.0000 0.0000 0.0000
# 2 40.7607 73.6244 49.8066 0.0000 0.0000 0.0000
# 3 88.1778 49.8066 158.6490 0.0000 0.0000 0.0000
# 4 0.0000 0.0000 0.0000 32.3126 0.0000 0.0000
# 5 0.0000 0.0000 0.0000 0.0000 44.3430 0.0000
# 6 0.0000 0.0000 0.0000 0.0000 0.0000 31.3281
#
#
#
# Elastic Compliance Matrix: (Units=1/GPa)
#
#
# Indices 1 2 3 4 5 6 
#
# 1 0.013045 -0.002942 -0.006327 0.000000 0.000000 0.000000
# 2 -0.002942 0.017908 -0.003987 0.000000 0.000000 0.000000
# 3 -0.006327 -0.003987 0.011071 0.000000 0.000000 0.000000
# 4 0.000000 0.000000 0.000000 0.030948 0.000000 0.000000
# 5 0.000000 0.000000 0.000000 0.000000 0.022551 0.000000
# 6 0.000000 0.000000 0.000000 0.000000 0.000000 0.031920
#
#
# Mechanical properties :
#
#
# Convention : Reuss Voigt Hill
#
# Bulk Modulus (GPa) = 64.46183 79.82012 72.14097
# Shear Modulus (GPa) = 31.42148 33.73978 32.58063
#
# Velocity S-wave (km/s) = 4.02802 4.17397 4.10165
# Velocity P-wave (km/s) = 7.41075 8.02781 7.72544
#
# Compressibility (1/GPa) = 0.01551306
#
# Stress axis : x y z
#
# Youngs Moduli (GPa) = 76.65822 55.83959 90.32296
#
# Poissons Ratio (x) = 0.16428 0.57146
# Poissons Ratio (y) = 0.22553 0.36012
# Poissons Ratio (z) = 0.48500 0.22263
#
# Static dielectric constant tensor:
#      x y z
#    x 3.248020 0.000000 0.000000 
#    y 0.000000 3.463200 0.000000 
#    z 0.000000 0.000000 3.746510 
# 
# 
# High freq. dielectric constant tensor:
#      x y z
#    x 1.756240 0.000000 0.000000 
#    y 0.000000 1.745000 0.000000 
#    z 0.000000 0.000000 1.771210 
# 
# From -- ./inp_files/31728.got.cif
#   From: 2010.03.12/outbox.cif.g09.slc.cpg/sg67_16_cif.got.tgz:31728.got - 2010.04.10 22:41:39.
