data_PCOD8280057
_publ_section_title
;
Structure prediction by ZEFSAII (Michael W. Deem and Ramdas Pophale) SiO2 
 PCOD8280057
Probable space group: C M M A
;
_chemical_formula_sum "Si O2"
_cell_formula_units_Z 96
_cell_length_a 17.651599
_cell_length_b 24.401790
_cell_length_c 11.567213
_cell_angle_alpha 90.000000
_cell_angle_beta 90.000000
_cell_angle_gamma 90.000000
_cell_volume 4982.352734
_symmetry_space_group_name_H-M "C M M A"
_symmetry_group_IT_number 67
_symmetry_cell_setting 'orthorhombic'
loop_
_space_group_symop_operation_xyz
x,y,z
-x,1/2-y,z
x,-y,-z
-x,1/2+y,-z
-x,-y,-z
x,1/2+y,-z
-x,y,z
x,1/2-y,z
1/2+x,1/2+y,z
1/2-x,-y,z
1/2+x,1/2-y,-z
1/2-x,y,-z
1/2-x,1/2-y,-z
1/2+x,y,-z
1/2-x,1/2+y,z
1/2+x,-y,z
loop_
_atom_site_type_symbol
_atom_site_label
_atom_site_fract_x
_atom_site_fract_y
_atom_site_fract_z
Si Si1 0.281654 0.059155 0.821246
Si Si2 0.676316 0.057354 0.559772
Si Si3 0.163444 0.750000 0.461725
Si Si4 0.636591 0.131692 0.187241
Si Si5 0.086690 0.356791 0.551193
Si Si6 0.917606 0.563930 0.982752
Si Si7 0.092901 0.750000 0.208190
O O1 0.313665 0.048345 0.694603
O O2 0.221983 0.108948 0.824809
O O3 0.349279 0.082474 0.900352
O O4 0.250000 0.000000 0.866603
O O5 0.750000 0.085829 0.500000
O O6 0.602207 0.093176 0.535036
O O7 0.662418 0.000000 0.500000
O O8 0.250000 0.750000 0.500000
O O9 0.128202 0.694264 0.510512
O O10 0.140330 0.750000 0.326947
O O11 0.613742 0.126987 0.320777
O O12 0.622172 0.194720 0.143934
O O13 0.585309 0.093264 0.107259
O O14 0.000000 0.341541 0.557630
O O15 0.000000 0.578003 0.927644
O O16 0.910147 0.500000 0.000000
O O17 0.000000 0.750000 0.223750
#
# Coordination Sequence:
#
# PCOD8280057 Si02
#       7
#    16  16   8  16  16  16   8
#     4  12  22  39  62  87 126 161 206 255 306 369
#     4  11  21  38  57  85 120 166 200 240 297 366
#     4  10  20  34  60  86 120 156 202 247 303 353
#     4  11  21  39  66  90 120 159 206 255 308 358
#     4  11  22  37  60  90 122 156 203 255 303 355
#     4  11  24  39  60  89 122 160 202 253 314 364
#     4  10  22  40  63  94 124 159 208 262 312 365
#
# _framework density 19.268006
#
# number of rings (size 3 to 8) (size 9 to 14) (size 15 to 20)
#    0.000    1.000    5.000    4.250    2.333    1.000 
#    0.000    1.667    0.000    0.000    0.000    0.000 
#    0.000    0.000    0.000    0.000    0.000    0.000 
#
# Total GULP energy -594808.427776 kJ/mol
# GULP energy per Si atom -12391.842245 kJ/mol
# Density = 1.922415 g / cm^3
# Si number density = 19.268006 Si / 1000 Ang^3
#
#
#
# Elastic Constant Matrix: (Units=GPa)
#
#
# Indices 1 2 3 4 5 6 
#
# 1 169.1863 61.9966 40.3391 0.0000 0.0000 0.0000
# 2 61.9966 137.0619 33.0565 0.0000 0.0000 0.0000
# 3 40.3391 33.0565 62.9331 0.0000 0.0000 0.0000
# 4 0.0000 0.0000 0.0000 23.7477 0.0000 0.0000
# 5 0.0000 0.0000 0.0000 0.0000 22.1233 0.0000
# 6 0.0000 0.0000 0.0000 0.0000 0.0000 -22.7049
#
#
#
# Elastic Compliance Matrix: (Units=1/GPa)
#
#
# Indices 1 2 3 4 5 6 
#
# 1 0.007727 -0.002634 -0.003569 0.000000 0.000000 0.000000
# 2 -0.002634 0.009252 -0.003171 0.000000 0.000000 0.000000
# 3 -0.003569 -0.003171 0.019844 0.000000 0.000000 0.000000
# 4 0.000000 0.000000 0.000000 0.042109 0.000000 0.000000
# 5 0.000000 0.000000 0.000000 0.000000 0.045201 0.000000
# 6 0.000000 0.000000 0.000000 0.000000 0.000000 -0.044043
#
#
# Mechanical properties :
#
#
# Convention : Reuss Voigt Hill
#
# Bulk Modulus (GPa) = 55.33076 71.10730 63.21903
# Shear Modulus (GPa) = 47.68068 20.21915 33.94991
#
# Velocity S-wave (km/s) = 4.97994 3.24290 4.20215
# Velocity P-wave (km/s) = 7.86416 7.14187 7.51170
#
# Compressibility (1/GPa) = 0.01807313
#
# Stress axis : x y z
#
# Youngs Moduli (GPa) = 129.41723 108.07997 50.39430
#
# Poissons Ratio (x) = 0.28471 0.17987
# Poissons Ratio (y) = 0.34092 0.15982
# Poissons Ratio (z) = 0.46191 0.34277
#
# Static dielectric constant tensor:
#      x y z
#    x 3.811240 0.000000 0.000000 
#    y 0.000000 4.016730 0.000000 
#    z 0.000000 0.000000 3.504970 
# 
# 
# High freq. dielectric constant tensor:
#      x y z
#    x 1.756660 0.000000 0.000000 
#    y 0.000000 1.756040 0.000000 
#    z 0.000000 0.000000 1.727730 
# 
# From -- ./inp_files/19686.got.cif
#   From: 2010.03.12/outbox.cif.g09.slc.cpg/sg67_10_cif.got.tgz:19686.got - 2010.04.10 22:41:39.
