data_PCOD8280048
_publ_section_title
;
Structure prediction by ZEFSAII (Michael W. Deem and Ramdas Pophale) SiO2 
 PCOD8280048
Probable space group: C M M A
;
_chemical_formula_sum "Si O2"
_cell_formula_units_Z 88
_cell_length_a 8.613238
_cell_length_b 26.627473
_cell_length_c 19.174508
_cell_angle_alpha 90.000000
_cell_angle_beta 90.000000
_cell_angle_gamma 90.000000
_cell_volume 4397.649677
_symmetry_space_group_name_H-M "C M M A"
_symmetry_group_IT_number 67
_symmetry_cell_setting 'orthorhombic'
loop_
_space_group_symop_operation_xyz
x,y,z
-x,1/2-y,z
x,-y,-z
-x,1/2+y,-z
-x,-y,-z
x,1/2+y,-z
-x,y,z
x,1/2-y,z
1/2+x,1/2+y,z
1/2-x,-y,z
1/2+x,1/2-y,-z
1/2-x,y,-z
1/2-x,1/2-y,-z
1/2+x,y,-z
1/2-x,1/2+y,z
1/2+x,-y,z
loop_
_atom_site_type_symbol
_atom_site_label
_atom_site_fract_x
_atom_site_fract_y
_atom_site_fract_z
Si Si1 0.816426 0.552235 0.151858
Si Si2 0.319034 0.750000 0.576162
Si Si3 0.183714 0.353519 0.075278
Si Si4 0.317659 0.948503 0.304379
Si Si5 0.178261 0.159375 0.339273
Si Si6 0.326045 0.692826 0.797097
O O1 0.750000 0.500000 0.124125
O O2 0.743203 0.593071 0.101309
O O3 0.768334 0.561525 0.231632
O O4 0.000000 0.553297 0.145185
O O5 0.500000 0.750000 0.568701
O O6 0.250000 0.750000 0.500000
O O7 0.275302 0.801824 0.614615
O O8 0.247727 0.311065 0.127479
O O9 0.000000 0.352242 0.073142
O O10 0.250000 0.340616 0.000000
O O11 0.500000 0.955334 0.289526
O O12 0.289744 0.900097 0.355509
O O13 0.250000 0.000000 0.338865
O O14 0.219176 0.164308 0.258089
O O15 0.000000 0.173195 0.351721
O O16 0.500000 0.669220 0.798180
O O17 0.336153 0.750000 0.773477
#
# Coordination Sequence:
#
# PCOD8280048 Si02
#       6
#    16   8  16  16  16  16
#     4  11  21  35  56  81 113 150 195 249 307 367
#     4  12  26  44  68 100 137 172 209 252 306 364
#     4  12  25  41  58  79 110 151 200 253 314 373
#     4  10  20  34  57  90 125 163 206 256 307 361
#     4  11  22  38  64  95 130 168 209 253 306 364
#     4  11  23  39  61  88 116 152 201 251 306 367
#
# _framework density 20.010687999999998
#
# number of rings (size 3 to 8) (size 9 to 14) (size 15 to 20)
#    0.000    0.909    2.727    6.818    0.000    4.000 
#    0.000    1.818    0.000    0.545    0.000    3.818 
#    0.000    0.000    0.000    0.000    0.000    0.000 
#
# Total GULP energy -545545.752475 kJ/mol
# GULP energy per Si atom -12398.767102 kJ/mol
# Density = 1.996514 g / cm^3
# Si number density = 20.010688 Si / 1000 Ang^3
#
#
#
# Elastic Constant Matrix: (Units=GPa)
#
#
# Indices 1 2 3 4 5 6 
#
# 1 138.8947 34.6985 30.4208 0.0000 0.0000 0.0000
# 2 34.6985 111.4180 40.4856 0.0000 0.0000 0.0000
# 3 30.4208 40.4856 76.1605 0.0000 0.0000 0.0000
# 4 0.0000 0.0000 0.0000 18.9022 0.0000 0.0000
# 5 0.0000 0.0000 0.0000 0.0000 31.5351 0.0000
# 6 0.0000 0.0000 0.0000 0.0000 0.0000 34.2077
#
#
#
# Elastic Compliance Matrix: (Units=1/GPa)
#
#
# Indices 1 2 3 4 5 6 
#
# 1 0.008135 -0.001677 -0.002358 0.000000 0.000000 0.000000
# 2 -0.001677 0.011469 -0.005427 0.000000 0.000000 0.000000
# 3 -0.002358 -0.005427 0.016957 0.000000 0.000000 0.000000
# 4 0.000000 0.000000 0.000000 0.052904 0.000000 0.000000
# 5 0.000000 0.000000 0.000000 0.000000 0.031711 0.000000
# 6 0.000000 0.000000 0.000000 0.000000 0.000000 0.029233
#
#
# Mechanical properties :
#
#
# Convention : Reuss Voigt Hill
#
# Bulk Modulus (GPa) = 56.69708 59.74255 58.21981
# Shear Modulus (GPa) = 28.53679 31.65357 30.09518
#
# Velocity S-wave (km/s) = 3.78044 3.98154 3.88229
# Velocity P-wave (km/s) = 6.88844 7.14542 7.01810
#
# Compressibility (1/GPa) = 0.01763759
#
# Stress axis : x y z
#
# Youngs Moduli (GPa) = 122.92534 87.18832 58.97238
#
# Poissons Ratio (x) = 0.14618 0.13906
# Poissons Ratio (y) = 0.20610 0.32006
# Poissons Ratio (z) = 0.28987 0.47319
#
# Static dielectric constant tensor:
#      x y z
#    x 3.835520 0.000000 0.000000 
#    y 0.000000 4.026320 0.000000 
#    z 0.000000 0.000000 3.353930 
# 
# 
# High freq. dielectric constant tensor:
#      x y z
#    x 1.803080 0.000000 0.000000 
#    y 0.000000 1.802810 0.000000 
#    z 0.000000 0.000000 1.739280 
# 
# From -- ./inp_files/32374.got.cif
#   From: 2010.03.12/outbox.cif.g09.slc.cpg/sg67_17_cif.got.tgz:32374.got - 2010.04.10 22:41:39.
