data_PCOD8280480
_publ_section_title
;
Structure prediction by ZEFSAII (Michael W. Deem and Ramdas Pophale) SiO2 
 PCOD8280480
Probable space group: C M M A
;
_chemical_formula_sum "Si O2"
_cell_formula_units_Z 64
_cell_length_a 19.929139
_cell_length_b 18.747035
_cell_length_c 8.690428
_cell_angle_alpha 90.000000
_cell_angle_beta 90.000000
_cell_angle_gamma 90.000000
_cell_volume 3246.850501
_symmetry_space_group_name_H-M "C M M A"
_symmetry_group_IT_number 67
_symmetry_cell_setting 'orthorhombic'
loop_
_space_group_symop_operation_xyz
x,y,z
-x,1/2-y,z
x,-y,-z
-x,1/2+y,-z
-x,-y,-z
x,1/2+y,-z
-x,y,z
x,1/2-y,z
1/2+x,1/2+y,z
1/2-x,-y,z
1/2+x,1/2-y,-z
1/2-x,y,-z
1/2-x,1/2-y,-z
1/2+x,y,-z
1/2-x,1/2+y,z
1/2+x,-y,z
loop_
_atom_site_type_symbol
_atom_site_label
_atom_site_fract_x
_atom_site_fract_y
_atom_site_fract_z
Si Si1 0.881627 0.667425 0.287757
Si Si2 0.734556 0.828035 0.320899
Si Si3 0.127241 0.928102 0.575330
Si Si4 0.000000 0.390352 0.907020
Si Si5 0.000000 0.047066 0.220748
O O1 0.889117 0.750000 0.330548
O O2 0.804416 0.651170 0.234790
O O3 0.898778 0.624429 0.442213
O O4 0.932719 0.648423 0.151641
O O5 0.708871 0.750000 0.261420
O O6 0.750000 0.821786 0.500000
O O7 0.679361 0.890285 0.305784
O O8 0.064531 0.949763 0.674599
O O9 0.159125 0.000000 0.500000
O O10 0.000000 0.471116 0.857103
O O11 0.000000 0.389778 0.093227
#
# Coordination Sequence:
#
# PCOD8280480 Si02
#       5
#    16  16  16   8   8
#     4  10  20  37  61  86 116 152 192 234 287 348
#     4   8  17  33  54  85 118 142 178 237 288 334
#     4  11  19  35  60  89 114 148 187 242 293 342
#     4  11  22  41  55  76 115 162 190 234 280 346
#     4  11  24  38  54  81 118 144 197 243 285 324
#
# _framework density 19.711410000000001
#
# number of rings (size 3 to 8) (size 9 to 14) (size 15 to 20)
#    0.000    2.000    2.500    3.750    0.000    4.500 
#    0.000    8.125    0.000    6.000    0.000    0.000 
#    0.000    0.000    0.000    0.000    0.000    0.000 
#
# Total GULP energy -396598.332439 kJ/mol
# GULP energy per Si atom -12393.697889 kJ/mol
# Density = 1.966655 g / cm^3
# Si number density = 19.711410 Si / 1000 Ang^3
#
#
#
# Elastic Constant Matrix: (Units=GPa)
#
#
# Indices 1 2 3 4 5 6 
#
# 1 126.9819 52.3559 16.1219 0.0000 0.0000 0.0000
# 2 52.3559 113.0155 23.3383 0.0000 0.0000 0.0000
# 3 16.1219 23.3383 36.2867 0.0000 0.0000 0.0000
# 4 0.0000 0.0000 0.0000 22.6208 0.0000 0.0000
# 5 0.0000 0.0000 0.0000 0.0000 5.0844 0.0000
# 6 0.0000 0.0000 0.0000 0.0000 0.0000 42.1114
#
#
#
# Elastic Compliance Matrix: (Units=1/GPa)
#
#
# Indices 1 2 3 4 5 6 
#
# 1 0.009820 -0.004207 -0.001657 0.000000 0.000000 0.000000
# 2 -0.004207 0.012006 -0.005853 0.000000 0.000000 0.000000
# 3 -0.001657 -0.005853 0.032059 0.000000 0.000000 0.000000
# 4 0.000000 0.000000 0.000000 0.044207 0.000000 0.000000
# 5 0.000000 0.000000 0.000000 0.000000 0.196681 0.000000
# 6 0.000000 0.000000 0.000000 0.000000 0.000000 0.023747
#
#
# Mechanical properties :
#
#
# Convention : Reuss Voigt Hill
#
# Bulk Modulus (GPa) = 32.83953 51.10180 41.97067
# Shear Modulus (GPa) = 14.20038 26.26118 20.23078
#
# Velocity S-wave (km/s) = 2.68696 3.65401 3.20714
# Velocity P-wave (km/s) = 5.13057 6.61692 5.92057
#
# Compressibility (1/GPa) = 0.03045111
#
# Stress axis : x y z
#
# Youngs Moduli (GPa) = 101.83133 83.29214 31.19274
#
# Poissons Ratio (x) = 0.35042 0.05169
# Poissons Ratio (y) = 0.42841 0.18256
# Poissons Ratio (z) = 0.16875 0.48748
#
# Static dielectric constant tensor:
#      x y z
#    x 4.038050 0.000000 0.000000 
#    y 0.000000 3.962730 0.000000 
#    z 0.000000 0.000000 3.422410 
# 
# 
# High freq. dielectric constant tensor:
#      x y z
#    x 1.774390 0.000000 0.000000 
#    y 0.000000 1.782630 0.000000 
#    z 0.000000 0.000000 1.721980 
# 
# From -- ./inp_files/10728.got.cif
#   From: 2010.03.12/outbox.cif.g09.slc.cpg/sg67_6_cif.got.tgz:10728.got - 2010.04.10 22:41:39.
