data_PCOD8280302
_publ_section_title
;
Structure prediction by ZEFSAII (Michael W. Deem and Ramdas Pophale) SiO2 
 PCOD8280302
Probable space group: C M M A
;
_chemical_formula_sum "Si O2"
_cell_formula_units_Z 72
_cell_length_a 8.593879
_cell_length_b 30.424800
_cell_length_c 14.462848
_cell_angle_alpha 90.000000
_cell_angle_beta 90.000000
_cell_angle_gamma 90.000000
_cell_volume 3781.558198
_symmetry_space_group_name_H-M "C M M A"
_symmetry_group_IT_number 67
_symmetry_cell_setting 'orthorhombic'
loop_
_space_group_symop_operation_xyz
x,y,z
-x,1/2-y,z
x,-y,-z
-x,1/2+y,-z
-x,-y,-z
x,1/2+y,-z
-x,y,z
x,1/2-y,z
1/2+x,1/2+y,z
1/2-x,-y,z
1/2+x,1/2-y,-z
1/2-x,y,-z
1/2-x,1/2-y,-z
1/2+x,y,-z
1/2-x,1/2+y,z
1/2+x,-y,z
loop_
_atom_site_type_symbol
_atom_site_label
_atom_site_fract_x
_atom_site_fract_y
_atom_site_fract_z
Si Si1 0.817768 0.377182 0.718809
Si Si2 0.319922 0.750000 0.099007
Si Si3 0.181688 0.800567 0.600839
Si Si4 0.682935 0.953267 0.401315
Si Si5 0.684184 0.654678 0.102864
O O1 0.769890 0.331144 0.673058
O O2 0.726370 0.417066 0.673209
O O3 0.769205 0.378160 0.826790
O O4 0.000000 0.384867 0.708094
O O5 0.500000 0.750000 0.082512
O O6 0.273995 0.796481 0.145454
O O7 0.250000 0.750000 0.000000
O O8 0.208279 0.750000 0.630952
O O9 0.250000 0.809482 0.500000
O O10 0.000000 0.812516 0.600529
O O11 0.500000 0.957457 0.410559
O O12 0.750000 0.938558 0.500000
O O13 0.750000 0.000000 0.369170
O O14 0.500000 0.646117 0.101939
O O15 0.750000 0.647710 0.000000
#
# Coordination Sequence:
#
# PCOD8280302 Si02
#       5
#    16   8  16  16  16
#     4  12  24  37  56  84 115 152 194 236 283 341
#     4   8  16  30  50  72 101 138 183 232 282 330
#     4  10  21  37  55  77 110 150 191 235 283 338
#     4  11  22  40  64  91 120 150 185 233 287 344
#     4  10  20  36  55  80 111 150 193 242 292 340
#
# _framework density 19.039770999999998
#
# number of rings (size 3 to 8) (size 9 to 14) (size 15 to 20)
#    0.000    1.556    0.000    6.667    1.556    2.222 
#    0.000    0.000    0.000    0.667    0.000    4.667 
#    0.000    0.000    0.000    0.000    0.000    0.000 
#
# Total GULP energy -446284.795681 kJ/mol
# GULP energy per Si atom -12396.799880 kJ/mol
# Density = 1.899644 g / cm^3
# Si number density = 19.039771 Si / 1000 Ang^3
#
#
#
# Elastic Constant Matrix: (Units=GPa)
#
#
# Indices 1 2 3 4 5 6 
#
# 1 120.1157 36.8319 37.8704 0.0000 0.0000 0.0000
# 2 36.8319 88.6422 56.5672 0.0000 0.0000 0.0000
# 3 37.8704 56.5672 97.8388 0.0000 0.0000 0.0000
# 4 0.0000 0.0000 0.0000 22.7236 0.0000 0.0000
# 5 0.0000 0.0000 0.0000 0.0000 33.5057 0.0000
# 6 0.0000 0.0000 0.0000 0.0000 0.0000 30.2293
#
#
#
# Elastic Compliance Matrix: (Units=1/GPa)
#
#
# Indices 1 2 3 4 5 6 
#
# 1 0.009855 -0.002632 -0.002293 0.000000 0.000000 0.000000
# 2 -0.002632 0.018580 -0.009724 0.000000 0.000000 0.000000
# 3 -0.002293 -0.009724 0.016730 0.000000 0.000000 0.000000
# 4 0.000000 0.000000 0.000000 0.044007 0.000000 0.000000
# 5 0.000000 0.000000 0.000000 0.000000 0.029846 0.000000
# 6 0.000000 0.000000 0.000000 0.000000 0.000000 0.033080
#
#
# Mechanical properties :
#
#
# Convention : Reuss Voigt Hill
#
# Bulk Modulus (GPa) = 63.01709 63.23731 63.12720
# Shear Modulus (GPa) = 26.78300 28.98019 27.88159
#
# Velocity S-wave (km/s) = 3.75465 3.90563 3.83088
# Velocity P-wave (km/s) = 7.20875 7.32284 7.26601
#
# Compressibility (1/GPa) = 0.01586871
#
# Stress axis : x y z
#
# Youngs Moduli (GPa) = 101.46882 53.82141 59.77122
#
# Poissons Ratio (x) = 0.14163 0.13707
# Poissons Ratio (y) = 0.26702 0.58120
# Poissons Ratio (z) = 0.23269 0.52334
#
# Static dielectric constant tensor:
#      x y z
#    x 3.608900 0.000000 0.000000 
#    y 0.000000 3.560180 0.000000 
#    z 0.000000 0.000000 3.380160 
# 
# 
# High freq. dielectric constant tensor:
#      x y z
#    x 1.758020 0.000000 0.000000 
#    y 0.000000 1.727740 0.000000 
#    z 0.000000 0.000000 1.736590 
# 
# From -- ./inp_files/25302.got.cif
#   From: 2010.03.12/outbox.cif.g09.slc.cpg/sg67_13_cif.got.tgz:25302.got - 2010.04.10 22:41:39.
