data_PCOD8280519
_publ_section_title
;
Structure prediction by ZEFSAII (Michael W. Deem and Ramdas Pophale) SiO2 
 PCOD8280519
Probable space group: C M M A
;
_chemical_formula_sum "Si O2"
_cell_formula_units_Z 96
_cell_length_a 18.493383
_cell_length_b 27.807102
_cell_length_c 9.972080
_cell_angle_alpha 90.000000
_cell_angle_beta 90.000000
_cell_angle_gamma 90.000000
_cell_volume 5128.116087
_symmetry_space_group_name_H-M "C M M A"
_symmetry_group_IT_number 67
_symmetry_cell_setting 'orthorhombic'
loop_
_space_group_symop_operation_xyz
x,y,z
-x,1/2-y,z
x,-y,-z
-x,1/2+y,-z
-x,-y,-z
x,1/2+y,-z
-x,y,z
x,1/2-y,z
1/2+x,1/2+y,z
1/2-x,-y,z
1/2+x,1/2-y,-z
1/2-x,y,-z
1/2-x,1/2-y,-z
1/2+x,y,-z
1/2-x,1/2+y,z
1/2+x,-y,z
loop_
_atom_site_type_symbol
_atom_site_label
_atom_site_fract_x
_atom_site_fract_y
_atom_site_fract_z
Si Si1 0.685699 0.804588 0.905377
Si Si2 0.584840 0.610095 0.958185
Si Si3 0.584245 0.568375 0.242871
Si Si4 0.816906 0.302040 0.599163
Si Si5 0.584272 0.457218 0.282822
Si Si6 0.163380 0.900311 0.501436
O O1 0.664034 0.750000 0.941739
O O2 0.616822 0.837301 0.935181
O O3 0.710758 0.809114 0.751118
O O4 0.750000 0.822854 0.000000
O O5 0.500000 0.616247 0.952496
O O6 0.611537 0.574200 0.842207
O O7 0.609168 0.587697 0.098968
O O8 0.500000 0.578950 0.271426
O O9 0.600586 0.512009 0.247515
O O10 0.633679 0.596182 0.348807
O O11 0.858502 0.250000 0.588240
O O12 0.750000 0.300399 0.500000
O O13 0.864180 0.348537 0.557352
O O14 0.500000 0.448903 0.314255
O O15 0.629518 0.443108 0.414058
O O16 0.250000 0.904309 0.500000
#
# Coordination Sequence:
#
# PCOD8280519 Si02
#       6
#    16  16  16  16  16  16
#     4  10  21  37  60  86 111 145 185 223 274 336
#     4  10  21  37  58  83 111 144 186 232 275 320
#     4  10  22  38  57  79 110 150 188 225 272 332
#     4   9  19  36  56  81 110 144 182 220 270 327
#     4  10  20  38  59  79 108 149 190 225 270 329
#     4  11  22  35  56  86 112 143 181 232 277 322
#
# _framework density 18.720324000000002
#
# number of rings (size 3 to 8) (size 9 to 14) (size 15 to 20)
#    0.000    2.000    1.667    1.500    4.667    5.000 
#    0.000    0.000    0.000    6.000    0.000    0.000 
#    0.000    0.000    0.000    0.000    0.000    0.000 
#
# Total GULP energy -595143.587946 kJ/mol
# GULP energy per Si atom -12398.824749 kJ/mol
# Density = 1.867772 g / cm^3
# Si number density = 18.720324 Si / 1000 Ang^3
#
#
#
# Elastic Constant Matrix: (Units=GPa)
#
#
# Indices 1 2 3 4 5 6 
#
# 1 39.7764 31.2055 33.5947 0.0000 0.0000 0.0000
# 2 31.2055 106.4194 41.4790 0.0000 0.0000 0.0000
# 3 33.5947 41.4790 121.0345 0.0000 0.0000 0.0000
# 4 0.0000 0.0000 0.0000 29.1026 0.0000 0.0000
# 5 0.0000 0.0000 0.0000 0.0000 30.1507 0.0000
# 6 0.0000 0.0000 0.0000 0.0000 0.0000 23.2797
#
#
#
# Elastic Compliance Matrix: (Units=1/GPa)
#
#
# Indices 1 2 3 4 5 6 
#
# 1 0.038101 -0.008137 -0.007787 0.000000 0.000000 0.000000
# 2 -0.008137 0.012583 -0.002054 0.000000 0.000000 0.000000
# 3 -0.007787 -0.002054 0.011127 0.000000 0.000000 0.000000
# 4 0.000000 0.000000 0.000000 0.034361 0.000000 0.000000
# 5 0.000000 0.000000 0.000000 0.000000 0.033167 0.000000
# 6 0.000000 0.000000 0.000000 0.000000 0.000000 0.042956
#
#
# Mechanical properties :
#
#
# Convention : Reuss Voigt Hill
#
# Bulk Modulus (GPa) = 38.67576 53.30986 45.99281
# Shear Modulus (GPa) = 23.05529 27.23669 25.14599
#
# Velocity S-wave (km/s) = 3.51317 3.81849 3.66901
# Velocity P-wave (km/s) = 6.09599 6.92676 6.52461
#
# Compressibility (1/GPa) = 0.02585599
#
# Stress axis : x y z
#
# Youngs Moduli (GPa) = 26.24593 79.46977 89.86946
#
# Poissons Ratio (x) = 0.64668 0.69979
# Poissons Ratio (y) = 0.21357 0.18457
# Poissons Ratio (z) = 0.20437 0.16321
#
# Static dielectric constant tensor:
#      x y z
#    x 3.116270 0.000000 0.000000 
#    y 0.000000 3.914220 0.000000 
#    z 0.000000 0.000000 3.682960 
# 
# 
# High freq. dielectric constant tensor:
#      x y z
#    x 1.692020 0.000000 0.000000 
#    y 0.000000 1.743800 0.000000 
#    z 0.000000 0.000000 1.747330 
# 
# From -- ./inp_files/11443.got.cif
#   From: 2010.03.12/outbox.cif.g09.slc.cpg/sg67_6_cif.got.tgz:11443.got - 2010.04.10 22:41:39.
