data_PCOD8280492
_publ_section_title
;
Structure prediction by ZEFSAII (Michael W. Deem and Ramdas Pophale) SiO2 
 PCOD8280492
Probable space group: C M M A
;
_chemical_formula_sum "Si O2"
_cell_formula_units_Z 96
_cell_length_a 21.049064
_cell_length_b 30.605551
_cell_length_c 7.600658
_cell_angle_alpha 90.000000
_cell_angle_beta 90.000000
_cell_angle_gamma 90.000000
_cell_volume 4896.482229
_symmetry_space_group_name_H-M "C M M A"
_symmetry_group_IT_number 67
_symmetry_cell_setting 'orthorhombic'
loop_
_space_group_symop_operation_xyz
x,y,z
-x,1/2-y,z
x,-y,-z
-x,1/2+y,-z
-x,-y,-z
x,1/2+y,-z
-x,y,z
x,1/2-y,z
1/2+x,1/2+y,z
1/2-x,-y,z
1/2+x,1/2-y,-z
1/2-x,y,-z
1/2-x,1/2-y,-z
1/2+x,y,-z
1/2-x,1/2+y,z
1/2+x,-y,z
loop_
_atom_site_type_symbol
_atom_site_label
_atom_site_fract_x
_atom_site_fract_y
_atom_site_fract_z
Si Si1 0.569947 0.649394 0.020365
Si Si2 0.309044 0.701167 0.130535
Si Si3 0.888205 0.086203 0.310734
Si Si4 0.427563 0.493299 0.204131
Si Si5 0.760646 0.619680 0.698322
Si Si6 0.123624 0.902882 0.287287
O O1 0.500000 0.671920 0.019615
O O2 0.625347 0.685478 0.039217
O O3 0.568841 0.615131 0.181784
O O4 0.575009 0.623308 0.835720
O O5 0.320121 0.750000 0.204520
O O6 0.287850 0.669045 0.286913
O O7 0.250000 0.700464 0.000000
O O8 0.816118 0.087428 0.231488
O O9 0.888816 0.107869 0.506626
O O10 0.912735 0.036780 0.315239
O O11 0.500000 0.479572 0.239741
O O12 0.382138 0.454852 0.268852
O O13 0.414289 0.500000 0.000000
O O14 0.750000 0.606937 0.500000
O O15 0.692967 0.611578 0.790371
#
# Coordination Sequence:
#
# PCOD8280492 Si02
#       6
#    16  16  16  16  16  16
#     4  11  22  37  59  86 118 152 191 239 286 345
#     4  10  20  37  62  87 114 149 188 233 289 352
#     4  10  22  37  57  83 114 153 196 241 287 340
#     4  11  22  36  52  77 114 155 197 238 284 339
#     4   9  20  38  59  86 114 146 193 243 290 348
#     4  11  21  37  58  82 114 152 196 241 290 337
#
# _framework density 19.605910999999999
#
# number of rings (size 3 to 8) (size 9 to 14) (size 15 to 20)
#    0.000    1.667    3.333    1.500    0.000    4.667 
#    0.000    3.333    0.000    0.000    0.000    2.333 
#    0.000    0.000    0.000    0.000    0.000    0.000 
#
# Total GULP energy -594932.638212 kJ/mol
# GULP energy per Si atom -12394.429963 kJ/mol
# Density = 1.956129 g / cm^3
# Si number density = 19.605911 Si / 1000 Ang^3
#
#
#
# Elastic Constant Matrix: (Units=GPa)
#
#
# Indices 1 2 3 4 5 6 
#
# 1 135.6849 43.2001 31.2788 0.0000 0.0000 0.0000
# 2 43.2001 99.5682 11.4088 0.0000 0.0000 0.0000
# 3 31.2788 11.4088 67.2686 0.0000 0.0000 0.0000
# 4 0.0000 0.0000 0.0000 20.8477 0.0000 0.0000
# 5 0.0000 0.0000 0.0000 0.0000 20.5218 0.0000
# 6 0.0000 0.0000 0.0000 0.0000 0.0000 20.0721
#
#
#
# Elastic Compliance Matrix: (Units=1/GPa)
#
#
# Indices 1 2 3 4 5 6 
#
# 1 0.009396 -0.003647 -0.003750 0.000000 0.000000 0.000000
# 2 -0.003647 0.011658 -0.000281 0.000000 0.000000 0.000000
# 3 -0.003750 -0.000281 0.016657 0.000000 0.000000 0.000000
# 4 0.000000 0.000000 0.000000 0.047967 0.000000 0.000000
# 5 0.000000 0.000000 0.000000 0.000000 0.048729 0.000000
# 6 0.000000 0.000000 0.000000 0.000000 0.000000 0.049820
#
#
# Mechanical properties :
#
#
# Convention : Reuss Voigt Hill
#
# Bulk Modulus (GPa) = 44.73538 52.69967 48.71753
# Shear Modulus (GPa) = 24.15045 26.73058 25.44052
#
# Velocity S-wave (km/s) = 3.51350 3.69642 3.60612
# Velocity P-wave (km/s) = 6.27108 6.71981 6.49932
#
# Compressibility (1/GPa) = 0.02235367
#
# Stress axis : x y z
#
# Youngs Moduli (GPa) = 106.43216 85.77892 60.03353
#
# Poissons Ratio (x) = 0.31282 0.22515
# Poissons Ratio (y) = 0.38814 0.01690
# Poissons Ratio (z) = 0.39916 0.02414
#
# Static dielectric constant tensor:
#      x y z
#    x 4.037010 0.000000 0.000000 
#    y 0.000000 3.511440 0.000000 
#    z 0.000000 0.000000 3.486740 
# 
# 
# High freq. dielectric constant tensor:
#      x y z
#    x 1.779220 0.000000 0.000000 
#    y 0.000000 1.739920 0.000000 
#    z 0.000000 0.000000 1.760250 
# 
# From -- ./inp_files/11462.got.cif
#   From: 2010.03.12/outbox.cif.g09.slc.cpg/sg67_6_cif.got.tgz:11462.got - 2010.04.10 22:41:39.
