data_PCOD8280144
_publ_section_title
;
Structure prediction by ZEFSAII (Michael W. Deem and Ramdas Pophale) SiO2 
 PCOD8280144
Probable space group: C M M A
;
_chemical_formula_sum "Si O2"
_cell_formula_units_Z 104
_cell_length_a 8.584254
_cell_length_b 26.453456
_cell_length_c 22.650937
_cell_angle_alpha 90.000000
_cell_angle_beta 90.000000
_cell_angle_gamma 90.000000
_cell_volume 5143.646928
_symmetry_space_group_name_H-M "C M M A"
_symmetry_group_IT_number 67
_symmetry_cell_setting 'orthorhombic'
loop_
_space_group_symop_operation_xyz
x,y,z
-x,1/2-y,z
x,-y,-z
-x,1/2+y,-z
-x,-y,-z
x,1/2+y,-z
-x,y,z
x,1/2-y,z
1/2+x,1/2+y,z
1/2-x,-y,z
1/2+x,1/2-y,-z
1/2-x,y,-z
1/2-x,1/2-y,-z
1/2+x,y,-z
1/2-x,1/2+y,z
1/2+x,-y,z
loop_
_atom_site_type_symbol
_atom_site_label
_atom_site_fract_x
_atom_site_fract_y
_atom_site_fract_z
Si Si1 0.179445 0.193962 0.136554
Si Si2 0.319561 0.648706 0.753605
Si Si3 0.314625 0.945876 0.564769
Si Si4 0.317582 0.600245 0.063515
Si Si5 0.682662 0.348759 0.628137
Si Si6 0.681462 0.550893 0.826438
Si Si7 0.185166 0.250000 0.565212
O O1 0.201518 0.250000 0.110655
O O2 0.279415 0.189704 0.196375
O O3 0.239943 0.155277 0.086599
O O4 0.000000 0.182282 0.152372
O O5 0.500000 0.653354 0.735523
O O6 0.212118 0.658279 0.697380
O O7 0.277192 0.594085 0.779792
O O8 0.500000 0.948515 0.562895
O O9 0.250000 0.933805 0.500000
O O10 0.261729 0.900992 0.607687
O O11 0.250000 0.000000 0.587642
O O12 0.500000 0.597969 0.057663
O O13 0.261822 0.558829 0.110256
O O14 0.250000 0.587969 0.000000
O O15 0.500000 0.350937 0.614564
O O16 0.755581 0.300594 0.596245
O O17 0.500000 0.546831 0.837605
O O18 0.750000 0.500000 0.798232
O O19 0.250000 0.250000 0.500000
O O20 0.000000 0.250000 0.565195
#
# Coordination Sequence:
#
# PCOD8280144 Si02
#       7
#    16  16  16  16  16  16   8
#     4   9  19  36  57  80 110 149 190 235 290 349
#     4  10  22  39  58  85 117 151 192 242 293 348
#     4  11  22  40  64  92 124 160 202 250 303 361
#     4  10  20  35  55  81 114 149 190 239 289 347
#     4  12  25  42  64  92 125 165 208 253 306 366
#     4  10  21  38  60  84 114 151 193 239 295 353
#     4  12  26  46  68  94 128 166 209 258 311 370
#
# _framework density 20.219114999999999
#
# number of rings (size 3 to 8) (size 9 to 14) (size 15 to 20)
#    0.000    1.538    0.000    5.769    1.077    4.000 
#    0.000    3.077    0.000    0.000    0.000    0.000 
#    0.000    0.000    0.000    0.000    0.000    0.000 
#
# Total GULP energy -644968.356714 kJ/mol
# GULP energy per Si atom -12403.237629 kJ/mol
# Density = 2.017310 g / cm^3
# Si number density = 20.219115 Si / 1000 Ang^3
#
#
#
# Elastic Constant Matrix: (Units=GPa)
#
#
# Indices 1 2 3 4 5 6 
#
# 1 118.0057 32.2971 35.2447 0.0000 0.0000 0.0000
# 2 32.2971 99.8149 18.8830 0.0000 0.0000 0.0000
# 3 35.2447 18.8830 91.5704 0.0000 0.0000 0.0000
# 4 0.0000 0.0000 0.0000 15.4383 0.0000 0.0000
# 5 0.0000 0.0000 0.0000 0.0000 32.3795 0.0000
# 6 0.0000 0.0000 0.0000 0.0000 0.0000 35.1012
#
#
#
# Elastic Compliance Matrix: (Units=1/GPa)
#
#
# Indices 1 2 3 4 5 6 
#
# 1 0.010214 -0.002665 -0.003382 0.000000 0.000000 0.000000
# 2 -0.002665 0.011121 -0.001267 0.000000 0.000000 0.000000
# 3 -0.003382 -0.001267 0.012483 0.000000 0.000000 0.000000
# 4 0.000000 0.000000 0.000000 0.064774 0.000000 0.000000
# 5 0.000000 0.000000 0.000000 0.000000 0.030884 0.000000
# 6 0.000000 0.000000 0.000000 0.000000 0.000000 0.028489
#
#
# Mechanical properties :
#
#
# Convention : Reuss Voigt Hill
#
# Bulk Modulus (GPa) = 52.11178 53.58227 52.84703
# Shear Modulus (GPa) = 27.93470 31.44823 29.69146
#
# Velocity S-wave (km/s) = 3.72102 3.94810 3.83624
# Velocity P-wave (km/s) = 6.65513 6.88053 6.76877
#
# Compressibility (1/GPa) = 0.01918952
#
# Stress axis : x y z
#
# Youngs Moduli (GPa) = 97.90926 89.92267 80.10612
#
# Poissons Ratio (x) = 0.23965 0.27088
# Poissons Ratio (y) = 0.26094 0.10153
# Poissons Ratio (z) = 0.33108 0.11397
#
# Static dielectric constant tensor:
#      x y z
#    x 3.798660 0.000000 0.000000 
#    y 0.000000 3.816350 0.000000 
#    z 0.000000 0.000000 3.527880 
# 
# 
# High freq. dielectric constant tensor:
#      x y z
#    x 1.803190 0.000000 0.000000 
#    y 0.000000 1.801360 0.000000 
#    z 0.000000 0.000000 1.783810 
# 
# From -- ./inp_files/37331.got.cif
#   From: 2010.03.12/outbox.cif.g09.slc.cpg/sg67_19_cif.got.tgz:37331.got - 2010.04.10 22:41:39.
