data_PCOD8280241
_publ_section_title
;
Structure prediction by ZEFSAII (Michael W. Deem and Ramdas Pophale) SiO2 
 PCOD8280241
Probable space group: C M M A
;
_chemical_formula_sum "Si O2"
_cell_formula_units_Z 80
_cell_length_a 25.680959
_cell_length_b 16.767666
_cell_length_c 9.486129
_cell_angle_alpha 90.000000
_cell_angle_beta 90.000000
_cell_angle_gamma 90.000000
_cell_volume 4084.819571
_symmetry_space_group_name_H-M "C M M A"
_symmetry_group_IT_number 67
_symmetry_cell_setting 'orthorhombic'
loop_
_space_group_symop_operation_xyz
x,y,z
-x,1/2-y,z
x,-y,-z
-x,1/2+y,-z
-x,-y,-z
x,1/2+y,-z
-x,y,z
x,1/2-y,z
1/2+x,1/2+y,z
1/2-x,-y,z
1/2+x,1/2-y,-z
1/2-x,y,-z
1/2-x,1/2-y,-z
1/2+x,y,-z
1/2-x,1/2+y,z
1/2+x,-y,z
loop_
_atom_site_type_symbol
_atom_site_label
_atom_site_fract_x
_atom_site_fract_y
_atom_site_fract_z
Si Si1 0.055940 0.658282 0.308263
Si Si2 0.855038 0.655858 0.119576
Si Si3 0.250538 0.909399 0.167950
Si Si4 0.439915 0.580994 0.414164
Si Si5 0.641234 0.844444 0.202262
O O1 0.052947 0.750000 0.267759
O O2 0.097797 0.616438 0.207504
O O3 0.069275 0.651312 0.473267
O O4 0.000000 0.616346 0.279633
O O5 0.856442 0.750000 0.119053
O O6 0.804080 0.630648 0.208129
O O7 0.861656 0.625740 0.959683
O O8 0.298698 0.863885 0.244003
O O9 0.250000 0.000000 0.219979
O O10 0.250000 0.901663 0.000000
O O11 0.426459 0.500000 0.500000
O O12 0.500000 0.579633 0.358426
O O13 0.400091 0.601075 0.287232
O O14 0.629718 0.750000 0.221435
#
# Coordination Sequence:
#
# PCOD8280241 Si02
#       5
#    16  16  16  16  16
#     4   9  18  34  55  77 105 144 182 219 273 335
#     4   9  18  33  56  84 112 141 181 231 276 329
#     4   9  18  32  53  81 112 146 180 220 277 335
#     4  10  22  38  55  78 110 148 186 227 279 333
#     4  10  20  35  58  85 110 142 186 232 276 330
#
# _framework density 19.584707999999999
#
# number of rings (size 3 to 8) (size 9 to 14) (size 15 to 20)
#    0.000    2.600    0.000    1.200    2.800    4.400 
#    0.000    3.000    0.000    7.200    0.000    0.000 
#    0.000    0.000    0.000    0.000    0.000    0.000 
#
# Total GULP energy -495526.622500 kJ/mol
# GULP energy per Si atom -12388.165562 kJ/mol
# Density = 1.954013 g / cm^3
# Si number density = 19.584708 Si / 1000 Ang^3
#
#
#
# Elastic Constant Matrix: (Units=GPa)
#
#
# Indices 1 2 3 4 5 6 
#
# 1 178.4766 36.5123 82.2351 0.0000 0.0000 0.0000
# 2 36.5123 53.0300 21.4632 0.0000 0.0000 0.0000
# 3 82.2351 21.4632 70.8622 0.0000 0.0000 0.0000
# 4 0.0000 0.0000 0.0000 17.6550 0.0000 0.0000
# 5 0.0000 0.0000 0.0000 0.0000 28.8404 0.0000
# 6 0.0000 0.0000 0.0000 0.0000 0.0000 28.2381
#
#
#
# Elastic Compliance Matrix: (Units=1/GPa)
#
#
# Indices 1 2 3 4 5 6 
#
# 1 0.012477 -0.003112 -0.013537 0.000000 0.000000 0.000000
# 2 -0.003112 0.022268 -0.003134 0.000000 0.000000 0.000000
# 3 -0.013537 -0.003134 0.030770 0.000000 0.000000 0.000000
# 4 0.000000 0.000000 0.000000 0.056641 0.000000 0.000000
# 5 0.000000 0.000000 0.000000 0.000000 0.034674 0.000000
# 6 0.000000 0.000000 0.000000 0.000000 0.000000 0.035413
#
#
# Mechanical properties :
#
#
# Convention : Reuss Voigt Hill
#
# Bulk Modulus (GPa) = 38.53407 64.75445 51.64426
# Shear Modulus (GPa) = 20.79370 25.75723 23.27546
#
# Velocity S-wave (km/s) = 3.26196 3.63046 3.45113
# Velocity P-wave (km/s) = 5.82284 7.12104 6.50441
#
# Compressibility (1/GPa) = 0.02595106
#
# Stress axis : x y z
#
# Youngs Moduli (GPa) = 80.14912 44.90747 32.49891
#
# Poissons Ratio (x) = 0.13974 0.43993
# Poissons Ratio (y) = 0.24940 0.10184
# Poissons Ratio (z) = 1.08495 0.14072
#
# Static dielectric constant tensor:
#      x y z
#    x 4.129520 0.000000 0.000000 
#    y 0.000000 3.440950 0.000000 
#    z 0.000000 0.000000 3.483330 
# 
# 
# High freq. dielectric constant tensor:
#      x y z
#    x 1.778450 0.000000 0.000000 
#    y 0.000000 1.758320 0.000000 
#    z 0.000000 0.000000 1.728580 
# 
# From -- ./inp_files/13531.got.cif
#   From: 2010.03.12/outbox.cif.g09.slc.cpg/sg67_7_cif.got.tgz:13531.got - 2010.04.10 22:41:39.
