data_PCOD8280971
_publ_section_title
;
Structure prediction by ZEFSAII (Michael W. Deem and Ramdas Pophale) SiO2 
 PCOD8280971
Probable space group: C M M A
;
_chemical_formula_sum "Si O2"
_cell_formula_units_Z 80
_cell_length_a 18.150904
_cell_length_b 8.877552
_cell_length_c 25.522836
_cell_angle_alpha 90.000000
_cell_angle_beta 90.000000
_cell_angle_gamma 90.000000
_cell_volume 4112.637342
_symmetry_space_group_name_H-M "C M M A"
_symmetry_group_IT_number 67
_symmetry_cell_setting 'orthorhombic'
loop_
_space_group_symop_operation_xyz
x,y,z
-x,1/2-y,z
x,-y,-z
-x,1/2+y,-z
-x,-y,-z
x,1/2+y,-z
-x,y,z
x,1/2-y,z
1/2+x,1/2+y,z
1/2-x,-y,z
1/2+x,1/2-y,-z
1/2-x,y,-z
1/2-x,1/2-y,-z
1/2+x,y,-z
1/2-x,1/2+y,z
1/2+x,-y,z
loop_
_atom_site_type_symbol
_atom_site_label
_atom_site_fract_x
_atom_site_fract_y
_atom_site_fract_z
Si Si1 0.415332 0.426891 0.054999
Si Si2 0.585768 0.077181 0.746405
Si Si3 0.828995 0.572557 0.345491
Si Si4 0.416070 0.572156 0.553353
Si Si5 0.828084 0.073345 0.148698
O O1 0.500000 0.463554 0.069069
O O2 0.400828 0.250000 0.051787
O O3 0.363052 0.498791 0.097940
O O4 0.393424 0.500000 0.000000
O O5 0.500000 0.041741 0.750093
O O6 0.601447 0.250000 0.730906
O O7 0.619829 0.038063 0.802390
O O8 0.619992 0.969480 0.703044
O O9 0.819655 0.750000 0.347102
O O10 0.750000 0.500000 0.338329
O O11 0.866634 0.512572 0.398786
O O12 0.384984 0.500000 0.500000
O O13 0.500000 0.519199 0.563383
O O14 0.411388 0.750000 0.547976
O O15 0.818712 0.250000 0.138819
O O16 0.750000 0.000000 0.161099
#
# Coordination Sequence:
#
# PCOD8280971 Si02
#       5
#    16  16  16  16  16
#     4  10  21  38  61  88 117 151 192 236 283 336
#     4  10  22  40  62  87 114 147 188 233 283 339
#     4  11  23  38  57  83 116 151 189 234 283 336
#     4   9  19  36  57  81 109 144 187 233 281 334
#     4  11  23  39  59  85 118 152 189 234 283 336
#
# _framework density 19.452237
#
# number of rings (size 3 to 8) (size 9 to 14) (size 15 to 20)
#    0.000    1.800    0.000    3.600    0.000    8.800 
#    0.000    6.000    0.000    0.000    0.000    0.000 
#    0.000    0.000    0.000    0.000    0.000    0.000 
#
# Total GULP energy -496222.076489 kJ/mol
# GULP energy per Si atom -12405.551912 kJ/mol
# Density = 1.940796 g / cm^3
# Si number density = 19.452237 Si / 1000 Ang^3
#
#
#
# Elastic Constant Matrix: (Units=GPa)
#
#
# Indices 1 2 3 4 5 6 
#
# 1 123.3362 43.9072 67.7579 0.0000 0.0000 0.0000
# 2 43.9072 74.4942 52.2577 0.0000 0.0000 0.0000
# 3 67.7579 52.2577 129.9898 0.0000 0.0000 0.0000
# 4 0.0000 0.0000 0.0000 36.5396 0.0000 0.0000
# 5 0.0000 0.0000 0.0000 0.0000 -18.0900 0.0000
# 6 0.0000 0.0000 0.0000 0.0000 0.0000 28.8895
#
#
#
# Elastic Compliance Matrix: (Units=1/GPa)
#
#
# Indices 1 2 3 4 5 6 
#
# 1 0.012074 -0.003763 -0.004781 0.000000 0.000000 0.000000
# 2 -0.003763 0.019869 -0.006026 0.000000 0.000000 0.000000
# 3 -0.004781 -0.006026 0.012608 0.000000 0.000000 0.000000
# 4 0.000000 0.000000 0.000000 0.027368 0.000000 0.000000
# 5 0.000000 0.000000 0.000000 0.000000 -0.055279 0.000000
# 6 0.000000 0.000000 0.000000 0.000000 0.000000 0.034615
#
#
# Mechanical properties :
#
#
# Convention : Reuss Voigt Hill
#
# Bulk Modulus (GPa) = 64.88943 72.85173 68.87058
# Shear Modulus (GPa) = 58.45860 20.39432 39.42646
#
# Velocity S-wave (km/s) = 5.48795 3.24146 4.50692
# Velocity P-wave (km/s) = 8.57832 7.17930 7.90980
#
# Compressibility (1/GPa) = 0.01541083
#
# Stress axis : x y z
#
# Youngs Moduli (GPa) = 82.82295 50.32959 79.31645
#
# Poissons Ratio (x) = 0.18937 0.37921
# Poissons Ratio (y) = 0.31163 0.47799
# Poissons Ratio (z) = 0.39598 0.30330
#
# Static dielectric constant tensor:
#      x y z
#    x 3.666900 0.000000 0.000000 
#    y 0.000000 3.575150 0.000000 
#    z 0.000000 0.000000 3.680050 
# 
# 
# High freq. dielectric constant tensor:
#      x y z
#    x 1.764430 0.000000 0.000000 
#    y 0.000000 1.762040 0.000000 
#    z 0.000000 0.000000 1.771650 
# 
# From -- ./inp_files/44421.got.cif
#   From: 2010.03.12/outbox.cif.g09.slc.cpg/sg67_23_cif.got.tgz:44421.got - 2010.04.10 22:41:39.
