data_PCOD8280556
_publ_section_title
;
Structure prediction by ZEFSAII (Michael W. Deem and Ramdas Pophale) SiO2 
 PCOD8280556
Probable space group: C M M A
;
_chemical_formula_sum "Si O2"
_cell_formula_units_Z 116
_cell_length_a 30.683015
_cell_length_b 17.446840
_cell_length_c 11.171334
_cell_angle_alpha 90.000000
_cell_angle_beta 90.000000
_cell_angle_gamma 90.000000
_cell_volume 5980.256988
_symmetry_space_group_name_H-M "C M M A"
_symmetry_group_IT_number 67
_symmetry_cell_setting 'orthorhombic'
loop_
_space_group_symop_operation_xyz
x,y,z
-x,1/2-y,z
x,-y,-z
-x,1/2+y,-z
-x,-y,-z
x,1/2+y,-z
-x,y,z
x,1/2-y,z
1/2+x,1/2+y,z
1/2-x,-y,z
1/2+x,1/2-y,-z
1/2-x,y,-z
1/2-x,1/2-y,-z
1/2+x,y,-z
1/2-x,1/2+y,z
1/2+x,-y,z
loop_
_atom_site_type_symbol
_atom_site_label
_atom_site_fract_x
_atom_site_fract_y
_atom_site_fract_z
Si Si1 0.377246 0.338172 0.573503
Si Si2 0.115016 0.659824 0.053174
Si Si3 0.296720 0.084535 0.453248
Si Si4 0.950533 0.052869 0.831561
Si Si5 0.750000 0.000000 0.000000
Si Si6 0.119482 0.927908 0.817785
Si Si7 0.815139 0.565550 0.181633
Si Si8 0.950723 0.919433 0.446128
O O1 0.374950 0.250000 0.609212
O O2 0.333646 0.359279 0.502033
O O3 0.384365 0.386852 0.692005
O O4 0.419140 0.352279 0.490003
O O5 0.109120 0.750000 0.059242
O O6 0.069397 0.620636 0.088555
O O7 0.152524 0.633897 0.145128
O O8 0.128400 0.634590 0.919807
O O9 0.250000 0.113480 0.500000
O O10 0.294758 0.085869 0.309641
O O11 0.307427 0.000000 0.500000
O O12 0.947564 0.079025 0.695352
O O13 0.000000 0.038397 0.872095
O O14 0.924601 0.973665 0.850056
O O15 0.722417 0.057234 0.083270
O O16 0.159836 0.985282 0.812513
O O17 0.000000 0.902582 0.489912
O O18 0.934138 0.000000 0.500000
#
# Coordination Sequence:
#
# PCOD8280556 Si02
#       8
#    16  16  16  16   4  16  16  16
#     4  12  24  38  61  92 128 163 197 248 315 370
#     4  11  24  41  58  87 127 160 198 250 306 359
#     4  11  23  40  64  93 123 159 204 253 299 360
#     4  10  21  38  66  91 115 159 210 251 293 358
#     4  12  20  40  68  96 110 148 218 262 288 356
#     4  11  21  41  61  87 122 161 204 249 299 360
#     4  11  22  39  69  89 115 160 204 253 299 353
#     4  10  20  38  63  89 118 155 200 251 299 360
#
# _framework density 19.39716
#
# number of rings (size 3 to 8) (size 9 to 14) (size 15 to 20)
#    0.000    1.103    4.138    4.552    0.000    4.138 
#    0.000    1.724    0.000    2.483    0.000    0.000 
#    0.000    0.000    0.000    0.000    0.000    0.000 
#
# Total GULP energy -719494.919612 kJ/mol
# GULP energy per Si atom -12405.084821 kJ/mol
# Density = 1.935301 g / cm^3
# Si number density = 19.397160 Si / 1000 Ang^3
#
#
#
# Elastic Constant Matrix: (Units=GPa)
#
#
# Indices 1 2 3 4 5 6 
#
# 1 124.5109 46.4495 36.4226 0.0000 0.0000 0.0000
# 2 46.4495 116.1771 35.5685 0.0000 0.0000 0.0000
# 3 36.4226 35.5685 104.1253 0.0000 0.0000 0.0000
# 4 0.0000 0.0000 0.0000 3.1395 0.0000 0.0000
# 5 0.0000 0.0000 0.0000 0.0000 32.8534 0.0000
# 6 0.0000 0.0000 0.0000 0.0000 0.0000 9.5209
#
#
#
# Elastic Compliance Matrix: (Units=1/GPa)
#
#
# Indices 1 2 3 4 5 6 
#
# 1 0.009935 -0.003248 -0.002366 0.000000 0.000000 0.000000
# 2 -0.003248 0.010675 -0.002510 0.000000 0.000000 0.000000
# 3 -0.002366 -0.002510 0.011289 0.000000 0.000000 0.000000
# 4 0.000000 0.000000 0.000000 0.318521 0.000000 0.000000
# 5 0.000000 0.000000 0.000000 0.000000 0.030438 0.000000
# 6 0.000000 0.000000 0.000000 0.000000 0.000000 0.105032
#
#
# Mechanical properties :
#
#
# Convention : Reuss Voigt Hill
#
# Bulk Modulus (GPa) = 63.89514 64.63273 64.26393
# Shear Modulus (GPa) = 9.85503 24.19428 17.02465
#
# Velocity S-wave (km/s) = 2.25648 3.53556 2.96579
# Velocity P-wave (km/s) = 6.30879 7.07531 6.70302
#
# Compressibility (1/GPa) = 0.01565064
#
# Stress axis : x y z
#
# Youngs Moduli (GPa) = 100.65281 93.67979 88.58295
#
# Poissons Ratio (x) = 0.30427 0.20957
# Poissons Ratio (y) = 0.32691 0.22237
# Poissons Ratio (z) = 0.23812 0.23516
#
# Static dielectric constant tensor:
#      x y z
#    x 3.723160 0.000000 0.000000 
#    y 0.000000 3.296070 0.000000 
#    z 0.000000 0.000000 3.752750 
# 
# 
# High freq. dielectric constant tensor:
#      x y z
#    x 1.763700 0.000000 0.000000 
#    y 0.000000 1.730020 0.000000 
#    z 0.000000 0.000000 1.776160 
# 
# From -- ./inp_files/23966.got.cif
#   From: 2010.03.12/outbox.cif.g09.slc.cpg/sg67_12_cif.got.tgz:23966.got - 2010.04.10 22:41:39.
