data_PCOD8280198
_publ_section_title
;
Structure prediction by ZEFSAII (Michael W. Deem and Ramdas Pophale) SiO2 
 PCOD8280198
Probable space group: C M M A
;
_chemical_formula_sum "Si O2"
_cell_formula_units_Z 80
_cell_length_a 25.057870
_cell_length_b 13.873619
_cell_length_c 12.239028
_cell_angle_alpha 90.000000
_cell_angle_beta 90.000000
_cell_angle_gamma 90.000000
_cell_volume 4254.816589
_symmetry_space_group_name_H-M "C M M A"
_symmetry_group_IT_number 67
_symmetry_cell_setting 'orthorhombic'
loop_
_space_group_symop_operation_xyz
x,y,z
-x,1/2-y,z
x,-y,-z
-x,1/2+y,-z
-x,-y,-z
x,1/2+y,-z
-x,y,z
x,1/2-y,z
1/2+x,1/2+y,z
1/2-x,-y,z
1/2+x,1/2-y,-z
1/2-x,y,-z
1/2-x,1/2-y,-z
1/2+x,y,-z
1/2-x,1/2+y,z
1/2+x,-y,z
loop_
_atom_site_type_symbol
_atom_site_label
_atom_site_fract_x
_atom_site_fract_y
_atom_site_fract_z
Si Si1 0.212960 0.641419 0.098704
Si Si2 0.754248 0.857942 0.666298
Si Si3 0.158891 0.993560 0.381020
Si Si4 0.888240 0.976569 0.153464
Si Si5 0.938707 0.860329 0.979616
O O1 0.189027 0.750000 0.084414
O O2 0.250256 0.637740 0.203963
O O3 0.167718 0.561019 0.106923
O O4 0.250000 0.610896 0.000000
O O5 0.755430 0.750000 0.620318
O O6 0.702809 0.908759 0.612651
O O7 0.810309 0.906949 0.639006
O O8 0.114371 0.976222 0.286153
O O9 0.130160 0.000000 0.500000
O O10 0.932411 0.903589 0.102801
O O11 0.901235 0.083036 0.106964
O O12 0.920257 0.750000 0.978258
O O13 0.000000 0.871170 0.943881
#
# Coordination Sequence:
#
# PCOD8280198 Si02
#       5
#    16  16  16  16  16
#     4   9  18  30  48  77 115 151 178 211 258 309
#     4   9  18  32  48  68 102 151 193 220 249 290
#     4  10  21  34  48  74 107 142 186 225 251 293
#     4  10  20  35  57  80 107 140 177 215 265 317
#     4  10  22  40  61  83 105 129 165 219 281 341
#
# _framework density 18.802219999999998
#
# number of rings (size 3 to 8) (size 9 to 14) (size 15 to 20)
#    0.000    2.400    0.000    3.000    5.600    3.200 
#    0.000    0.000    0.000    3.000    0.000    2.800 
#    0.000    0.000    0.000    0.000    0.000    0.000 
#
# Total GULP energy -495756.876493 kJ/mol
# GULP energy per Si atom -12393.921912 kJ/mol
# Density = 1.875943 g / cm^3
# Si number density = 18.802220 Si / 1000 Ang^3
#
#
#
# Elastic Constant Matrix: (Units=GPa)
#
#
# Indices 1 2 3 4 5 6 
#
# 1 52.5422 33.1958 43.1709 0.0000 0.0000 0.0000
# 2 33.1958 146.8832 34.8862 0.0000 0.0000 0.0000
# 3 43.1709 34.8862 135.2983 0.0000 0.0000 0.0000
# 4 0.0000 0.0000 0.0000 3.4009 0.0000 0.0000
# 5 0.0000 0.0000 0.0000 0.0000 18.3722 0.0000
# 6 0.0000 0.0000 0.0000 0.0000 0.0000 27.1899
#
#
#
# Elastic Compliance Matrix: (Units=1/GPa)
#
#
# Indices 1 2 3 4 5 6 
#
# 1 0.028380 -0.004541 -0.007884 0.000000 0.000000 0.000000
# 2 -0.004541 0.007979 -0.000608 0.000000 0.000000 0.000000
# 3 -0.007884 -0.000608 0.010064 0.000000 0.000000 0.000000
# 4 0.000000 0.000000 0.000000 0.294043 0.000000 0.000000
# 5 0.000000 0.000000 0.000000 0.000000 0.054430 0.000000
# 6 0.000000 0.000000 0.000000 0.000000 0.000000 0.036778
#
#
# Mechanical properties :
#
#
# Convention : Reuss Voigt Hill
#
# Bulk Modulus (GPa) = 49.12963 61.91438 55.52201
# Shear Modulus (GPa) = 10.76365 24.69065 17.72715
#
# Velocity S-wave (km/s) = 2.39522 3.62771 3.07387
# Velocity P-wave (km/s) = 5.81686 7.10970 6.49553
#
# Compressibility (1/GPa) = 0.02035432
#
# Stress axis : x y z
#
# Youngs Moduli (GPa) = 35.23661 125.32996 99.36728
#
# Poissons Ratio (x) = 0.56915 0.78345
# Poissons Ratio (y) = 0.16002 0.06045
# Poissons Ratio (z) = 0.27782 0.07624
#
# Static dielectric constant tensor:
#      x y z
#    x 3.143280 0.000000 0.000000 
#    y 0.000000 3.738020 0.000000 
#    z 0.000000 0.000000 3.606940 
# 
# 
# High freq. dielectric constant tensor:
#      x y z
#    x 1.685050 0.000000 0.000000 
#    y 0.000000 1.747320 0.000000 
#    z 0.000000 0.000000 1.727530 
# 
# From -- ./inp_files/18233.got.cif
#   From: 2010.03.12/outbox.cif.g09.slc.cpg/sg67_10_cif.got.tgz:18233.got - 2010.04.10 22:41:39.
