data_PCOD8280907
_publ_section_title
;
Structure prediction by ZEFSAII (Michael W. Deem and Ramdas Pophale) SiO2 
 PCOD8280907
Probable space group: C M M A
;
_chemical_formula_sum "Si O2"
_cell_formula_units_Z 56
_cell_length_a 18.383837
_cell_length_b 8.924119
_cell_length_c 19.483161
_cell_angle_alpha 90.000000
_cell_angle_beta 90.000000
_cell_angle_gamma 90.000000
_cell_volume 3196.398608
_symmetry_space_group_name_H-M "C M M A"
_symmetry_group_IT_number 67
_symmetry_cell_setting 'orthorhombic'
loop_
_space_group_symop_operation_xyz
x,y,z
-x,1/2-y,z
x,-y,-z
-x,1/2+y,-z
-x,-y,-z
x,1/2+y,-z
-x,y,z
x,1/2-y,z
1/2+x,1/2+y,z
1/2-x,-y,z
1/2+x,1/2-y,-z
1/2-x,y,-z
1/2-x,1/2-y,-z
1/2+x,y,-z
1/2-x,1/2+y,z
1/2+x,-y,z
loop_
_atom_site_type_symbol
_atom_site_label
_atom_site_fract_x
_atom_site_fract_y
_atom_site_fract_z
Si Si1 0.171959 0.426570 0.809029
Si Si2 0.919120 0.080202 0.299261
Si Si3 0.586009 0.422332 0.930468
Si Si4 0.000000 0.422223 0.427741
O O1 0.179084 0.250000 0.816625
O O2 0.250000 0.500000 0.816221
O O3 0.136956 0.465984 0.735235
O O4 0.120007 0.490902 0.867132
O O5 0.889760 0.250000 0.289709
O O6 0.000000 0.068774 0.265001
O O7 0.928432 0.040485 0.380795
O O8 0.500000 0.436200 0.924330
O O9 0.611520 0.250000 0.930189
O O10 0.614204 0.500000 0.000000
O O11 0.000000 0.500000 0.500000
O O12 0.000000 0.250000 0.445755
#
# Coordination Sequence:
#
# PCOD8280907 Si02
#       4
#    16  16  16   8
#     4  12  24  36  53  77 107 143 182 223 267 319
#     4   8  17  34  54  78 108 141 173 214 262 310
#     4  10  21  38  59  81 107 138 175 222 270 318
#     4   8  16  30  54  84 113 140 171 214 260 308
#
# _framework density 17.519718000000001
#
# number of rings (size 3 to 8) (size 9 to 14) (size 15 to 20)
#    0.857    1.429    0.000    4.286    0.000    7.429 
#    0.000    2.857    0.000    0.857    0.000    6.000 
#    0.000    0.000    0.000    0.000    0.000    0.000 
#
# Total GULP energy -346980.794639 kJ/mol
# GULP energy per Si atom -12392.171237 kJ/mol
# Density = 1.747984 g / cm^3
# Si number density = 17.519718 Si / 1000 Ang^3
#
#
#
# Elastic Constant Matrix: (Units=GPa)
#
#
# Indices 1 2 3 4 5 6 
#
# 1 22.9940 33.4648 19.4510 0.0000 0.0000 0.0000
# 2 33.4648 144.7749 63.1165 0.0000 0.0000 0.0000
# 3 19.4510 63.1165 117.7099 0.0000 0.0000 0.0000
# 4 0.0000 0.0000 0.0000 37.1253 0.0000 0.0000
# 5 0.0000 0.0000 0.0000 0.0000 3.2557 0.0000
# 6 0.0000 0.0000 0.0000 0.0000 0.0000 27.4764
#
#
#
# Elastic Compliance Matrix: (Units=1/GPa)
#
#
# Indices 1 2 3 4 5 6 
#
# 1 0.066682 -0.013847 -0.003594 0.000000 0.000000 0.000000
# 2 -0.013847 0.011890 -0.004087 0.000000 0.000000 0.000000
# 3 -0.003594 -0.004087 0.011281 0.000000 0.000000 0.000000
# 4 0.000000 0.000000 0.000000 0.026936 0.000000 0.000000
# 5 0.000000 0.000000 0.000000 0.000000 0.307150 0.000000
# 6 0.000000 0.000000 0.000000 0.000000 0.000000 0.036395
#
#
# Mechanical properties :
#
#
# Convention : Reuss Voigt Hill
#
# Bulk Modulus (GPa) = 21.36908 57.50481 39.43694
# Shear Modulus (GPa) = 9.63411 24.86791 17.25101
#
# Velocity S-wave (km/s) = 2.34754 3.77161 3.14134
# Velocity P-wave (km/s) = 4.42398 7.20145 5.97631
#
# Compressibility (1/GPa) = 0.04679660
#
# Stress axis : x y z
#
# Youngs Moduli (GPa) = 14.99651 84.10534 88.64451
#
# Poissons Ratio (x) = 1.16458 0.31861
# Poissons Ratio (y) = 0.20765 0.36232
# Poissons Ratio (z) = 0.05390 0.34376
#
# Static dielectric constant tensor:
#      x y z
#    x 3.059890 0.000000 0.000000 
#    y 0.000000 3.390030 0.000000 
#    z 0.000000 0.000000 3.314340 
# 
# 
# High freq. dielectric constant tensor:
#      x y z
#    x 1.654250 0.000000 0.000000 
#    y 0.000000 1.685040 0.000000 
#    z 0.000000 0.000000 1.675580 
# 
# From -- ./inp_files/38751.got.cif
#   From: 2010.03.12/outbox.cif.g09.slc.cpg/sg67_20_cif.got.tgz:38751.got - 2010.04.10 22:41:39.
