data_PCOD8280965
_publ_section_title
;
Structure prediction by ZEFSAII (Michael W. Deem and Ramdas Pophale) SiO2 
 PCOD8280965
Probable space group: C M M A
;
_chemical_formula_sum "Si O2"
_cell_formula_units_Z 80
_cell_length_a 9.031058
_cell_length_b 17.759105
_cell_length_c 25.904623
_cell_angle_alpha 90.000000
_cell_angle_beta 90.000000
_cell_angle_gamma 90.000000
_cell_volume 4154.674292
_symmetry_space_group_name_H-M "C M M A"
_symmetry_group_IT_number 67
_symmetry_cell_setting 'orthorhombic'
loop_
_space_group_symop_operation_xyz
x,y,z
-x,1/2-y,z
x,-y,-z
-x,1/2+y,-z
-x,-y,-z
x,1/2+y,-z
-x,y,z
x,1/2-y,z
1/2+x,1/2+y,z
1/2-x,-y,z
1/2+x,1/2-y,-z
1/2-x,y,-z
1/2-x,1/2-y,-z
1/2+x,y,-z
1/2-x,1/2+y,z
1/2+x,-y,z
loop_
_atom_site_type_symbol
_atom_site_label
_atom_site_fract_x
_atom_site_fract_y
_atom_site_fract_z
Si Si1 0.332117 0.660702 0.550804
Si Si2 0.675389 0.580154 0.357259
Si Si3 0.333172 0.660310 0.848793
Si Si4 0.166984 0.339840 0.050581
Si Si5 0.827380 0.163828 0.253250
O O1 0.500000 0.628876 0.552494
O O2 0.334429 0.750000 0.549860
O O3 0.250000 0.628837 0.500000
O O4 0.239856 0.635787 0.600220
O O5 0.500000 0.573877 0.364268
O O6 0.750000 0.500000 0.364022
O O7 0.718642 0.613522 0.301758
O O8 0.500000 0.629772 0.850788
O O9 0.328310 0.750000 0.849839
O O10 0.246874 0.628029 0.898398
O O11 0.257925 0.630968 0.796323
O O12 0.169790 0.250000 0.050865
O O13 0.000000 0.370338 0.049795
O O14 0.250000 0.370959 0.000000
O O15 0.781427 0.250000 0.264879
O O16 0.000000 0.158431 0.240957
#
# Coordination Sequence:
#
# PCOD8280965 Si02
#       5
#    16  16  16  16  16
#     4  10  21  38  61  87 113 141 175 214 256 305
#     4  11  23  38  56  79 109 142 177 217 262 311
#     4   9  16  25  39  61  88 119 158 203 249 299
#     4   9  15  22  33  51  80 118 157 197 244 299
#     4   9  18  33  52  72  96 130 170 211 256 306
#
# _framework density 19.255420000000001
#
# number of rings (size 3 to 8) (size 9 to 14) (size 15 to 20)
#    0.000    2.400    0.000    3.000    0.000    8.800 
#    0.000    4.000    0.000    0.000    0.000    0.000 
#    0.000    0.800    0.000    8.400    0.000   12.600 
#
# Total GULP energy -496057.648834 kJ/mol
# GULP energy per Si atom -12401.441221 kJ/mol
# Density = 1.921159 g / cm^3
# Si number density = 19.255420 Si / 1000 Ang^3
#
#
#
# Elastic Constant Matrix: (Units=GPa)
#
#
# Indices 1 2 3 4 5 6 
#
# 1 140.5189 13.5439 89.4417 0.0000 0.0000 0.0000
# 2 13.5439 11.8692 8.3316 0.0000 0.0000 0.0000
# 3 89.4417 8.3316 165.5416 0.0000 0.0000 0.0000
# 4 0.0000 0.0000 0.0000 -0.6508 0.0000 0.0000
# 5 0.0000 0.0000 0.0000 0.0000 43.7122 0.0000
# 6 0.0000 0.0000 0.0000 0.0000 0.0000 17.7998
#
#
#
# Elastic Compliance Matrix: (Units=1/GPa)
#
#
# Indices 1 2 3 4 5 6 
#
# 1 0.011757 -0.009285 -0.005885 0.000000 0.000000 0.000000
# 2 -0.009285 0.094670 0.000252 0.000000 0.000000 0.000000
# 3 -0.005885 0.000252 0.009208 0.000000 0.000000 0.000000
# 4 0.000000 0.000000 0.000000 -1.536677 0.000000 0.000000
# 5 0.000000 0.000000 0.000000 0.000000 0.022877 0.000000
# 6 0.000000 0.000000 0.000000 0.000000 0.000000 0.056180
#
#
# Mechanical properties :
#
#
# Convention : Reuss Voigt Hill
#
# Bulk Modulus (GPa) = 11.65520 60.06269 35.85894
# Shear Modulus (GPa) = -3.89545 25.94643 11.02549
#
# Velocity S-wave (km/s) = -1.42388 3.67480 2.39548
# Velocity P-wave (km/s) = 1.83380 7.01896 5.12975
#
# Compressibility (1/GPa) = 0.08579862
#
# Stress axis : x y z
#
# Youngs Moduli (GPa) = 85.05267 10.56301 108.60313
#
# Poissons Ratio (x) = 0.09808 0.63915
# Poissons Ratio (y) = 0.78974 -0.02738
# Poissons Ratio (z) = 0.50055 -0.00266
#
# Static dielectric constant tensor:
#      x y z
#    x 3.751440 0.000000 0.000000 
#    y 0.000000 2.954310 0.000000 
#    z 0.000000 0.000000 3.727130 
# 
# 
# High freq. dielectric constant tensor:
#      x y z
#    x 1.763980 0.000000 0.000000 
#    y 0.000000 1.691590 0.000000 
#    z 0.000000 0.000000 1.768220 
# 
# From -- ./inp_files/43254.got.cif
#   From: 2010.03.12/outbox.cif.g09.slc.cpg/sg67_22_cif.got.tgz:43254.got - 2010.04.10 22:41:39.
