data_PCOD8280631
_publ_section_title
;
Structure prediction by ZEFSAII (Michael W. Deem and Ramdas Pophale) SiO2 
 PCOD8280631
Probable space group: C M M A
;
_chemical_formula_sum "Si O2"
_cell_formula_units_Z 96
_cell_length_a 9.134006
_cell_length_b 27.159875
_cell_length_c 23.800231
_cell_angle_alpha 90.000000
_cell_angle_beta 90.000000
_cell_angle_gamma 90.000000
_cell_volume 5904.324683
_symmetry_space_group_name_H-M "C M M A"
_symmetry_group_IT_number 67
_symmetry_cell_setting 'orthorhombic'
loop_
_space_group_symop_operation_xyz
x,y,z
-x,1/2-y,z
x,-y,-z
-x,1/2+y,-z
-x,-y,-z
x,1/2+y,-z
-x,y,z
x,1/2-y,z
1/2+x,1/2+y,z
1/2-x,-y,z
1/2+x,1/2-y,-z
1/2-x,y,-z
1/2-x,1/2-y,-z
1/2+x,y,-z
1/2-x,1/2+y,z
1/2+x,-y,z
loop_
_atom_site_type_symbol
_atom_site_label
_atom_site_fract_x
_atom_site_fract_y
_atom_site_fract_z
Si Si1 0.328669 0.892234 0.055480
Si Si2 0.330763 0.362493 0.223849
Si Si3 0.828873 0.693461 0.335601
Si Si4 0.669037 0.306333 0.111568
Si Si5 0.834786 0.808650 0.554096
Si Si6 0.671635 0.948706 0.168100
O O1 0.500000 0.888019 0.044358
O O2 0.267272 0.838145 0.069434
O O3 0.291398 0.929666 0.105641
O O4 0.250000 0.913193 0.000000
O O5 0.500000 0.378597 0.225121
O O6 0.280904 0.338529 0.282230
O O7 0.303138 0.322130 0.175697
O O8 0.232427 0.410433 0.213776
O O9 0.786676 0.750000 0.323387
O O10 0.743151 0.672387 0.389384
O O11 0.000000 0.688599 0.348252
O O12 0.500000 0.314044 0.095064
O O13 0.717559 0.250000 0.105074
O O14 0.831139 0.750000 0.552563
O O15 0.750000 0.830057 0.500000
O O16 0.000000 0.828733 0.552888
O O17 0.500000 0.955046 0.177447
O O18 0.750000 0.000000 0.178042
#
# Coordination Sequence:
#
# PCOD8280631 Si02
#       6
#    16  16  16  16  16  16
#     4  10  21  35  50  69  91 115 145 181 220 265
#     4   9  17  30  48  69  93 119 149 185 223 266
#     4   9  16  26  42  65  93 125 158 189 222 262
#     4   9  17  30  48  68  91 121 153 183 217 258
#     4   9  16  25  37  55  83 121 162 199 231 262
#     4  10  21  36  53  71  90 113 142 179 226 275
#
# _framework density 16.259267999999999
#
# number of rings (size 3 to 8) (size 9 to 14) (size 15 to 20)
#    0.000    2.667    0.000    2.000    0.000    7.667 
#    0.000    1.667    0.000    3.000    0.000    0.000 
#    0.000    0.667    0.000    7.000    0.000    3.333 
#
# Total GULP energy -595291.324022 kJ/mol
# GULP energy per Si atom -12401.902584 kJ/mol
# Density = 1.622226 g / cm^3
# Si number density = 16.259268 Si / 1000 Ang^3
#
#
#
# Elastic Constant Matrix: (Units=GPa)
#
#
# Indices 1 2 3 4 5 6 
#
# 1 85.7723 40.8771 57.6915 0.0000 0.0000 0.0000
# 2 40.8771 79.4755 34.9878 0.0000 0.0000 0.0000
# 3 57.6915 34.9878 119.3916 0.0000 0.0000 0.0000
# 4 0.0000 0.0000 0.0000 12.5355 0.0000 0.0000
# 5 0.0000 0.0000 0.0000 0.0000 29.9677 0.0000
# 6 0.0000 0.0000 0.0000 0.0000 0.0000 21.7019
#
#
#
# Elastic Compliance Matrix: (Units=1/GPa)
#
#
# Indices 1 2 3 4 5 6 
#
# 1 0.020164 -0.006982 -0.007697 0.000000 0.000000 0.000000
# 2 -0.006982 0.016864 -0.001568 0.000000 0.000000 0.000000
# 3 -0.007697 -0.001568 0.012555 0.000000 0.000000 0.000000
# 4 0.000000 0.000000 0.000000 0.079774 0.000000 0.000000
# 5 0.000000 0.000000 0.000000 0.000000 0.033369 0.000000
# 6 0.000000 0.000000 0.000000 0.000000 0.000000 0.046079
#
#
# Mechanical properties :
#
#
# Convention : Reuss Voigt Hill
#
# Bulk Modulus (GPa) = 58.52309 61.30581 59.91445
# Shear Modulus (GPa) = 20.24334 22.91322 21.57828
#
# Velocity S-wave (km/s) = 3.53233 3.75806 3.64694
# Velocity P-wave (km/s) = 7.26005 7.52447 7.39344
#
# Compressibility (1/GPa) = 0.01708727
#
# Stress axis : x y z
#
# Youngs Moduli (GPa) = 49.59448 59.29771 79.65167
#
# Poissons Ratio (x) = 0.41403 0.61309
# Poissons Ratio (y) = 0.34628 0.12490
# Poissons Ratio (z) = 0.38173 0.09298
#
# Static dielectric constant tensor:
#      x y z
#    x 3.128410 0.000000 0.000000 
#    y 0.000000 2.791450 0.000000 
#    z 0.000000 0.000000 3.122980 
# 
# 
# High freq. dielectric constant tensor:
#      x y z
#    x 1.633160 0.000000 0.000000 
#    y 0.000000 1.588890 0.000000 
#    z 0.000000 0.000000 1.624110 
# 
# From -- ./inp_files/39854.got.cif
#   From: 2010.03.12/outbox.cif.g09.slc.cpg/sg67_20_cif.got.tgz:39854.got - 2010.04.10 22:41:39.
