data_PCOD8280726
_publ_section_title
;
Structure prediction by ZEFSAII (Michael W. Deem and Ramdas Pophale) SiO2 
 PCOD8280726
Probable space group: C M M A
;
_chemical_formula_sum "Si O2"
_cell_formula_units_Z 80
_cell_length_a 18.334484
_cell_length_b 8.870334
_cell_length_c 25.725474
_cell_angle_alpha 90.000000
_cell_angle_beta 90.000000
_cell_angle_gamma 90.000000
_cell_volume 4183.810931
_symmetry_space_group_name_H-M "C M M A"
_symmetry_group_IT_number 67
_symmetry_cell_setting 'orthorhombic'
loop_
_space_group_symop_operation_xyz
x,y,z
-x,1/2-y,z
x,-y,-z
-x,1/2+y,-z
-x,-y,-z
x,1/2+y,-z
-x,y,z
x,1/2-y,z
1/2+x,1/2+y,z
1/2-x,-y,z
1/2+x,1/2-y,-z
1/2-x,y,-z
1/2-x,1/2-y,-z
1/2+x,y,-z
1/2-x,1/2+y,z
1/2+x,-y,z
loop_
_atom_site_type_symbol
_atom_site_label
_atom_site_fract_x
_atom_site_fract_y
_atom_site_fract_z
Si Si1 0.583162 0.928203 0.655821
Si Si2 0.086879 0.419824 0.448746
Si Si3 0.171555 0.427826 0.755147
Si Si4 0.826287 0.070911 0.055018
Si Si5 0.085123 0.076076 0.857301
O O1 0.500000 0.980969 0.665082
O O2 0.587223 0.750000 0.650698
O O3 0.630945 0.988668 0.703790
O O4 0.615766 0.998012 0.602989
O O5 0.119137 0.500000 0.500000
O O6 0.115948 0.250000 0.448194
O O7 0.000000 0.427083 0.450088
O O8 0.180046 0.250000 0.752355
O O9 0.250000 0.500000 0.759835
O O10 0.124596 0.476552 0.804849
O O11 0.818513 0.250000 0.049716
O O12 0.750000 0.000000 0.074316
O O13 0.888587 0.029426 0.095909
O O14 0.848927 0.000000 0.000000
O O15 0.102846 0.250000 0.870469
O O16 0.000000 0.050444 0.848859
#
# Coordination Sequence:
#
# PCOD8280726 Si02
#       5
#    16  16  16  16  16
#     4   9  17  31  51  74 101 134 173 215 258 307
#     4   9  16  26  43  70 102 134 168 208 256 308
#     4  10  21  36  55  78 105 140 178 217 264 318
#     4  11  22  38  60  85 114 148 186 225 268 319
#     4  10  21  38  59  83 112 145 182 225 272 321
#
# _framework density 19.121321999999999
#
# number of rings (size 3 to 8) (size 9 to 14) (size 15 to 20)
#    0.000    2.200    0.000    4.200    0.000    8.800 
#    0.000    0.000    0.000    4.200    0.000    4.200 
#    0.000    0.000    0.000    0.000    0.000    0.000 
#
# Total GULP energy -496102.420067 kJ/mol
# GULP energy per Si atom -12402.560502 kJ/mol
# Density = 1.907780 g / cm^3
# Si number density = 19.121322 Si / 1000 Ang^3
#
#
#
# Elastic Constant Matrix: (Units=GPa)
#
#
# Indices 1 2 3 4 5 6 
#
# 1 95.4956 39.3315 73.4333 0.0000 0.0000 0.0000
# 2 39.3315 85.6098 59.1056 0.0000 0.0000 0.0000
# 3 73.4333 59.1056 164.1849 0.0000 0.0000 0.0000
# 4 0.0000 0.0000 0.0000 33.0629 0.0000 0.0000
# 5 0.0000 0.0000 0.0000 0.0000 24.0778 0.0000
# 6 0.0000 0.0000 0.0000 0.0000 0.0000 25.7074
#
#
#
# Elastic Compliance Matrix: (Units=1/GPa)
#
#
# Indices 1 2 3 4 5 6 
#
# 1 0.016648 -0.003337 -0.006245 0.000000 0.000000 0.000000
# 2 -0.003337 0.016213 -0.004344 0.000000 0.000000 0.000000
# 3 -0.006245 -0.004344 0.010448 0.000000 0.000000 0.000000
# 4 0.000000 0.000000 0.000000 0.030245 0.000000 0.000000
# 5 0.000000 0.000000 0.000000 0.000000 0.041532 0.000000
# 6 0.000000 0.000000 0.000000 0.000000 0.000000 0.038899
#
#
# Mechanical properties :
#
#
# Convention : Reuss Voigt Hill
#
# Bulk Modulus (GPa) = 64.69560 76.55901 70.62730
# Shear Modulus (GPa) = 26.73939 28.13094 27.43517
#
# Velocity S-wave (km/s) = 3.74359 3.83976 3.79198
# Velocity P-wave (km/s) = 7.25215 7.73200 7.49591
#
# Compressibility (1/GPa) = 0.01545700
#
# Stress axis : x y z
#
# Youngs Moduli (GPa) = 60.06674 61.67768 95.71650
#
# Poissons Ratio (x) = 0.20583 0.59772
# Poissons Ratio (y) = 0.20046 0.41580
# Poissons Ratio (z) = 0.37510 0.26793
#
# Static dielectric constant tensor:
#      x y z
#    x 3.280690 0.000000 0.000000 
#    y 0.000000 3.483390 0.000000 
#    z 0.000000 0.000000 3.728720 
# 
# 
# High freq. dielectric constant tensor:
#      x y z
#    x 1.717670 0.000000 0.000000 
#    y 0.000000 1.739560 0.000000 
#    z 0.000000 0.000000 1.761800 
# 
# From -- ./inp_files/43205.got.cif
#   From: 2010.03.12/outbox.cif.g09.slc.cpg/sg67_22_cif.got.tgz:43205.got - 2010.04.10 22:41:39.
