data_PCOD8280982
_publ_section_title
;
Structure prediction by ZEFSAII (Michael W. Deem and Ramdas Pophale) SiO2 
 PCOD8280982
Probable space group: C M M A
;
_chemical_formula_sum "Si O2"
_cell_formula_units_Z 64
_cell_length_a 19.988421
_cell_length_b 25.861275
_cell_length_c 5.182294
_cell_angle_alpha 90.000000
_cell_angle_beta 90.000000
_cell_angle_gamma 90.000000
_cell_volume 2678.862779
_symmetry_space_group_name_H-M "C M M A"
_symmetry_group_IT_number 67
_symmetry_cell_setting 'orthorhombic'
loop_
_space_group_symop_operation_xyz
x,y,z
-x,1/2-y,z
x,-y,-z
-x,1/2+y,-z
-x,-y,-z
x,1/2+y,-z
-x,y,z
x,1/2-y,z
1/2+x,1/2+y,z
1/2-x,-y,z
1/2+x,1/2-y,-z
1/2-x,y,-z
1/2-x,1/2-y,-z
1/2+x,y,-z
1/2-x,1/2+y,z
1/2+x,-y,z
loop_
_atom_site_type_symbol
_atom_site_label
_atom_site_fract_x
_atom_site_fract_y
_atom_site_fract_z
Si Si1 0.652220 0.692103 0.297624
Si Si2 0.925992 0.558714 0.918098
Si Si3 0.575496 0.839775 0.805911
Si Si4 0.288098 0.411188 0.746633
O O1 0.681922 0.750000 0.300198
O O2 0.597069 0.686947 0.073656
O O3 0.712622 0.651606 0.249338
O O4 0.620584 0.679504 0.573972
O O5 0.917416 0.597770 0.161168
O O6 0.865263 0.570190 0.722545
O O7 0.000000 0.568641 0.790841
O O8 0.920476 0.500000 0.000000
O O9 0.500000 0.823131 0.746731
O O10 0.250000 0.433808 0.500000
O O11 0.250000 0.432307 0.000000
#
# Coordination Sequence:
#
# PCOD8280982 Si02
#       4
#    16  16  16  16
#     4  11  23  39  61  90 126 171 218 265 320 382
#     4   9  20  43  72 100 132 173 219 269 328 390
#     4  10  21  38  61  93 131 167 211 267 323 385
#     4  11  24  44  66  95 133 171 216 269 324 386
#
# _framework density 23.890733999999998
#
# number of rings (size 3 to 8) (size 9 to 14) (size 15 to 20)
#    0.000    1.750    0.000    4.500    0.000    5.500 
#    0.000   16.250    0.000   34.500    0.000    0.000 
#    0.000    0.000    0.000    0.000    0.000    0.000 
#
# Total GULP energy -396682.250006 kJ/mol
# GULP energy per Si atom -12396.320313 kJ/mol
# Density = 2.383636 g / cm^3
# Si number density = 23.890734 Si / 1000 Ang^3
#
#
#
# Elastic Constant Matrix: (Units=GPa)
#
#
# Indices 1 2 3 4 5 6 
#
# 1 140.5782 15.2675 58.0839 0.0000 0.0000 0.0000
# 2 15.2675 113.1715 21.4205 0.0000 0.0000 0.0000
# 3 58.0839 21.4205 143.8042 0.0000 0.0000 0.0000
# 4 0.0000 0.0000 0.0000 15.0775 0.0000 0.0000
# 5 0.0000 0.0000 0.0000 0.0000 32.4876 0.0000
# 6 0.0000 0.0000 0.0000 0.0000 0.0000 12.8852
#
#
#
# Elastic Compliance Matrix: (Units=1/GPa)
#
#
# Indices 1 2 3 4 5 6 
#
# 1 0.008568 -0.000515 -0.003384 0.000000 0.000000 0.000000
# 2 -0.000515 0.009123 -0.001151 0.000000 0.000000 0.000000
# 3 -0.003384 -0.001151 0.008492 0.000000 0.000000 0.000000
# 4 0.000000 0.000000 0.000000 0.066324 0.000000 0.000000
# 5 0.000000 0.000000 0.000000 0.000000 0.030781 0.000000
# 6 0.000000 0.000000 0.000000 0.000000 0.000000 0.077608
#
#
# Mechanical properties :
#
#
# Convention : Reuss Voigt Hill
#
# Bulk Modulus (GPa) = 62.17669 65.23310 63.70490
# Shear Modulus (GPa) = 23.10993 32.27552 27.69272
#
# Velocity S-wave (km/s) = 3.11355 3.67953 3.40831
# Velocity P-wave (km/s) = 6.24560 6.73914 6.49706
#
# Compressibility (1/GPa) = 0.01608320
#
# Stress axis : x y z
#
# Youngs Moduli (GPa) = 116.71954 109.60710 117.75716
#
# Poissons Ratio (x) = 0.05649 0.39846
# Poissons Ratio (y) = 0.06015 0.13552
# Poissons Ratio (z) = 0.39495 0.12614
#
# Static dielectric constant tensor:
#      x y z
#    x 4.492060 0.000000 0.000000 
#    y 0.000000 4.538230 0.000000 
#    z 0.000000 0.000000 4.123400 
# 
# 
# High freq. dielectric constant tensor:
#      x y z
#    x 1.952620 0.000000 0.000000 
#    y 0.000000 1.946590 0.000000 
#    z 0.000000 0.000000 1.934310 
# 
# From -- ./inp_files/2858.got.cif
#   From: 2010.03.12/outbox.cif.g09.slc.cpg/sg67_2_cif.got.tgz:2858.got - 2010.04.10 22:41:39.
