data_PCOD8280357
_publ_section_title
;
Structure prediction by ZEFSAII (Michael W. Deem and Ramdas Pophale) SiO2 
 PCOD8280357
Probable space group: C M M A
;
_chemical_formula_sum "Si O2"
_cell_formula_units_Z 60
_cell_length_a 14.424083
_cell_length_b 15.943618
_cell_length_c 13.535465
_cell_angle_alpha 90.000000
_cell_angle_beta 90.000000
_cell_angle_gamma 90.000000
_cell_volume 3112.778896
_symmetry_space_group_name_H-M "C M M A"
_symmetry_group_IT_number 67
_symmetry_cell_setting 'orthorhombic'
loop_
_space_group_symop_operation_xyz
x,y,z
-x,1/2-y,z
x,-y,-z
-x,1/2+y,-z
-x,-y,-z
x,1/2+y,-z
-x,y,z
x,1/2-y,z
1/2+x,1/2+y,z
1/2-x,-y,z
1/2+x,1/2-y,-z
1/2-x,y,-z
1/2-x,1/2-y,-z
1/2+x,y,-z
1/2-x,1/2+y,z
1/2+x,-y,z
loop_
_atom_site_type_symbol
_atom_site_label
_atom_site_fract_x
_atom_site_fract_y
_atom_site_fract_z
Si Si1 0.196071 0.750000 0.899325
Si Si2 0.500000 0.398958 0.716373
Si Si3 0.000000 0.598704 0.491414
Si Si4 0.500000 0.250000 0.865543
Si Si5 0.702725 0.919199 0.227314
Si Si6 0.189977 0.155865 0.597079
O O1 0.089354 0.750000 0.935057
O O2 0.213543 0.664802 0.838049
O O3 0.250000 0.750000 0.000000
O O4 0.500000 0.365292 0.603298
O O5 0.500000 0.324184 0.790243
O O6 0.402911 0.445806 0.742024
O O7 0.000000 0.500000 0.500000
O O8 0.913434 0.628397 0.428015
O O9 0.763189 0.906081 0.325370
O O10 0.750000 0.000000 0.173031
O O11 0.188672 0.250000 0.640456
O O12 0.250000 0.151523 0.500000
#
# Coordination Sequence:
#
# PCOD8280357 Si02
#       6
#     8   8   8   4  16  16
#     4  10  22  44  66  93 117 148 204 259 317 373
#     4  10  20  36  58  85 117 160 215 246 276 356
#     4  12  23  33  53  83 122 169 206 245 283 351
#     4   8  20  36  66  88 106 150 200 250 298 358
#     4  11  22  40  64  88 124 163 203 254 309 369
#     4  11  23  36  55  84 122 161 202 248 299 343
#
# _framework density 19.275382
#
# number of rings (size 3 to 8) (size 9 to 14) (size 15 to 20)
#    0.000    1.333    4.000    2.000    1.867    0.533 
#    0.000    2.667    0.000    4.800    0.000    0.000 
#    0.000    0.000    0.000    0.000    0.000    0.000 
#
# Total GULP energy -371707.180110 kJ/mol
# GULP energy per Si atom -12390.239337 kJ/mol
# Density = 1.923151 g / cm^3
# Si number density = 19.275382 Si / 1000 Ang^3
#
#
#
# Elastic Constant Matrix: (Units=GPa)
#
#
# Indices 1 2 3 4 5 6 
#
# 1 188.0723 57.9369 58.2116 0.0000 0.0000 0.0000
# 2 57.9369 110.7023 30.5992 0.0000 0.0000 0.0000
# 3 58.2116 30.5992 75.9240 0.0000 0.0000 0.0000
# 4 0.0000 0.0000 0.0000 8.1201 0.0000 0.0000
# 5 0.0000 0.0000 0.0000 0.0000 29.9133 0.0000
# 6 0.0000 0.0000 0.0000 0.0000 0.0000 33.8428
#
#
#
# Elastic Compliance Matrix: (Units=1/GPa)
#
#
# Indices 1 2 3 4 5 6 
#
# 1 0.007613 -0.002668 -0.004761 0.000000 0.000000 0.000000
# 2 -0.002668 0.011101 -0.002428 0.000000 0.000000 0.000000
# 3 -0.004761 -0.002428 0.017800 0.000000 0.000000 0.000000
# 4 0.000000 0.000000 0.000000 0.123152 0.000000 0.000000
# 5 0.000000 0.000000 0.000000 0.000000 0.033430 0.000000
# 6 0.000000 0.000000 0.000000 0.000000 0.000000 0.029548
#
#
# Mechanical properties :
#
#
# Convention : Reuss Voigt Hill
#
# Bulk Modulus (GPa) = 59.52976 74.24379 66.88678
# Shear Modulus (GPa) = 20.16461 29.57197 24.86829
#
# Velocity S-wave (km/s) = 3.23791 3.92111 3.59577
# Velocity P-wave (km/s) = 6.70295 7.68773 7.21217
#
# Compressibility (1/GPa) = 0.01679832
#
# Stress axis : x y z
#
# Youngs Moduli (GPa) = 131.35795 90.08370 56.17862
#
# Poissons Ratio (x) = 0.24035 0.26749
# Poissons Ratio (y) = 0.35047 0.13642
# Poissons Ratio (z) = 0.62546 0.21874
#
# Static dielectric constant tensor:
#      x y z
#    x 3.992170 0.000000 0.000000 
#    y 0.000000 3.796290 0.000000 
#    z 0.000000 0.000000 3.418030 
# 
# 
# High freq. dielectric constant tensor:
#      x y z
#    x 1.775120 0.000000 0.000000 
#    y 0.000000 1.756860 0.000000 
#    z 0.000000 0.000000 1.715660 
# 
# From -- ./inp_files/17461.got.cif
#   From: 2010.03.12/outbox.cif.g09.slc.cpg/sg67_9_cif.got.tgz:17461.got - 2010.04.10 22:41:39.
