data_PCOD8280835
_publ_section_title
;
Structure prediction by ZEFSAII (Michael W. Deem and Ramdas Pophale) SiO2 
 PCOD8280835
Probable space group: C M M A
;
_chemical_formula_sum "Si O2"
_cell_formula_units_Z 80
_cell_length_a 18.974095
_cell_length_b 8.726088
_cell_length_c 24.993431
_cell_angle_alpha 90.000000
_cell_angle_beta 90.000000
_cell_angle_gamma 90.000000
_cell_volume 4138.152940
_symmetry_space_group_name_H-M "C M M A"
_symmetry_group_IT_number 67
_symmetry_cell_setting 'orthorhombic'
loop_
_space_group_symop_operation_xyz
x,y,z
-x,1/2-y,z
x,-y,-z
-x,1/2+y,-z
-x,-y,-z
x,1/2+y,-z
-x,y,z
x,1/2-y,z
1/2+x,1/2+y,z
1/2-x,-y,z
1/2+x,1/2-y,-z
1/2-x,y,-z
1/2-x,1/2-y,-z
1/2+x,y,-z
1/2-x,1/2+y,z
1/2+x,-y,z
loop_
_atom_site_type_symbol
_atom_site_label
_atom_site_fract_x
_atom_site_fract_y
_atom_site_fract_z
Si Si1 0.082771 0.571621 0.147531
Si Si2 0.675404 0.568254 0.057141
Si Si3 0.677001 0.428992 0.641154
Si Si4 0.583130 0.575029 0.554429
Si Si5 0.175756 0.569077 0.764214
O O1 0.100855 0.750000 0.140715
O O2 0.115533 0.476691 0.098897
O O3 0.113232 0.509901 0.203255
O O4 0.000000 0.541149 0.147843
O O5 0.681881 0.750000 0.052823
O O6 0.750000 0.500000 0.076459
O O7 0.653566 0.500000 0.000000
O O8 0.682544 0.250000 0.633392
O O9 0.750000 0.500000 0.620835
O O10 0.613375 0.491788 0.606172
O O11 0.662157 0.473382 0.702529
O O12 0.612521 0.500000 0.500000
O O13 0.500000 0.555940 0.557737
O O14 0.607327 0.750000 0.554745
O O15 0.176288 0.750000 0.774639
O O16 0.250000 0.500000 0.783762
#
# Coordination Sequence:
#
# PCOD8280835 Si02
#       5
#    16  16  16  16  16
#     4  11  24  40  58  83 116 152 190 232 279 331
#     4  11  22  39  63  88 116 149 189 233 278 332
#     4  10  21  37  58  84 113 145 184 231 280 331
#     4  10  21  37  57  81 111 147 186 228 276 332
#     4  10  21  38  60  84 112 147 187 231 279 332
#
# _framework density 19.332297000000001
#
# number of rings (size 3 to 8) (size 9 to 14) (size 15 to 20)
#    0.000    1.600    0.000    5.400    0.000    6.800 
#    0.000    6.000    0.000    0.000    0.000    0.000 
#    0.000    0.000    0.000    0.000    0.000    0.000 
#
# Total GULP energy -496239.407201 kJ/mol
# GULP energy per Si atom -12405.985180 kJ/mol
# Density = 1.928830 g / cm^3
# Si number density = 19.332297 Si / 1000 Ang^3
#
#
#
# Elastic Constant Matrix: (Units=GPa)
#
#
# Indices 1 2 3 4 5 6 
#
# 1 78.7427 50.1902 57.6236 0.0000 0.0000 0.0000
# 2 50.1902 129.6791 58.0144 0.0000 0.0000 0.0000
# 3 57.6236 58.0144 111.7965 0.0000 0.0000 0.0000
# 4 0.0000 0.0000 0.0000 37.4960 0.0000 0.0000
# 5 0.0000 0.0000 0.0000 0.0000 35.3413 0.0000
# 6 0.0000 0.0000 0.0000 0.0000 0.0000 35.3597
#
#
#
# Elastic Compliance Matrix: (Units=1/GPa)
#
#
# Indices 1 2 3 4 5 6 
#
# 1 0.022268 -0.004537 -0.009123 0.000000 0.000000 0.000000
# 2 -0.004537 0.010967 -0.003353 0.000000 0.000000 0.000000
# 3 -0.009123 -0.003353 0.015387 0.000000 0.000000 0.000000
# 4 0.000000 0.000000 0.000000 0.026670 0.000000 0.000000
# 5 0.000000 0.000000 0.000000 0.000000 0.028296 0.000000
# 6 0.000000 0.000000 0.000000 0.000000 0.000000 0.028281
#
#
# Mechanical properties :
#
#
# Convention : Reuss Voigt Hill
#
# Bulk Modulus (GPa) = 68.51047 72.43051 70.47049
# Shear Modulus (GPa) = 29.28106 31.93206 30.60656
#
# Velocity S-wave (km/s) = 3.89603 4.06858 3.98324
# Velocity P-wave (km/s) = 7.46686 7.72130 7.59515
#
# Compressibility (1/GPa) = 0.01459631
#
# Stress axis : x y z
#
# Youngs Moduli (GPa) = 44.90804 91.18110 64.98983
#
# Poissons Ratio (x) = 0.41368 0.59291
# Poissons Ratio (y) = 0.20375 0.21789
# Poissons Ratio (z) = 0.40970 0.30570
#
# Static dielectric constant tensor:
#      x y z
#    x 3.432150 0.000000 0.000000 
#    y 0.000000 3.771280 0.000000 
#    z 0.000000 0.000000 3.648520 
# 
# 
# High freq. dielectric constant tensor:
#      x y z
#    x 1.746470 0.000000 0.000000 
#    y 0.000000 1.773200 0.000000 
#    z 0.000000 0.000000 1.763300 
# 
# From -- ./inp_files/43326.got.cif
#   From: 2010.03.12/outbox.cif.g09.slc.cpg/sg67_22_cif.got.tgz:43326.got - 2010.04.10 22:41:39.
