data_PCOD8280524
_publ_section_title
;
Structure prediction by ZEFSAII (Michael W. Deem and Ramdas Pophale) SiO2 
 PCOD8280524
Probable space group: C M M A
;
_chemical_formula_sum "Si O2"
_cell_formula_units_Z 88
_cell_length_a 15.722787
_cell_length_b 25.229407
_cell_length_c 10.986223
_cell_angle_alpha 90.000000
_cell_angle_beta 90.000000
_cell_angle_gamma 90.000000
_cell_volume 4357.977503
_symmetry_space_group_name_H-M "C M M A"
_symmetry_group_IT_number 67
_symmetry_cell_setting 'orthorhombic'
loop_
_space_group_symop_operation_xyz
x,y,z
-x,1/2-y,z
x,-y,-z
-x,1/2+y,-z
-x,-y,-z
x,1/2+y,-z
-x,y,z
x,1/2-y,z
1/2+x,1/2+y,z
1/2-x,-y,z
1/2+x,1/2-y,-z
1/2-x,y,-z
1/2-x,1/2-y,-z
1/2+x,y,-z
1/2-x,1/2+y,z
1/2+x,-y,z
loop_
_atom_site_type_symbol
_atom_site_label
_atom_site_fract_x
_atom_site_fract_y
_atom_site_fract_z
Si Si1 0.598482 0.689927 0.464849
Si Si2 0.333062 0.811353 0.723856
Si Si3 0.500000 0.652090 0.849006
Si Si4 0.500000 0.031656 0.126060
Si Si5 0.662984 0.517935 0.142076
Si Si6 0.500000 0.692028 0.102286
Si Si7 0.655162 0.637979 0.226980
O O1 0.500000 0.682425 0.504442
O O2 0.611596 0.750000 0.412823
O O3 0.662383 0.682325 0.578039
O O4 0.622958 0.645462 0.365600
O O5 0.334384 0.750000 0.762116
O O6 0.415886 0.841004 0.770960
O O7 0.249713 0.837974 0.782538
O O8 0.500000 0.593249 0.904360
O O9 0.500000 0.694224 0.957021
O O10 0.416448 0.013591 0.201807
O O11 0.500000 0.000000 0.000000
O O12 0.750000 0.500000 0.206633
O O13 0.653832 0.579349 0.172712
O O14 0.666179 0.500000 0.000000
O O15 0.500000 0.750000 0.159328
O O16 0.587898 0.666389 0.141787
#
# Coordination Sequence:
#
# PCOD8280524 Si02
#       7
#    16  16   8   8  16   8  16
#     4  10  20  39  67  96 130 168 208 258 318 390
#     4  11  23  41  64  95 131 172 210 252 314 394
#     4  12  24  41  62  87 126 174 217 256 316 387
#     4  10  20  38  60  81 108 152 211 262 302 351
#     4  10  21  39  60  87 119 159 213 261 309 369
#     4  12  24  37  56  94 138 168 201 257 318 386
#     4  12  23  38  66  96 126 165 214 267 321 372
#
# _framework density 20.192855000000002
#
# number of rings (size 3 to 8) (size 9 to 14) (size 15 to 20)
#    0.000    1.091    1.818    6.818    0.000    3.636 
#    0.000    1.818    0.000    8.727    0.000    0.000 
#    0.000    0.000    0.000    0.000    0.000    0.000 
#
# Total GULP energy -545266.676339 kJ/mol
# GULP energy per Si atom -12392.424462 kJ/mol
# Density = 2.014689 g / cm^3
# Si number density = 20.192855 Si / 1000 Ang^3
#
#
#
# Elastic Constant Matrix: (Units=GPa)
#
#
# Indices 1 2 3 4 5 6 
#
# 1 176.7208 49.0934 25.4939 0.0000 0.0000 0.0000
# 2 49.0934 141.3789 40.5876 0.0000 0.0000 0.0000
# 3 25.4939 40.5876 74.9378 0.0000 0.0000 0.0000
# 4 0.0000 0.0000 0.0000 33.4577 0.0000 0.0000
# 5 0.0000 0.0000 0.0000 0.0000 -10.0024 0.0000
# 6 0.0000 0.0000 0.0000 0.0000 0.0000 31.5319
#
#
#
# Elastic Compliance Matrix: (Units=1/GPa)
#
#
# Indices 1 2 3 4 5 6 
#
# 1 0.006344 -0.001875 -0.001143 0.000000 0.000000 0.000000
# 2 -0.001875 0.008930 -0.004199 0.000000 0.000000 0.000000
# 3 -0.001143 -0.004199 0.016007 0.000000 0.000000 0.000000
# 4 0.000000 0.000000 0.000000 0.029888 0.000000 0.000000
# 5 0.000000 0.000000 0.000000 0.000000 -0.099976 0.000000
# 6 0.000000 0.000000 0.000000 0.000000 0.000000 0.031714
#
#
# Mechanical properties :
#
#
# Convention : Reuss Voigt Hill
#
# Bulk Modulus (GPa) = 59.35267 69.26525 64.30896
# Shear Modulus (GPa) = 385.89807 29.52162 207.70984
#
# Velocity S-wave (km/s) = 13.83912 3.82774 10.15314
# Velocity P-wave (km/s) = 16.87656 7.34246 13.01403
#
# Compressibility (1/GPa) = 0.01684844
#
# Stress axis : x y z
#
# Youngs Moduli (GPa) = 157.61976 111.98694 62.47183
#
# Poissons Ratio (x) = 0.20997 0.07140
# Poissons Ratio (y) = 0.29553 0.26229
# Poissons Ratio (z) = 0.18013 0.47018
#
# Static dielectric constant tensor:
#      x y z
#    x 5.370750 0.000000 0.000000 
#    y 0.000000 3.913470 0.000000 
#    z 0.000000 0.000000 3.458490 
# 
# 
# High freq. dielectric constant tensor:
#      x y z
#    x 1.826570 0.000000 0.000000 
#    y 0.000000 1.782670 0.000000 
#    z 0.000000 0.000000 1.757740 
# 
# From -- ./inp_files/18156.got.cif
#   From: 2010.03.12/outbox.cif.g09.slc.cpg/sg67_10_cif.got.tgz:18156.got - 2010.04.10 22:41:39.
