data_PCOD8280403
_publ_section_title
;
Structure prediction by ZEFSAII (Michael W. Deem and Ramdas Pophale) SiO2 
 PCOD8280403
Probable space group: C M M A
;
_chemical_formula_sum "Si O2"
_cell_formula_units_Z 96
_cell_length_a 19.485447
_cell_length_b 13.587926
_cell_length_c 16.191850
_cell_angle_alpha 90.000000
_cell_angle_beta 90.000000
_cell_angle_gamma 90.000000
_cell_volume 4287.064503
_symmetry_space_group_name_H-M "C M M A"
_symmetry_group_IT_number 67
_symmetry_cell_setting 'orthorhombic'
loop_
_space_group_symop_operation_xyz
x,y,z
-x,1/2-y,z
x,-y,-z
-x,1/2+y,-z
-x,-y,-z
x,1/2+y,-z
-x,y,z
x,1/2-y,z
1/2+x,1/2+y,z
1/2-x,-y,z
1/2+x,1/2-y,-z
1/2-x,y,-z
1/2-x,1/2-y,-z
1/2+x,y,-z
1/2-x,1/2+y,z
1/2+x,-y,z
loop_
_atom_site_type_symbol
_atom_site_label
_atom_site_fract_x
_atom_site_fract_y
_atom_site_fract_z
Si Si1 0.791407 0.634760 0.848488
Si Si2 0.771966 0.864025 0.658896
Si Si3 0.077479 0.367958 0.056237
Si Si4 0.854223 0.867437 0.109800
Si Si5 0.142557 0.019027 0.593772
Si Si6 0.922450 0.359878 0.725376
O O1 0.801125 0.750000 0.860598
O O2 0.770401 0.609768 0.755317
O O3 0.864116 0.587868 0.880384
O O4 0.725288 0.598149 0.901598
O O5 0.771708 0.750000 0.639749
O O6 0.709488 0.912868 0.608593
O O7 0.843094 0.909252 0.626683
O O8 0.078456 0.250000 0.058129
O O9 0.000000 0.405024 0.078099
O O10 0.098519 0.407266 0.964934
O O11 0.858421 0.750000 0.111161
O O12 0.880737 0.906587 0.198322
O O13 0.081813 0.070546 0.644857
O O14 0.120786 0.000000 0.500000
O O15 0.894147 0.250000 0.703575
O O16 0.000000 0.352721 0.754568
#
# Coordination Sequence:
#
# PCOD8280403 Si02
#       6
#    16  16  16  16  16  16
#     4   9  16  28  49  76 112 154 198 246 294 350
#     4  10  20  37  59  86 117 152 196 246 302 366
#     4   9  16  25  42  76 118 156 198 244 292 351
#     4   9  15  27  49  79 113 153 203 253 295 343
#     4  11  23  37  59  89 119 150 193 253 311 369
#     4  10  20  36  60  88 121 162 204 251 306 359
#
# _framework density 22.392945000000001
#
# number of rings (size 3 to 8) (size 9 to 14) (size 15 to 20)
#    0.000    2.333    1.667    2.500    0.000    6.333 
#    0.000    0.833    0.000    2.500    0.000    2.333 
#    0.000    0.000    0.000    0.000    0.000    0.000 
#
# Total GULP energy -594794.232292 kJ/mol
# GULP energy per Si atom -12391.546506 kJ/mol
# Density = 2.234198 g / cm^3
# Si number density = 22.392945 Si / 1000 Ang^3
#
#
#
# Elastic Constant Matrix: (Units=GPa)
#
#
# Indices 1 2 3 4 5 6 
#
# 1 126.2253 14.8775 49.0305 0.0000 0.0000 0.0000
# 2 14.8775 44.4260 34.5015 0.0000 0.0000 0.0000
# 3 49.0305 34.5015 111.1568 0.0000 0.0000 0.0000
# 4 0.0000 0.0000 0.0000 33.4918 0.0000 0.0000
# 5 0.0000 0.0000 0.0000 0.0000 4.2529 0.0000
# 6 0.0000 0.0000 0.0000 0.0000 0.0000 22.2111
#
#
#
# Elastic Compliance Matrix: (Units=1/GPa)
#
#
# Indices 1 2 3 4 5 6 
#
# 1 0.009561 0.000097 -0.004247 0.000000 0.000000 0.000000
# 2 0.000097 0.029659 -0.009248 0.000000 0.000000 0.000000
# 3 -0.004247 -0.009248 0.013740 0.000000 0.000000 0.000000
# 4 0.000000 0.000000 0.000000 0.029858 0.000000 0.000000
# 5 0.000000 0.000000 0.000000 0.000000 0.235134 0.000000
# 6 0.000000 0.000000 0.000000 0.000000 0.000000 0.045022
#
#
# Mechanical properties :
#
#
# Convention : Reuss Voigt Hill
#
# Bulk Modulus (GPa) = 38.22281 53.18079 45.70180
# Shear Modulus (GPa) = 12.54724 24.21773 18.38249
#
# Velocity S-wave (km/s) = 2.36968 3.29217 2.86825
# Velocity P-wave (km/s) = 4.95917 6.18479 5.60558
#
# Compressibility (1/GPa) = 0.02616239
#
# Stress axis : x y z
#
# Youngs Moduli (GPa) = 104.59481 33.71613 72.77862
#
# Poissons Ratio (x) = -0.00326 0.30910
# Poissons Ratio (y) = -0.01011 0.67309
# Poissons Ratio (z) = 0.44423 0.31182
#
# Static dielectric constant tensor:
#      x y z
#    x 3.520460 0.000000 0.000000 
#    y 0.000000 4.093860 0.000000 
#    z 0.000000 0.000000 3.936980 
# 
# 
# High freq. dielectric constant tensor:
#      x y z
#    x 1.871770 0.000000 0.000000 
#    y 0.000000 1.885790 0.000000 
#    z 0.000000 0.000000 1.866920 
# 
# From -- ./inp_files/27237.got.cif
#   From: 2010.03.12/outbox.cif.g09.slc.cpg/sg67_14_cif.got.tgz:27237.got - 2010.04.10 22:41:39.
