data_PCOD8280873
_publ_section_title
;
Structure prediction by ZEFSAII (Michael W. Deem and Ramdas Pophale) SiO2 
 PCOD8280873
Probable space group: C M M A
;
_chemical_formula_sum "Si O2"
_cell_formula_units_Z 80
_cell_length_a 19.590242
_cell_length_b 14.731553
_cell_length_c 13.357520
_cell_angle_alpha 90.000000
_cell_angle_beta 90.000000
_cell_angle_gamma 90.000000
_cell_volume 3854.909321
_symmetry_space_group_name_H-M "C M M A"
_symmetry_group_IT_number 67
_symmetry_cell_setting 'orthorhombic'
loop_
_space_group_symop_operation_xyz
x,y,z
-x,1/2-y,z
x,-y,-z
-x,1/2+y,-z
-x,-y,-z
x,1/2+y,-z
-x,y,z
x,1/2-y,z
1/2+x,1/2+y,z
1/2-x,-y,z
1/2+x,1/2-y,-z
1/2-x,y,-z
1/2-x,1/2-y,-z
1/2+x,y,-z
1/2-x,1/2+y,z
1/2+x,-y,z
loop_
_atom_site_type_symbol
_atom_site_label
_atom_site_fract_x
_atom_site_fract_y
_atom_site_fract_z
Si Si1 0.688528 0.250000 0.615061
Si Si2 0.580632 0.409390 0.273936
Si Si3 0.076329 0.601130 0.041458
Si Si4 0.197051 0.149918 0.081188
Si Si5 0.149377 0.750000 0.397419
Si Si6 0.185101 0.558728 0.716408
O O1 0.769563 0.250000 0.608244
O O2 0.639968 0.250000 0.516917
O O3 0.670591 0.156377 0.669155
O O4 0.500000 0.414684 0.294510
O O5 0.596932 0.388399 0.158017
O O6 0.615464 0.336217 0.345448
O O7 0.615147 0.504693 0.302097
O O8 0.124390 0.662456 0.973215
O O9 0.000000 0.637842 0.027536
O O10 0.083178 0.500000 0.000000
O O11 0.218021 0.250000 0.122617
O O12 0.250000 0.113227 0.000000
O O13 0.197776 0.074714 0.166593
O O14 0.250000 0.500000 0.674041
#
# Coordination Sequence:
#
# PCOD8280873 Si02
#       6
#     8  16  16  16   8  16
#     4  11  26  46  70 102 124 168 222 286 348 393
#     4  11  24  43  70 100 134 180 224 277 340 401
#     4  10  21  37  59  91 131 174 222 264 315 394
#     4  11  24  36  58  95 137 179 222 267 331 399
#     4  11  25  48  69  95 132 166 232 287 332 401
#     4  12  23  42  69  98 139 175 224 280 339 410
#
# _framework density 20.752758
#
# number of rings (size 3 to 8) (size 9 to 14) (size 15 to 20)
#    0.000    1.000    5.000    1.500    1.400    1.200 
#    0.000    3.500    0.000    0.000    0.000    0.000 
#    0.000    0.000    0.000    0.000    0.000    0.000 
#
# Total GULP energy -495795.960078 kJ/mol
# GULP energy per Si atom -12394.899002 kJ/mol
# Density = 2.070552 g / cm^3
# Si number density = 20.752758 Si / 1000 Ang^3
#
#
#
# Elastic Constant Matrix: (Units=GPa)
#
#
# Indices 1 2 3 4 5 6 
#
# 1 64.4746 33.9938 44.7621 0.0000 0.0000 0.0000
# 2 33.9938 136.8322 60.2342 0.0000 0.0000 0.0000
# 3 44.7621 60.2342 115.3872 0.0000 0.0000 0.0000
# 4 0.0000 0.0000 0.0000 22.1876 0.0000 0.0000
# 5 0.0000 0.0000 0.0000 0.0000 31.7871 0.0000
# 6 0.0000 0.0000 0.0000 0.0000 0.0000 9.1160
#
#
#
# Elastic Compliance Matrix: (Units=1/GPa)
#
#
# Indices 1 2 3 4 5 6 
#
# 1 0.021721 -0.002190 -0.007283 0.000000 0.000000 0.000000
# 2 -0.002190 0.009710 -0.004219 0.000000 0.000000 0.000000
# 3 -0.007283 -0.004219 0.013694 0.000000 0.000000 0.000000
# 4 0.000000 0.000000 0.000000 0.045070 0.000000 0.000000
# 5 0.000000 0.000000 0.000000 0.000000 0.031459 0.000000
# 6 0.000000 0.000000 0.000000 0.000000 0.000000 0.109698
#
#
# Mechanical properties :
#
#
# Convention : Reuss Voigt Hill
#
# Bulk Modulus (GPa) = 56.36808 66.07490 61.22149
# Shear Modulus (GPa) = 18.89293 24.46505 21.67899
#
# Velocity S-wave (km/s) = 3.02053 3.43721 3.23558
# Velocity P-wave (km/s) = 6.27578 6.90368 6.59721
#
# Compressibility (1/GPa) = 0.01774054
#
# Stress axis : x y z
#
# Youngs Moduli (GPa) = 46.03845 102.99154 73.02460
#
# Poissons Ratio (x) = 0.22558 0.53183
# Poissons Ratio (y) = 0.10084 0.30808
# Poissons Ratio (z) = 0.33529 0.43451
#
# Static dielectric constant tensor:
#      x y z
#    x 3.892180 0.000000 0.000000 
#    y 0.000000 3.740250 0.000000 
#    z 0.000000 0.000000 3.811180 
# 
# 
# High freq. dielectric constant tensor:
#      x y z
#    x 1.813770 0.000000 0.000000 
#    y 0.000000 1.825300 0.000000 
#    z 0.000000 0.000000 1.800630 
# 
# From -- ./inp_files/21684.got.cif
#   From: 2010.03.12/outbox.cif.g09.slc.cpg/sg67_11_cif.got.tgz:21684.got - 2010.04.10 22:41:39.
