data_PCOD8280461
_publ_section_title
;
Structure prediction by ZEFSAII (Michael W. Deem and Ramdas Pophale) SiO2 
 PCOD8280461
Probable space group: C M M A
;
_chemical_formula_sum "Si O2"
_cell_formula_units_Z 104
_cell_length_a 8.957190
_cell_length_b 19.507464
_cell_length_c 29.707603
_cell_angle_alpha 90.000000
_cell_angle_beta 90.000000
_cell_angle_gamma 90.000000
_cell_volume 5190.870713
_symmetry_space_group_name_H-M "C M M A"
_symmetry_group_IT_number 67
_symmetry_cell_setting 'orthorhombic'
loop_
_space_group_symop_operation_xyz
x,y,z
-x,1/2-y,z
x,-y,-z
-x,1/2+y,-z
-x,-y,-z
x,1/2+y,-z
-x,y,z
x,1/2-y,z
1/2+x,1/2+y,z
1/2-x,-y,z
1/2+x,1/2-y,-z
1/2-x,y,-z
1/2-x,1/2-y,-z
1/2+x,y,-z
1/2-x,1/2+y,z
1/2+x,-y,z
loop_
_atom_site_type_symbol
_atom_site_label
_atom_site_fract_x
_atom_site_fract_y
_atom_site_fract_z
Si Si1 0.166657 0.250000 0.045389
Si Si2 0.826765 0.671480 0.291227
Si Si3 0.170736 0.670073 0.801466
Si Si4 0.676203 0.172105 0.453342
Si Si5 0.675415 0.898178 0.049005
Si Si6 0.176458 0.934644 0.136560
Si Si7 0.323727 0.574581 0.626786
O O1 0.199482 0.321344 0.070392
O O2 0.000000 0.250000 0.028277
O O3 0.250000 0.250000 0.000000
O O4 0.797171 0.750000 0.307006
O O5 0.728836 0.652346 0.248138
O O6 0.776773 0.618882 0.329822
O O7 0.000000 0.661951 0.278773
O O8 0.185945 0.750000 0.811651
O O9 0.271236 0.633482 0.838551
O O10 0.000000 0.645457 0.805585
O O11 0.500000 0.167712 0.458847
O O12 0.723360 0.250000 0.440068
O O13 0.750000 0.149662 0.500000
O O14 0.733011 0.118414 0.415976
O O15 0.500000 0.917525 0.046265
O O16 0.763436 0.942170 0.085358
O O17 0.750000 0.908236 0.000000
O O18 0.000000 0.939253 0.136920
O O19 0.250000 0.000000 0.162169
O O20 0.500000 0.564391 0.624960
O O21 0.250000 0.500000 0.627814
#
# Coordination Sequence:
#
# PCOD8280461 Si02
#       7
#     8  16  16  16  16  16  16
#     4   8  16  30  52  80 112 144 178 222 272 320
#     4   9  18  36  61  85 110 145 191 237 281 335
#     4  10  22  41  65  92 121 152 188 235 289 345
#     4   9  18  34  55  78 106 145 194 243 290 339
#     4  10  20  37  59  87 119 155 194 237 286 338
#     4  12  26  43  62  87 118 156 197 239 288 344
#     4  10  21  35  53  80 114 151 189 234 288 345
#
# _framework density 20.035176
#
# number of rings (size 3 to 8) (size 9 to 14) (size 15 to 20)
#    0.000    2.154    0.000    2.769    1.077    5.846 
#    0.000    4.615    0.000    4.615    0.000    0.000 
#    0.000    0.000    0.000    0.000    0.000    0.000 
#
# Total GULP energy -644506.566029 kJ/mol
# GULP energy per Si atom -12394.357039 kJ/mol
# Density = 1.998957 g / cm^3
# Si number density = 20.035176 Si / 1000 Ang^3
#
#
#
# Elastic Constant Matrix: (Units=GPa)
#
#
# Indices 1 2 3 4 5 6 
#
# 1 115.2416 54.4690 59.7882 0.0000 0.0000 0.0000
# 2 54.4690 115.5127 69.5893 0.0000 0.0000 0.0000
# 3 59.7882 69.5893 116.3248 0.0000 0.0000 0.0000
# 4 0.0000 0.0000 0.0000 18.0929 0.0000 0.0000
# 5 0.0000 0.0000 0.0000 0.0000 33.6990 0.0000
# 6 0.0000 0.0000 0.0000 0.0000 0.0000 32.6320
#
#
#
# Elastic Compliance Matrix: (Units=1/GPa)
#
#
# Indices 1 2 3 4 5 6 
#
# 1 0.012535 -0.003173 -0.004544 0.000000 0.000000 0.000000
# 2 -0.003173 0.014338 -0.006947 0.000000 0.000000 0.000000
# 3 -0.004544 -0.006947 0.015088 0.000000 0.000000 0.000000
# 4 0.000000 0.000000 0.000000 0.055270 0.000000 0.000000
# 5 0.000000 0.000000 0.000000 0.000000 0.029674 0.000000
# 6 0.000000 0.000000 0.000000 0.000000 0.000000 0.030645
#
#
# Mechanical properties :
#
#
# Convention : Reuss Voigt Hill
#
# Bulk Modulus (GPa) = 79.15859 79.41911 79.28885
# Shear Modulus (GPa) = 26.16570 27.76696 26.96633
#
# Velocity S-wave (km/s) = 3.61777 3.72682 3.67270
# Velocity P-wave (km/s) = 7.55292 7.63183 7.59248
#
# Compressibility (1/GPa) = 0.01263287
#
# Stress axis : x y z
#
# Youngs Moduli (GPa) = 79.77787 69.74358 66.27725
#
# Poissons Ratio (x) = 0.22129 0.30119
# Poissons Ratio (y) = 0.25313 0.46041
# Poissons Ratio (z) = 0.36255 0.48449
#
# Static dielectric constant tensor:
#      x y z
#    x 3.584120 0.000000 0.000000 
#    y 0.000000 4.021110 0.000000 
#    z 0.000000 0.000000 3.541760 
# 
# 
# High freq. dielectric constant tensor:
#      x y z
#    x 1.780020 0.000000 0.000000 
#    y 0.000000 1.796040 0.000000 
#    z 0.000000 0.000000 1.775250 
# 
# From -- ./inp_files/43581.got.cif
#   From: 2010.03.12/outbox.cif.g09.slc.cpg/sg67_22_cif.got.tgz:43581.got - 2010.04.10 22:41:39.
