data_PCOD8280889
_publ_section_title
;
Structure prediction by ZEFSAII (Michael W. Deem and Ramdas Pophale) SiO2 
 PCOD8280889
Probable space group: C M M A
;
_chemical_formula_sum "Si O2"
_cell_formula_units_Z 64
_cell_length_a 14.405256
_cell_length_b 10.126164
_cell_length_c 21.278182
_cell_angle_alpha 90.000000
_cell_angle_beta 90.000000
_cell_angle_gamma 90.000000
_cell_volume 3103.848083
_symmetry_space_group_name_H-M "C M M A"
_symmetry_group_IT_number 67
_symmetry_cell_setting 'orthorhombic'
loop_
_space_group_symop_operation_xyz
x,y,z
-x,1/2-y,z
x,-y,-z
-x,1/2+y,-z
-x,-y,-z
x,1/2+y,-z
-x,y,z
x,1/2-y,z
1/2+x,1/2+y,z
1/2-x,-y,z
1/2+x,1/2-y,-z
1/2-x,y,-z
1/2-x,1/2-y,-z
1/2+x,y,-z
1/2-x,1/2+y,z
1/2+x,-y,z
loop_
_atom_site_type_symbol
_atom_site_label
_atom_site_fract_x
_atom_site_fract_y
_atom_site_fract_z
Si Si1 0.609819 0.250000 0.153001
Si Si2 0.390116 0.750000 0.142420
Si Si3 0.250000 0.500000 0.341983
Si Si4 0.890180 0.502692 0.070090
Si Si5 0.391548 0.903188 0.556743
Si Si6 0.236933 0.250000 0.256611
O O1 0.500000 0.250000 0.168827
O O2 0.641358 0.372990 0.110901
O O3 0.665268 0.250000 0.218814
O O4 0.500000 0.750000 0.147275
O O5 0.351171 0.875584 0.105436
O O6 0.351029 0.750000 0.211746
O O7 0.337970 0.456146 0.382898
O O8 0.223615 0.377839 0.298911
O O9 0.000000 0.499449 0.064867
O O10 0.847274 0.500000 0.000000
O O11 0.500000 0.914919 0.571843
O O12 0.365331 0.750000 0.541062
O O13 0.362969 0.000000 0.500000
#
# Coordination Sequence:
#
# PCOD8280889 Si02
#       6
#     8   8   8  16  16   8
#     4  10  21  38  58  81 116 159 202 258 316 370
#     4  10  21  38  56  79 116 153 194 256 312 364
#     4  12  25  42  64  92 129 174 212 258 298 360
#     4   9  17  33  59  85 109 145 195 255 326 386
#     4  10  23  44  71 102 133 164 203 255 313 367
#     4  12  26  40  58  86 122 168 220 248 294 368
#
# _framework density 20.619567
#
# number of rings (size 3 to 8) (size 9 to 14) (size 15 to 20)
#    0.000    1.750    1.250    2.625    1.750    6.000 
#    0.000    3.750    0.000    0.000    0.000    0.000 
#    0.000    0.000    0.000    0.000    0.000    0.000 
#
# Total GULP energy -396799.609067 kJ/mol
# GULP energy per Si atom -12399.987783 kJ/mol
# Density = 2.057264 g / cm^3
# Si number density = 20.619567 Si / 1000 Ang^3
#
#
#
# Elastic Constant Matrix: (Units=GPa)
#
#
# Indices 1 2 3 4 5 6 
#
# 1 63.0827 35.9496 41.5003 0.0000 0.0000 0.0000
# 2 35.9496 221.3253 102.8892 0.0000 0.0000 0.0000
# 3 41.5003 102.8892 161.4563 0.0000 0.0000 0.0000
# 4 0.0000 0.0000 0.0000 53.6935 0.0000 0.0000
# 5 0.0000 0.0000 0.0000 0.0000 74.8577 0.0000
# 6 0.0000 0.0000 0.0000 0.0000 0.0000 35.8160
#
#
#
# Elastic Compliance Matrix: (Units=1/GPa)
#
#
# Indices 1 2 3 4 5 6 
#
# 1 0.019292 -0.001177 -0.004209 0.000000 0.000000 0.000000
# 2 -0.001177 0.006492 -0.003835 0.000000 0.000000 0.000000
# 3 -0.004209 -0.003835 0.009719 0.000000 0.000000 0.000000
# 4 0.000000 0.000000 0.000000 0.018624 0.000000 0.000000
# 5 0.000000 0.000000 0.000000 0.000000 0.013359 0.000000
# 6 0.000000 0.000000 0.000000 0.000000 0.000000 0.027920
#
#
# Mechanical properties :
#
#
# Convention : Reuss Voigt Hill
#
# Bulk Modulus (GPa) = 58.60870 89.61585 74.11227
# Shear Modulus (GPa) = 41.82913 50.57512 46.20213
#
# Velocity S-wave (km/s) = 4.50890 4.95792 4.73873
# Velocity P-wave (km/s) = 7.45603 8.73674 8.12167
#
# Compressibility (1/GPa) = 0.01706231
#
# Stress axis : x y z
#
# Youngs Moduli (GPa) = 51.83577 154.03537 102.89131
#
# Poissons Ratio (x) = 0.18130 0.43303
# Poissons Ratio (y) = 0.06101 0.39454
# Poissons Ratio (z) = 0.21816 0.59066
#
# Static dielectric constant tensor:
#      x y z
#    x 3.543460 0.000000 0.000000 
#    y 0.000000 4.082780 0.000000 
#    z 0.000000 0.000000 3.827530 
# 
# 
# High freq. dielectric constant tensor:
#      x y z
#    x 1.807700 0.000000 0.000000 
#    y 0.000000 1.828490 0.000000 
#    z 0.000000 0.000000 1.809910 
# 
# From -- ./inp_files/41733.got.cif
#   From: 2010.03.12/outbox.cif.g09.slc.cpg/sg67_21_cif.got.tgz:41733.got - 2010.04.10 22:41:39.
