data_PCOD8280902
_publ_section_title
;
Structure prediction by ZEFSAII (Michael W. Deem and Ramdas Pophale) SiO2 
 PCOD8280902
Probable space group: C M M A
;
_chemical_formula_sum "Si O2"
_cell_formula_units_Z 96
_cell_length_a 17.251469
_cell_length_b 14.951599
_cell_length_c 18.073146
_cell_angle_alpha 90.000000
_cell_angle_beta 90.000000
_cell_angle_gamma 90.000000
_cell_volume 4661.733903
_symmetry_space_group_name_H-M "C M M A"
_symmetry_group_IT_number 67
_symmetry_cell_setting 'orthorhombic'
loop_
_space_group_symop_operation_xyz
x,y,z
-x,1/2-y,z
x,-y,-z
-x,1/2+y,-z
-x,-y,-z
x,1/2+y,-z
-x,y,z
x,1/2-y,z
1/2+x,1/2+y,z
1/2-x,-y,z
1/2+x,1/2-y,-z
1/2-x,y,-z
1/2-x,1/2-y,-z
1/2+x,y,-z
1/2-x,1/2+y,z
1/2+x,-y,z
loop_
_atom_site_type_symbol
_atom_site_label
_atom_site_fract_x
_atom_site_fract_y
_atom_site_fract_z
Si Si1 0.672173 0.647871 0.041067
Si Si2 0.145902 0.648772 0.567583
Si Si3 0.675703 0.648516 0.599294
Si Si4 0.910409 0.153976 0.895842
Si Si5 0.091527 0.468304 0.162507
Si Si6 0.587077 0.005086 0.673289
O O1 0.685276 0.750000 0.066146
O O2 0.647611 0.593788 0.113949
O O3 0.750000 0.611415 0.000000
O O4 0.602695 0.636867 0.982858
O O5 0.120369 0.750000 0.585751
O O6 0.233260 0.631814 0.593444
O O7 0.136850 0.630541 0.480367
O O8 0.091361 0.580442 0.610466
O O9 0.658416 0.750000 0.625092
O O10 0.642061 0.579507 0.658540
O O11 0.870594 0.250000 0.873296
O O12 0.000000 0.162847 0.880776
O O13 0.879206 0.070464 0.849236
O O14 0.107713 0.448054 0.248549
O O15 0.000000 0.455346 0.141988
O O16 0.500000 0.967310 0.676094
#
# Coordination Sequence:
#
# PCOD8280902 Si02
#       6
#    16  16  16  16  16  16
#     4  10  21  38  58  82 110 140 184 240 285 329
#     4   9  19  38  61  83 112 156 207 250 293 347
#     4   9  19  38  62  84 112 157 206 248 293 348
#     4   9  18  35  58  79 102 140 187 229 274 334
#     4  10  22  38  56  81 116 156 188 223 287 358
#     4  11  23  36  54  87 125 157 193 240 296 355
#
# _framework density 20.593195999999999
#
# number of rings (size 3 to 8) (size 9 to 14) (size 15 to 20)
#    0.000    2.333    0.000    3.000    0.000    8.333 
#    6.000    5.000    0.000    0.000    0.000    0.000 
#    0.000    0.000    0.000    0.000    0.000    0.000 
#
# Total GULP energy -595006.018807 kJ/mol
# GULP energy per Si atom -12395.958725 kJ/mol
# Density = 2.054633 g / cm^3
# Si number density = 20.593196 Si / 1000 Ang^3
#
#
#
# Elastic Constant Matrix: (Units=GPa)
#
#
# Indices 1 2 3 4 5 6 
#
# 1 52.9478 35.0720 32.8684 0.0000 0.0000 0.0000
# 2 35.0720 96.2159 40.5943 0.0000 0.0000 0.0000
# 3 32.8684 40.5943 82.8829 0.0000 0.0000 0.0000
# 4 0.0000 0.0000 0.0000 22.1953 0.0000 0.0000
# 5 0.0000 0.0000 0.0000 0.0000 32.3053 0.0000
# 6 0.0000 0.0000 0.0000 0.0000 0.0000 25.7441
#
#
#
# Elastic Compliance Matrix: (Units=1/GPa)
#
#
# Indices 1 2 3 4 5 6 
#
# 1 0.028411 -0.007062 -0.007808 0.000000 0.000000 0.000000
# 2 -0.007062 0.014856 -0.004475 0.000000 0.000000 0.000000
# 3 -0.007808 -0.004475 0.017354 0.000000 0.000000 0.000000
# 4 0.000000 0.000000 0.000000 0.045055 0.000000 0.000000
# 5 0.000000 0.000000 0.000000 0.000000 0.030955 0.000000
# 6 0.000000 0.000000 0.000000 0.000000 0.000000 0.038844
#
#
# Mechanical properties :
#
#
# Convention : Reuss Voigt Hill
#
# Bulk Modulus (GPa) = 45.60064 49.90178 47.75121
# Shear Modulus (GPa) = 22.57592 24.28308 23.42950
#
# Velocity S-wave (km/s) = 3.31461 3.43764 3.37668
# Velocity P-wave (km/s) = 6.06963 6.32782 6.20007
#
# Compressibility (1/GPa) = 0.02192952
#
# Stress axis : x y z
#
# Youngs Moduli (GPa) = 35.19715 67.31408 57.62487
#
# Poissons Ratio (x) = 0.47537 0.44994
# Poissons Ratio (y) = 0.24856 0.25790
# Poissons Ratio (z) = 0.27482 0.30126
#
# Static dielectric constant tensor:
#      x y z
#    x 3.535070 0.000000 0.000000 
#    y 0.000000 4.039470 0.000000 
#    z 0.000000 0.000000 3.615270 
# 
# 
# High freq. dielectric constant tensor:
#      x y z
#    x 1.791330 0.000000 0.000000 
#    y 0.000000 1.814630 0.000000 
#    z 0.000000 0.000000 1.791250 
# 
# From -- ./inp_files/29296.got.cif
#   From: 2010.03.12/outbox.cif.g09.slc.cpg/sg67_15_cif.got.tgz:29296.got - 2010.04.10 22:41:39.
