data_PCOD8280036
_publ_section_title
;
Structure prediction by ZEFSAII (Michael W. Deem and Ramdas Pophale) SiO2 
 PCOD8280036
Probable space group: C M M A
;
_chemical_formula_sum "Si O2"
_cell_formula_units_Z 128
_cell_length_a 17.518446
_cell_length_b 17.453393
_cell_length_c 22.224708
_cell_angle_alpha 90.000000
_cell_angle_beta 90.000000
_cell_angle_gamma 90.000000
_cell_volume 6795.344993
_symmetry_space_group_name_H-M "C M M A"
_symmetry_group_IT_number 67
_symmetry_cell_setting 'orthorhombic'
loop_
_space_group_symop_operation_xyz
x,y,z
-x,1/2-y,z
x,-y,-z
-x,1/2+y,-z
-x,-y,-z
x,1/2+y,-z
-x,y,z
x,1/2-y,z
1/2+x,1/2+y,z
1/2-x,-y,z
1/2+x,1/2-y,-z
1/2-x,y,-z
1/2-x,1/2-y,-z
1/2+x,y,-z
1/2-x,1/2+y,z
1/2+x,-y,z
loop_
_atom_site_type_symbol
_atom_site_label
_atom_site_fract_x
_atom_site_fract_y
_atom_site_fract_z
Si Si1 0.266744 0.410807 0.748301
Si Si2 0.586797 0.575167 0.534641
Si Si3 0.856687 0.337307 0.427688
Si Si4 0.823570 0.085714 0.028169
Si Si5 0.280802 0.583688 0.621693
Si Si6 0.916231 0.660264 0.061904
Si Si7 0.737865 0.659245 0.872438
Si Si8 0.413516 0.660645 0.298208
O O1 0.250000 0.500000 0.762070
O O2 0.222914 0.378850 0.688376
O O3 0.236692 0.358274 0.802086
O O4 0.357400 0.394505 0.739486
O O5 0.616527 0.500000 0.500000
O O6 0.500000 0.567030 0.555679
O O7 0.596122 0.644224 0.487798
O O8 0.634024 0.586984 0.595755
O O9 0.835986 0.250000 0.428616
O O10 0.774515 0.377971 0.427124
O O11 0.906082 0.359402 0.369071
O O12 0.805171 0.103372 0.098745
O O13 0.750000 0.129843 0.000000
O O14 0.900569 0.126404 0.005217
O O15 0.824186 0.000000 0.000000
O O16 0.250000 0.500000 0.634132
O O17 0.919143 0.750000 0.056044
O O18 0.847289 0.634199 0.105403
O O19 0.000000 0.630073 0.083853
O O20 0.753869 0.750000 0.883912
O O21 0.500000 0.642598 0.278120
O O22 0.393552 0.750000 0.286635
#
# Coordination Sequence:
#
# PCOD8280036 Si02
#       8
#    16  16  16  16  16  16  16  16
#     4  10  22  36  56  81 113 152 195 235 278 335
#     4  11  22  34  54  80 110 145 183 231 291 349
#     4  10  20  34  57  84 107 140 183 231 290 354
#     4   9  18  31  55  82 109 139 172 226 282 323
#     4  10  20  38  54  77 107 146 185 231 279 343
#     4   9  18  33  53  79 111 146 184 223 267 325
#     4  10  20  36  59  82 109 153 198 231 269 334
#     4   9  18  36  60  84 113 146 186 244 307 354
#
# _framework density 18.836424000000001
#
# number of rings (size 3 to 8) (size 9 to 14) (size 15 to 20)
#    0.000    2.250    1.250    1.500    3.500    4.000 
#    0.000    1.875    0.000    2.250    0.000    0.000 
#    0.000    0.000    0.000    0.000    0.000    0.000 
#
# Total GULP energy -792937.555272 kJ/mol
# GULP energy per Si atom -12389.649301 kJ/mol
# Density = 1.879355 g / cm^3
# Si number density = 18.836424 Si / 1000 Ang^3
#
#
#
# Elastic Constant Matrix: (Units=GPa)
#
#
# Indices 1 2 3 4 5 6 
#
# 1 122.2192 40.3639 56.8131 0.0000 0.0000 0.0000
# 2 40.3639 56.1170 30.3416 0.0000 0.0000 0.0000
# 3 56.8131 30.3416 101.7889 0.0000 0.0000 0.0000
# 4 0.0000 0.0000 0.0000 25.3253 0.0000 0.0000
# 5 0.0000 0.0000 0.0000 0.0000 22.6814 0.0000
# 6 0.0000 0.0000 0.0000 0.0000 0.0000 22.6952
#
#
#
# Elastic Compliance Matrix: (Units=1/GPa)
#
#
# Indices 1 2 3 4 5 6 
#
# 1 0.012683 -0.006312 -0.005197 0.000000 0.000000 0.000000
# 2 -0.006312 0.024386 -0.003746 0.000000 0.000000 0.000000
# 3 -0.005197 -0.003746 0.013842 0.000000 0.000000 0.000000
# 4 0.000000 0.000000 0.000000 0.039486 0.000000 0.000000
# 5 0.000000 0.000000 0.000000 0.000000 0.044089 0.000000
# 6 0.000000 0.000000 0.000000 0.000000 0.000000 0.044062
#
#
# Mechanical properties :
#
#
# Convention : Reuss Voigt Hill
#
# Bulk Modulus (GPa) = 49.02135 59.46247 54.24191
# Shear Modulus (GPa) = 23.16346 24.31413 23.73880
#
# Velocity S-wave (km/s) = 3.51054 3.59667 3.55387
# Velocity P-wave (km/s) = 6.52021 6.99174 6.76009
#
# Compressibility (1/GPa) = 0.02039928
#
# Stress axis : x y z
#
# Youngs Moduli (GPa) = 78.84827 41.00795 72.24621
#
# Poissons Ratio (x) = 0.25886 0.37547
# Poissons Ratio (y) = 0.49772 0.27061
# Poissons Ratio (z) = 0.40978 0.15360
#
# Static dielectric constant tensor:
#      x y z
#    x 3.592650 0.000000 0.000000 
#    y 0.000000 3.378200 0.000000 
#    z 0.000000 0.000000 3.839830 
# 
# 
# High freq. dielectric constant tensor:
#      x y z
#    x 1.721710 0.000000 0.000000 
#    y 0.000000 1.726940 0.000000 
#    z 0.000000 0.000000 1.717300 
# 
# From -- ./inp_files/42260.got.cif
#   From: 2010.03.12/outbox.cif.g09.slc.cpg/sg67_22_cif.got.tgz:42260.got - 2010.04.10 22:41:39.
