data_PCOD8280236
_publ_section_title
;
Structure prediction by ZEFSAII (Michael W. Deem and Ramdas Pophale) SiO2 
 PCOD8280236
Probable space group: C M M A
;
_chemical_formula_sum "Si O2"
_cell_formula_units_Z 80
_cell_length_a 17.258868
_cell_length_b 16.892473
_cell_length_c 14.253924
_cell_angle_alpha 90.000000
_cell_angle_beta 90.000000
_cell_angle_gamma 90.000000
_cell_volume 4155.659727
_symmetry_space_group_name_H-M "C M M A"
_symmetry_group_IT_number 67
_symmetry_cell_setting 'orthorhombic'
loop_
_space_group_symop_operation_xyz
x,y,z
-x,1/2-y,z
x,-y,-z
-x,1/2+y,-z
-x,-y,-z
x,1/2+y,-z
-x,y,z
x,1/2-y,z
1/2+x,1/2+y,z
1/2-x,-y,z
1/2+x,1/2-y,-z
1/2-x,y,-z
1/2-x,1/2-y,-z
1/2+x,y,-z
1/2-x,1/2+y,z
1/2+x,-y,z
loop_
_atom_site_type_symbol
_atom_site_label
_atom_site_fract_x
_atom_site_fract_y
_atom_site_fract_z
Si Si1 0.415133 0.843457 0.613009
Si Si2 0.828134 0.841731 0.203784
Si Si3 0.408615 0.158240 0.596770
Si Si4 0.188681 0.431991 0.251176
Si Si5 0.591049 0.524728 0.895447
O O1 0.500000 0.881269 0.631393
O O2 0.422767 0.750000 0.617392
O O3 0.357878 0.872981 0.694183
O O4 0.385617 0.866623 0.509384
O O5 0.843933 0.750000 0.186373
O O6 0.736772 0.860603 0.202433
O O7 0.873885 0.888180 0.122685
O O8 0.500000 0.145275 0.613962
O O9 0.386995 0.250000 0.616441
O O10 0.358401 0.100228 0.660428
O O11 0.250000 0.500000 0.280669
O O12 0.127616 0.461715 0.175145
O O13 0.500000 0.526706 0.879412
O O14 0.613602 0.500000 0.000000
#
# Coordination Sequence:
#
# PCOD8280236 Si02
#       5
#    16  16  16  16  16
#     4   8  15  29  51  79 108 140 180 223 261 297
#     4  10  20  35  58  84 108 138 178 222 262 309
#     4   9  17  32  55  79 106 143 184 223 259 302
#     4  10  21  35  52  78 113 145 173 211 267 327
#     4  10  22  41  61  78 102 138 177 221 272 320
#
# _framework density 19.250854
#
# number of rings (size 3 to 8) (size 9 to 14) (size 15 to 20)
#    0.000    2.600    0.000    3.000    0.000    5.600 
#    0.000   13.000    0.000   13.200    0.000    0.000 
#    0.000    0.000    0.000    0.000    0.000    0.000 
#
# Total GULP energy -495867.928108 kJ/mol
# GULP energy per Si atom -12396.698203 kJ/mol
# Density = 1.920704 g / cm^3
# Si number density = 19.250854 Si / 1000 Ang^3
#
#
#
# Elastic Constant Matrix: (Units=GPa)
#
#
# Indices 1 2 3 4 5 6 
#
# 1 78.0788 46.9500 46.4719 0.0000 0.0000 0.0000
# 2 46.9500 84.5186 67.4463 0.0000 0.0000 0.0000
# 3 46.4719 67.4463 104.3431 0.0000 0.0000 0.0000
# 4 0.0000 0.0000 0.0000 35.3986 0.0000 0.0000
# 5 0.0000 0.0000 0.0000 0.0000 7.2361 0.0000
# 6 0.0000 0.0000 0.0000 0.0000 0.0000 24.9935
#
#
#
# Elastic Compliance Matrix: (Units=1/GPa)
#
#
# Indices 1 2 3 4 5 6 
#
# 1 0.019844 -0.008201 -0.003537 0.000000 0.000000 0.000000
# 2 -0.008201 0.027826 -0.014334 0.000000 0.000000 0.000000
# 3 -0.003537 -0.014334 0.020424 0.000000 0.000000 0.000000
# 4 0.000000 0.000000 0.000000 0.028250 0.000000 0.000000
# 5 0.000000 0.000000 0.000000 0.000000 0.138197 0.000000
# 6 0.000000 0.000000 0.000000 0.000000 0.000000 0.040010
#
#
# Mechanical properties :
#
#
# Convention : Reuss Voigt Hill
#
# Bulk Modulus (GPa) = 62.69323 65.40854 64.05089
# Shear Modulus (GPa) = 15.05973 20.59711 17.82842
#
# Velocity S-wave (km/s) = 2.79998 3.27453 3.04651
# Velocity P-wave (km/s) = 6.56432 6.95323 6.76157
#
# Compressibility (1/GPa) = 0.01595068
#
# Stress axis : x y z
#
# Youngs Moduli (GPa) = 50.39285 35.93809 48.96084
#
# Poissons Ratio (x) = 0.29471 0.17319
# Poissons Ratio (y) = 0.41325 0.70180
# Poissons Ratio (z) = 0.17826 0.51513
#
# Static dielectric constant tensor:
#      x y z
#    x 3.805370 0.000000 0.000000 
#    y 0.000000 3.412540 0.000000 
#    z 0.000000 0.000000 3.549190 
# 
# 
# High freq. dielectric constant tensor:
#      x y z
#    x 1.757830 0.000000 0.000000 
#    y 0.000000 1.740520 0.000000 
#    z 0.000000 0.000000 1.740150 
# 
# From -- ./inp_files/28403.got.cif
#   From: 2010.03.12/outbox.cif.g09.slc.cpg/sg67_15_cif.got.tgz:28403.got - 2010.04.10 22:41:39.
