data_PCOD8280930
_publ_section_title
;
Structure prediction by ZEFSAII (Michael W. Deem and Ramdas Pophale) SiO2 
 PCOD8280930
Probable space group: C M M A
;
_chemical_formula_sum "Si O2"
_cell_formula_units_Z 96
_cell_length_a 20.360026
_cell_length_b 15.346239
_cell_length_c 14.945729
_cell_angle_alpha 90.000000
_cell_angle_beta 90.000000
_cell_angle_gamma 90.000000
_cell_volume 4669.790411
_symmetry_space_group_name_H-M "C M M A"
_symmetry_group_IT_number 67
_symmetry_cell_setting 'orthorhombic'
loop_
_space_group_symop_operation_xyz
x,y,z
-x,1/2-y,z
x,-y,-z
-x,1/2+y,-z
-x,-y,-z
x,1/2+y,-z
-x,y,z
x,1/2-y,z
1/2+x,1/2+y,z
1/2-x,-y,z
1/2+x,1/2-y,-z
1/2-x,y,-z
1/2-x,1/2-y,-z
1/2+x,y,-z
1/2-x,1/2+y,z
1/2+x,-y,z
loop_
_atom_site_type_symbol
_atom_site_label
_atom_site_fract_x
_atom_site_fract_y
_atom_site_fract_z
Si Si1 0.426211 0.413995 0.956112
Si Si2 0.237879 0.750000 0.155782
Si Si3 0.075779 0.648923 0.591927
Si Si4 0.197985 0.576068 0.259997
Si Si5 0.817851 0.847927 0.448603
Si Si6 0.656154 0.750000 0.021946
Si Si7 0.073793 0.970244 0.759963
O O1 0.500000 0.405377 0.992621
O O2 0.387047 0.334016 0.993996
O O3 0.424481 0.412925 0.849022
O O4 0.393913 0.500000 0.000000
O O5 0.221228 0.664378 0.212665
O O6 0.313691 0.750000 0.123071
O O7 0.205287 0.750000 0.059814
O O8 0.089794 0.750000 0.615121
O O9 0.122421 0.617992 0.510806
O O10 0.094577 0.592733 0.678699
O O11 0.000000 0.634721 0.563624
O O12 0.250000 0.500000 0.238353
O O13 0.190701 0.588451 0.365647
O O14 0.125286 0.548884 0.227416
O O15 0.834170 0.750000 0.415826
O O16 0.750000 0.849421 0.500000
O O17 0.000000 0.008209 0.744998
#
# Coordination Sequence:
#
# PCOD8280930 Si02
#       7
#    16   8  16  16  16   8  16
#     4  10  21  39  63  94 128 158 199 252 309 372
#     4  11  26  44  61  90 123 156 213 256 304 379
#     4   9  19  36  59  89 126 162 203 256 307 361
#     4  12  24  42  64  89 123 165 204 255 311 367
#     4  10  21  38  59  85 119 158 204 253 302 361
#     4  11  23  40  66  90 118 163 204 252 308 371
#     4  10  22  38  60  93 126 162 206 253 305 366
#
# _framework density 20.557666999999999
#
# number of rings (size 3 to 8) (size 9 to 14) (size 15 to 20)
#    0.000    1.667    0.833    3.250    1.167    3.000 
#    1.500    4.583    0.000    0.000    0.000    0.000 
#    0.000    0.000    0.000    0.000    0.000    0.000 
#
# Total GULP energy -595187.044766 kJ/mol
# GULP energy per Si atom -12399.730099 kJ/mol
# Density = 2.051088 g / cm^3
# Si number density = 20.557667 Si / 1000 Ang^3
#
#
#
# Elastic Constant Matrix: (Units=GPa)
#
#
# Indices 1 2 3 4 5 6 
#
# 1 99.9705 58.2408 33.6504 0.0000 0.0000 0.0000
# 2 58.2408 130.9758 43.0819 0.0000 0.0000 0.0000
# 3 33.6504 43.0819 94.1959 0.0000 0.0000 0.0000
# 4 0.0000 0.0000 0.0000 30.3325 0.0000 0.0000
# 5 0.0000 0.0000 0.0000 0.0000 28.5780 0.0000
# 6 0.0000 0.0000 0.0000 0.0000 0.0000 33.5267
#
#
#
# Elastic Compliance Matrix: (Units=1/GPa)
#
#
# Indices 1 2 3 4 5 6 
#
# 1 0.013996 -0.005390 -0.002535 0.000000 0.000000 0.000000
# 2 -0.005390 0.011063 -0.003134 0.000000 0.000000 0.000000
# 3 -0.002535 -0.003134 0.012955 0.000000 0.000000 0.000000
# 4 0.000000 0.000000 0.000000 0.032968 0.000000 0.000000
# 5 0.000000 0.000000 0.000000 0.000000 0.034992 0.000000
# 6 0.000000 0.000000 0.000000 0.000000 0.000000 0.029827
#
#
# Mechanical properties :
#
#
# Convention : Reuss Voigt Hill
#
# Bulk Modulus (GPa) = 62.90810 66.12094 64.51452
# Shear Modulus (GPa) = 30.63398 31.16539 30.89968
#
# Velocity S-wave (km/s) = 3.86443 3.89781 3.88115
# Velocity P-wave (km/s) = 7.11189 7.24504 7.17878
#
# Compressibility (1/GPa) = 0.01589621
#
# Stress axis : x y z
#
# Youngs Moduli (GPa) = 71.44784 90.39432 77.18920
#
# Poissons Ratio (x) = 0.48722 0.19566
# Poissons Ratio (y) = 0.38510 0.24193
# Poissons Ratio (z) = 0.18111 0.28331
#
# Static dielectric constant tensor:
#      x y z
#    x 3.946070 0.000000 0.000000 
#    y 0.000000 3.692460 0.000000 
#    z 0.000000 0.000000 3.720040 
# 
# 
# High freq. dielectric constant tensor:
#      x y z
#    x 1.814690 0.000000 0.000000 
#    y 0.000000 1.800030 0.000000 
#    z 0.000000 0.000000 1.807210 
# 
# From -- ./inp_files/29334.got.cif
#   From: 2010.03.12/outbox.cif.g09.slc.cpg/sg67_15_cif.got.tgz:29334.got - 2010.04.10 22:41:39.
