data_PCOD8280417
_publ_section_title
;
Structure prediction by ZEFSAII (Michael W. Deem and Ramdas Pophale) SiO2 
 PCOD8280417
Probable space group: C M M A
;
_chemical_formula_sum "Si O2"
_cell_formula_units_Z 112
_cell_length_a 18.446763
_cell_length_b 24.259617
_cell_length_c 12.698136
_cell_angle_alpha 90.000000
_cell_angle_beta 90.000000
_cell_angle_gamma 90.000000
_cell_volume 5682.560686
_symmetry_space_group_name_H-M "C M M A"
_symmetry_group_IT_number 67
_symmetry_cell_setting 'orthorhombic'
loop_
_space_group_symop_operation_xyz
x,y,z
-x,1/2-y,z
x,-y,-z
-x,1/2+y,-z
-x,-y,-z
x,1/2+y,-z
-x,y,z
x,1/2-y,z
1/2+x,1/2+y,z
1/2-x,-y,z
1/2+x,1/2-y,-z
1/2-x,y,-z
1/2-x,1/2-y,-z
1/2+x,y,-z
1/2-x,1/2+y,z
1/2+x,-y,z
loop_
_atom_site_type_symbol
_atom_site_label
_atom_site_fract_x
_atom_site_fract_y
_atom_site_fract_z
Si Si1 0.916466 0.625852 0.110393
Si Si2 0.332094 0.017420 0.612060
Si Si3 0.584276 0.887531 0.125355
Si Si4 0.668164 0.857595 0.323653
Si Si5 0.170156 0.815802 0.290883
Si Si6 0.919796 0.813568 0.488919
Si Si7 0.416993 0.492714 0.190826
O O1 0.863520 0.661776 0.182369
O O2 0.902082 0.560594 0.120233
O O3 0.000000 0.640292 0.138112
O O4 0.898987 0.638813 0.988520
O O5 0.373643 0.984233 0.701692
O O6 0.365997 0.000000 0.500000
O O7 0.250000 0.000000 0.618801
O O8 0.339640 0.082253 0.627031
O O9 0.500000 0.881359 0.153249
O O10 0.629893 0.853272 0.210309
O O11 0.607286 0.952220 0.128287
O O12 0.750412 0.839715 0.309227
O O13 0.627000 0.818375 0.405173
O O14 0.173869 0.750000 0.285328
O O15 0.121924 0.838612 0.387843
O O16 0.930371 0.750000 0.464928
O O17 0.000000 0.841216 0.500352
O O18 0.500000 0.497842 0.223196
#
# Coordination Sequence:
#
# PCOD8280417 Si02
#       7
#    16  16  16  16  16  16  16
#     4  10  20  36  61  84 114 155 193 236 290 338
#     4  10  22  34  50  78 118 153 183 227 282 342
#     4   9  19  37  58  87 118 150 190 234 283 342
#     4  11  22  37  61  82 116 155 187 235 290 344
#     4  11  24  40  59  85 115 149 196 244 289 339
#     4  10  22  40  62  86 110 143 190 239 286 342
#     4   9  18  34  56  84 113 147 191 232 276 339
#
# _framework density 19.709425
#
# number of rings (size 3 to 8) (size 9 to 14) (size 15 to 20)
#    0.000    2.000    0.000    3.000    6.000    5.143 
#    0.000    2.143    0.000    4.286    0.000    0.000 
#    0.000    0.000    0.000    0.000    0.000    0.000 
#
# Total GULP energy -694423.793257 kJ/mol
# GULP energy per Si atom -12400.424880 kJ/mol
# Density = 1.966457 g / cm^3
# Si number density = 19.709425 Si / 1000 Ang^3
#
#
#
# Elastic Constant Matrix: (Units=GPa)
#
#
# Indices 1 2 3 4 5 6 
#
# 1 112.2369 20.6849 77.9887 0.0000 0.0000 0.0000
# 2 20.6849 36.9462 31.3015 0.0000 0.0000 0.0000
# 3 77.9887 31.3015 153.8205 0.0000 0.0000 0.0000
# 4 0.0000 0.0000 0.0000 31.3242 0.0000 0.0000
# 5 0.0000 0.0000 0.0000 0.0000 40.7721 0.0000
# 6 0.0000 0.0000 0.0000 0.0000 0.0000 25.4994
#
#
#
# Elastic Compliance Matrix: (Units=1/GPa)
#
#
# Indices 1 2 3 4 5 6 
#
# 1 0.013901 -0.002189 -0.006603 0.000000 0.000000 0.000000
# 2 -0.002189 0.033050 -0.005616 0.000000 0.000000 0.000000
# 3 -0.006603 -0.005616 0.010991 0.000000 0.000000 0.000000
# 4 0.000000 0.000000 0.000000 0.031924 0.000000 0.000000
# 5 0.000000 0.000000 0.000000 0.000000 0.024527 0.000000
# 6 0.000000 0.000000 0.000000 0.000000 0.000000 0.039217
#
#
# Mechanical properties :
#
#
# Convention : Reuss Voigt Hill
#
# Bulk Modulus (GPa) = 34.33137 62.55041 48.44089
# Shear Modulus (GPa) = 26.02371 31.05436 28.53904
#
# Velocity S-wave (km/s) = 3.63763 3.97370 3.80937
# Velocity P-wave (km/s) = 5.92450 7.27041 6.63169
#
# Compressibility (1/GPa) = 0.02912788
#
# Stress axis : x y z
#
# Youngs Moduli (GPa) = 71.93760 30.25763 90.98060
#
# Poissons Ratio (x) = 0.06623 0.60070
# Poissons Ratio (y) = 0.15746 0.51091
# Poissons Ratio (z) = 0.47497 0.16991
#
# Static dielectric constant tensor:
#      x y z
#    x 3.636230 0.000000 0.000000 
#    y 0.000000 1.903900 0.000000 
#    z 0.000000 0.000000 3.728320 
# 
# 
# High freq. dielectric constant tensor:
#      x y z
#    x 1.770420 0.000000 0.000000 
#    y 0.000000 1.756080 0.000000 
#    z 0.000000 0.000000 1.777470 
# 
# From -- ./inp_files/21082.got.cif
#   From: 2010.03.12/outbox.cif.g09.slc.cpg/sg67_11_cif.got.tgz:21082.got - 2010.04.10 22:41:39.
