data_PCOD8280747
_publ_section_title
;
Structure prediction by ZEFSAII (Michael W. Deem and Ramdas Pophale) SiO2 
 PCOD8280747
Probable space group: C M M A
;
_chemical_formula_sum "Si O2"
_cell_formula_units_Z 68
_cell_length_a 24.027067
_cell_length_b 9.313874
_cell_length_c 13.628699
_cell_angle_alpha 90.000000
_cell_angle_beta 90.000000
_cell_angle_gamma 90.000000
_cell_volume 3049.899423
_symmetry_space_group_name_H-M "C M M A"
_symmetry_group_IT_number 67
_symmetry_cell_setting 'orthorhombic'
loop_
_space_group_symop_operation_xyz
x,y,z
-x,1/2-y,z
x,-y,-z
-x,1/2+y,-z
-x,-y,-z
x,1/2+y,-z
-x,y,z
x,1/2-y,z
1/2+x,1/2+y,z
1/2-x,-y,z
1/2+x,1/2-y,-z
1/2-x,y,-z
1/2-x,1/2-y,-z
1/2+x,y,-z
1/2-x,1/2+y,z
1/2+x,-y,z
loop_
_atom_site_type_symbol
_atom_site_label
_atom_site_fract_x
_atom_site_fract_y
_atom_site_fract_z
Si Si1 0.798795 0.090763 0.641067
Si Si2 0.079558 0.585572 0.408006
Si Si3 0.161397 0.911926 0.150748
Si Si4 0.250000 0.500000 0.000000
Si Si5 0.562344 0.916727 0.207613
O O1 0.774966 0.250000 0.650626
O O2 0.854109 0.085968 0.576352
O O3 0.811321 0.028156 0.749608
O O4 0.750000 0.000000 0.590200
O O5 0.053067 0.500000 0.500000
O O6 0.057259 0.750000 0.404859
O O7 0.062868 0.503829 0.309306
O O8 0.139253 0.750000 0.167132
O O9 0.208021 0.906929 0.066112
O O10 0.107295 0.013712 0.131293
O O11 0.500000 0.929035 0.162744
O O12 0.577840 0.750000 0.225930
#
# Coordination Sequence:
#
# PCOD8280747 Si02
#       5
#    16  16  16   4  16
#     4   9  18  33  51  76 112 155 196 238 291 351
#     4  10  21  36  55  84 118 156 204 253 301 353
#     4  10  22  38  60  92 124 158 198 243 300 359
#     4  12  22  40  66  98 128 156 192 244 294 360
#     4  10  22  41  64  88 118 160 205 250 303 358
#
# _framework density 22.295817
#
# number of rings (size 3 to 8) (size 9 to 14) (size 15 to 20)
#    0.000    2.118    1.176    3.176    0.000    9.412 
#    0.000    2.941    0.000    0.000    0.000    0.000 
#    0.000    0.000    0.000    0.000    0.000    0.000 
#
# Total GULP energy -421350.210559 kJ/mol
# GULP energy per Si atom -12392.653252 kJ/mol
# Density = 2.224507 g / cm^3
# Si number density = 22.295817 Si / 1000 Ang^3
#
#
#
# Elastic Constant Matrix: (Units=GPa)
#
#
# Indices 1 2 3 4 5 6 
#
# 1 148.1112 65.9287 18.9126 0.0000 0.0000 0.0000
# 2 65.9287 144.3347 24.3774 0.0000 0.0000 0.0000
# 3 18.9126 24.3774 67.8739 0.0000 0.0000 0.0000
# 4 0.0000 0.0000 0.0000 19.6213 0.0000 0.0000
# 5 0.0000 0.0000 0.0000 0.0000 -1.4684 0.0000
# 6 0.0000 0.0000 0.0000 0.0000 0.0000 19.2470
#
#
#
# Elastic Compliance Matrix: (Units=1/GPa)
#
#
# Indices 1 2 3 4 5 6 
#
# 1 0.008544 -0.003726 -0.001042 0.000000 0.000000 0.000000
# 2 -0.003726 0.009001 -0.002194 0.000000 0.000000 0.000000
# 3 -0.001042 -0.002194 0.015812 0.000000 0.000000 0.000000
# 4 0.000000 0.000000 0.000000 0.050965 0.000000 0.000000
# 5 0.000000 0.000000 0.000000 0.000000 -0.681002 0.000000
# 6 0.000000 0.000000 0.000000 0.000000 0.000000 0.051956
#
#
# Mechanical properties :
#
#
# Convention : Reuss Voigt Hill
#
# Bulk Modulus (GPa) = 51.46641 64.30636 57.88638
# Shear Modulus (GPa) = -9.53613 24.22004 7.34196
#
# Velocity S-wave (km/s) = -2.07036 3.29949 1.81662
# Velocity P-wave (km/s) = 4.17353 6.58942 5.51538
#
# Compressibility (1/GPa) = 0.01943015
#
# Stress axis : x y z
#
# Youngs Moduli (GPa) = 117.04776 111.09708 63.24401
#
# Poissons Ratio (x) = 0.41400 0.06591
# Poissons Ratio (y) = 0.43617 0.13879
# Poissons Ratio (z) = 0.12199 0.24380
#
# Static dielectric constant tensor:
#      x y z
#    x 4.239840 0.000000 0.000000 
#    y 0.000000 3.988650 0.000000 
#    z 0.000000 0.000000 3.650330 
# 
# 
# High freq. dielectric constant tensor:
#      x y z
#    x 1.887970 0.000000 0.000000 
#    y 0.000000 1.880070 0.000000 
#    z 0.000000 0.000000 1.846910 
# 
# From -- ./inp_files/30476.got.cif
#   From: 2010.03.12/outbox.cif.g09.slc.cpg/sg67_16_cif.got.tgz:30476.got - 2010.04.10 22:41:39.
