data_PCOD8280635
_publ_section_title
;
Structure prediction by ZEFSAII (Michael W. Deem and Ramdas Pophale) SiO2 
 PCOD8280635
Probable space group: C M M A
;
_chemical_formula_sum "Si O2"
_cell_formula_units_Z 88
_cell_length_a 26.297255
_cell_length_b 9.361054
_cell_length_c 19.107860
_cell_angle_alpha 90.000000
_cell_angle_beta 90.000000
_cell_angle_gamma 90.000000
_cell_volume 4703.782357
_symmetry_space_group_name_H-M "C M M A"
_symmetry_group_IT_number 67
_symmetry_cell_setting 'orthorhombic'
loop_
_space_group_symop_operation_xyz
x,y,z
-x,1/2-y,z
x,-y,-z
-x,1/2+y,-z
-x,-y,-z
x,1/2+y,-z
-x,y,z
x,1/2-y,z
1/2+x,1/2+y,z
1/2-x,-y,z
1/2+x,1/2-y,-z
1/2-x,y,-z
1/2-x,1/2-y,-z
1/2+x,y,-z
1/2-x,1/2+y,z
1/2+x,-y,z
loop_
_atom_site_type_symbol
_atom_site_label
_atom_site_fract_x
_atom_site_fract_y
_atom_site_fract_z
Si Si1 0.092852 0.583705 0.814727
Si Si2 0.203864 0.592749 0.646531
Si Si3 0.500000 0.076583 0.425905
Si Si4 0.411032 0.082058 0.652264
Si Si5 0.294452 0.906326 0.187795
Si Si6 0.558013 0.406773 0.061589
O O1 0.085289 0.750000 0.832934
O O2 0.078948 0.556741 0.734238
O O3 0.150341 0.532514 0.830871
O O4 0.058273 0.487310 0.864042
O O5 0.209275 0.750000 0.613637
O O6 0.250000 0.500000 0.613334
O O7 0.146630 0.535563 0.630707
O O8 0.211069 0.601390 0.729118
O O9 0.500000 0.250000 0.431265
O O10 0.500000 0.000000 0.500000
O O11 0.449378 0.022437 0.387194
O O12 0.420081 0.250000 0.634171
O O13 0.288240 0.750000 0.155276
O O14 0.250000 0.000000 0.153661
O O15 0.500000 0.383831 0.040182
O O16 0.584253 0.250000 0.066882
O O17 0.584959 0.500000 0.000000
#
# Coordination Sequence:
#
# PCOD8280635 Si02
#       6
#    16  16   8  16  16  16
#     4   9  18  32  52  77 105 137 171 210 257 306
#     4   8  14  26  47  75 108 140 172 212 259 310
#     4  12  26  42  60  80 107 144 183 222 264 316
#     4   9  19  36  56  81 111 145 181 218 265 318
#     4   8  14  25  42  68 100 133 167 202 247 301
#     4  10  21  35  50  70  98 132 172 215 261 314
#
# _framework density 18.708348999999998
#
# number of rings (size 3 to 8) (size 9 to 14) (size 15 to 20)
#    0.000    2.909    0.000    3.545    1.273    3.273 
#    0.000    3.636    0.000    1.091    0.000    7.636 
#    0.000    0.000    0.000    0.000    0.000    0.000 
#
# Total GULP energy -545175.248045 kJ/mol
# GULP energy per Si atom -12390.346546 kJ/mol
# Density = 1.866577 g / cm^3
# Si number density = 18.708349 Si / 1000 Ang^3
#
#
#
# Elastic Constant Matrix: (Units=GPa)
#
#
# Indices 1 2 3 4 5 6 
#
# 1 99.3467 58.7896 32.7599 0.0000 0.0000 0.0000
# 2 58.7896 122.6332 55.5587 0.0000 0.0000 0.0000
# 3 32.7599 55.5587 67.0481 0.0000 0.0000 0.0000
# 4 0.0000 0.0000 0.0000 20.7629 0.0000 0.0000
# 5 0.0000 0.0000 0.0000 0.0000 -0.2705 0.0000
# 6 0.0000 0.0000 0.0000 0.0000 0.0000 36.3611
#
#
#
# Elastic Compliance Matrix: (Units=1/GPa)
#
#
# Indices 1 2 3 4 5 6 
#
# 1 0.014231 -0.005879 -0.002082 0.000000 0.000000 0.000000
# 2 -0.005879 0.015485 -0.009958 0.000000 0.000000 0.000000
# 3 -0.002082 -0.009958 0.024184 0.000000 0.000000 0.000000
# 4 0.000000 0.000000 0.000000 0.048163 0.000000 0.000000
# 5 0.000000 0.000000 0.000000 0.000000 -3.696608 0.000000
# 6 0.000000 0.000000 0.000000 0.000000 0.000000 0.027502
#
#
# Mechanical properties :
#
#
# Convention : Reuss Voigt Hill
#
# Bulk Modulus (GPa) = 55.36855 64.80492 60.08674
# Shear Modulus (GPa) = -1.41837 20.83201 9.70682
#
# Velocity S-wave (km/s) = -0.87166 3.34056 2.28030
# Velocity P-wave (km/s) = 5.35227 7.04229 6.25463
#
# Compressibility (1/GPa) = 0.01806079
#
# Stress axis : x y z
#
# Youngs Moduli (GPa) = 70.26733 64.58043 41.35013
#
# Poissons Ratio (x) = 0.37969 0.08608
# Poissons Ratio (y) = 0.41313 0.41178
# Poissons Ratio (z) = 0.14627 0.64312
#
# Static dielectric constant tensor:
#      x y z
#    x 3.544390 0.000000 0.000000 
#    y 0.000000 3.782660 0.000000 
#    z 0.000000 0.000000 3.016070 
# 
# 
# High freq. dielectric constant tensor:
#      x y z
#    x 1.725530 0.000000 0.000000 
#    y 0.000000 1.726260 0.000000 
#    z 0.000000 0.000000 1.684690 
# 
# From -- ./inp_files/40127.got.cif
#   From: 2010.03.12/outbox.cif.g09.slc.cpg/sg67_21_cif.got.tgz:40127.got - 2010.04.10 22:41:39.
