data_PCOD8280273
_publ_section_title
;
Structure prediction by ZEFSAII (Michael W. Deem and Ramdas Pophale) SiO2 
 PCOD8280273
Probable space group: C M M A
;
_chemical_formula_sum "Si O2"
_cell_formula_units_Z 96
_cell_length_a 27.563234
_cell_length_b 20.941500
_cell_length_c 8.494357
_cell_angle_alpha 90.000000
_cell_angle_beta 90.000000
_cell_angle_gamma 90.000000
_cell_volume 4903.074224
_symmetry_space_group_name_H-M "C M M A"
_symmetry_group_IT_number 67
_symmetry_cell_setting 'orthorhombic'
loop_
_space_group_symop_operation_xyz
x,y,z
-x,1/2-y,z
x,-y,-z
-x,1/2+y,-z
-x,-y,-z
x,1/2+y,-z
-x,y,z
x,1/2-y,z
1/2+x,1/2+y,z
1/2-x,-y,z
1/2+x,1/2-y,-z
1/2-x,y,-z
1/2-x,1/2-y,-z
1/2+x,y,-z
1/2-x,1/2+y,z
1/2+x,-y,z
loop_
_atom_site_type_symbol
_atom_site_label
_atom_site_fract_x
_atom_site_fract_y
_atom_site_fract_z
Si Si1 0.445619 0.322810 0.679313
Si Si2 0.946982 0.569606 0.419571
Si Si3 0.356059 0.484366 0.318816
Si Si4 0.207050 0.902436 0.108183
Si Si5 0.141295 0.617375 0.825496
Si Si6 0.768201 0.175618 0.330623
O O1 0.500000 0.331288 0.748057
O O2 0.437941 0.250000 0.619779
O O3 0.437276 0.371856 0.536855
O O4 0.406782 0.338699 0.815991
O O5 0.946009 0.500000 0.500000
O O6 0.900854 0.566767 0.302652
O O7 0.000000 0.579006 0.337816
O O8 0.342824 0.500000 0.500000
O O9 0.308877 0.455875 0.233383
O O10 0.373164 0.546052 0.222718
O O11 0.227837 0.841293 0.200402
O O12 0.250000 0.931931 0.000000
O O13 0.161690 0.879556 0.002733
O O14 0.181319 0.640508 0.700781
O O15 0.778267 0.250000 0.324654
O O16 0.750000 0.152616 0.500000
#
# Coordination Sequence:
#
# PCOD8280273 Si02
#       6
#    16  16  16  16  16  16
#     4  10  20  35  59  91 122 158 200 243 297 360
#     4   9  17  33  58  86 118 151 193 248 298 347
#     4  11  20  36  61  86 114 151 202 248 299 352
#     4  10  24  40  56  82 121 159 199 246 307 359
#     4  11  21  36  57  84 119 156 192 243 299 362
#     4  10  22  39  59  83 112 152 203 248 295 356
#
# _framework density 19.579552
#
# number of rings (size 3 to 8) (size 9 to 14) (size 15 to 20)
#    0.000    1.833    3.333    2.000    0.000    8.333 
#    0.000    5.000    0.000    2.000    0.000    2.333 
#    0.000    0.000    0.000    0.000    0.000    0.000 
#
# Total GULP energy -594968.517691 kJ/mol
# GULP energy per Si atom -12395.177452 kJ/mol
# Density = 1.953499 g / cm^3
# Si number density = 19.579552 Si / 1000 Ang^3
#
#
#
# Elastic Constant Matrix: (Units=GPa)
#
#
# Indices 1 2 3 4 5 6 
#
# 1 137.0242 49.9294 63.6960 0.0000 0.0000 0.0000
# 2 49.9294 90.6300 27.6309 0.0000 0.0000 0.0000
# 3 63.6960 27.6309 92.7429 0.0000 0.0000 0.0000
# 4 0.0000 0.0000 0.0000 18.4887 0.0000 0.0000
# 5 0.0000 0.0000 0.0000 0.0000 31.3337 0.0000
# 6 0.0000 0.0000 0.0000 0.0000 0.0000 28.9498
#
#
#
# Elastic Compliance Matrix: (Units=1/GPa)
#
#
# Indices 1 2 3 4 5 6 
#
# 1 0.012247 -0.004601 -0.007041 0.000000 0.000000 0.000000
# 2 -0.004601 0.013864 -0.000971 0.000000 0.000000 0.000000
# 3 -0.007041 -0.000971 0.015907 0.000000 0.000000 0.000000
# 4 0.000000 0.000000 0.000000 0.054087 0.000000 0.000000
# 5 0.000000 0.000000 0.000000 0.000000 0.031915 0.000000
# 6 0.000000 0.000000 0.000000 0.000000 0.000000 0.034543
#
#
# Mechanical properties :
#
#
# Convention : Reuss Voigt Hill
#
# Bulk Modulus (GPa) = 59.54349 66.98996 63.26673
# Shear Modulus (GPa) = 25.85499 27.69715 26.77607
#
# Velocity S-wave (km/s) = 3.63782 3.76519 3.70206
# Velocity P-wave (km/s) = 6.93701 7.29320 7.11733
#
# Compressibility (1/GPa) = 0.01679445
#
# Stress axis : x y z
#
# Youngs Moduli (GPa) = 81.65045 72.12686 62.86387
#
# Poissons Ratio (x) = 0.33183 0.44261
# Poissons Ratio (y) = 0.37565 0.06103
# Poissons Ratio (z) = 0.57489 0.07003
#
# Static dielectric constant tensor:
#      x y z
#    x 4.094500 0.000000 0.000000 
#    y 0.000000 3.563180 0.000000 
#    z 0.000000 0.000000 3.403600 
# 
# 
# High freq. dielectric constant tensor:
#      x y z
#    x 1.779030 0.000000 0.000000 
#    y 0.000000 1.763860 0.000000 
#    z 0.000000 0.000000 1.729780 
# 
# From -- ./inp_files/11492.got.cif
#   From: 2010.03.12/outbox.cif.g09.slc.cpg/sg67_6_cif.got.tgz:11492.got - 2010.04.10 22:41:39.
