data_PCOD8280773
_publ_section_title
;
Structure prediction by ZEFSAII (Michael W. Deem and Ramdas Pophale) SiO2 
 PCOD8280773
Probable space group: C M M A
;
_chemical_formula_sum "Si O2"
_cell_formula_units_Z 112
_cell_length_a 14.237519
_cell_length_b 14.499185
_cell_length_c 26.563661
_cell_angle_alpha 90.000000
_cell_angle_beta 90.000000
_cell_angle_gamma 90.000000
_cell_volume 5483.600875
_symmetry_space_group_name_H-M "C M M A"
_symmetry_group_IT_number 67
_symmetry_cell_setting 'orthorhombic'
loop_
_space_group_symop_operation_xyz
x,y,z
-x,1/2-y,z
x,-y,-z
-x,1/2+y,-z
-x,-y,-z
x,1/2+y,-z
-x,y,z
x,1/2-y,z
1/2+x,1/2+y,z
1/2-x,-y,z
1/2+x,1/2-y,-z
1/2-x,y,-z
1/2-x,1/2-y,-z
1/2+x,y,-z
1/2-x,1/2+y,z
1/2+x,-y,z
loop_
_atom_site_type_symbol
_atom_site_label
_atom_site_fract_x
_atom_site_fract_y
_atom_site_fract_z
Si Si1 0.237410 0.352798 0.256617
Si Si2 0.898336 0.857159 0.441491
Si Si3 0.251007 0.856352 0.940356
Si Si4 0.891734 0.009435 0.780397
Si Si5 0.891720 0.501985 0.100716
Si Si6 0.110641 0.147047 0.449812
Si Si7 0.240003 0.099671 0.364664
O O1 0.237266 0.250000 0.232197
O O2 0.148422 0.410955 0.237453
O O3 0.334476 0.404865 0.243100
O O4 0.226668 0.334963 0.316795
O O5 0.912761 0.750000 0.451997
O O6 0.860956 0.896135 0.495557
O O7 0.831720 0.872358 0.394992
O O8 0.000000 0.902053 0.428831
O O9 0.249333 0.750000 0.921793
O O10 0.346527 0.905873 0.922678
O O11 0.161050 0.909748 0.917861
O O12 0.250000 0.861815 0.000000
O O13 0.881280 0.011876 0.839945
O O14 0.000000 0.017993 0.763234
O O15 0.000000 0.495376 0.083769
O O16 0.152807 0.250000 0.443794
O O17 0.153864 0.090111 0.403738
O O18 0.000000 0.146815 0.443767
O O19 0.250000 0.000000 0.339369
#
# Coordination Sequence:
#
# PCOD8280773 Si02
#       7
#    16  16  16  16  16  16  16
#     4  11  23  42  64  87 117 155 194 243 307 369
#     4   9  19  36  56  78 105 139 181 225 270 331
#     4  10  21  36  57  90 131 170 208 250 295 347
#     4  10  23  43  63  91 121 151 201 259 305 355
#     4  10  21  38  62  87 120 163 207 255 305 353
#     4   9  19  36  56  78 105 139 181 225 270 331
#     4  12  23  36  54  80 112 144 179 230 284 340
#
# _framework density 20.424536
#
# number of rings (size 3 to 8) (size 9 to 14) (size 15 to 20)
#    0.000    1.857    1.429    5.143    0.000    8.571 
#    0.000    5.714    0.000    0.000    0.000    0.000 
#    0.000    0.000    0.000    0.000    0.000    0.000 
#
# Total GULP energy -694138.034270 kJ/mol
# GULP energy per Si atom -12395.322041 kJ/mol
# Density = 2.037805 g / cm^3
# Si number density = 20.424536 Si / 1000 Ang^3
#
#
#
# Elastic Constant Matrix: (Units=GPa)
#
#
# Indices 1 2 3 4 5 6 
#
# 1 129.0042 36.6230 42.6576 0.0000 0.0000 0.0000
# 2 36.6230 126.6297 24.5927 0.0000 0.0000 0.0000
# 3 42.6576 24.5927 102.5023 0.0000 0.0000 0.0000
# 4 0.0000 0.0000 0.0000 23.5826 0.0000 0.0000
# 5 0.0000 0.0000 0.0000 0.0000 40.8798 0.0000
# 6 0.0000 0.0000 0.0000 0.0000 0.0000 20.9450
#
#
#
# Elastic Compliance Matrix: (Units=1/GPa)
#
#
# Indices 1 2 3 4 5 6 
#
# 1 0.009480 -0.002072 -0.003448 0.000000 0.000000 0.000000
# 2 -0.002072 0.008736 -0.001234 0.000000 0.000000 0.000000
# 3 -0.003448 -0.001234 0.011487 0.000000 0.000000 0.000000
# 4 0.000000 0.000000 0.000000 0.042404 0.000000 0.000000
# 5 0.000000 0.000000 0.000000 0.000000 0.024462 0.000000
# 6 0.000000 0.000000 0.000000 0.000000 0.000000 0.047744
#
#
# Mechanical properties :
#
#
# Convention : Reuss Voigt Hill
#
# Bulk Modulus (GPa) = 61.74684 62.87585 62.31134
# Shear Modulus (GPa) = 30.63366 34.03234 32.33300
#
# Velocity S-wave (km/s) = 3.87699 4.08640 3.98307
# Velocity P-wave (km/s) = 7.09498 7.28808 7.19218
#
# Compressibility (1/GPa) = 0.01619516
#
# Stress axis : x y z
#
# Youngs Moduli (GPa) = 105.48386 114.47013 87.05629
#
# Poissons Ratio (x) = 0.23720 0.30018
# Poissons Ratio (y) = 0.21858 0.10739
# Poissons Ratio (z) = 0.36372 0.14121
#
# Static dielectric constant tensor:
#      x y z
#    x 3.786070 0.000000 0.000000 
#    y 0.000000 3.855650 0.000000 
#    z 0.000000 0.000000 3.715470 
# 
# 
# High freq. dielectric constant tensor:
#      x y z
#    x 1.798670 0.000000 0.000000 
#    y 0.000000 1.799340 0.000000 
#    z 0.000000 0.000000 1.803530 
# 
# From -- ./inp_files/44368.got.cif
#   From: 2010.03.12/outbox.cif.g09.slc.cpg/sg67_23_cif.got.tgz:44368.got - 2010.04.10 22:41:39.
