data_PCOD8280448
_publ_section_title
;
Structure prediction by ZEFSAII (Michael W. Deem and Ramdas Pophale) SiO2 
 PCOD8280448
Probable space group: C M M A
;
_chemical_formula_sum "Si O2"
_cell_formula_units_Z 88
_cell_length_a 15.847634
_cell_length_b 8.875377
_cell_length_c 30.317550
_cell_angle_alpha 90.000000
_cell_angle_beta 90.000000
_cell_angle_gamma 90.000000
_cell_volume 4264.276380
_symmetry_space_group_name_H-M "C M M A"
_symmetry_group_IT_number 67
_symmetry_cell_setting 'orthorhombic'
loop_
_space_group_symop_operation_xyz
x,y,z
-x,1/2-y,z
x,-y,-z
-x,1/2+y,-z
-x,-y,-z
x,1/2+y,-z
-x,y,z
x,1/2-y,z
1/2+x,1/2+y,z
1/2-x,-y,z
1/2+x,1/2-y,-z
1/2-x,y,-z
1/2-x,1/2-y,-z
1/2+x,y,-z
1/2-x,1/2+y,z
1/2+x,-y,z
loop_
_atom_site_type_symbol
_atom_site_label
_atom_site_fract_x
_atom_site_fract_y
_atom_site_fract_z
Si Si1 0.336594 0.572201 0.899113
Si Si2 0.341426 0.926584 0.637440
Si Si3 0.500000 0.070687 0.047786
Si Si4 0.341598 0.072704 0.722845
Si Si5 0.096016 0.580898 0.193379
Si Si6 0.658459 0.574143 0.541803
O O1 0.329828 0.750000 0.903752
O O2 0.250000 0.500000 0.917074
O O3 0.416060 0.512242 0.927206
O O4 0.348363 0.525531 0.847881
O O5 0.333400 0.750000 0.647023
O O6 0.386624 0.954100 0.589601
O O7 0.250000 0.000000 0.635287
O O8 0.388460 0.005422 0.678892
O O9 0.500000 0.250000 0.044882
O O10 0.500000 0.000000 0.000000
O O11 0.334363 0.250000 0.717942
O O12 0.250000 0.000000 0.728249
O O13 0.395107 0.032251 0.765839
O O14 0.122884 0.750000 0.207945
O O15 0.000000 0.580852 0.176928
O O16 0.608289 0.500000 0.500000
O O17 0.667686 0.750000 0.532832
O O18 0.750000 0.500000 0.543688
#
# Coordination Sequence:
#
# PCOD8280448 Si02
#       6
#    16  16   8  16  16  16
#     4  10  21  39  63  90 121 159 201 245 293 350
#     4   9  16  26  39  57  84 121 164 209 259 320
#     4  10  22  42  64  90 126 164 204 248 297 348
#     4  11  21  32  48  72 102 136 175 221 270 328
#     4  10  20  37  59  80 108 146 183 227 284 341
#     4   9  15  21  32  50  75 110 153 200 252 313
#
# _framework density 20.636562000000001
#
# number of rings (size 3 to 8) (size 9 to 14) (size 15 to 20)
#    0.000    2.182    0.909    4.909    0.000    5.818 
#    0.000    1.818    0.000    0.000    0.000    0.000 
#    0.000    0.727    0.000    2.364    0.000    8.909 
#
# Total GULP energy -545231.665807 kJ/mol
# GULP energy per Si atom -12391.628768 kJ/mol
# Density = 2.058959 g / cm^3
# Si number density = 20.636562 Si / 1000 Ang^3
#
#
#
# Elastic Constant Matrix: (Units=GPa)
#
#
# Indices 1 2 3 4 5 6 
#
# 1 81.1187 25.9298 48.5369 0.0000 0.0000 0.0000
# 2 25.9298 112.8312 62.5459 0.0000 0.0000 0.0000
# 3 48.5369 62.5459 165.8272 0.0000 0.0000 0.0000
# 4 0.0000 0.0000 0.0000 34.5672 0.0000 0.0000
# 5 0.0000 0.0000 0.0000 0.0000 8.0193 0.0000
# 6 0.0000 0.0000 0.0000 0.0000 0.0000 19.6421
#
#
#
# Elastic Compliance Matrix: (Units=1/GPa)
#
#
# Indices 1 2 3 4 5 6 
#
# 1 0.015092 -0.001289 -0.003931 0.000000 0.000000 0.000000
# 2 -0.001289 0.011316 -0.003891 0.000000 0.000000 0.000000
# 3 -0.003931 -0.003891 0.008648 0.000000 0.000000 0.000000
# 4 0.000000 0.000000 0.000000 0.028929 0.000000 0.000000
# 5 0.000000 0.000000 0.000000 0.000000 0.124699 0.000000
# 6 0.000000 0.000000 0.000000 0.000000 0.000000 0.050911
#
#
# Mechanical properties :
#
#
# Convention : Reuss Voigt Hill
#
# Bulk Modulus (GPa) = 59.40279 70.42248 64.91264
# Shear Modulus (GPa) = 18.98045 27.29668 23.13856
#
# Velocity S-wave (km/s) = 3.03603 3.64089 3.35213
# Velocity P-wave (km/s) = 6.41386 7.20236 6.81951
#
# Compressibility (1/GPa) = 0.01683423
#
# Stress axis : x y z
#
# Youngs Moduli (GPa) = 66.26098 88.37198 115.62747
#
# Poissons Ratio (x) = 0.11392 0.45454
# Poissons Ratio (y) = 0.08542 0.44987
# Poissons Ratio (z) = 0.26048 0.34383
#
# Static dielectric constant tensor:
#      x y z
#    x 3.363730 0.000000 0.000000 
#    y 0.000000 3.668830 0.000000 
#    z 0.000000 0.000000 4.591030 
# 
# 
# High freq. dielectric constant tensor:
#      x y z
#    x 1.759180 0.000000 0.000000 
#    y 0.000000 1.804550 0.000000 
#    z 0.000000 0.000000 1.830790 
# 
# From -- ./inp_files/45782.got.cif
#   From: 2010.03.12/outbox.cif.g09.slc.cpg/sg67_23_cif.got.tgz:45782.got - 2010.04.10 22:41:39.
