data_PCOD8280653
_publ_section_title
;
Structure prediction by ZEFSAII (Michael W. Deem and Ramdas Pophale) SiO2 
 PCOD8280653
Probable space group: C M M A
;
_chemical_formula_sum "Si O2"
_cell_formula_units_Z 96
_cell_length_a 18.565688
_cell_length_b 8.964012
_cell_length_c 30.750109
_cell_angle_alpha 90.000000
_cell_angle_beta 90.000000
_cell_angle_gamma 90.000000
_cell_volume 5117.526928
_symmetry_space_group_name_H-M "C M M A"
_symmetry_group_IT_number 67
_symmetry_cell_setting 'orthorhombic'
loop_
_space_group_symop_operation_xyz
x,y,z
-x,1/2-y,z
x,-y,-z
-x,1/2+y,-z
-x,-y,-z
x,1/2+y,-z
-x,y,z
x,1/2-y,z
1/2+x,1/2+y,z
1/2-x,-y,z
1/2+x,1/2-y,-z
1/2-x,y,-z
1/2-x,1/2-y,-z
1/2+x,y,-z
1/2-x,1/2+y,z
1/2+x,-y,z
loop_
_atom_site_type_symbol
_atom_site_label
_atom_site_fract_x
_atom_site_fract_y
_atom_site_fract_z
Si Si1 0.583885 0.422976 0.798244
Si Si2 0.917745 0.574130 0.456014
Si Si3 0.082035 0.425520 0.956077
Si Si4 0.672856 0.426427 0.373926
Si Si5 0.672491 0.926871 0.873275
Si Si6 0.083064 0.078221 0.709472
O O1 0.500000 0.452661 0.807388
O O2 0.604018 0.250000 0.803319
O O3 0.629120 0.520530 0.831450
O O4 0.604744 0.475536 0.750018
O O5 0.887748 0.500000 0.500000
O O6 0.911448 0.750000 0.461133
O O7 0.870371 0.515184 0.415926
O O8 0.000000 0.524925 0.447480
O O9 0.087088 0.250000 0.962019
O O10 0.130232 0.481218 0.916107
O O11 0.000000 0.476825 0.947162
O O12 0.112043 0.500000 0.000000
O O13 0.681050 0.250000 0.375449
O O14 0.750000 0.500000 0.373224
O O15 0.629992 0.476629 0.331076
O O16 0.680066 0.750000 0.871707
O O17 0.750000 0.000000 0.873833
O O18 0.098811 0.250000 0.721549
O O19 0.000000 0.056618 0.696541
#
# Coordination Sequence:
#
# PCOD8280653 Si02
#       6
#    16  16  16  16  16  16
#     4  10  21  37  58  84 111 140 178 224 271 320
#     4   9  18  34  55  77 101 132 173 217 258 304
#     4   9  19  36  58  82 107 139 180 224 269 318
#     4  10  21  35  52  76 106 139 173 212 260 314
#     4  11  23  38  56  80 112 148 185 224 269 322
#     4   9  18  35  58  79 101 136 180 221 262 310
#
# _framework density 18.759060999999999
#
# number of rings (size 3 to 8) (size 9 to 14) (size 15 to 20)
#    0.000    2.333    0.000    2.000    0.000    7.667 
#    0.000    6.667    0.000    5.000    0.000    0.000 
#    0.000    0.000    0.000    0.000    0.000    0.000 
#
# Total GULP energy -595367.016625 kJ/mol
# GULP energy per Si atom -12403.479513 kJ/mol
# Density = 1.871636 g / cm^3
# Si number density = 18.759061 Si / 1000 Ang^3
#
#
#
# Elastic Constant Matrix: (Units=GPa)
#
#
# Indices 1 2 3 4 5 6 
#
# 1 110.2406 41.5223 93.1521 0.0000 0.0000 0.0000
# 2 41.5223 49.5695 49.0019 0.0000 0.0000 0.0000
# 3 93.1521 49.0019 164.4158 0.0000 0.0000 0.0000
# 4 0.0000 0.0000 0.0000 34.6377 0.0000 0.0000
# 5 0.0000 0.0000 0.0000 0.0000 6.0214 0.0000
# 6 0.0000 0.0000 0.0000 0.0000 0.0000 37.1768
#
#
#
# Elastic Compliance Matrix: (Units=1/GPa)
#
#
# Indices 1 2 3 4 5 6 
#
# 1 0.019213 -0.007561 -0.008632 0.000000 0.000000 0.000000
# 2 -0.007561 0.031575 -0.005127 0.000000 0.000000 0.000000
# 3 -0.008632 -0.005127 0.012501 0.000000 0.000000 0.000000
# 4 0.000000 0.000000 0.000000 0.028870 0.000000 0.000000
# 5 0.000000 0.000000 0.000000 0.000000 0.166073 0.000000
# 6 0.000000 0.000000 0.000000 0.000000 0.000000 0.026898
#
#
# Mechanical properties :
#
#
# Convention : Reuss Voigt Hill
#
# Bulk Modulus (GPa) = 48.42715 76.84207 62.63461
# Shear Modulus (GPa) = 14.94087 24.93717 19.93902
#
# Velocity S-wave (km/s) = 2.82523 3.64997 3.26375
# Velocity P-wave (km/s) = 6.04268 7.66907 6.90393
#
# Compressibility (1/GPa) = 0.02064957
#
# Stress axis : x y z
#
# Youngs Moduli (GPa) = 52.04921 31.67048 79.99582
#
# Poissons Ratio (x) = 0.23945 0.69051
# Poissons Ratio (y) = 0.39352 0.41014
# Poissons Ratio (z) = 0.44928 0.16237
#
# Static dielectric constant tensor:
#      x y z
#    x 3.458580 0.000000 0.000000 
#    y 0.000000 3.360720 0.000000 
#    z 0.000000 0.000000 3.619880 
# 
# 
# High freq. dielectric constant tensor:
#      x y z
#    x 1.725660 0.000000 0.000000 
#    y 0.000000 1.723490 0.000000 
#    z 0.000000 0.000000 1.742660 
# 
# From -- ./inp_files/44588.got.cif
#   From: 2010.03.12/outbox.cif.g09.slc.cpg/sg67_23_cif.got.tgz:44588.got - 2010.04.10 22:41:39.
