data_PCOD8280107
_publ_section_title
;
Structure prediction by ZEFSAII (Michael W. Deem and Ramdas Pophale) SiO2 
 PCOD8280107
Probable space group: C M M A
;
_chemical_formula_sum "Si O2"
_cell_formula_units_Z 64
_cell_length_a 18.969392
_cell_length_b 10.328483
_cell_length_c 17.972754
_cell_angle_alpha 90.000000
_cell_angle_beta 90.000000
_cell_angle_gamma 90.000000
_cell_volume 3521.312597
_symmetry_space_group_name_H-M "C M M A"
_symmetry_group_IT_number 67
_symmetry_cell_setting 'orthorhombic'
loop_
_space_group_symop_operation_xyz
x,y,z
-x,1/2-y,z
x,-y,-z
-x,1/2+y,-z
-x,-y,-z
x,1/2+y,-z
-x,y,z
x,1/2-y,z
1/2+x,1/2+y,z
1/2-x,-y,z
1/2+x,1/2-y,-z
1/2-x,y,-z
1/2-x,1/2-y,-z
1/2+x,y,-z
1/2-x,1/2+y,z
1/2+x,-y,z
loop_
_atom_site_type_symbol
_atom_site_label
_atom_site_fract_x
_atom_site_fract_y
_atom_site_fract_z
Si Si1 0.807538 0.600610 0.214819
Si Si2 0.583381 0.250000 0.438418
Si Si3 0.175443 0.888246 0.042602
Si Si4 0.916382 0.250000 0.395527
Si Si5 0.583365 0.022696 0.330903
O O1 0.784937 0.750000 0.229307
O O2 0.750000 0.500000 0.247157
O O3 0.815808 0.573111 0.127832
O O4 0.881241 0.568239 0.254356
O O5 0.500000 0.250000 0.444217
O O6 0.616280 0.250000 0.521224
O O7 0.608219 0.120482 0.395927
O O8 0.136093 0.750000 0.036316
O O9 0.250000 0.878604 0.000000
O O10 0.130582 0.000000 0.000000
O O11 0.891129 0.378255 0.352185
O O12 0.000000 0.250000 0.401824
O O13 0.500000 0.029484 0.318187
#
# Coordination Sequence:
#
# PCOD8280107 Si02
#       5
#    16   8  16   8  16
#     4  11  22  34  54  80 109 143 176 217 268 317
#     4   9  16  32  57  79 103 138 182 224 257 307
#     4   9  16  30  49  74  99 129 173 220 253 294
#     4   9  18  32  55  83 105 138 182 222 263 305
#     4  10  20  35  54  82 112 137 175 224 268 316
#
# _framework density 18.175039999999999
#
# number of rings (size 3 to 8) (size 9 to 14) (size 15 to 20)
#    0.000    2.250    3.750    0.750    1.750    3.000 
#    0.000    0.000    0.000    5.250    0.000    0.000 
#    0.000    0.000    0.000    0.000    0.000    0.000 
#
# Total GULP energy -396525.927298 kJ/mol
# GULP energy per Si atom -12391.435228 kJ/mol
# Density = 1.813367 g / cm^3
# Si number density = 18.175040 Si / 1000 Ang^3
#
#
#
# Elastic Constant Matrix: (Units=GPa)
#
#
# Indices 1 2 3 4 5 6 
#
# 1 33.3554 29.5376 34.2855 0.0000 0.0000 0.0000
# 2 29.5376 177.7534 54.0782 0.0000 0.0000 0.0000
# 3 34.2855 54.0782 120.8496 0.0000 0.0000 0.0000
# 4 0.0000 0.0000 0.0000 35.3138 0.0000 0.0000
# 5 0.0000 0.0000 0.0000 0.0000 20.9999 0.0000
# 6 0.0000 0.0000 0.0000 0.0000 0.0000 15.8148
#
#
#
# Elastic Compliance Matrix: (Units=1/GPa)
#
#
# Indices 1 2 3 4 5 6 
#
# 1 0.044811 -0.004143 -0.010859 0.000000 0.000000 0.000000
# 2 -0.004143 0.006895 -0.001910 0.000000 0.000000 0.000000
# 3 -0.010859 -0.001910 0.012210 0.000000 0.000000 0.000000
# 4 0.000000 0.000000 0.000000 0.028318 0.000000 0.000000
# 5 0.000000 0.000000 0.000000 0.000000 0.047619 0.000000
# 6 0.000000 0.000000 0.000000 0.000000 0.000000 0.063232
#
#
# Mechanical properties :
#
#
# Convention : Reuss Voigt Hill
#
# Bulk Modulus (GPa) = 33.23119 63.08458 48.15788
# Shear Modulus (GPa) = 20.24783 28.69617 24.47200
#
# Velocity S-wave (km/s) = 3.34135 3.97782 3.67340
# Velocity P-wave (km/s) = 5.76280 7.47544 6.67428
#
# Compressibility (1/GPa) = 0.03009221
#
# Stress axis : x y z
#
# Youngs Moduli (GPa) = 22.31610 145.02602 81.89756
#
# Poissons Ratio (x) = 0.60078 0.88935
# Poissons Ratio (y) = 0.09245 0.15645
# Poissons Ratio (z) = 0.24234 0.27704
#
# Static dielectric constant tensor:
#      x y z
#    x 2.770870 0.000000 0.000000 
#    y 0.000000 4.805130 0.000000 
#    z 0.000000 0.000000 3.412640 
# 
# 
# High freq. dielectric constant tensor:
#      x y z
#    x 1.630610 0.000000 0.000000 
#    y 0.000000 1.739040 0.000000 
#    z 0.000000 0.000000 1.710240 
# 
# From -- ./inp_files/25777.got.cif
#   From: 2010.03.12/outbox.cif.g09.slc.cpg/sg67_13_cif.got.tgz:25777.got - 2010.04.10 22:41:39.
