data_PCOD8280899
_publ_section_title
;
Structure prediction by ZEFSAII (Michael W. Deem and Ramdas Pophale) SiO2 
 PCOD8280899
Probable space group: C M M A
;
_chemical_formula_sum "Si O2"
_cell_formula_units_Z 96
_cell_length_a 8.683629
_cell_length_b 23.479133
_cell_length_c 25.874464
_cell_angle_alpha 90.000000
_cell_angle_beta 90.000000
_cell_angle_gamma 90.000000
_cell_volume 5275.391294
_symmetry_space_group_name_H-M "C M M A"
_symmetry_group_IT_number 67
_symmetry_cell_setting 'orthorhombic'
loop_
_space_group_symop_operation_xyz
x,y,z
-x,1/2-y,z
x,-y,-z
-x,1/2+y,-z
-x,-y,-z
x,1/2+y,-z
-x,y,z
x,1/2-y,z
1/2+x,1/2+y,z
1/2-x,-y,z
1/2+x,1/2-y,-z
1/2-x,y,-z
1/2-x,1/2-y,-z
1/2+x,y,-z
1/2-x,1/2+y,z
1/2+x,-y,z
loop_
_atom_site_type_symbol
_atom_site_label
_atom_site_fract_x
_atom_site_fract_y
_atom_site_fract_z
Si Si1 0.179593 0.560851 0.144421
Si Si2 0.320990 0.750000 0.206732
Si Si3 0.320328 0.562332 0.549842
Si Si4 0.179236 0.638371 0.243604
Si Si5 0.319570 0.938024 0.663074
Si Si6 0.818066 0.250000 0.904941
Si Si7 0.182472 0.866514 0.945511
O O1 0.250000 0.500000 0.158132
O O2 0.208260 0.600918 0.193158
O O3 0.268156 0.586635 0.095853
O O4 0.000000 0.555448 0.131174
O O5 0.500000 0.750000 0.191457
O O6 0.280406 0.695051 0.240565
O O7 0.218381 0.750000 0.155475
O O8 0.500000 0.558446 0.541209
O O9 0.250000 0.500000 0.550143
O O10 0.250000 0.596417 0.500000
O O11 0.280495 0.588807 0.606233
O O12 0.243061 0.604866 0.293585
O O13 0.000000 0.654420 0.249440
O O14 0.500000 0.946072 0.670043
O O15 0.250000 0.000000 0.671438
O O16 0.749086 0.305030 0.931977
O O17 0.000000 0.250000 0.912484
O O18 0.000000 0.862669 0.948024
O O19 0.250000 0.886868 0.000000
#
# Coordination Sequence:
#
# PCOD8280899 Si02
#       7
#    16   8  16  16  16   8  16
#     4  11  23  39  60  84 112 147 183 220 268 324
#     4  12  24  37  59  86 109 139 179 221 269 319
#     4   9  15  24  40  65 100 139 182 220 262 310
#     4  10  21  38  58  79 109 144 179 220 272 324
#     4   9  18  31  49  76 108 146 183 221 265 318
#     4  12  23  41  64  88 115 143 177 221 274 323
#     4  12  25  42  63  88 115 144 182 224 270 323
#
# _framework density 18.197700999999999
#
# number of rings (size 3 to 8) (size 9 to 14) (size 15 to 20)
#    0.000    1.500    1.667    5.250    0.000    2.333 
#    0.000    1.667    0.000    0.000    0.000    0.583 
#    0.000    0.000    0.000    0.000    0.000    0.000 
#
# Total GULP energy -595167.266965 kJ/mol
# GULP energy per Si atom -12399.318062 kJ/mol
# Density = 1.815628 g / cm^3
# Si number density = 18.197701 Si / 1000 Ang^3
#
#
#
# Elastic Constant Matrix: (Units=GPa)
#
#
# Indices 1 2 3 4 5 6 
#
# 1 113.5421 41.8904 50.9793 0.0000 0.0000 0.0000
# 2 41.8904 88.5453 38.2410 0.0000 0.0000 0.0000
# 3 50.9793 38.2410 145.8990 0.0000 0.0000 0.0000
# 4 0.0000 0.0000 0.0000 26.0960 0.0000 0.0000
# 5 0.0000 0.0000 0.0000 0.0000 15.2092 0.0000
# 6 0.0000 0.0000 0.0000 0.0000 0.0000 26.8872
#
#
#
# Elastic Compliance Matrix: (Units=1/GPa)
#
#
# Indices 1 2 3 4 5 6 
#
# 1 0.011715 -0.004256 -0.002978 0.000000 0.000000 0.000000
# 2 -0.004256 0.014282 -0.002256 0.000000 0.000000 0.000000
# 3 -0.002978 -0.002256 0.008486 0.000000 0.000000 0.000000
# 4 0.000000 0.000000 0.000000 0.038320 0.000000 0.000000
# 5 0.000000 0.000000 0.000000 0.000000 0.065749 0.000000
# 6 0.000000 0.000000 0.000000 0.000000 0.000000 0.037192
#
#
# Mechanical properties :
#
#
# Convention : Reuss Voigt Hill
#
# Bulk Modulus (GPa) = 64.50733 67.80087 66.15410
# Shear Modulus (GPa) = 25.01362 28.09686 26.55524
#
# Velocity S-wave (km/s) = 3.71151 3.93361 3.82417
# Velocity P-wave (km/s) = 7.34112 7.61380 7.47870
#
# Compressibility (1/GPa) = 0.01550211
#
# Stress axis : x y z
#
# Youngs Moduli (GPa) = 85.36428 70.02035 117.84319
#
# Poissons Ratio (x) = 0.29801 0.35090
# Poissons Ratio (y) = 0.36332 0.26587
# Poissons Ratio (z) = 0.25419 0.15798
#
# Static dielectric constant tensor:
#      x y z
#    x 3.460360 0.000000 0.000000 
#    y 0.000000 3.218580 0.000000 
#    z 0.000000 0.000000 4.243790 
# 
# 
# High freq. dielectric constant tensor:
#      x y z
#    x 1.716470 0.000000 0.000000 
#    y 0.000000 1.675770 0.000000 
#    z 0.000000 0.000000 1.721990 
# 
# From -- ./inp_files/43696.got.cif
#   From: 2010.03.12/outbox.cif.g09.slc.cpg/sg67_22_cif.got.tgz:43696.got - 2010.04.10 22:41:39.
