data_PCOD8280304
_publ_section_title
;
Structure prediction by ZEFSAII (Michael W. Deem and Ramdas Pophale) SiO2 
 PCOD8280304
Probable space group: C M M A
;
_chemical_formula_sum "Si O2"
_cell_formula_units_Z 52
_cell_length_a 12.658786
_cell_length_b 13.725501
_cell_length_c 15.352891
_cell_angle_alpha 90.000000
_cell_angle_beta 90.000000
_cell_angle_gamma 90.000000
_cell_volume 2667.536867
_symmetry_space_group_name_H-M "C M M A"
_symmetry_group_IT_number 67
_symmetry_cell_setting 'orthorhombic'
loop_
_space_group_symop_operation_xyz
x,y,z
-x,1/2-y,z
x,-y,-z
-x,1/2+y,-z
-x,-y,-z
x,1/2+y,-z
-x,y,z
x,1/2-y,z
1/2+x,1/2+y,z
1/2-x,-y,z
1/2+x,1/2-y,-z
1/2-x,y,-z
1/2-x,1/2-y,-z
1/2+x,y,-z
1/2-x,1/2+y,z
1/2+x,-y,z
loop_
_atom_site_type_symbol
_atom_site_label
_atom_site_fract_x
_atom_site_fract_y
_atom_site_fract_z
Si Si1 0.250000 0.000000 0.000000
Si Si2 0.122726 0.860256 0.875223
Si Si3 0.804391 0.140062 0.315834
Si Si4 0.384421 0.032528 0.405621
O O1 0.172218 0.933403 0.944090
O O2 0.129496 0.750000 0.911693
O O3 0.193724 0.867974 0.788338
O O4 0.000000 0.887467 0.856914
O O5 0.828564 0.250000 0.346220
O O6 0.691709 0.107510 0.355973
O O7 0.893684 0.068081 0.351792
O O8 0.500000 0.081069 0.411788
O O9 0.341329 0.000000 0.500000
#
# Coordination Sequence:
#
# PCOD8280304 Si02
#       4
#     4  16  16  16
#     4  12  20  36  64  84 106 144 180 220 276 332
#     4  10  22  38  56  82 112 141 179 225 273 328
#     4  10  20  36  56  76 105 144 181 218 265 322
#     4  10  21  35  52  79 111 140 179 228 269 311
#
# _framework density 19.493639000000002
#
# number of rings (size 3 to 8) (size 9 to 14) (size 15 to 20)
#    0.000    1.846    0.000    5.538    0.000    4.923 
#    0.000    4.615    0.000    3.692    0.000    0.000 
#    0.000    0.000    0.000    0.000    0.000    0.000 
#
# Total GULP energy -322193.316213 kJ/mol
# GULP energy per Si atom -12392.050624 kJ/mol
# Density = 1.944927 g / cm^3
# Si number density = 19.493639 Si / 1000 Ang^3
#
#
#
# Elastic Constant Matrix: (Units=GPa)
#
#
# Indices 1 2 3 4 5 6 
#
# 1 113.6428 6.4659 34.2642 0.0000 0.0000 0.0000
# 2 6.4659 99.8624 48.6408 0.0000 0.0000 0.0000
# 3 34.2642 48.6408 103.1435 0.0000 0.0000 0.0000
# 4 0.0000 0.0000 0.0000 -6.0398 0.0000 0.0000
# 5 0.0000 0.0000 0.0000 0.0000 27.5801 0.0000
# 6 0.0000 0.0000 0.0000 0.0000 0.0000 20.6368
#
#
#
# Elastic Compliance Matrix: (Units=1/GPa)
#
#
# Indices 1 2 3 4 5 6 
#
# 1 0.009897 0.001247 -0.003876 0.000000 0.000000 0.000000
# 2 0.001247 0.013157 -0.006619 0.000000 0.000000 0.000000
# 3 -0.003876 -0.006619 0.014104 0.000000 0.000000 0.000000
# 4 0.000000 0.000000 0.000000 -0.165570 0.000000 0.000000
# 5 0.000000 0.000000 0.000000 0.000000 0.036258 0.000000
# 6 0.000000 0.000000 0.000000 0.000000 0.000000 0.048457
#
#
# Mechanical properties :
#
#
# Convention : Reuss Voigt Hill
#
# Bulk Modulus (GPa) = 53.58254 55.04338 54.31296
# Shear Modulus (GPa) = -263.43870 23.58727 -119.92571
#
# Velocity S-wave (km/s) = -11.63762 3.48228 -7.85201
# Velocity P-wave (km/s) = 12.37061 6.66830 7.36770
#
# Compressibility (1/GPa) = 0.01866279
#
# Stress axis : x y z
#
# Youngs Moduli (GPa) = 101.03899 76.00551 70.90106
#
# Poissons Ratio (x) = -0.09478 0.27481
# Poissons Ratio (y) = -0.12600 0.46928
# Poissons Ratio (z) = 0.39162 0.50307
#
# Static dielectric constant tensor:
#      x y z
#    x 3.438540 0.000000 0.000000 
#    y 0.000000 3.611340 0.000000 
#    z 0.000000 0.000000 3.557880 
# 
# 
# High freq. dielectric constant tensor:
#      x y z
#    x 1.764420 0.000000 0.000000 
#    y 0.000000 1.758820 0.000000 
#    z 0.000000 0.000000 1.761450 
# 
# From -- ./inp_files/17222.got.cif
#   From: 2010.03.12/outbox.cif.g09.slc.cpg/sg67_9_cif.got.tgz:17222.got - 2010.04.10 22:41:39.
