data_PCOD8280724
_publ_section_title
;
Structure prediction by ZEFSAII (Michael W. Deem and Ramdas Pophale) SiO2 
 PCOD8280724
Probable space group: C M M A
;
_chemical_formula_sum "Si O2"
_cell_formula_units_Z 88
_cell_length_a 21.932149
_cell_length_b 9.727163
_cell_length_c 22.560381
_cell_angle_alpha 90.000000
_cell_angle_beta 90.000000
_cell_angle_gamma 90.000000
_cell_volume 4812.977273
_symmetry_space_group_name_H-M "C M M A"
_symmetry_group_IT_number 67
_symmetry_cell_setting 'orthorhombic'
loop_
_space_group_symop_operation_xyz
x,y,z
-x,1/2-y,z
x,-y,-z
-x,1/2+y,-z
-x,-y,-z
x,1/2+y,-z
-x,y,z
x,1/2-y,z
1/2+x,1/2+y,z
1/2-x,-y,z
1/2+x,1/2-y,-z
1/2-x,y,-z
1/2-x,1/2-y,-z
1/2+x,y,-z
1/2-x,1/2+y,z
1/2+x,-y,z
loop_
_atom_site_type_symbol
_atom_site_label
_atom_site_fract_x
_atom_site_fract_y
_atom_site_fract_z
Si Si1 0.250000 0.500000 0.657085
Si Si2 0.431172 0.593213 0.622826
Si Si3 0.570865 0.588593 0.816329
Si Si4 0.571781 0.099422 0.049355
Si Si5 0.679752 0.601561 0.549831
Si Si6 0.370063 0.088763 0.718837
O O1 0.283602 0.604425 0.612154
O O2 0.299444 0.425989 0.699055
O O3 0.500000 0.570848 0.602482
O O4 0.420747 0.750000 0.646891
O O5 0.390246 0.566266 0.564846
O O6 0.415264 0.481138 0.672069
O O7 0.500000 0.558757 0.800100
O O8 0.584788 0.750000 0.805069
O O9 0.584595 0.547391 0.884191
O O10 0.616861 0.491743 0.779804
O O11 0.500000 0.109425 0.039218
O O12 0.600972 0.250000 0.040373
O O13 0.601634 0.000000 0.000000
O O14 0.705465 0.500000 0.500000
O O15 0.685541 0.750000 0.519997
O O16 0.385552 0.250000 0.725512
#
# Coordination Sequence:
#
# PCOD8280724 Si02
#       6
#     8  16  16  16  16  16
#     4  10  23  40  54  68  97 130 162 202 256 308
#     4   9  19  36  54  72 101 139 166 188 237 305
#     4   9  18  32  49  72 106 144 172 197 244 306
#     4   8  14  25  42  66  98 136 173 204 237 282
#     4  10  21  36  55  76  97 124 159 199 244 296
#     4  11  22  34  52  77  99 125 168 217 254 287
#
# _framework density 18.283902000000001
#
# number of rings (size 3 to 8) (size 9 to 14) (size 15 to 20)
#    0.000    2.545    0.000    3.000    0.000   10.545 
#    0.000    1.818    0.000    0.000    0.000    0.636 
#    0.000    4.364    0.000    0.000    0.000    0.000 
#
# Total GULP energy -545248.618319 kJ/mol
# GULP energy per Si atom -12392.014053 kJ/mol
# Density = 1.824229 g / cm^3
# Si number density = 18.283902 Si / 1000 Ang^3
#
#
#
# Elastic Constant Matrix: (Units=GPa)
#
#
# Indices 1 2 3 4 5 6 
#
# 1 98.0936 37.5033 44.2289 0.0000 0.0000 0.0000
# 2 37.5033 123.3072 70.1108 0.0000 0.0000 0.0000
# 3 44.2289 70.1108 112.9465 0.0000 0.0000 0.0000
# 4 0.0000 0.0000 0.0000 30.0256 0.0000 0.0000
# 5 0.0000 0.0000 0.0000 0.0000 19.2317 0.0000
# 6 0.0000 0.0000 0.0000 0.0000 0.0000 9.3541
#
#
#
# Elastic Compliance Matrix: (Units=1/GPa)
#
#
# Indices 1 2 3 4 5 6 
#
# 1 0.012577 -0.001584 -0.003942 0.000000 0.000000 0.000000
# 2 -0.001584 0.012733 -0.007284 0.000000 0.000000 0.000000
# 3 -0.003942 -0.007284 0.014919 0.000000 0.000000 0.000000
# 4 0.000000 0.000000 0.000000 0.033305 0.000000 0.000000
# 5 0.000000 0.000000 0.000000 0.000000 0.051998 0.000000
# 6 0.000000 0.000000 0.000000 0.000000 0.000000 0.106905
#
#
# Mechanical properties :
#
#
# Convention : Reuss Voigt Hill
#
# Bulk Modulus (GPa) = 68.44714 70.89261 69.66987
# Shear Modulus (GPa) = 19.01680 23.88922 21.45301
#
# Velocity S-wave (km/s) = 3.22853 3.61857 3.42910
# Velocity P-wave (km/s) = 7.17042 7.50441 7.33931
#
# Compressibility (1/GPa) = 0.01460981
#
# Stress axis : x y z
#
# Youngs Moduli (GPa) = 79.50839 78.53630 67.03029
#
# Poissons Ratio (x) = 0.12440 0.26423
# Poissons Ratio (y) = 0.12594 0.48822
# Poissons Ratio (z) = 0.31341 0.57203
#
# Static dielectric constant tensor:
#      x y z
#    x 3.270730 0.000000 0.000000 
#    y 0.000000 3.494510 0.000000 
#    z 0.000000 0.000000 3.321040 
# 
# 
# High freq. dielectric constant tensor:
#      x y z
#    x 1.686940 0.000000 0.000000 
#    y 0.000000 1.708750 0.000000 
#    z 0.000000 0.000000 1.699010 
# 
# From -- ./inp_files/40656.got.cif
#   From: 2010.03.12/outbox.cif.g09.slc.cpg/sg67_21_cif.got.tgz:40656.got - 2010.04.10 22:41:39.
