data_PCOD8280714
_publ_section_title
;
Structure prediction by ZEFSAII (Michael W. Deem and Ramdas Pophale) SiO2 
 PCOD8280714
Probable space group: C M M A
;
_chemical_formula_sum "Si O2"
_cell_formula_units_Z 80
_cell_length_a 18.066196
_cell_length_b 9.163081
_cell_length_c 25.600980
_cell_angle_alpha 90.000000
_cell_angle_beta 90.000000
_cell_angle_gamma 90.000000
_cell_volume 4238.037874
_symmetry_space_group_name_H-M "C M M A"
_symmetry_group_IT_number 67
_symmetry_cell_setting 'orthorhombic'
loop_
_space_group_symop_operation_xyz
x,y,z
-x,1/2-y,z
x,-y,-z
-x,1/2+y,-z
-x,-y,-z
x,1/2+y,-z
-x,y,z
x,1/2-y,z
1/2+x,1/2+y,z
1/2-x,-y,z
1/2+x,1/2-y,-z
1/2-x,y,-z
1/2-x,1/2-y,-z
1/2+x,y,-z
1/2-x,1/2+y,z
1/2+x,-y,z
loop_
_atom_site_type_symbol
_atom_site_label
_atom_site_fract_x
_atom_site_fract_y
_atom_site_fract_z
Si Si1 0.415096 0.421551 0.051884
Si Si2 0.673203 0.579444 0.847268
Si Si3 0.586709 0.082851 0.256843
Si Si4 0.084456 0.420815 0.448221
Si Si5 0.328107 0.077216 0.654310
O O1 0.500000 0.465283 0.062753
O O2 0.406834 0.250000 0.043833
O O3 0.366725 0.477775 0.100446
O O4 0.384947 0.500000 0.000000
O O5 0.688874 0.750000 0.851260
O O6 0.750000 0.500000 0.838877
O O7 0.620779 0.541888 0.798848
O O8 0.500000 0.056620 0.252652
O O9 0.605241 0.250000 0.272147
O O10 0.618519 0.974109 0.299773
O O11 0.114264 0.500000 0.500000
O O12 0.090125 0.250000 0.458226
O O13 0.135385 0.470453 0.400319
O O14 0.000000 0.467786 0.436029
O O15 0.317688 0.250000 0.658100
O O16 0.250000 0.000000 0.660372
#
# Coordination Sequence:
#
# PCOD8280714 Si02
#       5
#    16  16  16  16  16
#     4   9  18  34  55  77 103 137 177 220 264 312
#     4  10  21  36  54  78 109 142 176 218 267 318
#     4  10  21  38  60  83 107 140 182 224 270 326
#     4   9  19  36  57  80 107 141 181 224 269 318
#     4  11  23  38  56  81 114 147 181 224 273 322
#
# _framework density 18.876660999999999
#
# number of rings (size 3 to 8) (size 9 to 14) (size 15 to 20)
#    0.000    2.200    0.000    2.400    0.000    9.200 
#    0.000    6.000    0.000    3.600    0.000    0.000 
#    0.000    0.000    0.000    0.000    0.000    0.000 
#
# Total GULP energy -496161.403573 kJ/mol
# GULP energy per Si atom -12404.035089 kJ/mol
# Density = 1.883370 g / cm^3
# Si number density = 18.876661 Si / 1000 Ang^3
#
#
#
# Elastic Constant Matrix: (Units=GPa)
#
#
# Indices 1 2 3 4 5 6 
#
# 1 116.3463 43.5783 72.4201 0.0000 0.0000 0.0000
# 2 43.5783 52.4322 58.5145 0.0000 0.0000 0.0000
# 3 72.4201 58.5145 155.9896 0.0000 0.0000 0.0000
# 4 0.0000 0.0000 0.0000 35.9214 0.0000 0.0000
# 5 0.0000 0.0000 0.0000 0.0000 486.6585 0.0000
# 6 0.0000 0.0000 0.0000 0.0000 0.0000 25.0712
#
#
#
# Elastic Compliance Matrix: (Units=1/GPa)
#
#
# Indices 1 2 3 4 5 6 
#
# 1 0.013534 -0.007287 -0.003550 0.000000 0.000000 0.000000
# 2 -0.007287 0.036729 -0.010395 0.000000 0.000000 0.000000
# 3 -0.003550 -0.010395 0.011958 0.000000 0.000000 0.000000
# 4 0.000000 0.000000 0.000000 0.027839 0.000000 0.000000
# 5 0.000000 0.000000 0.000000 0.000000 0.002055 0.000000
# 6 0.000000 0.000000 0.000000 0.000000 0.000000 0.039886
#
#
# Mechanical properties :
#
#
# Convention : Reuss Voigt Hill
#
# Bulk Modulus (GPa) = 50.61199 74.86600 62.73900
# Shear Modulus (GPa) = 27.61662 119.54723 73.58192
#
# Velocity S-wave (km/s) = 3.82907 7.96669 6.25020
# Velocity P-wave (km/s) = 6.81316 11.15217 9.24095
#
# Compressibility (1/GPa) = 0.01975816
#
# Stress axis : x y z
#
# Youngs Moduli (GPa) = 73.88778 27.22622 83.62595
#
# Poissons Ratio (x) = 0.19840 0.29686
# Poissons Ratio (y) = 0.53842 0.86927
# Poissons Ratio (z) = 0.26229 0.28301
#
# Static dielectric constant tensor:
#      x y z
#    x 3.487420 0.000000 0.000000 
#    y 0.000000 3.385160 0.000000 
#    z 0.000000 0.000000 3.657970 
# 
# 
# High freq. dielectric constant tensor:
#      x y z
#    x 1.738180 0.000000 0.000000 
#    y 0.000000 1.726470 0.000000 
#    z 0.000000 0.000000 1.748000 
# 
# From -- ./inp_files/43243.got.cif
#   From: 2010.03.12/outbox.cif.g09.slc.cpg/sg67_22_cif.got.tgz:43243.got - 2010.04.10 22:41:39.
