data_PCOD8280062
_publ_section_title
;
Structure prediction by ZEFSAII (Michael W. Deem and Ramdas Pophale) SiO2 
 PCOD8280062
Probable space group: C M M A
;
_chemical_formula_sum "Si O2"
_cell_formula_units_Z 104
_cell_length_a 8.905396
_cell_length_b 30.309619
_cell_length_c 23.062192
_cell_angle_alpha 90.000000
_cell_angle_beta 90.000000
_cell_angle_gamma 90.000000
_cell_volume 6224.927488
_symmetry_space_group_name_H-M "C M M A"
_symmetry_group_IT_number 67
_symmetry_cell_setting 'orthorhombic'
loop_
_space_group_symop_operation_xyz
x,y,z
-x,1/2-y,z
x,-y,-z
-x,1/2+y,-z
-x,-y,-z
x,1/2+y,-z
-x,y,z
x,1/2-y,z
1/2+x,1/2+y,z
1/2-x,-y,z
1/2+x,1/2-y,-z
1/2-x,y,-z
1/2-x,1/2-y,-z
1/2+x,y,-z
1/2-x,1/2+y,z
1/2+x,-y,z
loop_
_atom_site_type_symbol
_atom_site_label
_atom_site_fract_x
_atom_site_fract_y
_atom_site_fract_z
Si Si1 0.826099 0.137485 0.220292
Si Si2 0.175585 0.199846 0.326357
Si Si3 0.679169 0.420090 0.942051
Si Si4 0.177122 0.163615 0.894315
Si Si5 0.678259 0.750000 0.062320
Si Si6 0.832362 0.197574 0.556443
Si Si7 0.171275 0.456621 0.181242
O O1 0.780207 0.164378 0.277473
O O2 0.708683 0.151634 0.171921
O O3 0.805639 0.084353 0.225819
O O4 0.000000 0.147553 0.202649
O O5 0.228307 0.250000 0.309801
O O6 0.251533 0.182392 0.384892
O O7 0.000000 0.200036 0.337709
O O8 0.500000 0.416907 0.946852
O O9 0.751487 0.371550 0.938389
O O10 0.730492 0.445859 0.883983
O O11 0.750000 0.442710 0.000000
O O12 0.263994 0.208629 0.902533
O O13 0.000000 0.167935 0.905945
O O14 0.500000 0.750000 0.057845
O O15 0.750000 0.750000 0.000000
O O16 0.831914 0.250000 0.552769
O O17 0.750000 0.177640 0.500000
O O18 0.000000 0.178550 0.557188
O O19 0.250000 0.500000 0.206723
O O20 0.000000 0.469328 0.175717
#
# Coordination Sequence:
#
# PCOD8280062 Si02
#       7
#    16  16  16  16   8  16  16
#     4   9  19  35  51  71  97 127 160 196 239 286
#     4   9  17  29  47  70  96 130 167 198 234 279
#     4  10  20  35  52  71  93 118 146 184 234 293
#     4  11  22  35  50  70  92 119 154 194 237 282
#     4  12  24  38  52  66  88 118 155 196 237 282
#     4   9  16  26  41  63  94 131 168 204 237 269
#     4   9  19  34  51  70  94 121 154 193 238 290
#
# _framework density 16.707021999999998
#
# number of rings (size 3 to 8) (size 9 to 14) (size 15 to 20)
#    0.000    2.308    0.000    4.385    1.077    5.846 
#    0.000    1.538    0.000    0.000    0.000    0.000 
#    0.000    0.615    0.000    7.077    0.000    2.462 
#
# Total GULP energy -644575.501472 kJ/mol
# GULP energy per Si atom -12395.682721 kJ/mol
# Density = 1.666900 g / cm^3
# Si number density = 16.707022 Si / 1000 Ang^3
#
#
#
# Elastic Constant Matrix: (Units=GPa)
#
#
# Indices 1 2 3 4 5 6 
#
# 1 81.5990 30.1244 33.7836 0.0000 0.0000 0.0000
# 2 30.1244 86.6676 34.2504 0.0000 0.0000 0.0000
# 3 33.7836 34.2504 98.9087 0.0000 0.0000 0.0000
# 4 0.0000 0.0000 0.0000 12.9401 0.0000 0.0000
# 5 0.0000 0.0000 0.0000 0.0000 28.6202 0.0000
# 6 0.0000 0.0000 0.0000 0.0000 0.0000 23.6877
#
#
#
# Elastic Compliance Matrix: (Units=1/GPa)
#
#
# Indices 1 2 3 4 5 6 
#
# 1 0.015262 -0.003759 -0.003911 0.000000 0.000000 0.000000
# 2 -0.003759 0.014294 -0.003666 0.000000 0.000000 0.000000
# 3 -0.003911 -0.003666 0.012716 0.000000 0.000000 0.000000
# 4 0.000000 0.000000 0.000000 0.077279 0.000000 0.000000
# 5 0.000000 0.000000 0.000000 0.000000 0.034940 0.000000
# 6 0.000000 0.000000 0.000000 0.000000 0.000000 0.042216
#
#
# Mechanical properties :
#
#
# Convention : Reuss Voigt Hill
#
# Bulk Modulus (GPa) = 51.02239 51.49912 51.26076
# Shear Modulus (GPa) = 22.13246 24.31737 23.22492
#
# Velocity S-wave (km/s) = 3.64365 3.81926 3.73249
# Velocity P-wave (km/s) = 6.95035 7.09512 7.02311
#
# Compressibility (1/GPa) = 0.01959924
#
# Stress axis : x y z
#
# Youngs Moduli (GPa) = 65.52140 69.96126 78.64345
#
# Poissons Ratio (x) = 0.26300 0.30759
# Poissons Ratio (y) = 0.24631 0.28828
# Poissons Ratio (z) = 0.25627 0.25645
#
# Static dielectric constant tensor:
#      x y z
#    x 3.177740 0.000000 0.000000 
#    y 0.000000 4.899750 0.000000 
#    z 0.000000 0.000000 3.062300 
# 
# 
# High freq. dielectric constant tensor:
#      x y z
#    x 1.652360 0.000000 0.000000 
#    y 0.000000 1.618910 0.000000 
#    z 0.000000 0.000000 1.625210 
# 
# From -- ./inp_files/41150.got.cif
#   From: 2010.03.12/outbox.cif.g09.slc.cpg/sg67_21_cif.got.tgz:41150.got - 2010.04.10 22:41:39.
