data_PCOD8280626
_publ_section_title
;
Structure prediction by ZEFSAII (Michael W. Deem and Ramdas Pophale) SiO2 
 PCOD8280626
Probable space group: C M M A
;
_chemical_formula_sum "Si O2"
_cell_formula_units_Z 112
_cell_length_a 13.977419
_cell_length_b 14.909387
_cell_length_c 25.117606
_cell_angle_alpha 90.000000
_cell_angle_beta 90.000000
_cell_angle_gamma 90.000000
_cell_volume 5234.377201
_symmetry_space_group_name_H-M "C M M A"
_symmetry_group_IT_number 67
_symmetry_cell_setting 'orthorhombic'
loop_
_space_group_symop_operation_xyz
x,y,z
-x,1/2-y,z
x,-y,-z
-x,1/2+y,-z
-x,-y,-z
x,1/2+y,-z
-x,y,z
x,1/2-y,z
1/2+x,1/2+y,z
1/2-x,-y,z
1/2+x,1/2-y,-z
1/2-x,y,-z
1/2-x,1/2-y,-z
1/2+x,y,-z
1/2-x,1/2+y,z
1/2+x,-y,z
loop_
_atom_site_type_symbol
_atom_site_label
_atom_site_fract_x
_atom_site_fract_y
_atom_site_fract_z
Si Si1 0.386110 0.848620 0.924923
Si Si2 0.886931 0.649164 0.956951
Si Si3 0.771772 0.358446 0.702332
Si Si4 0.265658 0.349732 0.418108
Si Si5 0.112958 0.019782 0.132495
Si Si6 0.386367 0.519883 0.253338
Si Si7 0.602234 0.399431 0.511132
O O1 0.500000 0.846637 0.926737
O O2 0.347508 0.750000 0.908878
O O3 0.348769 0.920442 0.882029
O O4 0.348128 0.875551 0.984002
O O5 0.857510 0.750000 0.942750
O O6 0.840659 0.588452 0.910308
O O7 0.000000 0.636678 0.957008
O O8 0.776584 0.250000 0.715332
O O9 0.796524 0.378917 0.640744
O O10 0.666686 0.401061 0.713686
O O11 0.850424 0.418249 0.733772
O O12 0.225256 0.250000 0.415880
O O13 0.353989 0.353097 0.458796
O O14 0.175104 0.405049 0.439385
O O15 0.142684 0.041673 0.192508
O O16 0.000000 0.023409 0.127104
O O17 0.500000 0.525280 0.263670
O O18 0.577685 0.500000 0.500000
O O19 0.500000 0.351764 0.524705
#
# Coordination Sequence:
#
# PCOD8280626 Si02
#       7
#    16  16  16  16  16  16  16
#     4   8  13  21  36  63 101 141 177 220 282 355
#     4   8  13  21  36  63 101 141 177 220 282 355
#     4  10  24  44  64  88 121 163 209 257 307 356
#     4  10  21  38  59  82 117 159 194 237 288 344
#     4   9  16  27  44  71 104 142 185 236 294 350
#     4  10  23  40  62  89 118 156 207 262 312 361
#     4  10  21  34  57  93 124 154 189 229 284 347
#
# _framework density 21.397006000000001
#
# number of rings (size 3 to 8) (size 9 to 14) (size 15 to 20)
#    0.000    2.714    0.000    3.000    4.000    5.714 
#    0.000    5.714    0.000    0.000    0.000    8.000 
#    0.000   13.714    0.000    1.143    0.000    0.000 
#
# Total GULP energy -693743.147203 kJ/mol
# GULP energy per Si atom -12388.270486 kJ/mol
# Density = 2.134831 g / cm^3
# Si number density = 21.397006 Si / 1000 Ang^3
#
#
#
# Elastic Constant Matrix: (Units=GPa)
#
#
# Indices 1 2 3 4 5 6 
#
# 1 65.1367 -12.7381 -10.5564 0.0000 0.0000 0.0000
# 2 -12.7381 88.8203 23.8773 0.0000 0.0000 0.0000
# 3 -10.5564 23.8773 88.9266 0.0000 0.0000 0.0000
# 4 0.0000 0.0000 0.0000 31.0518 0.0000 0.0000
# 5 0.0000 0.0000 0.0000 0.0000 56.3082 0.0000
# 6 0.0000 0.0000 0.0000 0.0000 0.0000 -487.2054
#
#
#
# Elastic Compliance Matrix: (Units=1/GPa)
#
#
# Indices 1 2 3 4 5 6 
#
# 1 0.015951 0.001917 0.001379 0.000000 0.000000 0.000000
# 2 0.001917 0.012365 -0.003093 0.000000 0.000000 0.000000
# 3 0.001379 -0.003093 0.012239 0.000000 0.000000 0.000000
# 4 0.000000 0.000000 0.000000 0.032204 0.000000 0.000000
# 5 0.000000 0.000000 0.000000 0.000000 0.017759 0.000000
# 6 0.000000 0.000000 0.000000 0.000000 0.000000 -0.002053
#
#
# Mechanical properties :
#
#
# Convention : Reuss Voigt Hill
#
# Bulk Modulus (GPa) = 24.41335 27.11659 25.76497
# Shear Modulus (GPa) = 49.15773 -63.81571 -7.32899
#
# Velocity S-wave (km/s) = 4.79833 -5.46711 -1.85275
# Velocity P-wave (km/s) = 6.49100 5.21075 2.73690
#
# Compressibility (1/GPa) = 0.04096120
#
# Stress axis : x y z
#
# Youngs Moduli (GPa) = 62.69337 80.87377 81.70423
#
# Poissons Ratio (x) = -0.15503 -0.11265
# Poissons Ratio (y) = -0.12018 0.25267
# Poissons Ratio (z) = -0.08644 0.25010
#
# Static dielectric constant tensor:
#      x y z
#    x 3.710900 0.000000 0.000000 
#    y 0.000000 4.126820 0.000000 
#    z 0.000000 0.000000 4.039650 
# 
# 
# High freq. dielectric constant tensor:
#      x y z
#    x 1.835350 0.000000 0.000000 
#    y 0.000000 1.843280 0.000000 
#    z 0.000000 0.000000 1.830980 
# 
# From -- ./inp_files/42020.got.cif
#   From: 2010.03.12/outbox.cif.g09.slc.cpg/sg67_22_cif.got.tgz:42020.got - 2010.04.10 22:41:39.
