data_PCOD8280069
_publ_section_title
;
Structure prediction by ZEFSAII (Michael W. Deem and Ramdas Pophale) SiO2 
 PCOD8280069
Probable space group: C M M A
;
_chemical_formula_sum "Si O2"
_cell_formula_units_Z 104
_cell_length_a 9.752033
_cell_length_b 31.256188
_cell_length_c 19.499522
_cell_angle_alpha 90.000000
_cell_angle_beta 90.000000
_cell_angle_gamma 90.000000
_cell_volume 5943.676148
_symmetry_space_group_name_H-M "C M M A"
_symmetry_group_IT_number 67
_symmetry_cell_setting 'orthorhombic'
loop_
_space_group_symop_operation_xyz
x,y,z
-x,1/2-y,z
x,-y,-z
-x,1/2+y,-z
-x,-y,-z
x,1/2+y,-z
-x,y,z
x,1/2-y,z
1/2+x,1/2+y,z
1/2-x,-y,z
1/2+x,1/2-y,-z
1/2-x,y,-z
1/2-x,1/2-y,-z
1/2+x,y,-z
1/2-x,1/2+y,z
1/2+x,-y,z
loop_
_atom_site_type_symbol
_atom_site_label
_atom_site_fract_x
_atom_site_fract_y
_atom_site_fract_z
Si Si1 0.337221 0.203094 0.791293
Si Si2 0.162355 0.376568 0.291451
Si Si3 0.657850 0.343344 0.567152
Si Si4 0.157408 0.672229 0.938062
Si Si5 0.652015 0.250000 0.562572
Si Si6 0.661445 0.540165 0.211293
Si Si7 0.843975 0.427712 0.061706
O O1 0.500000 0.201168 0.784785
O O2 0.284081 0.250000 0.766763
O O3 0.271734 0.164950 0.746029
O O4 0.294837 0.196887 0.870281
O O5 0.202502 0.375696 0.372266
O O6 0.215471 0.419998 0.256726
O O7 0.000000 0.374234 0.282452
O O8 0.500000 0.351063 0.545559
O O9 0.750000 0.350768 0.500000
O O10 0.674989 0.295316 0.601394
O O11 0.181301 0.622139 0.924869
O O12 0.000000 0.681905 0.956371
O O13 0.250000 0.689328 0.000000
O O14 0.500000 0.250000 0.531747
O O15 0.750000 0.250000 0.500000
O O16 0.500000 0.531819 0.223137
O O17 0.750000 0.500000 0.236567
O O18 0.693974 0.548236 0.131616
O O19 0.000000 0.436712 0.040192
O O20 0.750000 0.445305 0.000000
#
# Coordination Sequence:
#
# PCOD8280069 Si02
#       7
#    16  16  16  16   8  16  16
#     4   9  16  26  45  72  97 124 164 205 237 276
#     4   9  17  31  50  71  99 130 159 197 242 284
#     4   9  17  29  48  73 100 130 160 192 232 279
#     4   9  16  28  45  66  92 125 161 199 240 279
#     4   8  14  24  40  68 100 126 155 186 220 268
#     4  10  20  35  53  73  97 125 160 202 247 290
#     4   9  17  30  48  68  94 125 156 195 242 289
#
# _framework density 17.497589000000001
#
# number of rings (size 3 to 8) (size 9 to 14) (size 15 to 20)
#    0.000    2.923    1.538    0.000    1.077    1.231 
#    0.000    2.308    0.000    1.385    0.000    3.231 
#    0.000    0.000    0.000    0.000    0.000    0.000 
#
# Total GULP energy -644367.312450 kJ/mol
# GULP energy per Si atom -12391.679086 kJ/mol
# Density = 1.745776 g / cm^3
# Si number density = 17.497589 Si / 1000 Ang^3
#
#
#
# Elastic Constant Matrix: (Units=GPa)
#
#
# Indices 1 2 3 4 5 6 
#
# 1 45.5866 35.1683 41.3586 0.0000 0.0000 0.0000
# 2 35.1683 110.9077 67.9430 0.0000 0.0000 0.0000
# 3 41.3586 67.9430 98.7097 0.0000 0.0000 0.0000
# 4 0.0000 0.0000 0.0000 18.1710 0.0000 0.0000
# 5 0.0000 0.0000 0.0000 0.0000 21.8717 0.0000
# 6 0.0000 0.0000 0.0000 0.0000 0.0000 18.4868
#
#
#
# Elastic Compliance Matrix: (Units=1/GPa)
#
#
# Indices 1 2 3 4 5 6 
#
# 1 0.036288 -0.003791 -0.012595 0.000000 0.000000 0.000000
# 2 -0.003791 0.015987 -0.009415 0.000000 0.000000 0.000000
# 3 -0.012595 -0.009415 0.021889 0.000000 0.000000 0.000000
# 4 0.000000 0.000000 0.000000 0.055033 0.000000 0.000000
# 5 0.000000 0.000000 0.000000 0.000000 0.045721 0.000000
# 6 0.000000 0.000000 0.000000 0.000000 0.000000 0.054093
#
#
# Mechanical properties :
#
#
# Convention : Reuss Voigt Hill
#
# Bulk Modulus (GPa) = 44.32545 60.46042 52.39294
# Shear Modulus (GPa) = 17.35317 19.08817 18.22067
#
# Velocity S-wave (km/s) = 3.15262 3.30646 3.23046
# Velocity P-wave (km/s) = 6.21605 7.01467 6.62740
#
# Compressibility (1/GPa) = 0.02256040
#
# Stress axis : x y z
#
# Youngs Moduli (GPa) = 27.55759 62.55277 45.68589
#
# Poissons Ratio (x) = 0.23713 0.57541
# Poissons Ratio (y) = 0.10447 0.43015
# Poissons Ratio (z) = 0.34709 0.58896
#
# Static dielectric constant tensor:
#      x y z
#    x 2.942420 0.000000 0.000000 
#    y 0.000000 3.918560 0.000000 
#    z 0.000000 0.000000 2.519130 
# 
# 
# High freq. dielectric constant tensor:
#      x y z
#    x 1.636150 0.000000 0.000000 
#    y 0.000000 1.671480 0.000000 
#    z 0.000000 0.000000 1.668470 
# 
# From -- ./inp_files/31133.got.cif
#   From: 2010.03.12/outbox.cif.g09.slc.cpg/sg67_16_cif.got.tgz:31133.got - 2010.04.10 22:41:39.
