data_PCOD8280938
_publ_section_title
;
Structure prediction by ZEFSAII (Michael W. Deem and Ramdas Pophale) SiO2 
 PCOD8280938
Probable space group: C M M A
;
_chemical_formula_sum "Si O2"
_cell_formula_units_Z 72
_cell_length_a 8.832914
_cell_length_b 25.158035
_cell_length_c 16.693724
_cell_angle_alpha 90.000000
_cell_angle_beta 90.000000
_cell_angle_gamma 90.000000
_cell_volume 3709.658640
_symmetry_space_group_name_H-M "C M M A"
_symmetry_group_IT_number 67
_symmetry_cell_setting 'orthorhombic'
loop_
_space_group_symop_operation_xyz
x,y,z
-x,1/2-y,z
x,-y,-z
-x,1/2+y,-z
-x,-y,-z
x,1/2+y,-z
-x,y,z
x,1/2-y,z
1/2+x,1/2+y,z
1/2-x,-y,z
1/2+x,1/2-y,-z
1/2-x,y,-z
1/2-x,1/2-y,-z
1/2+x,y,-z
1/2-x,1/2+y,z
1/2+x,-y,z
loop_
_atom_site_type_symbol
_atom_site_label
_atom_site_fract_x
_atom_site_fract_y
_atom_site_fract_z
Si Si1 0.327005 0.665701 0.195222
Si Si2 0.177104 0.750000 0.086280
Si Si3 0.821428 0.552997 0.744625
Si Si4 0.172315 0.190873 0.376657
Si Si5 0.322435 0.412652 0.419426
O O1 0.500000 0.671951 0.167109
O O2 0.223388 0.696304 0.132332
O O3 0.280184 0.603369 0.199467
O O4 0.302901 0.691687 0.281597
O O5 0.000000 0.750000 0.075722
O O6 0.250000 0.750000 0.000000
O O7 0.750000 0.500000 0.784158
O O8 0.753279 0.559322 0.656211
O O9 0.000000 0.547235 0.735819
O O10 0.203822 0.250000 0.409752
O O11 0.288348 0.150652 0.418337
O O12 0.000000 0.172379 0.395281
O O13 0.500000 0.423023 0.418138
O O14 0.250000 0.437303 0.500000
#
# Coordination Sequence:
#
# PCOD8280938 Si02
#       5
#    16   8  16  16  16
#     4   9  18  36  58  82 115 149 181 223 274 325
#     4  12  24  36  58  90 123 154 185 220 266 322
#     4  10  21  38  60  84 110 145 187 233 281 331
#     4   9  17  32  53  74 102 142 182 225 279 335
#     4  11  22  35  50  72 104 141 186 237 287 338
#
# _framework density 19.408794
#
# number of rings (size 3 to 8) (size 9 to 14) (size 15 to 20)
#    0.000    2.000    1.111    5.000    0.000    5.778 
#    0.000    2.222    0.000    0.667    0.000    4.667 
#    0.000    0.000    0.000    0.000    0.000    0.000 
#
# Total GULP energy -446406.998363 kJ/mol
# GULP energy per Si atom -12400.194399 kJ/mol
# Density = 1.936462 g / cm^3
# Si number density = 19.408794 Si / 1000 Ang^3
#
#
#
# Elastic Constant Matrix: (Units=GPa)
#
#
# Indices 1 2 3 4 5 6 
#
# 1 132.5946 54.2796 49.3147 0.0000 0.0000 0.0000
# 2 54.2796 125.6200 31.5535 0.0000 0.0000 0.0000
# 3 49.3147 31.5535 78.7325 0.0000 0.0000 0.0000
# 4 0.0000 0.0000 0.0000 -51.5235 0.0000 0.0000
# 5 0.0000 0.0000 0.0000 0.0000 28.7424 0.0000
# 6 0.0000 0.0000 0.0000 0.0000 0.0000 35.3919
#
#
#
# Elastic Compliance Matrix: (Units=1/GPa)
#
#
# Indices 1 2 3 4 5 6 
#
# 1 0.010970 -0.003351 -0.005528 0.000000 0.000000 0.000000
# 2 -0.003351 0.009876 -0.001859 0.000000 0.000000 0.000000
# 3 -0.005528 -0.001859 0.016908 0.000000 0.000000 0.000000
# 4 0.000000 0.000000 0.000000 -0.019409 0.000000 0.000000
# 5 0.000000 0.000000 0.000000 0.000000 0.034792 0.000000
# 6 0.000000 0.000000 0.000000 0.000000 0.000000 0.028255
#
#
# Mechanical properties :
#
#
# Convention : Reuss Voigt Hill
#
# Bulk Modulus (GPa) = 61.43260 67.47143 64.45201
# Shear Modulus (GPa) = 46.17087 15.97545 31.07316
#
# Velocity S-wave (km/s) = 4.88265 2.87209 4.00557
# Velocity P-wave (km/s) = 7.96917 6.77033 7.39409
#
# Compressibility (1/GPa) = 0.01627800
#
# Stress axis : x y z
#
# Youngs Moduli (GPa) = 91.16073 101.26070 59.14204
#
# Poissons Ratio (x) = 0.33937 0.32692
# Poissons Ratio (y) = 0.30552 0.10992
# Poissons Ratio (z) = 0.50391 0.18820
#
# Static dielectric constant tensor:
#      x y z
#    x 3.494960 0.000000 0.000000 
#    y 0.000000 3.798240 0.000000 
#    z 0.000000 0.000000 3.237240 
# 
# 
# High freq. dielectric constant tensor:
#      x y z
#    x 1.755850 0.000000 0.000000 
#    y 0.000000 1.767610 0.000000 
#    z 0.000000 0.000000 1.717950 
# 
# From -- ./inp_files/25068.got.cif
#   From: 2010.03.12/outbox.cif.g09.slc.cpg/sg67_13_cif.got.tgz:25068.got - 2010.04.10 22:41:39.
