data_PCOD8280588
_publ_section_title
;
Structure prediction by ZEFSAII (Michael W. Deem and Ramdas Pophale) SiO2 
 PCOD8280588
Probable space group: C M M A
;
_chemical_formula_sum "Si O2"
_cell_formula_units_Z 92
_cell_length_a 26.596154
_cell_length_b 20.334676
_cell_length_c 8.420726
_cell_angle_alpha 90.000000
_cell_angle_beta 90.000000
_cell_angle_gamma 90.000000
_cell_volume 4554.132187
_symmetry_space_group_name_H-M "C M M A"
_symmetry_group_IT_number 67
_symmetry_cell_setting 'orthorhombic'
loop_
_space_group_symop_operation_xyz
x,y,z
-x,1/2-y,z
x,-y,-z
-x,1/2+y,-z
-x,-y,-z
x,1/2+y,-z
-x,y,z
x,1/2-y,z
1/2+x,1/2+y,z
1/2-x,-y,z
1/2+x,1/2-y,-z
1/2-x,y,-z
1/2-x,1/2-y,-z
1/2+x,y,-z
1/2-x,1/2+y,z
1/2+x,-y,z
loop_
_atom_site_type_symbol
_atom_site_label
_atom_site_fract_x
_atom_site_fract_y
_atom_site_fract_z
Si Si1 0.579258 0.926094 0.505051
Si Si2 0.173579 0.432807 0.282784
Si Si3 0.400365 0.377476 0.144842
Si Si4 0.750000 0.000000 0.500000
Si Si5 0.692930 0.326059 0.962604
Si Si6 0.867802 0.000000 0.000000
Si Si7 0.500000 0.175547 0.001929
Si Si8 0.000000 0.330708 0.356593
O O1 0.625789 0.933141 0.392063
O O2 0.598891 0.904552 0.677463
O O3 0.546836 0.864953 0.442865
O O4 0.553325 0.000000 0.500000
O O5 0.220476 0.449423 0.390515
O O6 0.177849 0.362192 0.199237
O O7 0.168536 0.489764 0.150416
O O8 0.450516 0.336780 0.107671
O O9 0.347207 0.340765 0.105341
O O10 0.404245 0.438435 0.024173
O O11 0.690936 0.250000 0.922586
O O12 0.750000 0.348525 0.000000
O O13 0.500000 0.250000 0.954508
O O14 0.500000 0.143437 0.826308
O O15 0.000000 0.250000 0.378846
#
# Coordination Sequence:
#
# PCOD8280588 Si02
#       8
#    16  16  16   4  16   8   8   8
#     4  12  24  44  63 104 139 168 214 280 343 395
#     4  11  24  39  68  93 135 171 221 275 331 392
#     4  11  23  40  67  92 130 168 213 272 327 390
#     4  12  24  38  62 102 136 170 224 274 340 400
#     4  10  24  44  66  95 131 178 229 273 324 398
#     4  10  20  40  60  96 120 174 215 257 326 384
#     4  11  25  44  67  95 122 168 228 269 314 392
#     4  11  26  45  69  93 129 183 221 267 338 412
#
# _framework density 20.201433000000002
#
# number of rings (size 3 to 8) (size 9 to 14) (size 15 to 20)
#    0.000    1.043    2.609    3.391    7.304    4.522 
#    0.000    0.435    0.000    0.000    0.000    0.000 
#    0.000    0.000    0.000    0.000    0.000    0.000 
#
# Total GULP energy -569984.654459 kJ/mol
# GULP energy per Si atom -12390.970749 kJ/mol
# Density = 2.015545 g / cm^3
# Si number density = 20.201433 Si / 1000 Ang^3
#
#
#
# Elastic Constant Matrix: (Units=GPa)
#
#
# Indices 1 2 3 4 5 6 
#
# 1 131.3604 35.2056 51.3867 0.0000 0.0000 0.0000
# 2 35.2056 105.4828 40.3220 0.0000 0.0000 0.0000
# 3 51.3867 40.3220 133.9544 0.0000 0.0000 0.0000
# 4 0.0000 0.0000 0.0000 53.2996 0.0000 0.0000
# 5 0.0000 0.0000 0.0000 0.0000 26.3863 0.0000
# 6 0.0000 0.0000 0.0000 0.0000 0.0000 31.4326
#
#
#
# Elastic Compliance Matrix: (Units=1/GPa)
#
#
# Indices 1 2 3 4 5 6 
#
# 1 0.009305 -0.001967 -0.002977 0.000000 0.000000 0.000000
# 2 -0.001967 0.011129 -0.002595 0.000000 0.000000 0.000000
# 3 -0.002977 -0.002595 0.009388 0.000000 0.000000 0.000000
# 4 0.000000 0.000000 0.000000 0.018762 0.000000 0.000000
# 5 0.000000 0.000000 0.000000 0.000000 0.037898 0.000000
# 6 0.000000 0.000000 0.000000 0.000000 0.000000 0.031814
#
#
# Mechanical properties :
#
#
# Convention : Reuss Voigt Hill
#
# Bulk Modulus (GPa) = 67.83150 69.40293 68.61722
# Shear Modulus (GPa) = 36.15590 38.48260 37.31925
#
# Velocity S-wave (km/s) = 4.23516 4.36930 4.30275
# Velocity P-wave (km/s) = 7.58722 7.73850 7.66323
#
# Compressibility (1/GPa) = 0.01474241
#
# Stress axis : x y z
#
# Youngs Moduli (GPa) = 107.47432 89.85610 106.51344
#
# Poissons Ratio (x) = 0.17678 0.31710
# Poissons Ratio (y) = 0.21145 0.27643
# Poissons Ratio (z) = 0.31997 0.23320
#
# Static dielectric constant tensor:
#      x y z
#    x 3.809670 0.000000 0.000000 
#    y 0.000000 3.612570 0.000000 
#    z 0.000000 0.000000 4.104660 
# 
# 
# High freq. dielectric constant tensor:
#      x y z
#    x 1.792400 0.000000 0.000000 
#    y 0.000000 1.795350 0.000000 
#    z 0.000000 0.000000 1.801430 
# 
# From -- ./inp_files/12534.got.cif
#   From: 2010.03.12/outbox.cif.g09.slc.cpg/sg67_7_cif.got.tgz:12534.got - 2010.04.10 22:41:39.
