data_PCOD8280729
_publ_section_title
;
Structure prediction by ZEFSAII (Michael W. Deem and Ramdas Pophale) SiO2 
 PCOD8280729
Probable space group: C M M A
;
_chemical_formula_sum "Si O2"
_cell_formula_units_Z 96
_cell_length_a 8.692322
_cell_length_b 18.494916
_cell_length_c 30.675863
_cell_angle_alpha 90.000000
_cell_angle_beta 90.000000
_cell_angle_gamma 90.000000
_cell_volume 4931.567238
_symmetry_space_group_name_H-M "C M M A"
_symmetry_group_IT_number 67
_symmetry_cell_setting 'orthorhombic'
loop_
_space_group_symop_operation_xyz
x,y,z
-x,1/2-y,z
x,-y,-z
-x,1/2+y,-z
-x,-y,-z
x,1/2+y,-z
-x,y,z
x,1/2-y,z
1/2+x,1/2+y,z
1/2-x,-y,z
1/2+x,1/2-y,-z
1/2-x,y,-z
1/2-x,1/2-y,-z
1/2+x,y,-z
1/2-x,1/2+y,z
1/2+x,-y,z
loop_
_atom_site_type_symbol
_atom_site_label
_atom_site_fract_x
_atom_site_fract_y
_atom_site_fract_z
Si Si1 0.817826 0.332175 0.045120
Si Si2 0.181625 0.076494 0.380060
Si Si3 0.181249 0.923448 0.287364
Si Si4 0.681982 0.079048 0.872459
Si Si5 0.325254 0.835703 0.544576
Si Si6 0.321165 0.334142 0.787589
O O1 0.761408 0.250000 0.052959
O O2 0.753993 0.381445 0.084336
O O3 0.000000 0.335572 0.042832
O O4 0.750000 0.362841 0.000000
O O5 0.249864 0.100251 0.333663
O O6 0.226161 0.136308 0.415142
O O7 0.000000 0.070230 0.375849
O O8 0.250000 0.000000 0.395190
O O9 0.222120 0.861812 0.252914
O O10 0.000000 0.931654 0.291973
O O11 0.250000 0.000000 0.271651
O O12 0.500000 0.073971 0.874383
O O13 0.735432 0.125049 0.830837
O O14 0.750000 0.000000 0.868836
O O15 0.500000 0.864279 0.547456
O O16 0.319577 0.750000 0.546076
O O17 0.250000 0.864898 0.500000
O O18 0.500000 0.349268 0.778156
O O19 0.288304 0.250000 0.794522
#
# Coordination Sequence:
#
# PCOD8280729 Si02
#       6
#    16  16  16  16  16  16
#     4   9  18  34  55  78 105 139 179 222 269 321
#     4  11  22  38  60  85 114 148 188 231 278 331
#     4  11  22  38  59  83 113 146 182 225 275 329
#     4  10  21  36  55  79 108 143 181 223 271 324
#     4  10  21  38  59  84 115 150 189 233 281 332
#     4  10  21  38  59  82 109 143 183 226 274 328
#
# _framework density 19.466426999999999
#
# number of rings (size 3 to 8) (size 9 to 14) (size 15 to 20)
#    0.000    1.833    0.000    5.500    0.000    7.333 
#    0.000    3.333    0.000    3.000    0.000    0.000 
#    0.000    0.000    0.000    0.000    0.000    0.000 
#
# Total GULP energy -595420.982070 kJ/mol
# GULP energy per Si atom -12404.603793 kJ/mol
# Density = 1.942212 g / cm^3
# Si number density = 19.466427 Si / 1000 Ang^3
#
#
#
# Elastic Constant Matrix: (Units=GPa)
#
#
# Indices 1 2 3 4 5 6 
#
# 1 111.1362 39.5823 54.0617 0.0000 0.0000 0.0000
# 2 39.5823 93.3254 70.4609 0.0000 0.0000 0.0000
# 3 54.0617 70.4609 148.5438 0.0000 0.0000 0.0000
# 4 0.0000 0.0000 0.0000 38.4612 0.0000 0.0000
# 5 0.0000 0.0000 0.0000 0.0000 33.9541 0.0000
# 6 0.0000 0.0000 0.0000 0.0000 0.0000 31.3414
#
#
#
# Elastic Compliance Matrix: (Units=1/GPa)
#
#
# Indices 1 2 3 4 5 6 
#
# 1 0.011336 -0.002638 -0.002874 0.000000 0.000000 0.000000
# 2 -0.002638 0.017307 -0.007250 0.000000 0.000000 0.000000
# 3 -0.002874 -0.007250 0.011217 0.000000 0.000000 0.000000
# 4 0.000000 0.000000 0.000000 0.026000 0.000000 0.000000
# 5 0.000000 0.000000 0.000000 0.000000 0.029452 0.000000
# 6 0.000000 0.000000 0.000000 0.000000 0.000000 0.031907
#
#
# Mechanical properties :
#
#
# Convention : Reuss Voigt Hill
#
# Bulk Modulus (GPa) = 69.75168 75.69058 72.72113
# Shear Modulus (GPa) = 31.74178 33.34468 32.54323
#
# Velocity S-wave (km/s) = 4.04244 4.14325 4.09315
# Velocity P-wave (km/s) = 7.59592 7.86484 7.73155
#
# Compressibility (1/GPa) = 0.01433657
#
# Stress axis : x y z
#
# Youngs Moduli (GPa) = 88.21748 57.77844 89.15021
#
# Poissons Ratio (x) = 0.15240 0.25625
# Poissons Ratio (y) = 0.23268 0.64632
# Poissons Ratio (z) = 0.25357 0.41888
#
# Static dielectric constant tensor:
#      x y z
#    x 3.625160 0.000000 0.000000 
#    y 0.000000 3.348900 0.000000 
#    z 0.000000 0.000000 3.718330 
# 
# 
# High freq. dielectric constant tensor:
#      x y z
#    x 1.758960 0.000000 0.000000 
#    y 0.000000 1.753900 0.000000 
#    z 0.000000 0.000000 1.772520 
# 
# From -- ./inp_files/43486.got.cif
#   From: 2010.03.12/outbox.cif.g09.slc.cpg/sg67_22_cif.got.tgz:43486.got - 2010.04.10 22:41:39.
