data_PCOD8280771
_publ_section_title
;
Structure prediction by ZEFSAII (Michael W. Deem and Ramdas Pophale) SiO2 
 PCOD8280771
Probable space group: C M M A
;
_chemical_formula_sum "Si O2"
_cell_formula_units_Z 112
_cell_length_a 14.465248
_cell_length_b 13.979414
_cell_length_c 27.042626
_cell_angle_alpha 90.000000
_cell_angle_beta 90.000000
_cell_angle_gamma 90.000000
_cell_volume 5468.443287
_symmetry_space_group_name_H-M "C M M A"
_symmetry_group_IT_number 67
_symmetry_cell_setting 'orthorhombic'
loop_
_space_group_symop_operation_xyz
x,y,z
-x,1/2-y,z
x,-y,-z
-x,1/2+y,-z
-x,-y,-z
x,1/2+y,-z
-x,y,z
x,1/2-y,z
1/2+x,1/2+y,z
1/2-x,-y,z
1/2+x,1/2-y,-z
1/2-x,y,-z
1/2-x,1/2-y,-z
1/2+x,y,-z
1/2-x,1/2+y,z
1/2+x,-y,z
loop_
_atom_site_type_symbol
_atom_site_label
_atom_site_fract_x
_atom_site_fract_y
_atom_site_fract_z
Si Si1 0.237834 0.363870 0.260965
Si Si2 0.899166 0.863598 0.433366
Si Si3 0.246765 0.860063 0.941843
Si Si4 0.893920 0.008060 0.782705
Si Si5 0.894048 0.508766 0.100420
Si Si6 0.107465 0.140770 0.458602
Si Si7 0.229383 0.137229 0.372288
O O1 0.241615 0.250000 0.255494
O O2 0.152313 0.405624 0.229751
O O3 0.335540 0.406420 0.242426
O O4 0.217697 0.400360 0.316812
O O5 0.905212 0.750000 0.438501
O O6 0.867999 0.904095 0.487460
O O7 0.830925 0.894374 0.389999
O O8 0.000000 0.905695 0.420056
O O9 0.235256 0.750000 0.927445
O O10 0.344310 0.897286 0.920931
O O11 0.159808 0.914872 0.918174
O O12 0.250000 0.877294 0.000000
O O13 0.000000 0.011865 0.763798
O O14 0.889755 0.018352 0.841097
O O15 0.000000 0.504170 0.081724
O O16 0.141547 0.250000 0.458978
O O17 0.158678 0.089689 0.412203
O O18 0.000000 0.132070 0.448067
O O19 0.216205 0.250000 0.371165
#
# Coordination Sequence:
#
# PCOD8280771 Si02
#       7
#    16  16  16  16  16  16  16
#     4  10  21  37  58  83 111 144 183 233 292 347
#     4   8  13  21  34  56  90 128 162 201 252 313
#     4  10  21  36  57  89 126 159 191 232 281 330
#     4  10  23  41  59  83 113 147 193 243 287 333
#     4  10  21  38  60  83 112 155 201 241 281 329
#     4   8  13  21  34  56  90 128 162 201 252 313
#     4   9  16  25  41  67  96 128 167 211 264 326
#
# _framework density 20.481148000000001
#
# number of rings (size 3 to 8) (size 9 to 14) (size 15 to 20)
#    0.000    2.714    0.000    3.857    0.000    7.429 
#    0.000    7.143    0.000    0.000    0.000    8.000 
#    0.000   13.714    0.000    1.143    0.000    0.000 
#
# Total GULP energy -694024.234053 kJ/mol
# GULP energy per Si atom -12393.289894 kJ/mol
# Density = 2.043453 g / cm^3
# Si number density = 20.481148 Si / 1000 Ang^3
#
#
#
# Elastic Constant Matrix: (Units=GPa)
#
#
# Indices 1 2 3 4 5 6 
#
# 1 124.5528 3.9694 45.8744 0.0000 0.0000 0.0000
# 2 3.9694 56.8912 6.9276 0.0000 0.0000 0.0000
# 3 45.8744 6.9276 99.5325 0.0000 0.0000 0.0000
# 4 0.0000 0.0000 0.0000 402.9340 0.0000 0.0000
# 5 0.0000 0.0000 0.0000 0.0000 22.1554 0.0000
# 6 0.0000 0.0000 0.0000 0.0000 0.0000 2.5169
#
#
#
# Elastic Compliance Matrix: (Units=1/GPa)
#
#
# Indices 1 2 3 4 5 6 
#
# 1 0.009671 -0.000133 -0.004448 0.000000 0.000000 0.000000
# 2 -0.000133 0.017729 -0.001173 0.000000 0.000000 0.000000
# 3 -0.004448 -0.001173 0.012179 0.000000 0.000000 0.000000
# 4 0.000000 0.000000 0.000000 0.002482 0.000000 0.000000
# 5 0.000000 0.000000 0.000000 0.000000 0.045136 0.000000
# 6 0.000000 0.000000 0.000000 0.000000 0.000000 0.397316
#
#
# Mechanical properties :
#
#
# Convention : Reuss Voigt Hill
#
# Bulk Modulus (GPa) = 35.62323 43.83550 39.72937
# Shear Modulus (GPa) = 9.89358 100.46828 55.18093
#
# Velocity S-wave (km/s) = 2.20024 7.01146 5.19623
# Velocity P-wave (km/s) = 4.88730 9.32720 7.44588
#
# Compressibility (1/GPa) = 0.02807157
#
# Stress axis : x y z
#
# Youngs Moduli (GPa) = 103.39867 56.40320 82.11008
#
# Poissons Ratio (x) = 0.00751 0.36524
# Poissons Ratio (y) = 0.01377 0.09629
# Poissons Ratio (z) = 0.45994 0.06614
#
# Static dielectric constant tensor:
#      x y z
#    x 3.996700 0.000000 0.000000 
#    y 0.000000 3.532870 0.000000 
#    z 0.000000 0.000000 3.925570 
# 
# 
# High freq. dielectric constant tensor:
#      x y z
#    x 1.802750 0.000000 0.000000 
#    y 0.000000 1.792890 0.000000 
#    z 0.000000 0.000000 1.806280 
# 
# From -- ./inp_files/44369.got.cif
#   From: 2010.03.12/outbox.cif.g09.slc.cpg/sg67_23_cif.got.tgz:44369.got - 2010.04.10 22:41:39.
