data_PCOD8280089
_publ_section_title
;
Structure prediction by ZEFSAII (Michael W. Deem and Ramdas Pophale) SiO2 
 PCOD8280089
Probable space group: C M M A
;
_chemical_formula_sum "Si O2"
_cell_formula_units_Z 88
_cell_length_a 8.917183
_cell_length_b 29.870375
_cell_length_c 17.782681
_cell_angle_alpha 90.000000
_cell_angle_beta 90.000000
_cell_angle_gamma 90.000000
_cell_volume 4736.587801
_symmetry_space_group_name_H-M "C M M A"
_symmetry_group_IT_number 67
_symmetry_cell_setting 'orthorhombic'
loop_
_space_group_symop_operation_xyz
x,y,z
-x,1/2-y,z
x,-y,-z
-x,1/2+y,-z
-x,-y,-z
x,1/2+y,-z
-x,y,z
x,1/2-y,z
1/2+x,1/2+y,z
1/2-x,-y,z
1/2+x,1/2-y,-z
1/2-x,y,-z
1/2-x,1/2-y,-z
1/2+x,y,-z
1/2-x,1/2+y,z
1/2+x,-y,z
loop_
_atom_site_type_symbol
_atom_site_label
_atom_site_fract_x
_atom_site_fract_y
_atom_site_fract_z
Si Si1 0.824481 0.573367 0.422551
Si Si2 0.835332 0.668725 0.364104
Si Si3 0.821539 0.045366 0.267822
Si Si4 0.669764 0.871419 0.798554
Si Si5 0.328731 0.750000 0.421460
Si Si6 0.322529 0.699379 0.921093
O O1 0.750000 0.556019 0.500000
O O2 0.801804 0.626676 0.417743
O O3 0.741970 0.551095 0.352035
O O4 0.000000 0.560341 0.420049
O O5 0.829680 0.655491 0.278118
O O6 0.710852 0.706015 0.374928
O O7 0.000000 0.688161 0.383695
O O8 0.773885 0.084991 0.210807
O O9 0.000000 0.042484 0.270956
O O10 0.750000 0.000000 0.234606
O O11 0.500000 0.886822 0.817969
O O12 0.734854 0.837479 0.861254
O O13 0.500000 0.750000 0.439087
O O14 0.250000 0.750000 0.500000
O O15 0.500000 0.696904 0.928738
O O16 0.274098 0.750000 0.896957
O O17 0.250000 0.686266 0.000000
#
# Coordination Sequence:
#
# PCOD8280089 Si02
#       6
#    16  16  16  16   8  16
#     4  10  20  35  54  76 102 135 176 224 278 331
#     4   9  19  34  52  71  96 133 176 221 266 318
#     4  11  22  37  57  80 108 140 180 227 277 329
#     4   9  19  36  58  81 108 144 183 220 267 322
#     4  12  24  34  46  66  95 132 177 224 269 316
#     4   9  18  33  56  86 119 153 184 217 260 314
#
# _framework density 18.578775
#
# number of rings (size 3 to 8) (size 9 to 14) (size 15 to 20)
#    0.000    2.182    0.000    4.636    1.273    6.182 
#    0.000    1.818    0.000    0.545    0.000    3.818 
#    0.000    0.000    0.000    0.000    0.000    0.000 
#
# Total GULP energy -545549.313002 kJ/mol
# GULP energy per Si atom -12398.848023 kJ/mol
# Density = 1.853649 g / cm^3
# Si number density = 18.578775 Si / 1000 Ang^3
#
#
#
# Elastic Constant Matrix: (Units=GPa)
#
#
# Indices 1 2 3 4 5 6 
#
# 1 120.2041 60.5389 30.7889 0.0000 0.0000 0.0000
# 2 60.5389 117.4035 49.8023 0.0000 0.0000 0.0000
# 3 30.7889 49.8023 84.9786 0.0000 0.0000 0.0000
# 4 0.0000 0.0000 0.0000 16.7212 0.0000 0.0000
# 5 0.0000 0.0000 0.0000 0.0000 27.8108 0.0000
# 6 0.0000 0.0000 0.0000 0.0000 0.0000 30.1246
#
#
#
# Elastic Compliance Matrix: (Units=1/GPa)
#
#
# Indices 1 2 3 4 5 6 
#
# 1 0.011289 -0.005438 -0.000903 0.000000 0.000000 0.000000
# 2 -0.005438 0.013955 -0.006208 0.000000 0.000000 0.000000
# 3 -0.000903 -0.006208 0.015733 0.000000 0.000000 0.000000
# 4 0.000000 0.000000 0.000000 0.059804 0.000000 0.000000
# 5 0.000000 0.000000 0.000000 0.000000 0.035957 0.000000
# 6 0.000000 0.000000 0.000000 0.000000 0.000000 0.033195
#
#
# Mechanical properties :
#
#
# Convention : Reuss Voigt Hill
#
# Bulk Modulus (GPa) = 62.97760 67.20517 65.09139
# Shear Modulus (GPa) = 24.95912 27.02839 25.99376
#
# Velocity S-wave (km/s) = 3.66925 3.81832 3.74453
# Velocity P-wave (km/s) = 7.20572 7.46264 7.33531
#
# Compressibility (1/GPa) = 0.01587866
#
# Stress axis : x y z
#
# Youngs Moduli (GPa) = 88.57861 71.65674 63.55933
#
# Poissons Ratio (x) = 0.38969 0.05741
# Poissons Ratio (y) = 0.48171 0.39460
# Poissons Ratio (z) = 0.08000 0.44487
#
# Static dielectric constant tensor:
#      x y z
#    x 3.660160 0.000000 0.000000 
#    y 0.000000 3.517550 0.000000 
#    z 0.000000 0.000000 3.258850 
# 
# 
# High freq. dielectric constant tensor:
#      x y z
#    x 1.722580 0.000000 0.000000 
#    y 0.000000 1.725380 0.000000 
#    z 0.000000 0.000000 1.699410 
# 
# From -- ./inp_files/32406.got.cif
#   From: 2010.03.12/outbox.cif.g09.slc.cpg/sg67_17_cif.got.tgz:32406.got - 2010.04.10 22:41:39.
