data_PCOD8280780
_publ_section_title
;
Structure prediction by ZEFSAII (Michael W. Deem and Ramdas Pophale) SiO2 
 PCOD8280780
Probable space group: C M M A
;
_chemical_formula_sum "Si O2"
_cell_formula_units_Z 96
_cell_length_a 13.731088
_cell_length_b 22.327163
_cell_length_c 14.838397
_cell_angle_alpha 90.000000
_cell_angle_beta 90.000000
_cell_angle_gamma 90.000000
_cell_volume 4549.099959
_symmetry_space_group_name_H-M "C M M A"
_symmetry_group_IT_number 67
_symmetry_cell_setting 'orthorhombic'
loop_
_space_group_symop_operation_xyz
x,y,z
-x,1/2-y,z
x,-y,-z
-x,1/2+y,-z
-x,-y,-z
x,1/2+y,-z
-x,y,z
x,1/2-y,z
1/2+x,1/2+y,z
1/2-x,-y,z
1/2+x,1/2-y,-z
1/2-x,y,-z
1/2-x,1/2-y,-z
1/2+x,y,-z
1/2-x,1/2+y,z
1/2+x,-y,z
loop_
_atom_site_type_symbol
_atom_site_label
_atom_site_fract_x
_atom_site_fract_y
_atom_site_fract_z
Si Si1 0.250000 0.149954 0.500000
Si Si2 0.115798 0.750000 0.433787
Si Si3 0.384599 0.097369 0.169031
Si Si4 0.610423 0.627052 0.026645
Si Si5 0.760249 0.250000 0.277534
Si Si6 0.318576 0.750000 0.083120
Si Si7 0.885365 0.541018 0.822543
Si Si8 0.774568 0.878484 0.692244
O O1 0.154645 0.191555 0.513416
O O2 0.239977 0.106529 0.413186
O O3 0.157586 0.750000 0.331177
O O4 0.000000 0.750000 0.430681
O O5 0.500000 0.107489 0.183069
O O6 0.327793 0.126737 0.252616
O O7 0.354832 0.027609 0.168629
O O8 0.344095 0.126219 0.074532
O O9 0.500000 0.607394 0.011320
O O10 0.614891 0.690918 0.076346
O O11 0.658521 0.577160 0.091831
O O12 0.748881 0.250000 0.169811
O O13 0.819643 0.189295 0.303861
O O14 0.250000 0.750000 0.000000
O O15 0.843138 0.570140 0.731640
O O16 0.000000 0.548649 0.817269
#
# Coordination Sequence:
#
# PCOD8280780 Si02
#       8
#     8   8  16  16   8   8  16  16
#     4   9  22  38  61  92 126 152 205 259 302 372
#     4   9  19  40  66  91 121 162 203 248 304 366
#     4  10  22  39  60  87 117 159 213 259 301 360
#     4  10  21  37  58  84 119 160 204 252 307 363
#     4  10  21  36  58  88 123 152 196 237 294 370
#     4  12  21  34  52  85 127 160 189 244 300 368
#     4  10  21  38  60  86 118 158 210 259 301 361
#     4  11  21  40  60  88 119 160 195 252 316 368
#
# _framework density 21.103076999999999
#
# number of rings (size 3 to 8) (size 9 to 14) (size 15 to 20)
#    0.000    1.833    1.667    2.750    0.000    5.333 
#    0.000    5.417    0.000    2.000    0.000    0.000 
#    0.000    0.000    0.000    0.000    0.000    0.000 
#
# Total GULP energy -594937.309548 kJ/mol
# GULP energy per Si atom -12394.527282 kJ/mol
# Density = 2.105505 g / cm^3
# Si number density = 21.103077 Si / 1000 Ang^3
#
#
#
# Elastic Constant Matrix: (Units=GPa)
#
#
# Indices 1 2 3 4 5 6 
#
# 1 41.3944 14.6353 30.2531 0.0000 0.0000 0.0000
# 2 14.6353 97.6921 40.5309 0.0000 0.0000 0.0000
# 3 30.2531 40.5309 197.6068 0.0000 0.0000 0.0000
# 4 0.0000 0.0000 0.0000 30.5470 0.0000 0.0000
# 5 0.0000 0.0000 0.0000 0.0000 25.8899 0.0000
# 6 0.0000 0.0000 0.0000 0.0000 0.0000 20.5430
#
#
#
# Elastic Compliance Matrix: (Units=1/GPa)
#
#
# Indices 1 2 3 4 5 6 
#
# 1 0.027803 -0.002622 -0.003719 0.000000 0.000000 0.000000
# 2 -0.002622 0.011436 -0.001944 0.000000 0.000000 0.000000
# 3 -0.003719 -0.001944 0.006029 0.000000 0.000000 0.000000
# 4 0.000000 0.000000 0.000000 0.032736 0.000000 0.000000
# 5 0.000000 0.000000 0.000000 0.000000 0.038625 0.000000
# 6 0.000000 0.000000 0.000000 0.000000 0.000000 0.048678
#
#
# Mechanical properties :
#
#
# Convention : Reuss Voigt Hill
#
# Bulk Modulus (GPa) = 34.84697 56.39242 45.61970
# Shear Modulus (GPa) = 26.11747 32.14760 29.13254
#
# Velocity S-wave (km/s) = 3.52179 3.90726 3.71952
# Velocity P-wave (km/s) = 5.75204 6.86556 6.33332
#
# Compressibility (1/GPa) = 0.02869690
#
# Stress axis : x y z
#
# Youngs Moduli (GPa) = 35.96763 87.44572 165.87543
#
# Poissons Ratio (x) = 0.22931 0.61684
# Poissons Ratio (y) = 0.09432 0.32248
# Poissons Ratio (z) = 0.13375 0.17000
#
# Static dielectric constant tensor:
#      x y z
#    x 3.591110 0.000000 0.000000 
#    y 0.000000 1.910550 0.000000 
#    z 0.000000 0.000000 4.072830 
# 
# 
# High freq. dielectric constant tensor:
#      x y z
#    x 1.808030 0.000000 0.000000 
#    y 0.000000 1.828390 0.000000 
#    z 0.000000 0.000000 1.830840 
# 
# From -- ./inp_files/27455.got.cif
#   From: 2010.03.12/outbox.cif.g09.slc.cpg/sg67_14_cif.got.tgz:27455.got - 2010.04.10 22:41:39.
