data_PCOD8280838
_publ_section_title
;
Structure prediction by ZEFSAII (Michael W. Deem and Ramdas Pophale) SiO2 
 PCOD8280838
Probable space group: C M M A
;
_chemical_formula_sum "Si O2"
_cell_formula_units_Z 96
_cell_length_a 8.815866
_cell_length_b 18.775234
_cell_length_c 30.537299
_cell_angle_alpha 90.000000
_cell_angle_beta 90.000000
_cell_angle_gamma 90.000000
_cell_volume 5054.532114
_symmetry_space_group_name_H-M "C M M A"
_symmetry_group_IT_number 67
_symmetry_cell_setting 'orthorhombic'
loop_
_space_group_symop_operation_xyz
x,y,z
-x,1/2-y,z
x,-y,-z
-x,1/2+y,-z
-x,-y,-z
x,1/2+y,-z
-x,y,z
x,1/2-y,z
1/2+x,1/2+y,z
1/2-x,-y,z
1/2+x,1/2-y,-z
1/2-x,y,-z
1/2-x,1/2-y,-z
1/2+x,y,-z
1/2-x,1/2+y,z
1/2+x,-y,z
loop_
_atom_site_type_symbol
_atom_site_label
_atom_site_fract_x
_atom_site_fract_y
_atom_site_fract_z
Si Si1 0.321031 0.169215 0.043870
Si Si2 0.322707 0.831388 0.547026
Si Si3 0.820429 0.577712 0.622912
Si Si4 0.322845 0.332613 0.301049
Si Si5 0.822999 0.573507 0.220249
Si Si6 0.320474 0.425917 0.122488
O O1 0.500000 0.162765 0.040181
O O2 0.265156 0.250000 0.047994
O O3 0.259870 0.131225 0.087606
O O4 0.250000 0.134418 0.000000
O O5 0.500000 0.849221 0.544800
O O6 0.296409 0.750000 0.562893
O O7 0.250000 0.843682 0.500000
O O8 0.242113 0.885644 0.579399
O O9 0.750000 0.500000 0.628807
O O10 0.777315 0.626231 0.663931
O O11 0.000000 0.570643 0.619643
O O12 0.500000 0.343762 0.312236
O O13 0.278568 0.250000 0.301764
O O14 0.281557 0.362771 0.253122
O O15 0.750000 0.500000 0.236782
O O16 0.765340 0.594957 0.171578
O O17 0.000000 0.559108 0.219438
O O18 0.500000 0.431689 0.120840
O O19 0.250000 0.500000 0.107915
#
# Coordination Sequence:
#
# PCOD8280838 Si02
#       6
#    16  16  16  16  16  16
#     4   9  18  32  49  69  95 128 166 208 254 305
#     4  10  21  39  63  90 120 152 187 228 274 324
#     4  12  25  40  59  83 113 149 189 230 274 323
#     4  10  21  37  57  82 111 142 178 221 269 321
#     4   9  18  33  53  76 103 136 172 212 260 313
#     4   9  18  32  50  73 100 131 168 210 256 307
#
# _framework density 18.992856
#
# number of rings (size 3 to 8) (size 9 to 14) (size 15 to 20)
#    0.000    2.167    0.000    3.000    0.000    7.333 
#    0.000    6.667    0.000    0.000    0.000    7.000 
#    0.000    0.000    0.000    0.000    0.000    0.000 
#
# Total GULP energy -595236.962292 kJ/mol
# GULP energy per Si atom -12400.770048 kJ/mol
# Density = 1.894963 g / cm^3
# Si number density = 18.992856 Si / 1000 Ang^3
#
#
#
# Elastic Constant Matrix: (Units=GPa)
#
#
# Indices 1 2 3 4 5 6 
#
# 1 76.1927 52.6156 52.0257 0.0000 0.0000 0.0000
# 2 52.6156 132.6063 82.9315 0.0000 0.0000 0.0000
# 3 52.0257 82.9315 127.4236 0.0000 0.0000 0.0000
# 4 0.0000 0.0000 0.0000 39.1486 0.0000 0.0000
# 5 0.0000 0.0000 0.0000 0.0000 31.4506 0.0000
# 6 0.0000 0.0000 0.0000 0.0000 0.0000 29.8688
#
#
#
# Elastic Compliance Matrix: (Units=1/GPa)
#
#
# Indices 1 2 3 4 5 6 
#
# 1 0.019811 -0.004725 -0.005013 0.000000 0.000000 0.000000
# 2 -0.004725 0.013845 -0.007081 0.000000 0.000000 0.000000
# 3 -0.005013 -0.007081 0.014503 0.000000 0.000000 0.000000
# 4 0.000000 0.000000 0.000000 0.025544 0.000000 0.000000
# 5 0.000000 0.000000 0.000000 0.000000 0.031796 0.000000
# 6 0.000000 0.000000 0.000000 0.000000 0.000000 0.033480
#
#
# Mechanical properties :
#
#
# Convention : Reuss Voigt Hill
#
# Bulk Modulus (GPa) = 68.87356 79.04093 73.95724
# Shear Modulus (GPa) = 28.17580 30.00360 29.08970
#
# Velocity S-wave (km/s) = 3.85579 3.97889 3.91783
# Velocity P-wave (km/s) = 7.49430 7.92561 7.71297
#
# Compressibility (1/GPa) = 0.01451936
#
# Stress axis : x y z
#
# Youngs Moduli (GPa) = 50.47746 72.23029 68.94968
#
# Poissons Ratio (x) = 0.34131 0.34565
# Poissons Ratio (y) = 0.23852 0.48825
# Poissons Ratio (z) = 0.25305 0.51148
#
# Static dielectric constant tensor:
#      x y z
#    x 3.430680 0.000000 0.000000 
#    y 0.000000 3.476530 0.000000 
#    z 0.000000 0.000000 4.101050 
# 
# 
# High freq. dielectric constant tensor:
#      x y z
#    x 1.732860 0.000000 0.000000 
#    y 0.000000 1.736100 0.000000 
#    z 0.000000 0.000000 1.754110 
# 
# From -- ./inp_files/43483.got.cif
#   From: 2010.03.12/outbox.cif.g09.slc.cpg/sg67_22_cif.got.tgz:43483.got - 2010.04.10 22:41:39.
