data_PCOD8280876
_publ_section_title
;
Structure prediction by ZEFSAII (Michael W. Deem and Ramdas Pophale) SiO2 
 PCOD8280876
Probable space group: C M M A
;
_chemical_formula_sum "Si O2"
_cell_formula_units_Z 112
_cell_length_a 23.392922
_cell_length_b 15.764701
_cell_length_c 14.430456
_cell_angle_alpha 90.000000
_cell_angle_beta 90.000000
_cell_angle_gamma 90.000000
_cell_volume 5321.698498
_symmetry_space_group_name_H-M "C M M A"
_symmetry_group_IT_number 67
_symmetry_cell_setting 'orthorhombic'
loop_
_space_group_symop_operation_xyz
x,y,z
-x,1/2-y,z
x,-y,-z
-x,1/2+y,-z
-x,-y,-z
x,1/2+y,-z
-x,y,z
x,1/2-y,z
1/2+x,1/2+y,z
1/2-x,-y,z
1/2+x,1/2-y,-z
1/2-x,y,-z
1/2-x,1/2-y,-z
1/2+x,y,-z
1/2-x,1/2+y,z
1/2+x,-y,z
loop_
_atom_site_type_symbol
_atom_site_label
_atom_site_fract_x
_atom_site_fract_y
_atom_site_fract_z
Si Si1 0.244949 0.846215 0.322342
Si Si2 0.872020 0.346287 0.593144
Si Si3 0.768972 0.407382 0.874325
Si Si4 0.371204 0.348798 0.620053
Si Si5 0.563182 0.451767 0.903887
Si Si6 0.434131 0.994164 0.704826
Si Si7 0.162148 0.655984 0.969487
O O1 0.250089 0.750000 0.288172
O O2 0.196630 0.856599 0.400535
O O3 0.222847 0.901100 0.235357
O O4 0.305501 0.876695 0.362607
O O5 0.889671 0.250000 0.623325
O O6 0.887822 0.361984 0.486828
O O7 0.902938 0.415178 0.656950
O O8 0.750000 0.500000 0.903479
O O9 0.719619 0.343276 0.907901
O O10 0.827518 0.390446 0.931315
O O11 0.381474 0.250000 0.648992
O O12 0.410699 0.412919 0.676980
O O13 0.500000 0.410266 0.892546
O O14 0.574214 0.513673 0.815959
O O15 0.611902 0.381252 0.906325
O O16 0.566339 0.500000 0.000000
O O17 0.500000 0.989347 0.675281
O O18 0.143563 0.750000 0.994414
#
# Coordination Sequence:
#
# PCOD8280876 Si02
#       7
#    16  16  16  16  16  16  16
#     4  10  21  37  60  91 127 163 203 253 310 378
#     4  10  23  41  64  94 129 169 210 260 320 380
#     4  11  22  35  56  88 123 163 202 244 303 371
#     4  10  22  41  65  95 131 167 206 261 324 379
#     4  10  23  43  64  86 118 160 205 258 316 370
#     4  11  25  43  65  93 125 165 218 268 314 378
#     4  11  22  37  58  85 121 158 202 256 307 367
#
# _framework density 21.045912000000001
#
# number of rings (size 3 to 8) (size 9 to 14) (size 15 to 20)
#    0.000    1.571    0.000    5.143    6.000    5.429 
#    0.000    4.286    0.000    2.571    0.000    0.000 
#    0.000    0.000    0.000    0.000    0.000    0.000 
#
# Total GULP energy -694279.274496 kJ/mol
# GULP energy per Si atom -12397.844187 kJ/mol
# Density = 2.099801 g / cm^3
# Si number density = 21.045912 Si / 1000 Ang^3
#
#
#
# Elastic Constant Matrix: (Units=GPa)
#
#
# Indices 1 2 3 4 5 6 
#
# 1 108.1756 42.0781 32.0852 0.0000 0.0000 0.0000
# 2 42.0781 104.3607 38.9378 0.0000 0.0000 0.0000
# 3 32.0852 38.9378 111.9346 0.0000 0.0000 0.0000
# 4 0.0000 0.0000 0.0000 13.1632 0.0000 0.0000
# 5 0.0000 0.0000 0.0000 0.0000 29.7025 0.0000
# 6 0.0000 0.0000 0.0000 0.0000 0.0000 17.5242
#
#
#
# Elastic Compliance Matrix: (Units=1/GPa)
#
#
# Indices 1 2 3 4 5 6 
#
# 1 0.011305 -0.003849 -0.001902 0.000000 0.000000 0.000000
# 2 -0.003849 0.012322 -0.003183 0.000000 0.000000 0.000000
# 3 -0.001902 -0.003183 0.010586 0.000000 0.000000 0.000000
# 4 0.000000 0.000000 0.000000 0.075970 0.000000 0.000000
# 5 0.000000 0.000000 0.000000 0.000000 0.033667 0.000000
# 6 0.000000 0.000000 0.000000 0.000000 0.000000 0.057064
#
#
# Mechanical properties :
#
#
# Convention : Reuss Voigt Hill
#
# Bulk Modulus (GPa) = 61.17672 61.18590 61.18131
# Shear Modulus (GPa) = 22.29858 26.16931 24.23395
#
# Velocity S-wave (km/s) = 3.25856 3.53007 3.39703
# Velocity P-wave (km/s) = 6.57943 6.76394 6.67232
#
# Compressibility (1/GPa) = 0.01634609
#
# Stress axis : x y z
#
# Youngs Moduli (GPa) = 88.45349 81.15859 94.46299
#
# Poissons Ratio (x) = 0.31236 0.17965
# Poissons Ratio (y) = 0.34043 0.30067
# Poissons Ratio (z) = 0.16822 0.25833
#
# Static dielectric constant tensor:
#      x y z
#    x 3.927860 0.000000 0.000000 
#    y 0.000000 3.692050 0.000000 
#    z 0.000000 0.000000 3.834520 
# 
# 
# High freq. dielectric constant tensor:
#      x y z
#    x 1.818660 0.000000 0.000000 
#    y 0.000000 1.817430 0.000000 
#    z 0.000000 0.000000 1.834480 
# 
# From -- ./inp_files/27587.got.cif
#   From: 2010.03.12/outbox.cif.g09.slc.cpg/sg67_14_cif.got.tgz:27587.got - 2010.04.10 22:41:39.
