data_PCOD8280197
_publ_section_title
;
Structure prediction by ZEFSAII (Michael W. Deem and Ramdas Pophale) SiO2 
 PCOD8280197
Probable space group: C M M A
;
_chemical_formula_sum "Si O2"
_cell_formula_units_Z 80
_cell_length_a 24.689147
_cell_length_b 13.699609
_cell_length_c 12.631773
_cell_angle_alpha 90.000000
_cell_angle_beta 90.000000
_cell_angle_gamma 90.000000
_cell_volume 4272.465556
_symmetry_space_group_name_H-M "C M M A"
_symmetry_group_IT_number 67
_symmetry_cell_setting 'orthorhombic'
loop_
_space_group_symop_operation_xyz
x,y,z
-x,1/2-y,z
x,-y,-z
-x,1/2+y,-z
-x,-y,-z
x,1/2+y,-z
-x,y,z
x,1/2-y,z
1/2+x,1/2+y,z
1/2-x,-y,z
1/2+x,1/2-y,-z
1/2-x,y,-z
1/2-x,1/2-y,-z
1/2+x,y,-z
1/2-x,1/2+y,z
1/2+x,-y,z
loop_
_atom_site_type_symbol
_atom_site_label
_atom_site_fract_x
_atom_site_fract_y
_atom_site_fract_z
Si Si1 0.440910 0.514944 0.818703
Si Si2 0.746348 0.637620 0.377893
Si Si3 0.302551 0.139792 0.065390
Si Si4 0.672596 0.022754 0.267017
Si Si5 0.583130 0.858174 0.012280
O O1 0.500000 0.519638 0.761642
O O2 0.392900 0.511590 0.730593
O O3 0.440522 0.419604 0.891867
O O4 0.435309 0.607624 0.895749
O O5 0.730957 0.750000 0.361178
O O6 0.750000 0.608202 0.500000
O O7 0.702285 0.574875 0.310846
O O8 0.807125 0.613921 0.337644
O O9 0.299171 0.250000 0.116072
O O10 0.309679 0.051921 0.148576
O O11 0.250000 0.114474 0.000000
O O12 0.351877 0.136389 0.982324
O O13 0.560706 0.750000 0.027959
#
# Coordination Sequence:
#
# PCOD8280197 Si02
#       5
#    16  16  16  16  16
#     4  10  21  34  48  74 107 142 186 225 251 293
#     4  10  22  40  61  83 105 129 165 219 281 341
#     4   9  18  30  48  77 115 151 178 211 257 308
#     4  10  20  35  57  80 107 140 177 214 266 317
#     4   9  18  32  48  68 102 151 193 220 249 290
#
# _framework density 18.724551000000002
#
# number of rings (size 3 to 8) (size 9 to 14) (size 15 to 20)
#    0.000    2.400    0.000    3.000    5.600    3.200 
#    0.000    0.000    0.000    3.000    0.000    2.800 
#    0.000    0.000    0.000    0.000    0.000    0.000 
#
# Total GULP energy -495596.451912 kJ/mol
# GULP energy per Si atom -12389.911298 kJ/mol
# Density = 1.868193 g / cm^3
# Si number density = 18.724551 Si / 1000 Ang^3
#
#
#
# Elastic Constant Matrix: (Units=GPa)
#
#
# Indices 1 2 3 4 5 6 
#
# 1 172.8927 33.3643 47.3430 0.0000 0.0000 0.0000
# 2 33.3643 93.5820 10.1919 0.0000 0.0000 0.0000
# 3 47.3430 10.1919 44.1274 0.0000 0.0000 0.0000
# 4 0.0000 0.0000 0.0000 21.5269 0.0000 0.0000
# 5 0.0000 0.0000 0.0000 0.0000 16.3037 0.0000
# 6 0.0000 0.0000 0.0000 0.0000 0.0000 5.4045
#
#
#
# Elastic Compliance Matrix: (Units=1/GPa)
#
#
# Indices 1 2 3 4 5 6 
#
# 1 0.008577 -0.002109 -0.008715 0.000000 0.000000 0.000000
# 2 -0.002109 0.011480 -0.000389 0.000000 0.000000 0.000000
# 3 -0.008715 -0.000389 0.032102 0.000000 0.000000 0.000000
# 4 0.000000 0.000000 0.000000 0.046454 0.000000 0.000000
# 5 0.000000 0.000000 0.000000 0.000000 0.061336 0.000000
# 6 0.000000 0.000000 0.000000 0.000000 0.000000 0.185030
#
#
# Mechanical properties :
#
#
# Convention : Reuss Voigt Hill
#
# Bulk Modulus (GPa) = 33.63264 54.71116 44.17190
# Shear Modulus (GPa) = 13.25147 23.29387 18.27267
#
# Velocity S-wave (km/s) = 2.66316 3.53090 3.12728
# Velocity P-wave (km/s) = 5.23998 6.77535 6.05652
#
# Compressibility (1/GPa) = 0.02973302
#
# Stress axis : x y z
#
# Youngs Moduli (GPa) = 116.58522 87.10773 31.15073
#
# Poissons Ratio (x) = 0.18370 0.27149
# Poissons Ratio (y) = 0.24586 0.01212
# Poissons Ratio (z) = 1.01608 0.03388
#
# Static dielectric constant tensor:
#      x y z
#    x 3.703750 0.000000 0.000000 
#    y 0.000000 3.643790 0.000000 
#    z 0.000000 0.000000 3.143700 
# 
# 
# High freq. dielectric constant tensor:
#      x y z
#    x 1.728000 0.000000 0.000000 
#    y 0.000000 1.743380 0.000000 
#    z 0.000000 0.000000 1.679120 
# 
# From -- ./inp_files/22747.got.cif
#   From: 2010.03.12/outbox.cif.g09.slc.cpg/sg67_12_cif.got.tgz:22747.got - 2010.04.10 22:41:39.
