data_PCOD8280790
_publ_section_title
;
Structure prediction by ZEFSAII (Michael W. Deem and Ramdas Pophale) SiO2 
 PCOD8280790
Probable space group: C M M A
;
_chemical_formula_sum "Si O2"
_cell_formula_units_Z 104
_cell_length_a 8.818526
_cell_length_b 30.505739
_cell_length_c 22.840403
_cell_angle_alpha 90.000000
_cell_angle_beta 90.000000
_cell_angle_gamma 90.000000
_cell_volume 6144.425917
_symmetry_space_group_name_H-M "C M M A"
_symmetry_group_IT_number 67
_symmetry_cell_setting 'orthorhombic'
loop_
_space_group_symop_operation_xyz
x,y,z
-x,1/2-y,z
x,-y,-z
-x,1/2+y,-z
-x,-y,-z
x,1/2+y,-z
-x,y,z
x,1/2-y,z
1/2+x,1/2+y,z
1/2-x,-y,z
1/2+x,1/2-y,-z
1/2-x,y,-z
1/2-x,1/2-y,-z
1/2+x,y,-z
1/2-x,1/2+y,z
1/2+x,-y,z
loop_
_atom_site_type_symbol
_atom_site_label
_atom_site_fract_x
_atom_site_fract_y
_atom_site_fract_z
Si Si1 0.332442 0.133462 0.267826
Si Si2 0.181024 0.544632 0.321285
Si Si3 0.681164 0.921940 0.439901
Si Si4 0.678960 0.750000 0.436751
Si Si5 0.834222 0.198250 0.055716
Si Si6 0.679887 0.298961 0.816394
Si Si7 0.670682 0.164036 0.399372
O O1 0.500000 0.134004 0.239431
O O2 0.273310 0.083351 0.275603
O O3 0.224316 0.163134 0.228523
O O4 0.339834 0.152806 0.332000
O O5 0.250000 0.500000 0.294620
O O6 0.254813 0.551051 0.385076
O O7 0.000000 0.542847 0.328707
O O8 0.500000 0.924386 0.440621
O O9 0.750000 0.942025 0.500000
O O10 0.737623 0.871933 0.435935
O O11 0.500000 0.750000 0.440683
O O12 0.750000 0.750000 0.500000
O O13 0.736127 0.791624 0.401570
O O14 0.846101 0.250000 0.047013
O O15 0.755021 0.188842 0.118820
O O16 0.000000 0.176728 0.055560
O O17 0.750000 0.176837 0.000000
O O18 0.500000 0.297072 0.820451
O O19 0.738836 0.250000 0.797598
O O20 0.500000 0.168450 0.425578
#
# Coordination Sequence:
#
# PCOD8280790 Si02
#       7
#    16  16  16   8  16  16  16
#     4   9  20  35  51  71  97 126 158 197 240 286
#     4  10  21  38  56  76  98 123 156 197 245 296
#     4  11  21  35  54  75  97 122 151 188 237 295
#     4  12  24  36  50  68  88 118 159 200 243 292
#     4   8  14  25  40  61  92 129 168 206 241 273
#     4   9  18  30  45  69 101 135 170 207 239 276
#     4  10  21  37  51  67  93 123 156 200 244 286
#
# _framework density 16.925909999999998
#
# number of rings (size 3 to 8) (size 9 to 14) (size 15 to 20)
#    0.000    2.308    0.000    5.308    1.077    4.923 
#    0.000    3.077    0.000    0.000    0.000    0.000 
#    0.000    0.615    0.000    6.769    0.000    5.231 
#
# Total GULP energy -644480.636830 kJ/mol
# GULP energy per Si atom -12393.858401 kJ/mol
# Density = 1.688739 g / cm^3
# Si number density = 16.925910 Si / 1000 Ang^3
#
#
#
# Elastic Constant Matrix: (Units=GPa)
#
#
# Indices 1 2 3 4 5 6 
#
# 1 99.7999 37.0590 30.6344 0.0000 0.0000 0.0000
# 2 37.0590 104.2776 32.6762 0.0000 0.0000 0.0000
# 3 30.6344 32.6762 73.9046 0.0000 0.0000 0.0000
# 4 0.0000 0.0000 0.0000 10.0168 0.0000 0.0000
# 5 0.0000 0.0000 0.0000 0.0000 26.3173 0.0000
# 6 0.0000 0.0000 0.0000 0.0000 0.0000 24.9971
#
#
#
# Elastic Compliance Matrix: (Units=1/GPa)
#
#
# Indices 1 2 3 4 5 6 
#
# 1 0.012354 -0.003234 -0.003691 0.000000 0.000000 0.000000
# 2 -0.003234 0.011979 -0.003956 0.000000 0.000000 0.000000
# 3 -0.003691 -0.003956 0.016810 0.000000 0.000000 0.000000
# 4 0.000000 0.000000 0.000000 0.099832 0.000000 0.000000
# 5 0.000000 0.000000 0.000000 0.000000 0.037998 0.000000
# 6 0.000000 0.000000 0.000000 0.000000 0.000000 0.040005
#
#
# Mechanical properties :
#
#
# Convention : Reuss Voigt Hill
#
# Bulk Modulus (GPa) = 51.59641 53.19126 52.39383
# Shear Modulus (GPa) = 20.22662 24.10706 22.16684
#
# Velocity S-wave (km/s) = 3.46064 3.77804 3.62282
# Velocity P-wave (km/s) = 6.82040 7.10814 6.96576
#
# Compressibility (1/GPa) = 0.01938119
#
# Stress axis : x y z
#
# Youngs Moduli (GPa) = 80.94636 83.48212 59.48857
#
# Poissons Ratio (x) = 0.26996 0.21957
# Poissons Ratio (y) = 0.26176 0.23532
# Poissons Ratio (z) = 0.29878 0.33024
#
# Static dielectric constant tensor:
#      x y z
#    x 3.172200 0.000000 0.000000 
#    y 0.000000 3.136430 0.000000 
#    z 0.000000 0.000000 3.178620 
# 
# 
# High freq. dielectric constant tensor:
#      x y z
#    x 1.659670 0.000000 0.000000 
#    y 0.000000 1.632180 0.000000 
#    z 0.000000 0.000000 1.633790 
# 
# From -- ./inp_files/37492.got.cif
#   From: 2010.03.12/outbox.cif.g09.slc.cpg/sg67_19_cif.got.tgz:37492.got - 2010.04.10 22:41:39.
