data_PCOD8280014
_publ_section_title
;
Structure prediction by ZEFSAII (Michael W. Deem and Ramdas Pophale) SiO2 
 PCOD8280014
Probable space group: C M M A
;
_chemical_formula_sum "Si O2"
_cell_formula_units_Z 128
_cell_length_a 17.452242
_cell_length_b 18.267898
_cell_length_c 22.691218
_cell_angle_alpha 90.000000
_cell_angle_beta 90.000000
_cell_angle_gamma 90.000000
_cell_volume 7234.318292
_symmetry_space_group_name_H-M "C M M A"
_symmetry_group_IT_number 67
_symmetry_cell_setting 'orthorhombic'
loop_
_space_group_symop_operation_xyz
x,y,z
-x,1/2-y,z
x,-y,-z
-x,1/2+y,-z
-x,-y,-z
x,1/2+y,-z
-x,y,z
x,1/2-y,z
1/2+x,1/2+y,z
1/2-x,-y,z
1/2+x,1/2-y,-z
1/2-x,y,-z
1/2-x,1/2-y,-z
1/2+x,y,-z
1/2-x,1/2+y,z
1/2+x,-y,z
loop_
_atom_site_type_symbol
_atom_site_label
_atom_site_fract_x
_atom_site_fract_y
_atom_site_fract_z
Si Si1 0.264292 0.414005 0.740158
Si Si2 0.586184 0.573880 0.530284
Si Si3 0.861896 0.334260 0.427388
Si Si4 0.821363 0.170310 0.042925
Si Si5 0.277742 0.582591 0.612758
Si Si6 0.914930 0.662402 0.060437
Si Si7 0.719512 0.662511 0.856527
Si Si8 0.412463 0.664812 0.297030
O O1 0.250000 0.500000 0.750092
O O2 0.223983 0.387194 0.679684
O O3 0.222501 0.371941 0.792446
O O4 0.354306 0.389632 0.737534
O O5 0.617254 0.500000 0.500000
O O6 0.500000 0.563883 0.553722
O O7 0.587875 0.637583 0.481820
O O8 0.637229 0.591510 0.587303
O O9 0.847490 0.250000 0.437168
O O10 0.778916 0.371961 0.428743
O O11 0.906262 0.350945 0.366726
O O12 0.852948 0.250000 0.061708
O O13 0.790832 0.131713 0.103051
O O14 0.750000 0.181135 0.000000
O O15 0.886518 0.129639 0.003494
O O16 0.250000 0.500000 0.614079
O O17 0.912373 0.750000 0.055746
O O18 0.860267 0.636846 0.113710
O O19 0.000000 0.632887 0.073358
O O20 0.723733 0.750000 0.852433
O O21 0.500000 0.647814 0.277402
O O22 0.391867 0.750000 0.283587
#
# Coordination Sequence:
#
# PCOD8280014 Si02
#       8
#    16  16  16  16  16  16  16  16
#     4  10  21  35  50  73 103 140 179 215 256 315
#     4  11  22  34  53  78 102 130 163 206 263 320
#     4  10  20  34  56  81 101 127 163 208 265 321
#     4   7  11  21  40  65  89 116 154 202 251 291
#     4  10  20  37  53  71  99 133 170 213 253 310
#     4   8  13  23  43  73 103 128 162 210 258 305
#     4   9  16  29  49  70  97 135 175 212 254 312
#     4   9  18  35  58  80 102 130 171 226 277 315
#
# _framework density 17.693442999999998
#
# number of rings (size 3 to 8) (size 9 to 14) (size 15 to 20)
#    0.000    2.750    1.250    2.625    0.000    2.250 
#    0.000    1.875    0.000    5.625    0.000    0.875 
#    0.000    0.000    0.000    0.000    0.000    0.000 
#
# Total GULP energy -793036.877386 kJ/mol
# GULP energy per Si atom -12391.201209 kJ/mol
# Density = 1.765317 g / cm^3
# Si number density = 17.693443 Si / 1000 Ang^3
#
#
#
# Elastic Constant Matrix: (Units=GPa)
#
#
# Indices 1 2 3 4 5 6 
#
# 1 124.6363 33.2052 56.6393 0.0000 0.0000 0.0000
# 2 33.2052 57.0798 26.8432 0.0000 0.0000 0.0000
# 3 56.6393 26.8432 95.1795 0.0000 0.0000 0.0000
# 4 0.0000 0.0000 0.0000 17.3886 0.0000 0.0000
# 5 0.0000 0.0000 0.0000 0.0000 22.4902 0.0000
# 6 0.0000 0.0000 0.0000 0.0000 0.0000 18.4492
#
#
#
# Elastic Compliance Matrix: (Units=1/GPa)
#
#
# Indices 1 2 3 4 5 6 
#
# 1 0.011774 -0.004098 -0.005851 0.000000 0.000000 0.000000
# 2 -0.004098 0.021624 -0.003660 0.000000 0.000000 0.000000
# 3 -0.005851 -0.003660 0.015020 0.000000 0.000000 0.000000
# 4 0.000000 0.000000 0.000000 0.057509 0.000000 0.000000
# 5 0.000000 0.000000 0.000000 0.000000 0.044464 0.000000
# 6 0.000000 0.000000 0.000000 0.000000 0.000000 0.054203
#
#
# Mechanical properties :
#
#
# Convention : Reuss Voigt Hill
#
# Bulk Modulus (GPa) = 47.16682 56.69678 51.93180
# Shear Modulus (GPa) = 20.93113 22.34612 21.63863
#
# Velocity S-wave (km/s) = 3.44319 3.55767 3.50090
# Velocity P-wave (km/s) = 6.52097 6.99925 6.76434
#
# Compressibility (1/GPa) = 0.02120134
#
# Stress axis : x y z
#
# Youngs Moduli (GPa) = 84.93417 46.24397 66.57643
#
# Poissons Ratio (x) = 0.18950 0.38952
# Poissons Ratio (y) = 0.34804 0.24368
# Poissons Ratio (z) = 0.49692 0.16926
#
# Static dielectric constant tensor:
#      x y z
#    x 3.372500 0.000000 0.000000 
#    y 0.000000 2.986760 0.000000 
#    z 0.000000 0.000000 3.391140 
# 
# 
# High freq. dielectric constant tensor:
#      x y z
#    x 1.677400 0.000000 0.000000 
#    y 0.000000 1.650180 0.000000 
#    z 0.000000 0.000000 1.677600 
# 
# From -- ./inp_files/42262.got.cif
#   From: 2010.03.12/outbox.cif.g09.slc.cpg/sg67_22_cif.got.tgz:42262.got - 2010.04.10 22:41:39.
