data_PCOD8280035
_publ_section_title
;
Structure prediction by ZEFSAII (Michael W. Deem and Ramdas Pophale) SiO2 
 PCOD8280035
Probable space group: C M M A
;
_chemical_formula_sum "Si O2"
_cell_formula_units_Z 112
_cell_length_a 13.998412
_cell_length_b 17.198093
_cell_length_c 22.762230
_cell_angle_alpha 90.000000
_cell_angle_beta 90.000000
_cell_angle_gamma 90.000000
_cell_volume 5479.915628
_symmetry_space_group_name_H-M "C M M A"
_symmetry_group_IT_number 67
_symmetry_cell_setting 'orthorhombic'
loop_
_space_group_symop_operation_xyz
x,y,z
-x,1/2-y,z
x,-y,-z
-x,1/2+y,-z
-x,-y,-z
x,1/2+y,-z
-x,y,z
x,1/2-y,z
1/2+x,1/2+y,z
1/2-x,-y,z
1/2+x,1/2-y,-z
1/2-x,y,-z
1/2-x,1/2-y,-z
1/2+x,y,-z
1/2-x,1/2+y,z
1/2+x,-y,z
loop_
_atom_site_type_symbol
_atom_site_label
_atom_site_fract_x
_atom_site_fract_y
_atom_site_fract_z
Si Si1 0.139713 0.415358 0.013058
Si Si2 0.722091 0.159080 0.415541
Si Si3 0.110989 0.088710 0.480795
Si Si4 0.225846 0.411403 0.806434
Si Si5 0.390344 0.341912 0.300001
Si Si6 0.106822 0.662140 0.864013
Si Si7 0.104745 0.163543 0.899438
O O1 0.118105 0.392673 0.079627
O O2 0.095117 0.500000 0.000000
O O3 0.250000 0.415695 0.000000
O O4 0.093186 0.353797 0.968503
O O5 0.748021 0.250000 0.413976
O O6 0.820021 0.109577 0.425523
O O7 0.644541 0.144593 0.466608
O O8 0.672268 0.131241 0.355628
O O9 0.000000 0.104703 0.464914
O O10 0.127037 0.000000 0.500000
O O11 0.250000 0.500000 0.794760
O O12 0.156738 0.380136 0.756485
O O13 0.325136 0.364358 0.810469
O O14 0.172504 0.399977 0.868812
O O15 0.500000 0.370651 0.307343
O O16 0.387882 0.250000 0.292403
O O17 0.131063 0.750000 0.882732
O O18 0.000000 0.654896 0.839118
O O19 0.148430 0.250000 0.890755
O O20 0.000000 0.160530 0.870152
#
# Coordination Sequence:
#
# PCOD8280035 Si02
#       7
#    16  16  16  16  16  16  16
#     4  11  22  36  57  87 118 148 184 231 292 350
#     4  10  20  35  59  89 121 158 204 254 298 343
#     4  10  20  34  56  88 129 171 205 241 291 347
#     4  12  25  40  61  87 114 147 189 241 296 351
#     4  10  22  42  66  89 115 152 199 251 302 349
#     4  11  24  41  60  82 113 153 189 228 287 356
#     4  11  23  39  62  88 112 146 192 239 288 345
#
# _framework density 20.438271
#
# number of rings (size 3 to 8) (size 9 to 14) (size 15 to 20)
#    0.000    1.286    1.429    5.571    0.000    9.143 
#    0.000    0.714    0.000    0.857    0.000    0.000 
#    0.000    0.000    0.000    0.000    0.000    0.000 
#
# Total GULP energy -694381.523620 kJ/mol
# GULP energy per Si atom -12399.670065 kJ/mol
# Density = 2.039175 g / cm^3
# Si number density = 20.438271 Si / 1000 Ang^3
#
#
#
# Elastic Constant Matrix: (Units=GPa)
#
#
# Indices 1 2 3 4 5 6 
#
# 1 168.6728 55.2173 52.6589 0.0000 0.0000 0.0000
# 2 55.2173 86.3684 29.5355 0.0000 0.0000 0.0000
# 3 52.6589 29.5355 87.8026 0.0000 0.0000 0.0000
# 4 0.0000 0.0000 0.0000 -13.8237 0.0000 0.0000
# 5 0.0000 0.0000 0.0000 0.0000 28.5067 0.0000
# 6 0.0000 0.0000 0.0000 0.0000 0.0000 26.5836
#
#
#
# Elastic Compliance Matrix: (Units=1/GPa)
#
#
# Indices 1 2 3 4 5 6 
#
# 1 0.008425 -0.004134 -0.003662 0.000000 0.000000 0.000000
# 2 -0.004134 0.015112 -0.002604 0.000000 0.000000 0.000000
# 3 -0.003662 -0.002604 0.014462 0.000000 0.000000 0.000000
# 4 0.000000 0.000000 0.000000 -0.072339 0.000000 0.000000
# 5 0.000000 0.000000 0.000000 0.000000 0.035079 0.000000
# 6 0.000000 0.000000 0.000000 0.000000 0.000000 0.037617
#
#
# Mechanical properties :
#
#
# Convention : Reuss Voigt Hill
#
# Bulk Modulus (GPa) = 58.14688 68.62968 63.38828
# Shear Modulus (GPa) = 77.05388 21.94879 49.50133
#
# Velocity S-wave (km/s) = 6.14676 3.28061 4.92671
# Velocity P-wave (km/s) = 8.88193 6.92833 7.96525
#
# Compressibility (1/GPa) = 0.01719783
#
# Stress axis : x y z
#
# Youngs Moduli (GPa) = 118.68911 66.17331 69.14851
#
# Poissons Ratio (x) = 0.27357 0.25325
# Poissons Ratio (y) = 0.49067 0.18006
# Poissons Ratio (z) = 0.43469 0.17232
#
# Static dielectric constant tensor:
#      x y z
#    x 4.038500 0.000000 0.000000 
#    y 0.000000 3.786400 0.000000 
#    z 0.000000 0.000000 3.580120 
# 
# 
# High freq. dielectric constant tensor:
#      x y z
#    x 1.819740 0.000000 0.000000 
#    y 0.000000 1.801480 0.000000 
#    z 0.000000 0.000000 1.772990 
# 
# From -- ./inp_files/41955.got.cif
#   From: 2010.03.12/outbox.cif.g09.slc.cpg/sg67_21_cif.got.tgz:41955.got - 2010.04.10 22:41:39.
