data_PCOD8280605
_publ_section_title
;
Structure prediction by ZEFSAII (Michael W. Deem and Ramdas Pophale) SiO2 
 PCOD8280605
Probable space group: C M M A
;
_chemical_formula_sum "Si O2"
_cell_formula_units_Z 88
_cell_length_a 20.081406
_cell_length_b 14.087648
_cell_length_c 16.347598
_cell_angle_alpha 90.000000
_cell_angle_beta 90.000000
_cell_angle_gamma 90.000000
_cell_volume 4624.731863
_symmetry_space_group_name_H-M "C M M A"
_symmetry_group_IT_number 67
_symmetry_cell_setting 'orthorhombic'
loop_
_space_group_symop_operation_xyz
x,y,z
-x,1/2-y,z
x,-y,-z
-x,1/2+y,-z
-x,-y,-z
x,1/2+y,-z
-x,y,z
x,1/2-y,z
1/2+x,1/2+y,z
1/2-x,-y,z
1/2+x,1/2-y,-z
1/2-x,y,-z
1/2-x,1/2-y,-z
1/2+x,y,-z
1/2-x,1/2+y,z
1/2+x,-y,z
loop_
_atom_site_type_symbol
_atom_site_label
_atom_site_fract_x
_atom_site_fract_y
_atom_site_fract_z
Si Si1 0.750000 0.000000 0.208897
Si Si2 0.873368 0.524386 0.306509
Si Si3 0.574508 0.356093 0.596542
Si Si4 0.574469 0.139470 0.155301
Si Si5 0.818620 0.360043 0.540740
Si Si6 0.708877 0.638951 0.922349
O O1 0.687337 0.972951 0.262844
O O2 0.742084 0.095136 0.157024
O O3 0.919739 0.438096 0.335809
O O4 0.914041 0.587071 0.241514
O O5 0.840698 0.587343 0.377520
O O6 0.500000 0.358781 0.560821
O O7 0.589719 0.250000 0.632358
O O8 0.623500 0.380219 0.523311
O O9 0.500000 0.114552 0.122641
O O10 0.580800 0.250000 0.175804
O O11 0.629224 0.113266 0.084161
O O12 0.810147 0.250000 0.563018
O O13 0.750000 0.398820 0.500000
O O14 0.720461 0.750000 0.919014
O O15 0.750000 0.597026 0.000000
#
# Coordination Sequence:
#
# PCOD8280605 Si02
#       6
#     8  16  16  16  16  16
#     4  10  21  32  51  80 106 130 166 210 251 300
#     4  11  20  32  52  75 102 138 173 212 264 313
#     4  10  22  37  51  70  99 138 181 221 261 306
#     4   9  18  32  52  81 110 132 163 210 260 309
#     4  10  21  36  53  74 101 134 177 225 267 311
#     4   9  18  34  56  79 104 136 169 201 244 300
#
# _framework density 19.028129
#
# number of rings (size 3 to 8) (size 9 to 14) (size 15 to 20)
#    0.000    2.182    0.000    3.000    0.000    4.364 
#    0.000    1.818    0.000    9.818    0.000    2.545 
#    0.000    0.000    0.000    0.000    0.000    0.000 
#
# Total GULP energy -545242.831471 kJ/mol
# GULP energy per Si atom -12391.882533 kJ/mol
# Density = 1.898482 g / cm^3
# Si number density = 19.028129 Si / 1000 Ang^3
#
#
#
# Elastic Constant Matrix: (Units=GPa)
#
#
# Indices 1 2 3 4 5 6 
#
# 1 164.9431 42.5028 68.0690 0.0000 0.0000 0.0000
# 2 42.5028 57.3462 36.5455 0.0000 0.0000 0.0000
# 3 68.0690 36.5455 87.6973 0.0000 0.0000 0.0000
# 4 0.0000 0.0000 0.0000 25.1459 0.0000 0.0000
# 5 0.0000 0.0000 0.0000 0.0000 29.9765 0.0000
# 6 0.0000 0.0000 0.0000 0.0000 0.0000 18.9152
#
#
#
# Elastic Compliance Matrix: (Units=1/GPa)
#
#
# Indices 1 2 3 4 5 6 
#
# 1 0.009314 -0.003126 -0.005927 0.000000 0.000000 0.000000
# 2 -0.003126 0.024793 -0.007905 0.000000 0.000000 0.000000
# 3 -0.005927 -0.007905 0.019297 0.000000 0.000000 0.000000
# 4 0.000000 0.000000 0.000000 0.039768 0.000000 0.000000
# 5 0.000000 0.000000 0.000000 0.000000 0.033359 0.000000
# 6 0.000000 0.000000 0.000000 0.000000 0.000000 0.052868
#
#
# Mechanical properties :
#
#
# Convention : Reuss Voigt Hill
#
# Bulk Modulus (GPa) = 51.31363 67.13568 59.22466
# Shear Modulus (GPa) = 22.74676 25.66546 24.20611
#
# Velocity S-wave (km/s) = 3.46125 3.67661 3.57055
# Velocity P-wave (km/s) = 6.55740 7.30631 6.94196
#
# Compressibility (1/GPa) = 0.01948800
#
# Stress axis : x y z
#
# Youngs Moduli (GPa) = 107.36398 40.33415 51.82080
#
# Poissons Ratio (x) = 0.12610 0.30712
# Poissons Ratio (y) = 0.33566 0.40965
# Poissons Ratio (z) = 0.63631 0.31885
#
# Static dielectric constant tensor:
#      x y z
#    x 4.015020 0.000000 0.000000 
#    y 0.000000 3.552980 0.000000 
#    z 0.000000 0.000000 3.447940 
# 
# 
# High freq. dielectric constant tensor:
#      x y z
#    x 1.754840 0.000000 0.000000 
#    y 0.000000 1.749140 0.000000 
#    z 0.000000 0.000000 1.717230 
# 
# From -- ./inp_files/27038.got.cif
#   From: 2010.03.12/outbox.cif.g09.slc.cpg/sg67_14_cif.got.tgz:27038.got - 2010.04.10 22:41:39.
