data_PCOD8280318
_publ_section_title
;
Structure prediction by ZEFSAII (Michael W. Deem and Ramdas Pophale) SiO2 
 PCOD8280318
Probable space group: C M M A
;
_chemical_formula_sum "Si O2"
_cell_formula_units_Z 96
_cell_length_a 18.693041
_cell_length_b 14.406077
_cell_length_c 17.855994
_cell_angle_alpha 90.000000
_cell_angle_beta 90.000000
_cell_angle_gamma 90.000000
_cell_volume 4808.501121
_symmetry_space_group_name_H-M "C M M A"
_symmetry_group_IT_number 67
_symmetry_cell_setting 'orthorhombic'
loop_
_space_group_symop_operation_xyz
x,y,z
-x,1/2-y,z
x,-y,-z
-x,1/2+y,-z
-x,-y,-z
x,1/2+y,-z
-x,y,z
x,1/2-y,z
1/2+x,1/2+y,z
1/2-x,-y,z
1/2+x,1/2-y,-z
1/2-x,y,-z
1/2-x,1/2-y,-z
1/2+x,y,-z
1/2-x,1/2+y,z
1/2+x,-y,z
loop_
_atom_site_type_symbol
_atom_site_label
_atom_site_fract_x
_atom_site_fract_y
_atom_site_fract_z
Si Si1 0.800567 0.643959 0.834635
Si Si2 0.781470 0.858945 0.659074
Si Si3 0.081317 0.518376 0.915039
Si Si4 0.858684 0.855762 0.165563
Si Si5 0.154801 0.016527 0.587222
Si Si6 0.920850 0.352567 0.678296
O O1 0.819386 0.750000 0.852540
O O2 0.794234 0.626731 0.746626
O O3 0.862354 0.585186 0.874077
O O4 0.720995 0.618633 0.864488
O O5 0.778152 0.750000 0.637511
O O6 0.715134 0.914654 0.622429
O O7 0.848684 0.913175 0.622708
O O8 0.083229 0.419035 0.874877
O O9 0.000000 0.557946 0.909634
O O10 0.104466 0.500000 0.000000
O O11 0.877597 0.750000 0.145961
O O12 0.863167 0.870737 0.255509
O O13 0.083539 0.071889 0.611256
O O14 0.164370 0.000000 0.500000
O O15 0.906719 0.250000 0.644728
O O16 0.000000 0.358777 0.713501
#
# Coordination Sequence:
#
# PCOD8280318 Si02
#       6
#    16  16  16  16  16  16
#     4  10  21  38  64  89 115 155 202 252 296 350
#     4  10  20  36  56  83 115 150 198 251 303 354
#     4  11  25  41  58  87 127 165 196 236 298 367
#     4  10  20  37  63  91 114 149 207 260 300 343
#     4  11  22  33  54  86 119 157 197 243 303 365
#     4  10  20  36  60  87 116 155 204 257 307 358
#
# _framework density 19.964642000000001
#
# number of rings (size 3 to 8) (size 9 to 14) (size 15 to 20)
#    0.000    1.667    1.667    3.500    2.333    5.667 
#    0.000    3.333    0.000    1.500    0.000    0.000 
#    0.000    0.000    0.000    0.000    0.000    0.000 
#
# Total GULP energy -594633.661566 kJ/mol
# GULP energy per Si atom -12388.201283 kJ/mol
# Density = 1.991920 g / cm^3
# Si number density = 19.964642 Si / 1000 Ang^3
#
#
#
# Elastic Constant Matrix: (Units=GPa)
#
#
# Indices 1 2 3 4 5 6 
#
# 1 95.4507 48.7034 44.7216 0.0000 0.0000 0.0000
# 2 48.7034 129.6018 63.5122 0.0000 0.0000 0.0000
# 3 44.7216 63.5122 105.4593 0.0000 0.0000 0.0000
# 4 0.0000 0.0000 0.0000 10.3242 0.0000 0.0000
# 5 0.0000 0.0000 0.0000 0.0000 30.9135 0.0000
# 6 0.0000 0.0000 0.0000 0.0000 0.0000 27.4783
#
#
#
# Elastic Compliance Matrix: (Units=1/GPa)
#
#
# Indices 1 2 3 4 5 6 
#
# 1 0.014026 -0.003342 -0.003935 0.000000 0.000000 0.000000
# 2 -0.003342 0.011743 -0.005655 0.000000 0.000000 0.000000
# 3 -0.003935 -0.005655 0.014557 0.000000 0.000000 0.000000
# 4 0.000000 0.000000 0.000000 0.096859 0.000000 0.000000
# 5 0.000000 0.000000 0.000000 0.000000 0.032348 0.000000
# 6 0.000000 0.000000 0.000000 0.000000 0.000000 0.036392
#
#
# Mechanical properties :
#
#
# Convention : Reuss Voigt Hill
#
# Bulk Modulus (GPa) = 69.15073 71.59847 70.37460
# Shear Modulus (GPa) = 21.13182 25.31487 23.22334
#
# Velocity S-wave (km/s) = 3.25693 3.56474 3.41431
# Velocity P-wave (km/s) = 6.98965 7.27212 7.13228
#
# Compressibility (1/GPa) = 0.01446116
#
# Stress axis : x y z
#
# Youngs Moduli (GPa) = 71.29785 85.15551 68.69756
#
# Poissons Ratio (x) = 0.28463 0.27031
# Poissons Ratio (y) = 0.23831 0.38848
# Poissons Ratio (z) = 0.28054 0.48154
#
# Static dielectric constant tensor:
#      x y z
#    x 3.750590 0.000000 0.000000 
#    y 0.000000 4.670710 0.000000 
#    z 0.000000 0.000000 3.559670 
# 
# 
# High freq. dielectric constant tensor:
#      x y z
#    x 1.769590 0.000000 0.000000 
#    y 0.000000 1.790630 0.000000 
#    z 0.000000 0.000000 1.766180 
# 
# From -- ./inp_files/29264.got.cif
#   From: 2010.03.12/outbox.cif.g09.slc.cpg/sg67_15_cif.got.tgz:29264.got - 2010.04.10 22:41:39.
