data_PCOD8280320
_publ_section_title
;
Structure prediction by ZEFSAII (Michael W. Deem and Ramdas Pophale) SiO2 
 PCOD8280320
Probable space group: C M M A
;
_chemical_formula_sum "Si O2"
_cell_formula_units_Z 68
_cell_length_a 20.440896
_cell_length_b 13.112729
_cell_length_c 12.146978
_cell_angle_alpha 90.000000
_cell_angle_beta 90.000000
_cell_angle_gamma 90.000000
_cell_volume 3255.826542
_symmetry_space_group_name_H-M "C M M A"
_symmetry_group_IT_number 67
_symmetry_cell_setting 'orthorhombic'
loop_
_space_group_symop_operation_xyz
x,y,z
-x,1/2-y,z
x,-y,-z
-x,1/2+y,-z
-x,-y,-z
x,1/2+y,-z
-x,y,z
x,1/2-y,z
1/2+x,1/2+y,z
1/2-x,-y,z
1/2+x,1/2-y,-z
1/2-x,y,-z
1/2-x,1/2-y,-z
1/2+x,y,-z
1/2-x,1/2+y,z
1/2+x,-y,z
loop_
_atom_site_type_symbol
_atom_site_label
_atom_site_fract_x
_atom_site_fract_y
_atom_site_fract_z
Si Si1 0.928723 0.631276 0.190124
Si Si2 0.428960 0.871558 0.054860
Si Si3 0.697344 0.129108 0.309647
Si Si4 0.212366 0.629742 0.891112
Si Si5 0.750000 0.500000 0.500000
O O1 0.914815 0.750000 0.172359
O O2 0.873074 0.588492 0.269373
O O3 0.000000 0.611918 0.243883
O O4 0.925526 0.579884 0.068688
O O5 0.500000 0.902838 0.109446
O O6 0.427587 0.750000 0.044525
O O7 0.363480 0.908339 0.118628
O O8 0.699995 0.250000 0.329332
O O9 0.750819 0.093474 0.219148
O O10 0.706323 0.073393 0.425128
O O11 0.214470 0.750000 0.898696
O O12 0.250000 0.586647 0.000000
#
# Coordination Sequence:
#
# PCOD8280320 Si02
#       5
#    16  16  16  16   4
#     4   8  13  24  48  81 110 137 169 207 260 323
#     4   8  12  19  38  74 113 139 164 200 251 325
#     4  10  20  36  57  78 107 142 178 225 269 312
#     4   9  14  24  47  78 106 134 166 207 266 322
#     4  12  26  40  52  74 100 140 198 236 260 306
#
# _framework density 20.885634
#
# number of rings (size 3 to 8) (size 9 to 14) (size 15 to 20)
#    0.000    3.059    2.353    1.765    0.000    0.000 
#    0.000    1.176    0.000    2.824    0.000    9.882 
#    0.000    0.000    0.000    0.000    0.000    0.000 
#
# Total GULP energy -421246.187557 kJ/mol
# GULP energy per Si atom -12389.593752 kJ/mol
# Density = 2.083810 g / cm^3
# Si number density = 20.885634 Si / 1000 Ang^3
#
#
#
# Elastic Constant Matrix: (Units=GPa)
#
#
# Indices 1 2 3 4 5 6 
#
# 1 230.5990 27.0008 77.6970 0.0000 0.0000 0.0000
# 2 27.0008 49.6814 26.2716 0.0000 0.0000 0.0000
# 3 77.6970 26.2716 123.4818 0.0000 0.0000 0.0000
# 4 0.0000 0.0000 0.0000 -17.2672 0.0000 0.0000
# 5 0.0000 0.0000 0.0000 0.0000 24.2192 0.0000
# 6 0.0000 0.0000 0.0000 0.0000 0.0000 0.6460
#
#
#
# Elastic Compliance Matrix: (Units=1/GPa)
#
#
# Indices 1 2 3 4 5 6 
#
# 1 0.005580 -0.001325 -0.003229 0.000000 0.000000 0.000000
# 2 -0.001325 0.022994 -0.004059 0.000000 0.000000 0.000000
# 3 -0.003229 -0.004059 0.010994 0.000000 0.000000 0.000000
# 4 0.000000 0.000000 0.000000 -0.057913 0.000000 0.000000
# 5 0.000000 0.000000 0.000000 0.000000 0.041290 0.000000
# 6 0.000000 0.000000 0.000000 0.000000 0.000000 1.547934
#
#
# Mechanical properties :
#
#
# Convention : Reuss Voigt Hill
#
# Bulk Modulus (GPa) = 44.75708 73.96677 59.36192
# Shear Modulus (GPa) = 3.13372 19.70580 11.41976
#
# Velocity S-wave (km/s) = 1.22624 3.07499 2.34086
# Velocity P-wave (km/s) = 4.84572 6.93538 5.98249
#
# Compressibility (1/GPa) = 0.02234283
#
# Stress axis : x y z
#
# Youngs Moduli (GPa) = 179.22434 43.48868 90.96267
#
# Poissons Ratio (x) = 0.05762 0.29371
# Poissons Ratio (y) = 0.23746 0.36918
# Poissons Ratio (z) = 0.57870 0.17650
#
# Static dielectric constant tensor:
#      x y z
#    x 4.352320 0.000000 0.000000 
#    y 0.000000 3.743240 0.000000 
#    z 0.000000 0.000000 3.374420 
# 
# 
# High freq. dielectric constant tensor:
#      x y z
#    x 1.836020 0.000000 0.000000 
#    y 0.000000 1.842940 0.000000 
#    z 0.000000 0.000000 1.747720 
# 
# From -- ./inp_files/17691.got.cif
#   From: 2010.03.12/outbox.cif.g09.slc.cpg/sg67_9_cif.got.tgz:17691.got - 2010.04.10 22:41:39.
