data_PCOD8280055
_publ_section_title
;
Structure prediction by ZEFSAII (Michael W. Deem and Ramdas Pophale) SiO2 
 PCOD8280055
Probable space group: C M M A
;
_chemical_formula_sum "Si O2"
_cell_formula_units_Z 96
_cell_length_a 17.864103
_cell_length_b 13.635952
_cell_length_c 20.589703
_cell_angle_alpha 90.000000
_cell_angle_beta 90.000000
_cell_angle_gamma 90.000000
_cell_volume 5015.529163
_symmetry_space_group_name_H-M "C M M A"
_symmetry_group_IT_number 67
_symmetry_cell_setting 'orthorhombic'
loop_
_space_group_symop_operation_xyz
x,y,z
-x,1/2-y,z
x,-y,-z
-x,1/2+y,-z
-x,-y,-z
x,1/2+y,-z
-x,y,z
x,1/2-y,z
1/2+x,1/2+y,z
1/2-x,-y,z
1/2+x,1/2-y,-z
1/2-x,y,-z
1/2-x,1/2-y,-z
1/2+x,y,-z
1/2-x,1/2+y,z
1/2+x,-y,z
loop_
_atom_site_type_symbol
_atom_site_label
_atom_site_fract_x
_atom_site_fract_y
_atom_site_fract_z
Si Si1 0.335385 0.863154 0.019635
Si Si2 0.587610 0.359497 0.599892
Si Si3 0.165655 0.027935 0.661068
Si Si4 0.413136 0.137004 0.224415
Si Si5 0.169824 0.363677 0.527238
Si Si6 0.912028 0.471214 0.907674
O O1 0.344581 0.750000 0.039734
O O2 0.362359 0.930766 0.080048
O O3 0.250000 0.887390 0.000000
O O4 0.389601 0.887924 0.959515
O O5 0.500000 0.361151 0.605517
O O6 0.620020 0.250000 0.610824
O O7 0.620040 0.426425 0.657419
O O8 0.610583 0.395144 0.527810
O O9 0.135700 0.099442 0.716091
O O10 0.153001 0.079881 0.592682
O O11 0.250000 0.000000 0.676904
O O12 0.500000 0.126730 0.242622
O O13 0.392690 0.250000 0.209587
O O14 0.392542 0.070608 0.162785
O O15 0.165396 0.250000 0.544347
O O16 0.250000 0.394829 0.500000
O O17 0.000000 0.495106 0.914729
#
# Coordination Sequence:
#
# PCOD8280055 Si02
#       6
#    16  16  16  16  16  16
#     4  10  20  34  58  91 124 154 188 235 286 337
#     4  10  22  38  56  80 111 146 183 230 289 348
#     4  12  23  35  59  86 111 146 190 235 290 352
#     4  10  23  42  60  81 113 153 198 245 291 343
#     4  10  20  36  57  82 113 142 179 231 289 350
#     4  10  20  36  59  84 115 155 197 241 285 331
#
# _framework density 19.140553000000001
#
# number of rings (size 3 to 8) (size 9 to 14) (size 15 to 20)
#    0.000    1.667    1.667    4.000    0.000    6.000 
#    0.000    2.500    0.000    1.000    0.000    0.000 
#    0.000    0.000    0.000    0.000    0.000    0.000 
#
# Total GULP energy -595233.067371 kJ/mol
# GULP energy per Si atom -12400.688904 kJ/mol
# Density = 1.909699 g / cm^3
# Si number density = 19.140553 Si / 1000 Ang^3
#
#
#
# Elastic Constant Matrix: (Units=GPa)
#
#
# Indices 1 2 3 4 5 6 
#
# 1 86.8055 57.9184 36.2420 0.0000 0.0000 0.0000
# 2 57.9184 137.0431 61.2755 0.0000 0.0000 0.0000
# 3 36.2420 61.2755 87.2206 0.0000 0.0000 0.0000
# 4 0.0000 0.0000 0.0000 31.3119 0.0000 0.0000
# 5 0.0000 0.0000 0.0000 0.0000 57.8908 0.0000
# 6 0.0000 0.0000 0.0000 0.0000 0.0000 23.0500
#
#
#
# Elastic Compliance Matrix: (Units=1/GPa)
#
#
# Indices 1 2 3 4 5 6 
#
# 1 0.016518 -0.005704 -0.002857 0.000000 0.000000 0.000000
# 2 -0.005704 0.012608 -0.006488 0.000000 0.000000 0.000000
# 3 -0.002857 -0.006488 0.017210 0.000000 0.000000 0.000000
# 4 0.000000 0.000000 0.000000 0.031937 0.000000 0.000000
# 5 0.000000 0.000000 0.000000 0.000000 0.017274 0.000000
# 6 0.000000 0.000000 0.000000 0.000000 0.000000 0.043384
#
#
# Mechanical properties :
#
#
# Convention : Reuss Voigt Hill
#
# Bulk Modulus (GPa) = 61.57483 69.10457 65.33970
# Shear Modulus (GPa) = 28.66289 32.82608 30.74448
#
# Velocity S-wave (km/s) = 3.87395 4.14575 4.01215
# Velocity P-wave (km/s) = 7.22839 7.68755 7.46150
#
# Compressibility (1/GPa) = 0.01624040
#
# Stress axis : x y z
#
# Youngs Moduli (GPa) = 60.53848 79.31161 58.10559
#
# Poissons Ratio (x) = 0.45239 0.16598
# Poissons Ratio (y) = 0.34531 0.37698
# Poissons Ratio (z) = 0.17293 0.51456
#
# Static dielectric constant tensor:
#      x y z
#    x 3.539600 0.000000 0.000000 
#    y 0.000000 3.832130 0.000000 
#    z 0.000000 0.000000 3.354110 
# 
# 
# High freq. dielectric constant tensor:
#      x y z
#    x 1.750300 0.000000 0.000000 
#    y 0.000000 1.762310 0.000000 
#    z 0.000000 0.000000 1.725260 
# 
# From -- ./inp_files/38467.got.cif
#   From: 2010.03.12/outbox.cif.g09.slc.cpg/sg67_20_cif.got.tgz:38467.got - 2010.04.10 22:41:39.
