data_PCOD8280785
_publ_section_title
;
Structure prediction by ZEFSAII (Michael W. Deem and Ramdas Pophale) SiO2 
 PCOD8280785
Probable space group: C M M A
;
_chemical_formula_sum "Si O2"
_cell_formula_units_Z 112
_cell_length_a 14.397478
_cell_length_b 14.680845
_cell_length_c 24.501860
_cell_angle_alpha 90.000000
_cell_angle_beta 90.000000
_cell_angle_gamma 90.000000
_cell_volume 5178.888144
_symmetry_space_group_name_H-M "C M M A"
_symmetry_group_IT_number 67
_symmetry_cell_setting 'orthorhombic'
loop_
_space_group_symop_operation_xyz
x,y,z
-x,1/2-y,z
x,-y,-z
-x,1/2+y,-z
-x,-y,-z
x,1/2+y,-z
-x,y,z
x,1/2-y,z
1/2+x,1/2+y,z
1/2-x,-y,z
1/2+x,1/2-y,-z
1/2-x,y,-z
1/2-x,1/2-y,-z
1/2+x,y,-z
1/2-x,1/2+y,z
1/2+x,-y,z
loop_
_atom_site_type_symbol
_atom_site_label
_atom_site_fract_x
_atom_site_fract_y
_atom_site_fract_z
Si Si1 0.395118 0.856729 0.947263
Si Si2 0.892648 0.651291 0.934033
Si Si3 0.734106 0.353370 0.705699
Si Si4 0.241192 0.100670 0.412010
Si Si5 0.149700 0.989039 0.143660
Si Si6 0.396057 0.484462 0.260644
Si Si7 0.604703 0.354932 0.495231
O O1 0.500000 0.894043 0.941857
O O2 0.389550 0.750000 0.936106
O O3 0.338998 0.907526 0.899884
O O4 0.351720 0.880581 0.006981
O O5 0.849078 0.750000 0.917500
O O6 0.880422 0.580775 0.886055
O O7 0.000000 0.666321 0.946662
O O8 0.730990 0.250000 0.730908
O O9 0.720588 0.338308 0.640622
O O10 0.651055 0.416404 0.729154
O O11 0.834029 0.401245 0.716399
O O12 0.336691 0.132722 0.440095
O O13 0.156029 0.095968 0.454708
O O14 0.250000 0.000000 0.387840
O O15 0.250000 0.000000 0.170936
O O16 0.085661 0.969708 0.195638
O O17 0.500000 0.482105 0.287149
O O18 0.500000 0.393806 0.487815
O O19 0.601522 0.250000 0.510940
#
# Coordination Sequence:
#
# PCOD8280785 Si02
#       7
#    16  16  16  16  16  16  16
#     4   9  19  36  58  86 119 156 200 248 304 378
#     4   9  19  36  58  86 119 156 200 248 304 378
#     4  11  24  47  71  97 131 172 223 280 337 390
#     4  11  21  39  64  90 133 176 211 268 323 371
#     4  12  23  38  59  85 121 161 202 259 322 377
#     4  11  25  47  68  95 128 167 222 282 336 397
#     4  10  21  36  59  97 136 174 219 255 304 384
#
# _framework density 21.626263000000002
#
# number of rings (size 3 to 8) (size 9 to 14) (size 15 to 20)
#    0.000    1.571    2.857    5.143    0.000    6.857 
#    0.000    1.429    0.000    0.000    0.000    0.000 
#    0.000    0.000    0.000    0.000    0.000    0.000 
#
# Total GULP energy -694064.470985 kJ/mol
# GULP energy per Si atom -12394.008410 kJ/mol
# Density = 2.157704 g / cm^3
# Si number density = 21.626263 Si / 1000 Ang^3
#
#
#
# Elastic Constant Matrix: (Units=GPa)
#
#
# Indices 1 2 3 4 5 6 
#
# 1 112.7541 6.3498 5.3661 0.0000 0.0000 0.0000
# 2 6.3498 101.8196 14.2440 0.0000 0.0000 0.0000
# 3 5.3661 14.2440 109.4070 0.0000 0.0000 0.0000
# 4 0.0000 0.0000 0.0000 14.8536 0.0000 0.0000
# 5 0.0000 0.0000 0.0000 0.0000 17.7402 0.0000
# 6 0.0000 0.0000 0.0000 0.0000 0.0000 25.0981
#
#
#
# Elastic Compliance Matrix: (Units=1/GPa)
#
#
# Indices 1 2 3 4 5 6 
#
# 1 0.008915 -0.000504 -0.000372 0.000000 0.000000 0.000000
# 2 -0.000504 0.010032 -0.001281 0.000000 0.000000 0.000000
# 3 -0.000372 -0.001281 0.009325 0.000000 0.000000 0.000000
# 4 0.000000 0.000000 0.000000 0.067324 0.000000 0.000000
# 5 0.000000 0.000000 0.000000 0.000000 0.056369 0.000000
# 6 0.000000 0.000000 0.000000 0.000000 0.000000 0.039844
#
#
# Mechanical properties :
#
#
# Convention : Reuss Voigt Hill
#
# Bulk Modulus (GPa) = 41.73942 41.76673 41.75307
# Shear Modulus (GPa) = 24.49675 31.40644 27.95159
#
# Velocity S-wave (km/s) = 3.36926 3.81496 3.59901
# Velocity P-wave (km/s) = 5.87181 6.22576 6.05137
#
# Compressibility (1/GPa) = 0.02395817
#
# Stress axis : x y z
#
# Youngs Moduli (GPa) = 112.17141 99.68122 107.23592
#
# Poissons Ratio (x) = 0.05024 0.03985
# Poissons Ratio (y) = 0.05653 0.13741
# Poissons Ratio (z) = 0.04169 0.12773
#
# Static dielectric constant tensor:
#      x y z
#    x 4.035110 0.000000 0.000000 
#    y 0.000000 3.914270 0.000000 
#    z 0.000000 0.000000 3.721570 
# 
# 
# High freq. dielectric constant tensor:
#      x y z
#    x 1.845660 0.000000 0.000000 
#    y 0.000000 1.852710 0.000000 
#    z 0.000000 0.000000 1.844410 
# 
# From -- ./inp_files/42019.got.cif
#   From: 2010.03.12/outbox.cif.g09.slc.cpg/sg67_22_cif.got.tgz:42019.got - 2010.04.10 22:41:39.
