data_PCOD8280607
_publ_section_title
;
Structure prediction by ZEFSAII (Michael W. Deem and Ramdas Pophale) SiO2 
 PCOD8280607
Probable space group: C M M A
;
_chemical_formula_sum "Si O2"
_cell_formula_units_Z 96
_cell_length_a 14.222342
_cell_length_b 31.521265
_cell_length_c 14.200842
_cell_angle_alpha 90.000000
_cell_angle_beta 90.000000
_cell_angle_gamma 90.000000
_cell_volume 6366.325671
_symmetry_space_group_name_H-M "C M M A"
_symmetry_group_IT_number 67
_symmetry_cell_setting 'orthorhombic'
loop_
_space_group_symop_operation_xyz
x,y,z
-x,1/2-y,z
x,-y,-z
-x,1/2+y,-z
-x,-y,-z
x,1/2+y,-z
-x,y,z
x,1/2-y,z
1/2+x,1/2+y,z
1/2-x,-y,z
1/2+x,1/2-y,-z
1/2-x,y,-z
1/2-x,1/2-y,-z
1/2+x,y,-z
1/2-x,1/2+y,z
1/2+x,-y,z
loop_
_atom_site_type_symbol
_atom_site_label
_atom_site_fract_x
_atom_site_fract_y
_atom_site_fract_z
Si Si1 0.104144 0.999899 0.888065
Si Si2 0.104174 0.800470 0.483954
Si Si3 0.750165 0.931423 0.111389
Si Si4 0.240966 0.335585 0.145474
Si Si5 0.609502 0.800021 0.989084
Si Si6 0.734668 0.800137 0.350175
O O1 0.158366 0.042250 0.854986
O O2 0.000000 0.999885 0.843674
O O3 0.158222 0.957476 0.855091
O O4 0.100479 0.000000 0.000000
O O5 0.100180 0.750000 0.484438
O O6 0.166325 0.815683 0.394904
O O7 0.150729 0.815960 0.581756
O O8 0.000000 0.820213 0.474925
O O9 0.751804 0.885745 0.158872
O O10 0.750000 0.924978 0.000000
O O11 0.153197 0.324404 0.078193
O O12 0.218425 0.318444 0.247747
O O13 0.337058 0.315124 0.105175
O O14 0.500000 0.811978 0.979808
O O15 0.624207 0.750000 0.002858
O O16 0.733729 0.750000 0.342516
#
# Coordination Sequence:
#
# PCOD8280607 Si02
#       6
#    16  16  16  16  16  16
#     4   8  15  27  44  59  79 108 139 176 219 263
#     4   8  15  29  46  63  83 106 139 182 225 271
#     4   9  16  28  41  62  84 110 146 177 215 257
#     4  11  19  31  45  63  90 115 149 193 217 251
#     4  10  21  33  42  55  83 127 164 185 209 241
#     4   9  17  28  45  65  84 114 147 178 223 260
#
# _framework density 15.079342
#
# number of rings (size 3 to 8) (size 9 to 14) (size 15 to 20)
#    0.000    2.833    1.667    4.000    0.000    2.667 
#    0.000    3.333    0.000    0.000    0.000    0.000 
#    0.000   10.667    0.000   12.000    0.000    0.000 
#
# Total GULP energy -594969.045788 kJ/mol
# GULP energy per Si atom -12395.188454 kJ/mol
# Density = 1.504502 g / cm^3
# Si number density = 15.079342 Si / 1000 Ang^3
#
#
#
# Elastic Constant Matrix: (Units=GPa)
#
#
# Indices 1 2 3 4 5 6 
#
# 1 104.1552 22.0804 -3.8044 0.0000 0.0000 0.0000
# 2 22.0804 67.0780 0.7291 0.0000 0.0000 0.0000
# 3 -3.8044 0.7291 37.4721 0.0000 0.0000 0.0000
# 4 0.0000 0.0000 0.0000 -0.2893 0.0000 0.0000
# 5 0.0000 0.0000 0.0000 0.0000 8.0093 0.0000
# 6 0.0000 0.0000 0.0000 0.0000 0.0000 10.3263
#
#
#
# Elastic Compliance Matrix: (Units=1/GPa)
#
#
# Indices 1 2 3 4 5 6 
#
# 1 0.010368 -0.003425 0.001119 0.000000 0.000000 0.000000
# 2 -0.003425 0.016043 -0.000660 0.000000 0.000000 0.000000
# 3 0.001119 -0.000660 0.026813 0.000000 0.000000 0.000000
# 4 0.000000 0.000000 0.000000 -3.456523 0.000000 0.000000
# 5 0.000000 0.000000 0.000000 0.000000 0.124854 0.000000
# 6 0.000000 0.000000 0.000000 0.000000 0.000000 0.096840
#
#
# Mechanical properties :
#
#
# Convention : Reuss Voigt Hill
#
# Bulk Modulus (GPa) = 21.14508 27.41283 24.27895
# Shear Modulus (GPa) = -1.58232 16.25595 7.33681
#
# Velocity S-wave (km/s) = -1.02548 3.28690 2.20817
# Velocity P-wave (km/s) = 3.55680 5.71169 4.75785
#
# Compressibility (1/GPa) = 0.04729233
#
# Stress axis : x y z
#
# Youngs Moduli (GPa) = 96.45024 62.33385 37.29536
#
# Poissons Ratio (x) = 0.21350 -0.04174
# Poissons Ratio (y) = 0.33035 0.02461
# Poissons Ratio (z) = -0.10795 0.04113
#
# Static dielectric constant tensor:
#      x y z
#    x 3.314520 0.000000 0.000000 
#    y 0.000000 2.808580 0.000000 
#    z 0.000000 0.000000 2.708620 
# 
# 
# High freq. dielectric constant tensor:
#      x y z
#    x 1.589920 0.000000 0.000000 
#    y 0.000000 1.555730 0.000000 
#    z 0.000000 0.000000 1.539080 
# 
# From -- ./inp_files/27816.got.cif
#   From: 2010.03.12/outbox.cif.g09.slc.cpg/sg67_14_cif.got.tgz:27816.got - 2010.04.10 22:41:39.
