data_PCOD8280470
_publ_section_title
;
Structure prediction by ZEFSAII (Michael W. Deem and Ramdas Pophale) SiO2 
 PCOD8280470
Probable space group: C M M A
;
_chemical_formula_sum "Si O2"
_cell_formula_units_Z 104
_cell_length_a 30.910608
_cell_length_b 8.933870
_cell_length_c 19.310160
_cell_angle_alpha 90.000000
_cell_angle_beta 90.000000
_cell_angle_gamma 90.000000
_cell_volume 5332.526820
_symmetry_space_group_name_H-M "C M M A"
_symmetry_group_IT_number 67
_symmetry_cell_setting 'orthorhombic'
loop_
_space_group_symop_operation_xyz
x,y,z
-x,1/2-y,z
x,-y,-z
-x,1/2+y,-z
-x,-y,-z
x,1/2+y,-z
-x,y,z
x,1/2-y,z
1/2+x,1/2+y,z
1/2-x,-y,z
1/2+x,1/2-y,-z
1/2-x,y,-z
1/2-x,1/2-y,-z
1/2+x,y,-z
1/2-x,1/2+y,z
1/2+x,-y,z
loop_
_atom_site_type_symbol
_atom_site_label
_atom_site_fract_x
_atom_site_fract_y
_atom_site_fract_z
Si Si1 0.423323 0.924050 0.067918
Si Si2 0.000000 0.580384 0.571349
Si Si3 0.405957 0.426210 0.575286
Si Si4 0.174781 0.424721 0.068091
Si Si5 0.294077 0.427211 0.783391
Si Si6 0.626242 0.572728 0.705055
Si Si7 0.451115 0.076855 0.782102
O O1 0.423995 0.750000 0.053180
O O2 0.374284 0.982410 0.079113
O O3 0.450423 0.963755 0.136409
O O4 0.444321 0.000000 0.000000
O O5 0.000000 0.500000 0.500000
O O6 0.954324 0.545683 0.609273
O O7 0.000000 0.750000 0.548728
O O8 0.401691 0.500000 0.500000
O O9 0.395345 0.250000 0.570369
O O10 0.373128 0.508563 0.626832
O O11 0.175528 0.250000 0.055521
O O12 0.201988 0.469033 0.135656
O O13 0.195699 0.500000 0.000000
O O14 0.294050 0.250000 0.771013
O O15 0.250000 0.500000 0.754834
O O16 0.333912 0.498193 0.743485
O O17 0.631694 0.750000 0.703743
O O18 0.581496 0.530285 0.742129
O O19 0.500000 0.052031 0.754427
O O20 0.436811 0.250000 0.770848
#
# Coordination Sequence:
#
# PCOD8280470 Si02
#       7
#    16   8  16  16  16  16  16
#     4   9  17  32  52  77 107 148 195 244 297 350
#     4   8  16  30  52  82 116 154 193 230 277 330
#     4  10  20  37  60  88 121 160 200 242 289 345
#     4   9  18  33  55  80 113 149 189 238 294 353
#     4  11  23  42  64  89 118 153 195 244 299 358
#     4  12  25  40  60  88 121 158 198 244 295 351
#     4  10  21  38  58  80 113 158 204 248 299 355
#
# _framework density 19.502949000000001
#
# number of rings (size 3 to 8) (size 9 to 14) (size 15 to 20)
#    0.000    2.000    1.538    2.308    1.077    3.385 
#    0.000    1.538    0.000    0.462    0.000    3.231 
#    0.000    0.000    0.000    0.000    0.000    0.000 
#
# Total GULP energy -644626.004873 kJ/mol
# GULP energy per Si atom -12396.653940 kJ/mol
# Density = 1.945856 g / cm^3
# Si number density = 19.502949 Si / 1000 Ang^3
#
#
#
# Elastic Constant Matrix: (Units=GPa)
#
#
# Indices 1 2 3 4 5 6 
#
# 1 92.7873 52.3857 46.3027 0.0000 0.0000 0.0000
# 2 52.3857 103.5787 61.6058 0.0000 0.0000 0.0000
# 3 46.3027 61.6058 98.2399 0.0000 0.0000 0.0000
# 4 0.0000 0.0000 0.0000 35.9135 0.0000 0.0000
# 5 0.0000 0.0000 0.0000 0.0000 11.5345 0.0000
# 6 0.0000 0.0000 0.0000 0.0000 0.0000 26.2692
#
#
#
# Elastic Compliance Matrix: (Units=1/GPa)
#
#
# Indices 1 2 3 4 5 6 
#
# 1 0.015982 -0.005746 -0.003930 0.000000 0.000000 0.000000
# 2 -0.005746 0.017463 -0.008243 0.000000 0.000000 0.000000
# 3 -0.003930 -0.008243 0.017200 0.000000 0.000000 0.000000
# 4 0.000000 0.000000 0.000000 0.027845 0.000000 0.000000
# 5 0.000000 0.000000 0.000000 0.000000 0.086696 0.000000
# 6 0.000000 0.000000 0.000000 0.000000 0.000000 0.038067
#
#
# Mechanical properties :
#
#
# Convention : Reuss Voigt Hill
#
# Bulk Modulus (GPa) = 67.52645 68.35493 67.94069
# Shear Modulus (GPa) = 20.48951 23.69756 22.09354
#
# Velocity S-wave (km/s) = 3.24479 3.48958 3.36941
# Velocity P-wave (km/s) = 6.98120 7.16664 7.07453
#
# Compressibility (1/GPa) = 0.01480901
#
# Stress axis : x y z
#
# Youngs Moduli (GPa) = 62.56909 57.26324 58.13843
#
# Poissons Ratio (x) = 0.32903 0.22846
# Poissons Ratio (y) = 0.35952 0.47923
# Poissons Ratio (z) = 0.24587 0.47201
#
# Static dielectric constant tensor:
#      x y z
#    x 3.515240 0.000000 0.000000 
#    y 0.000000 3.492060 0.000000 
#    z 0.000000 0.000000 3.553880 
# 
# 
# High freq. dielectric constant tensor:
#      x y z
#    x 1.743710 0.000000 0.000000 
#    y 0.000000 1.756810 0.000000 
#    z 0.000000 0.000000 1.759730 
# 
# From -- ./inp_files/40208.got.cif
#   From: 2010.03.12/outbox.cif.g09.slc.cpg/sg67_21_cif.got.tgz:40208.got - 2010.04.10 22:41:39.
