data_PCOD8280467
_publ_section_title
;
Structure prediction by ZEFSAII (Michael W. Deem and Ramdas Pophale) SiO2 
 PCOD8280467
Probable space group: C M M A
;
_chemical_formula_sum "Si O2"
_cell_formula_units_Z 96
_cell_length_a 15.484294
_cell_length_b 17.574221
_cell_length_c 17.491496
_cell_angle_alpha 90.000000
_cell_angle_beta 90.000000
_cell_angle_gamma 90.000000
_cell_volume 4759.862938
_symmetry_space_group_name_H-M "C M M A"
_symmetry_group_IT_number 67
_symmetry_cell_setting 'orthorhombic'
loop_
_space_group_symop_operation_xyz
x,y,z
-x,1/2-y,z
x,-y,-z
-x,1/2+y,-z
-x,-y,-z
x,1/2+y,-z
-x,y,z
x,1/2-y,z
1/2+x,1/2+y,z
1/2-x,-y,z
1/2+x,1/2-y,-z
1/2-x,y,-z
1/2-x,1/2-y,-z
1/2+x,y,-z
1/2-x,1/2+y,z
1/2+x,-y,z
loop_
_atom_site_type_symbol
_atom_site_label
_atom_site_fract_x
_atom_site_fract_y
_atom_site_fract_z
Si Si1 0.778467 0.159045 0.162208
Si Si2 0.593299 0.161413 0.110406
Si Si3 0.404228 0.933639 0.449989
Si Si4 0.098242 0.578927 0.958903
Si Si5 0.327923 0.165929 0.440169
Si Si6 0.772763 0.083904 0.318001
O O1 0.790840 0.250000 0.146114
O O2 0.678805 0.130722 0.152491
O O3 0.838857 0.106398 0.108831
O O4 0.800325 0.139835 0.249530
O O5 0.500000 0.126020 0.139237
O O6 0.589147 0.250000 0.123841
O O7 0.602942 0.145689 0.020722
O O8 0.500000 0.957878 0.425815
O O9 0.408619 0.863122 0.509669
O O10 0.355165 0.916567 0.372478
O O11 0.357699 0.000000 0.500000
O O12 0.000000 0.569099 0.927336
O O13 0.128469 0.500000 0.000000
O O14 0.346798 0.250000 0.410028
O O15 0.250000 0.161866 0.500000
O O16 0.309473 0.115911 0.364717
O O17 0.750000 0.000000 0.287004
#
# Coordination Sequence:
#
# PCOD8280467 Si02
#       6
#    16  16  16  16  16  16
#     4  11  24  39  60  92 126 163 203 249 312 377
#     4   9  19  38  61  84 115 156 201 248 296 353
#     4  10  20  37  60  87 117 151 199 252 300 356
#     4  10  22  39  61  89 120 157 205 254 299 356
#     4   9  18  34  58  83 111 149 194 240 288 353
#     4  11  22  37  59  86 118 160 198 245 304 367
#
# _framework density 20.168647
#
# number of rings (size 3 to 8) (size 9 to 14) (size 15 to 20)
#    0.000    2.000    1.667    1.500    2.333    4.667 
#    0.000    1.667    0.000    2.000    0.000    0.000 
#    0.000    0.000    0.000    0.000    0.000    0.000 
#
# Total GULP energy -594712.467083 kJ/mol
# GULP energy per Si atom -12389.843064 kJ/mol
# Density = 2.012274 g / cm^3
# Si number density = 20.168647 Si / 1000 Ang^3
#
#
#
# Elastic Constant Matrix: (Units=GPa)
#
#
# Indices 1 2 3 4 5 6 
#
# 1 116.3030 36.6495 60.3431 0.0000 0.0000 0.0000
# 2 36.6495 86.2902 36.8568 0.0000 0.0000 0.0000
# 3 60.3431 36.8568 113.8209 0.0000 0.0000 0.0000
# 4 0.0000 0.0000 0.0000 38.0910 0.0000 0.0000
# 5 0.0000 0.0000 0.0000 0.0000 16.2269 0.0000
# 6 0.0000 0.0000 0.0000 0.0000 0.0000 22.3740
#
#
#
# Elastic Compliance Matrix: (Units=1/GPa)
#
#
# Indices 1 2 3 4 5 6 
#
# 1 0.012442 -0.002863 -0.005669 0.000000 0.000000 0.000000
# 2 -0.002863 0.014108 -0.003050 0.000000 0.000000 0.000000
# 3 -0.005669 -0.003050 0.012779 0.000000 0.000000 0.000000
# 4 0.000000 0.000000 0.000000 0.026253 0.000000 0.000000
# 5 0.000000 0.000000 0.000000 0.000000 0.061626 0.000000
# 6 0.000000 0.000000 0.000000 0.000000 0.000000 0.044695
#
#
# Mechanical properties :
#
#
# Convention : Reuss Voigt Hill
#
# Bulk Modulus (GPa) = 61.86745 64.90144 63.38445
# Shear Modulus (GPa) = 24.94327 27.50935 26.22631
#
# Velocity S-wave (km/s) = 3.52054 3.69720 3.60995
# Velocity P-wave (km/s) = 6.87512 7.10457 6.99079
#
# Compressibility (1/GPa) = 0.01616359
#
# Stress axis : x y z
#
# Youngs Moduli (GPa) = 80.37458 70.88332 78.25331
#
# Poissons Ratio (x) = 0.20293 0.44362
# Poissons Ratio (y) = 0.23010 0.23871
# Poissons Ratio (z) = 0.45565 0.21623
#
# Static dielectric constant tensor:
#      x y z
#    x 3.860460 0.000000 0.000000 
#    y 0.000000 3.782930 0.000000 
#    z 0.000000 0.000000 3.454190 
# 
# 
# High freq. dielectric constant tensor:
#      x y z
#    x 1.781210 0.000000 0.000000 
#    y 0.000000 1.793210 0.000000 
#    z 0.000000 0.000000 1.770610 
# 
# From -- ./inp_files/27166.got.cif
#   From: 2010.03.12/outbox.cif.g09.slc.cpg/sg67_14_cif.got.tgz:27166.got - 2010.04.10 22:41:39.
