data_PCOD8280338
_publ_section_title
;
Structure prediction by ZEFSAII (Michael W. Deem and Ramdas Pophale) SiO2 
 PCOD8280338
Probable space group: C M M A
;
_chemical_formula_sum "Si O2"
_cell_formula_units_Z 112
_cell_length_a 14.161615
_cell_length_b 13.886626
_cell_length_c 26.670668
_cell_angle_alpha 90.000000
_cell_angle_beta 90.000000
_cell_angle_gamma 90.000000
_cell_volume 5244.974919
_symmetry_space_group_name_H-M "C M M A"
_symmetry_group_IT_number 67
_symmetry_cell_setting 'orthorhombic'
loop_
_space_group_symop_operation_xyz
x,y,z
-x,1/2-y,z
x,-y,-z
-x,1/2+y,-z
-x,-y,-z
x,1/2+y,-z
-x,y,z
x,1/2-y,z
1/2+x,1/2+y,z
1/2-x,-y,z
1/2+x,1/2-y,-z
1/2-x,y,-z
1/2-x,1/2-y,-z
1/2+x,y,-z
1/2-x,1/2+y,z
1/2+x,-y,z
loop_
_atom_site_type_symbol
_atom_site_label
_atom_site_fract_x
_atom_site_fract_y
_atom_site_fract_z
Si Si1 0.897128 0.142555 0.327718
Si Si2 0.112702 0.855152 0.979133
Si Si3 0.105944 0.642814 0.488332
Si Si4 0.111476 0.538990 0.075792
Si Si5 0.611953 0.464987 0.188860
Si Si6 0.715383 0.637434 0.230989
Si Si7 0.350095 0.975695 0.419975
O O1 0.877225 0.250000 0.348395
O O2 0.815788 0.115334 0.288158
O O3 0.000000 0.138354 0.300672
O O4 0.906871 0.071323 0.374775
O O5 0.153629 0.750000 0.965518
O O6 0.000000 0.853808 0.977804
O O7 0.153051 0.933757 0.939713
O O8 0.147253 0.881962 0.035700
O O9 0.142716 0.750000 0.474281
O O10 0.167509 0.597731 0.533377
O O11 0.102941 0.574587 0.439369
O O12 0.000000 0.647645 0.509798
O O13 0.139250 0.566262 0.132312
O O14 0.000000 0.530534 0.071904
O O15 0.500000 0.452399 0.200396
O O16 0.644745 0.575820 0.195708
O O17 0.675349 0.396407 0.224812
O O18 0.704298 0.750000 0.217772
O O19 0.250000 0.000000 0.396345
#
# Coordination Sequence:
#
# PCOD8280338 Si02
#       7
#    16  16  16  16  16  16  16
#     4  10  21  40  65  88 113 150 197 250 304 362
#     4   8  13  23  42  72 112 151 190 237 283 341
#     4  10  20  36  57  83 118 159 202 243 285 345
#     4   8  15  27  45  77 114 150 193 236 290 356
#     4  10  21  38  63  90 122 160 197 251 315 370
#     4  10  23  41  62  89 119 153 203 258 308 367
#     4  11  22  33  56  88 120 156 193 239 297 359
#
# _framework density 21.353773
#
# number of rings (size 3 to 8) (size 9 to 14) (size 15 to 20)
#    0.000    2.429    0.000    4.286    2.000    5.143 
#    0.000    2.857    0.000    6.857    0.000    8.000 
#    0.000    0.000    0.000    0.000    0.000    0.286 
#
# Total GULP energy -693954.165136 kJ/mol
# GULP energy per Si atom -12392.038663 kJ/mol
# Density = 2.130517 g / cm^3
# Si number density = 21.353773 Si / 1000 Ang^3
#
#
#
# Elastic Constant Matrix: (Units=GPa)
#
#
# Indices 1 2 3 4 5 6 
#
# 1 83.6799 15.0645 29.8865 0.0000 0.0000 0.0000
# 2 15.0645 136.2581 44.9351 0.0000 0.0000 0.0000
# 3 29.8865 44.9351 102.8170 0.0000 0.0000 0.0000
# 4 0.0000 0.0000 0.0000 27.8947 0.0000 0.0000
# 5 0.0000 0.0000 0.0000 0.0000 21.1322 0.0000
# 6 0.0000 0.0000 0.0000 0.0000 0.0000 25.8862
#
#
#
# Elastic Compliance Matrix: (Units=1/GPa)
#
#
# Indices 1 2 3 4 5 6 
#
# 1 0.013341 -0.000229 -0.003778 0.000000 0.000000 0.000000
# 2 -0.000229 0.008579 -0.003683 0.000000 0.000000 0.000000
# 3 -0.003778 -0.003683 0.012434 0.000000 0.000000 0.000000
# 4 0.000000 0.000000 0.000000 0.035849 0.000000 0.000000
# 5 0.000000 0.000000 0.000000 0.000000 0.047321 0.000000
# 6 0.000000 0.000000 0.000000 0.000000 0.000000 0.038631
#
#
# Mechanical properties :
#
#
# Convention : Reuss Voigt Hill
#
# Bulk Modulus (GPa) = 52.70332 55.83635 54.26983
# Shear Modulus (GPa) = 28.11237 30.50723 29.30980
#
# Velocity S-wave (km/s) = 3.63230 3.78386 3.70886
# Velocity P-wave (km/s) = 6.50585 6.73017 6.61896
#
# Compressibility (1/GPa) = 0.01897414
#
# Stress axis : x y z
#
# Youngs Moduli (GPa) = 74.95825 116.56622 80.42734
#
# Poissons Ratio (x) = 0.02671 0.30383
# Poissons Ratio (y) = 0.01718 0.29619
# Poissons Ratio (z) = 0.28317 0.42928
#
# Static dielectric constant tensor:
#      x y z
#    x 3.759890 0.000000 0.000000 
#    y 0.000000 4.035230 0.000000 
#    z 0.000000 0.000000 3.704120 
# 
# 
# High freq. dielectric constant tensor:
#      x y z
#    x 1.839130 0.000000 0.000000 
#    y 0.000000 1.836940 0.000000 
#    z 0.000000 0.000000 1.814910 
# 
# From -- ./inp_files/41963.got.cif
#   From: 2010.03.12/outbox.cif.g09.slc.cpg/sg67_21_cif.got.tgz:41963.got - 2010.04.10 22:41:39.
