data_PCOD8280135
_publ_section_title
;
Structure prediction by ZEFSAII (Michael W. Deem and Ramdas Pophale) SiO2 
 PCOD8280135
Probable space group: C M M A
;
_chemical_formula_sum "Si O2"
_cell_formula_units_Z 72
_cell_length_a 8.996331
_cell_length_b 30.379367
_cell_length_c 14.718886
_cell_angle_alpha 90.000000
_cell_angle_beta 90.000000
_cell_angle_gamma 90.000000
_cell_volume 4022.713362
_symmetry_space_group_name_H-M "C M M A"
_symmetry_group_IT_number 67
_symmetry_cell_setting 'orthorhombic'
loop_
_space_group_symop_operation_xyz
x,y,z
-x,1/2-y,z
x,-y,-z
-x,1/2+y,-z
-x,-y,-z
x,1/2+y,-z
-x,y,z
x,1/2-y,z
1/2+x,1/2+y,z
1/2-x,-y,z
1/2+x,1/2-y,-z
1/2-x,y,-z
1/2-x,1/2-y,-z
1/2+x,y,-z
1/2-x,1/2+y,z
1/2+x,-y,z
loop_
_atom_site_type_symbol
_atom_site_label
_atom_site_fract_x
_atom_site_fract_y
_atom_site_fract_z
Si Si1 0.673308 0.128133 0.285855
Si Si2 0.328145 0.750000 0.906093
Si Si3 0.324027 0.045100 0.405231
Si Si4 0.174468 0.800419 0.594329
Si Si5 0.672273 0.345219 0.095024
O O1 0.500000 0.139710 0.298530
O O2 0.714925 0.082199 0.332130
O O3 0.766862 0.167972 0.327245
O O4 0.712867 0.122335 0.178389
O O5 0.500000 0.750000 0.925383
O O6 0.283480 0.796861 0.861614
O O7 0.250000 0.750000 0.000000
O O8 0.500000 0.038739 0.418441
O O9 0.250000 0.059407 0.500000
O O10 0.250000 0.000000 0.370126
O O11 0.214352 0.750000 0.620112
O O12 0.250000 0.814157 0.500000
O O13 0.000000 0.807023 0.582528
O O14 0.500000 0.347402 0.070980
O O15 0.750000 0.357648 0.000000
#
# Coordination Sequence:
#
# PCOD8280135 Si02
#       5
#    16   8  16  16  16
#     4  10  21  34  53  78 104 135 173 214 259 311
#     4   8  14  26  44  64  89 124 163 202 247 288
#     4  10  20  35  55  80 105 132 165 208 258 312
#     4  10  21  35  50  72 103 139 176 211 250 302
#     4   9  18  32  49  72 100 134 172 214 258 301
#
# _framework density 17.898367
#
# number of rings (size 3 to 8) (size 9 to 14) (size 15 to 20)
#    0.000    2.444    0.000    2.667    1.556    5.778 
#    0.000    0.000    0.000    0.667    0.000    4.667 
#    0.000    0.000    0.000    0.000    0.000    0.000 
#
# Total GULP energy -446051.678706 kJ/mol
# GULP energy per Si atom -12390.324409 kJ/mol
# Density = 1.785763 g / cm^3
# Si number density = 17.898367 Si / 1000 Ang^3
#
#
#
# Elastic Constant Matrix: (Units=GPa)
#
#
# Indices 1 2 3 4 5 6 
#
# 1 64.6312 46.2854 47.2477 0.0000 0.0000 0.0000
# 2 46.2854 98.8546 78.4255 0.0000 0.0000 0.0000
# 3 47.2477 78.4255 133.9570 0.0000 0.0000 0.0000
# 4 0.0000 0.0000 0.0000 21.8580 0.0000 0.0000
# 5 0.0000 0.0000 0.0000 0.0000 25.4790 0.0000
# 6 0.0000 0.0000 0.0000 0.0000 0.0000 21.1533
#
#
#
# Elastic Compliance Matrix: (Units=1/GPa)
#
#
# Indices 1 2 3 4 5 6 
#
# 1 0.024146 -0.008494 -0.003543 0.000000 0.000000 0.000000
# 2 -0.008494 0.021878 -0.009812 0.000000 0.000000 0.000000
# 3 -0.003543 -0.009812 0.014459 0.000000 0.000000 0.000000
# 4 0.000000 0.000000 0.000000 0.045750 0.000000 0.000000
# 5 0.000000 0.000000 0.000000 0.000000 0.039248 0.000000
# 6 0.000000 0.000000 0.000000 0.000000 0.000000 0.047274
#
#
# Mechanical properties :
#
#
# Convention : Reuss Voigt Hill
#
# Bulk Modulus (GPa) = 59.58442 71.26223 65.42333
# Shear Modulus (GPa) = 20.65694 22.06366 21.36030
#
# Velocity S-wave (km/s) = 3.40093 3.51482 3.45834
# Velocity P-wave (km/s) = 6.98458 7.50822 7.25113
#
# Compressibility (1/GPa) = 0.01678291
#
# Stress axis : x y z
#
# Youngs Moduli (GPa) = 41.41464 45.70891 69.15889
#
# Poissons Ratio (x) = 0.38827 0.24506
# Poissons Ratio (y) = 0.35180 0.67860
# Poissons Ratio (z) = 0.14675 0.44851
#
# Static dielectric constant tensor:
#      x y z
#    x 3.330870 0.000000 0.000000 
#    y 0.000000 3.267060 0.000000 
#    z 0.000000 0.000000 3.225130 
# 
# 
# High freq. dielectric constant tensor:
#      x y z
#    x 1.697110 0.000000 0.000000 
#    y 0.000000 1.679160 0.000000 
#    z 0.000000 0.000000 1.685370 
# 
# From -- ./inp_files/25303.got.cif
#   From: 2010.03.12/outbox.cif.g09.slc.cpg/sg67_13_cif.got.tgz:25303.got - 2010.04.10 22:41:39.
