data_PCOD8280285
_publ_section_title
;
Structure prediction by ZEFSAII (Michael W. Deem and Ramdas Pophale) SiO2 
 PCOD8280285
Probable space group: C M M A
;
_chemical_formula_sum "Si O2"
_cell_formula_units_Z 88
_cell_length_a 10.138925
_cell_length_b 20.069880
_cell_length_c 22.331791
_cell_angle_alpha 90.000000
_cell_angle_beta 90.000000
_cell_angle_gamma 90.000000
_cell_volume 4544.229336
_symmetry_space_group_name_H-M "C M M A"
_symmetry_group_IT_number 67
_symmetry_cell_setting 'orthorhombic'
loop_
_space_group_symop_operation_xyz
x,y,z
-x,1/2-y,z
x,-y,-z
-x,1/2+y,-z
-x,-y,-z
x,1/2+y,-z
-x,y,z
x,1/2-y,z
1/2+x,1/2+y,z
1/2-x,-y,z
1/2+x,1/2-y,-z
1/2-x,y,-z
1/2-x,1/2-y,-z
1/2+x,y,-z
1/2-x,1/2+y,z
1/2+x,-y,z
loop_
_atom_site_type_symbol
_atom_site_label
_atom_site_fract_x
_atom_site_fract_y
_atom_site_fract_z
Si Si1 0.343807 0.671805 0.750234
Si Si2 0.000000 0.424239 0.939704
Si Si3 0.000000 0.080809 0.071977
Si Si4 0.269773 0.369659 0.377050
Si Si5 0.500000 0.560608 0.571983
Si Si6 0.640828 0.250000 0.451096
Si Si7 0.741884 0.420900 0.141893
Si Si8 0.500000 0.593746 0.440998
O O1 0.500000 0.658699 0.741655
O O2 0.317738 0.750000 0.764214
O O3 0.260194 0.648174 0.692691
O O4 0.284185 0.624078 0.800606
O O5 0.000000 0.503250 0.941986
O O6 0.870746 0.401727 0.904857
O O7 0.000000 0.388343 0.004893
O O8 0.124678 0.103280 0.110585
O O9 0.366148 0.432157 0.388827
O O10 0.350945 0.311797 0.407786
O O11 0.126724 0.377374 0.406824
O O12 0.500000 0.609735 0.512602
O O13 0.500000 0.484445 0.556053
O O14 0.500000 0.250000 0.484648
O O15 0.750000 0.250000 0.500000
O O16 0.750000 0.500000 0.158435
#
# Coordination Sequence:
#
# PCOD8280285 Si02
#       8
#    16   8   8  16   8   8  16   8
#     4  11  23  44  65  83 120 170 218 254 302 376
#     4   9  16  33  57  92 126 167 199 244 302 369
#     4   9  18  31  57  92 134 155 193 260 316 345
#     4  12  24  42  64  89 119 159 207 250 305 375
#     4  11  22  44  65  88 126 158 192 241 318 393
#     4  12  24  40  66  92 118 152 203 265 312 366
#     4  10  20  35  61  94 122 159 210 253 300 363
#     4  11  26  40  63  96 122 154 192 253 322 381
#
# _framework density 19.365220000000001
#
# number of rings (size 3 to 8) (size 9 to 14) (size 15 to 20)
#    0.000    1.273    3.636    2.727    1.273    5.818 
#    0.000    1.364    0.000    3.273    0.000    0.000 
#    0.000    0.000    0.000    0.000    0.000    0.000 
#
# Total GULP energy -545349.642981 kJ/mol
# GULP energy per Si atom -12394.310068 kJ/mol
# Density = 1.932114 g / cm^3
# Si number density = 19.365220 Si / 1000 Ang^3
#
#
#
# Elastic Constant Matrix: (Units=GPa)
#
#
# Indices 1 2 3 4 5 6 
#
# 1 162.7719 33.4777 65.8110 0.0000 0.0000 0.0000
# 2 33.4777 65.1922 50.1027 0.0000 0.0000 0.0000
# 3 65.8110 50.1027 156.4673 0.0000 0.0000 0.0000
# 4 0.0000 0.0000 0.0000 -237.0017 0.0000 0.0000
# 5 0.0000 0.0000 0.0000 0.0000 -114.7836 0.0000
# 6 0.0000 0.0000 0.0000 0.0000 0.0000 25.0789
#
#
#
# Elastic Compliance Matrix: (Units=1/GPa)
#
#
# Indices 1 2 3 4 5 6 
#
# 1 0.007578 -0.001913 -0.002575 0.000000 0.000000 0.000000
# 2 -0.001913 0.020829 -0.005865 0.000000 0.000000 0.000000
# 3 -0.002575 -0.005865 0.009352 0.000000 0.000000 0.000000
# 4 0.000000 0.000000 0.000000 -0.004219 0.000000 0.000000
# 5 0.000000 0.000000 0.000000 0.000000 -0.008712 0.000000
# 6 0.000000 0.000000 0.000000 0.000000 0.000000 0.039874
#
#
# Mechanical properties :
#
#
# Convention : Reuss Voigt Hill
#
# Bulk Modulus (GPa) = 58.63785 75.91269 67.27527
# Shear Modulus (GPa) = 54.88942 -49.67193 2.60874
#
# Velocity S-wave (km/s) = 5.32972 -5.07008 1.16192
# Velocity P-wave (km/s) = 8.25955 2.23859 6.05109
#
# Compressibility (1/GPa) = 0.01705383
#
# Stress axis : x y z
#
# Youngs Moduli (GPa) = 131.96081 48.00977 106.92580
#
# Poissons Ratio (x) = 0.09182 0.27533
# Poissons Ratio (y) = 0.25238 0.62715
# Poissons Ratio (z) = 0.33979 0.28159
#
# Static dielectric constant tensor:
#      x y z
#    x 3.618970 0.000000 0.000000 
#    y 0.000000 3.506960 0.000000 
#    z 0.000000 0.000000 3.782420 
# 
# 
# High freq. dielectric constant tensor:
#      x y z
#    x 1.764640 0.000000 0.000000 
#    y 0.000000 1.737980 0.000000 
#    z 0.000000 0.000000 1.757980 
# 
# From -- ./inp_files/37035.got.cif
#   From: 2010.03.12/outbox.cif.g09.slc.cpg/sg67_19_cif.got.tgz:37035.got - 2010.04.10 22:41:39.
