data_PCOD8280716
_publ_section_title
;
Structure prediction by ZEFSAII (Michael W. Deem and Ramdas Pophale) SiO2 
 PCOD8280716
Probable space group: C M M A
;
_chemical_formula_sum "Si O2"
_cell_formula_units_Z 112
_cell_length_a 21.937580
_cell_length_b 13.955568
_cell_length_c 17.030714
_cell_angle_alpha 90.000000
_cell_angle_beta 90.000000
_cell_angle_gamma 90.000000
_cell_volume 5213.976754
_symmetry_space_group_name_H-M "C M M A"
_symmetry_group_IT_number 67
_symmetry_cell_setting 'orthorhombic'
loop_
_space_group_symop_operation_xyz
x,y,z
-x,1/2-y,z
x,-y,-z
-x,1/2+y,-z
-x,-y,-z
x,1/2+y,-z
-x,y,z
x,1/2-y,z
1/2+x,1/2+y,z
1/2-x,-y,z
1/2+x,1/2-y,-z
1/2-x,y,-z
1/2-x,1/2-y,-z
1/2+x,y,-z
1/2-x,1/2+y,z
1/2+x,-y,z
loop_
_atom_site_type_symbol
_atom_site_label
_atom_site_fract_x
_atom_site_fract_y
_atom_site_fract_z
Si Si1 0.430450 0.861113 0.657945
Si Si2 0.338081 0.861039 0.215666
Si Si3 0.165597 0.636648 0.461092
Si Si4 0.070553 0.977871 0.195034
Si Si5 0.285622 0.864100 0.378987
Si Si6 0.192273 0.639597 0.954255
Si Si7 0.569639 0.362786 0.037863
O O1 0.500000 0.886141 0.643500
O O2 0.419101 0.750000 0.675135
O O3 0.397682 0.893989 0.577774
O O4 0.403508 0.916021 0.732607
O O5 0.356323 0.750000 0.225752
O O6 0.304780 0.903075 0.293219
O O7 0.295660 0.875706 0.138626
O O8 0.399517 0.918087 0.197876
O O9 0.174354 0.750000 0.466035
O O10 0.219064 0.596987 0.403741
O O11 0.169212 0.597913 0.550984
O O12 0.084823 0.918518 0.117224
O O13 0.000000 0.996926 0.205238
O O14 0.286444 0.750000 0.373643
O O15 0.192000 0.750000 0.977644
O O16 0.250000 0.590565 0.000000
O O17 0.123687 0.602612 0.978408
O O18 0.500000 0.388511 0.007307
O O19 0.572465 0.250000 0.055114
#
# Coordination Sequence:
#
# PCOD8280716 Si02
#       7
#    16  16  16  16  16  16  16
#     4   9  17  31  53  80 108 136 169 215 270 318
#     4  10  21  37  55  75 104 142 179 215 259 315
#     4   8  14  28  53  80 104 135 175 218 261 306
#     4  10  21  36  54  79 109 139 176 221 266 314
#     4   8  15  30  52  77 105 139 178 215 255 307
#     4   9  19  36  57  82 112 143 176 220 272 319
#     4   9  18  35  59  82 105 138 180 224 269 318
#
# _framework density 21.480725
#
# number of rings (size 3 to 8) (size 9 to 14) (size 15 to 20)
#    0.000    3.000    0.000    1.286    0.000    4.286 
#    0.000   12.143    0.000    6.000    0.000    0.000 
#    0.000    0.000    0.000    0.000    0.000    0.000 
#
# Total GULP energy -693866.640082 kJ/mol
# GULP energy per Si atom -12390.475716 kJ/mol
# Density = 2.143183 g / cm^3
# Si number density = 21.480725 Si / 1000 Ang^3
#
#
#
# Elastic Constant Matrix: (Units=GPa)
#
#
# Indices 1 2 3 4 5 6 
#
# 1 104.9528 23.0701 76.6884 0.0000 0.0000 0.0000
# 2 23.0701 44.3272 31.9591 0.0000 0.0000 0.0000
# 3 76.6884 31.9591 176.2892 0.0000 0.0000 0.0000
# 4 0.0000 0.0000 0.0000 15.0566 0.0000 0.0000
# 5 0.0000 0.0000 0.0000 0.0000 34.4368 0.0000
# 6 0.0000 0.0000 0.0000 0.0000 0.0000 14.8281
#
#
#
# Elastic Compliance Matrix: (Units=1/GPa)
#
#
# Indices 1 2 3 4 5 6 
#
# 1 0.014407 -0.003428 -0.005646 0.000000 0.000000 0.000000
# 2 -0.003428 0.026767 -0.003362 0.000000 0.000000 0.000000
# 3 -0.005646 -0.003362 0.008738 0.000000 0.000000 0.000000
# 4 0.000000 0.000000 0.000000 0.066416 0.000000 0.000000
# 5 0.000000 0.000000 0.000000 0.000000 0.029039 0.000000
# 6 0.000000 0.000000 0.000000 0.000000 0.000000 0.067439
#
#
# Mechanical properties :
#
#
# Convention : Reuss Voigt Hill
#
# Bulk Modulus (GPa) = 39.93288 65.44494 52.68891
# Shear Modulus (GPa) = 20.32328 25.78773 23.05551
#
# Velocity S-wave (km/s) = 3.07924 3.46859 3.27970
# Velocity P-wave (km/s) = 5.59220 6.82455 6.23888
#
# Compressibility (1/GPa) = 0.02504202
#
# Stress axis : x y z
#
# Youngs Moduli (GPa) = 69.41126 37.35953 114.44375
#
# Poissons Ratio (x) = 0.12805 0.64613
# Poissons Ratio (y) = 0.23791 0.38470
# Poissons Ratio (z) = 0.39188 0.12558
#
# Static dielectric constant tensor:
#      x y z
#    x 3.913510 0.000000 0.000000 
#    y 0.000000 3.654900 0.000000 
#    z 0.000000 0.000000 4.178150 
# 
# 
# High freq. dielectric constant tensor:
#      x y z
#    x 1.826970 0.000000 0.000000 
#    y 0.000000 1.837640 0.000000 
#    z 0.000000 0.000000 1.849360 
# 
# From -- ./inp_files/30189.got.cif
#   From: 2010.03.12/outbox.cif.g09.slc.cpg/sg67_16_cif.got.tgz:30189.got - 2010.04.10 22:41:39.
