data_PCOD8280041
_publ_section_title
;
Structure prediction by ZEFSAII (Michael W. Deem and Ramdas Pophale) SiO2 
 PCOD8280041
Probable space group: C M M A
;
_chemical_formula_sum "Si O2"
_cell_formula_units_Z 112
_cell_length_a 29.096204
_cell_length_b 14.133406
_cell_length_c 12.287553
_cell_angle_alpha 90.000000
_cell_angle_beta 90.000000
_cell_angle_gamma 90.000000
_cell_volume 5052.991549
_symmetry_space_group_name_H-M "C M M A"
_symmetry_group_IT_number 67
_symmetry_cell_setting 'orthorhombic'
loop_
_space_group_symop_operation_xyz
x,y,z
-x,1/2-y,z
x,-y,-z
-x,1/2+y,-z
-x,-y,-z
x,1/2+y,-z
-x,y,z
x,1/2-y,z
1/2+x,1/2+y,z
1/2-x,-y,z
1/2+x,1/2-y,-z
1/2-x,y,-z
1/2-x,1/2-y,-z
1/2+x,y,-z
1/2-x,1/2+y,z
1/2+x,-y,z
loop_
_atom_site_type_symbol
_atom_site_label
_atom_site_fract_x
_atom_site_fract_y
_atom_site_fract_z
Si Si1 0.296615 0.362799 0.447463
Si Si2 0.864528 0.637567 0.051061
Si Si3 0.632938 0.356847 0.621854
Si Si4 0.448978 0.511825 0.371829
Si Si5 0.052279 0.140340 0.806058
Si Si6 0.783883 0.637022 0.205401
Si Si7 0.315367 0.357657 0.843116
O O1 0.297068 0.250000 0.453560
O O2 0.250000 0.402436 0.500000
O O3 0.340823 0.400521 0.516159
O O4 0.298095 0.401294 0.324539
O O5 0.866511 0.750000 0.049897
O O6 0.913830 0.602328 0.097918
O O7 0.824177 0.599863 0.128810
O O8 0.851504 0.596223 0.930619
O O9 0.617879 0.250000 0.597230
O O10 0.587621 0.410133 0.661055
O O11 0.667837 0.362576 0.720914
O O12 0.445191 0.500000 0.500000
O O13 0.500000 0.547744 0.340217
O O14 0.438383 0.414829 0.306932
O O15 0.062173 0.250000 0.778703
O O16 0.000000 0.125484 0.847172
O O17 0.779965 0.750000 0.210146
O O18 0.735427 0.594921 0.160342
O O19 0.309497 0.250000 0.883070
#
# Coordination Sequence:
#
# PCOD8280041 Si02
#       7
#    16  16  16  16  16  16  16
#     4   9  15  26  46  77 114 154 193 228 274 333
#     4   9  17  28  50  82 112 148 195 239 287 343
#     4  10  20  34  57  85 119 157 191 231 284 349
#     4  10  23  41  59  83 115 148 189 242 296 351
#     4   9  19  38  61  83 109 145 195 253 303 348
#     4   9  15  24  44  77 116 151 190 235 277 331
#     4   9  16  29  48  79 120 156 187 228 281 339
#
# _framework density 22.165087
#
# number of rings (size 3 to 8) (size 9 to 14) (size 15 to 20)
#    0.000    2.714    1.429    0.429    2.000    2.571 
#    0.000    2.857    0.000    7.286    0.000    2.000 
#    0.000    0.571    0.000    0.000    0.000    0.000 
#
# Total GULP energy -694056.699223 kJ/mol
# GULP energy per Si atom -12393.869629 kJ/mol
# Density = 2.211464 g / cm^3
# Si number density = 22.165087 Si / 1000 Ang^3
#
#
#
# Elastic Constant Matrix: (Units=GPa)
#
#
# Indices 1 2 3 4 5 6 
#
# 1 158.7757 44.2834 53.7570 0.0000 0.0000 0.0000
# 2 44.2834 37.3616 21.3489 0.0000 0.0000 0.0000
# 3 53.7570 21.3489 130.4737 0.0000 0.0000 0.0000
# 4 0.0000 0.0000 0.0000 17.8653 0.0000 0.0000
# 5 0.0000 0.0000 0.0000 0.0000 38.3643 0.0000
# 6 0.0000 0.0000 0.0000 0.0000 0.0000 4.9771
#
#
#
# Elastic Compliance Matrix: (Units=1/GPa)
#
#
# Indices 1 2 3 4 5 6 
#
# 1 0.010056 -0.010537 -0.002419 0.000000 0.000000 0.000000
# 2 -0.010537 0.040566 -0.002296 0.000000 0.000000 0.000000
# 3 -0.002419 -0.002296 0.009037 0.000000 0.000000 0.000000
# 4 0.000000 0.000000 0.000000 0.055974 0.000000 0.000000
# 5 0.000000 0.000000 0.000000 0.000000 0.026066 0.000000
# 6 0.000000 0.000000 0.000000 0.000000 0.000000 0.200921
#
#
# Mechanical properties :
#
#
# Convention : Reuss Voigt Hill
#
# Bulk Modulus (GPa) = 34.29980 62.82108 48.56044
# Shear Modulus (GPa) = 13.06017 26.05612 19.55814
#
# Velocity S-wave (km/s) = 2.43002 3.43235 2.97372
# Velocity P-wave (km/s) = 4.83546 6.64168 5.80920
#
# Compressibility (1/GPa) = 0.02915469
#
# Stress axis : x y z
#
# Youngs Moduli (GPa) = 99.44342 24.65097 110.65792
#
# Poissons Ratio (x) = 0.25974 0.26770
# Poissons Ratio (y) = 1.04780 0.25412
# Poissons Ratio (z) = 0.24057 0.05661
#
# Static dielectric constant tensor:
#      x y z
#    x 4.232720 0.000000 0.000000 
#    y 0.000000 3.687000 0.000000 
#    z 0.000000 0.000000 4.093410 
# 
# 
# High freq. dielectric constant tensor:
#      x y z
#    x 1.875270 0.000000 0.000000 
#    y 0.000000 1.847070 0.000000 
#    z 0.000000 0.000000 1.872780 
# 
# From -- ./inp_files/18564.got.cif
#   From: 2010.03.12/outbox.cif.g09.slc.cpg/sg67_10_cif.got.tgz:18564.got - 2010.04.10 22:41:39.
