data_PCOD8280366
_publ_section_title
;
Structure prediction by ZEFSAII (Michael W. Deem and Ramdas Pophale) SiO2 
 PCOD8280366
Probable space group: C M M A
;
_chemical_formula_sum "Si O2"
_cell_formula_units_Z 112
_cell_length_a 14.627079
_cell_length_b 27.004509
_cell_length_c 12.552482
_cell_angle_alpha 90.000000
_cell_angle_beta 90.000000
_cell_angle_gamma 90.000000
_cell_volume 4958.193818
_symmetry_space_group_name_H-M "C M M A"
_symmetry_group_IT_number 67
_symmetry_cell_setting 'orthorhombic'
loop_
_space_group_symop_operation_xyz
x,y,z
-x,1/2-y,z
x,-y,-z
-x,1/2+y,-z
-x,-y,-z
x,1/2+y,-z
-x,y,z
x,1/2-y,z
1/2+x,1/2+y,z
1/2-x,-y,z
1/2+x,1/2-y,-z
1/2-x,y,-z
1/2-x,1/2-y,-z
1/2+x,y,-z
1/2-x,1/2+y,z
1/2+x,-y,z
loop_
_atom_site_type_symbol
_atom_site_label
_atom_site_fract_x
_atom_site_fract_y
_atom_site_fract_z
Si Si1 0.899975 0.406855 0.613647
Si Si2 0.105544 0.638862 0.944877
Si Si3 0.893884 0.656578 0.191960
Si Si4 0.705525 0.694649 0.231047
Si Si5 0.648997 0.990291 0.328590
Si Si6 0.606073 0.120267 0.610413
Si Si7 0.108565 0.970803 0.900118
O O1 0.864950 0.388525 0.728882
O O2 0.905963 0.466523 0.610733
O O3 0.851053 0.382649 0.509677
O O4 0.000000 0.385229 0.598656
O O5 0.164483 0.680301 0.884396
O O6 0.140532 0.586148 0.902201
O O7 0.000000 0.648115 0.916005
O O8 0.120551 0.639547 0.071286
O O9 0.816585 0.696942 0.221124
O O10 0.000000 0.674840 0.208342
O O11 0.673227 0.750000 0.260801
O O12 0.669031 0.657046 0.321375
O O13 0.609831 0.935997 0.347981
O O14 0.645668 0.999345 0.202432
O O15 0.750000 0.000000 0.371836
O O16 0.500000 0.137484 0.618094
O O17 0.000000 0.973128 0.902425
O O18 0.150302 0.000000 0.000000
#
# Coordination Sequence:
#
# PCOD8280366 Si02
#       7
#    16  16  16  16  16  16  16
#     4  10  22  41  66  94 128 175 220 263 327 404
#     4  10  21  40  67  97 134 174 217 274 331 395
#     4  10  23  44  67  95 133 173 217 273 335 402
#     4  12  26  44  69  99 130 172 227 284 338 391
#     4  12  23  35  58  95 134 174 220 267 322 395
#     4  11  24  44  67  95 134 174 220 281 335 392
#     4  10  20  36  58  87 129 177 218 261 323 396
#
# _framework density 22.58887
#
# number of rings (size 3 to 8) (size 9 to 14) (size 15 to 20)
#    0.000    1.286    1.429    4.286    0.000    9.143 
#    2.571    2.857    0.000    2.571    0.000    0.000 
#    0.000    0.000    0.000    0.000    0.000    0.000 
#
# Total GULP energy -693877.580581 kJ/mol
# GULP energy per Si atom -12390.671082 kJ/mol
# Density = 2.253746 g / cm^3
# Si number density = 22.588870 Si / 1000 Ang^3
#
#
#
# Elastic Constant Matrix: (Units=GPa)
#
#
# Indices 1 2 3 4 5 6 
#
# 1 92.5370 46.7181 35.9485 0.0000 0.0000 0.0000
# 2 46.7181 110.8359 50.0837 0.0000 0.0000 0.0000
# 3 35.9485 50.0837 164.8651 0.0000 0.0000 0.0000
# 4 0.0000 0.0000 0.0000 17.6679 0.0000 0.0000
# 5 0.0000 0.0000 0.0000 0.0000 -52.2283 0.0000
# 6 0.0000 0.0000 0.0000 0.0000 0.0000 22.9680
#
#
#
# Elastic Compliance Matrix: (Units=1/GPa)
#
#
# Indices 1 2 3 4 5 6 
#
# 1 0.014026 -0.005251 -0.001463 0.000000 0.000000 0.000000
# 2 -0.005251 0.012424 -0.002629 0.000000 0.000000 0.000000
# 3 -0.001463 -0.002629 0.007183 0.000000 0.000000 0.000000
# 4 0.000000 0.000000 0.000000 0.056600 0.000000 0.000000
# 5 0.000000 0.000000 0.000000 0.000000 -0.019147 0.000000
# 6 0.000000 0.000000 0.000000 0.000000 0.000000 0.043539
#
#
# Mechanical properties :
#
#
# Convention : Reuss Voigt Hill
#
# Bulk Modulus (GPa) = 66.90565 70.41539 68.66052
# Shear Modulus (GPa) = 36.15503 13.38070 24.76787
#
# Velocity S-wave (km/s) = 4.00505 2.43648 3.31488
# Velocity P-wave (km/s) = 7.14636 6.25744 6.71662
#
# Compressibility (1/GPa) = 0.01494642
#
# Stress axis : x y z
#
# Youngs Moduli (GPa) = 71.29714 80.49161 139.21128
#
# Poissons Ratio (x) = 0.42265 0.20369
# Poissons Ratio (y) = 0.37437 0.36602
# Poissons Ratio (z) = 0.10432 0.21163
#
# Static dielectric constant tensor:
#      x y z
#    x 4.113680 0.000000 0.000000 
#    y 0.000000 3.744660 0.000000 
#    z 0.000000 0.000000 4.415450 
# 
# 
# High freq. dielectric constant tensor:
#      x y z
#    x 1.895660 0.000000 0.000000 
#    y 0.000000 1.855830 0.000000 
#    z 0.000000 0.000000 1.908620 
# 
# From -- ./inp_files/18627.got.cif
#   From: 2010.03.12/outbox.cif.g09.slc.cpg/sg67_10_cif.got.tgz:18627.got - 2010.04.10 22:41:39.
