data_PCOD8280672
_publ_section_title
;
Structure prediction by ZEFSAII (Michael W. Deem and Ramdas Pophale) SiO2 
 PCOD8280672
Probable space group: C M M A
;
_chemical_formula_sum "Si O2"
_cell_formula_units_Z 64
_cell_length_a 24.759517
_cell_length_b 14.204888
_cell_length_c 9.605786
_cell_angle_alpha 90.000000
_cell_angle_beta 90.000000
_cell_angle_gamma 90.000000
_cell_volume 3378.414165
_symmetry_space_group_name_H-M "C M M A"
_symmetry_group_IT_number 67
_symmetry_cell_setting 'orthorhombic'
loop_
_space_group_symop_operation_xyz
x,y,z
-x,1/2-y,z
x,-y,-z
-x,1/2+y,-z
-x,-y,-z
x,1/2+y,-z
-x,y,z
x,1/2-y,z
1/2+x,1/2+y,z
1/2-x,-y,z
1/2+x,1/2-y,-z
1/2-x,y,-z
1/2-x,1/2-y,-z
1/2+x,y,-z
1/2-x,1/2+y,z
1/2+x,-y,z
loop_
_atom_site_type_symbol
_atom_site_label
_atom_site_fract_x
_atom_site_fract_y
_atom_site_fract_z
Si Si1 0.754882 0.391290 0.164705
Si Si2 0.000000 0.600510 0.432628
Si Si3 0.156032 0.250000 0.255130
Si Si4 0.168520 0.250000 0.776477
Si Si5 0.087216 0.750000 0.995657
Si Si6 0.500000 0.849734 0.861134
Si Si7 0.910957 0.250000 0.527691
O O1 0.750000 0.500000 0.205078
O O2 0.810154 0.344817 0.221270
O O3 0.705127 0.342159 0.243484
O O4 0.750000 0.374696 0.000000
O O5 0.000000 0.500000 0.500000
O O6 0.000000 0.576088 0.264316
O O7 0.946761 0.655854 0.482387
O O8 0.136696 0.250000 0.413981
O O9 0.099945 0.250000 0.167710
O O10 0.145336 0.250000 0.932513
O O11 0.117877 0.250000 0.675999
O O12 0.053063 0.845098 0.038541
O O13 0.500000 0.750000 0.772905
#
# Coordination Sequence:
#
# PCOD8280672 Si02
#       7
#    16   8   8   8   8   8   8
#     4  10  21  35  56  86 114 144 192 239 277 329
#     4  11  21  38  59  83 117 147 184 229 288 340
#     4  11  21  37  55  89 113 149 184 239 288 320
#     4  11  17  37  65  72 109 159 185 224 275 343
#     4   9  15  33  63  77 104 148 196 219 271 335
#     4   8  16  33  59  83 101 146 192 222 262 342
#     4  11  23  39  57  86 116 146 188 231 282 341
#
# _framework density 18.943798999999999
#
# number of rings (size 3 to 8) (size 9 to 14) (size 15 to 20)
#    0.750    1.000    6.250    0.750    0.000    6.000 
#    0.000    1.250    0.000    1.500    0.000    0.000 
#    0.000    0.000    0.000    0.000    0.000    0.000 
#
# Total GULP energy -396503.546505 kJ/mol
# GULP energy per Si atom -12390.735828 kJ/mol
# Density = 1.890068 g / cm^3
# Si number density = 18.943799 Si / 1000 Ang^3
#
#
#
# Elastic Constant Matrix: (Units=GPa)
#
#
# Indices 1 2 3 4 5 6 
#
# 1 108.0160 50.1647 20.3126 0.0000 0.0000 0.0000
# 2 50.1647 135.3509 22.9984 0.0000 0.0000 0.0000
# 3 20.3126 22.9984 43.2679 0.0000 0.0000 0.0000
# 4 0.0000 0.0000 0.0000 8.5044 0.0000 0.0000
# 5 0.0000 0.0000 0.0000 0.0000 40.7342 0.0000
# 6 0.0000 0.0000 0.0000 0.0000 0.0000 12.9869
#
#
#
# Elastic Compliance Matrix: (Units=1/GPa)
#
#
# Indices 1 2 3 4 5 6 
#
# 1 0.011642 -0.003722 -0.003487 0.000000 0.000000 0.000000
# 2 -0.003722 0.009312 -0.003202 0.000000 0.000000 0.000000
# 3 -0.003487 -0.003202 0.026451 0.000000 0.000000 0.000000
# 4 0.000000 0.000000 0.000000 0.117586 0.000000 0.000000
# 5 0.000000 0.000000 0.000000 0.000000 0.024549 0.000000
# 6 0.000000 0.000000 0.000000 0.000000 0.000000 0.077000
#
#
# Mechanical properties :
#
#
# Convention : Reuss Voigt Hill
#
# Bulk Modulus (GPa) = 37.61937 52.62069 45.12003
# Shear Modulus (GPa) = 16.87907 25.32239 21.10073
#
# Velocity S-wave (km/s) = 2.98821 3.66007 3.34107
# Velocity P-wave (km/s) = 5.63981 6.76011 6.22521
#
# Compressibility (1/GPa) = 0.02658205
#
# Stress axis : x y z
#
# Youngs Moduli (GPa) = 85.89276 107.38894 37.80599
#
# Poissons Ratio (x) = 0.39975 0.13183
# Poissons Ratio (y) = 0.31974 0.12106
# Poissons Ratio (z) = 0.29951 0.34386
#
# Static dielectric constant tensor:
#      x y z
#    x 3.493180 0.000000 0.000000 
#    y 0.000000 3.175500 0.000000 
#    z 0.000000 0.000000 3.248760 
# 
# 
# High freq. dielectric constant tensor:
#      x y z
#    x 1.751160 0.000000 0.000000 
#    y 0.000000 1.704150 0.000000 
#    z 0.000000 0.000000 1.726210 
# 
# From -- ./inp_files/12132.got.cif
#   From: 2010.03.12/outbox.cif.g09.slc.cpg/sg67_7_cif.got.tgz:12132.got - 2010.04.10 22:41:39.
