data_PCOD8280955
_publ_section_title
;
Structure prediction by ZEFSAII (Michael W. Deem and Ramdas Pophale) SiO2 
 PCOD8280955
Probable space group: C M M A
;
_chemical_formula_sum "Si O2"
_cell_formula_units_Z 88
_cell_length_a 9.123412
_cell_length_b 15.976008
_cell_length_c 29.805702
_cell_angle_alpha 90.000000
_cell_angle_beta 90.000000
_cell_angle_gamma 90.000000
_cell_volume 4344.351051
_symmetry_space_group_name_H-M "C M M A"
_symmetry_group_IT_number 67
_symmetry_cell_setting 'orthorhombic'
loop_
_space_group_symop_operation_xyz
x,y,z
-x,1/2-y,z
x,-y,-z
-x,1/2+y,-z
-x,-y,-z
x,1/2+y,-z
-x,y,z
x,1/2-y,z
1/2+x,1/2+y,z
1/2-x,-y,z
1/2+x,1/2-y,-z
1/2-x,y,-z
1/2-x,1/2-y,-z
1/2+x,y,-z
1/2-x,1/2+y,z
1/2+x,-y,z
loop_
_atom_site_type_symbol
_atom_site_label
_atom_site_fract_x
_atom_site_fract_y
_atom_site_fract_z
Si Si1 0.170294 0.346707 0.283671
Si Si2 0.673686 0.250000 0.047531
Si Si3 0.338014 0.845796 0.541263
Si Si4 0.172784 0.084937 0.898361
Si Si5 0.828092 0.154292 0.803858
Si Si6 0.174628 0.085575 0.378971
O O1 0.210974 0.250000 0.289876
O O2 0.252837 0.384379 0.240402
O O3 0.223542 0.393242 0.328351
O O4 0.000000 0.360304 0.275315
O O5 0.500000 0.250000 0.041802
O O6 0.724419 0.333975 0.073469
O O7 0.750000 0.250000 0.000000
O O8 0.500000 0.887797 0.547075
O O9 0.362443 0.750000 0.528752
O O10 0.250000 0.889673 0.500000
O O11 0.242008 0.848052 0.586636
O O12 0.219694 0.100332 0.846847
O O13 0.000000 0.072676 0.903172
O O14 0.250000 0.000000 0.915954
O O15 0.776890 0.250000 0.811653
O O16 0.000000 0.150310 0.796516
O O17 0.000000 0.083568 0.383495
O O18 0.250000 0.000000 0.393448
#
# Coordination Sequence:
#
# PCOD8280955 Si02
#       6
#    16   8  16  16  16  16
#     4   9  19  35  55  80 110 146 187 233 282 332
#     4  10  22  42  64  86 120 160 200 248 301 356
#     4  10  21  38  61  86 109 136 176 224 275 335
#     4  10  21  38  60  87 120 157 198 246 299 355
#     4   9  17  33  57  81 109 149 192 234 284 342
#     4  11  23  38  55  77 111 149 185 228 280 333
#
# _framework density 20.256191000000001
#
# number of rings (size 3 to 8) (size 9 to 14) (size 15 to 20)
#    0.000    2.182    0.909    1.636    0.000    6.182 
#    0.000    9.091    0.000    0.000    0.000    0.000 
#    0.000    0.000    0.000    0.000    0.000    0.000 
#
# Total GULP energy -545558.582539 kJ/mol
# GULP energy per Si atom -12399.058694 kJ/mol
# Density = 2.021009 g / cm^3
# Si number density = 20.256191 Si / 1000 Ang^3
#
#
#
# Elastic Constant Matrix: (Units=GPa)
#
#
# Indices 1 2 3 4 5 6 
#
# 1 80.4992 35.9845 63.9915 0.0000 0.0000 0.0000
# 2 35.9845 86.4179 45.7663 0.0000 0.0000 0.0000
# 3 63.9915 45.7663 149.6333 0.0000 0.0000 0.0000
# 4 0.0000 0.0000 0.0000 11.6577 0.0000 0.0000
# 5 0.0000 0.0000 0.0000 0.0000 39.7986 0.0000
# 6 0.0000 0.0000 0.0000 0.0000 0.0000 28.2889
#
#
#
# Elastic Compliance Matrix: (Units=1/GPa)
#
#
# Indices 1 2 3 4 5 6 
#
# 1 0.020237 -0.004586 -0.007252 0.000000 0.000000 0.000000
# 2 -0.004586 0.014848 -0.002580 0.000000 0.000000 0.000000
# 3 -0.007252 -0.002580 0.010573 0.000000 0.000000 0.000000
# 4 0.000000 0.000000 0.000000 0.085780 0.000000 0.000000
# 5 0.000000 0.000000 0.000000 0.000000 0.025126 0.000000
# 6 0.000000 0.000000 0.000000 0.000000 0.000000 0.035350
#
#
# Mechanical properties :
#
#
# Convention : Reuss Voigt Hill
#
# Bulk Modulus (GPa) = 59.44490 67.55943 63.50217
# Shear Modulus (GPa) = 22.08884 27.33624 24.71254
#
# Velocity S-wave (km/s) = 3.30581 3.67757 3.49664
# Velocity P-wave (km/s) = 6.63185 7.17340 6.90793
#
# Compressibility (1/GPa) = 0.01682230
#
# Stress axis : x y z
#
# Youngs Moduli (GPa) = 49.41337 67.35035 94.57698
#
# Poissons Ratio (x) = 0.30889 0.68586
# Poissons Ratio (y) = 0.22663 0.24400
# Poissons Ratio (z) = 0.35834 0.17376
#
# Static dielectric constant tensor:
#      x y z
#    x 3.664620 0.000000 0.000000 
#    y 0.000000 3.536710 0.000000 
#    z 0.000000 0.000000 3.754140 
# 
# 
# High freq. dielectric constant tensor:
#      x y z
#    x 1.786620 0.000000 0.000000 
#    y 0.000000 1.779020 0.000000 
#    z 0.000000 0.000000 1.797780 
# 
# From -- ./inp_files/45214.got.cif
#   From: 2010.03.12/outbox.cif.g09.slc.cpg/sg67_23_cif.got.tgz:45214.got - 2010.04.10 22:41:39.
