data_PCOD8280820
_publ_section_title
;
Structure prediction by ZEFSAII (Michael W. Deem and Ramdas Pophale) SiO2 
 PCOD8280820
Probable space group: C M M A
;
_chemical_formula_sum "Si O2"
_cell_formula_units_Z 80
_cell_length_a 9.445364
_cell_length_b 18.160937
_cell_length_c 23.544244
_cell_angle_alpha 90.000000
_cell_angle_beta 90.000000
_cell_angle_gamma 90.000000
_cell_volume 4038.700991
_symmetry_space_group_name_H-M "C M M A"
_symmetry_group_IT_number 67
_symmetry_cell_setting 'orthorhombic'
loop_
_space_group_symop_operation_xyz
x,y,z
-x,1/2-y,z
x,-y,-z
-x,1/2+y,-z
-x,-y,-z
x,1/2+y,-z
-x,y,z
x,1/2-y,z
1/2+x,1/2+y,z
1/2-x,-y,z
1/2+x,1/2-y,-z
1/2-x,y,-z
1/2-x,1/2-y,-z
1/2+x,y,-z
1/2-x,1/2+y,z
1/2+x,-y,z
loop_
_atom_site_type_symbol
_atom_site_label
_atom_site_fract_x
_atom_site_fract_y
_atom_site_fract_z
Si Si1 0.339302 0.837798 0.661029
Si Si2 0.726287 0.915712 0.125031
Si Si3 0.000000 0.579522 0.970553
Si Si4 0.000000 0.836998 0.083484
Si Si5 0.338335 0.337739 0.554071
Si Si6 0.343560 0.166658 0.764819
O O1 0.500000 0.868035 0.656668
O O2 0.338982 0.750000 0.659476
O O3 0.244481 0.868193 0.609243
O O4 0.269182 0.865747 0.719799
O O5 0.638147 0.910157 0.067275
O O6 0.647749 0.880832 0.178331
O O7 0.868789 0.871467 0.115921
O O8 0.750000 0.000000 0.140465
O O9 0.000000 0.500000 0.000000
O O10 0.000000 0.643342 0.017160
O O11 0.000000 0.750000 0.090576
O O12 0.500000 0.368058 0.552609
O O13 0.341939 0.250000 0.554365
O O14 0.250000 0.366730 0.500000
O O15 0.500000 0.164879 0.736721
O O16 0.301512 0.250000 0.781159
#
# Coordination Sequence:
#
# PCOD8280820 Si02
#       6
#    16  16   8   8  16  16
#     4   9  17  29  46  69 103 146 188 243 309 364
#     4  12  24  43  67  89 122 160 199 247 308 374
#     4  12  24  46  68  92 122 162 201 247 310 379
#     4  12  28  42  66 100 128 156 201 255 307 367
#     4   9  15  23  38  63  98 143 196 246 297 364
#     4  10  21  37  56  80 111 148 196 245 296 361
#
# _framework density 19.808349
#
# number of rings (size 3 to 8) (size 9 to 14) (size 15 to 20)
#    0.000    1.600    3.000    2.400    1.400    7.200 
#    0.000    0.000    0.000    0.000    0.000    0.000 
#    0.000    0.800    0.000    5.800    0.000    8.000 
#
# Total GULP energy -496008.792316 kJ/mol
# GULP energy per Si atom -12400.219808 kJ/mol
# Density = 1.976326 g / cm^3
# Si number density = 19.808349 Si / 1000 Ang^3
#
#
#
# Elastic Constant Matrix: (Units=GPa)
#
#
# Indices 1 2 3 4 5 6 
#
# 1 165.1992 35.5591 63.8649 0.0000 0.0000 0.0000
# 2 35.5591 81.4892 31.7389 0.0000 0.0000 0.0000
# 3 63.8649 31.7389 130.9271 0.0000 0.0000 0.0000
# 4 0.0000 0.0000 0.0000 20.1033 0.0000 0.0000
# 5 0.0000 0.0000 0.0000 0.0000 44.6616 0.0000
# 6 0.0000 0.0000 0.0000 0.0000 0.0000 18.7671
#
#
#
# Elastic Compliance Matrix: (Units=1/GPa)
#
#
# Indices 1 2 3 4 5 6 
#
# 1 0.007777 -0.002116 -0.003281 0.000000 0.000000 0.000000
# 2 -0.002116 0.014127 -0.002392 0.000000 0.000000 0.000000
# 3 -0.003281 -0.002392 0.009818 0.000000 0.000000 0.000000
# 4 0.000000 0.000000 0.000000 0.049743 0.000000 0.000000
# 5 0.000000 0.000000 0.000000 0.000000 0.022391 0.000000
# 6 0.000000 0.000000 0.000000 0.000000 0.000000 0.053285
#
#
# Mechanical properties :
#
#
# Convention : Reuss Voigt Hill
#
# Bulk Modulus (GPa) = 61.94294 71.10457 66.52375
# Shear Modulus (GPa) = 28.07419 33.13656 30.60537
#
# Velocity S-wave (km/s) = 3.76878 4.09450 3.93501
# Velocity P-wave (km/s) = 7.09065 7.63724 7.36901
#
# Compressibility (1/GPa) = 0.01614389
#
# Stress axis : x y z
#
# Youngs Moduli (GPa) = 128.58419 70.78803 101.85310
#
# Poissons Ratio (x) = 0.14978 0.33414
# Poissons Ratio (y) = 0.27207 0.24368
# Poissons Ratio (z) = 0.42184 0.16936
#
# Static dielectric constant tensor:
#      x y z
#    x 3.982760 0.000000 0.000000 
#    y 0.000000 3.109890 0.000000 
#    z 0.000000 0.000000 3.685090 
# 
# 
# High freq. dielectric constant tensor:
#      x y z
#    x 1.795380 0.000000 0.000000 
#    y 0.000000 1.716610 0.000000 
#    z 0.000000 0.000000 1.782100 
# 
# From -- ./inp_files/40588.got.cif
#   From: 2010.03.12/outbox.cif.g09.slc.cpg/sg67_21_cif.got.tgz:40588.got - 2010.04.10 22:41:39.
