data_PCOD8280022
_publ_section_title
;
Structure prediction by ZEFSAII (Michael W. Deem and Ramdas Pophale) SiO2 
 PCOD8280022
Probable space group: C M M A
;
_chemical_formula_sum "Si O2"
_cell_formula_units_Z 96
_cell_length_a 28.521088
_cell_length_b 8.732738
_cell_length_c 20.604947
_cell_angle_alpha 90.000000
_cell_angle_beta 90.000000
_cell_angle_gamma 90.000000
_cell_volume 5132.016228
_symmetry_space_group_name_H-M "C M M A"
_symmetry_group_IT_number 67
_symmetry_cell_setting 'orthorhombic'
loop_
_space_group_symop_operation_xyz
x,y,z
-x,1/2-y,z
x,-y,-z
-x,1/2+y,-z
-x,-y,-z
x,1/2+y,-z
-x,y,z
x,1/2-y,z
1/2+x,1/2+y,z
1/2-x,-y,z
1/2+x,1/2-y,-z
1/2-x,y,-z
1/2-x,1/2-y,-z
1/2+x,y,-z
1/2-x,1/2+y,z
1/2+x,-y,z
loop_
_atom_site_type_symbol
_atom_site_label
_atom_site_fract_x
_atom_site_fract_y
_atom_site_fract_z
Si Si1 0.892343 0.430700 0.067037
Si Si2 0.392850 0.068975 0.693683
Si Si3 0.553067 0.430359 0.566308
Si Si4 0.445182 0.927344 0.814873
Si Si5 0.298953 0.572154 0.882602
Si Si6 0.298998 0.571724 0.730693
O O1 0.891421 0.250000 0.062344
O O2 0.927624 0.479784 0.123303
O O3 0.839930 0.489949 0.078594
O O4 0.911699 0.500000 0.000000
O O5 0.397057 0.250000 0.704263
O O6 0.415595 0.014311 0.626317
O O7 0.419531 0.984150 0.750960
O O8 0.338969 0.017633 0.691576
O O9 0.573868 0.500000 0.500000
O O10 0.500000 0.489440 0.577675
O O11 0.554384 0.250000 0.559887
O O12 0.500000 0.956018 0.805953
O O13 0.432714 0.750000 0.825600
O O14 0.298813 0.750000 0.900130
O O15 0.250000 0.500000 0.905257
O O16 0.307490 0.543709 0.806684
O O17 0.299837 0.750000 0.713035
O O18 0.250000 0.500000 0.708234
#
# Coordination Sequence:
#
# PCOD8280022 Si02
#       6
#    16  16  16  16  16  16
#     4  12  25  41  61  82 111 148 188 234 288 343
#     4  11  21  35  59  88 119 152 190 234 284 336
#     4   9  19  35  55  83 119 157 195 234 278 332
#     4  11  24  41  60  84 113 146 189 237 284 337
#     4  10  20  36  58  84 115 146 185 231 282 340
#     4  10  20  34  56  84 117 150 187 232 281 336
#
# _framework density 18.706098000000001
#
# number of rings (size 3 to 8) (size 9 to 14) (size 15 to 20)
#    0.000    1.500    1.667    4.000    0.000    5.333 
#    0.000    3.333    0.000    0.500    0.000    3.500 
#    0.000    0.000    0.000    0.000    0.000    0.000 
#
# Total GULP energy -595475.102455 kJ/mol
# GULP energy per Si atom -12405.731301 kJ/mol
# Density = 1.866352 g / cm^3
# Si number density = 18.706098 Si / 1000 Ang^3
#
#
#
# Elastic Constant Matrix: (Units=GPa)
#
#
# Indices 1 2 3 4 5 6 
#
# 1 108.0474 45.8636 56.6084 0.0000 0.0000 0.0000
# 2 45.8636 93.3827 33.8863 0.0000 0.0000 0.0000
# 3 56.6084 33.8863 111.9773 0.0000 0.0000 0.0000
# 4 0.0000 0.0000 0.0000 31.2611 0.0000 0.0000
# 5 0.0000 0.0000 0.0000 0.0000 -954.9579 0.0000
# 6 0.0000 0.0000 0.0000 0.0000 0.0000 32.5881
#
#
#
# Elastic Compliance Matrix: (Units=1/GPa)
#
#
# Indices 1 2 3 4 5 6 
#
# 1 0.014389 -0.004973 -0.005769 0.000000 0.000000 0.000000
# 2 -0.004973 0.013749 -0.001646 0.000000 0.000000 0.000000
# 3 -0.005769 -0.001646 0.012345 0.000000 0.000000 0.000000
# 4 0.000000 0.000000 0.000000 0.031989 0.000000 0.000000
# 5 0.000000 0.000000 0.000000 0.000000 -0.001047 0.000000
# 6 0.000000 0.000000 0.000000 0.000000 0.000000 0.030686
#
#
# Mechanical properties :
#
#
# Convention : Reuss Voigt Hill
#
# Bulk Modulus (GPa) = 63.67417 65.12489 64.39953
# Shear Modulus (GPa) = 37.84362 -166.41849 -64.28743
#
# Velocity S-wave (km/s) = 4.50273 -9.44235 -5.86871
# Velocity P-wave (km/s) = 7.81958 9.16444 3.37943
#
# Compressibility (1/GPa) = 0.01570496
#
# Stress axis : x y z
#
# Youngs Moduli (GPa) = 69.49839 72.73426 81.00429
#
# Poissons Ratio (x) = 0.36174 0.46731
# Poissons Ratio (y) = 0.34565 0.13336
# Poissons Ratio (z) = 0.40094 0.11974
#
# Static dielectric constant tensor:
#      x y z
#    x 3.824320 0.000000 0.000000 
#    y 0.000000 3.571480 0.000000 
#    z 0.000000 0.000000 3.457230 
# 
# 
# High freq. dielectric constant tensor:
#      x y z
#    x 1.731960 0.000000 0.000000 
#    y 0.000000 1.740630 0.000000 
#    z 0.000000 0.000000 1.713730 
# 
# From -- ./inp_files/37144.got.cif
#   From: 2010.03.12/outbox.cif.g09.slc.cpg/sg67_19_cif.got.tgz:37144.got - 2010.04.10 22:41:39.
