data_PCOD8280805
_publ_section_title
;
Structure prediction by ZEFSAII (Michael W. Deem and Ramdas Pophale) SiO2 
 PCOD8280805
Probable space group: C M M A
;
_chemical_formula_sum "Si O2"
_cell_formula_units_Z 96
_cell_length_a 16.999817
_cell_length_b 18.024084
_cell_length_c 16.843829
_cell_angle_alpha 90.000000
_cell_angle_beta 90.000000
_cell_angle_gamma 90.000000
_cell_volume 5161.052451
_symmetry_space_group_name_H-M "C M M A"
_symmetry_group_IT_number 67
_symmetry_cell_setting 'orthorhombic'
loop_
_space_group_symop_operation_xyz
x,y,z
-x,1/2-y,z
x,-y,-z
-x,1/2+y,-z
-x,-y,-z
x,1/2+y,-z
-x,y,z
x,1/2-y,z
1/2+x,1/2+y,z
1/2-x,-y,z
1/2+x,1/2-y,-z
1/2-x,y,-z
1/2-x,1/2-y,-z
1/2+x,y,-z
1/2-x,1/2+y,z
1/2+x,-y,z
loop_
_atom_site_type_symbol
_atom_site_label
_atom_site_fract_x
_atom_site_fract_y
_atom_site_fract_z
Si Si1 0.593962 0.667680 0.356234
Si Si2 0.592501 0.100566 0.317531
Si Si3 0.407497 0.166527 0.156522
Si Si4 0.341274 0.018022 0.087076
Si Si5 0.593662 0.583978 0.509686
Si Si6 0.092862 0.453255 0.238139
O O1 0.500000 0.668072 0.358647
O O2 0.628250 0.750000 0.347075
O O3 0.627767 0.633002 0.437777
O O4 0.624787 0.621342 0.280030
O O5 0.500000 0.091243 0.326322
O O6 0.612874 0.162234 0.251006
O O7 0.625199 0.117845 0.406075
O O8 0.627942 0.022542 0.287168
O O9 0.500000 0.150124 0.143797
O O10 0.385734 0.250000 0.127587
O O11 0.359070 0.104430 0.107987
O O12 0.250000 0.000000 0.090178
O O13 0.381492 0.959982 0.147021
O O14 0.375312 0.000000 0.000000
O O15 0.624128 0.500000 0.500000
O O16 0.500000 0.585520 0.505926
O O17 0.000000 0.454477 0.241403
#
# Coordination Sequence:
#
# PCOD8280805 Si02
#       6
#    16  16  16  16  16  16
#     4   9  16  24  36  61  98 133 164 201 242 287
#     4   8  13  22  40  65  93 128 165 201 246 296
#     4   9  18  33  54  80 108 135 169 218 266 301
#     4  10  21  37  55  77 101 129 167 206 253 320
#     4   9  13  19  34  59  95 135 167 196 240 295
#     4   9  16  29  48  68  94 129 165 204 249 300
#
# _framework density 18.600857000000001
#
# number of rings (size 3 to 8) (size 9 to 14) (size 15 to 20)
#    0.000    3.000    1.667    1.500    0.000    2.000 
#    0.000    6.667    0.000    2.000    0.000    9.333 
#    0.000    6.667    0.000    0.000    0.000    0.000 
#
# Total GULP energy -594700.130776 kJ/mol
# GULP energy per Si atom -12389.586058 kJ/mol
# Density = 1.855852 g / cm^3
# Si number density = 18.600857 Si / 1000 Ang^3
#
#
#
# Elastic Constant Matrix: (Units=GPa)
#
#
# Indices 1 2 3 4 5 6 
#
# 1 18.2804 24.9033 14.6100 0.0000 0.0000 0.0000
# 2 24.9033 146.1043 76.6412 0.0000 0.0000 0.0000
# 3 14.6100 76.6412 162.9106 0.0000 0.0000 0.0000
# 4 0.0000 0.0000 0.0000 24.3795 0.0000 0.0000
# 5 0.0000 0.0000 0.0000 0.0000 -2.3956 0.0000
# 6 0.0000 0.0000 0.0000 0.0000 0.0000 13.5879
#
#
#
# Elastic Compliance Matrix: (Units=1/GPa)
#
#
# Indices 1 2 3 4 5 6 
#
# 1 0.071346 -0.011689 -0.000899 0.000000 0.000000 0.000000
# 2 -0.011689 0.011002 -0.004128 0.000000 0.000000 0.000000
# 3 -0.000899 -0.004128 0.008161 0.000000 0.000000 0.000000
# 4 0.000000 0.000000 0.000000 0.041018 0.000000 0.000000
# 5 0.000000 0.000000 0.000000 0.000000 -0.417432 0.000000
# 6 0.000000 0.000000 0.000000 0.000000 0.000000 0.073595
#
#
# Mechanical properties :
#
#
# Convention : Reuss Voigt Hill
#
# Bulk Modulus (GPa) = 17.52016 62.17827 39.84921
# Shear Modulus (GPa) = -31.27885 21.19041 -5.04422
#
# Velocity S-wave (km/s) = -4.10516 3.37889 -1.64855
# Velocity P-wave (km/s) = 3.60975 6.98017 4.22448
#
# Compressibility (1/GPa) = 0.05707712
#
# Stress axis : x y z
#
# Youngs Moduli (GPa) = 14.01613 90.89226 122.53683
#
# Poissons Ratio (x) = 1.06246 0.11019
# Poissons Ratio (y) = 0.16384 0.50578
# Poissons Ratio (z) = 0.01260 0.37517
#
# Static dielectric constant tensor:
#      x y z
#    x 2.789730 0.000000 0.000000 
#    y 0.000000 3.518340 0.000000 
#    z 0.000000 0.000000 3.802450 
# 
# 
# High freq. dielectric constant tensor:
#      x y z
#    x 1.658500 0.000000 0.000000 
#    y 0.000000 1.713590 0.000000 
#    z 0.000000 0.000000 1.729230 
# 
# From -- ./inp_files/34213.got.cif
#   From: 2010.03.12/outbox.cif.g09.slc.cpg/sg67_18_cif.got.tgz:34213.got - 2010.04.10 22:41:39.
