data_PCOD8280879
_publ_section_title
;
Structure prediction by ZEFSAII (Michael W. Deem and Ramdas Pophale) SiO2 
 PCOD8280879
Probable space group: C M M A
;
_chemical_formula_sum "Si O2"
_cell_formula_units_Z 120
_cell_length_a 23.549825
_cell_length_b 19.357130
_cell_length_c 12.413622
_cell_angle_alpha 90.000000
_cell_angle_beta 90.000000
_cell_angle_gamma 90.000000
_cell_volume 5658.836782
_symmetry_space_group_name_H-M "C M M A"
_symmetry_group_IT_number 67
_symmetry_cell_setting 'orthorhombic'
loop_
_space_group_symop_operation_xyz
x,y,z
-x,1/2-y,z
x,-y,-z
-x,1/2+y,-z
-x,-y,-z
x,1/2+y,-z
-x,y,z
x,1/2-y,z
1/2+x,1/2+y,z
1/2-x,-y,z
1/2+x,1/2-y,-z
1/2-x,y,-z
1/2-x,1/2-y,-z
1/2+x,y,-z
1/2-x,1/2+y,z
1/2+x,-y,z
loop_
_atom_site_type_symbol
_atom_site_label
_atom_site_fract_x
_atom_site_fract_y
_atom_site_fract_z
Si Si1 0.246656 0.830533 0.729580
Si Si2 0.853255 0.170951 0.856195
Si Si3 0.065994 0.329848 0.400788
Si Si4 0.750000 0.109297 0.500000
Si Si5 0.627124 0.430184 0.449458
Si Si6 0.934192 0.434091 0.773000
Si Si7 0.436022 0.407976 0.816829
Si Si8 0.660572 0.670890 0.094047
O O1 0.242781 0.750000 0.748102
O O2 0.310228 0.854078 0.761694
O O3 0.231455 0.846999 0.605612
O O4 0.203006 0.863099 0.817325
O O5 0.873082 0.250000 0.837530
O O6 0.909183 0.122571 0.855750
O O7 0.818863 0.165180 0.969877
O O8 0.082993 0.250000 0.380943
O O9 0.103593 0.360228 0.496956
O O10 0.081372 0.376057 0.298121
O O11 0.000000 0.336488 0.431590
O O12 0.695677 0.065152 0.461690
O O13 0.600837 0.500000 0.500000
O O14 0.606155 0.428025 0.328932
O O15 0.927869 0.510054 0.821925
O O16 0.000000 0.417840 0.746175
O O17 0.500000 0.387307 0.844830
O O18 0.397228 0.372884 0.906017
O O19 0.647249 0.750000 0.124091
#
# Coordination Sequence:
#
# PCOD8280879 Si02
#       8
#    16  16  16   8  16  16  16  16
#     4  10  21  39  64  96 129 167 214 264 324 389
#     4  10  22  43  66  92 128 169 217 268 318 383
#     4  10  21  37  61  92 123 161 215 268 311 371
#     4  12  24  38  64  96 131 168 211 268 327 382
#     4  12  24  41  62  89 128 175 215 260 320 392
#     4  11  24  42  65  91 126 174 219 264 324 390
#     4  10  21  38  61  90 125 163 208 266 326 380
#     4  10  21  39  66  94 126 171 217 265 323 385
#
# _framework density 21.205773000000001
#
# number of rings (size 3 to 8) (size 9 to 14) (size 15 to 20)
#    0.000    1.467    2.667    2.400    0.000    6.933 
#    0.000    3.333    0.000    1.600    0.000    0.000 
#    0.000    0.000    0.000    0.000    0.000    0.000 
#
# Total GULP energy -743794.513982 kJ/mol
# GULP energy per Si atom -12396.575233 kJ/mol
# Density = 2.115751 g / cm^3
# Si number density = 21.205773 Si / 1000 Ang^3
#
#
#
# Elastic Constant Matrix: (Units=GPa)
#
#
# Indices 1 2 3 4 5 6 
#
# 1 91.9287 37.9310 34.6646 0.0000 0.0000 0.0000
# 2 37.9310 87.6909 20.9673 0.0000 0.0000 0.0000
# 3 34.6646 20.9673 91.9609 0.0000 0.0000 0.0000
# 4 0.0000 0.0000 0.0000 26.1037 0.0000 0.0000
# 5 0.0000 0.0000 0.0000 0.0000 32.0027 0.0000
# 6 0.0000 0.0000 0.0000 0.0000 0.0000 28.5950
#
#
#
# Elastic Compliance Matrix: (Units=1/GPa)
#
#
# Indices 1 2 3 4 5 6 
#
# 1 0.014709 -0.005327 -0.004330 0.000000 0.000000 0.000000
# 2 -0.005327 0.013990 -0.001182 0.000000 0.000000 0.000000
# 3 -0.004330 -0.001182 0.012776 0.000000 0.000000 0.000000
# 4 0.000000 0.000000 0.000000 0.038309 0.000000 0.000000
# 5 0.000000 0.000000 0.000000 0.000000 0.031247 0.000000
# 6 0.000000 0.000000 0.000000 0.000000 0.000000 0.034971
#
#
# Mechanical properties :
#
#
# Convention : Reuss Voigt Hill
#
# Bulk Modulus (GPa) = 50.51135 50.96737 50.73936
# Shear Modulus (GPa) = 28.68964 29.20811 28.94888
#
# Velocity S-wave (km/s) = 3.68219 3.71531 3.69879
# Velocity P-wave (km/s) = 6.47683 6.51856 6.49773
#
# Compressibility (1/GPa) = 0.01979753
#
# Stress axis : x y z
#
# Youngs Moduli (GPa) = 67.98696 71.47714 78.27303
#
# Poissons Ratio (x) = 0.38076 0.33891
# Poissons Ratio (y) = 0.36217 0.09251
# Poissons Ratio (z) = 0.29437 0.08448
#
# Static dielectric constant tensor:
#      x y z
#    x 3.905190 0.000000 0.000000 
#    y 0.000000 3.984390 0.000000 
#    z 0.000000 0.000000 3.656480 
# 
# 
# High freq. dielectric constant tensor:
#      x y z
#    x 1.835150 0.000000 0.000000 
#    y 0.000000 1.821900 0.000000 
#    z 0.000000 0.000000 1.830920 
# 
# From -- ./inp_files/22222.got.cif
#   From: 2010.03.12/outbox.cif.g09.slc.cpg/sg67_12_cif.got.tgz:22222.got - 2010.04.10 22:41:39.
