data_PCOD8280117
_publ_section_title
;
Structure prediction by ZEFSAII (Michael W. Deem and Ramdas Pophale) SiO2 
 PCOD8280117
Probable space group: C M M A
;
_chemical_formula_sum "Si O2"
_cell_formula_units_Z 80
_cell_length_a 19.734958
_cell_length_b 9.006241
_cell_length_c 25.184419
_cell_angle_alpha 90.000000
_cell_angle_beta 90.000000
_cell_angle_gamma 90.000000
_cell_volume 4476.222922
_symmetry_space_group_name_H-M "C M M A"
_symmetry_group_IT_number 67
_symmetry_cell_setting 'orthorhombic'
loop_
_space_group_symop_operation_xyz
x,y,z
-x,1/2-y,z
x,-y,-z
-x,1/2+y,-z
-x,-y,-z
x,1/2+y,-z
-x,y,z
x,1/2-y,z
1/2+x,1/2+y,z
1/2-x,-y,z
1/2+x,1/2-y,-z
1/2-x,y,-z
1/2-x,1/2-y,-z
1/2+x,y,-z
1/2-x,1/2+y,z
1/2+x,-y,z
loop_
_atom_site_type_symbol
_atom_site_label
_atom_site_fract_x
_atom_site_fract_y
_atom_site_fract_z
Si Si1 0.077099 0.575423 0.157310
Si Si2 0.579238 0.422734 0.554680
Si Si3 0.580722 0.582674 0.051706
Si Si4 0.181894 0.076812 0.755277
Si Si5 0.820063 0.074276 0.633523
O O1 0.082191 0.750000 0.147708
O O2 0.106923 0.497351 0.104888
O O3 0.119903 0.522816 0.208201
O O4 0.000000 0.526161 0.168311
O O5 0.601026 0.500000 0.500000
O O6 0.500000 0.444775 0.565731
O O7 0.599110 0.250000 0.552017
O O8 0.618128 0.503891 0.601784
O O9 0.500000 0.577663 0.050242
O O10 0.608204 0.750000 0.051393
O O11 0.610459 0.500000 0.000000
O O12 0.193875 0.250000 0.760991
O O13 0.165598 0.033577 0.694724
O O14 0.250000 0.000000 0.775639
O O15 0.816315 0.250000 0.623709
O O16 0.750000 0.000000 0.614364
#
# Coordination Sequence:
#
# PCOD8280117 Si02
#       5
#    16  16  16  16  16
#     4   9  17  30  48  71  98 127 162 202 242 288
#     4  10  21  37  56  79 107 137 169 207 253 303
#     4   9  16  26  42  66  95 126 159 197 243 291
#     4   9  19  34  52  73  99 133 167 202 246 294
#     4  10  20  35  55  78 104 135 173 213 252 298
#
# _framework density 17.872209999999999
#
# number of rings (size 3 to 8) (size 9 to 14) (size 15 to 20)
#    0.000    2.600    0.000    1.800    0.000    6.400 
#    0.000    4.000    0.000    3.000    0.000    4.200 
#    0.000    0.000    0.000    0.000    0.000    0.000 
#
# Total GULP energy -496062.987143 kJ/mol
# GULP energy per Si atom -12401.574679 kJ/mol
# Density = 1.783153 g / cm^3
# Si number density = 17.872210 Si / 1000 Ang^3
#
#
#
# Elastic Constant Matrix: (Units=GPa)
#
#
# Indices 1 2 3 4 5 6 
#
# 1 74.4832 44.1596 66.7835 0.0000 0.0000 0.0000
# 2 44.1596 90.8399 59.0148 0.0000 0.0000 0.0000
# 3 66.7835 59.0148 124.8562 0.0000 0.0000 0.0000
# 4 0.0000 0.0000 0.0000 33.0309 0.0000 0.0000
# 5 0.0000 0.0000 0.0000 0.0000 9.3977 0.0000
# 6 0.0000 0.0000 0.0000 0.0000 0.0000 27.0479
#
#
#
# Elastic Compliance Matrix: (Units=1/GPa)
#
#
# Indices 1 2 3 4 5 6 
#
# 1 0.027592 -0.005520 -0.012149 0.000000 0.000000 0.000000
# 2 -0.005520 0.016991 -0.005078 0.000000 0.000000 0.000000
# 3 -0.012149 -0.005078 0.016908 0.000000 0.000000 0.000000
# 4 0.000000 0.000000 0.000000 0.030275 0.000000 0.000000
# 5 0.000000 0.000000 0.000000 0.000000 0.106409 0.000000
# 6 0.000000 0.000000 0.000000 0.000000 0.000000 0.036971
#
#
# Mechanical properties :
#
#
# Convention : Reuss Voigt Hill
#
# Bulk Modulus (GPa) = 62.51834 70.01056 66.26445
# Shear Modulus (GPa) = 17.48412 21.91006 19.69709
#
# Velocity S-wave (km/s) = 3.13115 3.50513 3.32340
# Velocity P-wave (km/s) = 6.93749 7.45916 7.20305
#
# Compressibility (1/GPa) = 0.01599531
#
# Stress axis : x y z
#
# Youngs Moduli (GPa) = 36.24225 58.85423 59.14360
#
# Poissons Ratio (x) = 0.32490 0.71855
# Poissons Ratio (y) = 0.20007 0.30035
# Poissons Ratio (z) = 0.44032 0.29888
#
# Static dielectric constant tensor:
#      x y z
#    x 3.145460 0.000000 0.000000 
#    y 0.000000 3.398610 0.000000 
#    z 0.000000 0.000000 3.462310 
# 
# 
# High freq. dielectric constant tensor:
#      x y z
#    x 1.665140 0.000000 0.000000 
#    y 0.000000 1.700520 0.000000 
#    z 0.000000 0.000000 1.699300 
# 
# From -- ./inp_files/43237.got.cif
#   From: 2010.03.12/outbox.cif.g09.slc.cpg/sg67_22_cif.got.tgz:43237.got - 2010.04.10 22:41:39.
