data_PCOD8280161
_publ_section_title
;
Structure prediction by ZEFSAII (Michael W. Deem and Ramdas Pophale) SiO2 
 PCOD8280161
Probable space group: C M M A
;
_chemical_formula_sum "Si O2"
_cell_formula_units_Z 96
_cell_length_a 8.532821
_cell_length_b 29.486443
_cell_length_c 19.028459
_cell_angle_alpha 90.000000
_cell_angle_beta 90.000000
_cell_angle_gamma 90.000000
_cell_volume 4787.608618
_symmetry_space_group_name_H-M "C M M A"
_symmetry_group_IT_number 67
_symmetry_cell_setting 'orthorhombic'
loop_
_space_group_symop_operation_xyz
x,y,z
-x,1/2-y,z
x,-y,-z
-x,1/2+y,-z
-x,-y,-z
x,1/2+y,-z
-x,y,z
x,1/2-y,z
1/2+x,1/2+y,z
1/2-x,-y,z
1/2+x,1/2-y,-z
1/2-x,y,-z
1/2-x,1/2-y,-z
1/2+x,y,-z
1/2-x,1/2+y,z
1/2+x,-y,z
loop_
_atom_site_type_symbol
_atom_site_label
_atom_site_fract_x
_atom_site_fract_y
_atom_site_fract_z
Si Si1 0.183514 0.952299 0.274577
Si Si2 0.175889 0.799353 0.289508
Si Si3 0.813746 0.801470 0.924138
Si Si4 0.684112 0.680373 0.428425
Si Si5 0.686925 0.080474 0.427899
Si Si6 0.679322 0.368446 0.804407
O O1 0.237656 0.944701 0.355706
O O2 0.234981 0.914653 0.217387
O O3 0.000000 0.954098 0.271875
O O4 0.250000 0.000000 0.248100
O O5 0.185032 0.750000 0.252653
O O6 0.220275 0.792606 0.370017
O O7 0.304323 0.833500 0.259478
O O8 0.000000 0.819663 0.281414
O O9 0.757202 0.750000 0.904264
O O10 0.748400 0.840435 0.871001
O O11 0.000000 0.802798 0.923778
O O12 0.750000 0.815157 0.000000
O O13 0.500000 0.688827 0.421228
O O14 0.750000 0.701183 0.500000
O O15 0.722904 0.627481 0.423737
O O16 0.500000 0.087108 0.432073
O O17 0.750000 0.055621 0.500000
O O18 0.500000 0.380753 0.817964
#
# Coordination Sequence:
#
# PCOD8280161 Si02
#       6
#    16  16  16  16  16  16
#     4  11  24  40  60  85 116 152 197 247 298 357
#     4  11  23  37  54  79 111 148 192 237 285 344
#     4   9  19  36  60  93 129 162 196 232 274 333
#     4  11  21  34  54  75 103 143 187 237 291 346
#     4  10  20  35  56  80 109 144 189 243 300 358
#     4  11  22  38  61  87 119 155 192 237 290 343
#
# _framework density 20.051763000000001
#
# number of rings (size 3 to 8) (size 9 to 14) (size 15 to 20)
#    0.000    1.500    1.667    5.000    0.000    6.000 
#    0.000    3.333    0.000    0.500    0.000    3.500 
#    0.000    0.000    0.000    0.000    0.000    0.000 
#
# Total GULP energy -594847.106150 kJ/mol
# GULP energy per Si atom -12392.648045 kJ/mol
# Density = 2.000612 g / cm^3
# Si number density = 20.051763 Si / 1000 Ang^3
#
#
#
# Elastic Constant Matrix: (Units=GPa)
#
#
# Indices 1 2 3 4 5 6 
#
# 1 59.1444 24.1451 20.7918 0.0000 0.0000 0.0000
# 2 24.1451 123.7021 62.6558 0.0000 0.0000 0.0000
# 3 20.7918 62.6558 122.1345 0.0000 0.0000 0.0000
# 4 0.0000 0.0000 0.0000 24.7471 0.0000 0.0000
# 5 0.0000 0.0000 0.0000 0.0000 30.2301 0.0000
# 6 0.0000 0.0000 0.0000 0.0000 0.0000 12.1993
#
#
#
# Elastic Compliance Matrix: (Units=1/GPa)
#
#
# Indices 1 2 3 4 5 6 
#
# 1 0.018650 -0.002745 -0.001766 0.000000 0.000000 0.000000
# 2 -0.002745 0.011326 -0.005343 0.000000 0.000000 0.000000
# 3 -0.001766 -0.005343 0.011229 0.000000 0.000000 0.000000
# 4 0.000000 0.000000 0.000000 0.040409 0.000000 0.000000
# 5 0.000000 0.000000 0.000000 0.000000 0.033080 0.000000
# 6 0.000000 0.000000 0.000000 0.000000 0.000000 0.081972
#
#
# Mechanical properties :
#
#
# Convention : Reuss Voigt Hill
#
# Bulk Modulus (GPa) = 46.52177 57.79629 52.15903
# Shear Modulus (GPa) = 22.36735 26.59453 24.48094
#
# Velocity S-wave (km/s) = 3.34350 3.64578 3.49791
# Velocity P-wave (km/s) = 6.17710 6.82704 6.51018
#
# Compressibility (1/GPa) = 0.02149531
#
# Stress axis : x y z
#
# Youngs Moduli (GPa) = 53.62064 88.29201 89.05220
#
# Poissons Ratio (x) = 0.24240 0.15730
# Poissons Ratio (y) = 0.14721 0.47580
# Poissons Ratio (z) = 0.09472 0.47174
#
# Static dielectric constant tensor:
#      x y z
#    x 3.574160 0.000000 0.000000 
#    y 0.000000 3.399240 0.000000 
#    z 0.000000 0.000000 3.971570 
# 
# 
# High freq. dielectric constant tensor:
#      x y z
#    x 1.785200 0.000000 0.000000 
#    y 0.000000 1.771960 0.000000 
#    z 0.000000 0.000000 1.770700 
# 
# From -- ./inp_files/37135.got.cif
#   From: 2010.03.12/outbox.cif.g09.slc.cpg/sg67_19_cif.got.tgz:37135.got - 2010.04.10 22:41:39.
