data_PCOD8280013
_publ_section_title
;
Structure prediction by ZEFSAII (Michael W. Deem and Ramdas Pophale) SiO2 
 PCOD8280013
Probable space group: C M M A
;
_chemical_formula_sum "Si O2"
_cell_formula_units_Z 80
_cell_length_a 22.586631
_cell_length_b 22.742546
_cell_length_c 8.412753
_cell_angle_alpha 90.000000
_cell_angle_beta 90.000000
_cell_angle_gamma 90.000000
_cell_volume 4321.441883
_symmetry_space_group_name_H-M "C M M A"
_symmetry_group_IT_number 67
_symmetry_cell_setting 'orthorhombic'
loop_
_space_group_symop_operation_xyz
x,y,z
-x,1/2-y,z
x,-y,-z
-x,1/2+y,-z
-x,-y,-z
x,1/2+y,-z
-x,y,z
x,1/2-y,z
1/2+x,1/2+y,z
1/2-x,-y,z
1/2+x,1/2-y,-z
1/2-x,y,-z
1/2-x,1/2-y,-z
1/2+x,y,-z
1/2-x,1/2+y,z
1/2+x,-y,z
loop_
_atom_site_type_symbol
_atom_site_label
_atom_site_fract_x
_atom_site_fract_y
_atom_site_fract_z
Si Si1 0.000000 0.962455 0.222124
Si Si2 0.373433 0.986104 0.678507
Si Si3 0.799870 0.099920 0.886471
Si Si4 0.625001 0.112809 0.822650
Si Si5 0.774587 0.318769 0.327001
Si Si6 0.000000 0.594472 0.899738
O O1 0.939301 0.956625 0.324478
O O2 0.000000 0.027046 0.150660
O O3 0.000000 0.910037 0.091802
O O4 0.324369 0.943329 0.752408
O O5 0.353809 0.000000 0.500000
O O6 0.370209 0.044053 0.784543
O O7 0.770678 0.156188 0.802334
O O8 0.750000 0.069330 0.000000
O O9 0.852234 0.123177 0.998369
O O10 0.660565 0.151549 0.694269
O O11 0.555827 0.129952 0.828111
O O12 0.781577 0.250000 0.298985
O O13 0.750000 0.333948 0.500000
#
# Coordination Sequence:
#
# PCOD8280013 Si02
#       6
#     8  16  16  16  16   8
#     4   9  17  30  52  76 113 149 176 212 262 321
#     4  11  20  32  51  82 116 146 180 219 272 331
#     4  10  21  34  52  76 105 143 183 225 271 322
#     4  10  20  34  56  80 110 144 181 220 269 321
#     4  10  22  40  58  77 103 138 182 232 282 328
#     4   9  16  32  53  80 111 141 181 218 260 318
#
# _framework density 18.512339000000001
#
# number of rings (size 3 to 8) (size 9 to 14) (size 15 to 20)
#    0.000    2.000    2.000    2.100    0.000    9.200 
#    0.000    5.500    0.000    0.000    0.000    3.500 
#    0.000    0.000    0.000    0.000    0.000    0.000 
#
# Total GULP energy -495828.751134 kJ/mol
# GULP energy per Si atom -12395.718778 kJ/mol
# Density = 1.847020 g / cm^3
# Si number density = 18.512339 Si / 1000 Ang^3
#
#
#
# Elastic Constant Matrix: (Units=GPa)
#
#
# Indices 1 2 3 4 5 6 
#
# 1 160.5533 55.3168 59.6707 0.0000 0.0000 0.0000
# 2 55.3168 62.9826 28.9315 0.0000 0.0000 0.0000
# 3 59.6707 28.9315 100.3481 0.0000 0.0000 0.0000
# 4 0.0000 0.0000 0.0000 26.8819 0.0000 0.0000
# 5 0.0000 0.0000 0.0000 0.0000 30.2652 0.0000
# 6 0.0000 0.0000 0.0000 0.0000 0.0000 11.8453
#
#
#
# Elastic Compliance Matrix: (Units=1/GPa)
#
#
# Indices 1 2 3 4 5 6 
#
# 1 0.010154 -0.007082 -0.003996 0.000000 0.000000 0.000000
# 2 -0.007082 0.023241 -0.002489 0.000000 0.000000 0.000000
# 3 -0.003996 -0.002489 0.013059 0.000000 0.000000 0.000000
# 4 0.000000 0.000000 0.000000 0.037200 0.000000 0.000000
# 5 0.000000 0.000000 0.000000 0.000000 0.033041 0.000000
# 6 0.000000 0.000000 0.000000 0.000000 0.000000 0.084422
#
#
# Mechanical properties :
#
#
# Convention : Reuss Voigt Hill
#
# Bulk Modulus (GPa) = 51.76240 67.96912 59.86576
# Shear Modulus (GPa) = 21.30460 25.79615 23.55038
#
# Velocity S-wave (km/s) = 3.39607 3.73695 3.57058
# Velocity P-wave (km/s) = 6.58783 7.44413 7.02903
#
# Compressibility (1/GPa) = 0.01931904
#
# Stress axis : x y z
#
# Youngs Moduli (GPa) = 98.48642 43.02706 76.57514
#
# Poissons Ratio (x) = 0.30473 0.30598
# Poissons Ratio (y) = 0.69751 0.19062
# Poissons Ratio (z) = 0.39354 0.10711
#
# Static dielectric constant tensor:
#      x y z
#    x 3.812000 0.000000 0.000000 
#    y 0.000000 3.003740 0.000000 
#    z 0.000000 0.000000 3.468700 
# 
# 
# High freq. dielectric constant tensor:
#      x y z
#    x 1.734090 0.000000 0.000000 
#    y 0.000000 1.670480 0.000000 
#    z 0.000000 0.000000 1.724280 
# 
# From -- ./inp_files/11169.got.cif
#   From: 2010.03.12/outbox.cif.g09.slc.cpg/sg67_6_cif.got.tgz:11169.got - 2010.04.10 22:41:39.
