data_PCOD8280974
_publ_section_title
;
Structure prediction by ZEFSAII (Michael W. Deem and Ramdas Pophale) SiO2 
 PCOD8280974
Probable space group: C M M A
;
_chemical_formula_sum "Si O2"
_cell_formula_units_Z 104
_cell_length_a 9.015198
_cell_length_b 19.489320
_cell_length_c 29.590428
_cell_angle_alpha 90.000000
_cell_angle_beta 90.000000
_cell_angle_gamma 90.000000
_cell_volume 5199.040528
_symmetry_space_group_name_H-M "C M M A"
_symmetry_group_IT_number 67
_symmetry_cell_setting 'orthorhombic'
loop_
_space_group_symop_operation_xyz
x,y,z
-x,1/2-y,z
x,-y,-z
-x,1/2+y,-z
-x,-y,-z
x,1/2+y,-z
-x,y,z
x,1/2-y,z
1/2+x,1/2+y,z
1/2-x,-y,z
1/2+x,1/2-y,-z
1/2-x,y,-z
1/2-x,1/2-y,-z
1/2+x,y,-z
1/2-x,1/2+y,z
1/2+x,-y,z
loop_
_atom_site_type_symbol
_atom_site_label
_atom_site_fract_x
_atom_site_fract_y
_atom_site_fract_z
Si Si1 0.170704 0.897242 0.953242
Si Si2 0.329587 0.170004 0.203903
Si Si3 0.172841 0.065366 0.143482
Si Si4 0.827949 0.250000 0.046627
Si Si5 0.325658 0.328047 0.451825
Si Si6 0.671851 0.671671 0.295664
Si Si7 0.176197 0.425219 0.379279
O O1 0.204309 0.944560 0.910338
O O2 0.218259 0.822619 0.931609
O O3 0.000000 0.898564 0.966974
O O4 0.250000 0.919303 0.000000
O O5 0.500000 0.147837 0.202538
O O6 0.307005 0.250000 0.195406
O O7 0.242762 0.133803 0.163559
O O8 0.265394 0.148451 0.252388
O O9 0.000000 0.066088 0.154330
O O10 0.250000 0.000000 0.167207
O O11 0.000000 0.250000 0.037982
O O12 0.750000 0.250000 0.000000
O O13 0.500000 0.344609 0.455396
O O14 0.300737 0.250000 0.433888
O O15 0.250000 0.336493 0.500000
O O16 0.247022 0.383454 0.420306
O O17 0.500000 0.666555 0.282734
O O18 0.711768 0.750000 0.310331
O O19 0.713832 0.618755 0.334878
O O20 0.250000 0.500000 0.375291
O O21 0.000000 0.432818 0.386596
#
# Coordination Sequence:
#
# PCOD8280974 Si02
#       7
#    16  16  16   8  16  16  16
#     4   9  19  34  55  80 108 144 184 228 277 332
#     4  10  22  40  63  91 119 149 189 238 289 344
#     4  11  24  40  59  83 115 154 192 234 284 342
#     4   8  14  28  48  74 102 128 168 214 262 314
#     4  10  21  38  61  88 119 158 205 255 306 358
#     4   9  19  38  63  88 115 152 196 241 292 350
#     4  11  23  38  58  87 123 161 202 246 297 354
#
# _framework density 20.003692000000001
#
# number of rings (size 3 to 8) (size 9 to 14) (size 15 to 20)
#    0.000    2.154    0.000    2.308    1.077    6.154 
#    0.000    6.154    0.000    0.000    0.000    0.000 
#    0.000    0.000    0.000    0.000    0.000    0.000 
#
# Total GULP energy -644355.692069 kJ/mol
# GULP energy per Si atom -12391.455617 kJ/mol
# Density = 1.995816 g / cm^3
# Si number density = 20.003692 Si / 1000 Ang^3
#
#
#
# Elastic Constant Matrix: (Units=GPa)
#
#
# Indices 1 2 3 4 5 6 
#
# 1 112.0441 59.6563 63.1073 0.0000 0.0000 0.0000
# 2 59.6563 103.4400 48.9426 0.0000 0.0000 0.0000
# 3 63.1073 48.9426 97.8585 0.0000 0.0000 0.0000
# 4 0.0000 0.0000 0.0000 11.5236 0.0000 0.0000
# 5 0.0000 0.0000 0.0000 0.0000 33.3327 0.0000
# 6 0.0000 0.0000 0.0000 0.0000 0.0000 30.9720
#
#
#
# Elastic Compliance Matrix: (Units=1/GPa)
#
#
# Indices 1 2 3 4 5 6 
#
# 1 0.016299 -0.005799 -0.007611 0.000000 0.000000 0.000000
# 2 -0.005799 0.014728 -0.003626 0.000000 0.000000 0.000000
# 3 -0.007611 -0.003626 0.016940 0.000000 0.000000 0.000000
# 4 0.000000 0.000000 0.000000 0.086778 0.000000 0.000000
# 5 0.000000 0.000000 0.000000 0.000000 0.030001 0.000000
# 6 0.000000 0.000000 0.000000 0.000000 0.000000 0.032287
#
#
# Mechanical properties :
#
#
# Convention : Reuss Voigt Hill
#
# Bulk Modulus (GPa) = 71.96630 72.97277 72.46954
# Shear Modulus (GPa) = 21.21001 24.60809 22.90905
#
# Velocity S-wave (km/s) = 3.25976 3.51119 3.38781
# Velocity P-wave (km/s) = 7.08680 7.27989 7.18399
#
# Compressibility (1/GPa) = 0.01389539
#
# Stress axis : x y z
#
# Youngs Moduli (GPa) = 61.35162 67.89954 59.03034
#
# Poissons Ratio (x) = 0.39377 0.44927
# Poissons Ratio (y) = 0.35579 0.21404
# Poissons Ratio (z) = 0.46694 0.24620
#
# Static dielectric constant tensor:
#      x y z
#    x 3.680840 0.000000 0.000000 
#    y 0.000000 3.808110 0.000000 
#    z 0.000000 0.000000 3.472880 
# 
# 
# High freq. dielectric constant tensor:
#      x y z
#    x 1.787740 0.000000 0.000000 
#    y 0.000000 1.792290 0.000000 
#    z 0.000000 0.000000 1.772260 
# 
# From -- ./inp_files/45321.got.cif
#   From: 2010.03.12/outbox.cif.g09.slc.cpg/sg67_23_cif.got.tgz:45321.got - 2010.04.10 22:41:39.
