data_PCOD8280732
_publ_section_title
;
Structure prediction by ZEFSAII (Michael W. Deem and Ramdas Pophale) SiO2 
 PCOD8280732
Probable space group: C M M A
;
_chemical_formula_sum "Si O2"
_cell_formula_units_Z 96
_cell_length_a 9.232104
_cell_length_b 18.666391
_cell_length_c 30.458421
_cell_angle_alpha 90.000000
_cell_angle_beta 90.000000
_cell_angle_gamma 90.000000
_cell_volume 5248.901610
_symmetry_space_group_name_H-M "C M M A"
_symmetry_group_IT_number 67
_symmetry_cell_setting 'orthorhombic'
loop_
_space_group_symop_operation_xyz
x,y,z
-x,1/2-y,z
x,-y,-z
-x,1/2+y,-z
-x,-y,-z
x,1/2+y,-z
-x,y,z
x,1/2-y,z
1/2+x,1/2+y,z
1/2-x,-y,z
1/2+x,1/2-y,-z
1/2-x,y,-z
1/2-x,1/2-y,-z
1/2+x,y,-z
1/2-x,1/2+y,z
1/2+x,-y,z
loop_
_atom_site_type_symbol
_atom_site_label
_atom_site_fract_x
_atom_site_fract_y
_atom_site_fract_z
Si Si1 0.671946 0.923907 0.872561
Si Si2 0.669010 0.667960 0.457952
Si Si3 0.167874 0.333275 0.199583
Si Si4 0.832878 0.429313 0.280223
Si Si5 0.669754 0.071254 0.621189
Si Si6 0.331124 0.668516 0.956493
O O1 0.500000 0.934409 0.867762
O O2 0.728336 0.874794 0.833389
O O3 0.714279 0.884070 0.917468
O O4 0.750000 0.000000 0.871407
O O5 0.500000 0.657432 0.466065
O O6 0.714206 0.750000 0.452856
O O7 0.750000 0.633743 0.500000
O O8 0.719887 0.631951 0.412670
O O9 0.209233 0.250000 0.199031
O O10 0.199525 0.362925 0.248295
O O11 0.000000 0.345239 0.186466
O O12 0.750000 0.500000 0.263801
O O13 0.784644 0.406192 0.329320
O O14 0.000000 0.450639 0.279311
O O15 0.500000 0.057145 0.618243
O O16 0.750000 0.000000 0.606499
O O17 0.500000 0.663952 0.966365
O O18 0.285808 0.750000 0.944160
O O19 0.250000 0.642062 0.000000
#
# Coordination Sequence:
#
# PCOD8280732 Si02
#       6
#    16  16  16  16  16  16
#     4  11  23  38  56  79 109 143 179 218 261 309
#     4   9  18  32  49  69  94 126 163 202 246 295
#     4  10  21  36  55  80 107 136 173 215 259 308
#     4   9  18  33  52  74 101 132 166 206 251 300
#     4   9  18  32  50  72  98 129 164 203 248 297
#     4   9  19  36  57  80 106 138 175 215 260 308
#
# _framework density 18.289542000000001
#
# number of rings (size 3 to 8) (size 9 to 14) (size 15 to 20)
#    0.000    2.500    0.000    1.500    0.000    6.333 
#    0.000    8.333    0.000    0.000    0.000    7.000 
#    0.000    0.000    0.000    0.000    0.000    0.000 
#
# Total GULP energy -595230.936353 kJ/mol
# GULP energy per Si atom -12400.644507 kJ/mol
# Density = 1.824791 g / cm^3
# Si number density = 18.289542 Si / 1000 Ang^3
#
#
#
# Elastic Constant Matrix: (Units=GPa)
#
#
# Indices 1 2 3 4 5 6 
#
# 1 52.2001 50.9658 54.9621 0.0000 0.0000 0.0000
# 2 50.9658 125.9961 83.3676 0.0000 0.0000 0.0000
# 3 54.9621 83.3676 135.9009 0.0000 0.0000 0.0000
# 4 0.0000 0.0000 0.0000 31.7729 0.0000 0.0000
# 5 0.0000 0.0000 0.0000 0.0000 31.3124 0.0000
# 6 0.0000 0.0000 0.0000 0.0000 0.0000 25.8172
#
#
#
# Elastic Compliance Matrix: (Units=1/GPa)
#
#
# Indices 1 2 3 4 5 6 
#
# 1 0.038466 -0.008864 -0.010119 0.000000 0.000000 0.000000
# 2 -0.008864 0.015402 -0.005863 0.000000 0.000000 0.000000
# 3 -0.010119 -0.005863 0.015048 0.000000 0.000000 0.000000
# 4 0.000000 0.000000 0.000000 0.031473 0.000000 0.000000
# 5 0.000000 0.000000 0.000000 0.000000 0.031936 0.000000
# 6 0.000000 0.000000 0.000000 0.000000 0.000000 0.038734
#
#
# Mechanical properties :
#
#
# Convention : Reuss Voigt Hill
#
# Bulk Modulus (GPa) = 52.02249 76.96535 64.49392
# Shear Modulus (GPa) = 22.01096 26.10060 24.05578
#
# Velocity S-wave (km/s) = 3.47287 3.78177 3.63061
# Velocity P-wave (km/s) = 6.67733 7.82573 7.27423
#
# Compressibility (1/GPa) = 0.01922245
#
# Stress axis : x y z
#
# Youngs Moduli (GPa) = 25.99692 64.92710 66.45612
#
# Poissons Ratio (x) = 0.57553 0.67247
# Poissons Ratio (y) = 0.23044 0.38965
# Poissons Ratio (z) = 0.26306 0.38069
#
# Static dielectric constant tensor:
#      x y z
#    x 3.351560 0.000000 0.000000 
#    y 0.000000 3.414950 0.000000 
#    z 0.000000 0.000000 3.634370 
# 
# 
# High freq. dielectric constant tensor:
#      x y z
#    x 1.704750 0.000000 0.000000 
#    y 0.000000 1.704980 0.000000 
#    z 0.000000 0.000000 1.721280 
# 
# From -- ./inp_files/43425.got.cif
#   From: 2010.03.12/outbox.cif.g09.slc.cpg/sg67_22_cif.got.tgz:43425.got - 2010.04.10 22:41:39.
