data_PCOD8280469
_publ_section_title
;
Structure prediction by ZEFSAII (Michael W. Deem and Ramdas Pophale) SiO2 
 PCOD8280469
Probable space group: C M M A
;
_chemical_formula_sum "Si O2"
_cell_formula_units_Z 96
_cell_length_a 20.590582
_cell_length_b 15.641754
_cell_length_c 14.515476
_cell_angle_alpha 90.000000
_cell_angle_beta 90.000000
_cell_angle_gamma 90.000000
_cell_volume 4675.040265
_symmetry_space_group_name_H-M "C M M A"
_symmetry_group_IT_number 67
_symmetry_cell_setting 'orthorhombic'
loop_
_space_group_symop_operation_xyz
x,y,z
-x,1/2-y,z
x,-y,-z
-x,1/2+y,-z
-x,-y,-z
x,1/2+y,-z
-x,y,z
x,1/2-y,z
1/2+x,1/2+y,z
1/2-x,-y,z
1/2+x,1/2-y,-z
1/2-x,y,-z
1/2-x,1/2-y,-z
1/2+x,y,-z
1/2-x,1/2+y,z
1/2+x,-y,z
loop_
_atom_site_type_symbol
_atom_site_label
_atom_site_fract_x
_atom_site_fract_y
_atom_site_fract_z
Si Si1 0.427083 0.414772 0.954880
Si Si2 0.239009 0.750000 0.157387
Si Si3 0.072511 0.584240 0.560738
Si Si4 0.198525 0.576562 0.257218
Si Si5 0.814906 0.845920 0.447712
Si Si6 0.652813 0.750000 0.021593
Si Si7 0.072962 0.983101 0.760363
O O1 0.500000 0.406496 0.993095
O O2 0.389376 0.333814 0.990881
O O3 0.426309 0.416137 0.843926
O O4 0.395507 0.500000 0.000000
O O5 0.225747 0.664375 0.215462
O O6 0.313365 0.750000 0.122368
O O7 0.200169 0.750000 0.063759
O O8 0.074834 0.500000 0.500000
O O9 0.124233 0.648982 0.517310
O O10 0.091754 0.566065 0.666639
O O11 0.000000 0.624425 0.556609
O O12 0.250000 0.500000 0.240349
O O13 0.182141 0.587505 0.364661
O O14 0.127777 0.553725 0.214996
O O15 0.812531 0.750000 0.408303
O O16 0.750000 0.870191 0.500000
O O17 0.000000 0.024104 0.751077
#
# Coordination Sequence:
#
# PCOD8280469 Si02
#       7
#    16   8  16  16  16   8  16
#     4  10  21  40  66  95 124 157 204 256 311 377
#     4  11  26  42  59  92 123 156 213 258 302 388
#     4  10  20  37  60  87 121 163 208 251 303 366
#     4  12  23  40  64  89 123 165 207 256 315 366
#     4  11  24  39  57  87 123 160 208 258 301 363
#     4  11  23  42  64  86 126 163 196 258 318 366
#     4  10  21  38  62  92 122 161 212 256 304 372
#
# _framework density 20.534582
#
# number of rings (size 3 to 8) (size 9 to 14) (size 15 to 20)
#    0.000    1.333    2.500    3.250    0.000    0.333 
#    1.500    2.917    0.000    0.000    0.000    0.000 
#    0.000    0.000    0.000    0.000    0.000    0.000 
#
# Total GULP energy -595082.872269 kJ/mol
# GULP energy per Si atom -12397.559839 kJ/mol
# Density = 2.048784 g / cm^3
# Si number density = 20.534582 Si / 1000 Ang^3
#
#
#
# Elastic Constant Matrix: (Units=GPa)
#
#
# Indices 1 2 3 4 5 6 
#
# 1 118.9870 53.4646 22.3560 0.0000 0.0000 0.0000
# 2 53.4646 113.0087 31.2893 0.0000 0.0000 0.0000
# 3 22.3560 31.2893 93.2004 0.0000 0.0000 0.0000
# 4 0.0000 0.0000 0.0000 47.5556 0.0000 0.0000
# 5 0.0000 0.0000 0.0000 0.0000 26.5639 0.0000
# 6 0.0000 0.0000 0.0000 0.0000 0.0000 15.1619
#
#
#
# Elastic Compliance Matrix: (Units=1/GPa)
#
#
# Indices 1 2 3 4 5 6 
#
# 1 0.010751 -0.004820 -0.000961 0.000000 0.000000 0.000000
# 2 -0.004820 0.011917 -0.002845 0.000000 0.000000 0.000000
# 3 -0.000961 -0.002845 0.011915 0.000000 0.000000 0.000000
# 4 0.000000 0.000000 0.000000 0.021028 0.000000 0.000000
# 5 0.000000 0.000000 0.000000 0.000000 0.037645 0.000000
# 6 0.000000 0.000000 0.000000 0.000000 0.000000 0.065955
#
#
# Mechanical properties :
#
#
# Convention : Reuss Voigt Hill
#
# Bulk Modulus (GPa) = 57.69682 59.93510 58.81596
# Shear Modulus (GPa) = 27.43665 32.39537 29.91601
#
# Velocity S-wave (km/s) = 3.65926 3.97621 3.82102
# Velocity P-wave (km/s) = 6.78321 7.09444 6.94057
#
# Compressibility (1/GPa) = 0.01733198
#
# Stress axis : x y z
#
# Youngs Moduli (GPa) = 93.01799 83.91454 83.92831
#
# Poissons Ratio (x) = 0.40448 0.08061
# Poissons Ratio (y) = 0.44836 0.23874
# Poissons Ratio (z) = 0.08935 0.23870
#
# Static dielectric constant tensor:
#      x y z
#    x 4.051350 0.000000 0.000000 
#    y 0.000000 3.459210 0.000000 
#    z 0.000000 0.000000 3.842530 
# 
# 
# High freq. dielectric constant tensor:
#      x y z
#    x 1.816890 0.000000 0.000000 
#    y 0.000000 1.783050 0.000000 
#    z 0.000000 0.000000 1.814460 
# 
# From -- ./inp_files/29333.got.cif
#   From: 2010.03.12/outbox.cif.g09.slc.cpg/sg67_15_cif.got.tgz:29333.got - 2010.04.10 22:41:39.
