data_PCOD8280354
_publ_section_title
;
Structure prediction by ZEFSAII (Michael W. Deem and Ramdas Pophale) SiO2 
 PCOD8280354
Probable space group: C M M A
;
_chemical_formula_sum "Si O2"
_cell_formula_units_Z 56
_cell_length_a 26.280684
_cell_length_b 9.580375
_cell_length_c 11.184214
_cell_angle_alpha 90.000000
_cell_angle_beta 90.000000
_cell_angle_gamma 90.000000
_cell_volume 2815.948069
_symmetry_space_group_name_H-M "C M M A"
_symmetry_group_IT_number 67
_symmetry_cell_setting 'orthorhombic'
loop_
_space_group_symop_operation_xyz
x,y,z
-x,1/2-y,z
x,-y,-z
-x,1/2+y,-z
-x,-y,-z
x,1/2+y,-z
-x,y,z
x,1/2-y,z
1/2+x,1/2+y,z
1/2-x,-y,z
1/2+x,1/2-y,-z
1/2-x,y,-z
1/2-x,1/2-y,-z
1/2+x,y,-z
1/2-x,1/2+y,z
1/2+x,-y,z
loop_
_atom_site_type_symbol
_atom_site_label
_atom_site_fract_x
_atom_site_fract_y
_atom_site_fract_z
Si Si1 0.375397 0.500000 0.000000
Si Si2 0.624878 0.084223 0.621420
Si Si3 0.203179 0.597073 0.818878
Si Si4 0.058338 0.406427 0.789134
O O1 0.339323 0.399879 0.922167
O O2 0.410626 0.590763 0.912873
O O3 0.615981 0.250000 0.601237
O O4 0.676749 0.054561 0.694161
O O5 0.630749 0.000000 0.500000
O O6 0.577412 0.020700 0.694100
O O7 0.226889 0.750000 0.808223
O O8 0.250000 0.500000 0.851751
O O9 0.064165 0.250000 0.735459
O O10 0.000000 0.441647 0.817537
#
# Coordination Sequence:
#
# PCOD8280354 Si02
#       4
#     8  16  16  16
#     4  10  20  36  58  84 116 150 188 230 274 328
#     4  10  22  40  60  83 112 147 188 234 283 336
#     4  10  22  37  56  83 113 147 186 229 278 331
#     4  10  21  37  59  86 115 150 190 232 280 332
#
# _framework density 19.886728999999999
#
# number of rings (size 3 to 8) (size 9 to 14) (size 15 to 20)
#    0.000    2.000    0.000    2.571    0.000   10.857 
#    0.000    2.857    0.000    0.000    0.000    0.000 
#    0.000    0.000    0.000    0.000    0.000    0.000 
#
# Total GULP energy -347154.461723 kJ/mol
# GULP energy per Si atom -12398.373633 kJ/mol
# Density = 1.984147 g / cm^3
# Si number density = 19.886729 Si / 1000 Ang^3
#
#
#
# Elastic Constant Matrix: (Units=GPa)
#
#
# Indices 1 2 3 4 5 6 
#
# 1 124.0980 54.5586 44.4524 0.0000 0.0000 0.0000
# 2 54.5586 116.5637 49.3015 0.0000 0.0000 0.0000
# 3 44.4524 49.3015 125.4030 0.0000 0.0000 0.0000
# 4 0.0000 0.0000 0.0000 25.7038 0.0000 0.0000
# 5 0.0000 0.0000 0.0000 0.0000 16.1399 0.0000
# 6 0.0000 0.0000 0.0000 0.0000 0.0000 28.7525
#
#
#
# Elastic Compliance Matrix: (Units=1/GPa)
#
#
# Indices 1 2 3 4 5 6 
#
# 1 0.010617 -0.004051 -0.002171 0.000000 0.000000 0.000000
# 2 -0.004051 0.011836 -0.003217 0.000000 0.000000 0.000000
# 3 -0.002171 -0.003217 0.010009 0.000000 0.000000 0.000000
# 4 0.000000 0.000000 0.000000 0.038905 0.000000 0.000000
# 5 0.000000 0.000000 0.000000 0.000000 0.061958 0.000000
# 6 0.000000 0.000000 0.000000 0.000000 0.000000 0.034780
#
#
# Mechanical properties :
#
#
# Convention : Reuss Voigt Hill
#
# Bulk Modulus (GPa) = 73.62054 73.63218 73.62636
# Shear Modulus (GPa) = 26.10836 28.63605 27.37221
#
# Velocity S-wave (km/s) = 3.62726 3.79879 3.71402
# Velocity P-wave (km/s) = 7.39209 7.50648 7.44951
#
# Compressibility (1/GPa) = 0.01358317
#
# Stress axis : x y z
#
# Youngs Moduli (GPa) = 94.19076 84.48869 99.91437
#
# Poissons Ratio (x) = 0.34228 0.21688
# Poissons Ratio (y) = 0.38158 0.32144
# Poissons Ratio (z) = 0.20446 0.27182
#
# Static dielectric constant tensor:
#      x y z
#    x 3.582990 0.000000 0.000000 
#    y 0.000000 3.667530 0.000000 
#    z 0.000000 0.000000 3.659300 
# 
# 
# High freq. dielectric constant tensor:
#      x y z
#    x 1.776550 0.000000 0.000000 
#    y 0.000000 1.781240 0.000000 
#    z 0.000000 0.000000 1.776490 
# 
# From -- ./inp_files/15542.got.cif
#   From: 2010.03.12/outbox.cif.g09.slc.cpg/sg67_8_cif.got.tgz:15542.got - 2010.04.10 22:41:39.
