data_PCOD8280494
_publ_section_title
;
Structure prediction by ZEFSAII (Michael W. Deem and Ramdas Pophale) SiO2 
 PCOD8280494
Probable space group: C M M A
;
_chemical_formula_sum "Si O2"
_cell_formula_units_Z 104
_cell_length_a 29.944358
_cell_length_b 8.822050
_cell_length_c 20.064396
_cell_angle_alpha 90.000000
_cell_angle_beta 90.000000
_cell_angle_gamma 90.000000
_cell_volume 5300.424001
_symmetry_space_group_name_H-M "C M M A"
_symmetry_group_IT_number 67
_symmetry_cell_setting 'orthorhombic'
loop_
_space_group_symop_operation_xyz
x,y,z
-x,1/2-y,z
x,-y,-z
-x,1/2+y,-z
-x,-y,-z
x,1/2+y,-z
-x,y,z
x,1/2-y,z
1/2+x,1/2+y,z
1/2-x,-y,z
1/2+x,1/2-y,-z
1/2-x,y,-z
1/2-x,1/2-y,-z
1/2+x,y,-z
1/2-x,1/2+y,z
1/2+x,-y,z
loop_
_atom_site_type_symbol
_atom_site_label
_atom_site_fract_x
_atom_site_fract_y
_atom_site_fract_z
Si Si1 0.664483 0.929446 0.570502
Si Si2 0.500000 0.578342 0.568562
Si Si3 0.448193 0.924138 0.764874
Si Si4 0.705464 0.423604 0.291988
Si Si5 0.296262 0.570554 0.071460
Si Si6 0.858363 0.423470 0.824781
Si Si7 0.079438 0.073525 0.363723
O O1 0.654476 0.750000 0.562598
O O2 0.699951 0.960290 0.629239
O O3 0.681092 0.000000 0.500000
O O4 0.622163 0.022672 0.595314
O O5 0.500000 0.750000 0.550423
O O6 0.500000 0.500000 0.500000
O O7 0.541802 0.535945 0.611040
O O8 0.500000 0.970213 0.782557
O O9 0.447663 0.750000 0.738586
O O10 0.412863 0.938706 0.826166
O O11 0.423450 0.038961 0.714484
O O12 0.714506 0.250000 0.281951
O O13 0.750000 0.500000 0.264203
O O14 0.662345 0.471400 0.247855
O O15 0.291031 0.750000 0.065172
O O16 0.250000 0.500000 0.099525
O O17 0.337409 0.531889 0.119736
O O18 0.307353 0.500000 0.000000
O O19 0.845151 0.250000 0.840730
O O20 0.070788 0.250000 0.377390
#
# Coordination Sequence:
#
# PCOD8280494 Si02
#       7
#    16   8  16  16  16  16  16
#     4  11  23  41  58  77 105 146 191 242 301 361
#     4  12  24  38  54  74 104 140 181 234 299 366
#     4  10  20  37  62  87 117 158 197 240 293 349
#     4  10  22  38  58  82 113 150 193 243 295 354
#     4  11  22  38  62  95 131 169 203 243 291 345
#     4  10  20  38  61  90 124 160 199 243 293 350
#     4  12  23  36  55  81 108 141 185 239 297 358
#
# _framework density 19.621071000000001
#
# number of rings (size 3 to 8) (size 9 to 14) (size 15 to 20)
#    0.000    1.231    2.308    5.308    0.000    4.000 
#    0.000    1.538    0.000    0.462    0.000    0.000 
#    0.000    0.000    0.000    0.000    0.000    0.000 
#
# Total GULP energy -644307.105226 kJ/mol
# GULP energy per Si atom -12390.521254 kJ/mol
# Density = 1.957641 g / cm^3
# Si number density = 19.621071 Si / 1000 Ang^3
#
#
#
# Elastic Constant Matrix: (Units=GPa)
#
#
# Indices 1 2 3 4 5 6 
#
# 1 105.2359 31.1695 34.9831 0.0000 0.0000 0.0000
# 2 31.1695 112.3755 39.0509 0.0000 0.0000 0.0000
# 3 34.9831 39.0509 84.3268 0.0000 0.0000 0.0000
# 4 0.0000 0.0000 0.0000 30.5272 0.0000 0.0000
# 5 0.0000 0.0000 0.0000 0.0000 26.1511 0.0000
# 6 0.0000 0.0000 0.0000 0.0000 0.0000 25.5329
#
#
#
# Elastic Compliance Matrix: (Units=1/GPa)
#
#
# Indices 1 2 3 4 5 6 
#
# 1 0.011319 -0.001797 -0.003864 0.000000 0.000000 0.000000
# 2 -0.001797 0.010891 -0.004298 0.000000 0.000000 0.000000
# 3 -0.003864 -0.004298 0.015452 0.000000 0.000000 0.000000
# 4 0.000000 0.000000 0.000000 0.032758 0.000000 0.000000
# 5 0.000000 0.000000 0.000000 0.000000 0.038239 0.000000
# 6 0.000000 0.000000 0.000000 0.000000 0.000000 0.039165
#
#
# Mechanical properties :
#
#
# Convention : Reuss Voigt Hill
#
# Bulk Modulus (GPa) = 56.35505 56.92724 56.64115
# Shear Modulus (GPa) = 28.79268 29.55790 29.17529
#
# Velocity S-wave (km/s) = 3.83487 3.88549 3.86026
# Velocity P-wave (km/s) = 6.95646 7.01468 6.98563
#
# Compressibility (1/GPa) = 0.01774464
#
# Stress axis : x y z
#
# Youngs Moduli (GPa) = 88.34664 91.82158 64.71763
#
# Poissons Ratio (x) = 0.16500 0.25004
# Poissons Ratio (y) = 0.15875 0.27815
# Poissons Ratio (z) = 0.34133 0.39464
#
# Static dielectric constant tensor:
#      x y z
#    x 3.591940 0.000000 0.000000 
#    y 0.000000 3.571820 0.000000 
#    z 0.000000 0.000000 3.478500 
# 
# 
# High freq. dielectric constant tensor:
#      x y z
#    x 1.766290 0.000000 0.000000 
#    y 0.000000 1.768250 0.000000 
#    z 0.000000 0.000000 1.745040 
# 
# From -- ./inp_files/40194.got.cif
#   From: 2010.03.12/outbox.cif.g09.slc.cpg/sg67_21_cif.got.tgz:40194.got - 2010.04.10 22:41:39.
