data_PCOD8280039
_publ_section_title
;
Structure prediction by ZEFSAII (Michael W. Deem and Ramdas Pophale) SiO2 
 PCOD8280039
Probable space group: C M M A
;
_chemical_formula_sum "Si O2"
_cell_formula_units_Z 64
_cell_length_a 16.955832
_cell_length_b 16.336204
_cell_length_c 11.803345
_cell_angle_alpha 90.000000
_cell_angle_beta 90.000000
_cell_angle_gamma 90.000000
_cell_volume 3269.454925
_symmetry_space_group_name_H-M "C M M A"
_symmetry_group_IT_number 67
_symmetry_cell_setting 'orthorhombic'
loop_
_space_group_symop_operation_xyz
x,y,z
-x,1/2-y,z
x,-y,-z
-x,1/2+y,-z
-x,-y,-z
x,1/2+y,-z
-x,y,z
x,1/2-y,z
1/2+x,1/2+y,z
1/2-x,-y,z
1/2+x,1/2-y,-z
1/2-x,y,-z
1/2-x,1/2-y,-z
1/2+x,y,-z
1/2-x,1/2+y,z
1/2+x,-y,z
loop_
_atom_site_type_symbol
_atom_site_label
_atom_site_fract_x
_atom_site_fract_y
_atom_site_fract_z
Si Si1 0.202244 0.579865 0.301896
Si Si2 0.912386 0.097178 0.505800
Si Si3 0.909943 0.006058 0.129458
Si Si4 0.859183 0.342735 0.262542
O O1 0.250000 0.500000 0.347731
O O2 0.151852 0.623170 0.400765
O O3 0.144839 0.554533 0.200373
O O4 0.264717 0.645840 0.256636
O O5 0.889925 0.136647 0.387232
O O6 0.000000 0.127780 0.540238
O O7 0.912190 0.000000 0.500000
O O8 0.901729 0.099368 0.171539
O O9 0.000000 0.977301 0.144339
O O10 0.882609 0.000000 0.000000
O O11 0.880779 0.250000 0.231147
#
# Coordination Sequence:
#
# PCOD8280039 Si02
#       4
#    16  16  16  16
#     4  10  20  34  57  84 116 157 194 233 278 343
#     4  11  20  33  56  86 119 157 196 234 280 343
#     4  10  21  39  63  87 111 150 202 243 283 342
#     4  11  24  38  58  89 122 152 188 239 297 345
#
# _framework density 19.575129
#
# number of rings (size 3 to 8) (size 9 to 14) (size 15 to 20)
#    0.000    1.500    5.000    2.250    0.000    8.500 
#    0.000    2.500    0.000    3.750    0.000    0.000 
#    0.000    0.000    0.000    0.000    0.000    0.000 
#
# Total GULP energy -396833.603336 kJ/mol
# GULP energy per Si atom -12401.050104 kJ/mol
# Density = 1.953057 g / cm^3
# Si number density = 19.575129 Si / 1000 Ang^3
#
#
#
# Elastic Constant Matrix: (Units=GPa)
#
#
# Indices 1 2 3 4 5 6 
#
# 1 115.5087 2.7633 45.7205 0.0000 0.0000 0.0000
# 2 2.7633 61.6293 26.5626 0.0000 0.0000 0.0000
# 3 45.7205 26.5626 130.6151 0.0000 0.0000 0.0000
# 4 0.0000 0.0000 0.0000 14.4281 0.0000 0.0000
# 5 0.0000 0.0000 0.0000 0.0000 11.1439 0.0000
# 6 0.0000 0.0000 0.0000 0.0000 0.0000 22.4414
#
#
#
# Elastic Compliance Matrix: (Units=1/GPa)
#
#
# Indices 1 2 3 4 5 6 
#
# 1 0.010127 0.001177 -0.003784 0.000000 0.000000 0.000000
# 2 0.001177 0.017922 -0.004057 0.000000 0.000000 0.000000
# 3 -0.003784 -0.004057 0.009806 0.000000 0.000000 0.000000
# 4 0.000000 0.000000 0.000000 0.069309 0.000000 0.000000
# 5 0.000000 0.000000 0.000000 0.000000 0.089735 0.000000
# 6 0.000000 0.000000 0.000000 0.000000 0.000000 0.044561
#
#
# Mechanical properties :
#
#
# Convention : Reuss Voigt Hill
#
# Bulk Modulus (GPa) = 40.77197 50.87175 45.82186
# Shear Modulus (GPa) = 19.01408 25.11645 22.06527
#
# Velocity S-wave (km/s) = 3.12001 3.58590 3.36104
# Velocity P-wave (km/s) = 5.81833 6.57185 6.20654
#
# Compressibility (1/GPa) = 0.02452666
#
# Stress axis : x y z
#
# Youngs Moduli (GPa) = 98.74528 55.79823 101.98158
#
# Poissons Ratio (x) = -0.06567 0.38592
# Poissons Ratio (y) = -0.11622 0.41370
# Poissons Ratio (z) = 0.37367 0.22635
#
# Static dielectric constant tensor:
#      x y z
#    x 4.099310 0.000000 0.000000 
#    y 0.000000 3.983810 0.000000 
#    z 0.000000 0.000000 3.752820 
# 
# 
# High freq. dielectric constant tensor:
#      x y z
#    x 1.790570 0.000000 0.000000 
#    y 0.000000 1.724130 0.000000 
#    z 0.000000 0.000000 1.752430 
# 
# From -- ./inp_files/17485.got.cif
#   From: 2010.03.12/outbox.cif.g09.slc.cpg/sg67_9_cif.got.tgz:17485.got - 2010.04.10 22:41:39.
