data_PCOD8280984
_publ_section_title
;
Structure prediction by ZEFSAII (Michael W. Deem and Ramdas Pophale) SiO2 
 PCOD8280984
Probable space group: C M M A
;
_chemical_formula_sum "Si O2"
_cell_formula_units_Z 112
_cell_length_a 13.840420
_cell_length_b 17.525195
_cell_length_c 22.060410
_cell_angle_alpha 90.000000
_cell_angle_beta 90.000000
_cell_angle_gamma 90.000000
_cell_volume 5350.886118
_symmetry_space_group_name_H-M "C M M A"
_symmetry_group_IT_number 67
_symmetry_cell_setting 'orthorhombic'
loop_
_space_group_symop_operation_xyz
x,y,z
-x,1/2-y,z
x,-y,-z
-x,1/2+y,-z
-x,-y,-z
x,1/2+y,-z
-x,y,z
x,1/2-y,z
1/2+x,1/2+y,z
1/2-x,-y,z
1/2+x,1/2-y,-z
1/2-x,y,-z
1/2-x,1/2-y,-z
1/2+x,y,-z
1/2-x,1/2+y,z
1/2+x,-y,z
loop_
_atom_site_type_symbol
_atom_site_label
_atom_site_fract_x
_atom_site_fract_y
_atom_site_fract_z
Si Si1 0.894790 0.834466 0.251963
Si Si2 0.888478 0.660854 0.021976
Si Si3 0.735389 0.666449 0.570769
Si Si4 0.307134 0.336204 0.794674
Si Si5 0.614273 0.615771 0.336214
Si Si6 0.278723 0.411760 0.913509
Si Si7 0.109650 0.945375 0.362047
O O1 0.892344 0.750000 0.281810
O O2 0.809434 0.841276 0.204078
O O3 0.874627 0.895730 0.302867
O O4 0.000000 0.848917 0.221059
O O5 0.874574 0.750000 0.005943
O O6 0.819174 0.638526 0.078278
O O7 0.000000 0.643116 0.038136
O O8 0.855309 0.608111 0.965910
O O9 0.688828 0.750000 0.583730
O O10 0.750000 0.657807 0.500000
O O11 0.833225 0.664248 0.611434
O O12 0.666425 0.595634 0.584543
O O13 0.342380 0.250000 0.807422
O O14 0.352835 0.362299 0.731344
O O15 0.334569 0.390892 0.850708
O O16 0.500000 0.628376 0.341751
O O17 0.648398 0.529307 0.347598
O O18 0.250000 0.500000 0.914984
O O19 0.000000 0.950011 0.383445
#
# Coordination Sequence:
#
# PCOD8280984 Si02
#       7
#    16  16  16  16  16  16  16
#     4   9  18  33  56  85 116 152 194 242 296 354
#     4  10  21  42  68  90 123 169 213 258 307 363
#     4  11  24  41  63  90 120 159 205 252 303 364
#     4  11  23  39  61  89 124 166 208 250 303 371
#     4  11  25  42  62  89 124 164 202 249 309 369
#     4  11  24  38  62  96 128 163 205 260 312 365
#     4  10  21  38  62  88 117 151 196 250 305 360
#
# _framework density 20.931113
#
# number of rings (size 3 to 8) (size 9 to 14) (size 15 to 20)
#    0.000    1.571    1.429    3.857    2.000    6.000 
#    0.000    4.286    0.000    0.000    0.000    0.000 
#    0.000    0.000    0.000    0.000    0.000    0.000 
#
# Total GULP energy -694065.006387 kJ/mol
# GULP energy per Si atom -12394.017971 kJ/mol
# Density = 2.088347 g / cm^3
# Si number density = 20.931113 Si / 1000 Ang^3
#
#
#
# Elastic Constant Matrix: (Units=GPa)
#
#
# Indices 1 2 3 4 5 6 
#
# 1 55.7908 17.0682 25.8989 0.0000 0.0000 0.0000
# 2 17.0682 139.3992 41.3740 0.0000 0.0000 0.0000
# 3 25.8989 41.3740 122.8707 0.0000 0.0000 0.0000
# 4 0.0000 0.0000 0.0000 31.9186 0.0000 0.0000
# 5 0.0000 0.0000 0.0000 0.0000 14.4228 0.0000
# 6 0.0000 0.0000 0.0000 0.0000 0.0000 14.6106
#
#
#
# Elastic Compliance Matrix: (Units=1/GPa)
#
#
# Indices 1 2 3 4 5 6 
#
# 1 0.020090 -0.001337 -0.003785 0.000000 0.000000 0.000000
# 2 -0.001337 0.008059 -0.002432 0.000000 0.000000 0.000000
# 3 -0.003785 -0.002432 0.009755 0.000000 0.000000 0.000000
# 4 0.000000 0.000000 0.000000 0.031330 0.000000 0.000000
# 5 0.000000 0.000000 0.000000 0.000000 0.069335 0.000000
# 6 0.000000 0.000000 0.000000 0.000000 0.000000 0.068444
#
#
# Mechanical properties :
#
#
# Convention : Reuss Voigt Hill
#
# Bulk Modulus (GPa) = 43.86340 54.08255 48.97298
# Shear Modulus (GPa) = 21.76584 27.77170 24.76877
#
# Velocity S-wave (km/s) = 3.22821 3.64650 3.44371
# Velocity P-wave (km/s) = 5.90735 6.60482 6.26580
#
# Compressibility (1/GPa) = 0.02279805
#
# Stress axis : x y z
#
# Youngs Moduli (GPa) = 49.77641 124.08308 102.50876
#
# Poissons Ratio (x) = 0.16585 0.38795
# Poissons Ratio (y) = 0.06653 0.24930
# Poissons Ratio (z) = 0.18838 0.30177
#
# Static dielectric constant tensor:
#      x y z
#    x 3.981180 0.000000 0.000000 
#    y 0.000000 4.197640 0.000000 
#    z 0.000000 0.000000 3.637990 
# 
# 
# High freq. dielectric constant tensor:
#      x y z
#    x 1.819370 0.000000 0.000000 
#    y 0.000000 1.835700 0.000000 
#    z 0.000000 0.000000 1.807460 
# 
# From -- ./inp_files/41917.got.cif
#   From: 2010.03.12/outbox.cif.g09.slc.cpg/sg67_21_cif.got.tgz:41917.got - 2010.04.10 22:41:39.
