data_PCOD8280177
_publ_section_title
;
Structure prediction by ZEFSAII (Michael W. Deem and Ramdas Pophale) SiO2 
 PCOD8280177
Probable space group: C M M A
;
_chemical_formula_sum "Si O2"
_cell_formula_units_Z 88
_cell_length_a 8.835094
_cell_length_b 15.237693
_cell_length_c 30.598385
_cell_angle_alpha 90.000000
_cell_angle_beta 90.000000
_cell_angle_gamma 90.000000
_cell_volume 4119.351948
_symmetry_space_group_name_H-M "C M M A"
_symmetry_group_IT_number 67
_symmetry_cell_setting 'orthorhombic'
loop_
_space_group_symop_operation_xyz
x,y,z
-x,1/2-y,z
x,-y,-z
-x,1/2+y,-z
-x,-y,-z
x,1/2+y,-z
-x,y,z
x,1/2-y,z
1/2+x,1/2+y,z
1/2-x,-y,z
1/2+x,1/2-y,-z
1/2-x,y,-z
1/2-x,1/2-y,-z
1/2+x,y,-z
1/2-x,1/2+y,z
1/2+x,-y,z
loop_
_atom_site_type_symbol
_atom_site_label
_atom_site_fract_x
_atom_site_fract_y
_atom_site_fract_z
Si Si1 0.669294 0.854621 0.456928
Si Si2 0.164472 0.649727 0.712222
Si Si3 0.682318 0.597617 0.894448
Si Si4 0.167364 0.854940 0.370904
Si Si5 0.680925 0.405573 0.805426
Si Si6 0.317131 0.750000 0.047960
O O1 0.500000 0.889452 0.458240
O O2 0.678098 0.750000 0.457017
O O3 0.750000 0.892764 0.500000
O O4 0.742275 0.891814 0.412542
O O5 0.146080 0.750000 0.698953
O O6 0.267080 0.605969 0.674685
O O7 0.229940 0.645214 0.761421
O O8 0.000000 0.603044 0.711594
O O9 0.500000 0.595317 0.897229
O O10 0.750000 0.500000 0.901499
O O11 0.737399 0.636460 0.847644
O O12 0.752127 0.661940 0.930234
O O13 0.167845 0.750000 0.370607
O O14 0.000000 0.892474 0.375151
O O15 0.500000 0.406209 0.813055
O O16 0.750000 0.500000 0.798715
O O17 0.500000 0.750000 0.048507
O O18 0.250000 0.750000 0.000000
#
# Coordination Sequence:
#
# PCOD8280177 Si02
#       6
#    16  16  16  16  16   8
#     4   9  15  22  33  49  73 109 152 197 246 306
#     4   9  18  31  47  69  97 134 175 215 267 327
#     4  11  23  42  66  96 130 170 213 260 314 370
#     4   9  16  25  37  56  84 117 155 203 257 313
#     4  10  20  35  56  81 111 149 189 235 285 339
#     4  12  26  46  70 100 134 170 214 264 313 370
#
# _framework density 21.362583000000001
#
# number of rings (size 3 to 8) (size 9 to 14) (size 15 to 20)
#    0.000    2.182    0.000    5.182    1.273    6.182 
#    0.000    1.818    0.000    0.000    0.000    0.000 
#    0.000    0.727    0.000    7.636    0.000   11.455 
#
# Total GULP energy -545287.562399 kJ/mol
# GULP energy per Si atom -12392.899145 kJ/mol
# Density = 2.131396 g / cm^3
# Si number density = 21.362583 Si / 1000 Ang^3
#
#
#
# Elastic Constant Matrix: (Units=GPa)
#
#
# Indices 1 2 3 4 5 6 
#
# 1 193.3205 32.6260 109.9570 0.0000 0.0000 0.0000
# 2 32.6260 38.1596 39.9165 0.0000 0.0000 0.0000
# 3 109.9570 39.9165 219.2810 0.0000 0.0000 0.0000
# 4 0.0000 0.0000 0.0000 -22.6396 0.0000 0.0000
# 5 0.0000 0.0000 0.0000 0.0000 45.4738 0.0000
# 6 0.0000 0.0000 0.0000 0.0000 0.0000 20.2304
#
#
#
# Elastic Compliance Matrix: (Units=1/GPa)
#
#
# Indices 1 2 3 4 5 6 
#
# 1 0.007517 -0.003068 -0.003211 0.000000 0.000000 0.000000
# 2 -0.003068 0.033622 -0.004582 0.000000 0.000000 0.000000
# 3 -0.003211 -0.004582 0.007004 0.000000 0.000000 0.000000
# 4 0.000000 0.000000 0.000000 -0.044170 0.000000 0.000000
# 5 0.000000 0.000000 0.000000 0.000000 0.021991 0.000000
# 6 0.000000 0.000000 0.000000 0.000000 0.000000 0.049430
#
#
# Mechanical properties :
#
#
# Convention : Reuss Voigt Hill
#
# Bulk Modulus (GPa) = 37.84791 90.64000 64.24395
# Shear Modulus (GPa) = 47.20450 26.49703 36.85076
#
# Velocity S-wave (km/s) = 4.70582 3.52568 4.15784
# Velocity P-wave (km/s) = 6.87617 7.68735 7.29305
#
# Compressibility (1/GPa) = 0.02642154
#
# Stress axis : x y z
#
# Youngs Moduli (GPa) = 133.03609 29.74266 142.76782
#
# Poissons Ratio (x) = 0.09126 0.45839
# Poissons Ratio (y) = 0.40818 0.65413
# Poissons Ratio (z) = 0.42714 0.13627
#
# Static dielectric constant tensor:
#      x y z
#    x 4.141580 0.000000 0.000000 
#    y 0.000000 3.381320 0.000000 
#    z 0.000000 0.000000 4.354510 
# 
# 
# High freq. dielectric constant tensor:
#      x y z
#    x 1.848220 0.000000 0.000000 
#    y 0.000000 1.799830 0.000000 
#    z 0.000000 0.000000 1.855490 
# 
# From -- ./inp_files/45207.got.cif
#   From: 2010.03.12/outbox.cif.g09.slc.cpg/sg67_23_cif.got.tgz:45207.got - 2010.04.10 22:41:39.
