data_PCOD8280412
_publ_section_title
;
Structure prediction by ZEFSAII (Michael W. Deem and Ramdas Pophale) SiO2 
 PCOD8280412
Probable space group: C M M A
;
_chemical_formula_sum "Si O2"
_cell_formula_units_Z 64
_cell_length_a 8.758257
_cell_length_b 15.436580
_cell_length_c 23.738636
_cell_angle_alpha 90.000000
_cell_angle_beta 90.000000
_cell_angle_gamma 90.000000
_cell_volume 3209.405068
_symmetry_space_group_name_H-M "C M M A"
_symmetry_group_IT_number 67
_symmetry_cell_setting 'orthorhombic'
loop_
_space_group_symop_operation_xyz
x,y,z
-x,1/2-y,z
x,-y,-z
-x,1/2+y,-z
-x,-y,-z
x,1/2+y,-z
-x,y,z
x,1/2-y,z
1/2+x,1/2+y,z
1/2-x,-y,z
1/2+x,1/2-y,-z
1/2-x,y,-z
1/2-x,1/2-y,-z
1/2+x,y,-z
1/2-x,1/2+y,z
1/2+x,-y,z
loop_
_atom_site_type_symbol
_atom_site_label
_atom_site_fract_x
_atom_site_fract_y
_atom_site_fract_z
Si Si1 0.181207 0.410495 0.676674
Si Si2 0.320478 0.651634 0.556384
Si Si3 0.177685 0.750000 0.138997
Si Si4 0.179425 0.089887 0.940092
Si Si5 0.320424 0.750000 0.258714
O O1 0.250000 0.500000 0.699623
O O2 0.233585 0.399588 0.611706
O O3 0.247311 0.334442 0.714119
O O4 0.000000 0.409960 0.682684
O O5 0.500000 0.649068 0.550397
O O6 0.260775 0.750000 0.562673
O O7 0.250000 0.608689 0.500000
O O8 0.219525 0.835044 0.103639
O O9 0.285024 0.750000 0.192909
O O10 0.000000 0.750000 0.156629
O O11 0.000000 0.078173 0.947832
O O12 0.250000 0.000000 0.917355
O O13 0.250000 0.115662 0.000000
O O14 0.500000 0.750000 0.269229
#
# Coordination Sequence:
#
# PCOD8280412 Si02
#       5
#    16  16   8  16   8
#     4  11  23  42  64  88 120 157 200 249 303 362
#     4   9  18  34  57  85 117 154 190 237 298 356
#     4  10  23  41  61  85 119 162 201 246 298 350
#     4  10  20  36  60  90 124 160 196 239 293 347
#     4  12  26  43  64  89 117 158 206 254 307 358
#
# _framework density 19.941390999999999
#
# number of rings (size 3 to 8) (size 9 to 14) (size 15 to 20)
#    0.000    1.750    1.250    3.750    0.000    5.500 
#    0.000    5.000    0.000    0.000    0.000    0.000 
#    0.000    0.000    0.000    0.000    0.000    0.000 
#
# Total GULP energy -396895.187048 kJ/mol
# GULP energy per Si atom -12402.974595 kJ/mol
# Density = 1.989600 g / cm^3
# Si number density = 19.941391 Si / 1000 Ang^3
#
#
#
# Elastic Constant Matrix: (Units=GPa)
#
#
# Indices 1 2 3 4 5 6 
#
# 1 98.5412 59.2729 59.2915 0.0000 0.0000 0.0000
# 2 59.2729 154.8921 77.7412 0.0000 0.0000 0.0000
# 3 59.2915 77.7412 126.1963 0.0000 0.0000 0.0000
# 4 0.0000 0.0000 0.0000 15.0724 0.0000 0.0000
# 5 0.0000 0.0000 0.0000 0.0000 36.2077 0.0000
# 6 0.0000 0.0000 0.0000 0.0000 0.0000 21.1016
#
#
#
# Elastic Compliance Matrix: (Units=1/GPa)
#
#
# Indices 1 2 3 4 5 6 
#
# 1 0.015186 -0.003228 -0.005146 0.000000 0.000000 0.000000
# 2 -0.003228 0.010032 -0.004663 0.000000 0.000000 0.000000
# 3 -0.005146 -0.004663 0.013215 0.000000 0.000000 0.000000
# 4 0.000000 0.000000 0.000000 0.066346 0.000000 0.000000
# 5 0.000000 0.000000 0.000000 0.000000 0.027618 0.000000
# 6 0.000000 0.000000 0.000000 0.000000 0.000000 0.047390
#
#
# Mechanical properties :
#
#
# Convention : Reuss Voigt Hill
#
# Bulk Modulus (GPa) = 80.92382 85.80453 83.36418
# Shear Modulus (GPa) = 23.81145 26.69794 25.25470
#
# Velocity S-wave (km/s) = 3.45928 3.66296 3.56258
# Velocity P-wave (km/s) = 7.52492 7.81098 7.66929
#
# Compressibility (1/GPa) = 0.01235730
#
# Stress axis : x y z
#
# Youngs Moduli (GPa) = 65.84806 99.68048 75.67294
#
# Poissons Ratio (x) = 0.32182 0.38943
# Poissons Ratio (y) = 0.21259 0.35288
# Poissons Ratio (z) = 0.33887 0.46483
#
# Static dielectric constant tensor:
#      x y z
#    x 3.599500 0.000000 0.000000 
#    y 0.000000 3.745840 0.000000 
#    z 0.000000 0.000000 3.675570 
# 
# 
# High freq. dielectric constant tensor:
#      x y z
#    x 1.781400 0.000000 0.000000 
#    y 0.000000 1.785780 0.000000 
#    z 0.000000 0.000000 1.777640 
# 
# From -- ./inp_files/40425.got.cif
#   From: 2010.03.12/outbox.cif.g09.slc.cpg/sg67_21_cif.got.tgz:40425.got - 2010.04.10 22:41:39.
