data_PCOD8280659
_publ_section_title
;
Structure prediction by ZEFSAII (Michael W. Deem and Ramdas Pophale) SiO2 
 PCOD8280659
Probable space group: C M M A
;
_chemical_formula_sum "Si O2"
_cell_formula_units_Z 88
_cell_length_a 21.649421
_cell_length_b 9.255821
_cell_length_c 22.216481
_cell_angle_alpha 90.000000
_cell_angle_beta 90.000000
_cell_angle_gamma 90.000000
_cell_volume 4451.808790
_symmetry_space_group_name_H-M "C M M A"
_symmetry_group_IT_number 67
_symmetry_cell_setting 'orthorhombic'
loop_
_space_group_symop_operation_xyz
x,y,z
-x,1/2-y,z
x,-y,-z
-x,1/2+y,-z
-x,-y,-z
x,1/2+y,-z
-x,y,z
x,1/2-y,z
1/2+x,1/2+y,z
1/2-x,-y,z
1/2+x,1/2-y,-z
1/2-x,y,-z
1/2-x,1/2-y,-z
1/2+x,y,-z
1/2-x,1/2+y,z
1/2+x,-y,z
loop_
_atom_site_type_symbol
_atom_site_label
_atom_site_fract_x
_atom_site_fract_y
_atom_site_fract_z
Si Si1 0.071770 0.583899 0.666728
Si Si2 0.350605 0.591502 0.441070
Si Si3 0.339357 0.587673 0.742907
Si Si4 0.750000 0.000000 0.644486
Si Si5 0.430349 0.918251 0.061726
Si Si6 0.310214 0.577419 0.138486
O O1 0.093395 0.750000 0.676577
O O2 0.094056 0.530081 0.600740
O O3 0.097654 0.485262 0.720141
O O4 0.000000 0.566905 0.669869
O O5 0.339039 0.500000 0.500000
O O6 0.367193 0.750000 0.464562
O O7 0.290326 0.601084 0.398877
O O8 0.351866 0.750000 0.766967
O O9 0.292444 0.598896 0.686971
O O10 0.312286 0.485693 0.794575
O O11 0.500000 0.953950 0.087173
O O12 0.425142 0.750000 0.047590
O O13 0.375322 0.964506 0.106861
O O14 0.418729 0.000000 0.000000
O O15 0.300019 0.750000 0.139863
O O16 0.250000 0.500000 0.107099
#
# Coordination Sequence:
#
# PCOD8280659 Si02
#       6
#    16  16  16   8  16  16
#     4   9  20  39  58  76 106 148 188 229 286 351
#     4  10  21  35  53  78 105 138 180 227 282 342
#     4  11  22  36  58  85 113 146 189 238 288 343
#     4  10  21  36  56  76 109 144 184 224 282 346
#     4   9  20  40  64  89 119 159 204 247 293 346
#     4  11  23  38  59  89 125 161 200 245 297 355
#
# _framework density 19.767244999999999
#
# number of rings (size 3 to 8) (size 9 to 14) (size 15 to 20)
#    0.000    2.000    0.909    1.909    0.000    9.091 
#    0.000    3.636    0.000    0.000    0.000    0.000 
#    0.000    0.000    0.000    0.000    0.000    0.000 
#
# Total GULP energy -545325.473512 kJ/mol
# GULP energy per Si atom -12393.760762 kJ/mol
# Density = 1.972225 g / cm^3
# Si number density = 19.767245 Si / 1000 Ang^3
#
#
#
# Elastic Constant Matrix: (Units=GPa)
#
#
# Indices 1 2 3 4 5 6 
#
# 1 126.4432 52.9847 44.0803 0.0000 0.0000 0.0000
# 2 52.9847 85.1811 41.8647 0.0000 0.0000 0.0000
# 3 44.0803 41.8647 75.0311 0.0000 0.0000 0.0000
# 4 0.0000 0.0000 0.0000 21.5011 0.0000 0.0000
# 5 0.0000 0.0000 0.0000 0.0000 18.3359 0.0000
# 6 0.0000 0.0000 0.0000 0.0000 0.0000 28.4296
#
#
#
# Elastic Compliance Matrix: (Units=1/GPa)
#
#
# Indices 1 2 3 4 5 6 
#
# 1 0.011427 -0.005248 -0.003786 0.000000 0.000000 0.000000
# 2 -0.005248 0.018585 -0.007287 0.000000 0.000000 0.000000
# 3 -0.003786 -0.007287 0.019618 0.000000 0.000000 0.000000
# 4 0.000000 0.000000 0.000000 0.046509 0.000000 0.000000
# 5 0.000000 0.000000 0.000000 0.000000 0.054538 0.000000
# 6 0.000000 0.000000 0.000000 0.000000 0.000000 0.035175
#
#
# Mechanical properties :
#
#
# Convention : Reuss Voigt Hill
#
# Bulk Modulus (GPa) = 58.85796 62.72385 60.79091
# Shear Modulus (GPa) = 22.30596 23.50170 22.90383
#
# Velocity S-wave (km/s) = 3.36286 3.45181 3.40763
# Velocity P-wave (km/s) = 6.70213 6.90556 6.80461
#
# Compressibility (1/GPa) = 0.01699005
#
# Stress axis : x y z
#
# Youngs Moduli (GPa) = 87.50960 53.80632 50.97457
#
# Poissons Ratio (x) = 0.28235 0.19297
# Poissons Ratio (y) = 0.45921 0.37145
# Poissons Ratio (z) = 0.33127 0.39208
#
# Static dielectric constant tensor:
#      x y z
#    x 3.910040 0.000000 0.000000 
#    y 0.000000 3.577090 0.000000 
#    z 0.000000 0.000000 3.481720 
# 
# 
# High freq. dielectric constant tensor:
#      x y z
#    x 1.781560 0.000000 0.000000 
#    y 0.000000 1.766620 0.000000 
#    z 0.000000 0.000000 1.756850 
# 
# From -- ./inp_files/39599.got.cif
#   From: 2010.03.12/outbox.cif.g09.slc.cpg/sg67_20_cif.got.tgz:39599.got - 2010.04.10 22:41:39.
