data_PCOD8280286
_publ_section_title
;
Structure prediction by ZEFSAII (Michael W. Deem and Ramdas Pophale) SiO2 
 PCOD8280286
Probable space group: C M M A
;
_chemical_formula_sum "Si O2"
_cell_formula_units_Z 48
_cell_length_a 17.634302
_cell_length_b 10.301851
_cell_length_c 12.673437
_cell_angle_alpha 90.000000
_cell_angle_beta 90.000000
_cell_angle_gamma 90.000000
_cell_volume 2302.331994
_symmetry_space_group_name_H-M "C M M A"
_symmetry_group_IT_number 67
_symmetry_cell_setting 'orthorhombic'
loop_
_space_group_symop_operation_xyz
x,y,z
-x,1/2-y,z
x,-y,-z
-x,1/2+y,-z
-x,-y,-z
x,1/2+y,-z
-x,y,z
x,1/2-y,z
1/2+x,1/2+y,z
1/2-x,-y,z
1/2+x,1/2-y,-z
1/2-x,y,-z
1/2-x,1/2-y,-z
1/2+x,y,-z
1/2-x,1/2+y,z
1/2+x,-y,z
loop_
_atom_site_type_symbol
_atom_site_label
_atom_site_fract_x
_atom_site_fract_y
_atom_site_fract_z
Si Si1 0.911865 0.750000 0.413689
Si Si2 0.167187 0.516579 0.296744
Si Si3 0.330141 0.611135 0.939050
Si Si4 0.088692 0.750000 0.660665
O O1 0.878952 0.882242 0.366841
O O2 0.894489 0.750000 0.536947
O O3 0.000000 0.750000 0.387971
O O4 0.250000 0.500000 0.349335
O O5 0.180753 0.576239 0.181991
O O6 0.124872 0.378726 0.288329
O O7 0.372209 0.750000 0.946958
O O8 0.378990 0.500000 0.000000
O O9 0.250000 0.620543 0.000000
O O10 0.000000 0.750000 0.686014
#
# Coordination Sequence:
#
# PCOD8280286 Si02
#       4
#     8  16  16   8
#     4  11  25  47  65  88 136 188 217 257 335 399
#     4  12  23  39  70 106 126 165 226 283 314 377
#     4  10  20  35  61  98 128 166 202 263 328 397
#     4  11  27  45  65  92 138 186 213 257 337 405
#
# _framework density 20.848427999999998
#
# number of rings (size 3 to 8) (size 9 to 14) (size 15 to 20)
#    0.000    1.000    5.000    3.000    2.333    6.667 
#    0.000    0.000    0.000    6.000    0.000    0.000 
#    0.000    0.000    0.000    0.000    0.000    0.000 
#
# Total GULP energy -297448.302759 kJ/mol
# GULP energy per Si atom -12393.679282 kJ/mol
# Density = 2.080098 g / cm^3
# Si number density = 20.848428 Si / 1000 Ang^3
#
#
#
# Elastic Constant Matrix: (Units=GPa)
#
#
# Indices 1 2 3 4 5 6 
#
# 1 92.3202 51.4126 40.8122 0.0000 0.0000 0.0000
# 2 51.4126 227.3717 44.6366 0.0000 0.0000 0.0000
# 3 40.8122 44.6366 89.8006 0.0000 0.0000 0.0000
# 4 0.0000 0.0000 0.0000 34.0568 0.0000 0.0000
# 5 0.0000 0.0000 0.0000 0.0000 -18.3851 0.0000
# 6 0.0000 0.0000 0.0000 0.0000 0.0000 21.1990
#
#
#
# Elastic Compliance Matrix: (Units=1/GPa)
#
#
# Indices 1 2 3 4 5 6 
#
# 1 0.014482 -0.002197 -0.005490 0.000000 0.000000 0.000000
# 2 -0.002197 0.005207 -0.001590 0.000000 0.000000 0.000000
# 3 -0.005490 -0.001590 0.014421 0.000000 0.000000 0.000000
# 4 0.000000 0.000000 0.000000 0.029363 0.000000 0.000000
# 5 0.000000 0.000000 0.000000 0.000000 -0.054392 0.000000
# 6 0.000000 0.000000 0.000000 0.000000 0.000000 0.047172
#
#
# Mechanical properties :
#
#
# Convention : Reuss Voigt Hill
#
# Bulk Modulus (GPa) = 64.27898 75.91280 70.09589
# Shear Modulus (GPa) = 62.50661 25.54955 44.02808
#
# Velocity S-wave (km/s) = 5.48147 3.50450 4.60044
# Velocity P-wave (km/s) = 8.42381 7.27091 7.86850
#
# Compressibility (1/GPa) = 0.01555719
#
# Stress axis : x y z
#
# Youngs Moduli (GPa) = 69.05019 192.05151 69.34351
#
# Poissons Ratio (x) = 0.42193 0.38068
# Poissons Ratio (y) = 0.15170 0.11024
# Poissons Ratio (z) = 0.37907 0.30531
#
# Static dielectric constant tensor:
#      x y z
#    x 3.555440 0.000000 0.000000 
#    y 0.000000 4.849040 0.000000 
#    z 0.000000 0.000000 3.861520 
# 
# 
# High freq. dielectric constant tensor:
#      x y z
#    x 1.777590 0.000000 0.000000 
#    y 0.000000 1.857450 0.000000 
#    z 0.000000 0.000000 1.824700 
# 
# From -- ./inp_files/18807.got.cif
#   From: 2010.03.12/outbox.cif.g09.slc.cpg/sg67_10_cif.got.tgz:18807.got - 2010.04.10 22:41:39.
