data_PCOD8280648
_publ_section_title
;
Structure prediction by ZEFSAII (Michael W. Deem and Ramdas Pophale) SiO2 
 PCOD8280648
Probable space group: C M M A
;
_chemical_formula_sum "Si O2"
_cell_formula_units_Z 72
_cell_length_a 14.574391
_cell_length_b 17.334133
_cell_length_c 15.179580
_cell_angle_alpha 90.000000
_cell_angle_beta 90.000000
_cell_angle_gamma 90.000000
_cell_volume 3834.884571
_symmetry_space_group_name_H-M "C M M A"
_symmetry_group_IT_number 67
_symmetry_cell_setting 'orthorhombic'
loop_
_space_group_symop_operation_xyz
x,y,z
-x,1/2-y,z
x,-y,-z
-x,1/2+y,-z
-x,-y,-z
x,1/2+y,-z
-x,y,z
x,1/2-y,z
1/2+x,1/2+y,z
1/2-x,-y,z
1/2+x,1/2-y,-z
1/2-x,y,-z
1/2-x,1/2-y,-z
1/2+x,y,-z
1/2-x,1/2+y,z
1/2+x,-y,z
loop_
_atom_site_type_symbol
_atom_site_label
_atom_site_fract_x
_atom_site_fract_y
_atom_site_fract_z
Si Si1 0.000000 0.933828 0.429548
Si Si2 0.679328 0.839312 0.769761
Si Si3 0.500000 0.560240 0.078874
Si Si4 0.183002 0.340130 0.079548
Si Si5 0.500000 0.938924 0.771523
Si Si6 0.679186 0.339406 0.429482
O O1 0.085314 0.880585 0.448076
O O2 0.000000 0.966018 0.329987
O O3 0.000000 0.000000 0.500000
O O4 0.652432 0.750000 0.784440
O O5 0.764384 0.863314 0.830911
O O6 0.589566 0.888396 0.793929
O O7 0.713251 0.854528 0.670132
O O8 0.410407 0.612924 0.071968
O O9 0.500000 0.516152 0.171492
O O10 0.500000 0.500000 0.000000
O O11 0.157911 0.250000 0.077525
O O12 0.250000 0.362678 0.000000
O O13 0.662944 0.250000 0.447483
O O14 0.750000 0.374189 0.500000
#
# Coordination Sequence:
#
# PCOD8280648 Si02
#       6
#     8  16   8  16   8  16
#     4  10  21  35  51  77 111 144 177 216 267 321
#     4   9  18  35  58  81 105 137 179 223 265 312
#     4  12  25  38  55  82 114 143 172 213 264 316
#     4  10  22  40  60  80 105 140 180 219 259 308
#     4  10  21  35  55  81 109 141 176 219 267 317
#     4   9  18  34  56  79 103 137 182 226 265 309
#
# _framework density 18.775010000000002
#
# number of rings (size 3 to 8) (size 9 to 14) (size 15 to 20)
#    0.000    2.222    0.000    2.333    0.000    8.000 
#    0.000    8.889    0.000    6.667    0.000    0.000 
#    0.000    0.000    0.000    0.000    0.000    0.000 
#
# Total GULP energy -446442.360131 kJ/mol
# GULP energy per Si atom -12401.176670 kJ/mol
# Density = 1.873228 g / cm^3
# Si number density = 18.775010 Si / 1000 Ang^3
#
#
#
# Elastic Constant Matrix: (Units=GPa)
#
#
# Indices 1 2 3 4 5 6 
#
# 1 172.4576 79.1411 100.3064 0.0000 0.0000 0.0000
# 2 79.1411 76.0087 65.2622 0.0000 0.0000 0.0000
# 3 100.3064 65.2622 138.1901 0.0000 0.0000 0.0000
# 4 0.0000 0.0000 0.0000 32.2542 0.0000 0.0000
# 5 0.0000 0.0000 0.0000 0.0000 31.9075 0.0000
# 6 0.0000 0.0000 0.0000 0.0000 0.0000 34.7948
#
#
#
# Elastic Compliance Matrix: (Units=1/GPa)
#
#
# Indices 1 2 3 4 5 6 
#
# 1 0.012934 -0.009094 -0.005094 0.000000 0.000000 0.000000
# 2 -0.009094 0.028523 -0.006870 0.000000 0.000000 0.000000
# 3 -0.005094 -0.006870 0.014178 0.000000 0.000000 0.000000
# 4 0.000000 0.000000 0.000000 0.031004 0.000000 0.000000
# 5 0.000000 0.000000 0.000000 0.000000 0.031341 0.000000
# 6 0.000000 0.000000 0.000000 0.000000 0.000000 0.028740
#
#
# Mechanical properties :
#
#
# Convention : Reuss Voigt Hill
#
# Bulk Modulus (GPa) = 73.95829 97.34175 85.65002
# Shear Modulus (GPa) = 25.86086 29.25440 27.55763
#
# Velocity S-wave (km/s) = 3.71537 3.95163 3.83532
# Velocity P-wave (km/s) = 7.60807 8.53109 8.08277
#
# Compressibility (1/GPa) = 0.01352113
#
# Stress axis : x y z
#
# Youngs Moduli (GPa) = 77.31307 35.05889 70.53073
#
# Poissons Ratio (x) = 0.31882 0.35928
# Poissons Ratio (y) = 0.70307 0.48453
# Poissons Ratio (z) = 0.39382 0.24085
#
# Static dielectric constant tensor:
#      x y z
#    x 3.529390 0.000000 0.000000 
#    y 0.000000 3.417870 0.000000 
#    z 0.000000 0.000000 3.751540 
# 
# 
# High freq. dielectric constant tensor:
#      x y z
#    x 1.733300 0.000000 0.000000 
#    y 0.000000 1.723940 0.000000 
#    z 0.000000 0.000000 1.743950 
# 
# From -- ./inp_files/26867.got.cif
#   From: 2010.03.12/outbox.cif.g09.slc.cpg/sg67_14_cif.got.tgz:26867.got - 2010.04.10 22:41:39.
