data_PCOD8280277
_publ_section_title
;
Structure prediction by ZEFSAII (Michael W. Deem and Ramdas Pophale) SiO2 
 PCOD8280277
Probable space group: C M M A
;
_chemical_formula_sum "Si O2"
_cell_formula_units_Z 88
_cell_length_a 25.367116
_cell_length_b 14.336499
_cell_length_c 10.757778
_cell_angle_alpha 90.000000
_cell_angle_beta 90.000000
_cell_angle_gamma 90.000000
_cell_volume 3912.341726
_symmetry_space_group_name_H-M "C M M A"
_symmetry_group_IT_number 67
_symmetry_cell_setting 'orthorhombic'
loop_
_space_group_symop_operation_xyz
x,y,z
-x,1/2-y,z
x,-y,-z
-x,1/2+y,-z
-x,-y,-z
x,1/2+y,-z
-x,y,z
x,1/2-y,z
1/2+x,1/2+y,z
1/2-x,-y,z
1/2+x,1/2-y,-z
1/2-x,y,-z
1/2-x,1/2-y,-z
1/2+x,y,-z
1/2-x,1/2+y,z
1/2+x,-y,z
loop_
_atom_site_type_symbol
_atom_site_label
_atom_site_fract_x
_atom_site_fract_y
_atom_site_fract_z
Si Si1 0.355195 0.000000 0.000000
Si Si2 0.895934 0.360177 0.596586
Si Si3 0.590550 0.353751 0.682885
Si Si4 0.196820 0.855173 0.822409
Si Si5 0.778292 0.639073 0.377507
Si Si6 0.057774 0.968983 0.188079
O O1 0.317577 0.076345 0.935870
O O2 0.394640 0.945859 0.906085
O O3 0.897031 0.250000 0.611129
O O4 0.913331 0.389422 0.458406
O O5 0.837709 0.399893 0.628015
O O6 0.936974 0.404618 0.691335
O O7 0.566444 0.250000 0.697463
O O8 0.651854 0.353234 0.718154
O O9 0.558870 0.422377 0.772758
O O10 0.205138 0.750000 0.875815
O O11 0.248779 0.892049 0.749772
O O12 0.777909 0.750000 0.386609
O O13 0.750000 0.597308 0.500000
O O14 0.000000 0.949409 0.128461
#
# Coordination Sequence:
#
# PCOD8280277 Si02
#       6
#     8  16  16  16  16  16
#     4  10  23  42  61  82 120 160 218 260 290 350
#     4  10  20  35  59  93 127 155 193 246 309 379
#     4   9  18  35  60  89 120 150 195 257 316 371
#     4   9  17  34  62  93 123 159 199 248 304 362
#     4   9  15  30  61  95 124 155 190 238 307 374
#     4  11  24  41  59  80 115 165 215 260 305 350
#
# _framework density 22.492922
#
# number of rings (size 3 to 8) (size 9 to 14) (size 15 to 20)
#    0.000    2.364    1.818    0.818    0.000    2.909 
#    0.000    7.273    0.000    6.545    0.000    1.273 
#    0.000    0.727    0.000    0.000    0.000    0.000 
#
# Total GULP energy -545571.897606 kJ/mol
# GULP energy per Si atom -12399.361309 kJ/mol
# Density = 2.244173 g / cm^3
# Si number density = 22.492922 Si / 1000 Ang^3
#
#
#
# Elastic Constant Matrix: (Units=GPa)
#
#
# Indices 1 2 3 4 5 6 
#
# 1 80.3149 17.3870 18.0767 0.0000 0.0000 0.0000
# 2 17.3870 47.6633 40.7149 0.0000 0.0000 0.0000
# 3 18.0767 40.7149 111.5770 0.0000 0.0000 0.0000
# 4 0.0000 0.0000 0.0000 35.4995 0.0000 0.0000
# 5 0.0000 0.0000 0.0000 0.0000 16.6771 0.0000
# 6 0.0000 0.0000 0.0000 0.0000 0.0000 18.1242
#
#
#
# Elastic Compliance Matrix: (Units=1/GPa)
#
#
# Indices 1 2 3 4 5 6 
#
# 1 0.013543 -0.004455 -0.000569 0.000000 0.000000 0.000000
# 2 -0.004455 0.031947 -0.010936 0.000000 0.000000 0.000000
# 3 -0.000569 -0.010936 0.013045 0.000000 0.000000 0.000000
# 4 0.000000 0.000000 0.000000 0.028169 0.000000 0.000000
# 5 0.000000 0.000000 0.000000 0.000000 0.059963 0.000000
# 6 0.000000 0.000000 0.000000 0.000000 0.000000 0.055175
#
#
# Mechanical properties :
#
#
# Convention : Reuss Voigt Hill
#
# Bulk Modulus (GPa) = 37.56987 43.54584 40.55785
# Shear Modulus (GPa) = 20.60720 24.95192 22.77956
#
# Velocity S-wave (km/s) = 3.03010 3.33426 3.18582
# Velocity P-wave (km/s) = 5.38343 5.85021 5.62166
#
# Compressibility (1/GPa) = 0.02661708
#
# Stress axis : x y z
#
# Youngs Moduli (GPa) = 73.83696 31.30161 76.65699
#
# Poissons Ratio (x) = 0.13944 0.04359
# Poissons Ratio (y) = 0.32892 0.83832
# Poissons Ratio (z) = 0.04199 0.34231
#
# Static dielectric constant tensor:
#      x y z
#    x 3.972210 0.000000 0.000000 
#    y 0.000000 3.916400 0.000000 
#    z 0.000000 0.000000 3.938260 
# 
# 
# High freq. dielectric constant tensor:
#      x y z
#    x 1.877470 0.000000 0.000000 
#    y 0.000000 1.878360 0.000000 
#    z 0.000000 0.000000 1.878700 
# 
# From -- ./inp_files/21762.got.cif
#   From: 2010.03.12/outbox.cif.g09.slc.cpg/sg67_11_cif.got.tgz:21762.got - 2010.04.10 22:41:39.
