data_PCOD8280558
_publ_section_title
;
Structure prediction by ZEFSAII (Michael W. Deem and Ramdas Pophale) SiO2 
 PCOD8280558
Probable space group: C M M A
;
_chemical_formula_sum "Si O2"
_cell_formula_units_Z 88
_cell_length_a 24.994690
_cell_length_b 10.582196
_cell_length_c 17.645849
_cell_angle_alpha 90.000000
_cell_angle_beta 90.000000
_cell_angle_gamma 90.000000
_cell_volume 4667.304272
_symmetry_space_group_name_H-M "C M M A"
_symmetry_group_IT_number 67
_symmetry_cell_setting 'orthorhombic'
loop_
_space_group_symop_operation_xyz
x,y,z
-x,1/2-y,z
x,-y,-z
-x,1/2+y,-z
-x,-y,-z
x,1/2+y,-z
-x,y,z
x,1/2-y,z
1/2+x,1/2+y,z
1/2-x,-y,z
1/2+x,1/2-y,-z
1/2-x,y,-z
1/2-x,1/2-y,-z
1/2+x,y,-z
1/2-x,1/2+y,z
1/2+x,-y,z
loop_
_atom_site_type_symbol
_atom_site_label
_atom_site_fract_x
_atom_site_fract_y
_atom_site_fract_z
Si Si1 0.684933 0.250000 0.646138
Si Si2 0.123813 0.500000 0.000000
Si Si3 0.060724 0.109350 0.698868
Si Si4 0.189612 0.750000 0.968166
Si Si5 0.638034 0.250000 0.812259
Si Si6 0.438420 0.024483 0.850076
Si Si7 0.638759 0.995409 0.583029
Si Si8 0.287616 0.750000 0.574280
O O1 0.666263 0.250000 0.732020
O O2 0.667710 0.127149 0.598896
O O3 0.749209 0.250000 0.647929
O O4 0.160540 0.624016 0.997256
O O5 0.084556 0.478184 0.929607
O O6 0.081310 0.250000 0.682500
O O7 0.000000 0.091118 0.672857
O O8 0.065978 0.086705 0.788704
O O9 0.094713 0.014417 0.648318
O O10 0.184861 0.750000 0.876404
O O11 0.250000 0.750000 0.000000
O O12 0.598845 0.366741 0.818487
O O13 0.500000 0.069531 0.859833
O O14 0.611214 0.000000 0.500000
O O15 0.678626 0.877454 0.581335
O O16 0.250000 0.750000 0.500000
#
# Coordination Sequence:
#
# PCOD8280558 Si02
#       8
#     8   8  16   8   8  16  16   8
#     4  12  24  39  60  94 121 153 211 251 305 368
#     4  10  22  38  64  92 120 156 208 250 296 362
#     4  10  22  40  61  87 123 162 199 246 304 366
#     4  10  22  43  61  85 126 169 203 247 299 352
#     4  10  21  40  60  89 122 158 201 247 305 366
#     4  10  20  38  63  90 122 155 196 251 307 361
#     4  12  23  41  65  88 121 159 202 257 304 364
#     4  12  24  42  62  88 118 158 199 253 316 348
#
# _framework density 18.854566999999999
#
# number of rings (size 3 to 8) (size 9 to 14) (size 15 to 20)
#    0.000    1.273    4.545    1.364    1.273    0.364 
#    3.273    3.182    0.000    0.000    0.000    0.000 
#    0.000    0.000    0.000    0.000    0.000    0.000 
#
# Total GULP energy -545419.871489 kJ/mol
# GULP energy per Si atom -12395.906170 kJ/mol
# Density = 1.881165 g / cm^3
# Si number density = 18.854567 Si / 1000 Ang^3
#
#
#
# Elastic Constant Matrix: (Units=GPa)
#
#
# Indices 1 2 3 4 5 6 
#
# 1 107.5418 42.0698 65.3604 0.0000 0.0000 0.0000
# 2 42.0698 122.5309 36.7211 0.0000 0.0000 0.0000
# 3 65.3604 36.7211 141.7182 0.0000 0.0000 0.0000
# 4 0.0000 0.0000 0.0000 -34.9227 0.0000 0.0000
# 5 0.0000 0.0000 0.0000 0.0000 34.7912 0.0000
# 6 0.0000 0.0000 0.0000 0.0000 0.0000 16.7702
#
#
#
# Elastic Compliance Matrix: (Units=1/GPa)
#
#
# Indices 1 2 3 4 5 6 
#
# 1 0.013926 -0.003097 -0.005620 0.000000 0.000000 0.000000
# 2 -0.003097 0.009537 -0.001043 0.000000 0.000000 0.000000
# 3 -0.005620 -0.001043 0.009918 0.000000 0.000000 0.000000
# 4 0.000000 0.000000 0.000000 -0.028635 0.000000 0.000000
# 5 0.000000 0.000000 0.000000 0.000000 0.028743 0.000000
# 6 0.000000 0.000000 0.000000 0.000000 0.000000 0.059630
#
#
# Mechanical properties :
#
#
# Convention : Reuss Voigt Hill
#
# Bulk Modulus (GPa) = 72.14253 73.34375 72.74314
# Shear Modulus (GPa) = 42.64028 18.50372 30.57200
#
# Velocity S-wave (km/s) = 4.76072 3.13612 4.03111
# Velocity P-wave (km/s) = 8.28040 7.21788 7.76733
#
# Compressibility (1/GPa) = 0.01386145
#
# Stress axis : x y z
#
# Youngs Moduli (GPa) = 71.80798 104.85395 100.82175
#
# Poissons Ratio (x) = 0.32474 0.56664
# Poissons Ratio (y) = 0.22239 0.10514
# Poissons Ratio (z) = 0.40357 0.10934
#
# Static dielectric constant tensor:
#      x y z
#    x 3.498140 0.000000 0.000000 
#    y 0.000000 3.519270 0.000000 
#    z 0.000000 0.000000 3.616330 
# 
# 
# High freq. dielectric constant tensor:
#      x y z
#    x 1.731270 0.000000 0.000000 
#    y 0.000000 1.745370 0.000000 
#    z 0.000000 0.000000 1.743790 
# 
# From -- ./inp_files/34943.got.cif
#   From: 2010.03.12/outbox.cif.g09.slc.cpg/sg67_18_cif.got.tgz:34943.got - 2010.04.10 22:41:39.
