data_PCOD8280019
_publ_section_title
;
Structure prediction by ZEFSAII (Michael W. Deem and Ramdas Pophale) SiO2 
 PCOD8280019
Probable space group: C M M A
;
_chemical_formula_sum "Si O2"
_cell_formula_units_Z 112
_cell_length_a 17.729753
_cell_length_b 28.797636
_cell_length_c 12.194370
_cell_angle_alpha 90.000000
_cell_angle_beta 90.000000
_cell_angle_gamma 90.000000
_cell_volume 6226.140137
_symmetry_space_group_name_H-M "C M M A"
_symmetry_group_IT_number 67
_symmetry_cell_setting 'orthorhombic'
loop_
_space_group_symop_operation_xyz
x,y,z
-x,1/2-y,z
x,-y,-z
-x,1/2+y,-z
-x,-y,-z
x,1/2+y,-z
-x,y,z
x,1/2-y,z
1/2+x,1/2+y,z
1/2-x,-y,z
1/2+x,1/2-y,-z
1/2-x,y,-z
1/2-x,1/2-y,-z
1/2+x,y,-z
1/2-x,1/2+y,z
1/2+x,-y,z
loop_
_atom_site_type_symbol
_atom_site_label
_atom_site_fract_x
_atom_site_fract_y
_atom_site_fract_z
Si Si1 0.913858 0.698275 0.250571
Si Si2 0.587081 0.891773 0.034854
Si Si3 0.335388 0.949955 0.461944
Si Si4 0.662984 0.451136 0.796885
Si Si5 0.412775 0.606201 0.635238
Si Si6 0.162590 0.697510 0.023192
Si Si7 0.334478 0.556945 0.834711
O O1 0.901137 0.750000 0.298852
O O2 0.897873 0.661227 0.346855
O O3 0.000000 0.692726 0.206869
O O4 0.856389 0.688753 0.151092
O O5 0.500000 0.893035 0.004053
O O6 0.601423 0.917281 0.149787
O O7 0.614165 0.838559 0.048060
O O8 0.632101 0.917384 0.939027
O O9 0.250000 0.943879 0.500000
O O10 0.342789 0.946357 0.332649
O O11 0.384865 0.908722 0.514858
O O12 0.366718 0.000000 0.500000
O O13 0.644849 0.502813 0.837961
O O14 0.745087 0.435667 0.837550
O O15 0.500000 0.593952 0.648781
O O16 0.366553 0.577118 0.723014
O O17 0.139906 0.750000 0.989530
O O18 0.250000 0.688352 0.000000
#
# Coordination Sequence:
#
# PCOD8280019 Si02
#       7
#    16  16  16  16  16  16  16
#     4   9  18  34  56  83 112 141 180 233 287 333
#     4  12  25  37  54  84 122 154 185 228 286 346
#     4  11  20  39  58  80 109 148 195 237 281 332
#     4  11  23  38  59  80 114 157 194 228 279 341
#     4  11  21  33  58  87 110 141 184 239 289 327
#     4  10  20  34  56  83 110 143 187 235 282 338
#     4  11  20  39  58  82 110 151 194 233 275 334
#
# _framework density 17.988672999999999
#
# number of rings (size 3 to 8) (size 9 to 14) (size 15 to 20)
#    0.000    1.286    4.286    3.429    0.000    4.571 
#    0.000    0.000    0.000    1.286    0.000    2.000 
#    0.000    0.000    0.000    0.000    0.000    0.000 
#
# Total GULP energy -694509.089436 kJ/mol
# GULP energy per Si atom -12401.948026 kJ/mol
# Density = 1.794773 g / cm^3
# Si number density = 17.988673 Si / 1000 Ang^3
#
#
#
# Elastic Constant Matrix: (Units=GPa)
#
#
# Indices 1 2 3 4 5 6 
#
# 1 74.9634 64.8509 31.2259 0.0000 0.0000 0.0000
# 2 64.8509 128.7905 51.7273 0.0000 0.0000 0.0000
# 3 31.2259 51.7273 90.0036 0.0000 0.0000 0.0000
# 4 0.0000 0.0000 0.0000 22.7222 0.0000 0.0000
# 5 0.0000 0.0000 0.0000 0.0000 17.3517 0.0000
# 6 0.0000 0.0000 0.0000 0.0000 0.0000 27.6668
#
#
#
# Elastic Compliance Matrix: (Units=1/GPa)
#
#
# Indices 1 2 3 4 5 6 
#
# 1 0.023854 -0.011295 -0.001785 0.000000 0.000000 0.000000
# 2 -0.011295 0.015443 -0.004957 0.000000 0.000000 0.000000
# 3 -0.001785 -0.004957 0.014579 0.000000 0.000000 0.000000
# 4 0.000000 0.000000 0.000000 0.044010 0.000000 0.000000
# 5 0.000000 0.000000 0.000000 0.000000 0.057631 0.000000
# 6 0.000000 0.000000 0.000000 0.000000 0.000000 0.036144
#
#
# Mechanical properties :
#
#
# Convention : Reuss Voigt Hill
#
# Bulk Modulus (GPa) = 56.16910 65.48508 60.82709
# Shear Modulus (GPa) = 21.39790 23.27837 22.33814
#
# Velocity S-wave (km/s) = 3.45268 3.60120 3.52773
# Velocity P-wave (km/s) = 6.86929 7.33308 7.10497
#
# Compressibility (1/GPa) = 0.01780338
#
# Stress axis : x y z
#
# Youngs Moduli (GPa) = 41.92104 64.75543 68.59392
#
# Poissons Ratio (x) = 0.73140 0.12241
# Poissons Ratio (y) = 0.47349 0.34000
# Poissons Ratio (z) = 0.07481 0.32097
#
# Static dielectric constant tensor:
#      x y z
#    x 3.357270 0.000000 0.000000 
#    y 0.000000 3.631870 0.000000 
#    z 0.000000 0.000000 3.249600 
# 
# 
# High freq. dielectric constant tensor:
#      x y z
#    x 1.697900 0.000000 0.000000 
#    y 0.000000 1.706930 0.000000 
#    z 0.000000 0.000000 1.677770 
# 
# From -- ./inp_files/18637.got.cif
#   From: 2010.03.12/outbox.cif.g09.slc.cpg/sg67_10_cif.got.tgz:18637.got - 2010.04.10 22:41:39.
