data_PCOD8280599
_publ_section_title
;
Structure prediction by ZEFSAII (Michael W. Deem and Ramdas Pophale) SiO2 
 PCOD8280599
Probable space group: C M M A
;
_chemical_formula_sum "Si O2"
_cell_formula_units_Z 52
_cell_length_a 11.057360
_cell_length_b 15.745542
_cell_length_c 14.671330
_cell_angle_alpha 90.000000
_cell_angle_beta 90.000000
_cell_angle_gamma 90.000000
_cell_volume 2554.339091
_symmetry_space_group_name_H-M "C M M A"
_symmetry_group_IT_number 67
_symmetry_cell_setting 'orthorhombic'
loop_
_space_group_symop_operation_xyz
x,y,z
-x,1/2-y,z
x,-y,-z
-x,1/2+y,-z
-x,-y,-z
x,1/2+y,-z
-x,y,z
x,1/2-y,z
1/2+x,1/2+y,z
1/2-x,-y,z
1/2+x,1/2-y,-z
1/2-x,y,-z
1/2-x,1/2-y,-z
1/2+x,y,-z
1/2-x,1/2+y,z
1/2+x,-y,z
loop_
_atom_site_type_symbol
_atom_site_label
_atom_site_fract_x
_atom_site_fract_y
_atom_site_fract_z
Si Si1 0.798013 0.593805 0.251975
Si Si2 0.000000 0.250000 0.043583
Si Si3 0.365854 0.349195 0.442055
Si Si4 0.867869 0.750000 0.780961
Si Si5 0.000000 0.844069 0.131141
O O1 0.750000 0.500000 0.241690
O O2 0.870134 0.601673 0.346355
O O3 0.693939 0.664333 0.252890
O O4 0.881824 0.607016 0.164054
O O5 0.119322 0.250000 0.108068
O O6 0.000000 0.165826 0.979157
O O7 0.500000 0.365219 0.487718
O O8 0.346782 0.250000 0.423268
O O9 0.250000 0.383469 0.500000
O O10 0.000000 0.750000 0.734451
O O11 0.000000 0.750000 0.177202
#
# Coordination Sequence:
#
# PCOD8280599 Si02
#       5
#    16   4  16   8   8
#     4  12  24  40  68  99 132 177 220 270 329 403
#     4   8  22  42  74  90 130 176 218 270 350 382
#     4  10  21  41  67  97 131 178 227 273 326 394
#     4  10  23  43  61  98 134 161 220 278 329 390
#     4  10  20  43  72  86 124 185 221 258 333 401
#
# _framework density 20.357514999999999
#
# number of rings (size 3 to 8) (size 9 to 14) (size 15 to 20)
#    0.923    0.615    4.615    0.000    2.154    4.308 
#    0.000    6.154    0.000    0.000    0.000    0.000 
#    0.000    0.000    0.000    0.000    0.000    0.000 
#
# Total GULP energy -322201.956752 kJ/mol
# GULP energy per Si atom -12392.382952 kJ/mol
# Density = 2.031118 g / cm^3
# Si number density = 20.357515 Si / 1000 Ang^3
#
#
#
# Elastic Constant Matrix: (Units=GPa)
#
#
# Indices 1 2 3 4 5 6 
#
# 1 149.0644 51.8532 26.7636 0.0000 0.0000 0.0000
# 2 51.8532 128.0207 14.7714 0.0000 0.0000 0.0000
# 3 26.7636 14.7714 78.2728 0.0000 0.0000 0.0000
# 4 0.0000 0.0000 0.0000 11.6348 0.0000 0.0000
# 5 0.0000 0.0000 0.0000 0.0000 43.7108 0.0000
# 6 0.0000 0.0000 0.0000 0.0000 0.0000 23.0231
#
#
#
# Elastic Compliance Matrix: (Units=1/GPa)
#
#
# Indices 1 2 3 4 5 6 
#
# 1 0.008168 -0.003053 -0.002217 0.000000 0.000000 0.000000
# 2 -0.003053 0.009126 -0.000678 0.000000 0.000000 0.000000
# 3 -0.002217 -0.000678 0.013662 0.000000 0.000000 0.000000
# 4 0.000000 0.000000 0.000000 0.085949 0.000000 0.000000
# 5 0.000000 0.000000 0.000000 0.000000 0.022878 0.000000
# 6 0.000000 0.000000 0.000000 0.000000 0.000000 0.043435
#
#
# Mechanical properties :
#
#
# Convention : Reuss Voigt Hill
#
# Bulk Modulus (GPa) = 52.46534 60.23714 56.35124
# Shear Modulus (GPa) = 24.81791 33.13838 28.97814
#
# Velocity S-wave (km/s) = 3.49535 4.03900 3.77697
# Velocity P-wave (km/s) = 6.48983 7.16975 6.83824
#
# Compressibility (1/GPa) = 0.01906020
#
# Stress axis : x y z
#
# Youngs Moduli (GPa) = 122.42205 109.57713 73.19632
#
# Poissons Ratio (x) = 0.33451 0.16227
# Poissons Ratio (y) = 0.37372 0.04966
# Poissons Ratio (z) = 0.27140 0.07434
#
# Static dielectric constant tensor:
#      x y z
#    x 4.143510 0.000000 0.000000 
#    y 0.000000 3.384270 0.000000 
#    z 0.000000 0.000000 3.523700 
# 
# 
# High freq. dielectric constant tensor:
#      x y z
#    x 1.808430 0.000000 0.000000 
#    y 0.000000 1.774320 0.000000 
#    z 0.000000 0.000000 1.782710 
# 
# From -- ./inp_files/25573.got.cif
#   From: 2010.03.12/outbox.cif.g09.slc.cpg/sg67_13_cif.got.tgz:25573.got - 2010.04.10 22:41:39.
