data_PCOD8280413
_publ_section_title
;
Structure prediction by ZEFSAII (Michael W. Deem and Ramdas Pophale) SiO2 
 PCOD8280413
Probable space group: C M M A
;
_chemical_formula_sum "Si O2"
_cell_formula_units_Z 88
_cell_length_a 25.253270
_cell_length_b 9.561742
_cell_length_c 20.269847
_cell_angle_alpha 90.000000
_cell_angle_beta 90.000000
_cell_angle_gamma 90.000000
_cell_volume 4894.463722
_symmetry_space_group_name_H-M "C M M A"
_symmetry_group_IT_number 67
_symmetry_cell_setting 'orthorhombic'
loop_
_space_group_symop_operation_xyz
x,y,z
-x,1/2-y,z
x,-y,-z
-x,1/2+y,-z
-x,-y,-z
x,1/2+y,-z
-x,y,z
x,1/2-y,z
1/2+x,1/2+y,z
1/2-x,-y,z
1/2+x,1/2-y,-z
1/2-x,y,-z
1/2-x,1/2-y,-z
1/2+x,y,-z
1/2-x,1/2+y,z
1/2+x,-y,z
loop_
_atom_site_type_symbol
_atom_site_label
_atom_site_fract_x
_atom_site_fract_y
_atom_site_fract_z
Si Si1 0.000000 0.415678 0.932998
Si Si2 0.316741 0.750000 0.448128
Si Si3 0.802494 0.750000 0.408846
Si Si4 0.441826 0.593503 0.698045
Si Si5 0.598211 0.408133 0.157059
Si Si6 0.303189 0.412753 0.797445
Si Si7 0.839112 0.475567 0.346575
O O1 0.054627 0.459202 0.896007
O O2 0.000000 0.250000 0.945342
O O3 0.000000 0.500000 0.000000
O O4 0.254372 0.750000 0.440754
O O5 0.338000 0.750000 0.524037
O O6 0.337390 0.886462 0.412191
O O7 0.810054 0.620618 0.360407
O O8 0.500000 0.537167 0.681478
O O9 0.433585 0.750000 0.670190
O O10 0.434023 0.594245 0.775761
O O11 0.401417 0.491012 0.663287
O O12 0.618832 0.250000 0.141248
O O13 0.648397 0.513617 0.162686
O O14 0.297678 0.250000 0.820115
O O15 0.250000 0.500000 0.813916
O O16 0.312766 0.410746 0.718620
#
# Coordination Sequence:
#
# PCOD8280413 Si02
#       7
#     8   8   8  16  16  16  16
#     4  10  20  36  60  90 124 162 193 228 267 317
#     4  11  22  36  51  71 107 129 178 225 276 328
#     4  11  22  36  53  71  95 147 174 219 270 338
#     4   9  16  31  56  78 100 134 177 221 265 321
#     4   9  18  34  56  82 114 150 192 229 268 322
#     4  11  22  34  54  82 115 146 179 231 289 337
#     4  11  21  34  52  77 101 135 179 224 276 333
#
# _framework density 17.979498
#
# number of rings (size 3 to 8) (size 9 to 14) (size 15 to 20)
#    0.000    1.818    2.727    2.727    2.545    2.182 
#    0.000    0.455    0.000    3.818    0.000    3.818 
#    0.000    0.000    0.000    0.000    0.000    0.000 
#
# Total GULP energy -545295.877770 kJ/mol
# GULP energy per Si atom -12393.088131 kJ/mol
# Density = 1.793858 g / cm^3
# Si number density = 17.979498 Si / 1000 Ang^3
#
#
#
# Elastic Constant Matrix: (Units=GPa)
#
#
# Indices 1 2 3 4 5 6 
#
# 1 111.3588 48.1918 34.9603 0.0000 0.0000 0.0000
# 2 48.1918 111.4269 29.1257 0.0000 0.0000 0.0000
# 3 34.9603 29.1257 67.8442 0.0000 0.0000 0.0000
# 4 0.0000 0.0000 0.0000 26.3345 0.0000 0.0000
# 5 0.0000 0.0000 0.0000 0.0000 24.0547 0.0000
# 6 0.0000 0.0000 0.0000 0.0000 0.0000 21.8454
#
#
#
# Elastic Compliance Matrix: (Units=1/GPa)
#
#
# Indices 1 2 3 4 5 6 
#
# 1 0.012164 -0.004080 -0.004516 0.000000 0.000000 0.000000
# 2 -0.004080 0.011478 -0.002825 0.000000 0.000000 0.000000
# 3 -0.004516 -0.002825 0.018280 0.000000 0.000000 0.000000
# 4 0.000000 0.000000 0.000000 0.037973 0.000000 0.000000
# 5 0.000000 0.000000 0.000000 0.000000 0.041572 0.000000
# 6 0.000000 0.000000 0.000000 0.000000 0.000000 0.045776
#
#
# Mechanical properties :
#
#
# Convention : Reuss Voigt Hill
#
# Bulk Modulus (GPa) = 52.41601 57.24285 54.82943
# Shear Modulus (GPa) = 25.45257 26.33706 25.89481
#
# Velocity S-wave (km/s) = 3.76659 3.83147 3.79917
# Velocity P-wave (km/s) = 6.93778 7.17499 7.05738
#
# Compressibility (1/GPa) = 0.01907814
#
# Stress axis : x y z
#
# Youngs Moduli (GPa) = 82.21250 87.12668 54.70575
#
# Poissons Ratio (x) = 0.35550 0.24707
# Poissons Ratio (y) = 0.33544 0.15453
# Poissons Ratio (z) = 0.37130 0.24612
#
# Static dielectric constant tensor:
#      x y z
#    x 3.438460 0.000000 0.000000 
#    y 0.000000 3.344760 0.000000 
#    z 0.000000 0.000000 3.202700 
# 
# 
# High freq. dielectric constant tensor:
#      x y z
#    x 1.698340 0.000000 0.000000 
#    y 0.000000 1.696820 0.000000 
#    z 0.000000 0.000000 1.668750 
# 
# From -- ./inp_files/36998.got.cif
#   From: 2010.03.12/outbox.cif.g09.slc.cpg/sg67_19_cif.got.tgz:36998.got - 2010.04.10 22:41:39.
