data_PCOD8280859
_publ_section_title
;
Structure prediction by ZEFSAII (Michael W. Deem and Ramdas Pophale) SiO2 
 PCOD8280859
Probable space group: C M M A
;
_chemical_formula_sum "Si O2"
_cell_formula_units_Z 64
_cell_length_a 18.096165
_cell_length_b 9.590382
_cell_length_c 18.337201
_cell_angle_alpha 90.000000
_cell_angle_beta 90.000000
_cell_angle_gamma 90.000000
_cell_volume 3182.405373
_symmetry_space_group_name_H-M "C M M A"
_symmetry_group_IT_number 67
_symmetry_cell_setting 'orthorhombic'
loop_
_space_group_symop_operation_xyz
x,y,z
-x,1/2-y,z
x,-y,-z
-x,1/2+y,-z
-x,-y,-z
x,1/2+y,-z
-x,y,z
x,1/2-y,z
1/2+x,1/2+y,z
1/2-x,-y,z
1/2+x,1/2-y,-z
1/2-x,y,-z
1/2-x,1/2-y,-z
1/2+x,y,-z
1/2-x,1/2+y,z
1/2+x,-y,z
loop_
_atom_site_type_symbol
_atom_site_label
_atom_site_fract_x
_atom_site_fract_y
_atom_site_fract_z
Si Si1 0.165407 0.976891 0.840756
Si Si2 0.084066 0.595383 0.698567
Si Si3 0.412719 0.250000 0.107046
Si Si4 0.829830 0.250000 0.038048
Si Si5 0.411887 0.091376 0.432853
O O1 0.122206 0.118958 0.852756
O O2 0.250000 0.000000 0.821052
O O3 0.130434 0.899553 0.772323
O O4 0.159657 0.887024 0.913968
O O5 0.088099 0.750000 0.662926
O O6 0.115913 0.482255 0.641507
O O7 0.000000 0.557064 0.718581
O O8 0.500000 0.250000 0.117743
O O9 0.394069 0.250000 0.021659
O O10 0.750000 0.250000 0.000000
O O11 0.500000 0.091465 0.435292
O O12 0.381386 0.250000 0.436175
O O13 0.380600 0.000000 0.500000
#
# Coordination Sequence:
#
# PCOD8280859 Si02
#       5
#    16  16   8   8  16
#     4  12  24  43  67  90 127 172 215 266 331 405
#     4  10  21  37  58  88 125 162 211 268 319 379
#     4  12  28  42  66 100 129 161 217 283 334 390
#     4  12  24  46  68  92 123 171 222 271 334 403
#     4   9  17  31  55  87 125 168 210 259 319 381
#
# _framework density 20.110574
#
# number of rings (size 3 to 8) (size 9 to 14) (size 15 to 20)
#    0.000    1.250    3.750    2.250    1.750    6.000 
#    0.000    0.000    0.000    0.750    0.000    3.500 
#    0.000    0.000    0.000    0.000    0.000    0.000 
#
# Total GULP energy -396869.308128 kJ/mol
# GULP energy per Si atom -12402.165879 kJ/mol
# Density = 2.006480 g / cm^3
# Si number density = 20.110574 Si / 1000 Ang^3
#
#
#
# Elastic Constant Matrix: (Units=GPa)
#
#
# Indices 1 2 3 4 5 6 
#
# 1 102.2376 43.4085 36.0059 0.0000 0.0000 0.0000
# 2 43.4085 156.5033 55.9648 0.0000 0.0000 0.0000
# 3 36.0059 55.9648 118.6668 0.0000 0.0000 0.0000
# 4 0.0000 0.0000 0.0000 45.9941 0.0000 0.0000
# 5 0.0000 0.0000 0.0000 0.0000 26.5480 0.0000
# 6 0.0000 0.0000 0.0000 0.0000 0.0000 22.5323
#
#
#
# Elastic Compliance Matrix: (Units=1/GPa)
#
#
# Indices 1 2 3 4 5 6 
#
# 1 0.011635 -0.002363 -0.002416 0.000000 0.000000 0.000000
# 2 -0.002363 0.008166 -0.003134 0.000000 0.000000 0.000000
# 3 -0.002416 -0.003134 0.010638 0.000000 0.000000 0.000000
# 4 0.000000 0.000000 0.000000 0.021742 0.000000 0.000000
# 5 0.000000 0.000000 0.000000 0.000000 0.037668 0.000000
# 6 0.000000 0.000000 0.000000 0.000000 0.000000 0.044381
#
#
# Mechanical properties :
#
#
# Convention : Reuss Voigt Hill
#
# Bulk Modulus (GPa) = 68.43299 72.01845 70.22572
# Shear Modulus (GPa) = 32.27326 35.15010 33.71168
#
# Velocity S-wave (km/s) = 4.01033 4.18526 4.09873
# Velocity P-wave (km/s) = 7.45291 7.69702 7.57595
#
# Compressibility (1/GPa) = 0.01461283
#
# Stress axis : x y z
#
# Youngs Moduli (GPa) = 85.94474 122.46092 94.00245
#
# Poissons Ratio (x) = 0.28942 0.22709
# Poissons Ratio (y) = 0.20312 0.29461
# Poissons Ratio (z) = 0.20763 0.38380
#
# Static dielectric constant tensor:
#      x y z
#    x 3.367110 0.000000 0.000000 
#    y 0.000000 3.958400 0.000000 
#    z 0.000000 0.000000 3.685340 
# 
# 
# High freq. dielectric constant tensor:
#      x y z
#    x 1.750730 0.000000 0.000000 
#    y 0.000000 1.807710 0.000000 
#    z 0.000000 0.000000 1.791900 
# 
# From -- ./inp_files/31781.got.cif
#   From: 2010.03.12/outbox.cif.g09.slc.cpg/sg67_16_cif.got.tgz:31781.got - 2010.04.10 22:41:39.
