data_PCOD8280970
_publ_section_title
;
Structure prediction by ZEFSAII (Michael W. Deem and Ramdas Pophale) SiO2 
 PCOD8280970
Probable space group: C M M A
;
_chemical_formula_sum "Si O2"
_cell_formula_units_Z 96
_cell_length_a 18.168396
_cell_length_b 8.979254
_cell_length_c 30.874345
_cell_angle_alpha 90.000000
_cell_angle_beta 90.000000
_cell_angle_gamma 90.000000
_cell_volume 5036.798730
_symmetry_space_group_name_H-M "C M M A"
_symmetry_group_IT_number 67
_symmetry_cell_setting 'orthorhombic'
loop_
_space_group_symop_operation_xyz
x,y,z
-x,1/2-y,z
x,-y,-z
-x,1/2+y,-z
-x,-y,-z
x,1/2+y,-z
-x,y,z
x,1/2-y,z
1/2+x,1/2+y,z
1/2-x,-y,z
1/2+x,1/2-y,-z
1/2-x,y,-z
1/2-x,1/2-y,-z
1/2+x,y,-z
1/2-x,1/2+y,z
1/2+x,-y,z
loop_
_atom_site_type_symbol
_atom_site_label
_atom_site_fract_x
_atom_site_fract_y
_atom_site_fract_z
Si Si1 0.912361 0.085687 0.459004
Si Si2 0.417827 0.572216 0.364790
Si Si3 0.672503 0.575342 0.878195
Si Si4 0.584855 0.575692 0.045320
Si Si5 0.828032 0.425991 0.282910
Si Si6 0.914286 0.579788 0.208694
O O1 0.878704 0.250000 0.461600
O O2 0.891582 0.012767 0.412246
O O3 0.000000 0.090937 0.462435
O O4 0.877901 0.000000 0.500000
O O5 0.500000 0.512338 0.354084
O O6 0.420217 0.750000 0.366364
O O7 0.362042 0.514622 0.328152
O O8 0.682816 0.750000 0.886974
O O9 0.750000 0.500000 0.868255
O O10 0.636189 0.499978 0.919514
O O11 0.621164 0.543639 0.837317
O O12 0.500000 0.547018 0.057728
O O13 0.602689 0.750000 0.042298
O O14 0.604336 0.500000 0.000000
O O15 0.818422 0.250000 0.283400
O O16 0.750000 0.500000 0.275000
O O17 0.882113 0.469527 0.244360
O O18 0.898475 0.750000 0.222530
O O19 0.000000 0.546818 0.204305
#
# Coordination Sequence:
#
# PCOD8280970 Si02
#       6
#    16  16  16  16  16  16
#     4   8  13  23  41  66  95 124 158 204 256 308
#     4   8  15  29  49  72  98 131 171 213 259 314
#     4  11  23  39  59  84 116 151 186 225 272 324
#     4  10  21  38  61  88 117 150 190 234 278 325
#     4  11  22  36  55  78 106 141 180 220 266 320
#     4  10  22  40  61  85 112 141 176 222 273 322
#
# _framework density 19.059726000000001
#
# number of rings (size 3 to 8) (size 9 to 14) (size 15 to 20)
#    0.000    2.333    0.000    4.000    0.000    5.667 
#    0.000    3.333    0.000    4.500    0.000    3.500 
#    0.000    0.000    0.000    0.000    0.000    0.000 
#
# Total GULP energy -595151.291608 kJ/mol
# GULP energy per Si atom -12398.985242 kJ/mol
# Density = 1.901634 g / cm^3
# Si number density = 19.059726 Si / 1000 Ang^3
#
#
#
# Elastic Constant Matrix: (Units=GPa)
#
#
# Indices 1 2 3 4 5 6 
#
# 1 102.8229 42.5202 63.3762 0.0000 0.0000 0.0000
# 2 42.5202 83.7614 56.5706 0.0000 0.0000 0.0000
# 3 63.3762 56.5706 135.0488 0.0000 0.0000 0.0000
# 4 0.0000 0.0000 0.0000 32.9829 0.0000 0.0000
# 5 0.0000 0.0000 0.0000 0.0000 -2.0246 0.0000
# 6 0.0000 0.0000 0.0000 0.0000 0.0000 23.2349
#
#
#
# Elastic Compliance Matrix: (Units=1/GPa)
#
#
# Indices 1 2 3 4 5 6 
#
# 1 0.014528 -0.003863 -0.005199 0.000000 0.000000 0.000000
# 2 -0.003863 0.017676 -0.005591 0.000000 0.000000 0.000000
# 3 -0.005199 -0.005591 0.012187 0.000000 0.000000 0.000000
# 4 0.000000 0.000000 0.000000 0.030319 0.000000 0.000000
# 5 0.000000 0.000000 0.000000 0.000000 -0.493937 0.000000
# 6 0.000000 0.000000 0.000000 0.000000 0.000000 0.043039
#
#
# Mechanical properties :
#
#
# Convention : Reuss Voigt Hill
#
# Bulk Modulus (GPa) = 66.30100 71.84080 69.07090
# Shear Modulus (GPa) = -14.62617 21.44973 3.41178
#
# Velocity S-wave (km/s) = -2.77318 3.35833 1.33938
# Velocity P-wave (km/s) = 4.96059 7.26720 6.22172
#
# Compressibility (1/GPa) = 0.01508273
#
# Stress axis : x y z
#
# Youngs Moduli (GPa) = 68.83395 56.57358 82.05550
#
# Poissons Ratio (x) = 0.21856 0.42663
# Poissons Ratio (y) = 0.26592 0.45880
# Poissons Ratio (z) = 0.35789 0.31632
#
# Static dielectric constant tensor:
#      x y z
#    x 3.387660 0.000000 0.000000 
#    y 0.000000 3.454440 0.000000 
#    z 0.000000 0.000000 3.790930 
# 
# 
# High freq. dielectric constant tensor:
#      x y z
#    x 1.725360 0.000000 0.000000 
#    y 0.000000 1.729200 0.000000 
#    z 0.000000 0.000000 1.760120 
# 
# From -- ./inp_files/44579.got.cif
#   From: 2010.03.12/outbox.cif.g09.slc.cpg/sg67_23_cif.got.tgz:44579.got - 2010.04.10 22:41:39.
