data_PCOD8280208
_publ_section_title
;
Structure prediction by ZEFSAII (Michael W. Deem and Ramdas Pophale) SiO2 
 PCOD8280208
Probable space group: C M M A
;
_chemical_formula_sum "Si O2"
_cell_formula_units_Z 88
_cell_length_a 9.392297
_cell_length_b 16.474652
_cell_length_c 29.368940
_cell_angle_alpha 90.000000
_cell_angle_beta 90.000000
_cell_angle_gamma 90.000000
_cell_volume 4544.397778
_symmetry_space_group_name_H-M "C M M A"
_symmetry_group_IT_number 67
_symmetry_cell_setting 'orthorhombic'
loop_
_space_group_symop_operation_xyz
x,y,z
-x,1/2-y,z
x,-y,-z
-x,1/2+y,-z
-x,-y,-z
x,1/2+y,-z
-x,y,z
x,1/2-y,z
1/2+x,1/2+y,z
1/2-x,-y,z
1/2+x,1/2-y,-z
1/2-x,y,-z
1/2-x,1/2-y,-z
1/2+x,y,-z
1/2-x,1/2+y,z
1/2+x,-y,z
loop_
_atom_site_type_symbol
_atom_site_label
_atom_site_fract_x
_atom_site_fract_y
_atom_site_fract_z
Si Si1 0.831311 0.250000 0.047073
Si Si2 0.658844 0.342412 0.274880
Si Si3 0.343950 0.155196 0.459969
Si Si4 0.831743 0.080569 0.632206
Si Si5 0.666153 0.420503 0.798014
Si Si6 0.834645 0.918332 0.903731
O O1 0.785415 0.166051 0.072437
O O2 0.000000 0.250000 0.039486
O O3 0.750000 0.250000 0.000000
O O4 0.500000 0.373981 0.261543
O O5 0.649202 0.250000 0.289375
O O6 0.721982 0.387635 0.318914
O O7 0.766370 0.349463 0.232233
O O8 0.500000 0.115688 0.464526
O O9 0.351532 0.250000 0.468390
O O10 0.250000 0.114603 0.500000
O O11 0.286646 0.140456 0.408816
O O12 0.000000 0.067012 0.634498
O O13 0.750000 0.000000 0.620403
O O14 0.500000 0.430093 0.787639
O O15 0.750000 0.500000 0.782087
O O16 0.694447 0.402100 0.850792
O O17 0.000000 0.936013 0.913699
O O18 0.750000 0.000000 0.920295
#
# Coordination Sequence:
#
# PCOD8280208 Si02
#       6
#     8  16  16  16  16  16
#     4  10  22  40  60  86 118 156 196 242 291 344
#     4  10  21  36  54  78 108 142 180 223 270 324
#     4   9  18  34  55  76  98 128 166 209 258 312
#     4  10  21  36  53  73 102 138 173 212 262 316
#     4  10  20  35  57  82 111 146 184 227 276 331
#     4   9  20  38  60  84 117 155 194 238 291 345
#
# _framework density 19.364502000000002
#
# number of rings (size 3 to 8) (size 9 to 14) (size 15 to 20)
#    0.000    2.364    0.000    1.636    1.273    7.636 
#    0.000    3.636    0.000    3.273    0.000    0.000 
#    0.000    0.000    0.000    0.000    0.000    0.000 
#
# Total GULP energy -545365.235150 kJ/mol
# GULP energy per Si atom -12394.664435 kJ/mol
# Density = 1.932043 g / cm^3
# Si number density = 19.364502 Si / 1000 Ang^3
#
#
#
# Elastic Constant Matrix: (Units=GPa)
#
#
# Indices 1 2 3 4 5 6 
#
# 1 70.8133 39.8136 56.4911 0.0000 0.0000 0.0000
# 2 39.8136 90.0070 46.3032 0.0000 0.0000 0.0000
# 3 56.4911 46.3032 115.3575 0.0000 0.0000 0.0000
# 4 0.0000 0.0000 0.0000 18.9591 0.0000 0.0000
# 5 0.0000 0.0000 0.0000 0.0000 33.8449 0.0000
# 6 0.0000 0.0000 0.0000 0.0000 0.0000 26.9073
#
#
#
# Elastic Compliance Matrix: (Units=1/GPa)
#
#
# Indices 1 2 3 4 5 6 
#
# 1 0.025617 -0.006147 -0.010077 0.000000 0.000000 0.000000
# 2 -0.006147 0.015477 -0.003202 0.000000 0.000000 0.000000
# 3 -0.010077 -0.003202 0.014889 0.000000 0.000000 0.000000
# 4 0.000000 0.000000 0.000000 0.052745 0.000000 0.000000
# 5 0.000000 0.000000 0.000000 0.000000 0.029547 0.000000
# 6 0.000000 0.000000 0.000000 0.000000 0.000000 0.037165
#
#
# Mechanical properties :
#
#
# Convention : Reuss Voigt Hill
#
# Bulk Modulus (GPa) = 58.37838 62.37707 60.37772
# Shear Modulus (GPa) = 22.72717 24.84692 23.78704
#
# Velocity S-wave (km/s) = 3.42958 3.58595 3.50863
# Velocity P-wave (km/s) = 6.77460 7.03046 6.90372
#
# Compressibility (1/GPa) = 0.01712963
#
# Stress axis : x y z
#
# Youngs Moduli (GPa) = 39.03670 64.61407 67.16464
#
# Poissons Ratio (x) = 0.39719 0.67684
# Poissons Ratio (y) = 0.23997 0.21505
# Poissons Ratio (z) = 0.39339 0.20688
#
# Static dielectric constant tensor:
#      x y z
#    x 3.647100 0.000000 0.000000 
#    y 0.000000 3.469740 0.000000 
#    z 0.000000 0.000000 3.549150 
# 
# 
# High freq. dielectric constant tensor:
#      x y z
#    x 1.746810 0.000000 0.000000 
#    y 0.000000 1.748860 0.000000 
#    z 0.000000 0.000000 1.759970 
# 
# From -- ./inp_files/45203.got.cif
#   From: 2010.03.12/outbox.cif.g09.slc.cpg/sg67_23_cif.got.tgz:45203.got - 2010.04.10 22:41:39.
