data_PCOD8280352
_publ_section_title
;
Structure prediction by ZEFSAII (Michael W. Deem and Ramdas Pophale) SiO2 
 PCOD8280352
Probable space group: C M M A
;
_chemical_formula_sum "Si O2"
_cell_formula_units_Z 56
_cell_length_a 15.045870
_cell_length_b 16.632945
_cell_length_c 9.426737
_cell_angle_alpha 90.000000
_cell_angle_beta 90.000000
_cell_angle_gamma 90.000000
_cell_volume 2359.108130
_symmetry_space_group_name_H-M "C M M A"
_symmetry_group_IT_number 67
_symmetry_cell_setting 'orthorhombic'
loop_
_space_group_symop_operation_xyz
x,y,z
-x,1/2-y,z
x,-y,-z
-x,1/2+y,-z
-x,-y,-z
x,1/2+y,-z
-x,y,z
x,1/2-y,z
1/2+x,1/2+y,z
1/2-x,-y,z
1/2+x,1/2-y,-z
1/2-x,y,-z
1/2-x,1/2-y,-z
1/2+x,y,-z
1/2-x,1/2+y,z
1/2+x,-y,z
loop_
_atom_site_type_symbol
_atom_site_label
_atom_site_fract_x
_atom_site_fract_y
_atom_site_fract_z
Si Si1 0.144810 0.549298 0.632870
Si Si2 0.000000 0.161058 0.031772
Si Si3 0.195805 0.658371 0.859049
Si Si4 0.000000 0.061549 0.760022
Si Si5 0.000000 0.657934 0.503455
O O1 0.187053 0.500000 0.500000
O O2 0.219437 0.594097 0.732552
O O3 0.087179 0.620607 0.570121
O O4 0.087150 0.490463 0.730417
O O5 0.088992 0.151628 0.124576
O O6 0.000000 0.250000 0.960927
O O7 0.000000 0.089315 0.920713
O O8 0.222934 0.750000 0.817723
O O9 0.250000 0.633195 0.000000
O O10 0.000000 0.141632 0.664406
O O11 0.000000 0.750000 0.540657
#
# Coordination Sequence:
#
# PCOD8280352 Si02
#       5
#    16   8  16   8   8
#     4   9  18  32  53  83 121 159 199 253 314 367
#     4  10  20  36  58  83 120 166 205 252 310 359
#     4  10  21  37  60  91 124 162 210 256 302 368
#     4   9  18  31  51  84 119 156 204 250 302 371
#     4   9  15  27  53  84 117 160 207 250 297 367
#
# _framework density 23.737784000000001
#
# number of rings (size 3 to 8) (size 9 to 14) (size 15 to 20)
#    0.000    2.571    0.000    4.714    0.000    3.429 
#    0.000    2.857    0.000   17.143    0.000   26.000 
#    0.000   22.857    0.000    0.000    0.000    0.000 
#
# Total GULP energy -346963.085475 kJ/mol
# GULP energy per Si atom -12391.538767 kJ/mol
# Density = 2.368376 g / cm^3
# Si number density = 23.737784 Si / 1000 Ang^3
#
#
#
# Elastic Constant Matrix: (Units=GPa)
#
#
# Indices 1 2 3 4 5 6 
#
# 1 84.2638 23.5345 12.1696 0.0000 0.0000 0.0000
# 2 23.5345 152.7604 85.1536 0.0000 0.0000 0.0000
# 3 12.1696 85.1536 139.2288 0.0000 0.0000 0.0000
# 4 0.0000 0.0000 0.0000 56.1233 0.0000 0.0000
# 5 0.0000 0.0000 0.0000 0.0000 122.9362 0.0000
# 6 0.0000 0.0000 0.0000 0.0000 0.0000 12.6953
#
#
#
# Elastic Compliance Matrix: (Units=1/GPa)
#
#
# Indices 1 2 3 4 5 6 
#
# 1 0.012403 -0.001982 0.000128 0.000000 0.000000 0.000000
# 2 -0.001982 0.010249 -0.006095 0.000000 0.000000 0.000000
# 3 0.000128 -0.006095 0.010899 0.000000 0.000000 0.000000
# 4 0.000000 0.000000 0.000000 0.017818 0.000000 0.000000
# 5 0.000000 0.000000 0.000000 0.000000 0.008134 0.000000
# 6 0.000000 0.000000 0.000000 0.000000 0.000000 0.078770
#
#
# Mechanical properties :
#
#
# Convention : Reuss Voigt Hill
#
# Bulk Modulus (GPa) = 56.64921 68.66316 62.65619
# Shear Modulus (GPa) = 31.23915 55.37731 43.30823
#
# Velocity S-wave (km/s) = 3.63162 4.83523 4.27598
# Velocity P-wave (km/s) = 6.44215 7.75635 7.12960
#
# Compressibility (1/GPa) = 0.01765250
#
# Stress axis : x y z
#
# Youngs Moduli (GPa) = 80.62828 97.56743 91.75016
#
# Poissons Ratio (x) = 0.19341 -0.01177
# Poissons Ratio (y) = 0.15983 0.55925
# Poissons Ratio (z) = -0.01035 0.59470
#
# Static dielectric constant tensor:
#      x y z
#    x 4.051080 0.000000 0.000000 
#    y 0.000000 4.475000 0.000000 
#    z 0.000000 0.000000 4.284290 
# 
# 
# High freq. dielectric constant tensor:
#      x y z
#    x 1.925090 0.000000 0.000000 
#    y 0.000000 1.953660 0.000000 
#    z 0.000000 0.000000 1.940080 
# 
# From -- ./inp_files/9123.got.cif
#   From: 2010.03.12/outbox.cif.g09.slc.cpg/sg67_5_cif.got.tgz:9123.got - 2010.04.10 22:41:39.
