data_PCOD8280066
_publ_section_title
;
Structure prediction by ZEFSAII (Michael W. Deem and Ramdas Pophale) SiO2 
 PCOD8280066
Probable space group: C M M A
;
_chemical_formula_sum "Si O2"
_cell_formula_units_Z 112
_cell_length_a 24.421392
_cell_length_b 14.971344
_cell_length_c 15.741432
_cell_angle_alpha 90.000000
_cell_angle_beta 90.000000
_cell_angle_gamma 90.000000
_cell_volume 5755.399063
_symmetry_space_group_name_H-M "C M M A"
_symmetry_group_IT_number 67
_symmetry_cell_setting 'orthorhombic'
loop_
_space_group_symop_operation_xyz
x,y,z
-x,1/2-y,z
x,-y,-z
-x,1/2+y,-z
-x,-y,-z
x,1/2+y,-z
-x,y,z
x,1/2-y,z
1/2+x,1/2+y,z
1/2-x,-y,z
1/2+x,1/2-y,-z
1/2-x,y,-z
1/2-x,1/2-y,-z
1/2+x,y,-z
1/2-x,1/2+y,z
1/2+x,-y,z
loop_
_atom_site_type_symbol
_atom_site_label
_atom_site_fract_x
_atom_site_fract_y
_atom_site_fract_z
Si Si1 0.775715 0.151563 0.871956
Si Si2 0.826731 0.095416 0.036413
Si Si3 0.368443 0.985508 0.400205
Si Si4 0.828135 0.649000 0.296563
Si Si5 0.936521 0.347904 0.308408
Si Si6 0.224861 0.849291 0.588156
Si Si7 0.938609 0.145054 0.116151
O O1 0.762058 0.250000 0.838351
O O2 0.810124 0.160786 0.959431
O O3 0.814413 0.109241 0.797818
O O4 0.715713 0.106341 0.884780
O O5 0.890660 0.103650 0.058862
O O6 0.814226 0.000000 0.000000
O O7 0.419823 0.927063 0.371118
O O8 0.316732 0.923559 0.378678
O O9 0.374464 0.000000 0.500000
O O10 0.366447 0.079237 0.348377
O O11 0.854986 0.750000 0.293996
O O12 0.770698 0.656664 0.342049
O O13 0.908951 0.250000 0.327315
O O14 0.923221 0.378394 0.212581
O O15 0.000000 0.334313 0.319877
O O16 0.198404 0.750000 0.574958
O O17 0.250000 0.884222 0.500000
O O18 0.938732 0.250000 0.101741
O O19 0.000000 0.108049 0.092782
#
# Coordination Sequence:
#
# PCOD8280066 Si02
#       7
#    16  16  16  16  16  16  16
#     4  10  21  38  54  76 115 161 194 225 272 336
#     4  11  22  33  55  86 115 145 184 237 283 337
#     4  12  23  34  59  86 115 152 192 237 292 348
#     4  10  23  37  54  80 119 161 197 233 274 336
#     4   9  21  41  63  88 113 142 191 249 297 342
#     4  10  20  35  52  78 116 151 189 233 279 337
#     4   9  19  38  61  83 110 145 188 240 292 340
#
# _framework density 19.459989
#
# number of rings (size 3 to 8) (size 9 to 14) (size 15 to 20)
#    0.000    1.857    1.429    4.286    4.000    2.286 
#    0.000    0.000    0.000    0.429    0.000    0.000 
#    0.000    0.000    0.000    0.000    0.000    0.000 
#
# Total GULP energy -693870.799387 kJ/mol
# GULP energy per Si atom -12390.549989 kJ/mol
# Density = 1.941570 g / cm^3
# Si number density = 19.459989 Si / 1000 Ang^3
#
#
#
# Elastic Constant Matrix: (Units=GPa)
#
#
# Indices 1 2 3 4 5 6 
#
# 1 71.5888 26.1491 36.6299 0.0000 0.0000 0.0000
# 2 26.1491 94.0433 33.3639 0.0000 0.0000 0.0000
# 3 36.6299 33.3639 99.0709 0.0000 0.0000 0.0000
# 4 0.0000 0.0000 0.0000 30.0358 0.0000 0.0000
# 5 0.0000 0.0000 0.0000 0.0000 19.4108 0.0000
# 6 0.0000 0.0000 0.0000 0.0000 0.0000 53.5850
#
#
#
# Elastic Compliance Matrix: (Units=1/GPa)
#
#
# Indices 1 2 3 4 5 6 
#
# 1 0.017940 -0.002993 -0.005625 0.000000 0.000000 0.000000
# 2 -0.002993 0.012575 -0.003129 0.000000 0.000000 0.000000
# 3 -0.005625 -0.003129 0.013227 0.000000 0.000000 0.000000
# 4 0.000000 0.000000 0.000000 0.033294 0.000000 0.000000
# 5 0.000000 0.000000 0.000000 0.000000 0.051518 0.000000
# 6 0.000000 0.000000 0.000000 0.000000 0.000000 0.018662
#
#
# Mechanical properties :
#
#
# Convention : Reuss Voigt Hill
#
# Bulk Modulus (GPa) = 49.38291 50.77653 50.07972
# Shear Modulus (GPa) = 28.17558 31.84365 30.00961
#
# Velocity S-wave (km/s) = 3.80922 4.04959 3.93124
# Velocity P-wave (km/s) = 6.69168 6.92929 6.81152
#
# Compressibility (1/GPa) = 0.02024992
#
# Stress axis : x y z
#
# Youngs Moduli (GPa) = 55.74122 79.52017 75.60176
#
# Poissons Ratio (x) = 0.23797 0.42528
# Poissons Ratio (y) = 0.16681 0.23652
# Poissons Ratio (z) = 0.31356 0.24878
#
# Static dielectric constant tensor:
#      x y z
#    x 3.552940 0.000000 0.000000 
#    y 0.000000 3.893860 0.000000 
#    z 0.000000 0.000000 4.304430 
# 
# 
# High freq. dielectric constant tensor:
#      x y z
#    x 1.726310 0.000000 0.000000 
#    y 0.000000 1.764010 0.000000 
#    z 0.000000 0.000000 1.759400 
# 
# From -- ./inp_files/30185.got.cif
#   From: 2010.03.12/outbox.cif.g09.slc.cpg/sg67_16_cif.got.tgz:30185.got - 2010.04.10 22:41:39.
