data_PCOD8280775
_publ_section_title
;
Structure prediction by ZEFSAII (Michael W. Deem and Ramdas Pophale) SiO2 
 PCOD8280775
Probable space group: C M M A
;
_chemical_formula_sum "Si O2"
_cell_formula_units_Z 80
_cell_length_a 18.389957
_cell_length_b 9.835894
_cell_length_c 24.189785
_cell_angle_alpha 90.000000
_cell_angle_beta 90.000000
_cell_angle_gamma 90.000000
_cell_volume 4375.488653
_symmetry_space_group_name_H-M "C M M A"
_symmetry_group_IT_number 67
_symmetry_cell_setting 'orthorhombic'
loop_
_space_group_symop_operation_xyz
x,y,z
-x,1/2-y,z
x,-y,-z
-x,1/2+y,-z
-x,-y,-z
x,1/2+y,-z
-x,y,z
x,1/2-y,z
1/2+x,1/2+y,z
1/2-x,-y,z
1/2+x,1/2-y,-z
1/2-x,y,-z
1/2-x,1/2-y,-z
1/2+x,y,-z
1/2-x,1/2+y,z
1/2+x,-y,z
loop_
_atom_site_type_symbol
_atom_site_label
_atom_site_fract_x
_atom_site_fract_y
_atom_site_fract_z
Si Si1 0.680863 0.594734 0.765936
Si Si2 0.335242 0.978569 0.883664
Si Si3 0.580099 0.088585 0.331782
Si Si4 0.086511 0.750000 0.917730
Si Si5 0.086871 0.098312 0.547058
Si Si6 0.831018 0.750000 0.027633
O O1 0.703569 0.750000 0.753698
O O2 0.750000 0.500000 0.766694
O O3 0.640006 0.588009 0.825432
O O4 0.629873 0.534649 0.717783
O O5 0.347762 0.882271 0.936045
O O6 0.250000 0.000000 0.880518
O O7 0.379146 0.117845 0.889336
O O8 0.500000 0.024569 0.323627
O O9 0.574144 0.250000 0.329495
O O10 0.612132 0.046625 0.392070
O O11 0.000000 0.750000 0.910432
O O12 0.107146 0.750000 0.981751
O O13 0.116355 0.250000 0.535297
O O14 0.000000 0.098761 0.545968
O O15 0.119464 0.000000 0.500000
O O16 0.750000 0.750000 0.000000
#
# Coordination Sequence:
#
# PCOD8280775 Si02
#       6
#    16  16  16   8  16   8
#     4  10  21  36  58  84 109 141 192 236 267 328
#     4  11  22  40  64  87 112 154 198 231 281 348
#     4   8  15  30  51  75 104 143 181 220 275 329
#     4  12  28  42  60  94 128 146 179 247 305 335
#     4   8  13  23  43  70 100 132 173 221 266 320
#     4  12  22  40  66  92 112 154 199 235 278 353
#
# _framework density 18.283671999999999
#
# number of rings (size 3 to 8) (size 9 to 14) (size 15 to 20)
#    0.000    2.200    3.000    1.800    4.200    2.400 
#    0.000    1.000    0.000    1.800    0.000    4.200 
#    0.000    0.000    0.000    0.000    0.000    0.000 
#
# Total GULP energy -495746.646846 kJ/mol
# GULP energy per Si atom -12393.666171 kJ/mol
# Density = 1.824206 g / cm^3
# Si number density = 18.283672 Si / 1000 Ang^3
#
#
#
# Elastic Constant Matrix: (Units=GPa)
#
#
# Indices 1 2 3 4 5 6 
#
# 1 77.9073 38.3844 44.5658 0.0000 0.0000 0.0000
# 2 38.3844 94.7019 49.2530 0.0000 0.0000 0.0000
# 3 44.5658 49.2530 158.7321 0.0000 0.0000 0.0000
# 4 0.0000 0.0000 0.0000 30.7115 0.0000 0.0000
# 5 0.0000 0.0000 0.0000 0.0000 28.2531 0.0000
# 6 0.0000 0.0000 0.0000 0.0000 0.0000 18.2015
#
#
#
# Elastic Compliance Matrix: (Units=1/GPa)
#
#
# Indices 1 2 3 4 5 6 
#
# 1 0.017300 -0.005349 -0.003197 0.000000 0.000000 0.000000
# 2 -0.005349 0.014245 -0.002918 0.000000 0.000000 0.000000
# 3 -0.003197 -0.002918 0.008103 0.000000 0.000000 0.000000
# 4 0.000000 0.000000 0.000000 0.032561 0.000000 0.000000
# 5 0.000000 0.000000 0.000000 0.000000 0.035394 0.000000
# 6 0.000000 0.000000 0.000000 0.000000 0.000000 0.054941
#
#
# Mechanical properties :
#
#
# Convention : Reuss Voigt Hill
#
# Bulk Modulus (GPa) = 59.81262 66.19419 63.00340
# Shear Modulus (GPa) = 26.17145 28.70909 27.44027
#
# Velocity S-wave (km/s) = 3.78750 3.96688 3.87823
# Velocity P-wave (km/s) = 7.20497 7.56730 7.38836
#
# Compressibility (1/GPa) = 0.01671888
#
# Stress axis : x y z
#
# Youngs Moduli (GPa) = 57.80235 70.19829 123.40835
#
# Poissons Ratio (x) = 0.37550 0.39459
# Poissons Ratio (y) = 0.30920 0.36015
# Poissons Ratio (z) = 0.18482 0.20486
#
# Static dielectric constant tensor:
#      x y z
#    x 3.127520 0.000000 0.000000 
#    y 0.000000 3.328670 0.000000 
#    z 0.000000 0.000000 4.132170 
# 
# 
# High freq. dielectric constant tensor:
#      x y z
#    x 1.667210 0.000000 0.000000 
#    y 0.000000 1.697080 0.000000 
#    z 0.000000 0.000000 1.731320 
# 
# From -- ./inp_files/40592.got.cif
#   From: 2010.03.12/outbox.cif.g09.slc.cpg/sg67_21_cif.got.tgz:40592.got - 2010.04.10 22:41:39.
