data_PCOD8280016
_publ_section_title
;
Structure prediction by ZEFSAII (Michael W. Deem and Ramdas Pophale) SiO2 
 PCOD8280016
Probable space group: C M M A
;
_chemical_formula_sum "Si O2"
_cell_formula_units_Z 80
_cell_length_a 17.117074
_cell_length_b 22.509499
_cell_length_c 11.151354
_cell_angle_alpha 90.000000
_cell_angle_beta 90.000000
_cell_angle_gamma 90.000000
_cell_volume 4296.580567
_symmetry_space_group_name_H-M "C M M A"
_symmetry_group_IT_number 67
_symmetry_cell_setting 'orthorhombic'
loop_
_space_group_symop_operation_xyz
x,y,z
-x,1/2-y,z
x,-y,-z
-x,1/2+y,-z
-x,-y,-z
x,1/2+y,-z
-x,y,z
x,1/2-y,z
1/2+x,1/2+y,z
1/2-x,-y,z
1/2+x,1/2-y,-z
1/2-x,y,-z
1/2-x,1/2-y,-z
1/2+x,y,-z
1/2-x,1/2+y,z
1/2+x,-y,z
loop_
_atom_site_type_symbol
_atom_site_label
_atom_site_fract_x
_atom_site_fract_y
_atom_site_fract_z
Si Si1 0.216949 0.750000 0.204131
Si Si2 0.325829 0.874859 0.747001
Si Si3 0.811047 0.048170 0.177765
Si Si4 0.588546 0.876879 0.998569
Si Si5 0.138521 0.750000 0.945398
Si Si6 0.091966 0.024086 0.630169
O O1 0.187029 0.805595 0.282706
O O2 0.309649 0.750000 0.176593
O O3 0.184973 0.750000 0.069442
O O4 0.238805 0.900543 0.758919
O O5 0.375935 0.879562 0.867239
O O6 0.373235 0.909106 0.642755
O O7 0.868978 0.018518 0.272653
O O8 0.750000 0.000000 0.125146
O O9 0.861402 0.076061 0.072550
O O10 0.500000 0.899578 0.993904
O O11 0.588455 0.810702 0.055826
O O12 0.000000 0.025131 0.651577
O O13 0.114150 0.000000 0.500000
#
# Coordination Sequence:
#
# PCOD8280016 Si02
#       6
#     8  16  16  16   8  16
#     4   9  16  32  54  80 110 141 181 219 265 318
#     4  10  20  34  56  81 109 144 181 224 269 327
#     4  10  21  34  53  77 107 144 185 221 271 326
#     4  11  20  32  51  82 116 144 180 220 272 326
#     4   9  17  30  52  77 111 150 176 212 265 326
#     4  10  22  40  58  77 103 138 183 233 285 331
#
# _framework density 18.619456
#
# number of rings (size 3 to 8) (size 9 to 14) (size 15 to 20)
#    0.000    2.000    2.000    2.100    0.000    9.200 
#    0.000    6.500    0.000    3.600    0.000    2.800 
#    0.000    0.000    0.000    0.000    0.000    0.000 
#
# Total GULP energy -495811.539446 kJ/mol
# GULP energy per Si atom -12395.288486 kJ/mol
# Density = 1.857708 g / cm^3
# Si number density = 18.619456 Si / 1000 Ang^3
#
#
#
# Elastic Constant Matrix: (Units=GPa)
#
#
# Indices 1 2 3 4 5 6 
#
# 1 84.0455 37.3447 23.0635 0.0000 0.0000 0.0000
# 2 37.3447 145.0200 43.7293 0.0000 0.0000 0.0000
# 3 23.0635 43.7293 57.3533 0.0000 0.0000 0.0000
# 4 0.0000 0.0000 0.0000 24.6143 0.0000 0.0000
# 5 0.0000 0.0000 0.0000 0.0000 10.2375 0.0000
# 6 0.0000 0.0000 0.0000 0.0000 0.0000 29.6992
#
#
#
# Elastic Compliance Matrix: (Units=1/GPa)
#
#
# Indices 1 2 3 4 5 6 
#
# 1 0.014030 -0.002482 -0.003749 0.000000 0.000000 0.000000
# 2 -0.002482 0.009394 -0.006164 0.000000 0.000000 0.000000
# 3 -0.003749 -0.006164 0.023643 0.000000 0.000000 0.000000
# 4 0.000000 0.000000 0.000000 0.040627 0.000000 0.000000
# 5 0.000000 0.000000 0.000000 0.000000 0.097681 0.000000
# 6 0.000000 0.000000 0.000000 0.000000 0.000000 0.033671
#
#
# Mechanical properties :
#
#
# Convention : Reuss Voigt Hill
#
# Bulk Modulus (GPa) = 44.89174 54.96597 49.92885
# Shear Modulus (GPa) = 19.89959 25.06227 22.48093
#
# Velocity S-wave (km/s) = 3.27272 3.67280 3.47852
# Velocity P-wave (km/s) = 6.20028 6.89716 6.55798
#
# Compressibility (1/GPa) = 0.02227581
#
# Stress axis : x y z
#
# Youngs Moduli (GPa) = 71.27475 106.45642 42.29555
#
# Poissons Ratio (x) = 0.26427 0.15858
# Poissons Ratio (y) = 0.17693 0.26070
# Poissons Ratio (z) = 0.26722 0.65618
#
# Static dielectric constant tensor:
#      x y z
#    x 3.514400 0.000000 0.000000 
#    y 0.000000 3.768850 0.000000 
#    z 0.000000 0.000000 3.073900 
# 
# 
# High freq. dielectric constant tensor:
#      x y z
#    x 1.732940 0.000000 0.000000 
#    y 0.000000 1.737930 0.000000 
#    z 0.000000 0.000000 1.678500 
# 
# From -- ./inp_files/19343.got.cif
#   From: 2010.03.12/outbox.cif.g09.slc.cpg/sg67_10_cif.got.tgz:19343.got - 2010.04.10 22:41:39.
