data_PCOD8280483
_publ_section_title
;
Structure prediction by ZEFSAII (Michael W. Deem and Ramdas Pophale) SiO2 
 PCOD8280483
Probable space group: C M M A
;
_chemical_formula_sum "Si O2"
_cell_formula_units_Z 80
_cell_length_a 15.279808
_cell_length_b 10.104204
_cell_length_c 27.344057
_cell_angle_alpha 90.000000
_cell_angle_beta 90.000000
_cell_angle_gamma 90.000000
_cell_volume 4221.657085
_symmetry_space_group_name_H-M "C M M A"
_symmetry_group_IT_number 67
_symmetry_cell_setting 'orthorhombic'
loop_
_space_group_symop_operation_xyz
x,y,z
-x,1/2-y,z
x,-y,-z
-x,1/2+y,-z
-x,-y,-z
x,1/2+y,-z
-x,y,z
x,1/2-y,z
1/2+x,1/2+y,z
1/2-x,-y,z
1/2+x,1/2-y,-z
1/2-x,y,-z
1/2-x,1/2-y,-z
1/2+x,y,-z
1/2-x,1/2+y,z
1/2+x,-y,z
loop_
_atom_site_type_symbol
_atom_site_label
_atom_site_fract_x
_atom_site_fract_y
_atom_site_fract_z
Si Si1 0.000000 0.093963 0.797157
Si Si2 0.828291 0.904285 0.147244
Si Si3 0.152368 0.490803 0.616519
Si Si4 0.895261 0.250000 0.550821
Si Si5 0.398750 0.899410 0.958921
Si Si6 0.602382 0.250000 0.559660
Si Si7 0.000000 0.907455 0.314844
O O1 0.913024 0.041754 0.823820
O O2 0.000000 0.047371 0.741183
O O3 0.000000 0.250000 0.801836
O O4 0.807703 0.750000 0.159748
O O5 0.843155 0.921781 0.089651
O O6 0.750000 0.000000 0.163938
O O7 0.250000 0.500000 0.638552
O O8 0.144972 0.377233 0.576394
O O9 0.133028 0.624733 0.589109
O O10 0.086662 0.467954 0.661202
O O11 0.860418 0.250000 0.495383
O O12 0.000000 0.250000 0.556135
O O13 0.500000 0.927349 0.946433
O O14 0.386536 0.750000 0.978666
O O15 0.363741 0.000000 0.000000
O O16 0.500000 0.250000 0.554512
O O17 0.000000 0.750000 0.321699
#
# Coordination Sequence:
#
# PCOD8280483 Si02
#       7
#     8  16  16   8  16   8   8
#     4   9  20  40  67  82 107 153 196 240 293 352
#     4  10  20  37  61  88 117 151 197 242 289 348
#     4  12  23  38  61  88 118 152 191 235 284 340
#     4  11  21  41  61  84 121 159 198 225 269 346
#     4   9  17  31  53  82 116 158 198 234 281 342
#     4  11  23  37  61  88 121 159 186 233 287 330
#     4  11  22  43  64  86 112 149 197 239 290 353
#
# _framework density 18.949904
#
# number of rings (size 3 to 8) (size 9 to 14) (size 15 to 20)
#    0.000    1.600    4.000    1.200    0.000    6.000 
#    0.000    2.500    4.400    0.000    0.000    0.000 
#    0.000    0.000    0.000    0.000    0.000    0.000 
#
# Total GULP energy -496066.494022 kJ/mol
# GULP energy per Si atom -12401.662351 kJ/mol
# Density = 1.890677 g / cm^3
# Si number density = 18.949904 Si / 1000 Ang^3
#
#
#
# Elastic Constant Matrix: (Units=GPa)
#
#
# Indices 1 2 3 4 5 6 
#
# 1 136.2219 53.1062 63.8962 0.0000 0.0000 0.0000
# 2 53.1062 121.4256 55.8342 0.0000 0.0000 0.0000
# 3 63.8962 55.8342 115.3754 0.0000 0.0000 0.0000
# 4 0.0000 0.0000 0.0000 18.4254 0.0000 0.0000
# 5 0.0000 0.0000 0.0000 0.0000 8.1048 0.0000
# 6 0.0000 0.0000 0.0000 0.0000 0.0000 33.0542
#
#
#
# Elastic Compliance Matrix: (Units=1/GPa)
#
#
# Indices 1 2 3 4 5 6 
#
# 1 0.010458 -0.002458 -0.004602 0.000000 0.000000 0.000000
# 2 -0.002458 0.011170 -0.004045 0.000000 0.000000 0.000000
# 3 -0.004602 -0.004045 0.013174 0.000000 0.000000 0.000000
# 4 0.000000 0.000000 0.000000 0.054273 0.000000 0.000000
# 5 0.000000 0.000000 0.000000 0.000000 0.123384 0.000000
# 6 0.000000 0.000000 0.000000 0.000000 0.000000 0.030253
#
#
# Mechanical properties :
#
#
# Convention : Reuss Voigt Hill
#
# Bulk Modulus (GPa) = 79.41261 79.85512 79.63387
# Shear Modulus (GPa) = 18.57920 25.26263 21.92091
#
# Velocity S-wave (km/s) = 3.13459 3.65516 3.40484
# Velocity P-wave (km/s) = 7.42283 7.74888 7.58761
#
# Compressibility (1/GPa) = 0.01259246
#
# Stress axis : x y z
#
# Youngs Moduli (GPa) = 95.62231 89.52463 75.90982
#
# Poissons Ratio (x) = 0.22001 0.34937
# Poissons Ratio (y) = 0.23499 0.30703
# Poissons Ratio (z) = 0.44009 0.36209
#
# Static dielectric constant tensor:
#      x y z
#    x 3.498040 0.000000 0.000000 
#    y 0.000000 3.430830 0.000000 
#    z 0.000000 0.000000 3.462360 
# 
# 
# High freq. dielectric constant tensor:
#      x y z
#    x 1.744200 0.000000 0.000000 
#    y 0.000000 1.732710 0.000000 
#    z 0.000000 0.000000 1.728930 
# 
# From -- ./inp_files/41805.got.cif
#   From: 2010.03.12/outbox.cif.g09.slc.cpg/sg67_21_cif.got.tgz:41805.got - 2010.04.10 22:41:39.
