data_PCOD8280642
_publ_section_title
;
Structure prediction by ZEFSAII (Michael W. Deem and Ramdas Pophale) SiO2 
 PCOD8280642
Probable space group: C M M A
;
_chemical_formula_sum "Si O2"
_cell_formula_units_Z 96
_cell_length_a 18.808025
_cell_length_b 9.206419
_cell_length_c 31.136967
_cell_angle_alpha 90.000000
_cell_angle_beta 90.000000
_cell_angle_gamma 90.000000
_cell_volume 5391.507781
_symmetry_space_group_name_H-M "C M M A"
_symmetry_group_IT_number 67
_symmetry_cell_setting 'orthorhombic'
loop_
_space_group_symop_operation_xyz
x,y,z
-x,1/2-y,z
x,-y,-z
-x,1/2+y,-z
-x,-y,-z
x,1/2+y,-z
-x,y,z
x,1/2-y,z
1/2+x,1/2+y,z
1/2-x,-y,z
1/2+x,1/2-y,-z
1/2-x,y,-z
1/2-x,1/2-y,-z
1/2+x,y,-z
1/2-x,1/2+y,z
1/2+x,-y,z
loop_
_atom_site_type_symbol
_atom_site_label
_atom_site_fract_x
_atom_site_fract_y
_atom_site_fract_z
Si Si1 0.323527 0.918495 0.366533
Si Si2 0.581310 0.920092 0.957189
Si Si3 0.081583 0.420260 0.796038
Si Si4 0.581324 0.420262 0.711438
Si Si5 0.174690 0.919958 0.539105
Si Si6 0.325022 0.921631 0.876770
O O1 0.306740 0.750000 0.359908
O O2 0.377025 0.976644 0.330379
O O3 0.359862 0.942788 0.413672
O O4 0.250000 0.000000 0.361362
O O5 0.500000 0.962052 0.945987
O O6 0.588611 0.750000 0.965240
O O7 0.631147 0.972099 0.918457
O O8 0.607621 0.000000 0.000000
O O9 0.088143 0.250000 0.788163
O O10 0.110890 0.500101 0.753684
O O11 0.129792 0.471424 0.835578
O O12 0.000000 0.464529 0.805813
O O13 0.500000 0.463394 0.703710
O O14 0.591263 0.250000 0.718514
O O15 0.183071 0.750000 0.528409
O O16 0.131258 0.000000 0.500000
O O17 0.250000 0.000000 0.541222
O O18 0.312836 0.750000 0.876810
O O19 0.250000 0.000000 0.876259
#
# Coordination Sequence:
#
# PCOD8280642 Si02
#       6
#    16  16  16  16  16  16
#     4   9  18  30  45  67  93 121 152 188 232 278
#     4   9  18  34  55  76  98 128 166 203 237 276
#     4   9  18  34  54  72  91 121 161 198 232 275
#     4   9  18  33  51  70  93 122 156 193 233 278
#     4   9  15  24  39  60  86 115 148 185 225 269
#     4  10  21  35  51  73 102 132 159 193 239 286
#
# _framework density 17.805779000000001
#
# number of rings (size 3 to 8) (size 9 to 14) (size 15 to 20)
#    0.000    2.833    0.000    1.500    0.000    5.667 
#    0.000    5.000    0.000    5.500    0.000    0.000 
#    0.000    0.000    0.000    0.000    0.000    4.500 
#
# Total GULP energy -594984.276341 kJ/mol
# GULP energy per Si atom -12395.505757 kJ/mol
# Density = 1.776525 g / cm^3
# Si number density = 17.805779 Si / 1000 Ang^3
#
#
#
# Elastic Constant Matrix: (Units=GPa)
#
#
# Indices 1 2 3 4 5 6 
#
# 1 82.2675 34.1645 84.2417 0.0000 0.0000 0.0000
# 2 34.1645 50.2591 60.4324 0.0000 0.0000 0.0000
# 3 84.2417 60.4324 203.0808 0.0000 0.0000 0.0000
# 4 0.0000 0.0000 0.0000 33.6099 0.0000 0.0000
# 5 0.0000 0.0000 0.0000 0.0000 28.4553 0.0000
# 6 0.0000 0.0000 0.0000 0.0000 0.0000 23.4997
#
#
#
# Elastic Compliance Matrix: (Units=1/GPa)
#
#
# Indices 1 2 3 4 5 6 
#
# 1 0.022342 -0.006296 -0.007394 0.000000 0.000000 0.000000
# 2 -0.006296 0.032757 -0.007136 0.000000 0.000000 0.000000
# 3 -0.007394 -0.007136 0.010115 0.000000 0.000000 0.000000
# 4 0.000000 0.000000 0.000000 0.029753 0.000000 0.000000
# 5 0.000000 0.000000 0.000000 0.000000 0.035143 0.000000
# 6 0.000000 0.000000 0.000000 0.000000 0.000000 0.042554
#
#
# Mechanical properties :
#
#
# Convention : Reuss Voigt Hill
#
# Bulk Modulus (GPa) = 42.44295 77.03161 59.73728
# Shear Modulus (GPa) = 22.50521 27.56423 25.03472
#
# Velocity S-wave (km/s) = 3.55903 3.93879 3.75372
# Velocity P-wave (km/s) = 6.38571 8.00260 7.23943
#
# Compressibility (1/GPa) = 0.02356104
#
# Stress axis : x y z
#
# Youngs Moduli (GPa) = 44.75900 30.52740 98.86403
#
# Poissons Ratio (x) = 0.19221 0.73102
# Poissons Ratio (y) = 0.28182 0.70550
# Poissons Ratio (z) = 0.33095 0.21784
#
# Static dielectric constant tensor:
#      x y z
#    x 3.070210 0.000000 0.000000 
#    y 0.000000 3.253070 0.000000 
#    z 0.000000 0.000000 3.956800 
# 
# 
# High freq. dielectric constant tensor:
#      x y z
#    x 1.656960 0.000000 0.000000 
#    y 0.000000 1.684470 0.000000 
#    z 0.000000 0.000000 1.711310 
# 
# From -- ./inp_files/44572.got.cif
#   From: 2010.03.12/outbox.cif.g09.slc.cpg/sg67_23_cif.got.tgz:44572.got - 2010.04.10 22:41:39.
