data_PCOD8280793
_publ_section_title
;
Structure prediction by ZEFSAII (Michael W. Deem and Ramdas Pophale) SiO2 
 PCOD8280793
Probable space group: C M M A
;
_chemical_formula_sum "Si O2"
_cell_formula_units_Z 84
_cell_length_a 14.489289
_cell_length_b 21.320934
_cell_length_c 14.962714
_cell_angle_alpha 90.000000
_cell_angle_beta 90.000000
_cell_angle_gamma 90.000000
_cell_volume 4622.359033
_symmetry_space_group_name_H-M "C M M A"
_symmetry_group_IT_number 67
_symmetry_cell_setting 'orthorhombic'
loop_
_space_group_symop_operation_xyz
x,y,z
-x,1/2-y,z
x,-y,-z
-x,1/2+y,-z
-x,-y,-z
x,1/2+y,-z
-x,y,z
x,1/2-y,z
1/2+x,1/2+y,z
1/2-x,-y,z
1/2+x,1/2-y,-z
1/2-x,y,-z
1/2-x,1/2-y,-z
1/2+x,y,-z
1/2-x,1/2+y,z
1/2+x,-y,z
loop_
_atom_site_type_symbol
_atom_site_label
_atom_site_fract_x
_atom_site_fract_y
_atom_site_fract_z
Si Si1 0.609358 0.681478 0.922935
Si Si2 0.253147 0.175743 0.599175
Si Si3 0.606881 0.678416 0.251863
Si Si4 0.750000 0.500000 0.000000
Si Si5 0.109568 0.592425 0.917842
Si Si6 0.898768 0.324870 0.729479
O O1 0.500000 0.687430 0.918680
O O2 0.652116 0.750000 0.942283
O O3 0.642619 0.655195 0.826311
O O4 0.640446 0.635818 0.000268
O O5 0.245471 0.250000 0.590722
O O6 0.250000 0.145543 0.500000
O O7 0.343449 0.157395 0.656290
O O8 0.165581 0.147969 0.651969
O O9 0.500000 0.675782 0.274257
O O10 0.635798 0.750000 0.224647
O O11 0.631418 0.630547 0.172449
O O12 0.819652 0.464914 0.069319
O O13 0.000000 0.573201 0.921806
O O14 0.903154 0.250000 0.727316
O O15 0.000000 0.353837 0.713783
#
# Coordination Sequence:
#
# PCOD8280793 Si02
#       6
#    16  16  16   4  16  16
#     4   8  14  27  49  74  98 126 158 198 249 298
#     4   9  17  27  41  67 103 135 164 200 242 299
#     4   9  18  33  53  76 103 138 174 207 251 303
#     4  12  26  36  50  74  98 140 182 206 256 306
#     4  10  21  37  53  72 103 134 169 214 250 299
#     4   8  14  24  39  62  94 127 156 189 236 292
#
# _framework density 18.172537999999999
#
# number of rings (size 3 to 8) (size 9 to 14) (size 15 to 20)
#    0.000    3.048    0.000    2.000    2.667    3.048 
#    0.000    4.762    0.000    0.000    0.000    0.667 
#    0.000    3.048    0.000    0.000    0.000    0.000 
#
# Total GULP energy -520310.716141 kJ/mol
# GULP energy per Si atom -12388.350384 kJ/mol
# Density = 1.813118 g / cm^3
# Si number density = 18.172538 Si / 1000 Ang^3
#
#
#
# Elastic Constant Matrix: (Units=GPa)
#
#
# Indices 1 2 3 4 5 6 
#
# 1 90.9505 37.5145 63.4902 0.0000 0.0000 0.0000
# 2 37.5145 50.2891 40.8999 0.0000 0.0000 0.0000
# 3 63.4902 40.8999 168.8760 0.0000 0.0000 0.0000
# 4 0.0000 0.0000 0.0000 0.2089 0.0000 0.0000
# 5 0.0000 0.0000 0.0000 0.0000 31.8266 0.0000
# 6 0.0000 0.0000 0.0000 0.0000 0.0000 20.3255
#
#
#
# Elastic Compliance Matrix: (Units=1/GPa)
#
#
# Indices 1 2 3 4 5 6 
#
# 1 0.018200 -0.009977 -0.004426 0.000000 0.000000 0.000000
# 2 -0.009977 0.030232 -0.003571 0.000000 0.000000 0.000000
# 3 -0.004426 -0.003571 0.008450 0.000000 0.000000 0.000000
# 4 0.000000 0.000000 0.000000 4.788030 0.000000 0.000000
# 5 0.000000 0.000000 0.000000 0.000000 0.031420 0.000000
# 6 0.000000 0.000000 0.000000 0.000000 0.000000 0.049199
#
#
# Mechanical properties :
#
#
# Convention : Reuss Voigt Hill
#
# Bulk Modulus (GPa) = 47.76885 65.99166 56.88025
# Shear Modulus (GPa) = 1.00635 21.68625 11.34630
#
# Velocity S-wave (km/s) = 0.74497 3.45824 2.50144
# Velocity P-wave (km/s) = 5.20416 7.23455 6.30167
#
# Compressibility (1/GPa) = 0.02093415
#
# Stress axis : x y z
#
# Youngs Moduli (GPa) = 54.94512 33.07774 118.33829
#
# Poissons Ratio (x) = 0.33002 0.52378
# Poissons Ratio (y) = 0.54819 0.42257
# Poissons Ratio (z) = 0.24319 0.11812
#
# Static dielectric constant tensor:
#      x y z
#    x 3.530450 0.000000 0.000000 
#    y 0.000000 3.023260 0.000000 
#    z 0.000000 0.000000 3.678240 
# 
# 
# High freq. dielectric constant tensor:
#      x y z
#    x 1.716970 0.000000 0.000000 
#    y 0.000000 1.634890 0.000000 
#    z 0.000000 0.000000 1.703560 
# 
# From -- ./inp_files/27383.got.cif
#   From: 2010.03.12/outbox.cif.g09.slc.cpg/sg67_14_cif.got.tgz:27383.got - 2010.04.10 22:41:39.
