data_PCOD8280081
_publ_section_title
;
Structure prediction by ZEFSAII (Michael W. Deem and Ramdas Pophale) SiO2 
 PCOD8280081
Probable space group: C M M A
;
_chemical_formula_sum "Si O2"
_cell_formula_units_Z 96
_cell_length_a 19.476641
_cell_length_b 8.941398
_cell_length_c 30.866821
_cell_angle_alpha 90.000000
_cell_angle_beta 90.000000
_cell_angle_gamma 90.000000
_cell_volume 5375.407456
_symmetry_space_group_name_H-M "C M M A"
_symmetry_group_IT_number 67
_symmetry_cell_setting 'orthorhombic'
loop_
_space_group_symop_operation_xyz
x,y,z
-x,1/2-y,z
x,-y,-z
-x,1/2+y,-z
-x,-y,-z
x,1/2+y,-z
-x,y,z
x,1/2-y,z
1/2+x,1/2+y,z
1/2-x,-y,z
1/2+x,1/2-y,-z
1/2-x,y,-z
1/2-x,1/2-y,-z
1/2+x,y,-z
1/2-x,1/2+y,z
1/2+x,-y,z
loop_
_atom_site_type_symbol
_atom_site_label
_atom_site_fract_x
_atom_site_fract_y
_atom_site_fract_z
Si Si1 0.581790 0.581653 0.957631
Si Si2 0.081335 0.585883 0.540775
Si Si3 0.322201 0.428137 0.295909
Si Si4 0.919847 0.575348 0.636699
Si Si5 0.678454 0.427847 0.794510
Si Si6 0.421917 0.424627 0.871497
O O1 0.500000 0.573292 0.958453
O O2 0.609052 0.750000 0.958333
O O3 0.609066 0.504624 0.913869
O O4 0.612151 0.500000 0.000000
O O5 0.114611 0.500000 0.500000
O O6 0.113409 0.750000 0.538713
O O7 0.098655 0.517763 0.588041
O O8 0.000000 0.593485 0.535466
O O9 0.314961 0.250000 0.291926
O O10 0.250000 0.500000 0.310147
O O11 0.378854 0.469769 0.331031
O O12 0.345914 0.498226 0.250303
O O13 0.900128 0.750000 0.642343
O O14 0.000000 0.553270 0.646233
O O15 0.686501 0.250000 0.788587
O O16 0.750000 0.500000 0.809565
O O17 0.622048 0.470755 0.829971
O O18 0.500000 0.475590 0.862394
O O19 0.417891 0.250000 0.880895
#
# Coordination Sequence:
#
# PCOD8280081 Si02
#       6
#    16  16  16  16  16  16
#     4   9  16  26  43  68  98 130 161 195 236 282
#     4   8  14  25  43  68  98 131 163 196 237 287
#     4  11  22  36  54  74  98 130 169 209 250 299
#     4   9  18  33  52  75 104 135 166 203 249 296
#     4  10  20  35  54  73  96 129 165 201 245 297
#     4   9  18  32  50  73  99 127 161 199 240 286
#
# _framework density 17.859110999999999
#
# number of rings (size 3 to 8) (size 9 to 14) (size 15 to 20)
#    0.000    2.667    0.000    4.500    0.000    5.000 
#    0.000    3.333    0.000    1.000    0.000    7.000 
#    0.000    0.000    0.000    0.000    0.000    0.000 
#
# Total GULP energy -595019.603151 kJ/mol
# GULP energy per Si atom -12396.241732 kJ/mol
# Density = 1.781846 g / cm^3
# Si number density = 17.859111 Si / 1000 Ang^3
#
#
#
# Elastic Constant Matrix: (Units=GPa)
#
#
# Indices 1 2 3 4 5 6 
#
# 1 52.0415 37.8596 64.8508 0.0000 0.0000 0.0000
# 2 37.8596 103.2832 74.4840 0.0000 0.0000 0.0000
# 3 64.8508 74.4840 158.6411 0.0000 0.0000 0.0000
# 4 0.0000 0.0000 0.0000 37.4778 0.0000 0.0000
# 5 0.0000 0.0000 0.0000 0.0000 -1.7096 0.0000
# 6 0.0000 0.0000 0.0000 0.0000 0.0000 22.9784
#
#
#
# Elastic Compliance Matrix: (Units=1/GPa)
#
#
# Indices 1 2 3 4 5 6 
#
# 1 0.040442 -0.004388 -0.014472 0.000000 0.000000 0.000000
# 2 -0.004388 0.015115 -0.005303 0.000000 0.000000 0.000000
# 3 -0.014472 -0.005303 0.014709 0.000000 0.000000 0.000000
# 4 0.000000 0.000000 0.000000 0.026682 0.000000 0.000000
# 5 0.000000 0.000000 0.000000 0.000000 -0.584928 0.000000
# 6 0.000000 0.000000 0.000000 0.000000 0.000000 0.043519
#
#
# Mechanical properties :
#
#
# Convention : Reuss Voigt Hill
#
# Bulk Modulus (GPa) = 45.57791 74.26161 59.91976
# Shear Modulus (GPa) = -12.85936 20.86741 4.00402
#
# Velocity S-wave (km/s) = -2.68628 3.42196 1.49896
# Velocity P-wave (km/s) = 3.99434 7.56870 6.05145
#
# Compressibility (1/GPa) = 0.02194045
#
# Stress axis : x y z
#
# Youngs Moduli (GPa) = 24.72705 66.16063 67.98388
#
# Poissons Ratio (x) = 0.29028 0.98387
# Poissons Ratio (y) = 0.10849 0.36052
# Poissons Ratio (z) = 0.35785 0.35085
#
# Static dielectric constant tensor:
#      x y z
#    x 2.942500 0.000000 0.000000 
#    y 0.000000 3.425410 0.000000 
#    z 0.000000 0.000000 3.509690 
# 
# 
# High freq. dielectric constant tensor:
#      x y z
#    x 1.646410 0.000000 0.000000 
#    y 0.000000 1.695110 0.000000 
#    z 0.000000 0.000000 1.707100 
# 
# From -- ./inp_files/43499.got.cif
#   From: 2010.03.12/outbox.cif.g09.slc.cpg/sg67_22_cif.got.tgz:43499.got - 2010.04.10 22:41:39.
