data_PCOD8280205
_publ_section_title
;
Structure prediction by ZEFSAII (Michael W. Deem and Ramdas Pophale) SiO2 
 PCOD8280205
Probable space group: C M M A
;
_chemical_formula_sum "Si O2"
_cell_formula_units_Z 72
_cell_length_a 8.680426
_cell_length_b 14.722845
_cell_length_c 28.891664
_cell_angle_alpha 90.000000
_cell_angle_beta 90.000000
_cell_angle_gamma 90.000000
_cell_volume 3692.371027
_symmetry_space_group_name_H-M "C M M A"
_symmetry_group_IT_number 67
_symmetry_cell_setting 'orthorhombic'
loop_
_space_group_symop_operation_xyz
x,y,z
-x,1/2-y,z
x,-y,-z
-x,1/2+y,-z
-x,-y,-z
x,1/2+y,-z
-x,y,z
x,1/2-y,z
1/2+x,1/2+y,z
1/2-x,-y,z
1/2+x,1/2-y,-z
1/2-x,y,-z
1/2-x,1/2-y,-z
1/2+x,y,-z
1/2-x,1/2+y,z
1/2+x,-y,z
loop_
_atom_site_type_symbol
_atom_site_label
_atom_site_fract_x
_atom_site_fract_y
_atom_site_fract_z
Si Si1 0.683879 0.250000 0.207103
Si Si2 0.684026 0.250000 0.550996
Si Si3 0.327642 0.642399 0.046436
Si Si4 0.318406 0.250000 0.310151
Si Si5 0.318630 0.592548 0.857779
Si Si6 0.183574 0.601723 0.382803
O O1 0.500000 0.250000 0.209046
O O2 0.755242 0.250000 0.258805
O O3 0.747544 0.164883 0.178441
O O4 0.500000 0.250000 0.551404
O O5 0.750000 0.250000 0.500000
O O6 0.745685 0.157532 0.574483
O O7 0.500000 0.603050 0.050608
O O8 0.330171 0.750000 0.044462
O O9 0.230280 0.610530 0.089891
O O10 0.250000 0.602910 0.000000
O O11 0.500000 0.250000 0.305948
O O12 0.267261 0.341856 0.336833
O O13 0.500000 0.591034 0.856659
O O14 0.250000 0.500000 0.838980
O O15 0.250000 0.500000 0.380295
O O16 0.000000 0.597298 0.388538
#
# Coordination Sequence:
#
# PCOD8280205 Si02
#       6
#     8   8  16   8  16  16
#     4   9  19  37  59  81 112 150 185 229 284 337
#     4  11  22  38  59  86 122 161 204 247 295 348
#     4  10  20  35  57  82 109 140 177 220 269 326
#     4   8  17  35  58  83 112 149 191 238 290 341
#     4  11  22  37  57  82 111 145 184 224 274 331
#     4  10  20  36  59  87 120 157 199 246 294 345
#
# _framework density 19.499663999999999
#
# number of rings (size 3 to 8) (size 9 to 14) (size 15 to 20)
#    0.000    2.000    1.111    3.667    0.000    2.667 
#    0.000    4.444    0.000   14.667    0.000    0.000 
#    0.000    0.000    0.000    0.000    0.000    0.000 
#
# Total GULP energy -446328.626693 kJ/mol
# GULP energy per Si atom -12398.017408 kJ/mol
# Density = 1.945528 g / cm^3
# Si number density = 19.499664 Si / 1000 Ang^3
#
#
#
# Elastic Constant Matrix: (Units=GPa)
#
#
# Indices 1 2 3 4 5 6 
#
# 1 99.1635 53.7663 43.1193 0.0000 0.0000 0.0000
# 2 53.7663 153.9715 96.0107 0.0000 0.0000 0.0000
# 3 43.1193 96.0107 180.1250 0.0000 0.0000 0.0000
# 4 0.0000 0.0000 0.0000 -208.4575 0.0000 0.0000
# 5 0.0000 0.0000 0.0000 0.0000 13.3777 0.0000
# 6 0.0000 0.0000 0.0000 0.0000 0.0000 32.3125
#
#
#
# Elastic Compliance Matrix: (Units=1/GPa)
#
#
# Indices 1 2 3 4 5 6 
#
# 1 0.012559 -0.003761 -0.001002 0.000000 0.000000 0.000000
# 2 -0.003761 0.010854 -0.004885 0.000000 0.000000 0.000000
# 3 -0.001002 -0.004885 0.008395 0.000000 0.000000 0.000000
# 4 0.000000 0.000000 0.000000 -0.004797 0.000000 0.000000
# 5 0.000000 0.000000 0.000000 0.000000 0.074751 0.000000
# 6 0.000000 0.000000 0.000000 0.000000 0.000000 0.030948
#
#
# Mechanical properties :
#
#
# Convention : Reuss Voigt Hill
#
# Bulk Modulus (GPa) = 79.91756 91.00583 85.46170
# Shear Modulus (GPa) = 32.01486 -16.52919 7.74284
#
# Velocity S-wave (km/s) = 4.05633 -2.91463 1.99484
# Velocity P-wave (km/s) = 7.93797 5.95357 7.01628
#
# Compressibility (1/GPa) = 0.01251289
#
# Stress axis : x y z
#
# Youngs Moduli (GPa) = 79.62327 92.12965 119.11172
#
# Poissons Ratio (x) = 0.34649 0.11933
# Poissons Ratio (y) = 0.29946 0.58189
# Poissons Ratio (z) = 0.07977 0.45008
#
# Static dielectric constant tensor:
#      x y z
#    x 3.555250 0.000000 0.000000 
#    y 0.000000 3.761210 0.000000 
#    z 0.000000 0.000000 3.860660 
# 
# 
# High freq. dielectric constant tensor:
#      x y z
#    x 1.753310 0.000000 0.000000 
#    y 0.000000 1.767610 0.000000 
#    z 0.000000 0.000000 1.761780 
# 
# From -- ./inp_files/45164.got.cif
#   From: 2010.03.12/outbox.cif.g09.slc.cpg/sg67_23_cif.got.tgz:45164.got - 2010.04.10 22:41:39.
