data_PCOD8280638
_publ_section_title
;
Structure prediction by ZEFSAII (Michael W. Deem and Ramdas Pophale) SiO2 
 PCOD8280638
Probable space group: C M M A
;
_chemical_formula_sum "Si O2"
_cell_formula_units_Z 104
_cell_length_a 9.321021
_cell_length_b 20.993742
_cell_length_c 30.370201
_cell_angle_alpha 90.000000
_cell_angle_beta 90.000000
_cell_angle_gamma 90.000000
_cell_volume 5942.935385
_symmetry_space_group_name_H-M "C M M A"
_symmetry_group_IT_number 67
_symmetry_cell_setting 'orthorhombic'
loop_
_space_group_symop_operation_xyz
x,y,z
-x,1/2-y,z
x,-y,-z
-x,1/2+y,-z
-x,-y,-z
x,1/2+y,-z
-x,y,z
x,1/2-y,z
1/2+x,1/2+y,z
1/2-x,-y,z
1/2+x,1/2-y,-z
1/2-x,y,-z
1/2-x,1/2-y,-z
1/2+x,y,-z
1/2-x,1/2+y,z
1/2+x,-y,z
loop_
_atom_site_type_symbol
_atom_site_label
_atom_site_fract_x
_atom_site_fract_y
_atom_site_fract_z
Si Si1 0.661773 0.674009 0.126323
Si Si2 0.840889 0.825090 0.207790
Si Si3 0.662947 0.674122 0.957846
Si Si4 0.329321 0.179070 0.305885
Si Si5 0.834544 0.112091 0.545074
Si Si6 0.669615 0.061724 0.363530
Si Si7 0.338206 0.750000 0.543136
O O1 0.500000 0.647251 0.122577
O O2 0.658787 0.750000 0.126471
O O3 0.732798 0.646981 0.171221
O O4 0.755919 0.648742 0.085509
O O5 0.853843 0.750000 0.201615
O O6 0.779899 0.840093 0.256538
O O7 0.000000 0.855080 0.201361
O O8 0.500000 0.647686 0.958639
O O9 0.660071 0.750000 0.958222
O O10 0.750000 0.648246 0.000000
O O11 0.500000 0.182236 0.307382
O O12 0.270121 0.250000 0.318779
O O13 0.271673 0.124843 0.338888
O O14 0.750000 0.097948 0.500000
O O15 0.790798 0.065260 0.584484
O O16 0.805703 0.182792 0.567025
O O17 0.000000 0.103760 0.532391
O O18 0.500000 0.054406 0.356332
O O19 0.750000 0.000000 0.344130
O O20 0.500000 0.750000 0.527210
O O21 0.250000 0.750000 0.500000
#
# Coordination Sequence:
#
# PCOD8280638 Si02
#       7
#    16  16  16  16  16  16   8
#     4   9  15  21  30  46  69  97 128 166 214 266
#     4   8  13  23  39  58  76  95 127 174 221 260
#     4   9  15  21  28  39  59  91 132 176 218 261
#     4   8  15  29  51  73  89 112 152 195 229 269
#     4   9  18  31  49  71  94 121 152 187 225 266
#     4  10  21  35  51  72  97 125 154 187 228 275
#     4   8  14  26  44  68  92 114 144 184 224 260
#
# _framework density 17.499769000000001
#
# number of rings (size 3 to 8) (size 9 to 14) (size 15 to 20)
#    0.000    3.231    0.000    1.846    1.077    4.615 
#    0.000    2.308    0.000    1.385    0.000    0.000 
#    0.000    0.000    0.000    0.000    0.000    0.769 
#
# Total GULP energy -644188.519093 kJ/mol
# GULP energy per Si atom -12388.240752 kJ/mol
# Density = 1.745994 g / cm^3
# Si number density = 17.499769 Si / 1000 Ang^3
#
#
#
# Elastic Constant Matrix: (Units=GPa)
#
#
# Indices 1 2 3 4 5 6 
#
# 1 87.6625 26.9170 54.7954 0.0000 0.0000 0.0000
# 2 26.9170 61.0577 41.8367 0.0000 0.0000 0.0000
# 3 54.7954 41.8367 123.3498 0.0000 0.0000 0.0000
# 4 0.0000 0.0000 0.0000 4.4879 0.0000 0.0000
# 5 0.0000 0.0000 0.0000 0.0000 24.2335 0.0000
# 6 0.0000 0.0000 0.0000 0.0000 0.0000 14.6076
#
#
#
# Elastic Compliance Matrix: (Units=1/GPa)
#
#
# Indices 1 2 3 4 5 6 
#
# 1 0.016171 -0.002875 -0.006209 0.000000 0.000000 0.000000
# 2 -0.002875 0.021848 -0.006133 0.000000 0.000000 0.000000
# 3 -0.006209 -0.006133 0.012945 0.000000 0.000000 0.000000
# 4 0.000000 0.000000 0.000000 0.222823 0.000000 0.000000
# 5 0.000000 0.000000 0.000000 0.000000 0.041265 0.000000
# 6 0.000000 0.000000 0.000000 0.000000 0.000000 0.068458
#
#
# Mechanical properties :
#
#
# Convention : Reuss Voigt Hill
#
# Bulk Modulus (GPa) = 48.70677 57.68535 53.19606
# Shear Modulus (GPa) = 11.88254 18.56719 15.22487
#
# Velocity S-wave (km/s) = 2.60861 3.26083 2.95278
# Velocity P-wave (km/s) = 6.08000 6.87113 6.48763
#
# Compressibility (1/GPa) = 0.02053103
#
# Stress axis : x y z
#
# Youngs Moduli (GPa) = 61.83962 45.77160 77.24888
#
# Poissons Ratio (x) = 0.13158 0.47960
# Poissons Ratio (y) = 0.17777 0.47377
# Poissons Ratio (z) = 0.38393 0.28072
#
# Static dielectric constant tensor:
#      x y z
#    x 3.241540 0.000000 0.000000 
#    y 0.000000 2.829700 0.000000 
#    z 0.000000 0.000000 3.371930 
# 
# 
# High freq. dielectric constant tensor:
#      x y z
#    x 1.662830 0.000000 0.000000 
#    y 0.000000 1.613880 0.000000 
#    z 0.000000 0.000000 1.680490 
# 
# From -- ./inp_files/45343.got.cif
#   From: 2010.03.12/outbox.cif.g09.slc.cpg/sg67_23_cif.got.tgz:45343.got - 2010.04.10 22:41:39.
