data_PCOD8280350
_publ_section_title
;
Structure prediction by ZEFSAII (Michael W. Deem and Ramdas Pophale) SiO2 
 PCOD8280350
Probable space group: C M M A
;
_chemical_formula_sum "Si O2"
_cell_formula_units_Z 72
_cell_length_a 8.698903
_cell_length_b 15.838153
_cell_length_c 24.903554
_cell_angle_alpha 90.000000
_cell_angle_beta 90.000000
_cell_angle_gamma 90.000000
_cell_volume 3431.076111
_symmetry_space_group_name_H-M "C M M A"
_symmetry_group_IT_number 67
_symmetry_cell_setting 'orthorhombic'
loop_
_space_group_symop_operation_xyz
x,y,z
-x,1/2-y,z
x,-y,-z
-x,1/2+y,-z
-x,-y,-z
x,1/2+y,-z
-x,y,z
x,1/2-y,z
1/2+x,1/2+y,z
1/2-x,-y,z
1/2+x,1/2-y,-z
1/2-x,y,-z
1/2-x,1/2-y,-z
1/2+x,y,-z
1/2-x,1/2+y,z
1/2+x,-y,z
loop_
_atom_site_type_symbol
_atom_site_label
_atom_site_fract_x
_atom_site_fract_y
_atom_site_fract_z
Si Si1 0.316999 0.750000 0.559059
Si Si2 0.680899 0.411693 0.618260
Si Si3 0.819309 0.093007 0.947905
Si Si4 0.676656 0.154120 0.280490
Si Si5 0.180255 0.591143 0.168098
O O1 0.500000 0.750000 0.558050
O O2 0.250000 0.750000 0.500000
O O3 0.260522 0.834428 0.588106
O O4 0.500000 0.409895 0.607811
O O5 0.750000 0.500000 0.596581
O O6 0.717292 0.403743 0.681797
O O7 0.773673 0.133604 0.889711
O O8 0.000000 0.089320 0.955575
O O9 0.750000 0.000000 0.947450
O O10 0.750000 0.142664 0.000000
O O11 0.500000 0.124246 0.286550
O O12 0.694850 0.250000 0.299632
O O13 0.732254 0.148113 0.218482
O O14 0.250000 0.500000 0.176038
O O15 0.000000 0.578838 0.168139
#
# Coordination Sequence:
#
# PCOD8280350 Si02
#       5
#     8  16  16  16  16
#     4  12  26  48  74 104 140 178 219 266 315 368
#     4  12  25  43  68 100 135 175 220 266 318 376
#     4   9  15  24  39  61  91 126 171 225 288 355
#     4  10  20  36  58  83 116 157 201 251 311 373
#     4   9  18  30  46  72 102 137 182 236 295 364
#
# _framework density 20.984670000000001
#
# number of rings (size 3 to 8) (size 9 to 14) (size 15 to 20)
#    0.000    1.778    1.111    5.000    0.000    4.000 
#    0.000    2.222    0.000    0.667    0.000    0.000 
#    0.000    0.000    0.000    0.000    0.000    6.000 
#
# Total GULP energy -446113.189993 kJ/mol
# GULP energy per Si atom -12392.033055 kJ/mol
# Density = 2.093691 g / cm^3
# Si number density = 20.984670 Si / 1000 Ang^3
#
#
#
# Elastic Constant Matrix: (Units=GPa)
#
#
# Indices 1 2 3 4 5 6 
#
# 1 118.6661 44.5741 57.6877 0.0000 0.0000 0.0000
# 2 44.5741 100.2859 47.5416 0.0000 0.0000 0.0000
# 3 57.6877 47.5416 150.3242 0.0000 0.0000 0.0000
# 4 0.0000 0.0000 0.0000 26.4616 0.0000 0.0000
# 5 0.0000 0.0000 0.0000 0.0000 40.0826 0.0000
# 6 0.0000 0.0000 0.0000 0.0000 0.0000 23.3532
#
#
#
# Elastic Compliance Matrix: (Units=1/GPa)
#
#
# Indices 1 2 3 4 5 6 
#
# 1 0.011313 -0.003494 -0.003236 0.000000 0.000000 0.000000
# 2 -0.003494 0.012809 -0.002710 0.000000 0.000000 0.000000
# 3 -0.003236 -0.002710 0.008751 0.000000 0.000000 0.000000
# 4 0.000000 0.000000 0.000000 0.037791 0.000000 0.000000
# 5 0.000000 0.000000 0.000000 0.000000 0.024948 0.000000
# 6 0.000000 0.000000 0.000000 0.000000 0.000000 0.042821
#
#
# Mechanical properties :
#
#
# Convention : Reuss Voigt Hill
#
# Bulk Modulus (GPa) = 71.46766 74.32034 72.89400
# Shear Modulus (GPa) = 30.86835 32.61101 31.73968
#
# Velocity S-wave (km/s) = 3.83952 3.94641 3.89333
# Velocity P-wave (km/s) = 7.33395 7.50059 7.41774
#
# Compressibility (1/GPa) = 0.01399234
#
# Stress axis : x y z
#
# Youngs Moduli (GPa) = 88.39610 78.06845 114.26764
#
# Poissons Ratio (x) = 0.27277 0.36981
# Poissons Ratio (y) = 0.30885 0.30969
# Poissons Ratio (z) = 0.28608 0.21158
#
# Static dielectric constant tensor:
#      x y z
#    x 3.786940 0.000000 0.000000 
#    y 0.000000 3.556870 0.000000 
#    z 0.000000 0.000000 4.384900 
# 
# 
# High freq. dielectric constant tensor:
#      x y z
#    x 1.818270 0.000000 0.000000 
#    y 0.000000 1.791370 0.000000 
#    z 0.000000 0.000000 1.847670 
# 
# From -- ./inp_files/43114.got.cif
#   From: 2010.03.12/outbox.cif.g09.slc.cpg/sg67_22_cif.got.tgz:43114.got - 2010.04.10 22:41:39.
