data_PCOD8280779
_publ_section_title
;
Structure prediction by ZEFSAII (Michael W. Deem and Ramdas Pophale) SiO2 
 PCOD8280779
Probable space group: C M M A
;
_chemical_formula_sum "Si O2"
_cell_formula_units_Z 112
_cell_length_a 23.610265
_cell_length_b 14.405484
_cell_length_c 14.577785
_cell_angle_alpha 90.000000
_cell_angle_beta 90.000000
_cell_angle_gamma 90.000000
_cell_volume 4958.156797
_symmetry_space_group_name_H-M "C M M A"
_symmetry_group_IT_number 67
_symmetry_cell_setting 'orthorhombic'
loop_
_space_group_symop_operation_xyz
x,y,z
-x,1/2-y,z
x,-y,-z
-x,1/2+y,-z
-x,-y,-z
x,1/2+y,-z
-x,y,z
x,1/2-y,z
1/2+x,1/2+y,z
1/2-x,-y,z
1/2+x,1/2-y,-z
1/2-x,y,-z
1/2-x,1/2-y,-z
1/2+x,y,-z
1/2-x,1/2+y,z
1/2+x,-y,z
loop_
_atom_site_type_symbol
_atom_site_label
_atom_site_fract_x
_atom_site_fract_y
_atom_site_fract_z
Si Si1 0.635319 0.358754 0.629994
Si Si2 0.064423 0.146020 0.883243
Si Si3 0.251499 0.109607 0.854016
Si Si4 0.259318 0.851636 0.650086
Si Si5 0.836611 0.891396 0.997557
Si Si6 0.934105 0.016154 0.716863
Si Si7 0.876981 0.357761 0.578345
O O1 0.633991 0.250000 0.660198
O O2 0.699550 0.399823 0.625341
O O3 0.600155 0.419924 0.703309
O O4 0.609754 0.371506 0.528788
O O5 0.069504 0.250000 0.841535
O O6 0.099705 0.140432 0.978653
O O7 0.086524 0.070128 0.809087
O O8 0.000000 0.123903 0.910178
O O9 0.238428 0.159261 0.759298
O O10 0.203703 0.147320 0.922513
O O11 0.250000 0.000000 0.837174
O O12 0.312841 0.140691 0.897743
O O13 0.257900 0.750000 0.604550
O O14 0.315268 0.900268 0.607871
O O15 0.830989 0.000000 0.000000
O O16 0.924657 0.084674 0.631290
O O17 0.000000 0.991664 0.723571
O O18 0.880997 0.250000 0.606770
#
# Coordination Sequence:
#
# PCOD8280779 Si02
#       7
#    16  16  16  16  16  16  16
#     4  10  23  40  59  86 122 162 205 254 306 366
#     4  10  22  40  62  89 120 157 204 258 310 360
#     4   9  19  33  53  87 120 153 187 236 294 353
#     4  10  21  36  58  88 122 159 201 247 302 367
#     4   9  19  35  57  85 120 154 191 239 293 356
#     4  11  24  40  61  89 119 157 210 260 305 363
#     4  10  21  38  60  89 124 160 199 251 311 367
#
# _framework density 22.589037999999999
#
# number of rings (size 3 to 8) (size 9 to 14) (size 15 to 20)
#    0.000    2.143    0.000    3.000    6.000    6.571 
#    0.000    4.286    0.000    0.000    0.000    0.000 
#    0.000    0.000    0.000    0.000    0.000    0.000 
#
# Total GULP energy -693984.697524 kJ/mol
# GULP energy per Si atom -12392.583884 kJ/mol
# Density = 2.253762 g / cm^3
# Si number density = 22.589038 Si / 1000 Ang^3
#
#
#
# Elastic Constant Matrix: (Units=GPa)
#
#
# Indices 1 2 3 4 5 6 
#
# 1 86.9231 21.1574 29.8043 0.0000 0.0000 0.0000
# 2 21.1574 75.0688 18.7497 0.0000 0.0000 0.0000
# 3 29.8043 18.7497 76.0466 0.0000 0.0000 0.0000
# 4 0.0000 0.0000 0.0000 48.3121 0.0000 0.0000
# 5 0.0000 0.0000 0.0000 0.0000 34.8549 0.0000
# 6 0.0000 0.0000 0.0000 0.0000 0.0000 13.4925
#
#
#
# Elastic Compliance Matrix: (Units=1/GPa)
#
#
# Indices 1 2 3 4 5 6 
#
# 1 0.013786 -0.002702 -0.004737 0.000000 0.000000 0.000000
# 2 -0.002702 0.014725 -0.002571 0.000000 0.000000 0.000000
# 3 -0.004737 -0.002571 0.015640 0.000000 0.000000 0.000000
# 4 0.000000 0.000000 0.000000 0.020699 0.000000 0.000000
# 5 0.000000 0.000000 0.000000 0.000000 0.028690 0.000000
# 6 0.000000 0.000000 0.000000 0.000000 0.000000 0.074115
#
#
# Mechanical properties :
#
#
# Convention : Reuss Voigt Hill
#
# Bulk Modulus (GPa) = 41.44168 41.94014 41.69091
# Shear Modulus (GPa) = 25.54658 30.55371 28.05015
#
# Velocity S-wave (km/s) = 3.36658 3.68175 3.52768
# Velocity P-wave (km/s) = 5.78771 6.05645 5.92360
#
# Compressibility (1/GPa) = 0.02413030
#
# Stress axis : x y z
#
# Youngs Moduli (GPa) = 72.53521 67.91166 63.93730
#
# Poissons Ratio (x) = 0.18353 0.30286
# Poissons Ratio (y) = 0.19602 0.16441
# Poissons Ratio (z) = 0.34359 0.17463
#
# Static dielectric constant tensor:
#      x y z
#    x 4.394580 0.000000 0.000000 
#    y 0.000000 3.966760 0.000000 
#    z 0.000000 0.000000 3.968720 
# 
# 
# High freq. dielectric constant tensor:
#      x y z
#    x 1.879270 0.000000 0.000000 
#    y 0.000000 1.888180 0.000000 
#    z 0.000000 0.000000 1.878530 
# 
# From -- ./inp_files/30193.got.cif
#   From: 2010.03.12/outbox.cif.g09.slc.cpg/sg67_16_cif.got.tgz:30193.got - 2010.04.10 22:41:39.
