data_PCOD8280186
_publ_section_title
;
Structure prediction by ZEFSAII (Michael W. Deem and Ramdas Pophale) SiO2 
 PCOD8280186
Probable space group: C M M A
;
_chemical_formula_sum "Si O2"
_cell_formula_units_Z 80
_cell_length_a 8.819989
_cell_length_b 18.290800
_cell_length_c 25.618897
_cell_angle_alpha 90.000000
_cell_angle_beta 90.000000
_cell_angle_gamma 90.000000
_cell_volume 4132.959715
_symmetry_space_group_name_H-M "C M M A"
_symmetry_group_IT_number 67
_symmetry_cell_setting 'orthorhombic'
loop_
_space_group_symop_operation_xyz
x,y,z
-x,1/2-y,z
x,-y,-z
-x,1/2+y,-z
-x,-y,-z
x,1/2+y,-z
-x,y,z
x,1/2-y,z
1/2+x,1/2+y,z
1/2-x,-y,z
1/2+x,1/2-y,-z
1/2-x,y,-z
1/2-x,1/2-y,-z
1/2+x,y,-z
1/2-x,1/2+y,z
1/2+x,-y,z
loop_
_atom_site_type_symbol
_atom_site_label
_atom_site_fract_x
_atom_site_fract_y
_atom_site_fract_z
Si Si1 0.177300 0.923252 0.553676
Si Si2 0.329593 0.836890 0.948290
Si Si3 0.821844 0.079035 0.747429
Si Si4 0.177109 0.835248 0.841771
Si Si5 0.325131 0.665051 0.344451
O O1 0.250000 0.894087 0.500000
O O2 0.211783 0.864059 0.597960
O O3 0.000000 0.935266 0.545015
O O4 0.250000 0.000000 0.570763
O O5 0.500000 0.868039 0.944460
O O6 0.332687 0.750000 0.951623
O O7 0.234594 0.862287 0.898081
O O8 0.250000 0.869314 0.000000
O O9 0.763840 0.119186 0.798680
O O10 0.781452 0.125593 0.696718
O O11 0.000000 0.070144 0.751423
O O12 0.750000 0.000000 0.742174
O O13 0.213397 0.750000 0.833057
O O14 0.000000 0.851310 0.837519
O O15 0.500000 0.650263 0.329397
O O16 0.286254 0.750000 0.343504
#
# Coordination Sequence:
#
# PCOD8280186 Si02
#       5
#    16  16  16  16  16
#     4  10  20  35  57  83 113 150 189 229 273 324
#     4   9  16  27  46  75 110 146 185 228 274 325
#     4  12  25  40  59  82 109 144 186 230 278 334
#     4  10  20  35  56  82 113 147 183 228 280 330
#     4  10  22  40  60  84 115 148 183 228 281 332
#
# _framework density 19.356587999999999
#
# number of rings (size 3 to 8) (size 9 to 14) (size 15 to 20)
#    0.000    1.800    0.000    5.400    0.000   10.000 
#    0.000    0.000    0.000    0.600    0.000    4.200 
#    0.000    0.000    0.000    0.000    0.000    0.000 
#
# Total GULP energy -496149.771742 kJ/mol
# GULP energy per Si atom -12403.744294 kJ/mol
# Density = 1.931253 g / cm^3
# Si number density = 19.356588 Si / 1000 Ang^3
#
#
#
# Elastic Constant Matrix: (Units=GPa)
#
#
# Indices 1 2 3 4 5 6 
#
# 1 114.0069 64.2773 69.0375 0.0000 0.0000 0.0000
# 2 64.2773 94.4526 72.2294 0.0000 0.0000 0.0000
# 3 69.0375 72.2294 150.4197 0.0000 0.0000 0.0000
# 4 0.0000 0.0000 0.0000 -26.6100 0.0000 0.0000
# 5 0.0000 0.0000 0.0000 0.0000 39.6964 0.0000
# 6 0.0000 0.0000 0.0000 0.0000 0.0000 6.0824
#
#
#
# Elastic Compliance Matrix: (Units=1/GPa)
#
#
# Indices 1 2 3 4 5 6 
#
# 1 0.015126 -0.007877 -0.003160 0.000000 0.000000 0.000000
# 2 -0.007877 0.020833 -0.006388 0.000000 0.000000 0.000000
# 3 -0.003160 -0.006388 0.011166 0.000000 0.000000 0.000000
# 4 0.000000 0.000000 0.000000 -0.037580 0.000000 0.000000
# 5 0.000000 0.000000 0.000000 0.000000 0.025191 0.000000
# 6 0.000000 0.000000 0.000000 0.000000 0.000000 0.164410
#
#
# Mechanical properties :
#
#
# Convention : Reuss Voigt Hill
#
# Bulk Modulus (GPa) = 81.47126 85.55194 83.51160
# Shear Modulus (GPa) = 21.00053 14.05609 17.52831
#
# Velocity S-wave (km/s) = 3.29740 2.69767 3.01250
# Velocity P-wave (km/s) = 7.52849 7.34827 7.43892
#
# Compressibility (1/GPa) = 0.01227427
#
# Stress axis : x y z
#
# Youngs Moduli (GPa) = 66.11109 47.99989 89.55803
#
# Poissons Ratio (x) = 0.37811 0.28298
# Poissons Ratio (y) = 0.52078 0.57214
# Poissons Ratio (z) = 0.20890 0.30665
#
# Static dielectric constant tensor:
#      x y z
#    x 3.605170 0.000000 0.000000 
#    y 0.000000 3.465670 0.000000 
#    z 0.000000 0.000000 3.773320 
# 
# 
# High freq. dielectric constant tensor:
#      x y z
#    x 1.767210 0.000000 0.000000 
#    y 0.000000 1.729000 0.000000 
#    z 0.000000 0.000000 1.772090 
# 
# From -- ./inp_files/43330.got.cif
#   From: 2010.03.12/outbox.cif.g09.slc.cpg/sg67_22_cif.got.tgz:43330.got - 2010.04.10 22:41:39.
