data_PCOD8280693
_publ_section_title
;
Structure prediction by ZEFSAII (Michael W. Deem and Ramdas Pophale) SiO2 
 PCOD8280693
Probable space group: C M M A
;
_chemical_formula_sum "Si O2"
_cell_formula_units_Z 80
_cell_length_a 10.248775
_cell_length_b 17.892905
_cell_length_c 24.324610
_cell_angle_alpha 90.000000
_cell_angle_beta 90.000000
_cell_angle_gamma 90.000000
_cell_volume 4460.655676
_symmetry_space_group_name_H-M "C M M A"
_symmetry_group_IT_number 67
_symmetry_cell_setting 'orthorhombic'
loop_
_space_group_symop_operation_xyz
x,y,z
-x,1/2-y,z
x,-y,-z
-x,1/2+y,-z
-x,-y,-z
x,1/2+y,-z
-x,y,z
x,1/2-y,z
1/2+x,1/2+y,z
1/2-x,-y,z
1/2+x,1/2-y,-z
1/2-x,y,-z
1/2-x,1/2-y,-z
1/2+x,y,-z
1/2-x,1/2+y,z
1/2+x,-y,z
loop_
_atom_site_type_symbol
_atom_site_label
_atom_site_fract_x
_atom_site_fract_y
_atom_site_fract_z
Si Si1 0.259702 0.839013 0.625499
Si Si2 0.347089 0.665372 0.742602
Si Si3 0.150723 0.932490 0.152955
Si Si4 0.500000 0.160798 0.568984
Si Si5 0.000000 0.339229 0.555098
Si Si6 0.647468 0.163249 0.044963
O O1 0.265225 0.750000 0.624711
O O2 0.275238 0.866323 0.688339
O O3 0.124908 0.870254 0.601457
O O4 0.373819 0.870674 0.586675
O O5 0.500000 0.664006 0.730435
O O6 0.302299 0.750000 0.756152
O O7 0.308427 0.613255 0.793173
O O8 0.171423 0.879281 0.101273
O O9 0.000000 0.960002 0.156406
O O10 0.250000 0.000000 0.146684
O O11 0.500000 0.250000 0.568076
O O12 0.500000 0.129549 0.506971
O O13 0.000000 0.250000 0.554244
O O14 0.500000 0.149856 0.023066
O O15 0.672642 0.250000 0.057187
O O16 0.750000 0.132867 0.000000
#
# Coordination Sequence:
#
# PCOD8280693 Si02
#       6
#    16  16  16   8   8  16
#     4   9  15  24  38  59  87 121 158 194 240 295
#     4   9  16  30  52  71  91 126 172 211 243 292
#     4  10  21  36  53  75 103 134 170 210 251 294
#     4   9  16  22  32  56  93 125 148 187 246 301
#     4   9  14  22  36  56  85 123 158 189 234 297
#     4   9  18  34  57  82 107 136 170 206 244 289
#
# _framework density 17.934583
#
# number of rings (size 3 to 8) (size 9 to 14) (size 15 to 20)
#    0.000    2.800    1.000    1.200    0.000    6.000 
#    1.800    2.000    0.000    1.200    0.000    0.000 
#    0.000    4.800    0.000    0.000    0.000    0.000 
#
# Total GULP energy -495928.482627 kJ/mol
# GULP energy per Si atom -12398.212066 kJ/mol
# Density = 1.789376 g / cm^3
# Si number density = 17.934583 Si / 1000 Ang^3
#
#
#
# Elastic Constant Matrix: (Units=GPa)
#
#
# Indices 1 2 3 4 5 6 
#
# 1 132.4406 33.7064 87.0940 0.0000 0.0000 0.0000
# 2 33.7064 36.2577 35.7520 0.0000 0.0000 0.0000
# 3 87.0940 35.7520 160.0131 0.0000 0.0000 0.0000
# 4 0.0000 0.0000 0.0000 -2.7270 0.0000 0.0000
# 5 0.0000 0.0000 0.0000 0.0000 27.7003 0.0000
# 6 0.0000 0.0000 0.0000 0.0000 0.0000 11.1995
#
#
#
# Elastic Compliance Matrix: (Units=1/GPa)
#
#
# Indices 1 2 3 4 5 6 
#
# 1 0.012844 -0.006473 -0.005545 0.000000 0.000000 0.000000
# 2 -0.006473 0.038636 -0.005109 0.000000 0.000000 0.000000
# 3 -0.005545 -0.005109 0.010409 0.000000 0.000000 0.000000
# 4 0.000000 0.000000 0.000000 -0.366698 0.000000 0.000000
# 5 0.000000 0.000000 0.000000 0.000000 0.036101 0.000000
# 6 0.000000 0.000000 0.000000 0.000000 0.000000 0.089290
#
#
# Mechanical properties :
#
#
# Convention : Reuss Voigt Hill
#
# Bulk Modulus (GPa) = 36.18586 71.31290 53.74938
# Shear Modulus (GPa) = -36.77752 18.71182 -9.03285
#
# Velocity S-wave (km/s) = -4.53332 3.23358 -2.24666
# Velocity P-wave (km/s) = 2.67973 7.33420 4.82750
#
# Compressibility (1/GPa) = 0.02763510
#
# Stress axis : x y z
#
# Youngs Moduli (GPa) = 77.85603 25.88264 96.07048
#
# Poissons Ratio (x) = 0.16754 0.53269
# Poissons Ratio (y) = 0.50396 0.49085
# Poissons Ratio (z) = 0.43169 0.13224
#
# Static dielectric constant tensor:
#      x y z
#    x 3.442060 0.000000 0.000000 
#    y 0.000000 2.843300 0.000000 
#    z 0.000000 0.000000 3.479990 
# 
# 
# High freq. dielectric constant tensor:
#      x y z
#    x 1.694120 0.000000 0.000000 
#    y 0.000000 1.641490 0.000000 
#    z 0.000000 0.000000 1.710010 
# 
# From -- ./inp_files/37770.got.cif
#   From: 2010.03.12/outbox.cif.g09.slc.cpg/sg67_19_cif.got.tgz:37770.got - 2010.04.10 22:41:39.
