data_PCOD8280421
_publ_section_title
;
Structure prediction by ZEFSAII (Michael W. Deem and Ramdas Pophale) SiO2 
 PCOD8280421
Probable space group: C M M A
;
_chemical_formula_sum "Si O2"
_cell_formula_units_Z 64
_cell_length_a 8.641180
_cell_length_b 15.420976
_cell_length_c 23.500048
_cell_angle_alpha 90.000000
_cell_angle_beta 90.000000
_cell_angle_gamma 90.000000
_cell_volume 3131.508987
_symmetry_space_group_name_H-M "C M M A"
_symmetry_group_IT_number 67
_symmetry_cell_setting 'orthorhombic'
loop_
_space_group_symop_operation_xyz
x,y,z
-x,1/2-y,z
x,-y,-z
-x,1/2+y,-z
-x,-y,-z
x,1/2+y,-z
-x,y,z
x,1/2-y,z
1/2+x,1/2+y,z
1/2-x,-y,z
1/2+x,1/2-y,-z
1/2-x,y,-z
1/2-x,1/2-y,-z
1/2+x,y,-z
1/2-x,1/2+y,z
1/2+x,-y,z
loop_
_atom_site_type_symbol
_atom_site_label
_atom_site_fract_x
_atom_site_fract_y
_atom_site_fract_z
Si Si1 0.677661 0.750000 0.372273
Si Si2 0.316043 0.592545 0.561483
Si Si3 0.820676 0.351726 0.059425
Si Si4 0.182092 0.910766 0.174449
Si Si5 0.176407 0.750000 0.762275
O O1 0.500000 0.750000 0.393133
O O2 0.763967 0.835369 0.393990
O O3 0.689123 0.750000 0.304967
O O4 0.500000 0.587540 0.558326
O O5 0.250000 0.500000 0.581722
O O6 0.250000 0.618132 0.500000
O O7 0.792566 0.250000 0.067825
O O8 0.733127 0.401026 0.109285
O O9 0.000000 0.376142 0.061314
O O10 0.750000 0.383861 0.000000
O O11 0.242102 0.834551 0.213944
O O12 0.000000 0.913084 0.177837
O O13 0.250000 0.000000 0.199212
O O14 0.000000 0.750000 0.783737
#
# Coordination Sequence:
#
# PCOD8280421 Si02
#       5
#     8  16  16  16   8
#     4  11  24  42  65  92 125 166 211 258 309 367
#     4  11  22  39  64  95 132 169 209 255 308 366
#     4  10  20  36  61  91 126 160 199 249 307 371
#     4  12  25  42  66  92 123 162 207 255 311 372
#     4  11  25  46  67  90 123 162 209 262 312 365
#
# _framework density 20.437431
#
# number of rings (size 3 to 8) (size 9 to 14) (size 15 to 20)
#    0.000    1.000    1.250    7.125    0.000    4.500 
#    0.000    2.500    0.000    0.000    0.000    0.000 
#    0.000    0.000    0.000    0.000    0.000    0.000 
#
# Total GULP energy -397025.373754 kJ/mol
# GULP energy per Si atom -12407.042930 kJ/mol
# Density = 2.039091 g / cm^3
# Si number density = 20.437431 Si / 1000 Ang^3
#
#
#
# Elastic Constant Matrix: (Units=GPa)
#
#
# Indices 1 2 3 4 5 6 
#
# 1 209.2139 79.8219 56.2332 0.0000 0.0000 0.0000
# 2 79.8219 147.8879 57.3515 0.0000 0.0000 0.0000
# 3 56.2332 57.3515 81.5126 0.0000 0.0000 0.0000
# 4 0.0000 0.0000 0.0000 -5.4170 0.0000 0.0000
# 5 0.0000 0.0000 0.0000 0.0000 33.7331 0.0000
# 6 0.0000 0.0000 0.0000 0.0000 0.0000 34.8231
#
#
#
# Elastic Compliance Matrix: (Units=1/GPa)
#
#
# Indices 1 2 3 4 5 6 
#
# 1 0.006437 -0.002410 -0.002745 0.000000 0.000000 0.000000
# 2 -0.002410 0.010201 -0.005515 0.000000 0.000000 0.000000
# 3 -0.002745 -0.005515 0.018042 0.000000 0.000000 0.000000
# 4 0.000000 0.000000 0.000000 -0.184603 0.000000 0.000000
# 5 0.000000 0.000000 0.000000 0.000000 0.029644 0.000000
# 6 0.000000 0.000000 0.000000 0.000000 0.000000 0.028717
#
#
# Mechanical properties :
#
#
# Convention : Reuss Voigt Hill
#
# Bulk Modulus (GPa) = 74.96027 91.71418 83.33722
# Shear Modulus (GPa) = -76.01730 28.97503 -23.52113
#
# Velocity S-wave (km/s) = -6.10540 3.76938 -3.39615
# Velocity P-wave (km/s) = 3.59772 7.99483 5.04845
#
# Compressibility (1/GPa) = 0.01334040
#
# Stress axis : x y z
#
# Youngs Moduli (GPa) = 155.34986 98.02648 55.42525
#
# Poissons Ratio (x) = 0.23622 0.15216
# Poissons Ratio (y) = 0.37436 0.30568
# Poissons Ratio (z) = 0.42648 0.54063
#
# Static dielectric constant tensor:
#      x y z
#    x 3.947260 0.000000 0.000000 
#    y 0.000000 3.845890 0.000000 
#    z 0.000000 0.000000 3.704480 
# 
# 
# High freq. dielectric constant tensor:
#      x y z
#    x 1.820800 0.000000 0.000000 
#    y 0.000000 1.811680 0.000000 
#    z 0.000000 0.000000 1.795530 
# 
# From -- ./inp_files/40426.got.cif
#   From: 2010.03.12/outbox.cif.g09.slc.cpg/sg67_21_cif.got.tgz:40426.got - 2010.04.10 22:41:39.
