data_PCOD8280753
_publ_section_title
;
Structure prediction by ZEFSAII (Michael W. Deem and Ramdas Pophale) SiO2 
 PCOD8280753
Probable space group: C M M A
;
_chemical_formula_sum "Si O2"
_cell_formula_units_Z 104
_cell_length_a 8.700786
_cell_length_b 26.408854
_cell_length_c 22.808884
_cell_angle_alpha 90.000000
_cell_angle_beta 90.000000
_cell_angle_gamma 90.000000
_cell_volume 5240.974893
_symmetry_space_group_name_H-M "C M M A"
_symmetry_group_IT_number 67
_symmetry_cell_setting 'orthorhombic'
loop_
_space_group_symop_operation_xyz
x,y,z
-x,1/2-y,z
x,-y,-z
-x,1/2+y,-z
-x,-y,-z
x,1/2+y,-z
-x,y,z
x,1/2-y,z
1/2+x,1/2+y,z
1/2-x,-y,z
1/2+x,1/2-y,-z
1/2-x,y,-z
1/2-x,1/2-y,-z
1/2+x,y,-z
1/2-x,1/2+y,z
1/2+x,-y,z
loop_
_atom_site_type_symbol
_atom_site_label
_atom_site_fract_x
_atom_site_fract_y
_atom_site_fract_z
Si Si1 0.173781 0.192446 0.128266
Si Si2 0.321637 0.651418 0.761079
Si Si3 0.184414 0.945873 0.564306
Si Si4 0.180493 0.604989 0.061879
Si Si5 0.817399 0.348344 0.626558
Si Si6 0.678534 0.551332 0.823906
Si Si7 0.316339 0.250000 0.564261
O O1 0.186992 0.250000 0.108227
O O2 0.229252 0.188092 0.195627
O O3 0.275066 0.161395 0.081988
O O4 0.000000 0.172545 0.124585
O O5 0.500000 0.662132 0.772516
O O6 0.276134 0.661097 0.694287
O O7 0.279608 0.593582 0.776246
O O8 0.250000 0.934306 0.500000
O O9 0.240841 0.900893 0.606378
O O10 0.000000 0.947850 0.562635
O O11 0.250000 0.000000 0.586970
O O12 0.243292 0.566790 0.111908
O O13 0.000000 0.602433 0.056048
O O14 0.250000 0.589120 0.000000
O O15 0.745405 0.300757 0.593945
O O16 0.000000 0.351124 0.615823
O O17 0.500000 0.543144 0.829395
O O18 0.750000 0.500000 0.800499
O O19 0.500000 0.250000 0.564308
O O20 0.250000 0.250000 0.500000
#
# Coordination Sequence:
#
# PCOD8280753 Si02
#       7
#    16  16  16  16  16  16   8
#     4  10  21  36  56  82 111 145 185 232 284 339
#     4   9  21  39  58  82 114 150 190 232 282 341
#     4  11  22  39  62  89 120 157 198 247 300 357
#     4  10  21  37  56  80 111 146 189 236 284 343
#     4  11  23  41  63  90 122 160 203 249 302 362
#     4   9  19  36  56  81 111 148 188 230 281 337
#     4  12  26  44  64  90 124 162 205 252 305 366
#
# _framework density 19.843637999999999
#
# number of rings (size 3 to 8) (size 9 to 14) (size 15 to 20)
#    0.000    1.846    0.000    5.308    1.077    6.769 
#    0.000    3.077    0.000    0.000    0.000    0.000 
#    0.000    0.000    0.000    0.000    0.000    0.000 
#
# Total GULP energy -644806.575427 kJ/mol
# GULP energy per Si atom -12400.126451 kJ/mol
# Density = 1.979847 g / cm^3
# Si number density = 19.843638 Si / 1000 Ang^3
#
#
#
# Elastic Constant Matrix: (Units=GPa)
#
#
# Indices 1 2 3 4 5 6 
#
# 1 92.0227 27.6360 27.0099 0.0000 0.0000 0.0000
# 2 27.6360 88.7312 17.1329 0.0000 0.0000 0.0000
# 3 27.0099 17.1329 85.1626 0.0000 0.0000 0.0000
# 4 0.0000 0.0000 0.0000 13.0170 0.0000 0.0000
# 5 0.0000 0.0000 0.0000 0.0000 31.3641 0.0000
# 6 0.0000 0.0000 0.0000 0.0000 0.0000 36.6597
#
#
#
# Elastic Compliance Matrix: (Units=1/GPa)
#
#
# Indices 1 2 3 4 5 6 
#
# 1 0.012874 -0.003351 -0.003409 0.000000 0.000000 0.000000
# 2 -0.003351 0.012598 -0.001472 0.000000 0.000000 0.000000
# 3 -0.003409 -0.001472 0.013119 0.000000 0.000000 0.000000
# 4 0.000000 0.000000 0.000000 0.076823 0.000000 0.000000
# 5 0.000000 0.000000 0.000000 0.000000 0.031884 0.000000
# 6 0.000000 0.000000 0.000000 0.000000 0.000000 0.027278
#
#
# Mechanical properties :
#
#
# Convention : Reuss Voigt Hill
#
# Bulk Modulus (GPa) = 45.19218 45.49712 45.34465
# Shear Modulus (GPa) = 25.19969 29.15065 27.17517
#
# Velocity S-wave (km/s) = 3.56745 3.83693 3.70464
# Velocity P-wave (km/s) = 6.30813 6.52740 6.41870
#
# Compressibility (1/GPa) = 0.02212772
#
# Stress axis : x y z
#
# Youngs Moduli (GPa) = 77.67644 79.37790 76.22293
#
# Poissons Ratio (x) = 0.26603 0.25983
# Poissons Ratio (y) = 0.26033 0.11216
# Poissons Ratio (z) = 0.26478 0.11681
#
# Static dielectric constant tensor:
#      x y z
#    x 3.712850 0.000000 0.000000 
#    y 0.000000 3.539140 0.000000 
#    z 0.000000 0.000000 3.742970 
# 
# 
# High freq. dielectric constant tensor:
#      x y z
#    x 1.782580 0.000000 0.000000 
#    y 0.000000 1.779890 0.000000 
#    z 0.000000 0.000000 1.774220 
# 
# From -- ./inp_files/37334.got.cif
#   From: 2010.03.12/outbox.cif.g09.slc.cpg/sg67_19_cif.got.tgz:37334.got - 2010.04.10 22:41:39.
