data_PCOD8280478
_publ_section_title
;
Structure prediction by ZEFSAII (Michael W. Deem and Ramdas Pophale) SiO2 
 PCOD8280478
Probable space group: C M M A
;
_chemical_formula_sum "Si O2"
_cell_formula_units_Z 88
_cell_length_a 15.968490
_cell_length_b 9.231473
_cell_length_c 29.543863
_cell_angle_alpha 90.000000
_cell_angle_beta 90.000000
_cell_angle_gamma 90.000000
_cell_volume 4355.140149
_symmetry_space_group_name_H-M "C M M A"
_symmetry_group_IT_number 67
_symmetry_cell_setting 'orthorhombic'
loop_
_space_group_symop_operation_xyz
x,y,z
-x,1/2-y,z
x,-y,-z
-x,1/2+y,-z
-x,-y,-z
x,1/2+y,-z
-x,y,z
x,1/2-y,z
1/2+x,1/2+y,z
1/2-x,-y,z
1/2+x,1/2-y,-z
1/2-x,y,-z
1/2-x,1/2-y,-z
1/2+x,y,-z
1/2-x,1/2+y,z
1/2+x,-y,z
loop_
_atom_site_type_symbol
_atom_site_label
_atom_site_fract_x
_atom_site_fract_y
_atom_site_fract_z
Si Si1 0.099916 0.413570 0.543267
Si Si2 0.833676 0.919959 0.100614
Si Si3 0.000000 0.421885 0.952443
Si Si4 0.834795 0.578534 0.726599
Si Si5 0.094263 0.087722 0.805139
Si Si6 0.901356 0.084619 0.370058
O O1 0.135349 0.500000 0.500000
O O2 0.133612 0.250000 0.541167
O O3 0.134172 0.487562 0.589014
O O4 0.000000 0.417649 0.542900
O O5 0.820286 0.750000 0.093732
O O6 0.846043 0.958613 0.153578
O O7 0.915886 0.972633 0.073585
O O8 0.750000 0.000000 0.082861
O O9 0.000000 0.250000 0.958807
O O10 0.000000 0.500000 0.000000
O O11 0.826481 0.750000 0.729610
O O12 0.750000 0.500000 0.740155
O O13 0.901207 0.523813 0.763405
O O14 0.861117 0.528996 0.676420
O O15 0.117456 0.250000 0.788294
O O16 0.000000 0.085718 0.824082
O O17 0.877001 0.250000 0.380462
O O18 0.000000 0.067159 0.365128
#
# Coordination Sequence:
#
# PCOD8280478 Si02
#       6
#    16  16   8  16  16  16
#     4   9  16  26  44  71 100 129 165 211 264 323
#     4  10  21  39  62  89 123 162 202 250 303 359
#     4  10  22  42  64  88 124 164 206 254 307 360
#     4  11  23  37  53  77 110 147 186 231 281 336
#     4  10  20  37  61  86 115 152 191 235 291 350
#     4   9  18  33  51  71  99 134 172 217 270 325
#
# _framework density 20.206008000000001
#
# number of rings (size 3 to 8) (size 9 to 14) (size 15 to 20)
#    0.000    2.182    0.909    2.182    0.000    8.000 
#    0.000    3.636    0.000    0.545    0.000    3.818 
#    0.000    0.000    0.000    0.000    0.000    0.000 
#
# Total GULP energy -545639.347659 kJ/mol
# GULP energy per Si atom -12400.894265 kJ/mol
# Density = 2.016002 g / cm^3
# Si number density = 20.206008 Si / 1000 Ang^3
#
#
#
# Elastic Constant Matrix: (Units=GPa)
#
#
# Indices 1 2 3 4 5 6 
#
# 1 86.8908 36.4829 46.9478 0.0000 0.0000 0.0000
# 2 36.4829 96.2672 68.8505 0.0000 0.0000 0.0000
# 3 46.9478 68.8505 134.0927 0.0000 0.0000 0.0000
# 4 0.0000 0.0000 0.0000 40.2913 0.0000 0.0000
# 5 0.0000 0.0000 0.0000 0.0000 17.1566 0.0000
# 6 0.0000 0.0000 0.0000 0.0000 0.0000 25.6159
#
#
#
# Elastic Compliance Matrix: (Units=1/GPa)
#
#
# Indices 1 2 3 4 5 6 
#
# 1 0.014719 -0.002991 -0.003618 0.000000 0.000000 0.000000
# 2 -0.002991 0.017024 -0.007694 0.000000 0.000000 0.000000
# 3 -0.003618 -0.007694 0.012675 0.000000 0.000000 0.000000
# 4 0.000000 0.000000 0.000000 0.024819 0.000000 0.000000
# 5 0.000000 0.000000 0.000000 0.000000 0.058287 0.000000
# 6 0.000000 0.000000 0.000000 0.000000 0.000000 0.039038
#
#
# Mechanical properties :
#
#
# Convention : Reuss Voigt Hill
#
# Bulk Modulus (GPa) = 63.23983 69.09036 66.16510
# Shear Modulus (GPa) = 24.94542 27.61071 26.27807
#
# Velocity S-wave (km/s) = 3.51743 3.70058 3.61017
# Velocity P-wave (km/s) = 6.91823 7.24750 7.08478
#
# Compressibility (1/GPa) = 0.01581282
#
# Stress axis : x y z
#
# Youngs Moduli (GPa) = 67.93873 58.74109 78.89783
#
# Poissons Ratio (x) = 0.17568 0.28543
# Poissons Ratio (y) = 0.20319 0.60703
# Poissons Ratio (z) = 0.24579 0.45195
#
# Static dielectric constant tensor:
#      x y z
#    x 3.467550 0.000000 0.000000 
#    y 0.000000 3.630550 0.000000 
#    z 0.000000 0.000000 3.664380 
# 
# 
# High freq. dielectric constant tensor:
#      x y z
#    x 1.776040 0.000000 0.000000 
#    y 0.000000 1.783210 0.000000 
#    z 0.000000 0.000000 1.793970 
# 
# From -- ./inp_files/45817.got.cif
#   From: 2010.03.12/outbox.cif.g09.slc.cpg/sg67_23_cif.got.tgz:45817.got - 2010.04.10 22:41:39.
