data_PCOD8280645
_publ_section_title
;
Structure prediction by ZEFSAII (Michael W. Deem and Ramdas Pophale) SiO2 
 PCOD8280645
Probable space group: C M M A
;
_chemical_formula_sum "Si O2"
_cell_formula_units_Z 88
_cell_length_a 27.621381
_cell_length_b 9.178741
_cell_length_c 19.309619
_cell_angle_alpha 90.000000
_cell_angle_beta 90.000000
_cell_angle_gamma 90.000000
_cell_volume 4895.558094
_symmetry_space_group_name_H-M "C M M A"
_symmetry_group_IT_number 67
_symmetry_cell_setting 'orthorhombic'
loop_
_space_group_symop_operation_xyz
x,y,z
-x,1/2-y,z
x,-y,-z
-x,1/2+y,-z
-x,-y,-z
x,1/2+y,-z
-x,y,z
x,1/2-y,z
1/2+x,1/2+y,z
1/2-x,-y,z
1/2+x,1/2-y,-z
1/2-x,y,-z
1/2-x,1/2-y,-z
1/2+x,y,-z
1/2-x,1/2+y,z
1/2+x,-y,z
loop_
_atom_site_type_symbol
_atom_site_label
_atom_site_fract_x
_atom_site_fract_y
_atom_site_fract_z
Si Si1 0.630662 0.921207 0.282431
Si Si2 0.298783 0.083118 0.834758
Si Si3 0.000000 0.916187 0.569527
Si Si4 0.943744 0.419468 0.809454
Si Si5 0.890248 0.421641 0.072901
Si Si6 0.394806 0.082195 0.571127
O O1 0.618067 0.750000 0.271586
O O2 0.679059 0.962239 0.239971
O O3 0.640188 0.956685 0.364083
O O4 0.585917 0.015500 0.254804
O O5 0.284269 0.250000 0.834548
O O6 0.337767 0.048240 0.894016
O O7 0.250000 0.000000 0.851518
O O8 0.051644 0.954459 0.604621
O O9 0.000000 0.750000 0.548885
O O10 0.000000 0.000000 0.500000
O O11 0.930419 0.250000 0.819771
O O12 0.931387 0.507839 0.879094
O O13 0.000000 0.440135 0.792286
O O14 0.900417 0.250000 0.065164
O O15 0.892360 0.500000 0.000000
O O16 0.390324 0.250000 0.550722
O O17 0.381740 0.000000 0.500000
#
# Coordination Sequence:
#
# PCOD8280645 Si02
#       6
#    16  16   8  16  16  16
#     4   9  19  34  52  74 101 134 173 213 255 307
#     4   9  19  35  54  77 101 129 165 207 256 307
#     4   8  14  24  38  60  88 122 157 190 235 284
#     4  10  21  35  51  75 105 138 176 213 249 293
#     4  10  21  37  56  79 106 135 169 207 249 299
#     4   9  17  29  46  69  98 131 168 209 253 300
#
# _framework density 17.975477999999999
#
# number of rings (size 3 to 8) (size 9 to 14) (size 15 to 20)
#    0.000    2.727    0.000    2.182    1.273    6.545 
#    0.000    1.818    0.000    0.545    0.000    3.818 
#    0.000    0.000    0.000    0.000    0.000    0.000 
#
# Total GULP energy -545168.466056 kJ/mol
# GULP energy per Si atom -12390.192410 kJ/mol
# Density = 1.793456 g / cm^3
# Si number density = 17.975478 Si / 1000 Ang^3
#
#
#
# Elastic Constant Matrix: (Units=GPa)
#
#
# Indices 1 2 3 4 5 6 
#
# 1 49.5224 29.5835 6.5283 0.0000 0.0000 0.0000
# 2 29.5835 73.5643 35.7790 0.0000 0.0000 0.0000
# 3 6.5283 35.7790 107.5185 0.0000 0.0000 0.0000
# 4 0.0000 0.0000 0.0000 30.5220 0.0000 0.0000
# 5 0.0000 0.0000 0.0000 0.0000 12.8566 0.0000
# 6 0.0000 0.0000 0.0000 0.0000 0.0000 27.7578
#
#
#
# Elastic Compliance Matrix: (Units=1/GPa)
#
#
# Indices 1 2 3 4 5 6 
#
# 1 0.027071 -0.012035 0.002361 0.000000 0.000000 0.000000
# 2 -0.012035 0.021569 -0.006447 0.000000 0.000000 0.000000
# 3 0.002361 -0.006447 0.011303 0.000000 0.000000 0.000000
# 4 0.000000 0.000000 0.000000 0.032763 0.000000 0.000000
# 5 0.000000 0.000000 0.000000 0.000000 0.077781 0.000000
# 6 0.000000 0.000000 0.000000 0.000000 0.000000 0.036026
#
#
# Mechanical properties :
#
#
# Convention : Reuss Voigt Hill
#
# Bulk Modulus (GPa) = 36.09906 41.59851 38.84879
# Shear Modulus (GPa) = 20.16232 24.80822 22.48527
#
# Velocity S-wave (km/s) = 3.35275 3.71902 3.54062
# Velocity P-wave (km/s) = 5.92570 6.45240 6.19465
#
# Compressibility (1/GPa) = 0.02770155
#
# Stress axis : x y z
#
# Youngs Moduli (GPa) = 36.94001 46.36347 88.47496
#
# Poissons Ratio (x) = 0.55797 -0.20890
# Poissons Ratio (y) = 0.44456 0.57037
# Poissons Ratio (z) = -0.08722 0.29889
#
# Static dielectric constant tensor:
#      x y z
#    x 3.100440 0.000000 0.000000 
#    y 0.000000 3.383170 0.000000 
#    z 0.000000 0.000000 3.302540 
# 
# 
# High freq. dielectric constant tensor:
#      x y z
#    x 1.672930 0.000000 0.000000 
#    y 0.000000 1.700580 0.000000 
#    z 0.000000 0.000000 1.696940 
# 
# From -- ./inp_files/39589.got.cif
#   From: 2010.03.12/outbox.cif.g09.slc.cpg/sg67_20_cif.got.tgz:39589.got - 2010.04.10 22:41:39.
