data_PCOD8280760
_publ_section_title
;
Structure prediction by ZEFSAII (Michael W. Deem and Ramdas Pophale) SiO2 
 PCOD8280760
Probable space group: C M M A
;
_chemical_formula_sum "Si O2"
_cell_formula_units_Z 96
_cell_length_a 8.718916
_cell_length_b 28.490433
_cell_length_c 20.512141
_cell_angle_alpha 90.000000
_cell_angle_beta 90.000000
_cell_angle_gamma 90.000000
_cell_volume 5095.332582
_symmetry_space_group_name_H-M "C M M A"
_symmetry_group_IT_number 67
_symmetry_cell_setting 'orthorhombic'
loop_
_space_group_symop_operation_xyz
x,y,z
-x,1/2-y,z
x,-y,-z
-x,1/2+y,-z
-x,-y,-z
x,1/2+y,-z
-x,y,z
x,1/2-y,z
1/2+x,1/2+y,z
1/2-x,-y,z
1/2+x,1/2-y,-z
1/2-x,y,-z
1/2-x,1/2-y,-z
1/2+x,y,-z
1/2-x,1/2+y,z
1/2+x,-y,z
loop_
_atom_site_type_symbol
_atom_site_label
_atom_site_fract_x
_atom_site_fract_y
_atom_site_fract_z
Si Si1 0.176762 0.802965 0.614636
Si Si2 0.820501 0.049857 0.932613
Si Si3 0.323214 0.302696 0.767276
Si Si4 0.819361 0.051088 0.311629
Si Si5 0.177537 0.893623 0.194490
Si Si6 0.820014 0.894184 0.432393
O O1 0.219072 0.750000 0.593135
O O2 0.206804 0.809480 0.690915
O O3 0.283416 0.838959 0.575753
O O4 0.000000 0.814076 0.598251
O O5 0.780557 0.086682 0.876363
O O6 0.000000 0.043113 0.942138
O O7 0.750000 0.000000 0.912775
O O8 0.750000 0.068999 0.000000
O O9 0.500000 0.312811 0.783685
O O10 0.278450 0.250000 0.788526
O O11 0.215915 0.338364 0.806881
O O12 0.781490 0.081482 0.248261
O O13 0.752838 0.075595 0.375205
O O14 0.000000 0.047204 0.319374
O O15 0.750000 0.000000 0.302394
O O16 0.000000 0.901972 0.211779
O O17 0.750000 0.912656 0.500000
O O18 0.000000 0.902208 0.432605
#
# Coordination Sequence:
#
# PCOD8280760 Si02
#       6
#    16  16  16  16  16  16
#     4   9  18  35  58  84 114 147 186 232 284 340
#     4  10  21  36  56  84 119 155 194 233 279 334
#     4   9  18  33  56  85 116 151 189 231 282 337
#     4  12  25  42  62  85 113 146 188 236 284 337
#     4  11  22  36  58  90 120 151 190 234 283 336
#     4  12  25  41  60  83 112 148 190 234 287 344
#
# _framework density 18.840772000000001
#
# number of rings (size 3 to 8) (size 9 to 14) (size 15 to 20)
#    0.000    1.500    1.667    6.000    0.000    5.333 
#    0.000    3.333    0.000    0.500    0.000    0.000 
#    0.000    0.000    0.000    0.000    0.000    0.000 
#
# Total GULP energy -595389.850428 kJ/mol
# GULP energy per Si atom -12403.955217 kJ/mol
# Density = 1.879789 g / cm^3
# Si number density = 18.840772 Si / 1000 Ang^3
#
#
#
# Elastic Constant Matrix: (Units=GPa)
#
#
# Indices 1 2 3 4 5 6 
#
# 1 124.0966 44.0470 55.3231 0.0000 0.0000 0.0000
# 2 44.0470 107.5273 51.5645 0.0000 0.0000 0.0000
# 3 55.3231 51.5645 106.3956 0.0000 0.0000 0.0000
# 4 0.0000 0.0000 0.0000 20.0042 0.0000 0.0000
# 5 0.0000 0.0000 0.0000 0.0000 30.4407 0.0000
# 6 0.0000 0.0000 0.0000 0.0000 0.0000 30.9062
#
#
#
# Elastic Compliance Matrix: (Units=1/GPa)
#
#
# Indices 1 2 3 4 5 6 
#
# 1 0.010901 -0.002276 -0.004565 0.000000 0.000000 0.000000
# 2 -0.002276 0.012591 -0.004919 0.000000 0.000000 0.000000
# 3 -0.004565 -0.004919 0.014157 0.000000 0.000000 0.000000
# 4 0.000000 0.000000 0.000000 0.049990 0.000000 0.000000
# 5 0.000000 0.000000 0.000000 0.000000 0.032851 0.000000
# 6 0.000000 0.000000 0.000000 0.000000 0.000000 0.032356
#
#
# Mechanical properties :
#
#
# Convention : Reuss Voigt Hill
#
# Bulk Modulus (GPa) = 70.77833 71.09876 70.93854
# Shear Modulus (GPa) = 27.61281 28.74256 28.17768
#
# Velocity S-wave (km/s) = 3.83245 3.91007 3.87145
# Velocity P-wave (km/s) = 7.56517 7.62912 7.59721
#
# Compressibility (1/GPa) = 0.01412862
#
# Stress axis : x y z
#
# Youngs Moduli (GPa) = 91.73115 79.42077 70.63889
#
# Poissons Ratio (x) = 0.18079 0.32248
# Poissons Ratio (y) = 0.20881 0.34745
# Poissons Ratio (z) = 0.41877 0.39064
#
# Static dielectric constant tensor:
#      x y z
#    x 3.518930 0.000000 0.000000 
#    y 0.000000 2.667060 0.000000 
#    z 0.000000 0.000000 3.419770 
# 
# 
# High freq. dielectric constant tensor:
#      x y z
#    x 1.740380 0.000000 0.000000 
#    y 0.000000 1.737040 0.000000 
#    z 0.000000 0.000000 1.719170 
# 
# From -- ./inp_files/37213.got.cif
#   From: 2010.03.12/outbox.cif.g09.slc.cpg/sg67_19_cif.got.tgz:37213.got - 2010.04.10 22:41:39.
