data_PCOD8280030
_publ_section_title
;
Structure prediction by ZEFSAII (Michael W. Deem and Ramdas Pophale) SiO2 
 PCOD8280030
Probable space group: C M M A
;
_chemical_formula_sum "Si O2"
_cell_formula_units_Z 104
_cell_length_a 30.208816
_cell_length_b 8.877223
_cell_length_c 20.073844
_cell_angle_alpha 90.000000
_cell_angle_beta 90.000000
_cell_angle_gamma 90.000000
_cell_volume 5383.210699
_symmetry_space_group_name_H-M "C M M A"
_symmetry_group_IT_number 67
_symmetry_cell_setting 'orthorhombic'
loop_
_space_group_symop_operation_xyz
x,y,z
-x,1/2-y,z
x,-y,-z
-x,1/2+y,-z
-x,-y,-z
x,1/2+y,-z
-x,y,z
x,1/2-y,z
1/2+x,1/2+y,z
1/2-x,-y,z
1/2+x,1/2-y,-z
1/2-x,y,-z
1/2-x,1/2-y,-z
1/2+x,y,-z
1/2-x,1/2+y,z
1/2+x,-y,z
loop_
_atom_site_type_symbol
_atom_site_label
_atom_site_fract_x
_atom_site_fract_y
_atom_site_fract_z
Si Si1 0.665071 0.074827 0.569190
Si Si2 0.500000 0.078673 0.568577
Si Si3 0.450754 0.580575 0.776113
Si Si4 0.704830 0.576890 0.292065
Si Si5 0.203437 0.571218 0.069498
Si Si6 0.859157 0.071160 0.810128
Si Si7 0.079610 0.919576 0.371687
O O1 0.652882 0.250000 0.556817
O O2 0.701418 0.060296 0.627584
O O3 0.682188 0.000000 0.500000
O O4 0.623950 0.980627 0.596050
O O5 0.500000 0.250000 0.552396
O O6 0.500000 0.000000 0.500000
O O7 0.457510 0.035924 0.609319
O O8 0.500000 0.497975 0.776933
O O9 0.461363 0.750000 0.797344
O O10 0.410766 0.514063 0.822041
O O11 0.423453 0.579204 0.707392
O O12 0.706630 0.750000 0.270748
O O13 0.750000 0.500000 0.267806
O O14 0.663047 0.502834 0.255087
O O15 0.208664 0.750000 0.062092
O O16 0.250000 0.500000 0.091740
O O17 0.167397 0.524615 0.124141
O O18 0.187557 0.500000 0.000000
O O19 0.858533 0.250000 0.798685
O O20 0.071377 0.750000 0.398784
#
# Coordination Sequence:
#
# PCOD8280030 Si02
#       7
#    16   8  16  16  16  16  16
#     4  11  24  40  56  77 104 141 184 232 289 345
#     4  12  24  36  50  72 104 136 177 230 287 352
#     4   9  17  32  57  85 110 141 184 229 276 330
#     4  11  24  39  58  83 111 144 187 234 287 345
#     4  10  20  34  56  87 122 157 192 227 273 327
#     4  10  20  36  60  88 117 151 189 232 281 332
#     4  11  20  35  57  78 102 137 180 229 287 345
#
# _framework density 19.319326
#
# number of rings (size 3 to 8) (size 9 to 14) (size 15 to 20)
#    0.000    1.538    2.308    3.923    0.000    4.615 
#    0.000    1.538    0.000    0.462    0.000    0.000 
#    0.000    0.000    0.000    0.000    0.000    0.615 
#
# Total GULP energy -644246.011673 kJ/mol
# GULP energy per Si atom -12389.346378 kJ/mol
# Density = 1.927535 g / cm^3
# Si number density = 19.319326 Si / 1000 Ang^3
#
#
#
# Elastic Constant Matrix: (Units=GPa)
#
#
# Indices 1 2 3 4 5 6 
#
# 1 132.0409 36.0832 45.8182 0.0000 0.0000 0.0000
# 2 36.0832 99.9402 31.8479 0.0000 0.0000 0.0000
# 3 45.8182 31.8479 90.9165 0.0000 0.0000 0.0000
# 4 0.0000 0.0000 0.0000 21.6915 0.0000 0.0000
# 5 0.0000 0.0000 0.0000 0.0000 31.0502 0.0000
# 6 0.0000 0.0000 0.0000 0.0000 0.0000 22.5996
#
#
#
# Elastic Compliance Matrix: (Units=1/GPa)
#
#
# Indices 1 2 3 4 5 6 
#
# 1 0.009576 -0.002161 -0.004069 0.000000 0.000000 0.000000
# 2 -0.002161 0.011751 -0.003027 0.000000 0.000000 0.000000
# 3 -0.004069 -0.003027 0.014110 0.000000 0.000000 0.000000
# 4 0.000000 0.000000 0.000000 0.046101 0.000000 0.000000
# 5 0.000000 0.000000 0.000000 0.000000 0.032206 0.000000
# 6 0.000000 0.000000 0.000000 0.000000 0.000000 0.044248
#
#
# Mechanical properties :
#
#
# Convention : Reuss Voigt Hill
#
# Bulk Modulus (GPa) = 59.09194 61.15513 60.12354
# Shear Modulus (GPa) = 27.45033 29.01149 28.23091
#
# Velocity S-wave (km/s) = 3.77354 3.87936 3.82681
# Velocity P-wave (km/s) = 7.04553 7.19649 7.12141
#
# Compressibility (1/GPa) = 0.01692278
#
# Stress axis : x y z
#
# Youngs Moduli (GPa) = 104.43011 85.10034 70.87093
#
# Poissons Ratio (x) = 0.18387 0.28837
# Poissons Ratio (y) = 0.22564 0.21455
# Poissons Ratio (z) = 0.42492 0.25763
#
# Static dielectric constant tensor:
#      x y z
#    x 3.669450 0.000000 0.000000 
#    y 0.000000 3.479260 0.000000 
#    z 0.000000 0.000000 3.556450 
# 
# 
# High freq. dielectric constant tensor:
#      x y z
#    x 1.760160 0.000000 0.000000 
#    y 0.000000 1.745100 0.000000 
#    z 0.000000 0.000000 1.735000 
# 
# From -- ./inp_files/37551.got.cif
#   From: 2010.03.12/outbox.cif.g09.slc.cpg/sg67_19_cif.got.tgz:37551.got - 2010.04.10 22:41:39.
