data_PCOD8280551
_publ_section_title
;
Structure prediction by ZEFSAII (Michael W. Deem and Ramdas Pophale) SiO2 
 PCOD8280551
Probable space group: C M M A
;
_chemical_formula_sum "Si O2"
_cell_formula_units_Z 104
_cell_length_a 8.764695
_cell_length_b 25.921957
_cell_length_c 22.829268
_cell_angle_alpha 90.000000
_cell_angle_beta 90.000000
_cell_angle_gamma 90.000000
_cell_volume 5186.765102
_symmetry_space_group_name_H-M "C M M A"
_symmetry_group_IT_number 67
_symmetry_cell_setting 'orthorhombic'
loop_
_space_group_symop_operation_xyz
x,y,z
-x,1/2-y,z
x,-y,-z
-x,1/2+y,-z
-x,-y,-z
x,1/2+y,-z
-x,y,z
x,1/2-y,z
1/2+x,1/2+y,z
1/2-x,-y,z
1/2+x,1/2-y,-z
1/2-x,y,-z
1/2-x,1/2-y,-z
1/2+x,y,-z
1/2-x,1/2+y,z
1/2+x,-y,z
loop_
_atom_site_type_symbol
_atom_site_label
_atom_site_fract_x
_atom_site_fract_y
_atom_site_fract_z
Si Si1 0.824682 0.691948 0.821428
Si Si2 0.176972 0.552259 0.108207
Si Si3 0.819285 0.945204 0.650531
Si Si4 0.819290 0.138025 0.564619
Si Si5 0.819687 0.339817 0.939521
Si Si6 0.319695 0.403708 0.231926
Si Si7 0.824171 0.250000 0.562038
O O1 0.811515 0.750000 0.796907
O O2 0.753477 0.691368 0.886257
O O3 0.732747 0.655449 0.776708
O O4 0.000000 0.673789 0.824698
O O5 0.250000 0.500000 0.084090
O O6 0.223391 0.599752 0.066706
O O7 0.229210 0.564544 0.174396
O O8 0.000000 0.543097 0.107041
O O9 0.761697 0.903113 0.605144
O O10 0.767166 0.930226 0.715219
O O11 0.000000 0.948781 0.648410
O O12 0.750000 0.000000 0.632226
O O13 0.750000 0.133271 0.500000
O O14 0.782485 0.195237 0.592966
O O15 0.000000 0.127454 0.562503
O O16 0.000000 0.330754 0.938158
O O17 0.750000 0.318793 0.000000
O O18 0.500000 0.404499 0.243536
O O19 0.750000 0.250000 0.500000
O O20 0.000000 0.250000 0.548208
#
# Coordination Sequence:
#
# PCOD8280551 Si02
#       7
#    16  16  16  16  16  16   8
#     4  10  21  38  60  85 113 146 186 234 289 348
#     4   9  19  33  52  77 104 138 180 224 276 334
#     4  12  25  41  61  88 121 160 202 250 299 355
#     4  10  20  38  62  91 124 161 203 248 299 357
#     4  10  21  36  53  77 109 145 187 232 282 342
#     4  10  21  39  60  84 113 148 190 236 288 348
#     4   8  16  32  58  86 116 152 192 236 285 340
#
# _framework density 20.051034000000001
#
# number of rings (size 3 to 8) (size 9 to 14) (size 15 to 20)
#    0.000    2.000    0.000    4.615    0.000    7.692 
#    1.385    3.077    0.000    0.000    0.000    0.000 
#    0.000    0.000    0.000    0.000    0.000    0.000 
#
# Total GULP energy -644668.359438 kJ/mol
# GULP energy per Si atom -12397.468451 kJ/mol
# Density = 2.000540 g / cm^3
# Si number density = 20.051034 Si / 1000 Ang^3
#
#
#
# Elastic Constant Matrix: (Units=GPa)
#
#
# Indices 1 2 3 4 5 6 
#
# 1 107.6076 47.1353 29.7201 0.0000 0.0000 0.0000
# 2 47.1353 120.4127 23.2401 0.0000 0.0000 0.0000
# 3 29.7201 23.2401 58.7614 0.0000 0.0000 0.0000
# 4 0.0000 0.0000 0.0000 15.1029 0.0000 0.0000
# 5 0.0000 0.0000 0.0000 0.0000 34.0117 0.0000
# 6 0.0000 0.0000 0.0000 0.0000 0.0000 31.5281
#
#
#
# Elastic Compliance Matrix: (Units=1/GPa)
#
#
# Indices 1 2 3 4 5 6 
#
# 1 0.012297 -0.003912 -0.004672 0.000000 0.000000 0.000000
# 2 -0.003912 0.010236 -0.002070 0.000000 0.000000 0.000000
# 3 -0.004672 -0.002070 0.020200 0.000000 0.000000 0.000000
# 4 0.000000 0.000000 0.000000 0.066212 0.000000 0.000000
# 5 0.000000 0.000000 0.000000 0.000000 0.029402 0.000000
# 6 0.000000 0.000000 0.000000 0.000000 0.000000 0.031718
#
#
# Mechanical properties :
#
#
# Convention : Reuss Voigt Hill
#
# Bulk Modulus (GPa) = 46.67557 54.10807 50.39182
# Shear Modulus (GPa) = 25.18725 28.57429 26.88077
#
# Velocity S-wave (km/s) = 3.54808 3.77912 3.66542
# Velocity P-wave (km/s) = 6.33357 6.78867 6.56506
#
# Compressibility (1/GPa) = 0.02142448
#
# Stress axis : x y z
#
# Youngs Moduli (GPa) = 81.32069 97.69915 49.50572
#
# Poissons Ratio (x) = 0.38218 0.23131
# Poissons Ratio (y) = 0.31811 0.10246
# Poissons Ratio (z) = 0.37996 0.20220
#
# Static dielectric constant tensor:
#      x y z
#    x 3.725850 0.000000 0.000000 
#    y 0.000000 4.179960 0.000000 
#    z 0.000000 0.000000 3.440830 
# 
# 
# High freq. dielectric constant tensor:
#      x y z
#    x 1.794600 0.000000 0.000000 
#    y 0.000000 1.797600 0.000000 
#    z 0.000000 0.000000 1.762110 
# 
# From -- ./inp_files/37299.got.cif
#   From: 2010.03.12/outbox.cif.g09.slc.cpg/sg67_19_cif.got.tgz:37299.got - 2010.04.10 22:41:39.
