data_PCOD8280371
_publ_section_title
;
Structure prediction by ZEFSAII (Michael W. Deem and Ramdas Pophale) SiO2 
 PCOD8280371
Probable space group: C M M A
;
_chemical_formula_sum "Si O2"
_cell_formula_units_Z 112
_cell_length_a 29.855325
_cell_length_b 13.171732
_cell_length_c 11.521459
_cell_angle_alpha 90.000000
_cell_angle_beta 90.000000
_cell_angle_gamma 90.000000
_cell_volume 4530.771579
_symmetry_space_group_name_H-M "C M M A"
_symmetry_group_IT_number 67
_symmetry_cell_setting 'orthorhombic'
loop_
_space_group_symop_operation_xyz
x,y,z
-x,1/2-y,z
x,-y,-z
-x,1/2+y,-z
-x,-y,-z
x,1/2+y,-z
-x,y,z
x,1/2-y,z
1/2+x,1/2+y,z
1/2-x,-y,z
1/2+x,1/2-y,-z
1/2-x,y,-z
1/2-x,1/2-y,-z
1/2+x,y,-z
1/2-x,1/2+y,z
1/2+x,-y,z
loop_
_atom_site_type_symbol
_atom_site_label
_atom_site_fract_x
_atom_site_fract_y
_atom_site_fract_z
Si Si1 0.550504 0.056693 0.832007
Si Si2 0.184120 0.136134 0.300567
Si Si3 0.821229 0.034311 0.878974
Si Si4 0.449086 0.870859 0.419539
Si Si5 0.218059 0.367973 0.675825
Si Si6 0.914177 0.633903 0.064434
Si Si7 0.864364 0.638253 0.463790
O O1 0.500000 0.096103 0.845949
O O2 0.566793 0.079417 0.701889
O O3 0.552335 0.936124 0.860163
O O4 0.580351 0.116805 0.926334
O O5 0.192385 0.250000 0.250281
O O6 0.231727 0.094075 0.355695
O O7 0.148541 0.141653 0.401980
O O8 0.166696 0.064751 0.197535
O O9 0.786352 0.106958 0.812151
O O10 0.864654 0.101248 0.901391
O O11 0.799184 0.000000 0.000000
O O12 0.500000 0.903097 0.452496
O O13 0.445289 0.750000 0.405460
O O14 0.415156 0.907655 0.525146
O O15 0.215009 0.250000 0.644087
O O16 0.174502 0.421758 0.610017
O O17 0.923076 0.750000 0.098299
O O18 0.867911 0.750000 0.408297
#
# Coordination Sequence:
#
# PCOD8280371 Si02
#       7
#    16  16  16  16  16  16  16
#     4  10  20  36  58  92 131 170 223 281 330 392
#     4  10  22  40  65  93 125 166 222 279 336 399
#     4  12  25  42  60  89 127 172 217 265 326 397
#     4   9  17  31  58  97 138 176 214 263 325 395
#     4  10  22  41  64  93 127 169 214 274 341 398
#     4  11  22  37  57  86 125 173 226 277 328 386
#     4   9  18  35  62  94 130 168 215 274 333 394
#
# _framework density 24.719851999999999
#
# number of rings (size 3 to 8) (size 9 to 14) (size 15 to 20)
#    0.000    1.857    1.429    3.429    0.000    6.286 
#    0.000    2.857    0.000    1.714    0.000    7.000 
#    0.000    0.000    0.000    0.000    0.000    0.000 
#
# Total GULP energy -693853.235057 kJ/mol
# GULP energy per Si atom -12390.236340 kJ/mol
# Density = 2.466359 g / cm^3
# Si number density = 24.719852 Si / 1000 Ang^3
#
#
#
# Elastic Constant Matrix: (Units=GPa)
#
#
# Indices 1 2 3 4 5 6 
#
# 1 120.8652 -5.9258 30.1003 0.0000 0.0000 0.0000
# 2 -5.9258 85.8289 9.2796 0.0000 0.0000 0.0000
# 3 30.1003 9.2796 84.0697 0.0000 0.0000 0.0000
# 4 0.0000 0.0000 0.0000 25.8618 0.0000 0.0000
# 5 0.0000 0.0000 0.0000 0.0000 28.0374 0.0000
# 6 0.0000 0.0000 0.0000 0.0000 0.0000 11.3396
#
#
#
# Elastic Compliance Matrix: (Units=1/GPa)
#
#
# Indices 1 2 3 4 5 6 
#
# 1 0.009168 0.001000 -0.003393 0.000000 0.000000 0.000000
# 2 0.001000 0.011901 -0.001672 0.000000 0.000000 0.000000
# 3 -0.003393 -0.001672 0.013294 0.000000 0.000000 0.000000
# 4 0.000000 0.000000 0.000000 0.038667 0.000000 0.000000
# 5 0.000000 0.000000 0.000000 0.000000 0.035667 0.000000
# 6 0.000000 0.000000 0.000000 0.000000 0.000000 0.088186
#
#
# Mechanical properties :
#
#
# Convention : Reuss Voigt Hill
#
# Bulk Modulus (GPa) = 38.11913 39.74131 38.93022
# Shear Modulus (GPa) = 23.39112 30.20174 26.79643
#
# Velocity S-wave (km/s) = 3.07945 3.49916 3.29599
# Velocity P-wave (km/s) = 5.30075 5.69536 5.50159
#
# Compressibility (1/GPa) = 0.02623355
#
# Stress axis : x y z
#
# Youngs Moduli (GPa) = 109.07961 84.02767 75.22115
#
# Poissons Ratio (x) = -0.08401 0.25520
# Poissons Ratio (y) = -0.10905 0.12574
# Poissons Ratio (z) = 0.37008 0.14046
#
# Static dielectric constant tensor:
#      x y z
#    x 4.758340 0.000000 0.000000 
#    y 0.000000 4.605260 0.000000 
#    z 0.000000 0.000000 4.343330 
# 
# 
# High freq. dielectric constant tensor:
#      x y z
#    x 1.999710 0.000000 0.000000 
#    y 0.000000 1.985350 0.000000 
#    z 0.000000 0.000000 1.960870 
# 
# From -- ./inp_files/23859.got.cif
#   From: 2010.03.12/outbox.cif.g09.slc.cpg/sg67_12_cif.got.tgz:23859.got - 2010.04.10 22:41:39.
