data_PCOD8280575
_publ_section_title
;
Structure prediction by ZEFSAII (Michael W. Deem and Ramdas Pophale) SiO2 
 PCOD8280575
Probable space group: C M M A
;
_chemical_formula_sum "Si O2"
_cell_formula_units_Z 64
_cell_length_a 26.764307
_cell_length_b 16.851456
_cell_length_c 7.308276
_cell_angle_alpha 90.000000
_cell_angle_beta 90.000000
_cell_angle_gamma 90.000000
_cell_volume 3296.160676
_symmetry_space_group_name_H-M "C M M A"
_symmetry_group_IT_number 67
_symmetry_cell_setting 'orthorhombic'
loop_
_space_group_symop_operation_xyz
x,y,z
-x,1/2-y,z
x,-y,-z
-x,1/2+y,-z
-x,-y,-z
x,1/2+y,-z
-x,y,z
x,1/2-y,z
1/2+x,1/2+y,z
1/2-x,-y,z
1/2+x,1/2-y,-z
1/2-x,y,-z
1/2-x,1/2-y,-z
1/2+x,y,-z
1/2-x,1/2+y,z
1/2+x,-y,z
loop_
_atom_site_type_symbol
_atom_site_label
_atom_site_fract_x
_atom_site_fract_y
_atom_site_fract_z
Si Si1 0.396705 0.074087 0.888705
Si Si2 0.694238 0.486807 0.286394
Si Si3 0.057210 0.659012 0.553334
Si Si4 0.631384 0.659856 0.771502
O O1 0.431236 0.100537 0.721385
O O2 0.342149 0.047645 0.817203
O O3 0.391928 0.148092 0.026970
O O4 0.421087 0.000000 0.000000
O O5 0.690939 0.500000 0.500000
O O6 0.750000 0.500000 0.211379
O O7 0.679515 0.395804 0.248375
O O8 0.067775 0.750000 0.611164
O O9 0.090420 0.634999 0.379495
O O10 0.000000 0.646993 0.495356
O O11 0.648890 0.750000 0.746474
#
# Coordination Sequence:
#
# PCOD8280575 Si02
#       4
#    16  16  16  16
#     4  10  21  36  59  86 116 151 191 236 285 338
#     4  10  20  39  62  84 115 154 189 233 288 342
#     4  10  21  38  58  82 117 155 191 238 290 336
#     4  10  21  38  60  87 116 151 194 236 280 342
#
# _framework density 19.416529000000001
#
# number of rings (size 3 to 8) (size 9 to 14) (size 15 to 20)
#    0.000    2.000    2.500    0.750    0.000    6.000 
#    0.000   17.500    0.000    0.000    0.000    0.000 
#    0.000    0.000    0.000    0.000    0.000    0.000 
#
# Total GULP energy -396788.733429 kJ/mol
# GULP energy per Si atom -12399.647920 kJ/mol
# Density = 1.937234 g / cm^3
# Si number density = 19.416529 Si / 1000 Ang^3
#
#
#
# Elastic Constant Matrix: (Units=GPa)
#
#
# Indices 1 2 3 4 5 6 
#
# 1 108.5212 55.8127 39.0473 0.0000 0.0000 0.0000
# 2 55.8127 94.4133 44.5906 0.0000 0.0000 0.0000
# 3 39.0473 44.5906 111.2597 0.0000 0.0000 0.0000
# 4 0.0000 0.0000 0.0000 36.8303 0.0000 0.0000
# 5 0.0000 0.0000 0.0000 0.0000 10.8327 0.0000
# 6 0.0000 0.0000 0.0000 0.0000 0.0000 13.6580
#
#
#
# Elastic Compliance Matrix: (Units=1/GPa)
#
#
# Indices 1 2 3 4 5 6 
#
# 1 0.013561 -0.007116 -0.001907 0.000000 0.000000 0.000000
# 2 -0.007116 0.016798 -0.004235 0.000000 0.000000 0.000000
# 3 -0.001907 -0.004235 0.011355 0.000000 0.000000 0.000000
# 4 0.000000 0.000000 0.000000 0.027152 0.000000 0.000000
# 5 0.000000 0.000000 0.000000 0.000000 0.092313 0.000000
# 6 0.000000 0.000000 0.000000 0.000000 0.000000 0.073217
#
#
# Mechanical properties :
#
#
# Convention : Reuss Voigt Hill
#
# Bulk Modulus (GPa) = 65.80054 65.89949 65.85002
# Shear Modulus (GPa) = 18.79858 23.91379 21.35619
#
# Velocity S-wave (km/s) = 3.11493 3.51325 3.32007
# Velocity P-wave (km/s) = 6.84832 7.10428 6.97748
#
# Compressibility (1/GPa) = 0.01519744
#
# Stress axis : x y z
#
# Youngs Moduli (GPa) = 73.74273 59.52968 88.06871
#
# Poissons Ratio (x) = 0.42359 0.16798
# Poissons Ratio (y) = 0.52472 0.37299
# Poissons Ratio (z) = 0.14066 0.25212
#
# Static dielectric constant tensor:
#      x y z
#    x 3.438430 0.000000 0.000000 
#    y 0.000000 3.819560 0.000000 
#    z 0.000000 0.000000 3.794090 
# 
# 
# High freq. dielectric constant tensor:
#      x y z
#    x 1.736790 0.000000 0.000000 
#    y 0.000000 1.755140 0.000000 
#    z 0.000000 0.000000 1.778110 
# 
# From -- ./inp_files/7984.got.cif
#   From: 2010.03.12/outbox.cif.g09.slc.cpg/sg67_4_cif.got.tgz:7984.got - 2010.04.10 22:41:39.
