data_PCOD8280190
_publ_section_title
;
Structure prediction by ZEFSAII (Michael W. Deem and Ramdas Pophale) SiO2 
 PCOD8280190
Probable space group: C M M A
;
_chemical_formula_sum "Si O2"
_cell_formula_units_Z 88
_cell_length_a 21.714818
_cell_length_b 8.740720
_cell_length_c 23.937900
_cell_angle_alpha 90.000000
_cell_angle_beta 90.000000
_cell_angle_gamma 90.000000
_cell_volume 4543.488680
_symmetry_space_group_name_H-M "C M M A"
_symmetry_group_IT_number 67
_symmetry_cell_setting 'orthorhombic'
loop_
_space_group_symop_operation_xyz
x,y,z
-x,1/2-y,z
x,-y,-z
-x,1/2+y,-z
-x,-y,-z
x,1/2+y,-z
-x,y,z
x,1/2-y,z
1/2+x,1/2+y,z
1/2-x,-y,z
1/2+x,1/2-y,-z
1/2-x,y,-z
1/2-x,1/2-y,-z
1/2+x,y,-z
1/2-x,1/2+y,z
1/2+x,-y,z
loop_
_atom_site_type_symbol
_atom_site_label
_atom_site_fract_x
_atom_site_fract_y
_atom_site_fract_z
Si Si1 0.686207 0.581351 0.550524
Si Si2 0.571145 0.069828 0.128332
Si Si3 0.095559 0.921802 0.357429
Si Si4 0.928715 0.422760 0.245820
Si Si5 0.500000 0.430094 0.561557
Si Si6 0.685663 0.066890 0.938452
O O1 0.646928 0.500000 0.500000
O O2 0.694827 0.750000 0.527751
O O3 0.750000 0.500000 0.556418
O O4 0.660933 0.583242 0.613130
O O5 0.500000 0.022086 0.112063
O O6 0.579659 0.250000 0.119793
O O7 0.584019 0.027127 0.192283
O O8 0.623004 0.982279 0.092880
O O9 0.068631 0.750000 0.348054
O O10 0.105707 0.005328 0.298552
O O11 0.057238 0.017317 0.401857
O O12 0.905309 0.250000 0.234202
O O13 0.000000 0.422212 0.261910
O O14 0.500000 0.250000 0.554696
O O15 0.500000 0.500000 0.500000
O O16 0.689729 0.250000 0.939271
O O17 0.750000 0.000000 0.911882
O O18 0.679456 0.000000 0.000000
#
# Coordination Sequence:
#
# PCOD8280190 Si02
#       6
#    16  16  16  16   8  16
#     4  10  21  36  55  76  99 133 173 219 272 331
#     4  10  21  38  61  89 122 161 205 253 301 353
#     4  11  22  36  55  79 107 140 179 224 276 335
#     4  10  20  35  56  83 113 149 191 234 285 340
#     4  12  24  36  52  78 108 140 175 220 277 336
#     4  11  22  39  63  91 126 165 206 251 303 364
#
# _framework density 19.368376000000001
#
# number of rings (size 3 to 8) (size 9 to 14) (size 15 to 20)
#    0.000    1.455    0.909    6.273    0.000    6.545 
#    0.000    0.909    0.000    2.182    0.000    0.000 
#    0.000    0.000    0.000    0.000    0.000    0.000 
#
# Total GULP energy -545171.306804 kJ/mol
# GULP energy per Si atom -12390.256973 kJ/mol
# Density = 1.932429 g / cm^3
# Si number density = 19.368376 Si / 1000 Ang^3
#
#
#
# Elastic Constant Matrix: (Units=GPa)
#
#
# Indices 1 2 3 4 5 6 
#
# 1 95.2145 51.1810 53.8530 0.0000 0.0000 0.0000
# 2 51.1810 160.1804 45.2022 0.0000 0.0000 0.0000
# 3 53.8530 45.2022 101.5464 0.0000 0.0000 0.0000
# 4 0.0000 0.0000 0.0000 32.2796 0.0000 0.0000
# 5 0.0000 0.0000 0.0000 0.0000 31.9322 0.0000
# 6 0.0000 0.0000 0.0000 0.0000 0.0000 26.0392
#
#
#
# Elastic Compliance Matrix: (Units=1/GPa)
#
#
# Indices 1 2 3 4 5 6 
#
# 1 0.016295 -0.003166 -0.007233 0.000000 0.000000 0.000000
# 2 -0.003166 0.007755 -0.001773 0.000000 0.000000 0.000000
# 3 -0.007233 -0.001773 0.014473 0.000000 0.000000 0.000000
# 4 0.000000 0.000000 0.000000 0.030979 0.000000 0.000000
# 5 0.000000 0.000000 0.000000 0.000000 0.031316 0.000000
# 6 0.000000 0.000000 0.000000 0.000000 0.000000 0.038404
#
#
# Mechanical properties :
#
#
# Convention : Reuss Voigt Hill
#
# Bulk Modulus (GPa) = 70.52289 73.04597 71.78443
# Shear Modulus (GPa) = 29.71047 31.83054 30.77050
#
# Velocity S-wave (km/s) = 3.92084 4.05832 3.99017
# Velocity P-wave (km/s) = 7.54902 7.73019 7.64014
#
# Compressibility (1/GPa) = 0.01417979
#
# Stress axis : x y z
#
# Youngs Moduli (GPa) = 61.36888 128.95231 69.09585
#
# Poissons Ratio (x) = 0.40821 0.49974
# Poissons Ratio (y) = 0.19427 0.12252
# Poissons Ratio (z) = 0.44385 0.22865
#
# Static dielectric constant tensor:
#      x y z
#    x 3.796900 0.000000 0.000000 
#    y 0.000000 3.865740 0.000000 
#    z 0.000000 0.000000 7.523070 
# 
# 
# High freq. dielectric constant tensor:
#      x y z
#    x 1.741020 0.000000 0.000000 
#    y 0.000000 1.776980 0.000000 
#    z 0.000000 0.000000 1.752870 
# 
# From -- ./inp_files/39588.got.cif
#   From: 2010.03.12/outbox.cif.g09.slc.cpg/sg67_20_cif.got.tgz:39588.got - 2010.04.10 22:41:39.
