data_PCOD8280616
_publ_section_title
;
Structure prediction by ZEFSAII (Michael W. Deem and Ramdas Pophale) SiO2 
 PCOD8280616
Probable space group: C M M A
;
_chemical_formula_sum "Si O2"
_cell_formula_units_Z 96
_cell_length_a 18.881968
_cell_length_b 14.411774
_cell_length_c 18.183755
_cell_angle_alpha 90.000000
_cell_angle_beta 90.000000
_cell_angle_gamma 90.000000
_cell_volume 4948.211697
_symmetry_space_group_name_H-M "C M M A"
_symmetry_group_IT_number 67
_symmetry_cell_setting 'orthorhombic'
loop_
_space_group_symop_operation_xyz
x,y,z
-x,1/2-y,z
x,-y,-z
-x,1/2+y,-z
-x,-y,-z
x,1/2+y,-z
-x,y,z
x,1/2-y,z
1/2+x,1/2+y,z
1/2-x,-y,z
1/2+x,1/2-y,-z
1/2-x,y,-z
1/2-x,1/2-y,-z
1/2+x,y,-z
1/2-x,1/2+y,z
1/2+x,-y,z
loop_
_atom_site_type_symbol
_atom_site_label
_atom_site_fract_x
_atom_site_fract_y
_atom_site_fract_z
Si Si1 0.080899 0.987286 0.081929
Si Si2 0.921356 0.143258 0.195165
Si Si3 0.351274 0.140885 0.198552
Si Si4 0.078194 0.860158 0.349171
Si Si5 0.218017 0.360878 0.575325
Si Si6 0.787544 0.640386 0.720859
O O1 0.127027 0.911490 0.124640
O O2 0.000000 0.951572 0.079352
O O3 0.086103 0.087442 0.119932
O O4 0.111553 0.000000 0.000000
O O5 0.905141 0.250000 0.175717
O O6 0.864764 0.104177 0.254377
O O7 0.000000 0.131507 0.229374
O O8 0.356791 0.250000 0.183256
O O9 0.401926 0.110072 0.266023
O O10 0.271354 0.110425 0.219474
O O11 0.077130 0.750000 0.351776
O O12 0.137306 0.895083 0.408014
O O13 0.000000 0.900307 0.368823
O O14 0.219080 0.250000 0.572656
O O15 0.250000 0.402803 0.500000
O O16 0.268532 0.399630 0.640490
O O17 0.786743 0.750000 0.714002
#
# Coordination Sequence:
#
# PCOD8280616 Si02
#       6
#    16  16  16  16  16  16
#     4  10  21  34  49  73  99 123 158 197 237 291
#     4   9  18  34  52  67  91 129 167 201 233 272
#     4   9  17  30  49  72  98 125 155 198 245 285
#     4   8  13  22  38  61  89 123 159 189 226 282
#     4   8  13  22  38  63  96 126 151 191 241 278
#     4   8  15  29  48  69  93 125 165 199 233 285
#
# _framework density 19.400949000000001
#
# number of rings (size 3 to 8) (size 9 to 14) (size 15 to 20)
#    0.000    3.333    0.000    2.500    0.000    2.333 
#    0.000    4.167    0.000    8.000    0.000    9.333 
#    0.000   12.000    0.000    0.833    0.000    0.000 
#
# Total GULP energy -594881.825640 kJ/mol
# GULP energy per Si atom -12393.371368 kJ/mol
# Density = 1.935679 g / cm^3
# Si number density = 19.400949 Si / 1000 Ang^3
#
#
#
# Elastic Constant Matrix: (Units=GPa)
#
#
# Indices 1 2 3 4 5 6 
#
# 1 165.5768 30.2322 97.2254 0.0000 0.0000 0.0000
# 2 30.2322 36.9946 31.0828 0.0000 0.0000 0.0000
# 3 97.2254 31.0828 162.5428 0.0000 0.0000 0.0000
# 4 0.0000 0.0000 0.0000 -10.1588 0.0000 0.0000
# 5 0.0000 0.0000 0.0000 0.0000 29.7121 0.0000
# 6 0.0000 0.0000 0.0000 0.0000 0.0000 17.0639
#
#
#
# Elastic Compliance Matrix: (Units=1/GPa)
#
#
# Indices 1 2 3 4 5 6 
#
# 1 0.009703 -0.003637 -0.005108 0.000000 0.000000 0.000000
# 2 -0.003637 0.033569 -0.004244 0.000000 0.000000 0.000000
# 3 -0.005108 -0.004244 0.010019 0.000000 0.000000 0.000000
# 4 0.000000 0.000000 0.000000 -0.098437 0.000000 0.000000
# 5 0.000000 0.000000 0.000000 0.000000 0.033656 0.000000
# 6 0.000000 0.000000 0.000000 0.000000 0.000000 0.058603
#
#
# Mechanical properties :
#
#
# Convention : Reuss Voigt Hill
#
# Bulk Modulus (GPa) = 36.61312 75.79942 56.20627
# Shear Modulus (GPa) = 60.82912 21.09504 40.96208
#
# Velocity S-wave (km/s) = 5.60551 3.30103 4.59992
# Velocity P-wave (km/s) = 7.79798 7.32693 7.56612
#
# Compressibility (1/GPa) = 0.02731261
#
# Stress axis : x y z
#
# Youngs Moduli (GPa) = 103.05768 29.78943 99.80675
#
# Poissons Ratio (x) = 0.10836 0.50986
# Poissons Ratio (y) = 0.37487 0.42354
# Poissons Ratio (z) = 0.52647 0.12641
#
# Static dielectric constant tensor:
#      x y z
#    x 4.059510 0.000000 0.000000 
#    y 0.000000 3.198950 0.000000 
#    z 0.000000 0.000000 3.548080 
# 
# 
# High freq. dielectric constant tensor:
#      x y z
#    x 1.758990 0.000000 0.000000 
#    y 0.000000 1.738080 0.000000 
#    z 0.000000 0.000000 1.731240 
# 
# From -- ./inp_files/34217.got.cif
#   From: 2010.03.12/outbox.cif.g09.slc.cpg/sg67_18_cif.got.tgz:34217.got - 2010.04.10 22:41:39.
