data_PCOD8280137
_publ_section_title
;
Structure prediction by ZEFSAII (Michael W. Deem and Ramdas Pophale) SiO2 
 PCOD8280137
Probable space group: C M M A
;
_chemical_formula_sum "Si O2"
_cell_formula_units_Z 72
_cell_length_a 8.759907
_cell_length_b 31.657940
_cell_length_c 13.455021
_cell_angle_alpha 90.000000
_cell_angle_beta 90.000000
_cell_angle_gamma 90.000000
_cell_volume 3731.354634
_symmetry_space_group_name_H-M "C M M A"
_symmetry_group_IT_number 67
_symmetry_cell_setting 'orthorhombic'
loop_
_space_group_symop_operation_xyz
x,y,z
-x,1/2-y,z
x,-y,-z
-x,1/2+y,-z
-x,-y,-z
x,1/2+y,-z
-x,y,z
x,1/2-y,z
1/2+x,1/2+y,z
1/2-x,-y,z
1/2+x,1/2-y,-z
1/2-x,y,-z
1/2-x,1/2-y,-z
1/2+x,y,-z
1/2-x,1/2+y,z
1/2+x,-y,z
loop_
_atom_site_type_symbol
_atom_site_label
_atom_site_fract_x
_atom_site_fract_y
_atom_site_fract_z
Si Si1 0.825427 0.670402 0.200158
Si Si2 0.320859 0.376733 0.398310
Si Si3 0.176855 0.250000 0.107561
Si Si4 0.179008 0.081966 0.894719
Si Si5 0.181154 0.544038 0.702999
O O1 0.788745 0.657951 0.313608
O O2 0.718985 0.708836 0.170238
O O3 0.789591 0.631015 0.128607
O O4 0.000000 0.684778 0.188397
O O5 0.500000 0.385524 0.408344
O O6 0.250000 0.358681 0.500000
O O7 0.238419 0.420439 0.372700
O O8 0.000000 0.250000 0.088506
O O9 0.250000 0.250000 0.000000
O O10 0.260147 0.052749 0.814018
O O11 0.000000 0.071939 0.892778
O O12 0.250000 0.070154 0.000000
O O13 0.250000 0.500000 0.665210
O O14 0.000000 0.542391 0.702186
#
# Coordination Sequence:
#
# PCOD8280137 Si02
#       5
#    16  16   8  16  16
#     4   9  20  38  58  81 113 146 182 227 274 324
#     4  10  21  39  62  86 111 144 183 227 278 332
#     4  12  24  36  57  86 117 150 187 226 270 322
#     4  10  20  35  55  80 109 146 187 228 277 334
#     4  11  22  37  56  80 111 145 184 232 279 329
#
# _framework density 19.295943000000001
#
# number of rings (size 3 to 8) (size 9 to 14) (size 15 to 20)
#    0.000    1.778    0.000    6.333    0.000    8.000 
#    0.000    5.000    0.000    0.000    0.000    0.000 
#    0.000    0.000    0.000    0.000    0.000    0.000 
#
# Total GULP energy -446573.832223 kJ/mol
# GULP energy per Si atom -12404.828673 kJ/mol
# Density = 1.925202 g / cm^3
# Si number density = 19.295943 Si / 1000 Ang^3
#
#
#
# Elastic Constant Matrix: (Units=GPa)
#
#
# Indices 1 2 3 4 5 6 
#
# 1 155.2865 55.9314 46.3297 0.0000 0.0000 0.0000
# 2 55.9314 90.8095 25.0337 0.0000 0.0000 0.0000
# 3 46.3297 25.0337 111.1850 0.0000 0.0000 0.0000
# 4 0.0000 0.0000 0.0000 62.6720 0.0000 0.0000
# 5 0.0000 0.0000 0.0000 0.0000 37.9492 0.0000
# 6 0.0000 0.0000 0.0000 0.0000 0.0000 33.5582
#
#
#
# Elastic Compliance Matrix: (Units=1/GPa)
#
#
# Indices 1 2 3 4 5 6 
#
# 1 0.008955 -0.004784 -0.002654 0.000000 0.000000 0.000000
# 2 -0.004784 0.014296 -0.001226 0.000000 0.000000 0.000000
# 3 -0.002654 -0.001226 0.010376 0.000000 0.000000 0.000000
# 4 0.000000 0.000000 0.000000 0.015956 0.000000 0.000000
# 5 0.000000 0.000000 0.000000 0.000000 0.026351 0.000000
# 6 0.000000 0.000000 0.000000 0.000000 0.000000 0.029799
#
#
# Mechanical properties :
#
#
# Convention : Reuss Voigt Hill
#
# Bulk Modulus (GPa) = 61.34989 67.98561 64.66775
# Shear Modulus (GPa) = 38.91265 42.16830 40.54047
#
# Velocity S-wave (km/s) = 4.49555 4.67984 4.58862
# Velocity P-wave (km/s) = 7.66876 8.03186 7.85241
#
# Compressibility (1/GPa) = 0.01629995
#
# Stress axis : x y z
#
# Youngs Moduli (GPa) = 111.67497 69.94858 96.37670
#
# Poissons Ratio (x) = 0.33461 0.25581
# Poissons Ratio (y) = 0.53421 0.11812
# Poissons Ratio (z) = 0.29641 0.08573
#
# Static dielectric constant tensor:
#      x y z
#    x 3.593800 0.000000 0.000000 
#    y 0.000000 3.421100 0.000000 
#    z 0.000000 0.000000 3.448230 
# 
# 
# High freq. dielectric constant tensor:
#      x y z
#    x 1.764610 0.000000 0.000000 
#    y 0.000000 1.741590 0.000000 
#    z 0.000000 0.000000 1.756340 
# 
# From -- ./inp_files/25094.got.cif
#   From: 2010.03.12/outbox.cif.g09.slc.cpg/sg67_13_cif.got.tgz:25094.got - 2010.04.10 22:41:39.
