data_PCOD8280235
_publ_section_title
;
Structure prediction by ZEFSAII (Michael W. Deem and Ramdas Pophale) SiO2 
 PCOD8280235
Probable space group: C M M A
;
_chemical_formula_sum "Si O2"
_cell_formula_units_Z 92
_cell_length_a 23.223246
_cell_length_b 8.830002
_cell_length_c 24.592006
_cell_angle_alpha 90.000000
_cell_angle_beta 90.000000
_cell_angle_gamma 90.000000
_cell_volume 5042.868932
_symmetry_space_group_name_H-M "C M M A"
_symmetry_group_IT_number 67
_symmetry_cell_setting 'orthorhombic'
loop_
_space_group_symop_operation_xyz
x,y,z
-x,1/2-y,z
x,-y,-z
-x,1/2+y,-z
-x,-y,-z
x,1/2+y,-z
-x,y,z
x,1/2-y,z
1/2+x,1/2+y,z
1/2-x,-y,z
1/2+x,1/2-y,-z
1/2-x,y,-z
1/2-x,1/2-y,-z
1/2+x,y,-z
1/2-x,1/2+y,z
1/2+x,-y,z
loop_
_atom_site_type_symbol
_atom_site_label
_atom_site_fract_x
_atom_site_fract_y
_atom_site_fract_z
Si Si1 0.250000 0.500000 0.500000
Si Si2 0.136488 0.417983 0.551523
Si Si3 0.434433 0.427566 0.642882
Si Si4 0.601246 0.570405 0.871707
Si Si5 0.933233 0.420018 0.753509
Si Si6 0.687311 0.431922 0.946300
Si Si7 0.500000 0.429866 0.940445
O O1 0.206498 0.410842 0.541268
O O2 0.106741 0.500000 0.500000
O O3 0.112081 0.250000 0.555498
O O4 0.115414 0.503146 0.605208
O O5 0.500000 0.486769 0.630121
O O6 0.432160 0.250000 0.635226
O O7 0.417179 0.468568 0.704406
O O8 0.594630 0.750000 0.880398
O O9 0.599205 0.528701 0.807987
O O10 0.661372 0.503431 0.891774
O O11 0.554712 0.482527 0.906826
O O12 0.915587 0.250000 0.736081
O O13 0.000000 0.427885 0.768182
O O14 0.686078 0.250000 0.946320
O O15 0.750000 0.500000 0.948182
O O16 0.654657 0.500000 0.000000
O O17 0.500000 0.250000 0.945972
O O18 0.500000 0.500000 0.000000
#
# Coordination Sequence:
#
# PCOD8280235 Si02
#       7
#     4  16  16  16  16  16   8
#     4   8  22  36  60  84 110 148 186 230 272 332
#     4  10  20  35  58  83 112 147 184 227 274 327
#     4  10  21  35  54  83 116 148 185 228 271 324
#     4  11  21  37  58  82 111 145 183 229 279 337
#     4   9  18  35  57  80 109 148 186 223 272 328
#     4  11  22  38  58  81 106 140 180 226 277 333
#     4  12  24  36  52  80 116 150 185 230 281 340
#
# _framework density 18.243582
#
# number of rings (size 3 to 8) (size 9 to 14) (size 15 to 20)
#    0.522    1.217    0.870    5.217    0.000    2.783 
#    0.000    0.000    1.913    0.000    0.000    0.000 
#    0.000    0.000    0.000    0.000    0.000    0.000 
#
# Total GULP energy -569997.217286 kJ/mol
# GULP energy per Si atom -12391.243854 kJ/mol
# Density = 1.820206 g / cm^3
# Si number density = 18.243582 Si / 1000 Ang^3
#
#
#
# Elastic Constant Matrix: (Units=GPa)
#
#
# Indices 1 2 3 4 5 6 
#
# 1 67.3315 30.9805 56.7723 0.0000 0.0000 0.0000
# 2 30.9805 127.5102 63.9575 0.0000 0.0000 0.0000
# 3 56.7723 63.9575 134.8791 0.0000 0.0000 0.0000
# 4 0.0000 0.0000 0.0000 33.6678 0.0000 0.0000
# 5 0.0000 0.0000 0.0000 0.0000 -73.2353 0.0000
# 6 0.0000 0.0000 0.0000 0.0000 0.0000 81.4636
#
#
#
# Elastic Compliance Matrix: (Units=1/GPa)
#
#
# Indices 1 2 3 4 5 6 
#
# 1 0.023113 -0.000966 -0.009271 0.000000 0.000000 0.000000
# 2 -0.000966 0.010330 -0.004492 0.000000 0.000000 0.000000
# 3 -0.009271 -0.004492 0.013446 0.000000 0.000000 0.000000
# 4 0.000000 0.000000 0.000000 0.029702 0.000000 0.000000
# 5 0.000000 0.000000 0.000000 0.000000 -0.013655 0.000000
# 6 0.000000 0.000000 0.000000 0.000000 0.000000 0.012275
#
#
# Mechanical properties :
#
#
# Convention : Reuss Voigt Hill
#
# Bulk Modulus (GPa) = 57.36278 70.34907 63.85592
# Shear Modulus (GPa) = 45.25713 20.24658 32.75186
#
# Velocity S-wave (km/s) = 4.98608 3.33497 4.24164
# Velocity P-wave (km/s) = 8.04108 7.31260 7.68547
#
# Compressibility (1/GPa) = 0.01743291
#
# Stress axis : x y z
#
# Youngs Moduli (GPa) = 43.26568 96.80304 74.37020
#
# Poissons Ratio (x) = 0.09347 0.68946
# Poissons Ratio (y) = 0.04178 0.33407
# Poissons Ratio (z) = 0.40110 0.43484
#
# Static dielectric constant tensor:
#      x y z
#    x 3.175490 0.000000 0.000000 
#    y 0.000000 3.418080 0.000000 
#    z 0.000000 0.000000 3.463900 
# 
# 
# High freq. dielectric constant tensor:
#      x y z
#    x 1.686340 0.000000 0.000000 
#    y 0.000000 1.718170 0.000000 
#    z 0.000000 0.000000 1.709530 
# 
# From -- ./inp_files/39926.got.cif
#   From: 2010.03.12/outbox.cif.g09.slc.cpg/sg67_20_cif.got.tgz:39926.got - 2010.04.10 22:41:39.
