data_PCOD8280093
_publ_section_title
;
Structure prediction by ZEFSAII (Michael W. Deem and Ramdas Pophale) SiO2 
 PCOD8280093
Probable space group: C M M A
;
_chemical_formula_sum "Si O2"
_cell_formula_units_Z 96
_cell_length_a 8.607153
_cell_length_b 19.520339
_cell_length_c 30.403132
_cell_angle_alpha 90.000000
_cell_angle_beta 90.000000
_cell_angle_gamma 90.000000
_cell_volume 5108.168371
_symmetry_space_group_name_H-M "C M M A"
_symmetry_group_IT_number 67
_symmetry_cell_setting 'orthorhombic'
loop_
_space_group_symop_operation_xyz
x,y,z
-x,1/2-y,z
x,-y,-z
-x,1/2+y,-z
-x,-y,-z
x,1/2+y,-z
-x,y,z
x,1/2-y,z
1/2+x,1/2+y,z
1/2-x,-y,z
1/2+x,1/2-y,-z
1/2-x,y,-z
1/2-x,1/2-y,-z
1/2+x,y,-z
1/2-x,1/2+y,z
1/2+x,-y,z
loop_
_atom_site_type_symbol
_atom_site_label
_atom_site_fract_x
_atom_site_fract_y
_atom_site_fract_z
Si Si1 0.183703 0.172597 0.045651
Si Si2 0.319787 0.330069 0.712485
Si Si3 0.183583 0.427520 0.452455
Si Si4 0.682613 0.573208 0.784389
Si Si5 0.315647 0.926347 0.122101
Si Si6 0.320269 0.330221 0.380611
O O1 0.243942 0.250000 0.053120
O O2 0.245901 0.127164 0.085933
O O3 0.000000 0.169878 0.043284
O O4 0.250000 0.142867 0.000000
O O5 0.500000 0.349517 0.716285
O O6 0.290950 0.250000 0.720449
O O7 0.222000 0.370152 0.748539
O O8 0.258192 0.352552 0.664945
O O9 0.250000 0.500000 0.435728
O O10 0.250000 0.408304 0.500000
O O11 0.232097 0.368289 0.419395
O O12 0.000000 0.432767 0.455569
O O13 0.500000 0.565703 0.789891
O O14 0.750000 0.500000 0.769573
O O15 0.754315 0.597567 0.830551
O O16 0.500000 0.929453 0.123737
O O17 0.250000 0.000000 0.108946
O O18 0.500000 0.351566 0.379584
O O19 0.298931 0.250000 0.389081
#
# Coordination Sequence:
#
# PCOD8280093 Si02
#       6
#    16  16  16  16  16  16
#     4   9  19  35  54  76 103 136 174 216 262 313
#     4  10  21  38  59  83 112 145 181 223 272 324
#     4  11  22  38  59  83 113 147 186 229 276 327
#     4  11  22  37  57  81 110 143 182 225 271 322
#     4  10  20  35  54  77 106 139 176 218 266 318
#     4  10  21  38  59  84 114 146 183 227 273 323
#
# _framework density 18.793430000000001
#
# number of rings (size 3 to 8) (size 9 to 14) (size 15 to 20)
#    0.000    1.833    0.000    6.000    0.000    5.333 
#    0.000    6.667    0.000    0.000    0.000    0.000 
#    0.000    0.000    0.000    0.000    0.000    0.000 
#
# Total GULP energy -595409.621559 kJ/mol
# GULP energy per Si atom -12404.367116 kJ/mol
# Density = 1.875066 g / cm^3
# Si number density = 18.793430 Si / 1000 Ang^3
#
#
#
# Elastic Constant Matrix: (Units=GPa)
#
#
# Indices 1 2 3 4 5 6 
#
# 1 99.5289 35.2860 38.3356 0.0000 0.0000 0.0000
# 2 35.2860 74.8740 72.6345 0.0000 0.0000 0.0000
# 3 38.3356 72.6345 127.8420 0.0000 0.0000 0.0000
# 4 0.0000 0.0000 0.0000 32.7977 0.0000 0.0000
# 5 0.0000 0.0000 0.0000 0.0000 36.8287 0.0000
# 6 0.0000 0.0000 0.0000 0.0000 0.0000 30.9784
#
#
#
# Elastic Compliance Matrix: (Units=1/GPa)
#
#
# Indices 1 2 3 4 5 6 
#
# 1 0.012106 -0.004865 -0.000866 0.000000 0.000000 0.000000
# 2 -0.004865 0.031711 -0.016558 0.000000 0.000000 0.000000
# 3 -0.000866 -0.016558 0.017490 0.000000 0.000000 0.000000
# 4 0.000000 0.000000 0.000000 0.030490 0.000000 0.000000
# 5 0.000000 0.000000 0.000000 0.000000 0.027153 0.000000
# 6 0.000000 0.000000 0.000000 0.000000 0.000000 0.032281
#
#
# Mechanical properties :
#
#
# Convention : Reuss Voigt Hill
#
# Bulk Modulus (GPa) = 59.77926 66.08411 62.93169
# Shear Modulus (GPa) = 24.82812 30.52023 27.67417
#
# Velocity S-wave (km/s) = 3.63865 4.03424 3.84154
# Velocity P-wave (km/s) = 7.03780 7.54585 7.29625
#
# Compressibility (1/GPa) = 0.01672821
#
# Stress axis : x y z
#
# Youngs Moduli (GPa) = 82.60595 31.53431 57.17684
#
# Poissons Ratio (x) = 0.15341 0.04952
# Poissons Ratio (y) = 0.40187 0.94675
# Poissons Ratio (z) = 0.07154 0.52216
#
# Static dielectric constant tensor:
#      x y z
#    x 3.564390 0.000000 0.000000 
#    y 0.000000 3.909180 0.000000 
#    z 0.000000 0.000000 3.548880 
# 
# 
# High freq. dielectric constant tensor:
#      x y z
#    x 1.745800 0.000000 0.000000 
#    y 0.000000 1.727410 0.000000 
#    z 0.000000 0.000000 1.738560 
# 
# From -- ./inp_files/43497.got.cif
#   From: 2010.03.12/outbox.cif.g09.slc.cpg/sg67_22_cif.got.tgz:43497.got - 2010.04.10 22:41:39.
