data_PCOD8280669
_publ_section_title
;
Structure prediction by ZEFSAII (Michael W. Deem and Ramdas Pophale) SiO2 
 PCOD8280669
Probable space group: C M M A
;
_chemical_formula_sum "Si O2"
_cell_formula_units_Z 96
_cell_length_a 20.931610
_cell_length_b 14.268013
_cell_length_c 16.427791
_cell_angle_alpha 90.000000
_cell_angle_beta 90.000000
_cell_angle_gamma 90.000000
_cell_volume 4906.200582
_symmetry_space_group_name_H-M "C M M A"
_symmetry_group_IT_number 67
_symmetry_cell_setting 'orthorhombic'
loop_
_space_group_symop_operation_xyz
x,y,z
-x,1/2-y,z
x,-y,-z
-x,1/2+y,-z
-x,-y,-z
x,1/2+y,-z
-x,y,z
x,1/2-y,z
1/2+x,1/2+y,z
1/2-x,-y,z
1/2+x,1/2-y,-z
1/2-x,y,-z
1/2-x,1/2-y,-z
1/2+x,y,-z
1/2-x,1/2+y,z
1/2+x,-y,z
loop_
_atom_site_type_symbol
_atom_site_label
_atom_site_fract_x
_atom_site_fract_y
_atom_site_fract_z
Si Si1 0.926673 0.987612 0.755766
Si Si2 0.647281 0.009846 0.908806
Si Si3 0.319149 0.638997 0.522602
Si Si4 0.834306 0.357357 0.704823
Si Si5 0.426286 0.639664 0.395708
Si Si6 0.761366 0.858250 0.142156
O O1 0.908477 0.956570 0.847546
O O2 0.907802 0.908387 0.689916
O O3 0.000000 0.010401 0.750261
O O4 0.891636 0.084799 0.742147
O O5 0.701729 0.088151 0.896069
O O6 0.674602 0.906043 0.892001
O O7 0.620339 0.000000 0.000000
O O8 0.318521 0.750000 0.516855
O O9 0.250000 0.597567 0.500000
O O10 0.326787 0.603640 0.614231
O O11 0.377207 0.601743 0.465243
O O12 0.856290 0.250000 0.704272
O O13 0.768749 0.368174 0.758667
O O14 0.500000 0.616809 0.421291
O O15 0.417451 0.750000 0.382338
O O16 0.758303 0.750000 0.115309
#
# Coordination Sequence:
#
# PCOD8280669 Si02
#       6
#    16  16  16  16  16  16
#     4  10  22  38  55  76 104 142 186 226 267 321
#     4  10  21  35  54  82 108 134 176 223 272 332
#     4   9  18  32  53  82 113 142 180 229 276 314
#     4   9  19  35  54  80 109 141 179 219 266 321
#     4   9  19  36  55  76 108 150 191 227 266 321
#     4   9  18  34  57  81 110 141 171 212 268 330
#
# _framework density 19.567077000000001
#
# number of rings (size 3 to 8) (size 9 to 14) (size 15 to 20)
#    0.000    2.667    0.000    1.000    2.333    4.000 
#    0.000    4.167    0.000    0.000    0.000    4.667 
#    0.000    0.000    0.000    0.000    0.000    0.000 
#
# Total GULP energy -594713.162171 kJ/mol
# GULP energy per Si atom -12389.857545 kJ/mol
# Density = 1.952254 g / cm^3
# Si number density = 19.567077 Si / 1000 Ang^3
#
#
#
# Elastic Constant Matrix: (Units=GPa)
#
#
# Indices 1 2 3 4 5 6 
#
# 1 79.7412 15.9672 44.8762 0.0000 0.0000 0.0000
# 2 15.9672 75.2911 24.8569 0.0000 0.0000 0.0000
# 3 44.8762 24.8569 158.9621 0.0000 0.0000 0.0000
# 4 0.0000 0.0000 0.0000 24.4293 0.0000 0.0000
# 5 0.0000 0.0000 0.0000 0.0000 27.9088 0.0000
# 6 0.0000 0.0000 0.0000 0.0000 0.0000 9.1975
#
#
#
# Elastic Compliance Matrix: (Units=1/GPa)
#
#
# Indices 1 2 3 4 5 6 
#
# 1 0.015163 -0.001901 -0.003983 0.000000 0.000000 0.000000
# 2 -0.001901 0.014243 -0.001691 0.000000 0.000000 0.000000
# 3 -0.003983 -0.001691 0.007680 0.000000 0.000000 0.000000
# 4 0.000000 0.000000 0.000000 0.040934 0.000000 0.000000
# 5 0.000000 0.000000 0.000000 0.000000 0.035831 0.000000
# 6 0.000000 0.000000 0.000000 0.000000 0.000000 0.108725
#
#
# Mechanical properties :
#
#
# Convention : Reuss Voigt Hill
#
# Bulk Modulus (GPa) = 45.58627 53.93277 49.75952
# Shear Modulus (GPa) = 20.40504 27.52673 23.96588
#
# Velocity S-wave (km/s) = 3.23278 3.75479 3.50352
# Velocity P-wave (km/s) = 6.10594 6.81328 6.46928
#
# Compressibility (1/GPa) = 0.02193643
#
# Stress axis : x y z
#
# Youngs Moduli (GPa) = 65.95056 70.20994 130.21306
#
# Poissons Ratio (x) = 0.13344 0.51869
# Poissons Ratio (y) = 0.12534 0.22014
# Poissons Ratio (z) = 0.26271 0.11870
#
# Static dielectric constant tensor:
#      x y z
#    x 3.507050 0.000000 0.000000 
#    y 0.000000 3.472610 0.000000 
#    z 0.000000 0.000000 3.921700 
# 
# 
# High freq. dielectric constant tensor:
#      x y z
#    x 1.740720 0.000000 0.000000 
#    y 0.000000 1.761080 0.000000 
#    z 0.000000 0.000000 1.770550 
# 
# From -- ./inp_files/29265.got.cif
#   From: 2010.03.12/outbox.cif.g09.slc.cpg/sg67_15_cif.got.tgz:29265.got - 2010.04.10 22:41:39.
