data_PCOD8280005
_publ_section_title
;
Structure prediction by ZEFSAII (Michael W. Deem and Ramdas Pophale) SiO2 
 PCOD8280005
Probable space group: C M M A
;
_chemical_formula_sum "Si O2"
_cell_formula_units_Z 128
_cell_length_a 26.692946
_cell_length_b 21.718935
_cell_length_c 12.259057
_cell_angle_alpha 90.000000
_cell_angle_beta 90.000000
_cell_angle_gamma 90.000000
_cell_volume 7107.094626
_symmetry_space_group_name_H-M "C M M A"
_symmetry_group_IT_number 67
_symmetry_cell_setting 'orthorhombic'
loop_
_space_group_symop_operation_xyz
x,y,z
-x,1/2-y,z
x,-y,-z
-x,1/2+y,-z
-x,-y,-z
x,1/2+y,-z
-x,y,z
x,1/2-y,z
1/2+x,1/2+y,z
1/2-x,-y,z
1/2+x,1/2-y,-z
1/2-x,y,-z
1/2-x,1/2-y,-z
1/2+x,y,-z
1/2-x,1/2+y,z
1/2+x,-y,z
loop_
_atom_site_type_symbol
_atom_site_label
_atom_site_fract_x
_atom_site_fract_y
_atom_site_fract_z
Si Si1 0.734933 0.067882 0.875739
Si Si2 0.443263 0.365770 0.225741
Si Si3 0.135119 0.679275 0.393361
Si Si4 0.622288 0.396494 0.833659
Si Si5 0.261637 0.179745 0.270816
Si Si6 0.942929 0.002043 0.876154
Si Si7 0.056960 0.819393 0.997065
Si Si8 0.654987 0.179066 0.634070
O O1 0.676009 0.078301 0.868129
O O2 0.762859 0.125844 0.819414
O O3 0.750000 0.000000 0.826508
O O4 0.750000 0.069628 0.000000
O O5 0.500000 0.356496 0.268058
O O6 0.406530 0.357988 0.327338
O O7 0.434763 0.432316 0.175710
O O8 0.430818 0.319217 0.126586
O O9 0.118515 0.750000 0.393863
O O10 0.189306 0.671169 0.341638
O O11 0.138610 0.652942 0.516232
O O12 0.588287 0.454588 0.803222
O O13 0.623637 0.355041 0.726577
O O14 0.597313 0.359628 0.933346
O O15 0.259470 0.250000 0.220564
O O16 0.214313 0.169361 0.349860
O O17 0.000000 0.980615 0.874669
O O18 0.922234 0.000000 0.000000
O O19 0.060942 0.750000 0.953935
O O20 0.000000 0.845274 0.979813
O O21 0.640530 0.250000 0.642599
#
# Coordination Sequence:
#
# PCOD8280005 Si02
#       8
#    16  16  16  16  16  16  16  16
#     4  10  24  36  51  81 119 155 184 227 285 342
#     4  10  21  35  53  81 113 144 182 232 279 330
#     4  10  20  35  61  82 105 148 188 227 279 332
#     4  11  21  35  59  79 111 150 184 230 282 333
#     4   9  19  36  59  83 109 144 191 237 273 329
#     4  10  20  35  57  81 105 144 191 228 269 332
#     4  10  20  34  55  85 117 145 183 235 285 340
#     4   9  19  38  57  83 112 141 184 230 278 330
#
# _framework density 18.010173000000002
#
# number of rings (size 3 to 8) (size 9 to 14) (size 15 to 20)
#    0.000    2.125    1.250    1.500    5.250    3.000 
#    0.000    1.875    0.000    3.750    0.000    0.000 
#    0.000    0.000    0.000    0.000    0.000    0.000 
#
# Total GULP energy -793449.482779 kJ/mol
# GULP energy per Si atom -12397.648168 kJ/mol
# Density = 1.796918 g / cm^3
# Si number density = 18.010173 Si / 1000 Ang^3
#
#
#
# Elastic Constant Matrix: (Units=GPa)
#
#
# Indices 1 2 3 4 5 6 
#
# 1 88.8324 43.8061 56.1808 0.0000 0.0000 0.0000
# 2 43.8061 90.6971 48.0902 0.0000 0.0000 0.0000
# 3 56.1808 48.0902 108.6402 0.0000 0.0000 0.0000
# 4 0.0000 0.0000 0.0000 18.7612 0.0000 0.0000
# 5 0.0000 0.0000 0.0000 0.0000 24.5765 0.0000
# 6 0.0000 0.0000 0.0000 0.0000 0.0000 30.2307
#
#
#
# Elastic Compliance Matrix: (Units=1/GPa)
#
#
# Indices 1 2 3 4 5 6 
#
# 1 0.018311 -0.004996 -0.007258 0.000000 0.000000 0.000000
# 2 -0.004996 0.015770 -0.004397 0.000000 0.000000 0.000000
# 3 -0.007258 -0.004397 0.014904 0.000000 0.000000 0.000000
# 4 0.000000 0.000000 0.000000 0.053302 0.000000 0.000000
# 5 0.000000 0.000000 0.000000 0.000000 0.040689 0.000000
# 6 0.000000 0.000000 0.000000 0.000000 0.000000 0.033079
#
#
# Mechanical properties :
#
#
# Convention : Reuss Voigt Hill
#
# Bulk Modulus (GPa) = 63.75975 64.92488 64.34232
# Shear Modulus (GPa) = 23.30089 24.05319 23.67704
#
# Velocity S-wave (km/s) = 3.60079 3.65846 3.62974
# Velocity P-wave (km/s) = 7.26406 7.34663 7.30546
#
# Compressibility (1/GPa) = 0.01568388
#
# Stress axis : x y z
#
# Youngs Moduli (GPa) = 54.61307 63.41070 67.09489
#
# Poissons Ratio (x) = 0.31678 0.48694
# Poissons Ratio (y) = 0.27283 0.29504
# Poissons Ratio (z) = 0.39636 0.27884
#
# Static dielectric constant tensor:
#      x y z
#    x 3.376990 0.000000 0.000000 
#    y 0.000000 3.592400 0.000000 
#    z 0.000000 0.000000 3.248500 
# 
# 
# High freq. dielectric constant tensor:
#      x y z
#    x 1.702490 0.000000 0.000000 
#    y 0.000000 1.705570 0.000000 
#    z 0.000000 0.000000 1.677980 
# 
# From -- ./inp_files/22344.got.cif
#   From: 2010.03.12/outbox.cif.g09.slc.cpg/sg67_12_cif.got.tgz:22344.got - 2010.04.10 22:41:39.
