data_PCOD8280383
_publ_section_title
;
Structure prediction by ZEFSAII (Michael W. Deem and Ramdas Pophale) SiO2 
 PCOD8280383
Probable space group: C M M A
;
_chemical_formula_sum "Si O2"
_cell_formula_units_Z 104
_cell_length_a 20.981669
_cell_length_b 8.849533
_cell_length_c 28.701877
_cell_angle_alpha 90.000000
_cell_angle_beta 90.000000
_cell_angle_gamma 90.000000
_cell_volume 5329.306320
_symmetry_space_group_name_H-M "C M M A"
_symmetry_group_IT_number 67
_symmetry_cell_setting 'orthorhombic'
loop_
_space_group_symop_operation_xyz
x,y,z
-x,1/2-y,z
x,-y,-z
-x,1/2+y,-z
-x,-y,-z
x,1/2+y,-z
-x,y,z
x,1/2-y,z
1/2+x,1/2+y,z
1/2-x,-y,z
1/2+x,1/2-y,-z
1/2-x,y,-z
1/2-x,1/2-y,-z
1/2+x,y,-z
1/2-x,1/2+y,z
1/2+x,-y,z
loop_
_atom_site_type_symbol
_atom_site_label
_atom_site_fract_x
_atom_site_fract_y
_atom_site_fract_z
Si Si1 0.072945 0.427657 0.549904
Si Si2 0.391015 0.427509 0.119050
Si Si3 0.316272 0.928866 0.389792
Si Si4 0.500000 0.075567 0.049099
Si Si5 0.182526 0.570807 0.955264
Si Si6 0.427519 0.073424 0.784505
Si Si7 0.314860 0.073267 0.717536
O O1 0.085825 0.500000 0.500000
O O2 0.085985 0.250000 0.546840
O O3 0.122125 0.502233 0.585449
O O4 0.000000 0.460579 0.566049
O O5 0.378181 0.250000 0.122133
O O6 0.441157 0.475214 0.080049
O O7 0.331718 0.516847 0.097798
O O8 0.412634 0.482484 0.169181
O O9 0.314268 0.750000 0.397898
O O10 0.324440 0.973951 0.335929
O O11 0.250000 0.000000 0.409095
O O12 0.500000 0.250000 0.039401
O O13 0.500000 0.000000 0.000000
O O14 0.180123 0.750000 0.958307
O O15 0.250000 0.500000 0.963948
O O16 0.141984 0.500000 0.000000
O O17 0.500000 0.038121 0.767876
O O18 0.419096 0.250000 0.794725
O O19 0.377564 0.017707 0.745282
O O20 0.306029 0.250000 0.722949
O O21 0.250000 0.000000 0.737882
#
# Coordination Sequence:
#
# PCOD8280383 Si02
#       7
#    16  16  16   8  16  16  16
#     4  10  21  37  57  84 120 160 203 250 300 357
#     4  11  22  38  56  80 110 143 180 223 271 327
#     4  10  20  36  59  86 118 155 198 249 301 356
#     4  10  22  36  54  78 106 138 176 216 263 318
#     4  11  22  38  58  82 109 142 178 219 267 321
#     4  10  21  38  59  83 113 150 192 238 288 344
#     4   9  20  38  60  86 115 150 193 241 296 354
#
# _framework density 19.514735000000002
#
# number of rings (size 3 to 8) (size 9 to 14) (size 15 to 20)
#    0.000    1.846    0.769    3.692    0.000    6.154 
#    0.000    4.615    0.000    0.000    0.000    0.000 
#    0.000    0.000    0.000    0.000    0.000    0.000 
#
# Total GULP energy -644436.141452 kJ/mol
# GULP energy per Si atom -12393.002720 kJ/mol
# Density = 1.947032 g / cm^3
# Si number density = 19.514735 Si / 1000 Ang^3
#
#
#
# Elastic Constant Matrix: (Units=GPa)
#
#
# Indices 1 2 3 4 5 6 
#
# 1 137.0765 61.2099 77.5244 0.0000 0.0000 0.0000
# 2 61.2099 100.9486 54.7346 0.0000 0.0000 0.0000
# 3 77.5244 54.7346 106.2085 0.0000 0.0000 0.0000
# 4 0.0000 0.0000 0.0000 33.2459 0.0000 0.0000
# 5 0.0000 0.0000 0.0000 0.0000 46.8067 0.0000
# 6 0.0000 0.0000 0.0000 0.0000 0.0000 125.3212
#
#
#
# Elastic Compliance Matrix: (Units=1/GPa)
#
#
# Indices 1 2 3 4 5 6 
#
# 1 0.013463 -0.003934 -0.007799 0.000000 0.000000 0.000000
# 2 -0.003934 0.014897 -0.004805 0.000000 0.000000 0.000000
# 3 -0.007799 -0.004805 0.017585 0.000000 0.000000 0.000000
# 4 0.000000 0.000000 0.000000 0.030079 0.000000 0.000000
# 5 0.000000 0.000000 0.000000 0.000000 0.021364 0.000000
# 6 0.000000 0.000000 0.000000 0.000000 0.000000 0.007979
#
#
# Mechanical properties :
#
#
# Convention : Reuss Voigt Hill
#
# Bulk Modulus (GPa) = 77.72060 81.24126 79.48093
# Shear Modulus (GPa) = 35.02983 51.12574 43.07778
#
# Velocity S-wave (km/s) = 4.24139 5.12400 4.70345
# Velocity P-wave (km/s) = 7.99368 8.75947 8.38532
#
# Compressibility (1/GPa) = 0.01286660
#
# Stress axis : x y z
#
# Youngs Moduli (GPa) = 74.27718 67.12687 56.86683
#
# Poissons Ratio (x) = 0.26411 0.44353
# Poissons Ratio (y) = 0.29224 0.27327
# Poissons Ratio (z) = 0.57932 0.32257
#
# Static dielectric constant tensor:
#      x y z
#    x 3.834370 0.000000 0.000000 
#    y 0.000000 3.543560 0.000000 
#    z 0.000000 0.000000 3.589060 
# 
# 
# High freq. dielectric constant tensor:
#      x y z
#    x 1.770230 0.000000 0.000000 
#    y 0.000000 1.764700 0.000000 
#    z 0.000000 0.000000 1.757770 
# 
# From -- ./inp_files/44677.got.cif
#   From: 2010.03.12/outbox.cif.g09.slc.cpg/sg67_23_cif.got.tgz:44677.got - 2010.04.10 22:41:39.
