data_PCOD8280192
_publ_section_title
;
Structure prediction by ZEFSAII (Michael W. Deem and Ramdas Pophale) SiO2 
 PCOD8280192
Probable space group: C M M A
;
_chemical_formula_sum "Si O2"
_cell_formula_units_Z 88
_cell_length_a 21.700101
_cell_length_b 8.522297
_cell_length_c 24.152039
_cell_angle_alpha 90.000000
_cell_angle_beta 90.000000
_cell_angle_gamma 90.000000
_cell_volume 4466.550223
_symmetry_space_group_name_H-M "C M M A"
_symmetry_group_IT_number 67
_symmetry_cell_setting 'orthorhombic'
loop_
_space_group_symop_operation_xyz
x,y,z
-x,1/2-y,z
x,-y,-z
-x,1/2+y,-z
-x,-y,-z
x,1/2+y,-z
-x,y,z
x,1/2-y,z
1/2+x,1/2+y,z
1/2-x,-y,z
1/2+x,1/2-y,-z
1/2-x,y,-z
1/2-x,1/2-y,-z
1/2+x,y,-z
1/2-x,1/2+y,z
1/2+x,-y,z
loop_
_atom_site_type_symbol
_atom_site_label
_atom_site_fract_x
_atom_site_fract_y
_atom_site_fract_z
Si Si1 0.070725 0.572260 0.754458
Si Si2 0.570764 0.432819 0.129148
Si Si3 0.606609 0.567202 0.642472
Si Si4 0.816438 0.936204 0.554368
Si Si5 0.685062 0.064909 0.938750
Si Si6 0.000000 0.935724 0.438132
O O1 0.088006 0.750000 0.770621
O O2 0.085918 0.462802 0.806615
O O3 0.108536 0.519216 0.701179
O O4 0.000000 0.555487 0.737332
O O5 0.500000 0.491551 0.115693
O O6 0.575648 0.250000 0.116173
O O7 0.623218 0.520096 0.094287
O O8 0.597695 0.750000 0.654243
O O9 0.669156 0.522648 0.612109
O O10 0.557080 0.501718 0.598222
O O11 0.822427 0.750000 0.559542
O O12 0.855290 0.000000 0.500000
O O13 0.750000 0.000000 0.541971
O O14 0.690576 0.250000 0.940236
O O15 0.750000 0.000000 0.913015
O O16 0.676685 0.000000 0.000000
O O17 0.000000 0.750000 0.441887
O O18 0.000000 0.000000 0.500000
#
# Coordination Sequence:
#
# PCOD8280192 Si02
#       6
#    16  16  16  16  16   8
#     4  10  20  35  56  83 114 151 192 235 284 340
#     4  10  21  38  61  89 122 161 205 252 300 354
#     4  11  21  36  55  79 108 144 182 225 276 335
#     4  11  22  38  57  78 102 136 177 224 278 337
#     4  11  22  39  63  91 126 165 206 250 302 361
#     4  10  22  34  50  76 108 140 175 218 273 330
#
# _framework density 19.702006999999998
#
# number of rings (size 3 to 8) (size 9 to 14) (size 15 to 20)
#    0.000    1.455    0.909    6.545    0.000    5.091 
#    0.000    0.909    0.000    0.000    0.000    0.000 
#    0.000    0.000    0.000    0.000    0.000    0.000 
#
# Total GULP energy -545277.377540 kJ/mol
# GULP energy per Si atom -12392.667671 kJ/mol
# Density = 1.965716 g / cm^3
# Si number density = 19.702007 Si / 1000 Ang^3
#
#
#
# Elastic Constant Matrix: (Units=GPa)
#
#
# Indices 1 2 3 4 5 6 
#
# 1 93.7714 30.5227 57.7330 0.0000 0.0000 0.0000
# 2 30.5227 94.2718 30.6878 0.0000 0.0000 0.0000
# 3 57.7330 30.6878 108.0254 0.0000 0.0000 0.0000
# 4 0.0000 0.0000 0.0000 36.4393 0.0000 0.0000
# 5 0.0000 0.0000 0.0000 0.0000 34.7105 0.0000
# 6 0.0000 0.0000 0.0000 0.0000 0.0000 28.3047
#
#
#
# Elastic Compliance Matrix: (Units=1/GPa)
#
#
# Indices 1 2 3 4 5 6 
#
# 1 0.016506 -0.002724 -0.008047 0.000000 0.000000 0.000000
# 2 -0.002724 0.012138 -0.001992 0.000000 0.000000 0.000000
# 3 -0.008047 -0.001992 0.014124 0.000000 0.000000 0.000000
# 4 0.000000 0.000000 0.000000 0.027443 0.000000 0.000000
# 5 0.000000 0.000000 0.000000 0.000000 0.028810 0.000000
# 6 0.000000 0.000000 0.000000 0.000000 0.000000 0.035330
#
#
# Mechanical properties :
#
#
# Convention : Reuss Voigt Hill
#
# Bulk Modulus (GPa) = 58.00530 59.32841 58.66686
# Shear Modulus (GPa) = 30.18878 31.69924 30.94401
#
# Velocity S-wave (km/s) = 3.91867 4.01550 3.96738
# Velocity P-wave (km/s) = 7.06964 7.18869 7.12942
#
# Compressibility (1/GPa) = 0.01723980
#
# Stress axis : x y z
#
# Youngs Moduli (GPa) = 60.58558 82.38435 70.80253
#
# Poissons Ratio (x) = 0.22445 0.56977
# Poissons Ratio (y) = 0.16506 0.14105
# Poissons Ratio (z) = 0.48755 0.16412
#
# Static dielectric constant tensor:
#      x y z
#    x 3.717790 0.000000 0.000000 
#    y 0.000000 3.608240 0.000000 
#    z 0.000000 0.000000 3.539620 
# 
# 
# High freq. dielectric constant tensor:
#      x y z
#    x 1.758430 0.000000 0.000000 
#    y 0.000000 1.777180 0.000000 
#    z 0.000000 0.000000 1.770630 
# 
# From -- ./inp_files/42359.got.cif
#   From: 2010.03.12/outbox.cif.g09.slc.cpg/sg67_22_cif.got.tgz:42359.got - 2010.04.10 22:41:39.
