data_PCOD8280506
_publ_section_title
;
Structure prediction by ZEFSAII (Michael W. Deem and Ramdas Pophale) SiO2 
 PCOD8280506
Probable space group: C M M A
;
_chemical_formula_sum "Si O2"
_cell_formula_units_Z 64
_cell_length_a 21.482691
_cell_length_b 14.827703
_cell_length_c 9.006013
_cell_angle_alpha 90.000000
_cell_angle_beta 90.000000
_cell_angle_gamma 90.000000
_cell_volume 2868.766031
_symmetry_space_group_name_H-M "C M M A"
_symmetry_group_IT_number 67
_symmetry_cell_setting 'orthorhombic'
loop_
_space_group_symop_operation_xyz
x,y,z
-x,1/2-y,z
x,-y,-z
-x,1/2+y,-z
-x,-y,-z
x,1/2+y,-z
-x,y,z
x,1/2-y,z
1/2+x,1/2+y,z
1/2-x,-y,z
1/2+x,1/2-y,-z
1/2-x,y,-z
1/2-x,1/2-y,-z
1/2+x,y,-z
1/2-x,1/2+y,z
1/2+x,-y,z
loop_
_atom_site_type_symbol
_atom_site_label
_atom_site_fract_x
_atom_site_fract_y
_atom_site_fract_z
Si Si1 0.274842 0.350761 0.166513
Si Si2 0.932361 0.351065 0.602974
Si Si3 0.609958 0.019477 0.165027
Si Si4 0.850724 0.852236 0.670988
O O1 0.303593 0.250000 0.189663
O O2 0.323804 0.430665 0.180607
O O3 0.222600 0.365597 0.294726
O O4 0.250000 0.357695 0.000000
O O5 0.924028 0.250000 0.664447
O O6 0.936867 0.418759 0.742026
O O7 0.872803 0.373945 0.497911
O O8 0.000000 0.359741 0.520658
O O9 0.610902 0.919014 0.227351
O O10 0.586448 0.000000 0.000000
O O11 0.870422 0.750000 0.710989
#
# Coordination Sequence:
#
# PCOD8280506 Si02
#       4
#    16  16  16  16
#     4  10  20  37  62  93 133 168 208 264 325 393
#     4  10  24  47  68  90 126 171 224 280 328 382
#     4  12  23  36  65  98 133 168 213 265 333 399
#     4  10  22  39  63  92 127 175 218 266 324 386
#
# _framework density 22.309242999999999
#
# number of rings (size 3 to 8) (size 9 to 14) (size 15 to 20)
#    0.000    1.500    2.500    2.250    0.000    4.500 
#    0.000    6.250    0.000    3.000    0.000    0.000 
#    0.000    0.000    0.000    0.000    0.000    0.000 
#
# Total GULP energy -396418.444829 kJ/mol
# GULP energy per Si atom -12388.076401 kJ/mol
# Density = 2.225847 g / cm^3
# Si number density = 22.309243 Si / 1000 Ang^3
#
#
#
# Elastic Constant Matrix: (Units=GPa)
#
#
# Indices 1 2 3 4 5 6 
#
# 1 88.5800 8.4654 38.7290 0.0000 0.0000 0.0000
# 2 8.4654 114.3446 48.2868 0.0000 0.0000 0.0000
# 3 38.7290 48.2868 115.6343 0.0000 0.0000 0.0000
# 4 0.0000 0.0000 0.0000 38.3664 0.0000 0.0000
# 5 0.0000 0.0000 0.0000 0.0000 24.5546 0.0000
# 6 0.0000 0.0000 0.0000 0.0000 0.0000 44.0865
#
#
#
# Elastic Compliance Matrix: (Units=1/GPa)
#
#
# Indices 1 2 3 4 5 6 
#
# 1 0.013337 0.001091 -0.004923 0.000000 0.000000 0.000000
# 2 0.001091 0.010707 -0.004837 0.000000 0.000000 0.000000
# 3 -0.004923 -0.004837 0.012316 0.000000 0.000000 0.000000
# 4 0.000000 0.000000 0.000000 0.026065 0.000000 0.000000
# 5 0.000000 0.000000 0.000000 0.000000 0.040725 0.000000
# 6 0.000000 0.000000 0.000000 0.000000 0.000000 0.022683
#
#
# Mechanical properties :
#
#
# Convention : Reuss Voigt Hill
#
# Bulk Modulus (GPa) = 52.56281 56.61346 54.58814
# Shear Modulus (GPa) = 33.44231 36.27333 34.85782
#
# Velocity S-wave (km/s) = 3.87594 4.03666 3.95711
# Velocity P-wave (km/s) = 6.60626 6.86716 6.73797
#
# Compressibility (1/GPa) = 0.01902486
#
# Stress axis : x y z
#
# Youngs Moduli (GPa) = 74.97790 93.39526 81.19234
#
# Poissons Ratio (x) = -0.10193 0.39969
# Poissons Ratio (y) = -0.08183 0.39270
# Poissons Ratio (z) = 0.36910 0.45172
#
# Static dielectric constant tensor:
#      x y z
#    x 3.922440 0.000000 0.000000 
#    y 0.000000 4.387650 0.000000 
#    z 0.000000 0.000000 4.050230 
# 
# 
# High freq. dielectric constant tensor:
#      x y z
#    x 1.858070 0.000000 0.000000 
#    y 0.000000 1.904430 0.000000 
#    z 0.000000 0.000000 1.865750 
# 
# From -- ./inp_files/7968.got.cif
#   From: 2010.03.12/outbox.cif.g09.slc.cpg/sg67_4_cif.got.tgz:7968.got - 2010.04.10 22:41:39.
