data_PCOD8280535
_publ_section_title
;
Structure prediction by ZEFSAII (Michael W. Deem and Ramdas Pophale) SiO2 
 PCOD8280535
Probable space group: C M M A
;
_chemical_formula_sum "Si O2"
_cell_formula_units_Z 112
_cell_length_a 15.353785
_cell_length_b 22.202773
_cell_length_c 15.552689
_cell_angle_alpha 90.000000
_cell_angle_beta 90.000000
_cell_angle_gamma 90.000000
_cell_volume 5301.858848
_symmetry_space_group_name_H-M "C M M A"
_symmetry_group_IT_number 67
_symmetry_cell_setting 'orthorhombic'
loop_
_space_group_symop_operation_xyz
x,y,z
-x,1/2-y,z
x,-y,-z
-x,1/2+y,-z
-x,-y,-z
x,1/2+y,-z
-x,y,z
x,1/2-y,z
1/2+x,1/2+y,z
1/2-x,-y,z
1/2+x,1/2-y,-z
1/2-x,y,-z
1/2-x,1/2-y,-z
1/2+x,y,-z
1/2-x,1/2+y,z
1/2+x,-y,z
loop_
_atom_site_type_symbol
_atom_site_label
_atom_site_fract_x
_atom_site_fract_y
_atom_site_fract_z
Si Si1 0.601865 0.900983 0.298118
Si Si2 0.266739 0.817330 0.405297
Si Si3 0.158912 0.423289 0.957282
Si Si4 0.597930 0.317638 0.144122
Si Si5 0.098562 0.142000 0.666702
Si Si6 0.600178 0.517276 0.590675
Si Si7 0.903507 0.037098 0.128404
O O1 0.500000 0.879292 0.302077
O O2 0.664533 0.853027 0.345060
O O3 0.634287 0.915785 0.200060
O O4 0.614930 0.963882 0.344360
O O5 0.305311 0.750000 0.414670
O O6 0.250000 0.846433 0.500000
O O7 0.170600 0.810664 0.364064
O O8 0.155785 0.355415 0.922400
O O9 0.145771 0.472814 0.881459
O O10 0.250000 0.436841 0.000000
O O11 0.090358 0.430844 0.035190
O O12 0.500000 0.313845 0.108196
O O13 0.636346 0.250000 0.154717
O O14 0.597207 0.355373 0.231227
O O15 0.136917 0.077894 0.634092
O O16 0.000000 0.156369 0.632162
O O17 0.646219 0.500000 0.500000
O O18 0.500000 0.530814 0.571962
O O19 0.000000 0.020873 0.161034
#
# Coordination Sequence:
#
# PCOD8280535 Si02
#       7
#    16  16  16  16  16  16  16
#     4  10  22  40  63  90 124 164 208 258 316 377
#     4  11  25  42  61  89 126 169 215 261 312 379
#     4  11  22  36  59  91 126 159 199 254 316 382
#     4  10  21  38  60  85 116 160 211 259 307 367
#     4  10  21  39  63  90 122 161 207 262 320 375
#     4   9  17  32  57  88 119 150 191 247 309 369
#     4  10  20  38  61  85 119 162 203 250 310 380
#
# _framework density 21.124666999999999
#
# number of rings (size 3 to 8) (size 9 to 14) (size 15 to 20)
#    0.000    1.857    0.000    4.714    2.000    6.000 
#    2.571    3.571    0.000    0.857    0.000    0.000 
#    0.000    0.000    0.000    0.000    0.000    0.000 
#
# Total GULP energy -693822.414416 kJ/mol
# GULP energy per Si atom -12389.685972 kJ/mol
# Density = 2.107659 g / cm^3
# Si number density = 21.124667 Si / 1000 Ang^3
#
#
#
# Elastic Constant Matrix: (Units=GPa)
#
#
# Indices 1 2 3 4 5 6 
#
# 1 93.3912 35.9788 35.6747 0.0000 0.0000 0.0000
# 2 35.9788 132.8857 61.9267 0.0000 0.0000 0.0000
# 3 35.6747 61.9267 114.3526 0.0000 0.0000 0.0000
# 4 0.0000 0.0000 0.0000 32.8188 0.0000 0.0000
# 5 0.0000 0.0000 0.0000 0.0000 26.4656 0.0000
# 6 0.0000 0.0000 0.0000 0.0000 0.0000 23.3891
#
#
#
# Elastic Compliance Matrix: (Units=1/GPa)
#
#
# Indices 1 2 3 4 5 6 
#
# 1 0.012584 -0.002110 -0.002783 0.000000 0.000000 0.000000
# 2 -0.002110 0.010419 -0.004984 0.000000 0.000000 0.000000
# 3 -0.002783 -0.004984 0.012312 0.000000 0.000000 0.000000
# 4 0.000000 0.000000 0.000000 0.030470 0.000000 0.000000
# 5 0.000000 0.000000 0.000000 0.000000 0.037785 0.000000
# 6 0.000000 0.000000 0.000000 0.000000 0.000000 0.042755
#
#
# Mechanical properties :
#
#
# Convention : Reuss Voigt Hill
#
# Bulk Modulus (GPa) = 64.26503 67.53220 65.89861
# Shear Modulus (GPa) = 29.19421 30.33799 29.76610
#
# Velocity S-wave (km/s) = 3.72155 3.79376 3.75783
# Velocity P-wave (km/s) = 6.99675 7.15737 7.07751
#
# Compressibility (1/GPa) = 0.01556056
#
# Stress axis : x y z
#
# Youngs Moduli (GPa) = 79.46820 95.97600 81.21988
#
# Poissons Ratio (x) = 0.20252 0.22604
# Poissons Ratio (y) = 0.16768 0.40481
# Poissons Ratio (z) = 0.22116 0.47836
#
# Static dielectric constant tensor:
#      x y z
#    x 3.778510 0.000000 0.000000 
#    y 0.000000 3.740850 0.000000 
#    z 0.000000 0.000000 4.257160 
# 
# 
# High freq. dielectric constant tensor:
#      x y z
#    x 1.815960 0.000000 0.000000 
#    y 0.000000 1.816880 0.000000 
#    z 0.000000 0.000000 1.833040 
# 
# From -- ./inp_files/27526.got.cif
#   From: 2010.03.12/outbox.cif.g09.slc.cpg/sg67_14_cif.got.tgz:27526.got - 2010.04.10 22:41:39.
