data_PCOD8280756
_publ_section_title
;
Structure prediction by ZEFSAII (Michael W. Deem and Ramdas Pophale) SiO2 
 PCOD8280756
Probable space group: C M M A
;
_chemical_formula_sum "Si O2"
_cell_formula_units_Z 84
_cell_length_a 13.839790
_cell_length_b 19.585340
_cell_length_c 15.349386
_cell_angle_alpha 90.000000
_cell_angle_beta 90.000000
_cell_angle_gamma 90.000000
_cell_volume 4160.558409
_symmetry_space_group_name_H-M "C M M A"
_symmetry_group_IT_number 67
_symmetry_cell_setting 'orthorhombic'
loop_
_space_group_symop_operation_xyz
x,y,z
-x,1/2-y,z
x,-y,-z
-x,1/2+y,-z
-x,-y,-z
x,1/2+y,-z
-x,y,z
x,1/2-y,z
1/2+x,1/2+y,z
1/2-x,-y,z
1/2+x,1/2-y,-z
1/2-x,y,-z
1/2-x,1/2-y,-z
1/2+x,y,-z
1/2-x,1/2+y,z
1/2+x,-y,z
loop_
_atom_site_type_symbol
_atom_site_label
_atom_site_fract_x
_atom_site_fract_y
_atom_site_fract_z
Si Si1 0.611077 0.425665 0.258504
Si Si2 0.783671 0.331503 0.241349
Si Si3 0.605076 0.325334 0.589986
Si Si4 0.250000 0.500000 0.000000
Si Si5 0.143882 0.565828 0.461244
Si Si6 0.612271 0.556986 0.140089
O O1 0.500000 0.403714 0.245411
O O2 0.677885 0.363788 0.223352
O O3 0.635960 0.438231 0.358387
O O4 0.634386 0.495607 0.207714
O O5 0.784068 0.250000 0.222978
O O6 0.813773 0.348935 0.341072
O O7 0.861530 0.369430 0.180537
O O8 0.500000 0.328059 0.637024
O O9 0.631145 0.250000 0.558483
O O10 0.596578 0.366663 0.500343
O O11 0.320190 0.548059 0.056195
O O12 0.088335 0.500000 0.500000
O O13 0.250000 0.564840 0.500000
O O14 0.500000 0.557222 0.112404
#
# Coordination Sequence:
#
# PCOD8280756 Si02
#       6
#    16  16  16   4  16  16
#     4  11  23  40  62  89 126 171 217 265 324 384
#     4  11  22  40  64  91 130 169 209 261 314 374
#     4  10  21  36  56  83 117 162 212 257 304 359
#     4  12  22  44  78 102 130 152 200 256 332 386
#     4  11  22  34  56  83 118 161 213 275 318 359
#     4  11  24  43  71 101 128 162 208 257 314 390
#
# _framework density 20.189596999999999
#
# number of rings (size 3 to 8) (size 9 to 14) (size 15 to 20)
#    0.000    1.143    3.810    2.571    2.667    5.714 
#    0.000    0.476    0.000    0.000    0.000    0.000 
#    0.000    0.000    0.000    0.000    0.000    0.000 
#
# Total GULP energy -520565.117264 kJ/mol
# GULP energy per Si atom -12394.407554 kJ/mol
# Density = 2.014364 g / cm^3
# Si number density = 20.189597 Si / 1000 Ang^3
#
#
#
# Elastic Constant Matrix: (Units=GPa)
#
#
# Indices 1 2 3 4 5 6 
#
# 1 130.8705 50.9043 44.8491 0.0000 0.0000 0.0000
# 2 50.9043 140.7479 55.0188 0.0000 0.0000 0.0000
# 3 44.8491 55.0188 101.9565 0.0000 0.0000 0.0000
# 4 0.0000 0.0000 0.0000 23.3327 0.0000 0.0000
# 5 0.0000 0.0000 0.0000 0.0000 -38.1707 0.0000
# 6 0.0000 0.0000 0.0000 0.0000 0.0000 26.3308
#
#
#
# Elastic Compliance Matrix: (Units=1/GPa)
#
#
# Indices 1 2 3 4 5 6 
#
# 1 0.009549 -0.002296 -0.002962 0.000000 0.000000 0.000000
# 2 -0.002296 0.009556 -0.004147 0.000000 0.000000 0.000000
# 3 -0.002962 -0.004147 0.013349 0.000000 0.000000 0.000000
# 4 0.000000 0.000000 0.000000 0.042858 0.000000 0.000000
# 5 0.000000 0.000000 0.000000 0.000000 -0.026198 0.000000
# 6 0.000000 0.000000 0.000000 0.000000 0.000000 0.037978
#
#
# Mechanical properties :
#
#
# Convention : Reuss Voigt Hill
#
# Bulk Modulus (GPa) = 73.28561 75.01325 74.14943
# Shear Modulus (GPa) = 45.26943 17.15208 31.21075
#
# Velocity S-wave (km/s) = 4.74034 2.91787 3.93604
# Velocity P-wave (km/s) = 8.14485 6.97044 7.58042
#
# Compressibility (1/GPa) = 0.01364524
#
# Stress axis : x y z
#
# Youngs Moduli (GPa) = 104.72183 104.64279 74.91393
#
# Poissons Ratio (x) = 0.24025 0.22186
# Poissons Ratio (y) = 0.24044 0.31066
# Poissons Ratio (z) = 0.31014 0.43395
#
# Static dielectric constant tensor:
#      x y z
#    x 3.948930 0.000000 0.000000 
#    y 0.000000 4.115950 0.000000 
#    z 0.000000 0.000000 3.552230 
# 
# 
# High freq. dielectric constant tensor:
#      x y z
#    x 1.811310 0.000000 0.000000 
#    y 0.000000 1.787930 0.000000 
#    z 0.000000 0.000000 1.761940 
# 
# From -- ./inp_files/27082.got.cif
#   From: 2010.03.12/outbox.cif.g09.slc.cpg/sg67_14_cif.got.tgz:27082.got - 2010.04.10 22:41:39.
