data_PCOD8280814
_publ_section_title
;
Structure prediction by ZEFSAII (Michael W. Deem and Ramdas Pophale) SiO2 
 PCOD8280814
Probable space group: C M M A
;
_chemical_formula_sum "Si O2"
_cell_formula_units_Z 80
_cell_length_a 9.663472
_cell_length_b 30.772105
_cell_length_c 14.419579
_cell_angle_alpha 90.000000
_cell_angle_beta 90.000000
_cell_angle_gamma 90.000000
_cell_volume 4287.883517
_symmetry_space_group_name_H-M "C M M A"
_symmetry_group_IT_number 67
_symmetry_cell_setting 'orthorhombic'
loop_
_space_group_symop_operation_xyz
x,y,z
-x,1/2-y,z
x,-y,-z
-x,1/2+y,-z
-x,-y,-z
x,1/2+y,-z
-x,y,z
x,1/2-y,z
1/2+x,1/2+y,z
1/2-x,-y,z
1/2+x,1/2-y,-z
1/2-x,y,-z
1/2-x,1/2-y,-z
1/2+x,y,-z
1/2-x,1/2+y,z
1/2+x,-y,z
loop_
_atom_site_type_symbol
_atom_site_label
_atom_site_fract_x
_atom_site_fract_y
_atom_site_fract_z
Si Si1 0.336337 0.798400 0.282338
Si Si2 0.343102 0.568845 0.083605
Si Si3 0.337642 0.376460 0.591826
Si Si4 0.658790 0.828614 0.085014
Si Si5 0.339643 0.539685 0.285536
O O1 0.500000 0.803747 0.277243
O O2 0.291367 0.750000 0.313963
O O3 0.280724 0.833253 0.356512
O O4 0.280070 0.807560 0.178947
O O5 0.500000 0.556505 0.059685
O O6 0.326179 0.620069 0.095590
O O7 0.295073 0.547152 0.179243
O O8 0.250000 0.550600 0.000000
O O9 0.500000 0.372759 0.567625
O O10 0.250000 0.382727 0.500000
O O11 0.306996 0.417222 0.657137
O O12 0.500000 0.814922 0.067451
O O13 0.750000 0.810827 0.000000
O O14 0.500000 0.527240 0.293577
O O15 0.250000 0.500000 0.326395
#
# Coordination Sequence:
#
# PCOD8280814 Si02
#       5
#    16  16  16  16  16
#     4   9  17  32  56  81 106 141 179 211 255 317
#     4   9  17  31  51  75 105 141 176 212 254 303
#     4  10  21  39  59  79 105 136 173 220 269 316
#     4   9  16  29  50  76 106 141 177 211 251 302
#     4  10  21  37  56  78 107 140 176 216 261 314
#
# _framework density 18.657223999999999
#
# number of rings (size 3 to 8) (size 9 to 14) (size 15 to 20)
#    0.000    2.600    2.000    0.000    0.000    3.200 
#    0.000    5.000    0.000    1.200    0.000    0.000 
#    0.000    0.000    0.000    0.000    0.000    0.000 
#
# Total GULP energy -495985.406179 kJ/mol
# GULP energy per Si atom -12399.635154 kJ/mol
# Density = 1.861476 g / cm^3
# Si number density = 18.657224 Si / 1000 Ang^3
#
#
#
# Elastic Constant Matrix: (Units=GPa)
#
#
# Indices 1 2 3 4 5 6 
#
# 1 60.7563 45.4085 59.8381 0.0000 0.0000 0.0000
# 2 45.4085 104.0666 58.5994 0.0000 0.0000 0.0000
# 3 59.8381 58.5994 119.3589 0.0000 0.0000 0.0000
# 4 0.0000 0.0000 0.0000 5.8774 0.0000 0.0000
# 5 0.0000 0.0000 0.0000 0.0000 33.9147 0.0000
# 6 0.0000 0.0000 0.0000 0.0000 0.0000 19.6746
#
#
#
# Elastic Compliance Matrix: (Units=1/GPa)
#
#
# Indices 1 2 3 4 5 6 
#
# 1 0.036570 -0.007786 -0.014511 0.000000 0.000000 0.000000
# 2 -0.007786 0.014938 -0.003431 0.000000 0.000000 0.000000
# 3 -0.014511 -0.003431 0.017337 0.000000 0.000000 0.000000
# 4 0.000000 0.000000 0.000000 0.170143 0.000000 0.000000
# 5 0.000000 0.000000 0.000000 0.000000 0.029486 0.000000
# 6 0.000000 0.000000 0.000000 0.000000 0.000000 0.050827
#
#
# Mechanical properties :
#
#
# Convention : Reuss Voigt Hill
#
# Bulk Modulus (GPa) = 57.50361 67.98598 62.74479
# Shear Modulus (GPa) = 13.27831 19.91574 16.59703
#
# Velocity S-wave (km/s) = 2.67066 3.27074 2.98581
# Velocity P-wave (km/s) = 6.35594 7.12616 6.75204
#
# Compressibility (1/GPa) = 0.01739021
#
# Stress axis : x y z
#
# Youngs Moduli (GPa) = 27.34474 66.94187 57.67922
#
# Poissons Ratio (x) = 0.52120 0.83699
# Poissons Ratio (y) = 0.21290 0.19788
# Poissons Ratio (z) = 0.39680 0.22966
#
# Static dielectric constant tensor:
#      x y z
#    x 3.207810 0.000000 0.000000 
#    y 0.000000 3.434400 0.000000 
#    z 0.000000 0.000000 3.450520 
# 
# 
# High freq. dielectric constant tensor:
#      x y z
#    x 1.693550 0.000000 0.000000 
#    y 0.000000 1.729750 0.000000 
#    z 0.000000 0.000000 1.724500 
# 
# From -- ./inp_files/16782.got.cif
#   From: 2010.03.12/outbox.cif.g09.slc.cpg/sg67_9_cif.got.tgz:16782.got - 2010.04.10 22:41:39.
