data_PCOD8280886
_publ_section_title
;
Structure prediction by ZEFSAII (Michael W. Deem and Ramdas Pophale) SiO2 
 PCOD8280886
Probable space group: C M M A
;
_chemical_formula_sum "Si O2"
_cell_formula_units_Z 68
_cell_length_a 22.054460
_cell_length_b 15.114667
_cell_length_c 9.162974
_cell_angle_alpha 90.000000
_cell_angle_beta 90.000000
_cell_angle_gamma 90.000000
_cell_volume 3054.439070
_symmetry_space_group_name_H-M "C M M A"
_symmetry_group_IT_number 67
_symmetry_cell_setting 'orthorhombic'
loop_
_space_group_symop_operation_xyz
x,y,z
-x,1/2-y,z
x,-y,-z
-x,1/2+y,-z
-x,-y,-z
x,1/2+y,-z
-x,y,z
x,1/2-y,z
1/2+x,1/2+y,z
1/2-x,-y,z
1/2+x,1/2-y,-z
1/2-x,y,-z
1/2-x,1/2-y,-z
1/2+x,y,-z
1/2-x,1/2+y,z
1/2+x,-y,z
loop_
_atom_site_type_symbol
_atom_site_label
_atom_site_fract_x
_atom_site_fract_y
_atom_site_fract_z
Si Si1 0.743217 0.351584 0.788238
Si Si2 0.880736 0.653384 0.293761
Si Si3 0.431058 0.510883 0.162455
Si Si4 0.146454 0.589740 0.587394
Si Si5 0.750000 0.500000 0.000000
O O1 0.734587 0.250000 0.845920
O O2 0.813607 0.374195 0.761885
O O3 0.708585 0.363448 0.635962
O O4 0.714914 0.427827 0.896727
O O5 0.897639 0.750000 0.235128
O O6 0.930092 0.586638 0.231502
O O7 0.884824 0.654312 0.470156
O O8 0.500000 0.544928 0.151360
O O9 0.395347 0.577566 0.269046
O O10 0.402308 0.500000 0.000000
O O11 0.160597 0.500000 0.500000
#
# Coordination Sequence:
#
# PCOD8280886 Si02
#       5
#    16  16  16  16   4
#     4  11  24  38  60  94 133 166 202 251 310 379
#     4  10  22  39  61  91 123 159 201 251 309 366
#     4  10  23  42  62  86 118 162 210 256 309 367
#     4  10  21  37  64  91 122 165 204 253 305 370
#     4  12  22  36  54  86 130 168 208 240 300 364
#
# _framework density 22.26268
#
# number of rings (size 3 to 8) (size 9 to 14) (size 15 to 20)
#    0.000    1.647    0.000    4.588    6.588    9.412 
#    0.000    1.176    0.000    4.941    0.000    0.000 
#    0.000    0.000    0.000    0.000    0.000    0.000 
#
# Total GULP energy -421228.573640 kJ/mol
# GULP energy per Si atom -12389.075695 kJ/mol
# Density = 2.221201 g / cm^3
# Si number density = 22.262680 Si / 1000 Ang^3
#
#
#
# Elastic Constant Matrix: (Units=GPa)
#
#
# Indices 1 2 3 4 5 6 
#
# 1 39.1907 9.8802 18.7197 0.0000 0.0000 0.0000
# 2 9.8802 108.2142 23.2080 0.0000 0.0000 0.0000
# 3 18.7197 23.2080 137.1204 0.0000 0.0000 0.0000
# 4 0.0000 0.0000 0.0000 15.7567 0.0000 0.0000
# 5 0.0000 0.0000 0.0000 0.0000 25.4136 0.0000
# 6 0.0000 0.0000 0.0000 0.0000 0.0000 19.5995
#
#
#
# Elastic Compliance Matrix: (Units=1/GPa)
#
#
# Indices 1 2 3 4 5 6 
#
# 1 0.027622 -0.001778 -0.003470 0.000000 0.000000 0.000000
# 2 -0.001778 0.009703 -0.001400 0.000000 0.000000 0.000000
# 3 -0.003470 -0.001400 0.008003 0.000000 0.000000 0.000000
# 4 0.000000 0.000000 0.000000 0.063465 0.000000 0.000000
# 5 0.000000 0.000000 0.000000 0.000000 0.039349 0.000000
# 6 0.000000 0.000000 0.000000 0.000000 0.000000 0.051022
#
#
# Mechanical properties :
#
#
# Convention : Reuss Voigt Hill
#
# Bulk Modulus (GPa) = 31.21686 43.12678 37.17182
# Shear Modulus (GPa) = 22.40773 27.66846 25.03810
#
# Velocity S-wave (km/s) = 3.17600 3.52919 3.35724
# Velocity P-wave (km/s) = 5.24422 6.00173 5.63571
#
# Compressibility (1/GPa) = 0.03203397
#
# Stress axis : x y z
#
# Youngs Moduli (GPa) = 36.20310 103.05647 124.94559
#
# Poissons Ratio (x) = 0.18321 0.43357
# Poissons Ratio (y) = 0.06436 0.17488
# Poissons Ratio (z) = 0.12563 0.14424
#
# Static dielectric constant tensor:
#      x y z
#    x 3.502340 0.000000 0.000000 
#    y 0.000000 4.090180 0.000000 
#    z 0.000000 0.000000 4.349220 
# 
# 
# High freq. dielectric constant tensor:
#      x y z
#    x 1.839100 0.000000 0.000000 
#    y 0.000000 1.873620 0.000000 
#    z 0.000000 0.000000 1.895970 
# 
# From -- ./inp_files/10792.got.cif
#   From: 2010.03.12/outbox.cif.g09.slc.cpg/sg67_6_cif.got.tgz:10792.got - 2010.04.10 22:41:39.
