data_PCOD8280482
_publ_section_title
;
Structure prediction by ZEFSAII (Michael W. Deem and Ramdas Pophale) SiO2 
 PCOD8280482
Probable space group: C M M A
;
_chemical_formula_sum "Si O2"
_cell_formula_units_Z 112
_cell_length_a 13.789532
_cell_length_b 28.233165
_cell_length_c 13.728740
_cell_angle_alpha 90.000000
_cell_angle_beta 90.000000
_cell_angle_gamma 90.000000
_cell_volume 5344.902330
_symmetry_space_group_name_H-M "C M M A"
_symmetry_group_IT_number 67
_symmetry_cell_setting 'orthorhombic'
loop_
_space_group_symop_operation_xyz
x,y,z
-x,1/2-y,z
x,-y,-z
-x,1/2+y,-z
-x,-y,-z
x,1/2+y,-z
-x,y,z
x,1/2-y,z
1/2+x,1/2+y,z
1/2-x,-y,z
1/2+x,1/2-y,-z
1/2-x,y,-z
1/2-x,1/2-y,-z
1/2+x,y,-z
1/2-x,1/2+y,z
1/2+x,-y,z
loop_
_atom_site_type_symbol
_atom_site_label
_atom_site_fract_x
_atom_site_fract_y
_atom_site_fract_z
Si Si1 0.225602 0.115208 0.887868
Si Si2 0.886186 0.304925 0.775522
Si Si3 0.883900 0.197452 0.556253
Si Si4 0.891592 0.116930 0.429199
Si Si5 0.109359 0.036215 0.575144
Si Si6 0.613509 0.423429 0.770762
Si Si7 0.114184 0.031532 0.789940
O O1 0.168711 0.161381 0.851417
O O2 0.330763 0.113720 0.837664
O O3 0.167269 0.066476 0.865174
O O4 0.250000 0.120122 0.000000
O O5 0.862513 0.250000 0.799103
O O6 0.851427 0.317512 0.665519
O O7 0.000000 0.314594 0.787208
O O8 0.847426 0.250000 0.532870
O O9 0.839604 0.165080 0.467740
O O10 0.000000 0.194369 0.554321
O O11 0.889914 0.087353 0.528307
O O12 0.846578 0.087294 0.339512
O O13 0.000000 0.129275 0.396186
O O14 0.156752 0.041307 0.681426
O O15 0.000000 0.016044 0.593229
O O16 0.162324 0.000000 0.500000
O O17 0.500000 0.414207 0.780577
O O18 0.638800 0.476360 0.808149
O O19 0.000000 0.041788 0.798572
#
# Coordination Sequence:
#
# PCOD8280482 Si02
#       7
#    16  16  16  16  16  16  16
#     4  12  26  41  60  85 117 155 205 266 321 362
#     4   9  19  40  69  96 120 149 193 253 316 374
#     4   8  14  27  53  88 120 152 189 230 288 363
#     4   9  15  27  50  78 113 154 191 231 286 356
#     4   9  14  25  51  83 110 145 188 235 295 359
#     4  10  22  39  57  80 118 165 203 241 291 360
#     4  10  20  37  61  87 118 155 203 252 301 361
#
# _framework density 20.954546000000001
#
# number of rings (size 3 to 8) (size 9 to 14) (size 15 to 20)
#    0.000    2.429    1.429    2.571    0.000    4.857 
#    0.000    5.000    0.000    3.000    0.000    0.000 
#    0.000    0.000    0.000    0.000    0.000    0.000 
#
# Total GULP energy -693823.623871 kJ/mol
# GULP energy per Si atom -12389.707569 kJ/mol
# Density = 2.090685 g / cm^3
# Si number density = 20.954546 Si / 1000 Ang^3
#
#
#
# Elastic Constant Matrix: (Units=GPa)
#
#
# Indices 1 2 3 4 5 6 
#
# 1 55.2807 45.2328 41.2830 0.0000 0.0000 0.0000
# 2 45.2328 133.3234 66.3167 0.0000 0.0000 0.0000
# 3 41.2830 66.3167 111.2551 0.0000 0.0000 0.0000
# 4 0.0000 0.0000 0.0000 33.9890 0.0000 0.0000
# 5 0.0000 0.0000 0.0000 0.0000 21.2734 0.0000
# 6 0.0000 0.0000 0.0000 0.0000 0.0000 23.6881
#
#
#
# Elastic Compliance Matrix: (Units=1/GPa)
#
#
# Indices 1 2 3 4 5 6 
#
# 1 0.028227 -0.006207 -0.006774 0.000000 0.000000 0.000000
# 2 -0.006207 0.012027 -0.004866 0.000000 0.000000 0.000000
# 3 -0.006774 -0.004866 0.014402 0.000000 0.000000 0.000000
# 4 0.000000 0.000000 0.000000 0.029421 0.000000 0.000000
# 5 0.000000 0.000000 0.000000 0.000000 0.047007 0.000000
# 6 0.000000 0.000000 0.000000 0.000000 0.000000 0.042215
#
#
# Mechanical properties :
#
#
# Convention : Reuss Voigt Hill
#
# Bulk Modulus (GPa) = 52.73604 67.28047 60.00826
# Shear Modulus (GPa) = 23.22182 25.59188 24.40685
#
# Velocity S-wave (km/s) = 3.33257 3.49851 3.41655
# Velocity P-wave (km/s) = 6.32689 6.96397 6.65306
#
# Compressibility (1/GPa) = 0.01896236
#
# Stress axis : x y z
#
# Youngs Moduli (GPa) = 35.42665 83.14869 69.43324
#
# Poissons Ratio (x) = 0.51611 0.47036
# Poissons Ratio (y) = 0.21990 0.33783
# Poissons Ratio (z) = 0.23999 0.40457
#
# Static dielectric constant tensor:
#      x y z
#    x 3.694540 0.000000 0.000000 
#    y 0.000000 3.914970 0.000000 
#    z 0.000000 0.000000 3.636670 
# 
# 
# High freq. dielectric constant tensor:
#      x y z
#    x 1.814200 0.000000 0.000000 
#    y 0.000000 1.819050 0.000000 
#    z 0.000000 0.000000 1.795990 
# 
# From -- ./inp_files/18599.got.cif
#   From: 2010.03.12/outbox.cif.g09.slc.cpg/sg67_10_cif.got.tgz:18599.got - 2010.04.10 22:41:39.
