data_PCOD8280924
_publ_section_title
;
Structure prediction by ZEFSAII (Michael W. Deem and Ramdas Pophale) SiO2 
 PCOD8280924
Probable space group: C M M A
;
_chemical_formula_sum "Si O2"
_cell_formula_units_Z 112
_cell_length_a 14.385197
_cell_length_b 22.751660
_cell_length_c 16.800674
_cell_angle_alpha 90.000000
_cell_angle_beta 90.000000
_cell_angle_gamma 90.000000
_cell_volume 5498.644059
_symmetry_space_group_name_H-M "C M M A"
_symmetry_group_IT_number 67
_symmetry_cell_setting 'orthorhombic'
loop_
_space_group_symop_operation_xyz
x,y,z
-x,1/2-y,z
x,-y,-z
-x,1/2+y,-z
-x,-y,-z
x,1/2+y,-z
-x,y,z
x,1/2-y,z
1/2+x,1/2+y,z
1/2-x,-y,z
1/2+x,1/2-y,-z
1/2-x,y,-z
1/2-x,1/2-y,-z
1/2+x,y,-z
1/2-x,1/2+y,z
1/2+x,-y,z
loop_
_atom_site_type_symbol
_atom_site_label
_atom_site_fract_x
_atom_site_fract_y
_atom_site_fract_z
Si Si1 0.753684 0.819944 0.730341
Si Si2 0.603540 0.000309 0.594088
Si Si3 0.610119 0.867088 0.849458
Si Si4 0.609999 0.685895 0.012555
Si Si5 0.390873 0.886994 0.159640
Si Si6 0.109075 0.991280 0.089325
Si Si7 0.250390 0.904222 0.593725
O O1 0.769911 0.750000 0.731992
O O2 0.658368 0.838221 0.773317
O O3 0.839567 0.855235 0.768287
O O4 0.747511 0.842065 0.639191
O O5 0.500000 0.000471 0.633039
O O6 0.658946 0.058834 0.619779
O O7 0.595700 0.000000 0.500000
O O8 0.659134 0.941938 0.620017
O O9 0.500000 0.864050 0.835414
O O10 0.646670 0.933265 0.866227
O O11 0.645066 0.830073 0.925125
O O12 0.500000 0.683562 0.012053
O O13 0.648069 0.750000 0.035299
O O14 0.647260 0.641018 0.077881
O O15 0.500000 0.876587 0.172434
O O16 0.366678 0.955787 0.149763
O O17 0.000000 0.983917 0.077183
O O18 0.151810 0.000000 0.000000
O O19 0.250000 0.890949 0.500000
#
# Coordination Sequence:
#
# PCOD8280924 Si02
#       7
#    16  16  16  16  16  16  16
#     4  12  27  41  55  81 116 156 205 251 289 338
#     4   8  15  33  65  98 121 141 173 227 292 355
#     4  10  21  38  59  84 115 150 190 241 297 349
#     4   9  16  30  54  77 105 151 192 222 272 340
#     4  10  21  38  59  84 115 150 190 241 297 349
#     4   9  16  33  60  86 114 149 186 231 291 351
#     4   9  20  39  62  89 121 155 193 238 291 355
#
# _framework density 20.368658
#
# number of rings (size 3 to 8) (size 9 to 14) (size 15 to 20)
#    0.000    2.429    1.429    1.714    0.000    6.571 
#    0.000    3.571    0.000    0.000    0.000    6.000 
#    0.000    0.000    0.000    0.000    0.000    0.000 
#
# Total GULP energy -694128.445149 kJ/mol
# GULP energy per Si atom -12395.150806 kJ/mol
# Density = 2.032230 g / cm^3
# Si number density = 20.368658 Si / 1000 Ang^3
#
#
#
# Elastic Constant Matrix: (Units=GPa)
#
#
# Indices 1 2 3 4 5 6 
#
# 1 84.5558 8.8921 14.3587 0.0000 0.0000 0.0000
# 2 8.8921 121.4836 38.1873 0.0000 0.0000 0.0000
# 3 14.3587 38.1873 81.4331 0.0000 0.0000 0.0000
# 4 0.0000 0.0000 0.0000 33.9709 0.0000 0.0000
# 5 0.0000 0.0000 0.0000 0.0000 21.9857 0.0000
# 6 0.0000 0.0000 0.0000 0.0000 0.0000 17.1352
#
#
#
# Elastic Compliance Matrix: (Units=1/GPa)
#
#
# Indices 1 2 3 4 5 6 
#
# 1 0.012198 -0.000254 -0.002032 0.000000 0.000000 0.000000
# 2 -0.000254 0.009660 -0.004485 0.000000 0.000000 0.000000
# 3 -0.002032 -0.004485 0.014742 0.000000 0.000000 0.000000
# 4 0.000000 0.000000 0.000000 0.029437 0.000000 0.000000
# 5 0.000000 0.000000 0.000000 0.000000 0.045484 0.000000
# 6 0.000000 0.000000 0.000000 0.000000 0.000000 0.058359
#
#
# Mechanical properties :
#
#
# Convention : Reuss Voigt Hill
#
# Bulk Modulus (GPa) = 43.36936 45.59429 44.48182
# Shear Modulus (GPa) = 26.16320 29.68734 27.92527
#
# Velocity S-wave (km/s) = 3.58786 3.82186 3.70671
# Velocity P-wave (km/s) = 6.20500 6.47369 6.34077
#
# Compressibility (1/GPa) = 0.02305776
#
# Stress axis : x y z
#
# Youngs Moduli (GPa) = 81.97899 103.51923 67.83562
#
# Poissons Ratio (x) = 0.02632 0.13782
# Poissons Ratio (y) = 0.02084 0.30425
# Poissons Ratio (z) = 0.16655 0.46430
#
# Static dielectric constant tensor:
#      x y z
#    x 3.858940 0.000000 0.000000 
#    y 0.000000 3.830690 0.000000 
#    z 0.000000 0.000000 3.424390 
# 
# 
# High freq. dielectric constant tensor:
#      x y z
#    x 1.795760 0.000000 0.000000 
#    y 0.000000 1.794240 0.000000 
#    z 0.000000 0.000000 1.772360 
# 
# From -- ./inp_files/27470.got.cif
#   From: 2010.03.12/outbox.cif.g09.slc.cpg/sg67_14_cif.got.tgz:27470.got - 2010.04.10 22:41:39.
