data_PCOD8280425
_publ_section_title
;
Structure prediction by ZEFSAII (Michael W. Deem and Ramdas Pophale) SiO2 
 PCOD8280425
Probable space group: C M M A
;
_chemical_formula_sum "Si O2"
_cell_formula_units_Z 112
_cell_length_a 17.004588
_cell_length_b 14.022301
_cell_length_c 22.630731
_cell_angle_alpha 90.000000
_cell_angle_beta 90.000000
_cell_angle_gamma 90.000000
_cell_volume 5396.149605
_symmetry_space_group_name_H-M "C M M A"
_symmetry_group_IT_number 67
_symmetry_cell_setting 'orthorhombic'
loop_
_space_group_symop_operation_xyz
x,y,z
-x,1/2-y,z
x,-y,-z
-x,1/2+y,-z
-x,-y,-z
x,1/2+y,-z
-x,y,z
x,1/2-y,z
1/2+x,1/2+y,z
1/2-x,-y,z
1/2+x,1/2-y,-z
1/2-x,y,-z
1/2-x,1/2-y,-z
1/2+x,y,-z
1/2-x,1/2+y,z
1/2+x,-y,z
loop_
_atom_site_type_symbol
_atom_site_label
_atom_site_fract_x
_atom_site_fract_y
_atom_site_fract_z
Si Si1 0.164482 0.389742 0.012526
Si Si2 0.659307 0.027642 0.414485
Si Si3 0.091507 0.140274 0.478372
Si Si4 0.160733 0.476222 0.803616
Si Si5 0.407068 0.361177 0.304233
Si Si6 0.088549 0.643493 0.863197
Si Si7 0.087628 0.145282 0.897019
O O1 0.142377 0.367108 0.079402
O O2 0.164582 0.500000 0.000000
O O3 0.250000 0.345117 0.000000
O O4 0.102982 0.343895 0.966863
O O5 0.642917 0.102709 0.466864
O O6 0.636092 0.078508 0.354292
O O7 0.750000 0.000000 0.413457
O O8 0.609954 0.929123 0.422918
O O9 0.114213 0.250000 0.463620
O O10 0.000000 0.132838 0.495390
O O11 0.250000 0.500000 0.787241
O O12 0.119865 0.406753 0.757090
O O13 0.116078 0.576791 0.809158
O O14 0.152460 0.423294 0.866978
O O15 0.500000 0.371206 0.311890
O O16 0.381934 0.250000 0.307075
O O17 0.095541 0.750000 0.838070
O O18 0.000000 0.617974 0.881681
O O19 0.092440 0.250000 0.867929
O O20 0.000000 0.102864 0.886889
#
# Coordination Sequence:
#
# PCOD8280425 Si02
#       7
#    16  16  16  16  16  16  16
#     4  11  22  36  57  88 119 153 190 240 299 357
#     4  11  22  37  60  94 132 169 209 260 311 361
#     4  10  20  36  61  93 132 178 221 259 302 355
#     4  12  25  42  63  89 118 150 194 247 305 358
#     4  11  24  44  69  92 118 158 206 256 307 361
#     4  11  24  41  61  85 116 156 195 234 293 367
#     4  11  23  39  62  89 116 151 196 245 296 354
#
# _framework density 20.75554
#
# number of rings (size 3 to 8) (size 9 to 14) (size 15 to 20)
#    0.000    1.000    1.429    6.857    0.000    9.143 
#    0.000    0.714    0.000    2.571    0.000    0.000 
#    0.000    0.000    0.000    0.000    0.000    0.000 
#
# Total GULP energy -694405.695125 kJ/mol
# GULP energy per Si atom -12400.101699 kJ/mol
# Density = 2.070830 g / cm^3
# Si number density = 20.755540 Si / 1000 Ang^3
#
#
#
# Elastic Constant Matrix: (Units=GPa)
#
#
# Indices 1 2 3 4 5 6 
#
# 1 128.2926 54.4394 32.0469 0.0000 0.0000 0.0000
# 2 54.4394 162.9135 49.9610 0.0000 0.0000 0.0000
# 3 32.0469 49.9610 86.5647 0.0000 0.0000 0.0000
# 4 0.0000 0.0000 0.0000 29.3356 0.0000 0.0000
# 5 0.0000 0.0000 0.0000 0.0000 24.9858 0.0000
# 6 0.0000 0.0000 0.0000 0.0000 0.0000 8.3066
#
#
#
# Elastic Compliance Matrix: (Units=1/GPa)
#
#
# Indices 1 2 3 4 5 6 
#
# 1 0.009364 -0.002510 -0.002018 0.000000 0.000000 0.000000
# 2 -0.002510 0.008131 -0.003764 0.000000 0.000000 0.000000
# 3 -0.002018 -0.003764 0.014471 0.000000 0.000000 0.000000
# 4 0.000000 0.000000 0.000000 0.034088 0.000000 0.000000
# 5 0.000000 0.000000 0.000000 0.000000 0.040023 0.000000
# 6 0.000000 0.000000 0.000000 0.000000 0.000000 0.120386
#
#
# Mechanical properties :
#
#
# Convention : Reuss Voigt Hill
#
# Bulk Modulus (GPa) = 65.00671 72.29614 68.65143
# Shear Modulus (GPa) = 20.14712 28.61383 24.38048
#
# Velocity S-wave (km/s) = 3.11896 3.71699 3.43103
# Velocity P-wave (km/s) = 6.66024 7.30269 6.98885
#
# Compressibility (1/GPa) = 0.01538303
#
# Stress axis : x y z
#
# Youngs Moduli (GPa) = 106.79291 122.98208 69.10248
#
# Poissons Ratio (x) = 0.30872 0.13943
# Poissons Ratio (y) = 0.26808 0.26008
# Poissons Ratio (z) = 0.21549 0.46286
#
# Static dielectric constant tensor:
#      x y z
#    x 3.898840 0.000000 0.000000 
#    y 0.000000 3.710880 0.000000 
#    z 0.000000 0.000000 3.636890 
# 
# 
# High freq. dielectric constant tensor:
#      x y z
#    x 1.820070 0.000000 0.000000 
#    y 0.000000 1.836280 0.000000 
#    z 0.000000 0.000000 1.787450 
# 
# From -- ./inp_files/41956.got.cif
#   From: 2010.03.12/outbox.cif.g09.slc.cpg/sg67_21_cif.got.tgz:41956.got - 2010.04.10 22:41:39.
