data_PCOD8280691
_publ_section_title
;
Structure prediction by ZEFSAII (Michael W. Deem and Ramdas Pophale) SiO2 
 PCOD8280691
Probable space group: C M M A
;
_chemical_formula_sum "Si O2"
_cell_formula_units_Z 88
_cell_length_a 8.840583
_cell_length_b 16.486270
_cell_length_c 29.815567
_cell_angle_alpha 90.000000
_cell_angle_beta 90.000000
_cell_angle_gamma 90.000000
_cell_volume 4345.566364
_symmetry_space_group_name_H-M "C M M A"
_symmetry_group_IT_number 67
_symmetry_cell_setting 'orthorhombic'
loop_
_space_group_symop_operation_xyz
x,y,z
-x,1/2-y,z
x,-y,-z
-x,1/2+y,-z
-x,-y,-z
x,1/2+y,-z
-x,y,z
x,1/2-y,z
1/2+x,1/2+y,z
1/2-x,-y,z
1/2+x,1/2-y,-z
1/2-x,y,-z
1/2-x,1/2-y,-z
1/2+x,y,-z
1/2-x,1/2+y,z
1/2+x,-y,z
loop_
_atom_site_type_symbol
_atom_site_label
_atom_site_fract_x
_atom_site_fract_y
_atom_site_fract_z
Si Si1 0.319122 0.412005 0.094631
Si Si2 0.680453 0.414823 0.633101
Si Si3 0.823878 0.582456 0.197500
Si Si4 0.832269 0.342244 0.276095
Si Si5 0.834201 0.844655 0.542500
Si Si6 0.317162 0.750000 0.049208
O O1 0.500000 0.412865 0.085832
O O2 0.250000 0.500000 0.078705
O O3 0.277165 0.398237 0.146561
O O4 0.243319 0.333993 0.071044
O O5 0.500000 0.414418 0.636593
O O6 0.750000 0.500000 0.621846
O O7 0.745309 0.385737 0.681182
O O8 0.739557 0.360315 0.591407
O O9 0.750000 0.500000 0.214817
O O10 0.767346 0.651666 0.231072
O O11 0.000000 0.573011 0.201346
O O12 0.843609 0.250000 0.290379
O O13 0.000000 0.377136 0.265927
O O14 0.843430 0.750000 0.534290
O O15 0.750000 0.885247 0.500000
O O16 0.000000 0.884405 0.542808
O O17 0.500000 0.750000 0.049720
O O18 0.250000 0.750000 0.000000
#
# Coordination Sequence:
#
# PCOD8280691 Si02
#       6
#    16  16  16  16  16   8
#     4  10  22  42  66  95 131 171 215 265 320 378
#     4  10  21  36  53  74 104 140 178 222 274 329
#     4  10  21  37  59  86 119 155 194 241 293 348
#     4  10  21  36  55  80 110 147 189 232 281 342
#     4   9  18  34  55  76  99 130 169 216 269 327
#     4  12  26  44  68  98 132 172 218 268 321 378
#
# _framework density 20.250523999999999
#
# number of rings (size 3 to 8) (size 9 to 14) (size 15 to 20)
#    0.000    2.000    0.000    3.000    1.273    8.364 
#    0.000    3.636    0.000    3.273    0.000    0.000 
#    0.000    0.000    0.000    0.000    0.000    0.000 
#
# Total GULP energy -545253.732763 kJ/mol
# GULP energy per Si atom -12392.130290 kJ/mol
# Density = 2.020443 g / cm^3
# Si number density = 20.250524 Si / 1000 Ang^3
#
#
#
# Elastic Constant Matrix: (Units=GPa)
#
#
# Indices 1 2 3 4 5 6 
#
# 1 71.3908 39.8936 52.3419 0.0000 0.0000 0.0000
# 2 39.8936 94.3381 52.4220 0.0000 0.0000 0.0000
# 3 52.3419 52.4220 141.8223 0.0000 0.0000 0.0000
# 4 0.0000 0.0000 0.0000 30.6507 0.0000 0.0000
# 5 0.0000 0.0000 0.0000 0.0000 31.9758 0.0000
# 6 0.0000 0.0000 0.0000 0.0000 0.0000 30.2314
#
#
#
# Elastic Compliance Matrix: (Units=1/GPa)
#
#
# Indices 1 2 3 4 5 6 
#
# 1 0.021532 -0.005902 -0.005765 0.000000 0.000000 0.000000
# 2 -0.005902 0.014958 -0.003351 0.000000 0.000000 0.000000
# 3 -0.005765 -0.003351 0.010417 0.000000 0.000000 0.000000
# 4 0.000000 0.000000 0.000000 0.032626 0.000000 0.000000
# 5 0.000000 0.000000 0.000000 0.000000 0.031274 0.000000
# 6 0.000000 0.000000 0.000000 0.000000 0.000000 0.033078
#
#
# Mechanical properties :
#
#
# Convention : Reuss Voigt Hill
#
# Bulk Modulus (GPa) = 59.27059 66.31845 62.79452
# Shear Modulus (GPa) = 27.84815 29.43116 28.63965
#
# Velocity S-wave (km/s) = 3.71237 3.81642 3.76475
# Velocity P-wave (km/s) = 6.90708 7.22774 7.06923
#
# Compressibility (1/GPa) = 0.01687177
#
# Stress axis : x y z
#
# Youngs Moduli (GPa) = 46.44155 66.85436 95.99304
#
# Poissons Ratio (x) = 0.39457 0.55344
# Poissons Ratio (y) = 0.27409 0.32165
# Poissons Ratio (z) = 0.26775 0.22401
#
# Static dielectric constant tensor:
#      x y z
#    x 3.805410 0.000000 0.000000 
#    y 0.000000 15.107300 0.000000 
#    z 0.000000 0.000000 3.953110 
# 
# 
# High freq. dielectric constant tensor:
#      x y z
#    x 1.783530 0.000000 0.000000 
#    y 0.000000 1.786690 0.000000 
#    z 0.000000 0.000000 1.806120 
# 
# From -- ./inp_files/45191.got.cif
#   From: 2010.03.12/outbox.cif.g09.slc.cpg/sg67_23_cif.got.tgz:45191.got - 2010.04.10 22:41:39.
