data_PCOD8280781
_publ_section_title
;
Structure prediction by ZEFSAII (Michael W. Deem and Ramdas Pophale) SiO2 
 PCOD8280781
Probable space group: C M M A
;
_chemical_formula_sum "Si O2"
_cell_formula_units_Z 96
_cell_length_a 14.460990
_cell_length_b 13.941745
_cell_length_c 22.339613
_cell_angle_alpha 90.000000
_cell_angle_beta 90.000000
_cell_angle_gamma 90.000000
_cell_volume 4503.921435
_symmetry_space_group_name_H-M "C M M A"
_symmetry_group_IT_number 67
_symmetry_cell_setting 'orthorhombic'
loop_
_space_group_symop_operation_xyz
x,y,z
-x,1/2-y,z
x,-y,-z
-x,1/2+y,-z
-x,-y,-z
x,1/2+y,-z
-x,y,z
x,1/2-y,z
1/2+x,1/2+y,z
1/2-x,-y,z
1/2+x,1/2-y,-z
1/2-x,y,-z
1/2-x,1/2-y,-z
1/2+x,y,-z
1/2-x,1/2+y,z
1/2+x,-y,z
loop_
_atom_site_type_symbol
_atom_site_label
_atom_site_fract_x
_atom_site_fract_y
_atom_site_fract_z
Si Si1 0.272945 0.863327 0.726659
Si Si2 0.103074 0.363986 0.483482
Si Si3 0.103349 0.525312 0.773424
Si Si4 0.726444 0.363206 0.409325
Si Si5 0.649187 0.485377 0.901962
Si Si6 0.894760 0.356418 0.992560
O O1 0.286424 0.750000 0.736545
O O2 0.350698 0.920251 0.764035
O O3 0.288993 0.896806 0.658304
O O4 0.168740 0.892297 0.745617
O O5 0.098350 0.250000 0.480714
O O6 0.174692 0.403729 0.433282
O O7 0.141939 0.397837 0.548389
O O8 0.000000 0.407155 0.473818
O O9 0.088456 0.542697 0.844678
O O10 0.000000 0.530415 0.744882
O O11 0.732517 0.250000 0.412549
O O12 0.750000 0.500000 0.874465
O O13 0.611071 0.581842 0.932316
O O14 0.660179 0.402369 0.951978
O O15 0.856108 0.250000 0.979776
O O16 0.000000 0.353707 0.014093
#
# Coordination Sequence:
#
# PCOD8280781 Si02
#       6
#    16  16  16  16  16  16
#     4  10  22  41  62  88 120 159 208 256 304 358
#     4   8  13  23  44  77 113 147 184 233 297 360
#     4  11  24  43  63  87 121 163 208 255 304 356
#     4   8  15  28  48  77 114 149 188 242 296 353
#     4  11  21  39  60  82 119 158 194 242 296 352
#     4  10  21  36  59  91 120 150 191 239 294 356
#
# _framework density 21.314758000000001
#
# number of rings (size 3 to 8) (size 9 to 14) (size 15 to 20)
#    0.000    2.333    1.667    4.000    0.000    4.667 
#    0.000    3.333    0.000    8.000    0.000    9.333 
#    0.000    0.000    0.000    0.000    0.000    0.000 
#
# Total GULP energy -594935.707416 kJ/mol
# GULP energy per Si atom -12394.493905 kJ/mol
# Density = 2.126624 g / cm^3
# Si number density = 21.314758 Si / 1000 Ang^3
#
#
#
# Elastic Constant Matrix: (Units=GPa)
#
#
# Indices 1 2 3 4 5 6 
#
# 1 113.7521 -24.3413 -1.6993 0.0000 0.0000 0.0000
# 2 -24.3413 71.4438 -8.0404 0.0000 0.0000 0.0000
# 3 -1.6993 -8.0404 96.7829 0.0000 0.0000 0.0000
# 4 0.0000 0.0000 0.0000 68.5958 0.0000 0.0000
# 5 0.0000 0.0000 0.0000 0.0000 23.1456 0.0000
# 6 0.0000 0.0000 0.0000 0.0000 0.0000 -33.4320
#
#
#
# Elastic Compliance Matrix: (Units=1/GPa)
#
#
# Indices 1 2 3 4 5 6 
#
# 1 0.009501 0.003287 0.000440 0.000000 0.000000 0.000000
# 2 0.003287 0.015266 0.001326 0.000000 0.000000 0.000000
# 3 0.000440 0.001326 0.010450 0.000000 0.000000 0.000000
# 4 0.000000 0.000000 0.000000 0.014578 0.000000 0.000000
# 5 0.000000 0.000000 0.000000 0.000000 0.043205 0.000000
# 6 0.000000 0.000000 0.000000 0.000000 0.000000 -0.029911
#
#
# Mechanical properties :
#
#
# Convention : Reuss Voigt Hill
#
# Bulk Modulus (GPa) = 22.06446 23.75742 22.91094
# Shear Modulus (GPa) = 73.43079 32.73251 53.08165
#
# Velocity S-wave (km/s) = 5.87584 3.92302 4.99578
# Velocity P-wave (km/s) = 7.51054 5.62941 6.63696
#
# Compressibility (1/GPa) = 0.04532176
#
# Stress axis : x y z
#
# Youngs Moduli (GPa) = 105.25341 65.50513 95.69116
#
# Poissons Ratio (x) = -0.21528 -0.04209
# Poissons Ratio (y) = -0.34592 -0.12688
# Poissons Ratio (z) = -0.04630 -0.08686
#
# Static dielectric constant tensor:
#      x y z
#    x 4.033500 0.000000 0.000000 
#    y 0.000000 3.721540 0.000000 
#    z 0.000000 0.000000 3.899170 
# 
# 
# High freq. dielectric constant tensor:
#      x y z
#    x 1.840250 0.000000 0.000000 
#    y 0.000000 1.827790 0.000000 
#    z 0.000000 0.000000 1.830540 
# 
# From -- ./inp_files/38371.got.cif
#   From: 2010.03.12/outbox.cif.g09.slc.cpg/sg67_20_cif.got.tgz:38371.got - 2010.04.10 22:41:39.
