data_PCOD8280826
_publ_section_title
;
Structure prediction by ZEFSAII (Michael W. Deem and Ramdas Pophale) SiO2 
 PCOD8280826
Probable space group: C M M A
;
_chemical_formula_sum "Si O2"
_cell_formula_units_Z 104
_cell_length_a 26.381190
_cell_length_b 8.753593
_cell_length_c 22.663089
_cell_angle_alpha 90.000000
_cell_angle_beta 90.000000
_cell_angle_gamma 90.000000
_cell_volume 5233.591678
_symmetry_space_group_name_H-M "C M M A"
_symmetry_group_IT_number 67
_symmetry_cell_setting 'orthorhombic'
loop_
_space_group_symop_operation_xyz
x,y,z
-x,1/2-y,z
x,-y,-z
-x,1/2+y,-z
-x,-y,-z
x,1/2+y,-z
-x,y,z
x,1/2-y,z
1/2+x,1/2+y,z
1/2-x,-y,z
1/2+x,1/2-y,-z
1/2-x,y,-z
1/2-x,1/2-y,-z
1/2+x,y,-z
1/2-x,1/2+y,z
1/2+x,-y,z
loop_
_atom_site_type_symbol
_atom_site_label
_atom_site_fract_x
_atom_site_fract_y
_atom_site_fract_z
Si Si1 0.199145 0.075689 0.824158
Si Si2 0.557882 0.076460 0.868504
Si Si3 0.599678 0.427032 0.244846
Si Si4 0.500000 0.569510 0.564136
Si Si5 0.857272 0.568295 0.061619
Si Si6 0.302788 0.931043 0.435981
Si Si7 0.405260 0.570998 0.369954
O O1 0.211295 0.250000 0.834314
O O2 0.157772 0.049351 0.773810
O O3 0.180643 0.009224 0.887151
O O4 0.250000 0.000000 0.801164
O O5 0.500000 0.073078 0.887960
O O6 0.577200 0.250000 0.859569
O O7 0.563827 0.984095 0.807630
O O8 0.587507 0.996220 0.922069
O O9 0.587554 0.250000 0.258032
O O10 0.589787 0.528748 0.301739
O O11 0.500000 0.750000 0.559928
O O12 0.500000 0.500000 0.500000
O O13 0.449033 0.517887 0.596303
O O14 0.860076 0.750000 0.058423
O O15 0.838037 0.500000 0.000000
O O16 0.296883 0.750000 0.441182
O O17 0.349697 0.977078 0.393915
O O18 0.314217 0.000000 0.500000
O O19 0.250000 0.000000 0.410454
O O20 0.414412 0.750000 0.378492
#
# Coordination Sequence:
#
# PCOD8280826 Si02
#       7
#    16  16  16   8  16  16  16
#     4   9  20  37  57  82 113 151 193 238 290 348
#     4  10  21  37  58  82 110 147 187 234 290 344
#     4  10  22  39  58  84 116 151 192 237 288 344
#     4  12  26  44  66  92 124 164 203 250 305 360
#     4  10  21  37  56  82 114 148 191 239 287 347
#     4  10  21  37  60  87 117 154 194 242 295 350
#     4  11  24  41  62  90 122 159 203 249 298 356
#
# _framework density 19.87163
#
# number of rings (size 3 to 8) (size 9 to 14) (size 15 to 20)
#    0.000    1.846    0.000    4.846    1.077    9.846 
#    0.000    4.615    0.000    0.000    0.000    0.000 
#    0.000    0.000    0.000    0.000    0.000    0.000 
#
# Total GULP energy -644902.897588 kJ/mol
# GULP energy per Si atom -12401.978800 kJ/mol
# Density = 1.982640 g / cm^3
# Si number density = 19.871630 Si / 1000 Ang^3
#
#
#
# Elastic Constant Matrix: (Units=GPa)
#
#
# Indices 1 2 3 4 5 6 
#
# 1 88.6166 43.3668 15.3673 0.0000 0.0000 0.0000
# 2 43.3668 99.8339 25.9456 0.0000 0.0000 0.0000
# 3 15.3673 25.9456 83.7553 0.0000 0.0000 0.0000
# 4 0.0000 0.0000 0.0000 36.1885 0.0000 0.0000
# 5 0.0000 0.0000 0.0000 0.0000 6.1594 0.0000
# 6 0.0000 0.0000 0.0000 0.0000 0.0000 34.8824
#
#
#
# Elastic Compliance Matrix: (Units=1/GPa)
#
#
# Indices 1 2 3 4 5 6 
#
# 1 0.014376 -0.006046 -0.000765 0.000000 0.000000 0.000000
# 2 -0.006046 0.013436 -0.003053 0.000000 0.000000 0.000000
# 3 -0.000765 -0.003053 0.013026 0.000000 0.000000 0.000000
# 4 0.000000 0.000000 0.000000 0.027633 0.000000 0.000000
# 5 0.000000 0.000000 0.000000 0.000000 0.162353 0.000000
# 6 0.000000 0.000000 0.000000 0.000000 0.000000 0.028668
#
#
# Mechanical properties :
#
#
# Convention : Reuss Voigt Hill
#
# Bulk Modulus (GPa) = 47.36992 49.06279 48.21635
# Shear Modulus (GPa) = 17.46685 27.94780 22.70732
#
# Velocity S-wave (km/s) = 2.96798 3.75429 3.38405
# Velocity P-wave (km/s) = 5.96950 6.59821 6.29171
#
# Compressibility (1/GPa) = 0.02111044
#
# Stress axis : x y z
#
# Youngs Moduli (GPa) = 69.56062 74.42467 76.77184
#
# Poissons Ratio (x) = 0.44997 0.05871
# Poissons Ratio (y) = 0.42056 0.23438
# Poissons Ratio (z) = 0.05320 0.22722
#
# Static dielectric constant tensor:
#      x y z
#    x 3.879810 0.000000 0.000000 
#    y 0.000000 3.744150 0.000000 
#    z 0.000000 0.000000 3.515780 
# 
# 
# High freq. dielectric constant tensor:
#      x y z
#    x 1.779790 0.000000 0.000000 
#    y 0.000000 1.787840 0.000000 
#    z 0.000000 0.000000 1.772620 
# 
# From -- ./inp_files/39994.got.cif
#   From: 2010.03.12/outbox.cif.g09.slc.cpg/sg67_20_cif.got.tgz:39994.got - 2010.04.10 22:41:39.
