data_PCOD8280266
_publ_section_title
;
Structure prediction by ZEFSAII (Michael W. Deem and Ramdas Pophale) SiO2 
 PCOD8280266
Probable space group: C M M A
;
_chemical_formula_sum "Si O2"
_cell_formula_units_Z 80
_cell_length_a 23.709566
_cell_length_b 8.812781
_cell_length_c 20.372173
_cell_angle_alpha 90.000000
_cell_angle_beta 90.000000
_cell_angle_gamma 90.000000
_cell_volume 4256.708766
_symmetry_space_group_name_H-M "C M M A"
_symmetry_group_IT_number 67
_symmetry_cell_setting 'orthorhombic'
loop_
_space_group_symop_operation_xyz
x,y,z
-x,1/2-y,z
x,-y,-z
-x,1/2+y,-z
-x,-y,-z
x,1/2+y,-z
-x,y,z
x,1/2-y,z
1/2+x,1/2+y,z
1/2-x,-y,z
1/2+x,1/2-y,-z
1/2-x,y,-z
1/2-x,1/2-y,-z
1/2+x,y,-z
1/2-x,1/2+y,z
1/2+x,-y,z
loop_
_atom_site_type_symbol
_atom_site_label
_atom_site_fract_x
_atom_site_fract_y
_atom_site_fract_z
Si Si1 0.689159 0.572147 0.689504
Si Si2 0.614038 0.427987 0.190454
Si Si3 0.387175 0.429361 0.432192
Si Si4 0.500000 0.071044 0.772517
Si Si5 0.500000 0.069620 0.622379
Si Si6 0.809342 0.928629 0.068268
O O1 0.696817 0.750000 0.697104
O O2 0.750000 0.500000 0.692270
O O3 0.651490 0.509020 0.749358
O O4 0.659280 0.527290 0.621745
O O5 0.603556 0.250000 0.198695
O O6 0.554351 0.510639 0.189467
O O7 0.644531 0.468476 0.122656
O O8 0.364961 0.500000 0.500000
O O9 0.395406 0.250000 0.438295
O O10 0.446129 0.504544 0.414210
O O11 0.500000 0.250000 0.774793
O O12 0.500000 0.012256 0.697488
O O13 0.500000 0.250000 0.617300
O O14 0.801014 0.750000 0.059779
O O15 0.750000 0.000000 0.090234
O O16 0.830417 0.000000 0.000000
#
# Coordination Sequence:
#
# PCOD8280266 Si02
#       6
#    16  16  16   8   8  16
#     4  10  22  38  58  82 110 147 188 231 282 335
#     4  10  21  39  60  84 115 152 191 231 281 339
#     4  11  23  39  59  82 112 149 187 233 285 339
#     4  11  23  36  59  90 115 145 185 238 287 332
#     4  11  22  38  59  86 113 143 186 234 286 338
#     4  10  20  35  59  88 120 156 192 233 279 330
#
# _framework density 18.793863000000002
#
# number of rings (size 3 to 8) (size 9 to 14) (size 15 to 20)
#    0.000    1.600    2.000    3.300    0.000    5.200 
#    0.000    2.500    0.000    0.000    0.000    0.000 
#    0.000    0.000    0.000    0.000    0.000    0.000 
#
# Total GULP energy -496206.733139 kJ/mol
# GULP energy per Si atom -12405.168328 kJ/mol
# Density = 1.875109 g / cm^3
# Si number density = 18.793863 Si / 1000 Ang^3
#
#
#
# Elastic Constant Matrix: (Units=GPa)
#
#
# Indices 1 2 3 4 5 6 
#
# 1 157.2944 51.0625 81.2744 0.0000 0.0000 0.0000
# 2 51.0625 69.0817 57.4413 0.0000 0.0000 0.0000
# 3 81.2744 57.4413 145.1479 0.0000 0.0000 0.0000
# 4 0.0000 0.0000 0.0000 31.3767 0.0000 0.0000
# 5 0.0000 0.0000 0.0000 0.0000 41.0917 0.0000
# 6 0.0000 0.0000 0.0000 0.0000 0.0000 34.1944
#
#
#
# Elastic Compliance Matrix: (Units=1/GPa)
#
#
# Indices 1 2 3 4 5 6 
#
# 1 0.009608 -0.003918 -0.003830 0.000000 0.000000 0.000000
# 2 -0.003918 0.023172 -0.006977 0.000000 0.000000 0.000000
# 3 -0.003830 -0.006977 0.011795 0.000000 0.000000 0.000000
# 4 0.000000 0.000000 0.000000 0.031871 0.000000 0.000000
# 5 0.000000 0.000000 0.000000 0.000000 0.024336 0.000000
# 6 0.000000 0.000000 0.000000 0.000000 0.000000 0.029245
#
#
# Mechanical properties :
#
#
# Convention : Reuss Voigt Hill
#
# Bulk Modulus (GPa) = 66.10449 83.45338 74.77894
# Shear Modulus (GPa) = 30.39204 33.44896 31.92050
#
# Velocity S-wave (km/s) = 4.02571 4.22332 4.12570
# Velocity P-wave (km/s) = 7.54044 8.26335 7.91016
#
# Compressibility (1/GPa) = 0.01512757
#
# Stress axis : x y z
#
# Youngs Moduli (GPa) = 104.07970 43.15467 84.78270
#
# Poissons Ratio (x) = 0.16906 0.32468
# Poissons Ratio (y) = 0.40774 0.59151
# Poissons Ratio (z) = 0.39858 0.30108
#
# Static dielectric constant tensor:
#      x y z
#    x 3.319090 0.000000 0.000000 
#    y 0.000000 3.457990 0.000000 
#    z 0.000000 0.000000 3.662740 
# 
# 
# High freq. dielectric constant tensor:
#      x y z
#    x 1.731920 0.000000 0.000000 
#    y 0.000000 1.734870 0.000000 
#    z 0.000000 0.000000 1.739360 
# 
# From -- ./inp_files/39510.got.cif
#   From: 2010.03.12/outbox.cif.g09.slc.cpg/sg67_20_cif.got.tgz:39510.got - 2010.04.10 22:41:39.
