data_PCOD8280073
_publ_section_title
;
Structure prediction by ZEFSAII (Michael W. Deem and Ramdas Pophale) SiO2 
 PCOD8280073
Probable space group: C M M A
;
_chemical_formula_sum "Si O2"
_cell_formula_units_Z 96
_cell_length_a 25.856229
_cell_length_b 8.662530
_cell_length_c 23.386785
_cell_angle_alpha 90.000000
_cell_angle_beta 90.000000
_cell_angle_gamma 90.000000
_cell_volume 5238.180509
_symmetry_space_group_name_H-M "C M M A"
_symmetry_group_IT_number 67
_symmetry_cell_setting 'orthorhombic'
loop_
_space_group_symop_operation_xyz
x,y,z
-x,1/2-y,z
x,-y,-z
-x,1/2+y,-z
-x,-y,-z
x,1/2+y,-z
-x,y,z
x,1/2-y,z
1/2+x,1/2+y,z
1/2-x,-y,z
1/2+x,1/2-y,-z
1/2-x,y,-z
1/2-x,1/2-y,-z
1/2+x,y,-z
1/2-x,1/2+y,z
1/2+x,-y,z
loop_
_atom_site_type_symbol
_atom_site_label
_atom_site_fract_x
_atom_site_fract_y
_atom_site_fract_z
Si Si1 0.696425 0.431576 0.136086
Si Si2 0.000000 0.933528 0.128806
Si Si3 0.695345 0.066922 0.266986
Si Si4 0.000000 0.433222 0.741740
Si Si5 0.403829 0.931879 0.325606
Si Si6 0.060523 0.070470 0.560238
Si Si7 0.100517 0.433530 0.937140
O O1 0.700081 0.250000 0.131317
O O2 0.750000 0.500000 0.112831
O O3 0.685957 0.481961 0.201246
O O4 0.650341 0.496273 0.096907
O O5 0.000000 0.996567 0.193478
O O6 0.050226 0.996613 0.095886
O O7 0.000000 0.750000 0.129979
O O8 0.693981 0.250000 0.275164
O O9 0.750000 0.000000 0.288322
O O10 0.651453 0.988327 0.304359
O O11 0.948674 0.490142 0.711050
O O12 0.000000 0.250000 0.739748
O O13 0.408841 0.750000 0.319516
O O14 0.408144 0.980390 0.391460
O O15 0.074799 0.250000 0.561941
O O16 0.000000 0.043221 0.570996
O O17 0.077912 0.000000 0.500000
O O18 0.100081 0.250000 0.939798
O O19 0.101280 0.500000 0.000000
#
# Coordination Sequence:
#
# PCOD8280073 Si02
#       7
#    16   8  16   8  16  16  16
#     4   9  19  35  55  77 103 134 172 218 270 324
#     4   9  19  36  56  73  99 136 175 216 267 327
#     4  10  20  37  59  82 109 145 186 229 278 331
#     4  11  21  36  57  81 108 144 183 228 282 331
#     4  12  23  35  54  84 119 150 185 229 274 330
#     4  10  20  35  56  81 114 154 192 231 277 324
#     4  10  20  35  53  75 100 133 173 215 263 321
#
# _framework density 18.326974
#
# number of rings (size 3 to 8) (size 9 to 14) (size 15 to 20)
#    0.000    1.833    0.833    4.000    0.000    5.000 
#    0.000    5.000    0.000    0.500    0.000    3.500 
#    0.000    0.000    0.000    0.000    0.000    0.000 
#
# Total GULP energy -595383.631770 kJ/mol
# GULP energy per Si atom -12403.825662 kJ/mol
# Density = 1.828526 g / cm^3
# Si number density = 18.326974 Si / 1000 Ang^3
#
#
#
# Elastic Constant Matrix: (Units=GPa)
#
#
# Indices 1 2 3 4 5 6 
#
# 1 157.1271 41.3265 88.4686 0.0000 0.0000 0.0000
# 2 41.3265 72.8869 42.5717 0.0000 0.0000 0.0000
# 3 88.4686 42.5717 142.6277 0.0000 0.0000 0.0000
# 4 0.0000 0.0000 0.0000 31.7730 0.0000 0.0000
# 5 0.0000 0.0000 0.0000 0.0000 21.4383 0.0000
# 6 0.0000 0.0000 0.0000 0.0000 0.0000 29.4606
#
#
#
# Elastic Compliance Matrix: (Units=1/GPa)
#
#
# Indices 1 2 3 4 5 6 
#
# 1 0.010147 -0.002516 -0.005543 0.000000 0.000000 0.000000
# 2 -0.002516 0.017241 -0.003586 0.000000 0.000000 0.000000
# 3 -0.005543 -0.003586 0.011520 0.000000 0.000000 0.000000
# 4 0.000000 0.000000 0.000000 0.031473 0.000000 0.000000
# 5 0.000000 0.000000 0.000000 0.000000 0.046646 0.000000
# 6 0.000000 0.000000 0.000000 0.000000 0.000000 0.033944
#
#
# Mechanical properties :
#
#
# Convention : Reuss Voigt Hill
#
# Bulk Modulus (GPa) = 64.02618 79.70838 71.86728
# Shear Modulus (GPa) = 27.86074 29.88604 28.87339
#
# Velocity S-wave (km/s) = 3.90321 4.04259 3.97351
# Velocity P-wave (km/s) = 7.43806 8.08560 7.76858
#
# Compressibility (1/GPa) = 0.01561861
#
# Stress axis : x y z
#
# Youngs Moduli (GPa) = 98.55297 58.00290 86.80817
#
# Poissons Ratio (x) = 0.14592 0.48117
# Poissons Ratio (y) = 0.24793 0.31126
# Poissons Ratio (z) = 0.54628 0.20797
#
# Static dielectric constant tensor:
#      x y z
#    x 3.766780 0.000000 0.000000 
#    y 0.000000 3.330690 0.000000 
#    z 0.000000 0.000000 3.491210 
# 
# 
# High freq. dielectric constant tensor:
#      x y z
#    x 1.711550 0.000000 0.000000 
#    y 0.000000 1.709110 0.000000 
#    z 0.000000 0.000000 1.714260 
# 
# From -- ./inp_files/42582.got.cif
#   From: 2010.03.12/outbox.cif.g09.slc.cpg/sg67_22_cif.got.tgz:42582.got - 2010.04.10 22:41:39.
