data_PCOD8280657
_publ_section_title
;
Structure prediction by ZEFSAII (Michael W. Deem and Ramdas Pophale) SiO2 
 PCOD8280657
Probable space group: C M M A
;
_chemical_formula_sum "Si O2"
_cell_formula_units_Z 116
_cell_length_a 8.793661
_cell_length_b 29.520562
_cell_length_c 23.545479
_cell_angle_alpha 90.000000
_cell_angle_beta 90.000000
_cell_angle_gamma 90.000000
_cell_volume 6112.260714
_symmetry_space_group_name_H-M "C M M A"
_symmetry_group_IT_number 67
_symmetry_cell_setting 'orthorhombic'
loop_
_space_group_symop_operation_xyz
x,y,z
-x,1/2-y,z
x,-y,-z
-x,1/2+y,-z
-x,-y,-z
x,1/2+y,-z
-x,y,z
x,1/2-y,z
1/2+x,1/2+y,z
1/2-x,-y,z
1/2+x,1/2-y,-z
1/2-x,y,-z
1/2-x,1/2-y,-z
1/2+x,y,-z
1/2-x,1/2+y,z
1/2+x,-y,z
loop_
_atom_site_type_symbol
_atom_site_label
_atom_site_fract_x
_atom_site_fract_y
_atom_site_fract_z
Si Si1 0.178216 0.198906 0.723035
Si Si2 0.820312 0.633244 0.941890
Si Si3 0.333121 0.912870 0.553893
Si Si4 0.250000 0.500000 0.500000
Si Si5 0.678020 0.884195 0.331725
Si Si6 0.174623 0.802673 0.147291
Si Si7 0.818458 0.548290 0.113041
Si Si8 0.819101 0.047581 0.233497
O O1 0.226515 0.250000 0.707595
O O2 0.263335 0.166308 0.679376
O O3 0.224263 0.188128 0.787907
O O4 0.000000 0.192311 0.715312
O O5 0.785685 0.668554 0.892007
O O6 0.739414 0.585152 0.931523
O O7 0.000000 0.626619 0.947017
O O8 0.750000 0.653051 0.000000
O O9 0.500000 0.891746 0.560816
O O10 0.250000 0.888981 0.500000
O O11 0.348237 0.967020 0.541116
O O12 0.240962 0.904656 0.610641
O O13 0.500000 0.882858 0.337962
O O14 0.729548 0.915802 0.279898
O O15 0.193711 0.750000 0.132311
O O16 0.000000 0.817820 0.137582
O O17 0.750000 0.500000 0.094957
O O18 0.756851 0.562929 0.174695
O O19 0.000000 0.545748 0.113655
O O20 0.000000 0.043443 0.225594
O O21 0.750000 0.000000 0.253681
#
# Coordination Sequence:
#
# PCOD8280657 Si02
#       8
#    16  16  16   4  16  16  16  16
#     4   9  19  37  61  87 114 147 187 230 281 337
#     4  12  25  40  58  82 111 145 187 232 279 333
#     4  10  21  36  56  79 111 150 191 235 279 326
#     4   8  22  36  58  80 108 152 198 236 280 328
#     4  11  23  35  53  84 118 151 192 234 278 334
#     4   9  19  38  63  89 117 149 184 226 281 342
#     4  11  22  39  60  81 108 144 185 231 283 338
#     4  10  21  35  52  80 114 149 186 228 277 333
#
# _framework density 18.978249000000002
#
# number of rings (size 3 to 8) (size 9 to 14) (size 15 to 20)
#    0.414    1.379    0.000    6.414    0.966    6.069 
#    0.000    2.759    0.000    0.414    0.000    0.000 
#    0.000    0.000    0.000    0.000    0.000    0.000 
#
# Total GULP energy -719191.617338 kJ/mol
# GULP energy per Si atom -12399.855471 kJ/mol
# Density = 1.893505 g / cm^3
# Si number density = 18.978249 Si / 1000 Ang^3
#
#
#
# Elastic Constant Matrix: (Units=GPa)
#
#
# Indices 1 2 3 4 5 6 
#
# 1 90.9232 35.5767 38.0904 0.0000 0.0000 0.0000
# 2 35.5767 83.5963 46.3389 0.0000 0.0000 0.0000
# 3 38.0904 46.3389 82.2269 0.0000 0.0000 0.0000
# 4 0.0000 0.0000 0.0000 9.2399 0.0000 0.0000
# 5 0.0000 0.0000 0.0000 0.0000 32.4126 0.0000
# 6 0.0000 0.0000 0.0000 0.0000 0.0000 28.7840
#
#
#
# Elastic Compliance Matrix: (Units=1/GPa)
#
#
# Indices 1 2 3 4 5 6 
#
# 1 0.014324 -0.003516 -0.004654 0.000000 0.000000 0.000000
# 2 -0.003516 0.018260 -0.008662 0.000000 0.000000 0.000000
# 3 -0.004654 -0.008662 0.019198 0.000000 0.000000 0.000000
# 4 0.000000 0.000000 0.000000 0.108227 0.000000 0.000000
# 5 0.000000 0.000000 0.000000 0.000000 0.030852 0.000000
# 6 0.000000 0.000000 0.000000 0.000000 0.000000 0.034742
#
#
# Mechanical properties :
#
#
# Convention : Reuss Voigt Hill
#
# Bulk Modulus (GPa) = 55.19016 55.19539 55.19278
# Shear Modulus (GPa) = 18.84622 23.20331 21.02477
#
# Velocity S-wave (km/s) = 3.15468 3.50040 3.33203
# Velocity P-wave (km/s) = 6.51254 6.74416 6.62936
#
# Compressibility (1/GPa) = 0.01811917
#
# Stress axis : x y z
#
# Youngs Moduli (GPa) = 69.81438 54.76477 52.08762
#
# Poissons Ratio (x) = 0.19257 0.24240
# Poissons Ratio (y) = 0.24548 0.45116
# Poissons Ratio (z) = 0.32489 0.47435
#
# Static dielectric constant tensor:
#      x y z
#    x 3.452940 0.000000 0.000000 
#    y 0.000000 3.462560 0.000000 
#    z 0.000000 0.000000 3.617430 
# 
# 
# High freq. dielectric constant tensor:
#      x y z
#    x 1.745990 0.000000 0.000000 
#    y 0.000000 1.731060 0.000000 
#    z 0.000000 0.000000 1.731850 
# 
# From -- ./inp_files/41216.got.cif
#   From: 2010.03.12/outbox.cif.g09.slc.cpg/sg67_21_cif.got.tgz:41216.got - 2010.04.10 22:41:39.
