data_PCOD8280888
_publ_section_title
;
Structure prediction by ZEFSAII (Michael W. Deem and Ramdas Pophale) SiO2 
 PCOD8280888
Probable space group: C M M A
;
_chemical_formula_sum "Si O2"
_cell_formula_units_Z 96
_cell_length_a 8.970670
_cell_length_b 27.139772
_cell_length_c 23.996051
_cell_angle_alpha 90.000000
_cell_angle_beta 90.000000
_cell_angle_gamma 90.000000
_cell_volume 5842.125092
_symmetry_space_group_name_H-M "C M M A"
_symmetry_group_IT_number 67
_symmetry_cell_setting 'orthorhombic'
loop_
_space_group_symop_operation_xyz
x,y,z
-x,1/2-y,z
x,-y,-z
-x,1/2+y,-z
-x,-y,-z
x,1/2+y,-z
-x,y,z
x,1/2-y,z
1/2+x,1/2+y,z
1/2-x,-y,z
1/2+x,1/2-y,-z
1/2-x,y,-z
1/2-x,1/2-y,-z
1/2+x,y,-z
1/2-x,1/2+y,z
1/2+x,-y,z
loop_
_atom_site_type_symbol
_atom_site_label
_atom_site_fract_x
_atom_site_fract_y
_atom_site_fract_z
Si Si1 0.826564 0.693350 0.612185
Si Si2 0.822313 0.895258 0.442112
Si Si3 0.164039 0.308540 0.947375
Si Si4 0.677071 0.305110 0.174184
Si Si5 0.673924 0.549989 0.341115
Si Si6 0.330316 0.854254 0.273617
O O1 0.793536 0.750000 0.598729
O O2 0.726498 0.660861 0.570965
O O3 0.782625 0.681779 0.675929
O O4 0.000000 0.679447 0.602779
O O5 0.750000 0.911983 0.500000
O O6 0.759130 0.932257 0.396101
O O7 0.000000 0.898731 0.444869
O O8 0.156444 0.250000 0.952882
O O9 0.237694 0.321428 0.887129
O O10 0.000000 0.331609 0.950189
O O11 0.250000 0.331838 0.000000
O O12 0.500000 0.304858 0.171904
O O13 0.735205 0.250000 0.188879
O O14 0.730322 0.343743 0.220077
O O15 0.500000 0.542385 0.355182
O O16 0.750000 0.500000 0.319886
O O17 0.694461 0.589384 0.291759
O O18 0.500000 0.844061 0.256782
#
# Coordination Sequence:
#
# PCOD8280888 Si02
#       6
#    16  16  16  16  16  16
#     4   9  18  33  50  68  94 126 157 191 228 265
#     4  11  22  36  53  73  96 121 151 186 224 269
#     4   8  14  24  36  53  81 118 158 196 228 257
#     4   9  17  27  40  62  93 126 159 193 225 260
#     4  10  21  38  56  74  94 116 145 183 229 277
#     4   9  18  31  47  68  93 118 148 186 224 267
#
# _framework density 16.432376999999999
#
# number of rings (size 3 to 8) (size 9 to 14) (size 15 to 20)
#    0.000    2.667    0.000    4.500    0.000    6.000 
#    0.000    3.333    0.000    0.000    0.000    0.000 
#    0.000    0.667    0.000    7.333    0.000    5.667 
#
# Total GULP energy -595066.379860 kJ/mol
# GULP energy per Si atom -12397.216247 kJ/mol
# Density = 1.639498 g / cm^3
# Si number density = 16.432377 Si / 1000 Ang^3
#
#
#
# Elastic Constant Matrix: (Units=GPa)
#
#
# Indices 1 2 3 4 5 6 
#
# 1 84.3355 28.8260 44.7538 0.0000 0.0000 0.0000
# 2 28.8260 63.7849 25.8690 0.0000 0.0000 0.0000
# 3 44.7538 25.8690 108.2525 0.0000 0.0000 0.0000
# 4 0.0000 0.0000 0.0000 12.4352 0.0000 0.0000
# 5 0.0000 0.0000 0.0000 0.0000 30.0639 0.0000
# 6 0.0000 0.0000 0.0000 0.0000 0.0000 25.4197
#
#
#
# Elastic Compliance Matrix: (Units=1/GPa)
#
#
# Indices 1 2 3 4 5 6 
#
# 1 0.016632 -0.005235 -0.005625 0.000000 0.000000 0.000000
# 2 -0.005235 0.019008 -0.002378 0.000000 0.000000 0.000000
# 3 -0.005625 -0.002378 0.012131 0.000000 0.000000 0.000000
# 4 0.000000 0.000000 0.000000 0.080417 0.000000 0.000000
# 5 0.000000 0.000000 0.000000 0.000000 0.033262 0.000000
# 6 0.000000 0.000000 0.000000 0.000000 0.000000 0.039340
#
#
# Mechanical properties :
#
#
# Convention : Reuss Voigt Hill
#
# Bulk Modulus (GPa) = 46.95908 50.58564 48.77236
# Shear Modulus (GPa) = 21.33432 24.04537 22.68985
#
# Velocity S-wave (km/s) = 3.60712 3.82945 3.71994
# Velocity P-wave (km/s) = 6.78141 7.09957 6.94231
#
# Compressibility (1/GPa) = 0.02129514
#
# Stress axis : x y z
#
# Youngs Moduli (GPa) = 60.12630 52.60947 82.43083
#
# Poissons Ratio (x) = 0.27541 0.46366
# Poissons Ratio (y) = 0.31476 0.19603
# Poissons Ratio (z) = 0.33820 0.12511
#
# Static dielectric constant tensor:
#      x y z
#    x 3.126880 0.000000 0.000000 
#    y 0.000000 2.888170 0.000000 
#    z 0.000000 0.000000 3.158700 
# 
# 
# High freq. dielectric constant tensor:
#      x y z
#    x 1.633960 0.000000 0.000000 
#    y 0.000000 1.598580 0.000000 
#    z 0.000000 0.000000 1.629950 
# 
# From -- ./inp_files/37192.got.cif
#   From: 2010.03.12/outbox.cif.g09.slc.cpg/sg67_19_cif.got.tgz:37192.got - 2010.04.10 22:41:39.
