data_PCOD8280555
_publ_section_title
;
Structure prediction by ZEFSAII (Michael W. Deem and Ramdas Pophale) SiO2 
 PCOD8280555
Probable space group: C M M A
;
_chemical_formula_sum "Si O2"
_cell_formula_units_Z 72
_cell_length_a 8.903146
_cell_length_b 16.042282
_cell_length_c 24.423229
_cell_angle_alpha 90.000000
_cell_angle_beta 90.000000
_cell_angle_gamma 90.000000
_cell_volume 3488.291126
_symmetry_space_group_name_H-M "C M M A"
_symmetry_group_IT_number 67
_symmetry_cell_setting 'orthorhombic'
loop_
_space_group_symop_operation_xyz
x,y,z
-x,1/2-y,z
x,-y,-z
-x,1/2+y,-z
-x,-y,-z
x,1/2+y,-z
-x,y,z
x,1/2-y,z
1/2+x,1/2+y,z
1/2-x,-y,z
1/2+x,1/2-y,-z
1/2-x,y,-z
1/2-x,1/2-y,-z
1/2+x,y,-z
1/2-x,1/2+y,z
1/2+x,-y,z
loop_
_atom_site_type_symbol
_atom_site_label
_atom_site_fract_x
_atom_site_fract_y
_atom_site_fract_z
Si Si1 0.322903 0.414044 0.623364
Si Si2 0.323199 0.414362 0.163704
Si Si3 0.827921 0.151515 0.055569
Si Si4 0.668913 0.344084 0.737220
Si Si5 0.321174 0.750000 0.440788
O O1 0.500000 0.421793 0.616666
O O2 0.250000 0.500000 0.601573
O O3 0.278243 0.402155 0.687144
O O4 0.263775 0.333978 0.589595
O O5 0.500000 0.421609 0.158265
O O6 0.250000 0.500000 0.183364
O O7 0.258548 0.389505 0.105324
O O8 0.279719 0.349243 0.210948
O O9 0.815146 0.250000 0.061411
O O10 0.000000 0.121710 0.055639
O O11 0.750000 0.120311 0.000000
O O12 0.500000 0.367994 0.756264
O O13 0.671424 0.250000 0.714873
O O14 0.500000 0.750000 0.444291
O O15 0.250000 0.750000 0.500000
#
# Coordination Sequence:
#
# PCOD8280555 Si02
#       5
#    16  16  16  16   8
#     4  10  21  39  63  91 125 165 208 256 310 369
#     4  12  25  39  56  83 118 154 196 246 298 359
#     4  10  21  39  62  86 113 148 191 240 296 359
#     4  10  20  38  63  88 119 159 198 244 305 368
#     4  10  22  42  64  90 126 168 211 256 309 366
#
# _framework density 20.640478999999999
#
# number of rings (size 3 to 8) (size 9 to 14) (size 15 to 20)
#    0.000    1.556    1.111    4.000    0.000    8.889 
#    0.000    4.444    0.000    0.000    0.000    0.000 
#    0.000    0.000    0.000    0.000    0.000    0.000 
#
# Total GULP energy -446496.218858 kJ/mol
# GULP energy per Si atom -12402.672746 kJ/mol
# Density = 2.059350 g / cm^3
# Si number density = 20.640479 Si / 1000 Ang^3
#
#
#
# Elastic Constant Matrix: (Units=GPa)
#
#
# Indices 1 2 3 4 5 6 
#
# 1 115.6336 43.4874 47.1922 0.0000 0.0000 0.0000
# 2 43.4874 114.7993 57.5895 0.0000 0.0000 0.0000
# 3 47.1922 57.5895 117.6878 0.0000 0.0000 0.0000
# 4 0.0000 0.0000 0.0000 26.6602 0.0000 0.0000
# 5 0.0000 0.0000 0.0000 0.0000 36.8714 0.0000
# 6 0.0000 0.0000 0.0000 0.0000 0.0000 33.0330
#
#
#
# Elastic Compliance Matrix: (Units=1/GPa)
#
#
# Indices 1 2 3 4 5 6 
#
# 1 0.010880 -0.002562 -0.003109 0.000000 0.000000 0.000000
# 2 -0.002562 0.012148 -0.004917 0.000000 0.000000 0.000000
# 3 -0.003109 -0.004917 0.012150 0.000000 0.000000 0.000000
# 4 0.000000 0.000000 0.000000 0.037509 0.000000 0.000000
# 5 0.000000 0.000000 0.000000 0.000000 0.027121 0.000000
# 6 0.000000 0.000000 0.000000 0.000000 0.000000 0.030273
#
#
# Mechanical properties :
#
#
# Convention : Reuss Voigt Hill
#
# Bulk Modulus (GPa) = 71.42003 71.62878 71.52440
# Shear Modulus (GPa) = 32.06647 32.63635 32.35141
#
# Velocity S-wave (km/s) = 3.94581 3.98072 3.96331
# Velocity P-wave (km/s) = 7.44556 7.47707 7.46133
#
# Compressibility (1/GPa) = 0.01400167
#
# Stress axis : x y z
#
# Youngs Moduli (GPa) = 91.90797 82.31753 82.30360
#
# Poissons Ratio (x) = 0.21088 0.25591
# Poissons Ratio (y) = 0.23545 0.40471
# Poissons Ratio (z) = 0.28578 0.40478
#
# Static dielectric constant tensor:
#      x y z
#    x 3.648710 0.000000 0.000000 
#    y 0.000000 3.907680 0.000000 
#    z 0.000000 0.000000 3.672000 
# 
# 
# High freq. dielectric constant tensor:
#      x y z
#    x 1.800420 0.000000 0.000000 
#    y 0.000000 1.814510 0.000000 
#    z 0.000000 0.000000 1.811760 
# 
# From -- ./inp_files/40504.got.cif
#   From: 2010.03.12/outbox.cif.g09.slc.cpg/sg67_21_cif.got.tgz:40504.got - 2010.04.10 22:41:39.
