data_PCOD8280380
_publ_section_title
;
Structure prediction by ZEFSAII (Michael W. Deem and Ramdas Pophale) SiO2 
 PCOD8280380
Probable space group: C M M A
;
_chemical_formula_sum "Si O2"
_cell_formula_units_Z 96
_cell_length_a 15.030299
_cell_length_b 13.924968
_cell_length_c 21.569276
_cell_angle_alpha 90.000000
_cell_angle_beta 90.000000
_cell_angle_gamma 90.000000
_cell_volume 4514.372521
_symmetry_space_group_name_H-M "C M M A"
_symmetry_group_IT_number 67
_symmetry_cell_setting 'orthorhombic'
loop_
_space_group_symop_operation_xyz
x,y,z
-x,1/2-y,z
x,-y,-z
-x,1/2+y,-z
-x,-y,-z
x,1/2+y,-z
-x,y,z
x,1/2-y,z
1/2+x,1/2+y,z
1/2-x,-y,z
1/2+x,1/2-y,-z
1/2-x,y,-z
1/2-x,1/2-y,-z
1/2+x,y,-z
1/2-x,1/2+y,z
1/2+x,-y,z
loop_
_atom_site_type_symbol
_atom_site_label
_atom_site_fract_x
_atom_site_fract_y
_atom_site_fract_z
Si Si1 0.099566 0.024501 0.567786
Si Si2 0.292850 0.637068 0.670712
Si Si3 0.601082 0.641931 0.015918
Si Si4 0.400134 0.357395 0.212353
Si Si5 0.347194 0.024657 0.097238
Si Si6 0.595237 0.140270 0.657176
O O1 0.169769 0.086830 0.608321
O O2 0.000000 0.073077 0.565352
O O3 0.138460 0.000000 0.500000
O O4 0.088358 0.919158 0.595096
O O5 0.307582 0.750000 0.661648
O O6 0.345593 0.598465 0.730492
O O7 0.189766 0.611172 0.688429
O O8 0.500000 0.642562 0.991574
O O9 0.633070 0.750000 0.032112
O O10 0.605855 0.574799 0.076777
O O11 0.660652 0.598120 0.960778
O O12 0.500000 0.351286 0.236618
O O13 0.365477 0.250000 0.194319
O O14 0.398985 0.426586 0.153209
O O15 0.250000 0.000000 0.121537
O O16 0.500000 0.123989 0.695329
O O17 0.602128 0.250000 0.636947
#
# Coordination Sequence:
#
# PCOD8280380 Si02
#       6
#    16  16  16  16  16  16
#     4  10  21  36  56  83 115 151 190 237 291 344
#     4  10  21  37  60  88 115 147 192 244 293 346
#     4  10  20  36  59  85 115 151 193 241 288 335
#     4  10  21  39  62  85 112 148 191 241 294 346
#     4  11  22  34  55  86 118 153 189 231 284 347
#     4   9  19  36  56  79 110 148 187 228 281 345
#
# _framework density 21.265412999999999
#
# number of rings (size 3 to 8) (size 9 to 14) (size 15 to 20)
#    0.000    2.000    0.000    4.500    0.000    7.667 
#    0.000    3.333    0.000    3.000    0.000    4.667 
#    0.000    0.000    0.000    0.000    0.000    0.000 
#
# Total GULP energy -594660.133220 kJ/mol
# GULP energy per Si atom -12388.752775 kJ/mol
# Density = 2.121701 g / cm^3
# Si number density = 21.265413 Si / 1000 Ang^3
#
#
#
# Elastic Constant Matrix: (Units=GPa)
#
#
# Indices 1 2 3 4 5 6 
#
# 1 140.3566 31.5658 45.9016 0.0000 0.0000 0.0000
# 2 31.5658 103.4020 49.5454 0.0000 0.0000 0.0000
# 3 45.9016 49.5454 117.2806 0.0000 0.0000 0.0000
# 4 0.0000 0.0000 0.0000 28.7014 0.0000 0.0000
# 5 0.0000 0.0000 0.0000 0.0000 21.0998 0.0000
# 6 0.0000 0.0000 0.0000 0.0000 0.0000 30.6217
#
#
#
# Elastic Compliance Matrix: (Units=1/GPa)
#
#
# Indices 1 2 3 4 5 6 
#
# 1 0.008292 -0.001224 -0.002728 0.000000 0.000000 0.000000
# 2 -0.001224 0.012306 -0.004720 0.000000 0.000000 0.000000
# 3 -0.002728 -0.004720 0.011588 0.000000 0.000000 0.000000
# 4 0.000000 0.000000 0.000000 0.034842 0.000000 0.000000
# 5 0.000000 0.000000 0.000000 0.000000 0.047394 0.000000
# 6 0.000000 0.000000 0.000000 0.000000 0.000000 0.032657
#
#
# Mechanical properties :
#
#
# Convention : Reuss Voigt Hill
#
# Bulk Modulus (GPa) = 67.37444 68.34053 67.85748
# Shear Modulus (GPa) = 29.52115 31.68634 30.60375
#
# Velocity S-wave (km/s) = 3.72993 3.86429 3.79771
# Velocity P-wave (km/s) = 7.09234 7.21921 7.15606
#
# Compressibility (1/GPa) = 0.01484242
#
# Stress axis : x y z
#
# Youngs Moduli (GPa) = 120.59430 81.26044 86.29473
#
# Poissons Ratio (x) = 0.09947 0.23544
# Poissons Ratio (y) = 0.14762 0.40728
# Poissons Ratio (z) = 0.32902 0.38352
#
# Static dielectric constant tensor:
#      x y z
#    x 4.304450 0.000000 0.000000 
#    y 0.000000 4.011960 0.000000 
#    z 0.000000 0.000000 3.465280 
# 
# 
# High freq. dielectric constant tensor:
#      x y z
#    x 1.854200 0.000000 0.000000 
#    y 0.000000 1.840820 0.000000 
#    z 0.000000 0.000000 1.795570 
# 
# From -- ./inp_files/38401.got.cif
#   From: 2010.03.12/outbox.cif.g09.slc.cpg/sg67_20_cif.got.tgz:38401.got - 2010.04.10 22:41:39.
