data_PCOD8280717
_publ_section_title
;
Structure prediction by ZEFSAII (Michael W. Deem and Ramdas Pophale) SiO2 
 PCOD8280717
Probable space group: C M M A
;
_chemical_formula_sum "Si O2"
_cell_formula_units_Z 80
_cell_length_a 8.792364
_cell_length_b 19.309754
_cell_length_c 25.199036
_cell_angle_alpha 90.000000
_cell_angle_beta 90.000000
_cell_angle_gamma 90.000000
_cell_volume 4278.251659
_symmetry_space_group_name_H-M "C M M A"
_symmetry_group_IT_number 67
_symmetry_cell_setting 'orthorhombic'
loop_
_space_group_symop_operation_xyz
x,y,z
-x,1/2-y,z
x,-y,-z
-x,1/2+y,-z
-x,-y,-z
x,1/2+y,-z
-x,y,z
x,1/2-y,z
1/2+x,1/2+y,z
1/2-x,-y,z
1/2+x,1/2-y,-z
1/2-x,y,-z
1/2-x,1/2-y,-z
1/2+x,y,-z
1/2-x,1/2+y,z
1/2+x,-y,z
loop_
_atom_site_type_symbol
_atom_site_label
_atom_site_fract_x
_atom_site_fract_y
_atom_site_fract_z
Si Si1 0.179999 0.428094 0.854738
Si Si2 0.178199 0.928412 0.264294
Si Si3 0.679684 0.171543 0.053882
Si Si4 0.319376 0.071951 0.557243
Si Si5 0.678117 0.830368 0.641568
O O1 0.250000 0.500000 0.873871
O O2 0.235758 0.409758 0.795055
O O3 0.240456 0.369955 0.895064
O O4 0.000000 0.433793 0.856846
O O5 0.225008 0.865768 0.302844
O O6 0.000000 0.940226 0.264445
O O7 0.250000 0.000000 0.284905
O O8 0.500000 0.166652 0.049314
O O9 0.736049 0.250000 0.061549
O O10 0.750000 0.139951 0.000000
O O11 0.500000 0.064958 0.553118
O O12 0.250000 0.088367 0.500000
O O13 0.275222 0.135186 0.595026
O O14 0.250000 0.000000 0.579622
O O15 0.500000 0.840613 0.629530
O O16 0.722076 0.750000 0.645254
#
# Coordination Sequence:
#
# PCOD8280717 Si02
#       5
#    16  16  16  16  16
#     4   9  18  32  50  73  99 128 165 208 253 299
#     4   9  18  33  53  75 100 133 170 209 253 302
#     4   9  18  32  49  69  95 128 165 204 247 298
#     4  11  22  38  60  83 108 139 177 217 258 306
#     4  10  21  36  54  79 110 141 174 213 258 307
#
# _framework density 18.699227
#
# number of rings (size 3 to 8) (size 9 to 14) (size 15 to 20)
#    0.000    2.400    0.000    3.000    0.000    5.200 
#    0.000    6.000    0.000    0.000    0.000    8.400 
#    0.000    0.000    0.000    0.000    0.000    0.000 
#
# Total GULP energy -496037.765625 kJ/mol
# GULP energy per Si atom -12400.944141 kJ/mol
# Density = 1.865667 g / cm^3
# Si number density = 18.699227 Si / 1000 Ang^3
#
#
#
# Elastic Constant Matrix: (Units=GPa)
#
#
# Indices 1 2 3 4 5 6 
#
# 1 56.9677 43.8359 43.5938 0.0000 0.0000 0.0000
# 2 43.8359 141.5591 91.6289 0.0000 0.0000 0.0000
# 3 43.5938 91.6289 128.0530 0.0000 0.0000 0.0000
# 4 0.0000 0.0000 0.0000 7.3658 0.0000 0.0000
# 5 0.0000 0.0000 0.0000 0.0000 27.3436 0.0000
# 6 0.0000 0.0000 0.0000 0.0000 0.0000 28.3481
#
#
#
# Elastic Compliance Matrix: (Units=1/GPa)
#
#
# Indices 1 2 3 4 5 6 
#
# 1 0.024985 -0.004156 -0.005532 0.000000 0.000000 0.000000
# 2 -0.004156 0.013850 -0.008496 0.000000 0.000000 0.000000
# 3 -0.005532 -0.008496 0.015772 0.000000 0.000000 0.000000
# 4 0.000000 0.000000 0.000000 0.135762 0.000000 0.000000
# 5 0.000000 0.000000 0.000000 0.000000 0.036572 0.000000
# 6 0.000000 0.000000 0.000000 0.000000 0.000000 0.035276
#
#
# Mechanical properties :
#
#
# Convention : Reuss Voigt Hill
#
# Bulk Modulus (GPa) = 54.82608 76.07745 65.45177
# Shear Modulus (GPa) = 16.41151 22.44625 19.42888
#
# Velocity S-wave (km/s) = 2.96574 3.46841 3.22688
# Velocity P-wave (km/s) = 6.41180 7.53744 6.99729
#
# Compressibility (1/GPa) = 0.01823949
#
# Stress axis : x y z
#
# Youngs Moduli (GPa) = 40.02369 72.19971 63.40504
#
# Poissons Ratio (x) = 0.30010 0.35073
# Poissons Ratio (y) = 0.16636 0.53867
# Poissons Ratio (z) = 0.22140 0.61339
#
# Static dielectric constant tensor:
#      x y z
#    x 3.304860 0.000000 0.000000 
#    y 0.000000 3.539490 0.000000 
#    z 0.000000 0.000000 3.734490 
# 
# 
# High freq. dielectric constant tensor:
#      x y z
#    x 1.716310 0.000000 0.000000 
#    y 0.000000 1.720660 0.000000 
#    z 0.000000 0.000000 1.737130 
# 
# From -- ./inp_files/43208.got.cif
#   From: 2010.03.12/outbox.cif.g09.slc.cpg/sg67_22_cif.got.tgz:43208.got - 2010.04.10 22:41:39.
