data_PCOD8280770
_publ_section_title
;
Structure prediction by ZEFSAII (Michael W. Deem and Ramdas Pophale) SiO2 
 PCOD8280770
Probable space group: C M M A
;
_chemical_formula_sum "Si O2"
_cell_formula_units_Z 112
_cell_length_a 23.253607
_cell_length_b 15.725245
_cell_length_c 14.364799
_cell_angle_alpha 90.000000
_cell_angle_beta 90.000000
_cell_angle_gamma 90.000000
_cell_volume 5252.756905
_symmetry_space_group_name_H-M "C M M A"
_symmetry_group_IT_number 67
_symmetry_cell_setting 'orthorhombic'
loop_
_space_group_symop_operation_xyz
x,y,z
-x,1/2-y,z
x,-y,-z
-x,1/2+y,-z
-x,-y,-z
x,1/2+y,-z
-x,y,z
x,1/2-y,z
1/2+x,1/2+y,z
1/2-x,-y,z
1/2+x,1/2-y,-z
1/2-x,y,-z
1/2-x,1/2-y,-z
1/2+x,y,-z
1/2-x,1/2+y,z
1/2+x,-y,z
loop_
_atom_site_type_symbol
_atom_site_label
_atom_site_fract_x
_atom_site_fract_y
_atom_site_fract_z
Si Si1 0.369123 0.153908 0.409326
Si Si2 0.566103 0.490821 0.295294
Si Si3 0.374271 0.153416 0.623034
Si Si4 0.246122 0.599091 0.340871
Si Si5 0.837548 0.844285 0.970020
Si Si6 0.230450 0.404824 0.870075
Si Si7 0.563397 0.047582 0.903130
O O1 0.385497 0.250000 0.377921
O O2 0.398765 0.084884 0.342931
O O3 0.388203 0.137955 0.514827
O O4 0.300100 0.142373 0.408621
O O5 0.500000 0.481629 0.325676
O O6 0.588461 0.584666 0.321860
O O7 0.574554 0.483746 0.183718
O O8 0.391844 0.250000 0.651245
O O9 0.307231 0.142798 0.646391
O O10 0.250000 0.500000 0.364842
O O11 0.220326 0.614217 0.237709
O O12 0.856070 0.750000 0.996182
O O13 0.779649 0.842783 0.908864
O O14 0.887644 0.881608 0.905502
O O15 0.827598 0.892665 0.068864
O O16 0.250000 0.500000 0.886976
O O17 0.500000 0.089294 0.889933
O O18 0.565731 0.000000 0.000000
#
# Coordination Sequence:
#
# PCOD8280770 Si02
#       7
#    16  16  16  16  16  16  16
#     4  11  25  42  65  98 133 171 215 268 328 389
#     4  11  25  45  69  95 126 171 223 271 324 389
#     4  11  24  42  66  98 135 171 212 269 329 384
#     4  11  22  37  64  95 130 174 214 258 318 391
#     4  11  22  35  57  88 124 159 203 259 312 372
#     4  10  21  36  57  87 123 167 208 248 306 374
#     4  10  23  43  65  87 119 163 209 259 317 375
#
# _framework density 21.322136
#
# number of rings (size 3 to 8) (size 9 to 14) (size 15 to 20)
#    0.000    1.286    1.429    4.714    4.000    7.714 
#    0.000    2.857    0.000    2.571    0.000    0.000 
#    0.000    0.000    0.000    0.000    0.000    0.000 
#
# Total GULP energy -694389.050192 kJ/mol
# GULP energy per Si atom -12399.804468 kJ/mol
# Density = 2.127361 g / cm^3
# Si number density = 21.322136 Si / 1000 Ang^3
#
#
#
# Elastic Constant Matrix: (Units=GPa)
#
#
# Indices 1 2 3 4 5 6 
#
# 1 94.8764 26.5508 21.5951 0.0000 0.0000 0.0000
# 2 26.5508 114.6184 43.6467 0.0000 0.0000 0.0000
# 3 21.5951 43.6467 93.0716 0.0000 0.0000 0.0000
# 4 0.0000 0.0000 0.0000 -22.2039 0.0000 0.0000
# 5 0.0000 0.0000 0.0000 0.0000 25.0229 0.0000
# 6 0.0000 0.0000 0.0000 0.0000 0.0000 6.2902
#
#
#
# Elastic Compliance Matrix: (Units=1/GPa)
#
#
# Indices 1 2 3 4 5 6 
#
# 1 0.011494 -0.002005 -0.001727 0.000000 0.000000 0.000000
# 2 -0.002005 0.010971 -0.004680 0.000000 0.000000 0.000000
# 3 -0.001727 -0.004680 0.013340 0.000000 0.000000 0.000000
# 4 0.000000 0.000000 0.000000 -0.045037 0.000000 0.000000
# 5 0.000000 0.000000 0.000000 0.000000 0.039963 0.000000
# 6 0.000000 0.000000 0.000000 0.000000 0.000000 0.158978
#
#
# Mechanical properties :
#
#
# Convention : Reuss Voigt Hill
#
# Bulk Modulus (GPa) = 52.68158 54.01682 53.34920
# Shear Modulus (GPa) = 23.48971 15.87342 19.68157
#
# Velocity S-wave (km/s) = 3.32272 2.73143 3.04148
# Velocity P-wave (km/s) = 6.28345 5.94444 6.11629
#
# Compressibility (1/GPa) = 0.01898197
#
# Stress axis : x y z
#
# Youngs Moduli (GPa) = 87.00081 91.14839 74.96442
#
# Poissons Ratio (x) = 0.18276 0.12944
# Poissons Ratio (y) = 0.17444 0.35082
# Poissons Ratio (z) = 0.15022 0.42655
#
# Static dielectric constant tensor:
#      x y z
#    x 3.974720 0.000000 0.000000 
#    y 0.000000 3.794010 0.000000 
#    z 0.000000 0.000000 4.155840 
# 
# 
# High freq. dielectric constant tensor:
#      x y z
#    x 1.830040 0.000000 0.000000 
#    y 0.000000 1.830220 0.000000 
#    z 0.000000 0.000000 1.849820 
# 
# From -- ./inp_files/30164.got.cif
#   From: 2010.03.12/outbox.cif.g09.slc.cpg/sg67_16_cif.got.tgz:30164.got - 2010.04.10 22:41:39.
