data_PCOD8280637
_publ_section_title
;
Structure prediction by ZEFSAII (Michael W. Deem and Ramdas Pophale) SiO2 
 PCOD8280637
Probable space group: C M M A
;
_chemical_formula_sum "Si O2"
_cell_formula_units_Z 96
_cell_length_a 26.620754
_cell_length_b 15.585872
_cell_length_c 13.000946
_cell_angle_alpha 90.000000
_cell_angle_beta 90.000000
_cell_angle_gamma 90.000000
_cell_volume 5394.192140
_symmetry_space_group_name_H-M "C M M A"
_symmetry_group_IT_number 67
_symmetry_cell_setting 'orthorhombic'
loop_
_space_group_symop_operation_xyz
x,y,z
-x,1/2-y,z
x,-y,-z
-x,1/2+y,-z
-x,-y,-z
x,1/2+y,-z
-x,y,z
x,1/2-y,z
1/2+x,1/2+y,z
1/2-x,-y,z
1/2+x,1/2-y,-z
1/2-x,y,-z
1/2-x,1/2-y,-z
1/2+x,y,-z
1/2-x,1/2+y,z
1/2+x,-y,z
loop_
_atom_site_type_symbol
_atom_site_label
_atom_site_fract_x
_atom_site_fract_y
_atom_site_fract_z
Si Si1 0.943081 0.652375 0.261446
Si Si2 0.869936 0.918784 0.926138
Si Si3 0.600879 0.001769 0.621275
Si Si4 0.440712 0.849348 0.242834
Si Si5 0.807058 0.507472 0.237646
Si Si6 0.350782 0.343095 0.126710
O O1 0.934667 0.750000 0.303563
O O2 0.931544 0.581873 0.348198
O O3 0.907002 0.632317 0.164999
O O4 0.000000 0.640931 0.222828
O O5 0.918366 0.886692 0.863508
O O6 0.825339 0.936504 0.844698
O O7 0.850430 0.845414 0.002843
O O8 0.882966 0.000000 0.000000
O O9 0.657763 0.993997 0.662375
O O10 0.602787 0.000000 0.500000
O O11 0.576630 0.090552 0.662266
O O12 0.500000 0.854631 0.231906
O O13 0.423701 0.750000 0.261470
O O14 0.750000 0.500000 0.274642
O O15 0.809658 0.597255 0.178407
O O16 0.335222 0.250000 0.164552
#
# Coordination Sequence:
#
# PCOD8280637 Si02
#       6
#    16  16  16  16  16  16
#     4   9  18  32  51  76 104 132 164 205 249 292
#     4   9  18  31  50  75 103 137 170 202 239 288
#     4  10  21  36  54  74  96 127 169 215 260 308
#     4  10  21  35  50  74 110 145 173 204 247 299
#     4   9  19  36  52  69  96 126 160 207 258 302
#     4   9  17  30  49  74 102 130 163 199 236 285
#
# _framework density 17.796918000000002
#
# number of rings (size 3 to 8) (size 9 to 14) (size 15 to 20)
#    0.000    2.667    0.000    2.000    0.000    6.333 
#    0.000    8.333    0.000    0.000    0.000    9.333 
#    0.000    0.000    0.000    0.000    0.000    0.000 
#
# Total GULP energy -594863.529977 kJ/mol
# GULP energy per Si atom -12392.990208 kJ/mol
# Density = 1.775641 g / cm^3
# Si number density = 17.796918 Si / 1000 Ang^3
#
#
#
# Elastic Constant Matrix: (Units=GPa)
#
#
# Indices 1 2 3 4 5 6 
#
# 1 89.1122 35.1754 2.9098 0.0000 0.0000 0.0000
# 2 35.1754 89.4305 32.8931 0.0000 0.0000 0.0000
# 3 2.9098 32.8931 63.6995 0.0000 0.0000 0.0000
# 4 0.0000 0.0000 0.0000 14.1196 0.0000 0.0000
# 5 0.0000 0.0000 0.0000 0.0000 12.2729 0.0000
# 6 0.0000 0.0000 0.0000 0.0000 0.0000 17.0108
#
#
#
# Elastic Compliance Matrix: (Units=1/GPa)
#
#
# Indices 1 2 3 4 5 6 
#
# 1 0.013637 -0.006339 0.002650 0.000000 0.000000 0.000000
# 2 -0.006339 0.016750 -0.008360 0.000000 0.000000 0.000000
# 3 0.002650 -0.008360 0.019894 0.000000 0.000000 0.000000
# 4 0.000000 0.000000 0.000000 0.070823 0.000000 0.000000
# 5 0.000000 0.000000 0.000000 0.000000 0.081480 0.000000
# 6 0.000000 0.000000 0.000000 0.000000 0.000000 0.058786
#
#
# Mechanical properties :
#
#
# Convention : Reuss Voigt Hill
#
# Bulk Modulus (GPa) = 38.18950 42.68877 40.43914
# Shear Modulus (GPa) = 16.99545 20.09825 18.54685
#
# Velocity S-wave (km/s) = 3.09360 3.36417 3.23172
# Velocity P-wave (km/s) = 5.85368 6.25531 6.05782
#
# Compressibility (1/GPa) = 0.02618521
#
# Stress axis : x y z
#
# Youngs Moduli (GPa) = 73.32797 59.70212 50.26531
#
# Poissons Ratio (x) = 0.37843 -0.13321
# Poissons Ratio (y) = 0.46481 0.42020
# Poissons Ratio (z) = -0.19434 0.49909
#
# Static dielectric constant tensor:
#      x y z
#    x 3.096360 0.000000 0.000000 
#    y 0.000000 3.667480 0.000000 
#    z 0.000000 0.000000 3.140620 
# 
# 
# High freq. dielectric constant tensor:
#      x y z
#    x 1.674810 0.000000 0.000000 
#    y 0.000000 1.702470 0.000000 
#    z 0.000000 0.000000 1.672210 
# 
# From -- ./inp_files/21909.got.cif
#   From: 2010.03.12/outbox.cif.g09.slc.cpg/sg67_11_cif.got.tgz:21909.got - 2010.04.10 22:41:39.
