data_PCOD8280004
_publ_section_title
;
Structure prediction by ZEFSAII (Michael W. Deem and Ramdas Pophale) SiO2 
 PCOD8280004
Probable space group: C M M A
;
_chemical_formula_sum "Si O2"
_cell_formula_units_Z 96
_cell_length_a 28.474938
_cell_length_b 8.733485
_cell_length_c 20.689061
_cell_angle_alpha 90.000000
_cell_angle_beta 90.000000
_cell_angle_gamma 90.000000
_cell_volume 5145.068319
_symmetry_space_group_name_H-M "C M M A"
_symmetry_group_IT_number 67
_symmetry_cell_setting 'orthorhombic'
loop_
_space_group_symop_operation_xyz
x,y,z
-x,1/2-y,z
x,-y,-z
-x,1/2+y,-z
-x,-y,-z
x,1/2+y,-z
-x,y,z
x,1/2-y,z
1/2+x,1/2+y,z
1/2-x,-y,z
1/2+x,1/2-y,-z
1/2-x,y,-z
1/2-x,1/2-y,-z
1/2+x,y,-z
1/2-x,1/2+y,z
1/2+x,-y,z
loop_
_atom_site_type_symbol
_atom_site_label
_atom_site_fract_x
_atom_site_fract_y
_atom_site_fract_z
Si Si1 0.946981 0.928919 0.735733
Si Si2 0.301259 0.930203 0.190169
Si Si3 0.053198 0.927575 0.126090
Si Si4 0.142749 0.428698 0.692128
Si Si5 0.800139 0.430064 0.566762
Si Si6 0.639940 0.068565 0.934246
O O1 0.936484 0.750000 0.729944
O O2 0.000000 0.969104 0.714217
O O3 0.937969 0.977542 0.809069
O O4 0.911730 0.021609 0.689592
O O5 0.296283 0.750000 0.192262
O O6 0.327049 0.984059 0.124775
O O7 0.250000 0.000000 0.192798
O O8 0.330971 0.981669 0.251550
O O9 0.063955 0.750000 0.139947
O O10 0.000000 0.950315 0.101052
O O11 0.088268 0.994650 0.072828
O O12 0.147809 0.250000 0.706079
O O13 0.163984 0.474175 0.623133
O O14 0.819643 0.500000 0.500000
O O15 0.794317 0.250000 0.558421
O O16 0.750000 0.500000 0.585073
O O17 0.635586 0.250000 0.938887
O O18 0.662079 0.000000 0.000000
#
# Coordination Sequence:
#
# PCOD8280004 Si02
#       6
#    16  16  16  16  16  16
#     4  10  20  34  55  84 116 149 186 229 279 334
#     4  11  24  40  59  83 110 144 187 234 284 335
#     4  10  20  35  57  83 111 144 182 228 282 337
#     4  11  22  36  59  88 117 150 189 232 280 331
#     4  10  21  36  56  85 118 155 192 230 277 330
#     4  11  24  40  58  80 108 146 188 232 286 341
#
# _framework density 18.658643999999999
#
# number of rings (size 3 to 8) (size 9 to 14) (size 15 to 20)
#    0.000    1.500    1.667    4.000    0.000    8.667 
#    0.000    1.667    0.000    0.500    0.000    0.000 
#    0.000    0.000    0.000    0.000    0.000    0.000 
#
# Total GULP energy -595396.864674 kJ/mol
# GULP energy per Si atom -12404.101347 kJ/mol
# Density = 1.861618 g / cm^3
# Si number density = 18.658644 Si / 1000 Ang^3
#
#
#
# Elastic Constant Matrix: (Units=GPa)
#
#
# Indices 1 2 3 4 5 6 
#
# 1 109.5828 33.3594 58.8409 0.0000 0.0000 0.0000
# 2 33.3594 59.6106 40.4748 0.0000 0.0000 0.0000
# 3 58.8409 40.4748 118.0658 0.0000 0.0000 0.0000
# 4 0.0000 0.0000 0.0000 30.5069 0.0000 0.0000
# 5 0.0000 0.0000 0.0000 0.0000 29.0352 0.0000
# 6 0.0000 0.0000 0.0000 0.0000 0.0000 32.0926
#
#
#
# Elastic Compliance Matrix: (Units=1/GPa)
#
#
# Indices 1 2 3 4 5 6 
#
# 1 0.013080 -0.003772 -0.005226 0.000000 0.000000 0.000000
# 2 -0.003772 0.022953 -0.005989 0.000000 0.000000 0.000000
# 3 -0.005226 -0.005989 0.013127 0.000000 0.000000 0.000000
# 4 0.000000 0.000000 0.000000 0.032779 0.000000 0.000000
# 5 0.000000 0.000000 0.000000 0.000000 0.034441 0.000000
# 6 0.000000 0.000000 0.000000 0.000000 0.000000 0.031160
#
#
# Mechanical properties :
#
#
# Convention : Reuss Voigt Hill
#
# Bulk Modulus (GPa) = 52.11754 61.40105 56.75929
# Shear Modulus (GPa) = 27.18763 28.63255 27.91009
#
# Velocity S-wave (km/s) = 3.82135 3.92158 3.87179
# Velocity P-wave (km/s) = 6.88934 7.31328 7.10447
#
# Compressibility (1/GPa) = 0.01918740
#
# Stress axis : x y z
#
# Youngs Moduli (GPa) = 76.45536 43.56819 76.17765
#
# Poissons Ratio (x) = 0.16432 0.39807
# Poissons Ratio (y) = 0.28835 0.45622
# Poissons Ratio (z) = 0.39952 0.26092
#
# Static dielectric constant tensor:
#      x y z
#    x 3.452660 0.000000 0.000000 
#    y 0.000000 3.540270 0.000000 
#    z 0.000000 0.000000 3.387610 
# 
# 
# High freq. dielectric constant tensor:
#      x y z
#    x 1.728140 0.000000 0.000000 
#    y 0.000000 1.742340 0.000000 
#    z 0.000000 0.000000 1.710380 
# 
# From -- ./inp_files/37153.got.cif
#   From: 2010.03.12/outbox.cif.g09.slc.cpg/sg67_19_cif.got.tgz:37153.got - 2010.04.10 22:41:39.
