data_PCOD8280967
_publ_section_title
;
Structure prediction by ZEFSAII (Michael W. Deem and Ramdas Pophale) SiO2 
 PCOD8280967
Probable space group: C M M A
;
_chemical_formula_sum "Si O2"
_cell_formula_units_Z 112
_cell_length_a 15.009199
_cell_length_b 15.665932
_cell_length_c 23.499984
_cell_angle_alpha 90.000000
_cell_angle_beta 90.000000
_cell_angle_gamma 90.000000
_cell_volume 5525.623874
_symmetry_space_group_name_H-M "C M M A"
_symmetry_group_IT_number 67
_symmetry_cell_setting 'orthorhombic'
loop_
_space_group_symop_operation_xyz
x,y,z
-x,1/2-y,z
x,-y,-z
-x,1/2+y,-z
-x,-y,-z
x,1/2+y,-z
-x,y,z
x,1/2-y,z
1/2+x,1/2+y,z
1/2-x,-y,z
1/2+x,1/2-y,-z
1/2-x,y,-z
1/2-x,1/2-y,-z
1/2+x,y,-z
1/2-x,1/2+y,z
1/2+x,-y,z
loop_
_atom_site_type_symbol
_atom_site_label
_atom_site_fract_x
_atom_site_fract_y
_atom_site_fract_z
Si Si1 0.902155 0.149455 0.064723
Si Si2 0.251528 0.898046 0.728072
Si Si3 0.896905 0.652789 0.644223
Si Si4 0.605190 0.501030 0.436875
Si Si5 0.254200 0.096747 0.146224
Si Si6 0.897077 0.346932 0.641930
Si Si7 0.896394 0.652982 0.060499
O O1 0.908878 0.250000 0.057700
O O2 0.832046 0.125725 0.112063
O O3 0.000000 0.113415 0.081961
O O4 0.875293 0.113422 0.002080
O O5 0.161414 0.861053 0.700508
O O6 0.256683 0.858568 0.792065
O O7 0.339196 0.861339 0.697987
O O8 0.250000 0.000000 0.724350
O O9 0.884697 0.750000 0.621668
O O10 0.862572 0.586133 0.596302
O O11 0.000000 0.635078 0.660094
O O12 0.647833 0.500000 0.500000
O O13 0.500000 0.503262 0.441734
O O14 0.636134 0.414245 0.405567
O O15 0.343031 0.105496 0.109386
O O16 0.250000 0.000000 0.162967
O O17 0.883906 0.250000 0.619064
O O18 0.000000 0.363764 0.658029
O O19 0.863564 0.750000 0.062367
O O20 0.000000 0.644176 0.074663
#
# Coordination Sequence:
#
# PCOD8280967 Si02
#       7
#    16  16  16  16  16  16  16
#     4   9  19  37  59  81 109 147 187 230 284 342
#     4  11  23  40  58  77 113 158 196 239 291 346
#     4  10  21  38  61  87 116 154 197 240 290 346
#     4   9  18  35  61  91 122 155 189 234 292 346
#     4  11  24  36  53  84 114 146 187 234 286 337
#     4  10  21  38  61  87 116 154 197 240 290 346
#     4   9  19  37  59  81 109 147 187 230 284 342
#
# _framework density 20.269204999999999
#
# number of rings (size 3 to 8) (size 9 to 14) (size 15 to 20)
#    0.000    2.143    1.429    2.143    0.000    6.857 
#    0.000   11.429    0.000    1.714    0.000    0.000 
#    0.000    0.000    0.000    0.000    0.000    0.000 
#
# Total GULP energy -694173.757990 kJ/mol
# GULP energy per Si atom -12395.959964 kJ/mol
# Density = 2.022307 g / cm^3
# Si number density = 20.269205 Si / 1000 Ang^3
#
#
#
# Elastic Constant Matrix: (Units=GPa)
#
#
# Indices 1 2 3 4 5 6 
#
# 1 92.5107 26.6877 68.4079 0.0000 0.0000 0.0000
# 2 26.6877 105.3493 50.9362 0.0000 0.0000 0.0000
# 3 68.4079 50.9362 181.1333 0.0000 0.0000 0.0000
# 4 0.0000 0.0000 0.0000 11.4427 0.0000 0.0000
# 5 0.0000 0.0000 0.0000 0.0000 -25.8027 0.0000
# 6 0.0000 0.0000 0.0000 0.0000 0.0000 -996.0692
#
#
#
# Elastic Compliance Matrix: (Units=1/GPa)
#
#
# Indices 1 2 3 4 5 6 
#
# 1 0.015137 -0.001239 -0.005368 0.000000 0.000000 0.000000
# 2 -0.001239 0.011087 -0.002650 0.000000 0.000000 0.000000
# 3 -0.005368 -0.002650 0.008293 0.000000 0.000000 0.000000
# 4 0.000000 0.000000 0.000000 0.087392 0.000000 0.000000
# 5 0.000000 0.000000 0.000000 0.000000 -0.038756 0.000000
# 6 0.000000 0.000000 0.000000 0.000000 0.000000 -0.001004
#
#
# Mechanical properties :
#
#
# Convention : Reuss Voigt Hill
#
# Bulk Modulus (GPa) = 62.48796 74.56188 68.52492
# Shear Modulus (GPa) = 47.17077 -186.55506 -69.69214
#
# Velocity S-wave (km/s) = 4.82935 -9.60409 -5.87009
# Velocity P-wave (km/s) = 7.87355 9.28003 3.47319
#
# Compressibility (1/GPa) = 0.01600308
#
# Stress axis : x y z
#
# Youngs Moduli (GPa) = 66.06545 90.19299 120.57867
#
# Poissons Ratio (x) = 0.11175 0.64728
# Poissons Ratio (y) = 0.08185 0.31952
# Poissons Ratio (z) = 0.35465 0.23900
#
# Static dielectric constant tensor:
#      x y z
#    x 3.547650 0.000000 0.000000 
#    y 0.000000 3.761730 0.000000 
#    z 0.000000 0.000000 3.821870 
# 
# 
# High freq. dielectric constant tensor:
#      x y z
#    x 1.794510 0.000000 0.000000 
#    y 0.000000 1.793630 0.000000 
#    z 0.000000 0.000000 1.784280 
# 
# From -- ./inp_files/41973.got.cif
#   From: 2010.03.12/outbox.cif.g09.slc.cpg/sg67_21_cif.got.tgz:41973.got - 2010.04.10 22:41:39.
