data_PCOD8280443
_publ_section_title
;
Structure prediction by ZEFSAII (Michael W. Deem and Ramdas Pophale) SiO2 
 PCOD8280443
Probable space group: C M M A
;
_chemical_formula_sum "Si O2"
_cell_formula_units_Z 96
_cell_length_a 20.657501
_cell_length_b 14.779802
_cell_length_c 14.506372
_cell_angle_alpha 90.000000
_cell_angle_beta 90.000000
_cell_angle_gamma 90.000000
_cell_volume 4428.995191
_symmetry_space_group_name_H-M "C M M A"
_symmetry_group_IT_number 67
_symmetry_cell_setting 'orthorhombic'
loop_
_space_group_symop_operation_xyz
x,y,z
-x,1/2-y,z
x,-y,-z
-x,1/2+y,-z
-x,-y,-z
x,1/2+y,-z
-x,y,z
x,1/2-y,z
1/2+x,1/2+y,z
1/2-x,-y,z
1/2+x,1/2-y,-z
1/2-x,y,-z
1/2-x,1/2-y,-z
1/2+x,y,-z
1/2-x,1/2+y,z
1/2+x,-y,z
loop_
_atom_site_type_symbol
_atom_site_label
_atom_site_fract_x
_atom_site_fract_y
_atom_site_fract_z
Si Si1 0.692666 0.351102 0.056713
Si Si2 0.424698 0.531805 0.248940
Si Si3 0.188291 0.354776 0.549716
Si Si4 0.851744 0.355631 0.748884
Si Si5 0.927789 0.907002 0.947475
Si Si6 0.925776 0.643350 0.576324
O O1 0.717033 0.250000 0.071778
O O2 0.686180 0.390059 0.160198
O O3 0.750000 0.403201 0.000000
O O4 0.624263 0.347999 0.003080
O O5 0.500000 0.544010 0.242588
O O6 0.411408 0.424696 0.260761
O O7 0.397723 0.574667 0.153872
O O8 0.398405 0.590511 0.334409
O O9 0.190541 0.250000 0.525331
O O10 0.250000 0.402367 0.500000
O O11 0.193220 0.370331 0.659356
O O12 0.119678 0.389630 0.508404
O O13 0.875266 0.250000 0.755947
O O14 0.000000 0.860985 0.944967
O O15 0.934811 0.000000 0.000000
O O16 0.920637 0.750000 0.596404
O O17 0.000000 0.616750 0.552259
#
# Coordination Sequence:
#
# PCOD8280443 Si02
#       6
#    16  16  16  16  16  16
#     4  10  22  39  59  86 118 152 195 245 293 350
#     4  10  21  37  59  88 118 151 195 243 288 344
#     4   9  19  37  60  84 115 153 191 238 291 344
#     4  10  21  38  58  83 115 152 193 238 294 352
#     4  10  20  37  57  81 116 153 191 238 290 346
#     4   9  19  37  59  84 116 153 194 240 289 341
#
# _framework density 21.675345
#
# number of rings (size 3 to 8) (size 9 to 14) (size 15 to 20)
#    0.000    2.333    1.667    0.000    0.000    4.333 
#    0.000   13.333    0.000    0.000    0.000    0.000 
#    0.000    0.000    0.000    0.000    0.000    0.000 
#
# Total GULP energy -594700.325095 kJ/mol
# GULP energy per Si atom -12389.590106 kJ/mol
# Density = 2.162601 g / cm^3
# Si number density = 21.675345 Si / 1000 Ang^3
#
#
#
# Elastic Constant Matrix: (Units=GPa)
#
#
# Indices 1 2 3 4 5 6 
#
# 1 106.6594 13.5739 71.5655 0.0000 0.0000 0.0000
# 2 13.5739 49.7102 29.8524 0.0000 0.0000 0.0000
# 3 71.5655 29.8524 179.0368 0.0000 0.0000 0.0000
# 4 0.0000 0.0000 0.0000 26.6455 0.0000 0.0000
# 5 0.0000 0.0000 0.0000 0.0000 27.6230 0.0000
# 6 0.0000 0.0000 0.0000 0.0000 0.0000 23.9123
#
#
#
# Elastic Compliance Matrix: (Units=1/GPa)
#
#
# Indices 1 2 3 4 5 6 
#
# 1 0.012822 -0.000470 -0.005047 0.000000 0.000000 0.000000
# 2 -0.000470 0.022372 -0.003542 0.000000 0.000000 0.000000
# 3 -0.005047 -0.003542 0.008193 0.000000 0.000000 0.000000
# 4 0.000000 0.000000 0.000000 0.037530 0.000000 0.000000
# 5 0.000000 0.000000 0.000000 0.000000 0.036202 0.000000
# 6 0.000000 0.000000 0.000000 0.000000 0.000000 0.041820
#
#
# Mechanical properties :
#
#
# Convention : Reuss Voigt Hill
#
# Bulk Modulus (GPa) = 39.57493 62.82111 51.19802
# Shear Modulus (GPa) = 26.95706 30.33046 28.64376
#
# Velocity S-wave (km/s) = 3.53040 3.74479 3.63917
# Velocity P-wave (km/s) = 5.90898 6.90967 6.42883
#
# Compressibility (1/GPa) = 0.02526852
#
# Stress axis : x y z
#
# Youngs Moduli (GPa) = 77.99270 44.69817 122.04979
#
# Poissons Ratio (x) = 0.02103 0.61595
# Poissons Ratio (y) = 0.03669 0.43234
# Poissons Ratio (z) = 0.39361 0.15833
#
# Static dielectric constant tensor:
#      x y z
#    x 4.060370 0.000000 0.000000 
#    y 0.000000 3.674860 0.000000 
#    z 0.000000 0.000000 4.515580 
# 
# 
# High freq. dielectric constant tensor:
#      x y z
#    x 1.833830 0.000000 0.000000 
#    y 0.000000 1.831780 0.000000 
#    z 0.000000 0.000000 1.867920 
# 
# From -- ./inp_files/29290.got.cif
#   From: 2010.03.12/outbox.cif.g09.slc.cpg/sg67_15_cif.got.tgz:29290.got - 2010.04.10 22:41:39.
