data_PCOD8280017
_publ_section_title
;
Structure prediction by ZEFSAII (Michael W. Deem and Ramdas Pophale) SiO2 
 PCOD8280017
Probable space group: C M M A
;
_chemical_formula_sum "Si O2"
_cell_formula_units_Z 80
_cell_length_a 17.901940
_cell_length_b 18.016082
_cell_length_c 13.489200
_cell_angle_alpha 90.000000
_cell_angle_beta 90.000000
_cell_angle_gamma 90.000000
_cell_volume 4350.574810
_symmetry_space_group_name_H-M "C M M A"
_symmetry_group_IT_number 67
_symmetry_cell_setting 'orthorhombic'
loop_
_space_group_symop_operation_xyz
x,y,z
-x,1/2-y,z
x,-y,-z
-x,1/2+y,-z
-x,-y,-z
x,1/2+y,-z
-x,y,z
x,1/2-y,z
1/2+x,1/2+y,z
1/2-x,-y,z
1/2+x,1/2-y,-z
1/2-x,y,-z
1/2-x,1/2-y,-z
1/2+x,y,-z
1/2-x,1/2+y,z
1/2+x,-y,z
loop_
_atom_site_type_symbol
_atom_site_label
_atom_site_fract_x
_atom_site_fract_y
_atom_site_fract_z
Si Si1 0.586449 0.426192 0.436256
Si Si2 0.840921 0.163966 0.400073
Si Si3 0.919417 0.163168 0.200234
Si Si4 0.283891 0.420839 0.293226
Si Si5 0.730942 0.338370 0.890389
O O1 0.598841 0.500000 0.500000
O O2 0.500000 0.412866 0.410114
O O3 0.619384 0.357394 0.497830
O O4 0.631898 0.431262 0.333322
O O5 0.818699 0.250000 0.402746
O O6 0.900226 0.145833 0.313947
O O7 0.764912 0.118592 0.379474
O O8 0.925872 0.250000 0.182735
O O9 0.853370 0.132634 0.130465
O O10 0.000000 0.125898 0.175165
O O11 0.250000 0.500000 0.266208
O O12 0.286136 0.372873 0.191945
O O13 0.737708 0.250000 0.880766
O O14 0.750000 0.366621 0.000000
#
# Coordination Sequence:
#
# PCOD8280017 Si02
#       5
#    16  16  16  16  16
#     4  11  23  37  53  79 118 155 184 224 282 339
#     4  10  20  34  56  82 108 144 190 235 272 323
#     4   8  14  27  49  78 105 130 169 221 275 326
#     4  11  21  36  57  80 107 147 190 228 274 341
#     4   9  19  36  56  79 108 141 183 240 293 337
#
# _framework density 18.388373999999999
#
# number of rings (size 3 to 8) (size 9 to 14) (size 15 to 20)
#    0.000    2.200    2.000    3.000    0.000    4.000 
#    0.000    1.000    0.000    1.200    0.000    4.200 
#    0.000    0.000    0.000    0.000    0.000    0.000 
#
# Total GULP energy -495914.198374 kJ/mol
# GULP energy per Si atom -12397.854959 kJ/mol
# Density = 1.834652 g / cm^3
# Si number density = 18.388374 Si / 1000 Ang^3
#
#
#
# Elastic Constant Matrix: (Units=GPa)
#
#
# Indices 1 2 3 4 5 6 
#
# 1 121.0690 22.4857 62.2117 0.0000 0.0000 0.0000
# 2 22.4857 57.7111 20.2462 0.0000 0.0000 0.0000
# 3 62.2117 20.2462 113.5145 0.0000 0.0000 0.0000
# 4 0.0000 0.0000 0.0000 23.9031 0.0000 0.0000
# 5 0.0000 0.0000 0.0000 0.0000 21.6483 0.0000
# 6 0.0000 0.0000 0.0000 0.0000 0.0000 19.3119
#
#
#
# Elastic Compliance Matrix: (Units=1/GPa)
#
#
# Indices 1 2 3 4 5 6 
#
# 1 0.011824 -0.002489 -0.006036 0.000000 0.000000 0.000000
# 2 -0.002489 0.019008 -0.002026 0.000000 0.000000 0.000000
# 3 -0.006036 -0.002026 0.012479 0.000000 0.000000 0.000000
# 4 0.000000 0.000000 0.000000 0.041836 0.000000 0.000000
# 5 0.000000 0.000000 0.000000 0.000000 0.046193 0.000000
# 6 0.000000 0.000000 0.000000 0.000000 0.000000 0.051782
#
#
# Mechanical properties :
#
#
# Convention : Reuss Voigt Hill
#
# Bulk Modulus (GPa) = 45.02830 55.79799 50.41315
# Shear Modulus (GPa) = 23.62653 25.46272 24.54463
#
# Velocity S-wave (km/s) = 3.58839 3.72522 3.65744
# Velocity P-wave (km/s) = 6.45827 6.99379 6.73135
#
# Compressibility (1/GPa) = 0.02220825
#
# Stress axis : x y z
#
# Youngs Moduli (GPa) = 84.57594 52.60846 80.13566
#
# Poissons Ratio (x) = 0.13096 0.48370
# Poissons Ratio (y) = 0.21053 0.16236
# Poissons Ratio (z) = 0.51050 0.10659
#
# Static dielectric constant tensor:
#      x y z
#    x 3.678120 0.000000 0.000000 
#    y 0.000000 3.277300 0.000000 
#    z 0.000000 0.000000 3.300660 
# 
# 
# High freq. dielectric constant tensor:
#      x y z
#    x 1.712820 0.000000 0.000000 
#    y 0.000000 1.700830 0.000000 
#    z 0.000000 0.000000 1.692460 
# 
# From -- ./inp_files/28380.got.cif
#   From: 2010.03.12/outbox.cif.g09.slc.cpg/sg67_15_cif.got.tgz:28380.got - 2010.04.10 22:41:39.
