data_PCOD8280104
_publ_section_title
;
Structure prediction by ZEFSAII (Michael W. Deem and Ramdas Pophale) SiO2 
 PCOD8280104
Probable space group: C M M A
;
_chemical_formula_sum "Si O2"
_cell_formula_units_Z 88
_cell_length_a 28.215899
_cell_length_b 8.774615
_cell_length_c 19.339640
_cell_angle_alpha 90.000000
_cell_angle_beta 90.000000
_cell_angle_gamma 90.000000
_cell_volume 4788.178673
_symmetry_space_group_name_H-M "C M M A"
_symmetry_group_IT_number 67
_symmetry_cell_setting 'orthorhombic'
loop_
_space_group_symop_operation_xyz
x,y,z
-x,1/2-y,z
x,-y,-z
-x,1/2+y,-z
-x,-y,-z
x,1/2+y,-z
-x,y,z
x,1/2-y,z
1/2+x,1/2+y,z
1/2-x,-y,z
1/2+x,1/2-y,-z
1/2-x,y,-z
1/2-x,1/2-y,-z
1/2+x,y,-z
1/2-x,1/2+y,z
1/2+x,-y,z
loop_
_atom_site_type_symbol
_atom_site_label
_atom_site_fract_x
_atom_site_fract_y
_atom_site_fract_z
Si Si1 0.800817 0.430641 0.829487
Si Si2 0.052240 0.072639 0.193885
Si Si3 0.897549 0.071419 0.425994
Si Si4 0.361334 0.930777 0.283479
Si Si5 0.000000 0.071455 0.426436
Si Si6 0.120897 0.071782 0.074076
O O1 0.798257 0.250000 0.831149
O O2 0.750000 0.500000 0.845499
O O3 0.817785 0.485479 0.753530
O O4 0.835397 0.489610 0.889077
O O5 0.046105 0.250000 0.208332
O O6 0.089418 0.008030 0.250078
O O7 0.072865 0.043359 0.117346
O O8 0.000000 0.994799 0.200878
O O9 0.897260 0.250000 0.439199
O O10 0.860476 0.027662 0.365388
O O11 0.949395 0.020050 0.394340
O O12 0.883963 0.000000 0.500000
O O13 0.356360 0.750000 0.270889
O O14 0.000000 0.250000 0.432365
O O15 0.000000 0.000000 0.500000
O O16 0.132791 0.250000 0.068214
O O17 0.112057 0.000000 0.000000
#
# Coordination Sequence:
#
# PCOD8280104 Si02
#       6
#    16  16  16  16   8  16
#     4  11  22  38  59  80 103 131 165 209 262 316
#     4   8  15  28  48  73 102 139 180 216 250 292
#     4   9  17  28  45  70 102 139 177 217 258 303
#     4   9  18  32  51  76 104 136 176 218 259 308
#     4   8  14  24  38  62  94 132 171 206 245 290
#     4  10  20  35  54  80 110 139 174 212 253 301
#
# _framework density 18.378596000000002
#
# number of rings (size 3 to 8) (size 9 to 14) (size 15 to 20)
#    0.000    2.727    0.000    3.273    1.273    1.455 
#    0.000    1.818    0.000   13.636    0.000    3.818 
#    0.000    0.000    0.000    0.000    0.000    0.000 
#
# Total GULP energy -545095.536049 kJ/mol
# GULP energy per Si atom -12388.534910 kJ/mol
# Density = 1.833677 g / cm^3
# Si number density = 18.378596 Si / 1000 Ang^3
#
#
#
# Elastic Constant Matrix: (Units=GPa)
#
#
# Indices 1 2 3 4 5 6 
#
# 1 65.0727 19.2830 4.2572 0.0000 0.0000 0.0000
# 2 19.2830 68.1812 25.9370 0.0000 0.0000 0.0000
# 3 4.2572 25.9370 94.2817 0.0000 0.0000 0.0000
# 4 0.0000 0.0000 0.0000 28.5798 0.0000 0.0000
# 5 0.0000 0.0000 0.0000 0.0000 17.7453 0.0000
# 6 0.0000 0.0000 0.0000 0.0000 0.0000 19.5055
#
#
#
# Elastic Compliance Matrix: (Units=1/GPa)
#
#
# Indices 1 2 3 4 5 6 
#
# 1 0.016805 -0.004986 0.000613 0.000000 0.000000 0.000000
# 2 -0.004986 0.017860 -0.004688 0.000000 0.000000 0.000000
# 3 0.000613 -0.004688 0.011869 0.000000 0.000000 0.000000
# 4 0.000000 0.000000 0.000000 0.034990 0.000000 0.000000
# 5 0.000000 0.000000 0.000000 0.000000 0.056353 0.000000
# 6 0.000000 0.000000 0.000000 0.000000 0.000000 0.051267
#
#
# Mechanical properties :
#
#
# Convention : Reuss Voigt Hill
#
# Bulk Modulus (GPa) = 35.19749 36.27667 35.73708
# Shear Modulus (GPa) = 23.06944 25.03669 24.05306
#
# Velocity S-wave (km/s) = 3.54677 3.69490 3.62160
# Velocity P-wave (km/s) = 5.99714 6.16315 6.08071
#
# Compressibility (1/GPa) = 0.02841112
#
# Stress axis : x y z
#
# Youngs Moduli (GPa) = 59.50684 55.98980 84.25596
#
# Poissons Ratio (x) = 0.27916 -0.05163
# Poissons Ratio (y) = 0.29669 0.39502
# Poissons Ratio (z) = -0.03647 0.26250
#
# Static dielectric constant tensor:
#      x y z
#    x 3.403130 0.000000 0.000000 
#    y 0.000000 3.204540 0.000000 
#    z 0.000000 0.000000 3.397280 
# 
# 
# High freq. dielectric constant tensor:
#      x y z
#    x 1.699890 0.000000 0.000000 
#    y 0.000000 1.692450 0.000000 
#    z 0.000000 0.000000 1.713540 
# 
# From -- ./inp_files/36140.got.cif
#   From: 2010.03.12/outbox.cif.g09.slc.cpg/sg67_19_cif.got.tgz:36140.got - 2010.04.10 22:41:39.
