data_PCOD8280260
_publ_section_title
;
Structure prediction by ZEFSAII (Michael W. Deem and Ramdas Pophale) SiO2 
 PCOD8280260
Probable space group: C M M A
;
_chemical_formula_sum "Si O2"
_cell_formula_units_Z 112
_cell_length_a 27.396964
_cell_length_b 15.524037
_cell_length_c 13.521813
_cell_angle_alpha 90.000000
_cell_angle_beta 90.000000
_cell_angle_gamma 90.000000
_cell_volume 5750.982337
_symmetry_space_group_name_H-M "C M M A"
_symmetry_group_IT_number 67
_symmetry_cell_setting 'orthorhombic'
loop_
_space_group_symop_operation_xyz
x,y,z
-x,1/2-y,z
x,-y,-z
-x,1/2+y,-z
-x,-y,-z
x,1/2+y,-z
-x,y,z
x,1/2-y,z
1/2+x,1/2+y,z
1/2-x,-y,z
1/2+x,1/2-y,-z
1/2-x,y,-z
1/2-x,1/2-y,-z
1/2+x,y,-z
1/2-x,1/2+y,z
1/2+x,-y,z
loop_
_atom_site_type_symbol
_atom_site_label
_atom_site_fract_x
_atom_site_fract_y
_atom_site_fract_z
Si Si1 0.556436 0.849175 0.255312
Si Si2 0.057175 0.495727 0.887639
Si Si3 0.228140 0.850003 0.102199
Si Si4 0.625455 0.350813 0.185629
Si Si5 0.237702 0.905624 0.691989
Si Si6 0.167275 0.346778 0.610301
Si Si7 0.359149 0.850662 0.399969
O O1 0.500000 0.861403 0.284926
O O2 0.566276 0.750000 0.220246
O O3 0.587882 0.871101 0.353440
O O4 0.571531 0.915086 0.167860
O O5 0.080185 0.410167 0.841423
O O6 0.000000 0.480665 0.881395
O O7 0.075488 0.500000 0.000000
O O8 0.241220 0.750000 0.113483
O O9 0.169768 0.863884 0.107868
O O10 0.254915 0.898332 0.190898
O O11 0.250000 0.887189 0.000000
O O12 0.609892 0.250000 0.188050
O O13 0.642594 0.387558 0.292450
O O14 0.274011 0.846415 0.626376
O O15 0.181396 0.886898 0.673452
O O16 0.250000 0.000000 0.654694
O O17 0.148721 0.250000 0.604998
O O18 0.148483 0.393057 0.509358
O O19 0.350116 0.750000 0.409321
#
# Coordination Sequence:
#
# PCOD8280260 Si02
#       7
#    16  16  16  16  16  16  16
#     4   9  20  39  60  84 114 146 187 241 291 334
#     4  10  22  39  59  84 113 145 186 234 284 338
#     4   9  19  37  56  75 107 149 192 233 277 334
#     4   9  19  37  59  83 114 150 184 229 284 334
#     4  11  22  32  48  82 117 147 183 229 275 332
#     4   9  19  37  55  76 111 150 184 225 278 333
#     4  10  20  35  59  82 106 148 193 231 278 336
#
# _framework density 19.474934999999999
#
# number of rings (size 3 to 8) (size 9 to 14) (size 15 to 20)
#    0.000    2.429    0.000    2.571    4.000    4.571 
#    0.000    5.000    0.000    4.286    0.000    0.000 
#    0.000    0.571    0.000    0.000    0.000    0.000 
#
# Total GULP energy -694135.440421 kJ/mol
# GULP energy per Si atom -12395.275722 kJ/mol
# Density = 1.943061 g / cm^3
# Si number density = 19.474935 Si / 1000 Ang^3
#
#
#
# Elastic Constant Matrix: (Units=GPa)
#
#
# Indices 1 2 3 4 5 6 
#
# 1 83.3462 40.7934 59.8785 0.0000 0.0000 0.0000
# 2 40.7934 69.8851 42.0833 0.0000 0.0000 0.0000
# 3 59.8785 42.0833 140.2783 0.0000 0.0000 0.0000
# 4 0.0000 0.0000 0.0000 22.1053 0.0000 0.0000
# 5 0.0000 0.0000 0.0000 0.0000 26.6278 0.0000
# 6 0.0000 0.0000 0.0000 0.0000 0.0000 24.3472
#
#
#
# Elastic Compliance Matrix: (Units=1/GPa)
#
#
# Indices 1 2 3 4 5 6 
#
# 1 0.020540 -0.008190 -0.006311 0.000000 0.000000 0.000000
# 2 -0.008190 0.020729 -0.002723 0.000000 0.000000 0.000000
# 3 -0.006311 -0.002723 0.010639 0.000000 0.000000 0.000000
# 4 0.000000 0.000000 0.000000 0.045238 0.000000 0.000000
# 5 0.000000 0.000000 0.000000 0.000000 0.037555 0.000000
# 6 0.000000 0.000000 0.000000 0.000000 0.000000 0.041072
#
#
# Mechanical properties :
#
#
# Convention : Reuss Voigt Hill
#
# Bulk Modulus (GPa) = 57.26657 64.33557 60.80107
# Shear Modulus (GPa) = 23.14361 24.66635 23.90498
#
# Velocity S-wave (km/s) = 3.45103 3.56275 3.50733
# Velocity P-wave (km/s) = 6.73413 7.07326 6.90578
#
# Compressibility (1/GPa) = 0.01746219
#
# Stress axis : x y z
#
# Youngs Moduli (GPa) = 48.68439 48.24072 93.98987
#
# Poissons Ratio (x) = 0.39507 0.59316
# Poissons Ratio (y) = 0.39871 0.25594
# Poissons Ratio (z) = 0.30724 0.13136
#
# Static dielectric constant tensor:
#      x y z
#    x 3.398220 0.000000 0.000000 
#    y 0.000000 3.471590 0.000000 
#    z 0.000000 0.000000 3.812780 
# 
# 
# High freq. dielectric constant tensor:
#      x y z
#    x 1.744330 0.000000 0.000000 
#    y 0.000000 1.755080 0.000000 
#    z 0.000000 0.000000 1.760650 
# 
# From -- ./inp_files/30183.got.cif
#   From: 2010.03.12/outbox.cif.g09.slc.cpg/sg67_16_cif.got.tgz:30183.got - 2010.04.10 22:41:39.
