data_PCOD8280881
_publ_section_title
;
Structure prediction by ZEFSAII (Michael W. Deem and Ramdas Pophale) SiO2 
 PCOD8280881
Probable space group: C M M A
;
_chemical_formula_sum "Si O2"
_cell_formula_units_Z 100
_cell_length_a 9.133628
_cell_length_b 29.386070
_cell_length_c 19.531527
_cell_angle_alpha 90.000000
_cell_angle_beta 90.000000
_cell_angle_gamma 90.000000
_cell_volume 5242.289811
_symmetry_space_group_name_H-M "C M M A"
_symmetry_group_IT_number 67
_symmetry_cell_setting 'orthorhombic'
loop_
_space_group_symop_operation_xyz
x,y,z
-x,1/2-y,z
x,-y,-z
-x,1/2+y,-z
-x,-y,-z
x,1/2+y,-z
-x,y,z
x,1/2-y,z
1/2+x,1/2+y,z
1/2-x,-y,z
1/2+x,1/2-y,-z
1/2-x,y,-z
1/2-x,1/2-y,-z
1/2+x,y,-z
1/2-x,1/2+y,z
1/2+x,-y,z
loop_
_atom_site_type_symbol
_atom_site_label
_atom_site_fract_x
_atom_site_fract_y
_atom_site_fract_z
Si Si1 0.663263 0.434061 0.614295
Si Si2 0.829016 0.139287 0.816971
Si Si3 0.250000 0.500000 0.500000
Si Si4 0.671814 0.198301 0.928290
Si Si5 0.828514 0.164928 0.431827
Si Si6 0.835596 0.800549 0.308976
Si Si7 0.172272 0.544502 0.247863
O O1 0.500000 0.429385 0.645080
O O2 0.654103 0.468792 0.550563
O O3 0.720901 0.386208 0.585814
O O4 0.771347 0.448841 0.674706
O O5 0.733703 0.159860 0.877902
O O6 0.780816 0.164989 0.748492
O O7 0.792546 0.086284 0.803330
O O8 0.000000 0.146938 0.833396
O O9 0.500000 0.190114 0.937629
O O10 0.702729 0.250000 0.901729
O O11 0.750000 0.190538 0.000000
O O12 0.750000 0.181647 0.500000
O O13 0.775408 0.197826 0.371795
O O14 0.000000 0.169811 0.442143
O O15 0.832275 0.750000 0.277652
O O16 0.000000 0.813624 0.332981
O O17 0.250000 0.500000 0.215864
O O18 0.000000 0.536250 0.253445
#
# Coordination Sequence:
#
# PCOD8280881 Si02
#       7
#    16  16   4  16  16  16  16
#     4  11  23  36  53  78 107 141 182 235 295 354
#     4  10  21  38  61  88 120 159 196 239 292 347
#     4  12  22  36  56  82 108 136 188 244 306 368
#     4  10  21  37  61  95 132 167 201 240 286 342
#     4  11  23  38  55  76 105 141 184 235 292 354
#     4  10  21  38  59  82 109 145 190 238 289 347
#     4  11  23  38  59  84 115 151 193 241 291 346
#
# _framework density 19.075634000000001
#
# number of rings (size 3 to 8) (size 9 to 14) (size 15 to 20)
#    0.000    1.440    3.200    2.160    0.000    5.440 
#    0.000    0.000    0.000    0.480    0.000    3.360 
#    0.000    0.000    0.000    0.000    0.000    0.000 
#
# Total GULP energy -620051.886090 kJ/mol
# GULP energy per Si atom -12401.037722 kJ/mol
# Density = 1.903222 g / cm^3
# Si number density = 19.075634 Si / 1000 Ang^3
#
#
#
# Elastic Constant Matrix: (Units=GPa)
#
#
# Indices 1 2 3 4 5 6 
#
# 1 105.9267 52.4961 59.2801 0.0000 0.0000 0.0000
# 2 52.4961 108.8712 55.1350 0.0000 0.0000 0.0000
# 3 59.2801 55.1350 101.1299 0.0000 0.0000 0.0000
# 4 0.0000 0.0000 0.0000 29.8582 0.0000 0.0000
# 5 0.0000 0.0000 0.0000 0.0000 32.6448 0.0000
# 6 0.0000 0.0000 0.0000 0.0000 0.0000 26.5097
#
#
#
# Elastic Compliance Matrix: (Units=1/GPa)
#
#
# Indices 1 2 3 4 5 6 
#
# 1 0.015149 -0.003878 -0.006765 0.000000 0.000000 0.000000
# 2 -0.003878 0.013681 -0.005186 0.000000 0.000000 0.000000
# 3 -0.006765 -0.005186 0.016681 0.000000 0.000000 0.000000
# 4 0.000000 0.000000 0.000000 0.033492 0.000000 0.000000
# 5 0.000000 0.000000 0.000000 0.000000 0.030633 0.000000
# 6 0.000000 0.000000 0.000000 0.000000 0.000000 0.037722
#
#
# Mechanical properties :
#
#
# Convention : Reuss Voigt Hill
#
# Bulk Modulus (GPa) = 72.18863 72.19448 72.19156
# Shear Modulus (GPa) = 27.22814 27.73698 27.48256
#
# Velocity S-wave (km/s) = 3.78216 3.81734 3.79979
# Velocity P-wave (km/s) = 7.54974 7.57351 7.56163
#
# Compressibility (1/GPa) = 0.01385260
#
# Stress axis : x y z
#
# Youngs Moduli (GPa) = 66.01234 73.09237 59.94804
#
# Poissons Ratio (x) = 0.28347 0.40557
# Poissons Ratio (y) = 0.25602 0.31086
# Poissons Ratio (z) = 0.44660 0.37902
#
# Static dielectric constant tensor:
#      x y z
#    x 3.452900 0.000000 0.000000 
#    y 0.000000 3.726470 0.000000 
#    z 0.000000 0.000000 3.274700 
# 
# 
# High freq. dielectric constant tensor:
#      x y z
#    x 1.746460 0.000000 0.000000 
#    y 0.000000 1.750310 0.000000 
#    z 0.000000 0.000000 1.716850 
# 
# From -- ./inp_files/37531.got.cif
#   From: 2010.03.12/outbox.cif.g09.slc.cpg/sg67_19_cif.got.tgz:37531.got - 2010.04.10 22:41:39.
