data_PCOD8280827
_publ_section_title
;
Structure prediction by ZEFSAII (Michael W. Deem and Ramdas Pophale) SiO2 
 PCOD8280827
Probable space group: C M M A
;
_chemical_formula_sum "Si O2"
_cell_formula_units_Z 72
_cell_length_a 14.622835
_cell_length_b 8.898851
_cell_length_c 28.743500
_cell_angle_alpha 90.000000
_cell_angle_beta 90.000000
_cell_angle_gamma 90.000000
_cell_volume 3740.289037
_symmetry_space_group_name_H-M "C M M A"
_symmetry_group_IT_number 67
_symmetry_cell_setting 'orthorhombic'
loop_
_space_group_symop_operation_xyz
x,y,z
-x,1/2-y,z
x,-y,-z
-x,1/2+y,-z
-x,-y,-z
x,1/2+y,-z
-x,y,z
x,1/2-y,z
1/2+x,1/2+y,z
1/2-x,-y,z
1/2+x,1/2-y,-z
1/2-x,y,-z
1/2-x,1/2-y,-z
1/2+x,y,-z
1/2-x,1/2+y,z
1/2+x,-y,z
loop_
_atom_site_type_symbol
_atom_site_label
_atom_site_fract_x
_atom_site_fract_y
_atom_site_fract_z
Si Si1 0.158739 0.072675 0.644820
Si Si2 0.608294 0.417356 0.455174
Si Si3 0.500000 0.928602 0.187485
Si Si4 0.850797 0.571010 0.123880
Si Si5 0.000000 0.075778 0.950526
Si Si6 0.500000 0.073866 0.285902
O O1 0.165479 0.250000 0.640400
O O2 0.136869 0.004370 0.593547
O O3 0.085406 0.027858 0.682946
O O4 0.250000 0.000000 0.664393
O O5 0.650881 0.500000 0.500000
O O6 0.500000 0.417423 0.457925
O O7 0.647542 0.250000 0.456707
O O8 0.500000 0.750000 0.179475
O O9 0.407410 0.000141 0.166443
O O10 0.500000 0.967632 0.241476
O O11 0.843304 0.750000 0.131129
O O12 0.750000 0.500000 0.120502
O O13 0.908089 0.530353 0.077411
O O14 0.000000 0.250000 0.959993
O O15 0.000000 0.000000 0.000000
O O16 0.500000 0.250000 0.271885
#
# Coordination Sequence:
#
# PCOD8280827 Si02
#       6
#    16  16   8  16   8   8
#     4  10  21  37  57  79 106 140 178 219 269 329
#     4   9  17  32  53  76 102 136 175 212 259 318
#     4  11  23  39  61  88 115 148 191 241 295 354
#     4  10  21  39  61  88 120 158 202 248 295 345
#     4   9  20  36  56  85 124 165 206 247 291 341
#     4  10  21  41  61  77 108 149 181 224 284 341
#
# _framework density 19.249849999999999
#
# number of rings (size 3 to 8) (size 9 to 14) (size 15 to 20)
#    0.000    2.222    1.111    2.333    0.000    6.222 
#    0.000    6.667    0.000    0.000    0.000    0.000 
#    0.000    0.000    0.000    0.000    0.000    0.000 
#
# Total GULP energy -446288.228308 kJ/mol
# GULP energy per Si atom -12396.895231 kJ/mol
# Density = 1.920604 g / cm^3
# Si number density = 19.249850 Si / 1000 Ang^3
#
#
#
# Elastic Constant Matrix: (Units=GPa)
#
#
# Indices 1 2 3 4 5 6 
#
# 1 148.0461 57.2900 74.5857 0.0000 0.0000 0.0000
# 2 57.2900 77.0108 61.8699 0.0000 0.0000 0.0000
# 3 74.5857 61.8699 161.7148 0.0000 0.0000 0.0000
# 4 0.0000 0.0000 0.0000 34.8548 0.0000 0.0000
# 5 0.0000 0.0000 0.0000 0.0000 46.8782 0.0000
# 6 0.0000 0.0000 0.0000 0.0000 0.0000 32.8661
#
#
#
# Elastic Compliance Matrix: (Units=1/GPa)
#
#
# Indices 1 2 3 4 5 6 
#
# 1 0.010189 -0.005493 -0.002598 0.000000 0.000000 0.000000
# 2 -0.005493 0.021709 -0.005772 0.000000 0.000000 0.000000
# 3 -0.002598 -0.005772 0.009590 0.000000 0.000000 0.000000
# 4 0.000000 0.000000 0.000000 0.028690 0.000000 0.000000
# 5 0.000000 0.000000 0.000000 0.000000 0.021332 0.000000
# 6 0.000000 0.000000 0.000000 0.000000 0.000000 0.030426
#
#
# Mechanical properties :
#
#
# Convention : Reuss Voigt Hill
#
# Bulk Modulus (GPa) = 72.66142 86.02922 79.34532
# Shear Modulus (GPa) = 32.41501 35.78823 34.10162
#
# Velocity S-wave (km/s) = 4.10800 4.31646 4.21352
# Velocity P-wave (km/s) = 7.76719 8.34447 8.06100
#
# Compressibility (1/GPa) = 0.01376246
#
# Stress axis : x y z
#
# Youngs Moduli (GPa) = 98.14504 46.06475 104.27247
#
# Poissons Ratio (x) = 0.25302 0.27089
# Poissons Ratio (y) = 0.53908 0.60187
# Poissons Ratio (z) = 0.25497 0.26589
#
# Static dielectric constant tensor:
#      x y z
#    x 3.496470 0.000000 0.000000 
#    y 0.000000 3.499710 0.000000 
#    z 0.000000 0.000000 4.211310 
# 
# 
# High freq. dielectric constant tensor:
#      x y z
#    x 1.753600 0.000000 0.000000 
#    y 0.000000 1.741650 0.000000 
#    z 0.000000 0.000000 1.753300 
# 
# From -- ./inp_files/45667.got.cif
#   From: 2010.03.12/outbox.cif.g09.slc.cpg/sg67_23_cif.got.tgz:45667.got - 2010.04.10 22:41:39.
