data_PCOD8280239
_publ_section_title
;
Structure prediction by ZEFSAII (Michael W. Deem and Ramdas Pophale) SiO2 
 PCOD8280239
Probable space group: C M M A
;
_chemical_formula_sum "Si O2"
_cell_formula_units_Z 88
_cell_length_a 9.067223
_cell_length_b 16.374377
_cell_length_c 29.322306
_cell_angle_alpha 90.000000
_cell_angle_beta 90.000000
_cell_angle_gamma 90.000000
_cell_volume 4353.486518
_symmetry_space_group_name_H-M "C M M A"
_symmetry_group_IT_number 67
_symmetry_cell_setting 'orthorhombic'
loop_
_space_group_symop_operation_xyz
x,y,z
-x,1/2-y,z
x,-y,-z
-x,1/2+y,-z
-x,-y,-z
x,1/2+y,-z
-x,y,z
x,1/2-y,z
1/2+x,1/2+y,z
1/2-x,-y,z
1/2+x,1/2-y,-z
1/2-x,y,-z
1/2-x,1/2-y,-z
1/2+x,y,-z
1/2-x,1/2+y,z
1/2+x,-y,z
loop_
_atom_site_type_symbol
_atom_site_label
_atom_site_fract_x
_atom_site_fract_y
_atom_site_fract_z
Si Si1 0.164952 0.342357 0.282312
Si Si2 0.675191 0.250000 0.048613
Si Si3 0.336779 0.844269 0.542551
Si Si4 0.173334 0.084621 0.899912
Si Si5 0.827459 0.081992 0.795550
Si Si6 0.175486 0.084040 0.376417
O O1 0.165624 0.250000 0.299472
O O2 0.270124 0.348165 0.238171
O O3 0.223612 0.395268 0.324671
O O4 0.000000 0.369641 0.268128
O O5 0.500000 0.250000 0.043993
O O6 0.727133 0.333760 0.073669
O O7 0.750000 0.250000 0.000000
O O8 0.500000 0.884692 0.547713
O O9 0.358298 0.750000 0.531585
O O10 0.250000 0.885895 0.500000
O O11 0.241728 0.850731 0.588675
O O12 0.216498 0.101931 0.847539
O O13 0.000000 0.071259 0.906375
O O14 0.250000 0.000000 0.917268
O O15 0.000000 0.072058 0.790408
O O16 0.750000 0.000000 0.778576
O O17 0.000000 0.081718 0.380862
O O18 0.250000 0.000000 0.390683
#
# Coordination Sequence:
#
# PCOD8280239 Si02
#       6
#    16   8  16  16  16  16
#     4  10  22  38  56  82 115 149 186 232 283 336
#     4  10  22  40  60  86 120 158 200 250 301 358
#     4  10  21  38  61  87 113 142 180 226 277 334
#     4   9  20  38  60  85 119 157 198 247 301 356
#     4  10  20  35  58  84 113 150 191 235 286 343
#     4  11  23  39  58  80 111 148 186 229 279 331
#
# _framework density 20.213683
#
# number of rings (size 3 to 8) (size 9 to 14) (size 15 to 20)
#    0.000    2.000    0.000    2.727    1.273    7.273 
#    0.000    3.636    0.000    0.000    0.000    0.000 
#    0.000    0.000    0.000    0.000    0.000    0.000 
#
# Total GULP energy -545548.302320 kJ/mol
# GULP energy per Si atom -12398.825053 kJ/mol
# Density = 2.016768 g / cm^3
# Si number density = 20.213683 Si / 1000 Ang^3
#
#
#
# Elastic Constant Matrix: (Units=GPa)
#
#
# Indices 1 2 3 4 5 6 
#
# 1 92.6900 36.9561 59.9996 0.0000 0.0000 0.0000
# 2 36.9561 91.5555 46.7860 0.0000 0.0000 0.0000
# 3 59.9996 46.7860 124.0698 0.0000 0.0000 0.0000
# 4 0.0000 0.0000 0.0000 22.1744 0.0000 0.0000
# 5 0.0000 0.0000 0.0000 0.0000 36.8245 0.0000
# 6 0.0000 0.0000 0.0000 0.0000 0.0000 31.1191
#
#
#
# Elastic Compliance Matrix: (Units=1/GPa)
#
#
# Indices 1 2 3 4 5 6 
#
# 1 0.016421 -0.003184 -0.006741 0.000000 0.000000 0.000000
# 2 -0.003184 0.014147 -0.003795 0.000000 0.000000 0.000000
# 3 -0.006741 -0.003795 0.012751 0.000000 0.000000 0.000000
# 4 0.000000 0.000000 0.000000 0.045097 0.000000 0.000000
# 5 0.000000 0.000000 0.000000 0.000000 0.027156 0.000000
# 6 0.000000 0.000000 0.000000 0.000000 0.000000 0.032135
#
#
# Mechanical properties :
#
#
# Convention : Reuss Voigt Hill
#
# Bulk Modulus (GPa) = 62.97257 66.19986 64.58622
# Shear Modulus (GPa) = 27.71022 28.99518 28.35270
#
# Velocity S-wave (km/s) = 3.70654 3.79150 3.74926
# Velocity P-wave (km/s) = 7.03839 7.21030 7.12486
#
# Compressibility (1/GPa) = 0.01587993
#
# Stress axis : x y z
#
# Youngs Moduli (GPa) = 60.89599 70.68753 78.42639
#
# Poissons Ratio (x) = 0.22506 0.52865
# Poissons Ratio (y) = 0.19389 0.29762
# Poissons Ratio (z) = 0.41048 0.26826
#
# Static dielectric constant tensor:
#      x y z
#    x 3.753870 0.000000 0.000000 
#    y 0.000000 3.622110 0.000000 
#    z 0.000000 0.000000 3.604430 
# 
# 
# High freq. dielectric constant tensor:
#      x y z
#    x 1.791660 0.000000 0.000000 
#    y 0.000000 1.784820 0.000000 
#    z 0.000000 0.000000 1.790850 
# 
# From -- ./inp_files/45220.got.cif
#   From: 2010.03.12/outbox.cif.g09.slc.cpg/sg67_23_cif.got.tgz:45220.got - 2010.04.10 22:41:39.
