data_PCOD8280673
_publ_section_title
;
Structure prediction by ZEFSAII (Michael W. Deem and Ramdas Pophale) SiO2 
 PCOD8280673
Probable space group: C M M A
;
_chemical_formula_sum "Si O2"
_cell_formula_units_Z 96
_cell_length_a 14.419447
_cell_length_b 14.510491
_cell_length_c 20.966801
_cell_angle_alpha 90.000000
_cell_angle_beta 90.000000
_cell_angle_gamma 90.000000
_cell_volume 4386.952039
_symmetry_space_group_name_H-M "C M M A"
_symmetry_group_IT_number 67
_symmetry_cell_setting 'orthorhombic'
loop_
_space_group_symop_operation_xyz
x,y,z
-x,1/2-y,z
x,-y,-z
-x,1/2+y,-z
-x,-y,-z
x,1/2+y,-z
-x,y,z
x,1/2-y,z
1/2+x,1/2+y,z
1/2-x,-y,z
1/2+x,1/2-y,-z
1/2-x,y,-z
1/2-x,1/2-y,-z
1/2+x,y,-z
1/2-x,1/2+y,z
1/2+x,-y,z
loop_
_atom_site_type_symbol
_atom_site_label
_atom_site_fract_x
_atom_site_fract_y
_atom_site_fract_z
Si Si1 0.392839 0.051226 0.438975
Si Si2 0.889116 0.432617 0.178094
Si Si3 0.180209 0.250000 0.558072
Si Si4 0.682615 0.250000 0.671483
Si Si5 0.392771 0.250000 0.100167
Si Si6 0.282953 0.250000 0.816933
Si Si7 0.106896 0.945741 0.680413
Si Si8 0.107949 0.550966 0.060740
O O1 0.500000 0.023670 0.437202
O O2 0.383650 0.160318 0.445625
O O3 0.346365 0.000000 0.500000
O O4 0.346156 0.012171 0.373233
O O5 0.839955 0.337846 0.157683
O O6 0.853177 0.464406 0.248389
O O7 0.855099 0.509664 0.127683
O O8 0.000000 0.416584 0.178384
O O9 0.250000 0.250000 0.500000
O O10 0.231464 0.250000 0.624749
O O11 0.725678 0.250000 0.741345
O O12 0.619648 0.339569 0.659900
O O13 0.500000 0.250000 0.125215
O O14 0.323207 0.250000 0.159501
O O15 0.372912 0.339805 0.056883
O O16 0.000000 0.969930 0.683386
O O17 0.000000 0.529011 0.058904
O O18 0.155388 0.500000 0.000000
#
# Coordination Sequence:
#
# PCOD8280673 Si02
#       8
#    16  16   8   8   8   8  16  16
#     4  10  22  40  60  81 108 145 187 229 275 330
#     4   9  18  35  60  88 117 149 188 236 286 337
#     4  12  25  38  54  80 113 146 182 228 280 334
#     4  10  21  35  56  86 116 145 181 228 279 328
#     4  10  22  40  58  80 114 152 191 234 283 342
#     4  10  21  37  58  88 118 149 191 236 284 336
#     4   9  18  35  59  84 111 146 187 229 274 326
#     4   9  19  37  60  84 113 151 191 234 287 342
#
# _framework density 21.883075999999999
#
# number of rings (size 3 to 8) (size 9 to 14) (size 15 to 20)
#    0.000    2.333    0.000    1.750    0.000    7.000 
#    0.000   14.167    0.000    0.000    0.000    0.000 
#    0.000    0.000    0.000    0.000    0.000    0.000 
#
# Total GULP energy -595057.315556 kJ/mol
# GULP energy per Si atom -12397.027407 kJ/mol
# Density = 2.183327 g / cm^3
# Si number density = 21.883076 Si / 1000 Ang^3
#
#
#
# Elastic Constant Matrix: (Units=GPa)
#
#
# Indices 1 2 3 4 5 6 
#
# 1 47.5282 15.3740 18.8154 0.0000 0.0000 0.0000
# 2 15.3740 179.0482 92.8008 0.0000 0.0000 0.0000
# 3 18.8154 92.8008 150.9577 0.0000 0.0000 0.0000
# 4 0.0000 0.0000 0.0000 35.8916 0.0000 0.0000
# 5 0.0000 0.0000 0.0000 0.0000 12.8965 0.0000
# 6 0.0000 0.0000 0.0000 0.0000 0.0000 16.7120
#
#
#
# Elastic Compliance Matrix: (Units=1/GPa)
#
#
# Indices 1 2 3 4 5 6 
#
# 1 0.022191 -0.000693 -0.002340 0.000000 0.000000 0.000000
# 2 -0.000693 0.008218 -0.004966 0.000000 0.000000 0.000000
# 3 -0.002340 -0.004966 0.009969 0.000000 0.000000 0.000000
# 4 0.000000 0.000000 0.000000 0.027862 0.000000 0.000000
# 5 0.000000 0.000000 0.000000 0.000000 0.077540 0.000000
# 6 0.000000 0.000000 0.000000 0.000000 0.000000 0.059837
#
#
# Mechanical properties :
#
#
# Convention : Reuss Voigt Hill
#
# Bulk Modulus (GPa) = 41.01608 70.16827 55.59218
# Shear Modulus (GPa) = 21.76366 29.80296 25.78331
#
# Velocity S-wave (km/s) = 3.15706 3.69442 3.43626
# Velocity P-wave (km/s) = 5.66333 7.09458 6.41897
#
# Compressibility (1/GPa) = 0.02438068
#
# Stress axis : x y z
#
# Youngs Moduli (GPa) = 45.06421 121.67835 100.31270
#
# Poissons Ratio (x) = 0.08426 0.23474
# Poissons Ratio (y) = 0.03121 0.49814
# Poissons Ratio (z) = 0.10546 0.60424
#
# Static dielectric constant tensor:
#      x y z
#    x 3.625390 0.000000 0.000000 
#    y 0.000000 4.025140 0.000000 
#    z 0.000000 0.000000 4.337120 
# 
# 
# High freq. dielectric constant tensor:
#      x y z
#    x 1.845550 0.000000 0.000000 
#    y 0.000000 1.862810 0.000000 
#    z 0.000000 0.000000 1.866000 
# 
# From -- ./inp_files/38567.got.cif
#   From: 2010.03.12/outbox.cif.g09.slc.cpg/sg67_20_cif.got.tgz:38567.got - 2010.04.10 22:41:39.
