data_PCOD8280782
_publ_section_title
;
Structure prediction by ZEFSAII (Michael W. Deem and Ramdas Pophale) SiO2 
 PCOD8280782
Probable space group: C M M A
;
_chemical_formula_sum "Si O2"
_cell_formula_units_Z 64
_cell_length_a 22.184557
_cell_length_b 15.718308
_cell_length_c 8.614760
_cell_angle_alpha 90.000000
_cell_angle_beta 90.000000
_cell_angle_gamma 90.000000
_cell_volume 3003.998685
_symmetry_space_group_name_H-M "C M M A"
_symmetry_group_IT_number 67
_symmetry_cell_setting 'orthorhombic'
loop_
_space_group_symop_operation_xyz
x,y,z
-x,1/2-y,z
x,-y,-z
-x,1/2+y,-z
-x,-y,-z
x,1/2+y,-z
-x,y,z
x,1/2-y,z
1/2+x,1/2+y,z
1/2-x,-y,z
1/2+x,1/2-y,-z
1/2-x,y,-z
1/2-x,1/2-y,-z
1/2+x,y,-z
1/2-x,1/2+y,z
1/2+x,-y,z
loop_
_atom_site_type_symbol
_atom_site_label
_atom_site_fract_x
_atom_site_fract_y
_atom_site_fract_z
Si Si1 0.000000 0.750000 0.467062
Si Si2 0.371807 0.250000 0.580256
Si Si3 0.500000 0.250000 0.943873
Si Si4 0.871196 0.750000 0.917812
Si Si5 0.000000 0.886585 0.202146
Si Si6 0.316932 0.913817 0.566331
Si Si7 0.130145 0.577989 0.111691
O O1 0.943982 0.750000 0.582787
O O2 0.000000 0.666237 0.359940
O O3 0.338100 0.250000 0.749967
O O4 0.353925 0.167349 0.485326
O O5 0.439018 0.250000 0.846904
O O6 0.500000 0.331864 0.049589
O O7 0.860117 0.833437 0.020126
O O8 0.063360 0.938115 0.187688
O O9 0.250000 0.905220 0.500000
O O10 0.319709 0.919598 0.753100
O O11 0.346986 0.000000 0.500000
O O12 0.145549 0.500000 0.000000
#
# Coordination Sequence:
#
# PCOD8280782 Si02
#       7
#     4   8   4   8   8  16  16
#     4  11  19  36  66 102 138 180 216 272 346 414
#     4  12  22  41  67  97 135 178 223 276 346 410
#     4   7  15  30  52  78 126 156 190 248 314 368
#     4  10  21  36  59  92 125 167 215 269 323 401
#     4   9  17  34  60  96 129 168 212 267 329 407
#     4  11  25  45  65  92 130 177 231 288 337 394
#     4  11  21  40  66  95 132 177 223 276 344 405
#
# _framework density 21.304935
#
# number of rings (size 3 to 8) (size 9 to 14) (size 15 to 20)
#    0.000    1.500    2.500    4.125    0.000    0.000 
#    0.000   15.000    0.000    0.000    0.000    0.000 
#    0.000    0.000    0.000    0.000    0.000    0.000 
#
# Total GULP energy -396473.765267 kJ/mol
# GULP energy per Si atom -12389.805165 kJ/mol
# Density = 2.125644 g / cm^3
# Si number density = 21.304935 Si / 1000 Ang^3
#
#
#
# Elastic Constant Matrix: (Units=GPa)
#
#
# Indices 1 2 3 4 5 6 
#
# 1 89.7654 35.8420 47.2137 0.0000 0.0000 0.0000
# 2 35.8420 169.2552 70.6944 0.0000 0.0000 0.0000
# 3 47.2137 70.6944 175.9704 0.0000 0.0000 0.0000
# 4 0.0000 0.0000 0.0000 14.8535 0.0000 0.0000
# 5 0.0000 0.0000 0.0000 0.0000 31.3237 0.0000
# 6 0.0000 0.0000 0.0000 0.0000 0.0000 16.7200
#
#
#
# Elastic Compliance Matrix: (Units=1/GPa)
#
#
# Indices 1 2 3 4 5 6 
#
# 1 0.013320 -0.001596 -0.002933 0.000000 0.000000 0.000000
# 2 -0.001596 0.007291 -0.002501 0.000000 0.000000 0.000000
# 3 -0.002933 -0.002501 0.007474 0.000000 0.000000 0.000000
# 4 0.000000 0.000000 0.000000 0.067324 0.000000 0.000000
# 5 0.000000 0.000000 0.000000 0.000000 0.031925 0.000000
# 6 0.000000 0.000000 0.000000 0.000000 0.000000 0.059809
#
#
# Mechanical properties :
#
#
# Convention : Reuss Voigt Hill
#
# Bulk Modulus (GPa) = 71.29453 82.49902 76.89677
# Shear Modulus (GPa) = 24.28643 31.32883 27.80763
#
# Velocity S-wave (km/s) = 3.37997 3.83887 3.61670
# Velocity P-wave (km/s) = 6.98346 7.64567 7.32205
#
# Compressibility (1/GPa) = 0.01402632
#
# Stress axis : x y z
#
# Youngs Moduli (GPa) = 75.07621 137.16116 133.79151
#
# Poissons Ratio (x) = 0.21887 0.39237
# Poissons Ratio (y) = 0.11980 0.33459
# Poissons Ratio (z) = 0.22018 0.34302
#
# Static dielectric constant tensor:
#      x y z
#    x 3.933280 0.000000 0.000000 
#    y 0.000000 3.911850 0.000000 
#    z 0.000000 0.000000 3.773140 
# 
# 
# High freq. dielectric constant tensor:
#      x y z
#    x 1.821360 0.000000 0.000000 
#    y 0.000000 1.834940 0.000000 
#    z 0.000000 0.000000 1.850180 
# 
# From -- ./inp_files/8102.got.cif
#   From: 2010.03.12/outbox.cif.g09.slc.cpg/sg67_5_cif.got.tgz:8102.got - 2010.04.10 22:41:39.
