data_PCOD8280131
_publ_section_title
;
Structure prediction by ZEFSAII (Michael W. Deem and Ramdas Pophale) SiO2 
 PCOD8280131
Probable space group: C M M A
;
_chemical_formula_sum "Si O2"
_cell_formula_units_Z 88
_cell_length_a 8.949239
_cell_length_b 15.985219
_cell_length_c 29.685613
_cell_angle_alpha 90.000000
_cell_angle_beta 90.000000
_cell_angle_gamma 90.000000
_cell_volume 4246.691555
_symmetry_space_group_name_H-M "C M M A"
_symmetry_group_IT_number 67
_symmetry_cell_setting 'orthorhombic'
loop_
_space_group_symop_operation_xyz
x,y,z
-x,1/2-y,z
x,-y,-z
-x,1/2+y,-z
-x,-y,-z
x,1/2+y,-z
-x,y,z
x,1/2-y,z
1/2+x,1/2+y,z
1/2-x,-y,z
1/2+x,1/2-y,-z
1/2-x,y,-z
1/2-x,1/2-y,-z
1/2+x,y,-z
1/2-x,1/2+y,z
1/2+x,-y,z
loop_
_atom_site_type_symbol
_atom_site_label
_atom_site_fract_x
_atom_site_fract_y
_atom_site_fract_z
Si Si1 0.669299 0.150717 0.865994
Si Si2 0.322155 0.750000 0.451464
Si Si3 0.832079 0.844464 0.695439
Si Si4 0.331149 0.849738 0.955475
Si Si5 0.175969 0.413403 0.777318
Si Si6 0.176079 0.085721 0.398398
O O1 0.500000 0.117081 0.862599
O O2 0.672419 0.250000 0.864703
O O3 0.741685 0.116765 0.912101
O O4 0.765480 0.116362 0.825235
O O5 0.500000 0.750000 0.454891
O O6 0.250000 0.750000 0.500000
O O7 0.265503 0.833968 0.426192
O O8 0.830115 0.750000 0.677141
O O9 0.721075 0.849880 0.737807
O O10 0.779973 0.902517 0.654115
O O11 0.000000 0.868600 0.711245
O O12 0.500000 0.884081 0.954028
O O13 0.330966 0.750000 0.956037
O O14 0.250000 0.884863 0.000000
O O15 0.250000 0.500000 0.763291
O O16 0.000000 0.421722 0.780381
O O17 0.000000 0.077283 0.404024
O O18 0.250000 0.000000 0.416422
#
# Coordination Sequence:
#
# PCOD8280131 Si02
#       6
#    16   8  16  16  16  16
#     4  10  20  35  55  79 108 143 183 229 284 344
#     4  10  22  42  64  90 126 168 212 260 315 370
#     4  10  20  38  63  88 118 156 194 239 297 359
#     4   9  16  27  46  74 106 139 178 227 281 337
#     4  12  25  39  55  79 112 149 190 237 287 346
#     4  10  21  39  63  91 125 165 208 256 310 369
#
# _framework density 20.722011999999999
#
# number of rings (size 3 to 8) (size 9 to 14) (size 15 to 20)
#    0.000    1.818    0.909    3.818    0.000    9.091 
#    0.000    1.818    0.000    0.545    0.000    3.818 
#    0.000    0.000    0.000    0.000    0.000    0.000 
#
# Total GULP energy -545692.571774 kJ/mol
# GULP energy per Si atom -12402.103904 kJ/mol
# Density = 2.067485 g / cm^3
# Si number density = 20.722012 Si / 1000 Ang^3
#
#
#
# Elastic Constant Matrix: (Units=GPa)
#
#
# Indices 1 2 3 4 5 6 
#
# 1 140.2095 37.4653 61.1511 0.0000 0.0000 0.0000
# 2 37.4653 89.8889 49.8175 0.0000 0.0000 0.0000
# 3 61.1511 49.8175 137.3239 0.0000 0.0000 0.0000
# 4 0.0000 0.0000 0.0000 -6.4628 0.0000 0.0000
# 5 0.0000 0.0000 0.0000 0.0000 37.5995 0.0000
# 6 0.0000 0.0000 0.0000 0.0000 0.0000 28.6842
#
#
#
# Elastic Compliance Matrix: (Units=1/GPa)
#
#
# Indices 1 2 3 4 5 6 
#
# 1 0.009114 -0.001939 -0.003355 0.000000 0.000000 0.000000
# 2 -0.001939 0.014337 -0.004338 0.000000 0.000000 0.000000
# 3 -0.003355 -0.004338 0.010350 0.000000 0.000000 0.000000
# 4 0.000000 0.000000 0.000000 -0.154731 0.000000 0.000000
# 5 0.000000 0.000000 0.000000 0.000000 0.026596 0.000000
# 6 0.000000 0.000000 0.000000 0.000000 0.000000 0.034862
#
#
# Mechanical properties :
#
#
# Convention : Reuss Voigt Hill
#
# Bulk Modulus (GPa) = 68.79032 73.81000 71.30016
# Shear Modulus (GPa) = -141.38803 26.56340 -57.41231
#
# Velocity S-wave (km/s) = -8.26916 3.58424 -5.26936
# Velocity P-wave (km/s) = 7.60941 7.26811 1.59337
#
# Compressibility (1/GPa) = 0.01453693
#
# Stress axis : x y z
#
# Youngs Moduli (GPa) = 109.72701 69.74955 96.62286
#
# Poissons Ratio (x) = 0.13526 0.32415
# Poissons Ratio (y) = 0.21278 0.41911
# Poissons Ratio (z) = 0.36811 0.30254
#
# Static dielectric constant tensor:
#      x y z
#    x 3.777300 0.000000 0.000000 
#    y 0.000000 3.709490 0.000000 
#    z 0.000000 0.000000 3.767810 
# 
# 
# High freq. dielectric constant tensor:
#      x y z
#    x 1.809080 0.000000 0.000000 
#    y 0.000000 1.798540 0.000000 
#    z 0.000000 0.000000 1.817770 
# 
# From -- ./inp_files/45227.got.cif
#   From: 2010.03.12/outbox.cif.g09.slc.cpg/sg67_23_cif.got.tgz:45227.got - 2010.04.10 22:41:39.
