data_PCOD8280294
_publ_section_title
;
Structure prediction by ZEFSAII (Michael W. Deem and Ramdas Pophale) SiO2 
 PCOD8280294
Probable space group: C M M A
;
_chemical_formula_sum "Si O2"
_cell_formula_units_Z 96
_cell_length_a 23.797082
_cell_length_b 9.632364
_cell_length_c 23.807197
_cell_angle_alpha 90.000000
_cell_angle_beta 90.000000
_cell_angle_gamma 90.000000
_cell_volume 5457.137024
_symmetry_space_group_name_H-M "C M M A"
_symmetry_group_IT_number 67
_symmetry_cell_setting 'orthorhombic'
loop_
_space_group_symop_operation_xyz
x,y,z
-x,1/2-y,z
x,-y,-z
-x,1/2+y,-z
-x,-y,-z
x,1/2+y,-z
-x,y,z
x,1/2-y,z
1/2+x,1/2+y,z
1/2-x,-y,z
1/2+x,1/2-y,-z
1/2-x,y,-z
1/2-x,1/2-y,-z
1/2+x,y,-z
1/2-x,1/2+y,z
1/2+x,-y,z
loop_
_atom_site_type_symbol
_atom_site_label
_atom_site_fract_x
_atom_site_fract_y
_atom_site_fract_z
Si Si1 0.500000 0.404839 0.240395
Si Si2 0.896668 0.410106 0.238314
Si Si3 0.379350 0.492347 0.888762
Si Si4 0.807716 0.250000 0.921557
Si Si5 0.308038 0.585920 0.451475
Si Si6 0.318226 0.750000 0.054358
Si Si7 0.304187 0.092065 0.671938
Si Si8 0.500000 0.903006 0.892375
O O1 0.500000 0.250000 0.267292
O O2 0.554046 0.490373 0.259699
O O3 0.500000 0.390444 0.174042
O O4 0.915359 0.250000 0.244680
O O5 0.878915 0.437295 0.174517
O O6 0.845774 0.448982 0.278602
O O7 0.338101 0.622411 0.891853
O O8 0.354410 0.382757 0.931171
O O9 0.442896 0.519892 0.910806
O O10 0.740512 0.250000 0.910746
O O11 0.812139 0.250000 0.988110
O O12 0.343119 0.500000 0.500000
O O13 0.300798 0.750000 0.467361
O O14 0.250000 0.500000 0.448095
O O15 0.334616 0.572075 0.389120
O O16 0.283955 0.250000 0.677746
O O17 0.250000 0.000000 0.679554
O O18 0.500000 0.750000 0.919699
#
# Coordination Sequence:
#
# PCOD8280294 Si02
#       8
#     8  16  16   8  16   8  16   8
#     4   9  19  33  57  80 101 134 174 210 259 312
#     4  10  20  36  54  79 107 136 172 213 260 313
#     4  11  21  39  61  81 107 140 177 219 271 321
#     4  11  24  41  61  75 115 142 178 220 257 314
#     4   9  15  25  42  63  94 135 178 213 252 300
#     4  11  24  41  57  87 103 144 184 216 255 314
#     4   9  19  32  46  72 108 142 173 215 260 306
#     4   9  18  36  59  82 107 133 165 216 271 317
#
# _framework density 17.591642
#
# number of rings (size 3 to 8) (size 9 to 14) (size 15 to 20)
#    0.000    2.167    1.667    2.250    1.167    4.333 
#    0.000    2.500    0.000    0.000    0.000    0.583 
#    0.000    0.000    0.000    0.000    0.000    0.000 
#
# Total GULP energy -594770.549188 kJ/mol
# GULP energy per Si atom -12391.053108 kJ/mol
# Density = 1.755160 g / cm^3
# Si number density = 17.591642 Si / 1000 Ang^3
#
#
#
# Elastic Constant Matrix: (Units=GPa)
#
#
# Indices 1 2 3 4 5 6 
#
# 1 111.4360 58.4563 31.8985 0.0000 0.0000 0.0000
# 2 58.4563 130.7434 26.4166 0.0000 0.0000 0.0000
# 3 31.8985 26.4166 59.3391 0.0000 0.0000 0.0000
# 4 0.0000 0.0000 0.0000 23.6138 0.0000 0.0000
# 5 0.0000 0.0000 0.0000 0.0000 0.1642 0.0000
# 6 0.0000 0.0000 0.0000 0.0000 0.0000 23.4809
#
#
#
# Elastic Compliance Matrix: (Units=1/GPa)
#
#
# Indices 1 2 3 4 5 6 
#
# 1 0.012849 -0.004779 -0.004780 0.000000 0.000000 0.000000
# 2 -0.004779 0.010182 -0.001964 0.000000 0.000000 0.000000
# 3 -0.004780 -0.001964 0.020296 0.000000 0.000000 0.000000
# 4 0.000000 0.000000 0.000000 0.042348 0.000000 0.000000
# 5 0.000000 0.000000 0.000000 0.000000 6.090428 0.000000
# 6 0.000000 0.000000 0.000000 0.000000 0.000000 0.042588
#
#
# Mechanical properties :
#
#
# Convention : Reuss Voigt Hill
#
# Bulk Modulus (GPa) = 49.30490 59.45125 54.37807
# Shear Modulus (GPa) = 0.80019 21.76825 11.28422
#
# Velocity S-wave (km/s) = 0.67517 3.52151 2.53544
# Velocity P-wave (km/s) = 5.35688 7.09953 6.28886
#
# Compressibility (1/GPa) = 0.02028196
#
# Stress axis : x y z
#
# Youngs Moduli (GPa) = 77.82763 98.21115 49.27123
#
# Poissons Ratio (x) = 0.46937 0.23549
# Poissons Ratio (y) = 0.37195 0.09676
# Poissons Ratio (z) = 0.37198 0.19287
#
# Static dielectric constant tensor:
#      x y z
#    x 3.253840 0.000000 0.000000 
#    y 0.000000 3.490570 0.000000 
#    z 0.000000 0.000000 3.617200 
# 
# 
# High freq. dielectric constant tensor:
#      x y z
#    x 1.654620 0.000000 0.000000 
#    y 0.000000 1.700900 0.000000 
#    z 0.000000 0.000000 1.673510 
# 
# From -- ./inp_files/44818.got.cif
#   From: 2010.03.12/outbox.cif.g09.slc.cpg/sg67_23_cif.got.tgz:44818.got - 2010.04.10 22:41:39.
