data_PCOD8280777
_publ_section_title
;
Structure prediction by ZEFSAII (Michael W. Deem and Ramdas Pophale) SiO2 
 PCOD8280777
Probable space group: C M M A
;
_chemical_formula_sum "Si O2"
_cell_formula_units_Z 112
_cell_length_a 15.681419
_cell_length_b 27.228615
_cell_length_c 12.592878
_cell_angle_alpha 90.000000
_cell_angle_beta 90.000000
_cell_angle_gamma 90.000000
_cell_volume 5376.948864
_symmetry_space_group_name_H-M "C M M A"
_symmetry_group_IT_number 67
_symmetry_cell_setting 'orthorhombic'
loop_
_space_group_symop_operation_xyz
x,y,z
-x,1/2-y,z
x,-y,-z
-x,1/2+y,-z
-x,-y,-z
x,1/2+y,-z
-x,y,z
x,1/2-y,z
1/2+x,1/2+y,z
1/2-x,-y,z
1/2+x,1/2-y,-z
1/2-x,y,-z
1/2-x,1/2-y,-z
1/2+x,y,-z
1/2-x,1/2+y,z
1/2+x,-y,z
loop_
_atom_site_type_symbol
_atom_site_label
_atom_site_fract_x
_atom_site_fract_y
_atom_site_fract_z
Si Si1 0.777912 0.691699 0.738336
Si Si2 0.903198 0.448613 0.963102
Si Si3 0.347283 0.446995 0.468976
Si Si4 0.595336 0.348113 0.562015
Si Si5 0.293279 0.946968 0.761720
Si Si6 0.905878 0.692807 0.333464
Si Si7 0.189496 0.381158 0.101541
O O1 0.784753 0.750000 0.731808
O O2 0.833812 0.668271 0.645104
O O3 0.678261 0.673126 0.729608
O O4 0.816357 0.674526 0.853693
O O5 0.858779 0.435490 0.854485
O O6 0.000000 0.457080 0.935226
O O7 0.860807 0.500000 0.000000
O O8 0.895837 0.406770 0.055706
O O9 0.387492 0.500000 0.500000
O O10 0.250000 0.445729 0.500000
O O11 0.398105 0.405622 0.532596
O O12 0.348558 0.435999 0.343270
O O13 0.500000 0.339130 0.608009
O O14 0.610297 0.315984 0.457398
O O15 0.217026 0.909361 0.789496
O O16 0.250000 0.000000 0.754036
O O17 0.910567 0.750000 0.311732
O O18 0.000000 0.670262 0.299207
O O19 0.250000 0.385859 0.000000
#
# Coordination Sequence:
#
# PCOD8280777 Si02
#       7
#    16  16  16  16  16  16  16
#     4  11  23  40  64  92 121 163 215 269 327 381
#     4  10  21  36  58  87 119 158 210 261 310 372
#     4  11  22  36  57  86 122 164 207 250 311 382
#     4  11  23  37  56  84 124 168 212 257 306 375
#     4  11  19  35  60  86 116 159 202 248 314 383
#     4   9  18  35  61  91 120 152 198 257 317 381
#     4  10  22  38  61  87 117 157 202 260 316 375
#
# _framework density 20.829657000000001
#
# number of rings (size 3 to 8) (size 9 to 14) (size 15 to 20)
#    0.000    1.571    2.857    3.429    0.000    3.714 
#    0.000    5.714    0.000    0.000    0.000    2.000 
#    0.000    0.000    0.000    0.000    0.000    0.000 
#
# Total GULP energy -693758.682440 kJ/mol
# GULP energy per Si atom -12388.547901 kJ/mol
# Density = 2.078225 g / cm^3
# Si number density = 20.829657 Si / 1000 Ang^3
#
#
#
# Elastic Constant Matrix: (Units=GPa)
#
#
# Indices 1 2 3 4 5 6 
#
# 1 90.6612 34.7833 25.9036 0.0000 0.0000 0.0000
# 2 34.7833 76.3426 42.6267 0.0000 0.0000 0.0000
# 3 25.9036 42.6267 101.6655 0.0000 0.0000 0.0000
# 4 0.0000 0.0000 0.0000 39.4498 0.0000 0.0000
# 5 0.0000 0.0000 0.0000 0.0000 17.4066 0.0000
# 6 0.0000 0.0000 0.0000 0.0000 0.0000 1.4960
#
#
#
# Elastic Compliance Matrix: (Units=1/GPa)
#
#
# Indices 1 2 3 4 5 6 
#
# 1 0.013464 -0.005509 -0.001121 0.000000 0.000000 0.000000
# 2 -0.005509 0.019357 -0.006712 0.000000 0.000000 0.000000
# 3 -0.001121 -0.006712 0.012936 0.000000 0.000000 0.000000
# 4 0.000000 0.000000 0.000000 0.025349 0.000000 0.000000
# 5 0.000000 0.000000 0.000000 0.000000 0.057450 0.000000
# 6 0.000000 0.000000 0.000000 0.000000 0.000000 0.668448
#
#
# Mechanical properties :
#
#
# Convention : Reuss Voigt Hill
#
# Bulk Modulus (GPa) = 52.43013 52.81074 52.62044
# Shear Modulus (GPa) = 6.02378 22.69419 14.35898
#
# Velocity S-wave (km/s) = 1.70241 3.30436 2.62840
# Velocity P-wave (km/s) = 5.39350 6.32195 5.87609
#
# Compressibility (1/GPa) = 0.01907300
#
# Stress axis : x y z
#
# Youngs Moduli (GPa) = 74.27354 51.66199 77.30276
#
# Poissons Ratio (x) = 0.28458 0.08664
# Poissons Ratio (y) = 0.40914 0.51889
# Poissons Ratio (z) = 0.08325 0.34677
#
# Static dielectric constant tensor:
#      x y z
#    x 3.760960 0.000000 0.000000 
#    y 0.000000 4.192650 0.000000 
#    z 0.000000 0.000000 4.221580 
# 
# 
# High freq. dielectric constant tensor:
#      x y z
#    x 1.805400 0.000000 0.000000 
#    y 0.000000 1.820240 0.000000 
#    z 0.000000 0.000000 1.805960 
# 
# From -- ./inp_files/18648.got.cif
#   From: 2010.03.12/outbox.cif.g09.slc.cpg/sg67_10_cif.got.tgz:18648.got - 2010.04.10 22:41:39.
