data_PCOD8280531
_publ_section_title
;
Structure prediction by ZEFSAII (Michael W. Deem and Ramdas Pophale) SiO2 
 PCOD8280531
Probable space group: C M M A
;
_chemical_formula_sum "Si O2"
_cell_formula_units_Z 96
_cell_length_a 27.819388
_cell_length_b 18.248088
_cell_length_c 9.737379
_cell_angle_alpha 90.000000
_cell_angle_beta 90.000000
_cell_angle_gamma 90.000000
_cell_volume 4943.186684
_symmetry_space_group_name_H-M "C M M A"
_symmetry_group_IT_number 67
_symmetry_cell_setting 'orthorhombic'
loop_
_space_group_symop_operation_xyz
x,y,z
-x,1/2-y,z
x,-y,-z
-x,1/2+y,-z
-x,-y,-z
x,1/2+y,-z
-x,y,z
x,1/2-y,z
1/2+x,1/2+y,z
1/2-x,-y,z
1/2+x,1/2-y,-z
1/2-x,y,-z
1/2-x,1/2-y,-z
1/2+x,y,-z
1/2-x,1/2+y,z
1/2+x,-y,z
loop_
_atom_site_type_symbol
_atom_site_label
_atom_site_fract_x
_atom_site_fract_y
_atom_site_fract_z
Si Si1 0.945319 0.432423 0.282232
Si Si2 0.102369 0.165557 0.498160
Si Si3 0.205530 0.336624 0.092093
Si Si4 0.292532 0.163231 0.595901
Si Si5 0.055940 0.600078 0.253321
Si Si6 0.387899 0.415861 0.982611
O O1 0.934706 0.385510 0.416921
O O2 0.935591 0.518013 0.309951
O O3 0.000000 0.421281 0.237127
O O4 0.912585 0.400619 0.162317
O O5 0.096032 0.250000 0.454161
O O6 0.156887 0.139404 0.471030
O O7 0.088253 0.155412 0.656976
O O8 0.200569 0.250000 0.096971
O O9 0.210996 0.367609 0.247993
O O10 0.250000 0.362383 0.000000
O O11 0.159565 0.367424 0.012807
O O12 0.287382 0.250000 0.599699
O O13 0.250000 0.130113 0.500000
O O14 0.074395 0.608039 0.098420
O O15 0.000000 0.622325 0.258398
O O16 0.372979 0.500000 0.000000
#
# Coordination Sequence:
#
# PCOD8280531 Si02
#       6
#    16  16  16  16  16  16
#     4  10  20  38  61  81 110 153 194 231 278 339
#     4  11  22  36  58  86 116 147 188 237 283 333
#     4  10  21  37  60  86 112 146 188 229 283 347
#     4   9  19  36  57  82 110 144 184 227 277 336
#     4  10  22  38  57  83 115 154 193 229 279 340
#     4  10  21  38  60  85 114 148 190 240 281 329
#
# _framework density 19.420670999999999
#
# number of rings (size 3 to 8) (size 9 to 14) (size 15 to 20)
#    0.000    2.000    1.667    1.500    2.333    5.667 
#    0.000    0.000    0.000    5.000    0.000    0.000 
#    0.000    0.000    0.000    0.000    0.000    0.000 
#
# Total GULP energy -595316.107997 kJ/mol
# GULP energy per Si atom -12402.418917 kJ/mol
# Density = 1.937647 g / cm^3
# Si number density = 19.420671 Si / 1000 Ang^3
#
#
#
# Elastic Constant Matrix: (Units=GPa)
#
#
# Indices 1 2 3 4 5 6 
#
# 1 136.7677 32.1525 48.6820 0.0000 0.0000 0.0000
# 2 32.1525 28.3773 19.0555 0.0000 0.0000 0.0000
# 3 48.6820 19.0555 96.6136 0.0000 0.0000 0.0000
# 4 0.0000 0.0000 0.0000 25.2772 0.0000 0.0000
# 5 0.0000 0.0000 0.0000 0.0000 40.9307 0.0000
# 6 0.0000 0.0000 0.0000 0.0000 0.0000 29.4949
#
#
#
# Elastic Compliance Matrix: (Units=1/GPa)
#
#
# Indices 1 2 3 4 5 6 
#
# 1 0.010919 -0.010002 -0.003529 0.000000 0.000000 0.000000
# 2 -0.010002 0.049781 -0.004779 0.000000 0.000000 0.000000
# 3 -0.003529 -0.004779 0.013071 0.000000 0.000000 0.000000
# 4 0.000000 0.000000 0.000000 0.039561 0.000000 0.000000
# 5 0.000000 0.000000 0.000000 0.000000 0.024432 0.000000
# 6 0.000000 0.000000 0.000000 0.000000 0.000000 0.033904
#
#
# Mechanical properties :
#
#
# Convention : Reuss Voigt Hill
#
# Bulk Modulus (GPa) = 26.91673 51.28207 39.09940
# Shear Modulus (GPa) = 22.65803 29.93180 26.29491
#
# Velocity S-wave (km/s) = 3.41940 3.93011 3.68362
# Velocity P-wave (km/s) = 5.42952 6.85986 6.18617
#
# Compressibility (1/GPa) = 0.03715161
#
# Stress axis : x y z
#
# Youngs Moduli (GPa) = 91.58134 20.08805 76.50296
#
# Poissons Ratio (x) = 0.20092 0.27000
# Poissons Ratio (y) = 0.91599 0.36558
# Poissons Ratio (z) = 0.32322 0.09599
#
# Static dielectric constant tensor:
#      x y z
#    x 3.592830 0.000000 0.000000 
#    y 0.000000 3.279870 0.000000 
#    z 0.000000 0.000000 3.672820 
# 
# 
# High freq. dielectric constant tensor:
#      x y z
#    x 1.765420 0.000000 0.000000 
#    y 0.000000 1.728160 0.000000 
#    z 0.000000 0.000000 1.767110 
# 
# From -- ./inp_files/13709.got.cif
#   From: 2010.03.12/outbox.cif.g09.slc.cpg/sg67_7_cif.got.tgz:13709.got - 2010.04.10 22:41:39.
