data_PCOD8280580
_publ_section_title
;
Structure prediction by ZEFSAII (Michael W. Deem and Ramdas Pophale) SiO2 
 PCOD8280580
Probable space group: C M M A
;
_chemical_formula_sum "Si O2"
_cell_formula_units_Z 88
_cell_length_a 26.448266
_cell_length_b 14.664714
_cell_length_c 11.524822
_cell_angle_alpha 90.000000
_cell_angle_beta 90.000000
_cell_angle_gamma 90.000000
_cell_volume 4469.974320
_symmetry_space_group_name_H-M "C M M A"
_symmetry_group_IT_number 67
_symmetry_cell_setting 'orthorhombic'
loop_
_space_group_symop_operation_xyz
x,y,z
-x,1/2-y,z
x,-y,-z
-x,1/2+y,-z
-x,-y,-z
x,1/2+y,-z
-x,y,z
x,1/2-y,z
1/2+x,1/2+y,z
1/2-x,-y,z
1/2+x,1/2-y,-z
1/2-x,y,-z
1/2-x,1/2-y,-z
1/2+x,y,-z
1/2-x,1/2+y,z
1/2+x,-y,z
loop_
_atom_site_type_symbol
_atom_site_label
_atom_site_fract_x
_atom_site_fract_y
_atom_site_fract_z
Si Si1 0.557732 0.144726 0.982470
Si Si2 0.098960 0.250000 0.590463
Si Si3 0.056766 0.389649 0.757422
Si Si4 0.442946 0.250000 0.647943
Si Si5 0.803267 0.455407 0.374065
Si Si6 0.302425 0.750000 0.441377
Si Si7 0.899706 0.072002 0.240613
O O1 0.500000 0.108062 0.968056
O O2 0.559580 0.250000 0.947105
O O3 0.577010 0.129454 0.112770
O O4 0.596139 0.091915 0.897003
O O5 0.093225 0.339173 0.668431
O O6 0.056148 0.250000 0.490923
O O7 0.154255 0.250000 0.537193
O O8 0.057944 0.496762 0.729279
O O9 0.000000 0.351492 0.745129
O O10 0.500000 0.250000 0.697847
O O11 0.411692 0.337824 0.687070
O O12 0.817122 0.500000 0.500000
O O13 0.750000 0.500000 0.333348
O O14 0.802933 0.344845 0.370703
O O15 0.846344 0.474619 0.277554
O O16 0.250000 0.750000 0.500000
#
# Coordination Sequence:
#
# PCOD8280580 Si02
#       7
#    16   8  16   8  16   8  16
#     4  10  20  39  63  88 123 170 217 254 300 372
#     4  12  24  41  60  92 130 166 207 260 311 372
#     4  11  23  39  62  91 127 171 215 257 302 371
#     4  12  24  37  56  90 139 176 198 243 314 390
#     4  11  23  41  63  92 124 157 209 265 318 383
#     4  12  22  42  66  86 118 160 208 256 311 374
#     4  12  23  38  63  93 125 165 213 261 314 377
#
# _framework density 19.686914000000002
#
# number of rings (size 3 to 8) (size 9 to 14) (size 15 to 20)
#    0.000    0.727    5.455    4.091    0.000    1.455 
#    0.000    1.818    0.000    2.182    0.000    2.545 
#    0.000    0.000    0.000    0.000    0.000    0.000 
#
# Total GULP energy -545352.532499 kJ/mol
# GULP energy per Si atom -12394.375739 kJ/mol
# Density = 1.964211 g / cm^3
# Si number density = 19.686914 Si / 1000 Ang^3
#
#
#
# Elastic Constant Matrix: (Units=GPa)
#
#
# Indices 1 2 3 4 5 6 
#
# 1 120.4068 22.4893 46.5279 0.0000 0.0000 0.0000
# 2 22.4893 128.4301 29.1807 0.0000 0.0000 0.0000
# 3 46.5279 29.1807 98.5497 0.0000 0.0000 0.0000
# 4 0.0000 0.0000 0.0000 9.0453 0.0000 0.0000
# 5 0.0000 0.0000 0.0000 0.0000 30.7952 0.0000
# 6 0.0000 0.0000 0.0000 0.0000 0.0000 28.8983
#
#
#
# Elastic Compliance Matrix: (Units=1/GPa)
#
#
# Indices 1 2 3 4 5 6 
#
# 1 0.010224 -0.000744 -0.004607 0.000000 0.000000 0.000000
# 2 -0.000744 0.008402 -0.002137 0.000000 0.000000 0.000000
# 3 -0.004607 -0.002137 0.012955 0.000000 0.000000 0.000000
# 4 0.000000 0.000000 0.000000 0.110554 0.000000 0.000000
# 5 0.000000 0.000000 0.000000 0.000000 0.032473 0.000000
# 6 0.000000 0.000000 0.000000 0.000000 0.000000 0.034604
#
#
# Mechanical properties :
#
#
# Convention : Reuss Voigt Hill
#
# Bulk Modulus (GPa) = 60.21718 60.42027 60.31872
# Shear Modulus (GPa) = 21.76540 30.36034 26.06287
#
# Velocity S-wave (km/s) = 3.32863 3.93129 3.64245
# Velocity P-wave (km/s) = 6.73994 7.16686 6.95668
#
# Compressibility (1/GPa) = 0.01660656
#
# Stress axis : x y z
#
# Youngs Moduli (GPa) = 97.80612 119.01859 77.19064
#
# Poissons Ratio (x) = 0.08850 0.35562
# Poissons Ratio (y) = 0.07273 0.16494
# Poissons Ratio (z) = 0.45059 0.25432
#
# Static dielectric constant tensor:
#      x y z
#    x 3.562310 0.000000 0.000000 
#    y 0.000000 3.773830 0.000000 
#    z 0.000000 0.000000 3.519470 
# 
# 
# High freq. dielectric constant tensor:
#      x y z
#    x 1.747420 0.000000 0.000000 
#    y 0.000000 1.792830 0.000000 
#    z 0.000000 0.000000 1.755430 
# 
# From -- ./inp_files/21805.got.cif
#   From: 2010.03.12/outbox.cif.g09.slc.cpg/sg67_11_cif.got.tgz:21805.got - 2010.04.10 22:41:39.
