data_PCOD8280074
_publ_section_title
;
Structure prediction by ZEFSAII (Michael W. Deem and Ramdas Pophale) SiO2 
 PCOD8280074
Probable space group: C M M A
;
_chemical_formula_sum "Si O2"
_cell_formula_units_Z 120
_cell_length_a 28.760556
_cell_length_b 8.872698
_cell_length_c 25.086137
_cell_angle_alpha 90.000000
_cell_angle_beta 90.000000
_cell_angle_gamma 90.000000
_cell_volume 6401.573953
_symmetry_space_group_name_H-M "C M M A"
_symmetry_group_IT_number 67
_symmetry_cell_setting 'orthorhombic'
loop_
_space_group_symop_operation_xyz
x,y,z
-x,1/2-y,z
x,-y,-z
-x,1/2+y,-z
-x,-y,-z
x,1/2+y,-z
-x,y,z
x,1/2-y,z
1/2+x,1/2+y,z
1/2-x,-y,z
1/2+x,1/2-y,-z
1/2-x,y,-z
1/2-x,1/2-y,-z
1/2+x,y,-z
1/2-x,1/2+y,z
1/2+x,-y,z
loop_
_atom_site_type_symbol
_atom_site_label
_atom_site_fract_x
_atom_site_fract_y
_atom_site_fract_z
Si Si1 0.700147 0.072396 0.249885
Si Si2 0.601732 0.574633 0.442681
Si Si3 0.201305 0.570534 0.943569
Si Si4 0.551453 0.919770 0.173684
Si Si5 0.862828 0.425266 0.654623
Si Si6 0.142505 0.926026 0.146179
Si Si7 0.051825 0.080951 0.299807
Si Si8 0.000000 0.077142 0.443872
O O1 0.706146 0.250000 0.251254
O O2 0.676907 0.014726 0.305014
O O3 0.667333 0.024057 0.200984
O O4 0.750000 0.000000 0.242105
O O5 0.607644 0.500000 0.500000
O O6 0.610370 0.750000 0.450253
O O7 0.640412 0.510145 0.402135
O O8 0.550038 0.538807 0.416207
O O9 0.205943 0.750000 0.948467
O O10 0.250000 0.500000 0.924179
O O11 0.162526 0.526585 0.901170
O O12 0.186737 0.500000 0.000000
O O13 0.500000 0.959367 0.151294
O O14 0.565513 0.750000 0.156697
O O15 0.549927 0.931322 0.236826
O O16 0.587871 0.038290 0.149763
O O17 0.856753 0.250000 0.644053
O O18 0.913045 0.454872 0.680121
O O19 0.149871 0.750000 0.134130
O O20 0.068083 0.250000 0.317260
O O21 0.000000 0.052130 0.323741
O O22 0.000000 0.250000 0.458325
O O23 0.000000 0.000000 0.500000
#
# Coordination Sequence:
#
# PCOD8280074 Si02
#       8
#    16  16  16  16  16  16  16   8
#     4  10  23  39  56  80 111 143 180 224 274 329
#     4  10  20  35  53  75 102 139 178 220 265 319
#     4  11  22  38  59  86 117 152 192 238 288 338
#     4   9  18  33  53  79 112 151 193 234 275 324
#     4  11  22  36  52  78 109 141 178 223 273 326
#     4  11  21  36  57  85 118 153 191 231 278 334
#     4   9  18  32  50  74 106 144 185 224 264 317
#     4   8  16  30  48  70 100 132 172 212 253 304
#
# _framework density 18.74539
#
# number of rings (size 3 to 8) (size 9 to 14) (size 15 to 20)
#    0.000    2.000    1.333    4.000    0.933    4.267 
#    0.000    1.333    0.000    0.800    0.000    2.800 
#    0.000    0.000    0.000    0.000    0.000    0.000 
#
# Total GULP energy -743827.139030 kJ/mol
# GULP energy per Si atom -12397.118984 kJ/mol
# Density = 1.870272 g / cm^3
# Si number density = 18.745390 Si / 1000 Ang^3
#
#
#
# Elastic Constant Matrix: (Units=GPa)
#
#
# Indices 1 2 3 4 5 6 
#
# 1 96.2844 36.4678 44.6553 0.0000 0.0000 0.0000
# 2 36.4678 83.8666 41.2566 0.0000 0.0000 0.0000
# 3 44.6553 41.2566 77.6409 0.0000 0.0000 0.0000
# 4 0.0000 0.0000 0.0000 29.8933 0.0000 0.0000
# 5 0.0000 0.0000 0.0000 0.0000 26.8672 0.0000
# 6 0.0000 0.0000 0.0000 0.0000 0.0000 30.5786
#
#
#
# Elastic Compliance Matrix: (Units=1/GPa)
#
#
# Indices 1 2 3 4 5 6 
#
# 1 0.014710 -0.003025 -0.006853 0.000000 0.000000 0.000000
# 2 -0.003025 0.016766 -0.007169 0.000000 0.000000 0.000000
# 3 -0.006853 -0.007169 0.020631 0.000000 0.000000 0.000000
# 4 0.000000 0.000000 0.000000 0.033452 0.000000 0.000000
# 5 0.000000 0.000000 0.000000 0.000000 0.037220 0.000000
# 6 0.000000 0.000000 0.000000 0.000000 0.000000 0.032703
#
#
# Mechanical properties :
#
#
# Convention : Reuss Voigt Hill
#
# Bulk Modulus (GPa) = 55.51789 55.83905 55.67847
# Shear Modulus (GPa) = 25.56498 26.49530 26.03014
#
# Velocity S-wave (km/s) = 3.69697 3.76364 3.73046
# Velocity P-wave (km/s) = 6.92132 6.98137 6.95141
#
# Compressibility (1/GPa) = 0.01801221
#
# Stress axis : x y z
#
# Youngs Moduli (GPa) = 67.98104 59.64511 48.47125
#
# Poissons Ratio (x) = 0.18044 0.33217
# Poissons Ratio (y) = 0.20565 0.34749
# Poissons Ratio (z) = 0.46587 0.42760
#
# Static dielectric constant tensor:
#      x y z
#    x 3.547550 0.000000 0.000000 
#    y 0.000000 3.395040 0.000000 
#    z 0.000000 0.000000 3.397360 
# 
# 
# High freq. dielectric constant tensor:
#      x y z
#    x 1.711920 0.000000 0.000000 
#    y 0.000000 1.728840 0.000000 
#    z 0.000000 0.000000 1.723520 
# 
# From -- ./inp_files/45014.got.cif
#   From: 2010.03.12/outbox.cif.g09.slc.cpg/sg67_23_cif.got.tgz:45014.got - 2010.04.10 22:41:39.
