data_PCOD8280099
_publ_section_title
;
Structure prediction by ZEFSAII (Michael W. Deem and Ramdas Pophale) SiO2 
 PCOD8280099
Probable space group: C M M A
;
_chemical_formula_sum "Si O2"
_cell_formula_units_Z 104
_cell_length_a 26.517640
_cell_length_b 8.771537
_cell_length_c 22.882159
_cell_angle_alpha 90.000000
_cell_angle_beta 90.000000
_cell_angle_gamma 90.000000
_cell_volume 5322.400719
_symmetry_space_group_name_H-M "C M M A"
_symmetry_group_IT_number 67
_symmetry_cell_setting 'orthorhombic'
loop_
_space_group_symop_operation_xyz
x,y,z
-x,1/2-y,z
x,-y,-z
-x,1/2+y,-z
-x,-y,-z
x,1/2+y,-z
-x,y,z
x,1/2-y,z
1/2+x,1/2+y,z
1/2-x,-y,z
1/2+x,1/2-y,-z
1/2-x,y,-z
1/2-x,1/2-y,-z
1/2+x,y,-z
1/2-x,1/2+y,z
1/2+x,-y,z
loop_
_atom_site_type_symbol
_atom_site_label
_atom_site_fract_x
_atom_site_fract_y
_atom_site_fract_z
Si Si1 0.398945 0.926810 0.761372
Si Si2 0.650448 0.430553 0.937464
Si Si3 0.000000 0.570191 0.436521
Si Si4 0.697029 0.067600 0.563783
Si Si5 0.555265 0.071761 0.868410
Si Si6 0.700098 0.071892 0.169693
Si Si7 0.398109 0.431051 0.371390
O O1 0.410994 0.750000 0.764856
O O2 0.343191 0.965758 0.783995
O O3 0.404497 0.984741 0.695388
O O4 0.439159 0.007263 0.803152
O O5 0.652115 0.250000 0.942209
O O6 0.596293 0.493130 0.914037
O O7 0.692097 0.488440 0.892208
O O8 0.662163 0.500000 0.000000
O O9 0.000000 0.500000 0.500000
O O10 0.949279 0.516062 0.403625
O O11 0.000000 0.750000 0.441841
O O12 0.700539 0.250000 0.560971
O O13 0.686705 0.000000 0.500000
O O14 0.750000 0.000000 0.588415
O O15 0.650465 0.017781 0.603860
O O16 0.500000 0.027922 0.892377
O O17 0.562945 0.250000 0.862975
O O18 0.705831 0.250000 0.158167
O O19 0.750000 0.000000 0.198104
O O20 0.389216 0.250000 0.376647
#
# Coordination Sequence:
#
# PCOD8280099 Si02
#       7
#    16  16   8  16  16  16  16
#     4   9  20  36  56  81 110 142 182 227 273 326
#     4  10  20  35  54  78 109 142 180 227 274 327
#     4  10  22  38  58  82 116 156 193 236 285 336
#     4  11  22  38  60  85 113 148 187 234 286 341
#     4   9  19  35  54  77 108 144 180 224 276 324
#     4  10  20  36  56  80 108 143 181 223 274 330
#     4  10  21  38  58  85 117 152 193 238 285 339
#
# _framework density 19.540056
#
# number of rings (size 3 to 8) (size 9 to 14) (size 15 to 20)
#    0.000    2.154    0.000    3.231    1.077    5.231 
#    0.000    3.077    0.000    0.000    0.000    0.000 
#    0.000    0.000    0.000    0.000    0.000    0.000 
#
# Total GULP energy -644811.043940 kJ/mol
# GULP energy per Si atom -12400.212383 kJ/mol
# Density = 1.949558 g / cm^3
# Si number density = 19.540056 Si / 1000 Ang^3
#
#
#
# Elastic Constant Matrix: (Units=GPa)
#
#
# Indices 1 2 3 4 5 6 
#
# 1 94.3101 28.8940 25.1635 0.0000 0.0000 0.0000
# 2 28.8940 61.8079 17.4942 0.0000 0.0000 0.0000
# 3 25.1635 17.4942 86.8728 0.0000 0.0000 0.0000
# 4 0.0000 0.0000 0.0000 30.3031 0.0000 0.0000
# 5 0.0000 0.0000 0.0000 0.0000 19.0094 0.0000
# 6 0.0000 0.0000 0.0000 0.0000 0.0000 28.8818
#
#
#
# Elastic Compliance Matrix: (Units=1/GPa)
#
#
# Indices 1 2 3 4 5 6 
#
# 1 0.012940 -0.005290 -0.002683 0.000000 0.000000 0.000000
# 2 -0.005290 0.019320 -0.002358 0.000000 0.000000 0.000000
# 3 -0.002683 -0.002358 0.012763 0.000000 0.000000 0.000000
# 4 0.000000 0.000000 0.000000 0.033000 0.000000 0.000000
# 5 0.000000 0.000000 0.000000 0.000000 0.052605 0.000000
# 6 0.000000 0.000000 0.000000 0.000000 0.000000 0.034624
#
#
# Mechanical properties :
#
#
# Convention : Reuss Voigt Hill
#
# Bulk Modulus (GPa) = 41.04993 42.89934 41.97464
# Shear Modulus (GPa) = 25.76873 27.06815 26.41844
#
# Velocity S-wave (km/s) = 3.63542 3.72595 3.68096
# Velocity P-wave (km/s) = 6.21895 6.36494 6.29237
#
# Compressibility (1/GPa) = 0.02436058
#
# Stress axis : x y z
#
# Youngs Moduli (GPa) = 77.28102 51.76116 78.35083
#
# Poissons Ratio (x) = 0.27380 0.21021
# Poissons Ratio (y) = 0.40880 0.18477
# Poissons Ratio (z) = 0.20734 0.12207
#
# Static dielectric constant tensor:
#      x y z
#    x 3.885900 0.000000 0.000000 
#    y 0.000000 3.520180 0.000000 
#    z 0.000000 0.000000 3.594710 
# 
# 
# High freq. dielectric constant tensor:
#      x y z
#    x 1.773690 0.000000 0.000000 
#    y 0.000000 1.758940 0.000000 
#    z 0.000000 0.000000 1.756620 
# 
# From -- ./inp_files/39972.got.cif
#   From: 2010.03.12/outbox.cif.g09.slc.cpg/sg67_20_cif.got.tgz:39972.got - 2010.04.10 22:41:39.
