data_PCOD8280348
_publ_section_title
;
Structure prediction by ZEFSAII (Michael W. Deem and Ramdas Pophale) SiO2 
 PCOD8280348
Probable space group: C M M A
;
_chemical_formula_sum "Si O2"
_cell_formula_units_Z 88
_cell_length_a 16.161619
_cell_length_b 9.696831
_cell_length_c 29.968472
_cell_angle_alpha 90.000000
_cell_angle_beta 90.000000
_cell_angle_gamma 90.000000
_cell_volume 4696.553686
_symmetry_space_group_name_H-M "C M M A"
_symmetry_group_IT_number 67
_symmetry_cell_setting 'orthorhombic'
loop_
_space_group_symop_operation_xyz
x,y,z
-x,1/2-y,z
x,-y,-z
-x,1/2+y,-z
-x,-y,-z
x,1/2+y,-z
-x,y,z
x,1/2-y,z
1/2+x,1/2+y,z
1/2-x,-y,z
1/2+x,1/2-y,-z
1/2-x,y,-z
1/2-x,1/2-y,-z
1/2+x,y,-z
1/2-x,1/2+y,z
1/2+x,-y,z
loop_
_atom_site_type_symbol
_atom_site_label
_atom_site_fract_x
_atom_site_fract_y
_atom_site_fract_z
Si Si1 0.096430 0.098471 0.537228
Si Si2 0.000000 0.410556 0.955968
Si Si3 0.330178 0.091488 0.371628
Si Si4 0.170905 0.588052 0.095442
Si Si5 0.169403 0.909369 0.274187
Si Si6 0.410146 0.586820 0.815821
O O1 0.135839 0.250000 0.530914
O O2 0.110052 0.045947 0.587952
O O3 0.000000 0.105199 0.528242
O O4 0.138397 0.000000 0.500000
O O5 0.084614 0.446735 0.929496
O O6 0.000000 0.250000 0.968539
O O7 0.000000 0.500000 0.000000
O O8 0.303145 0.250000 0.376645
O O9 0.373969 0.070950 0.322960
O O10 0.250000 0.000000 0.375294
O O11 0.192372 0.750000 0.090524
O O12 0.250000 0.500000 0.077245
O O13 0.156671 0.541860 0.146994
O O14 0.193564 0.750000 0.266372
O O15 0.112242 0.963201 0.234010
O O16 0.250000 0.000000 0.273220
O O17 0.500000 0.522876 0.827302
O O18 0.417273 0.750000 0.817522
#
# Coordination Sequence:
#
# PCOD8280348 Si02
#       6
#    16   8  16  16  16  16
#     4   9  18  32  48  65  87 115 150 193 238 286
#     4  10  22  40  60  82 114 150 186 230 275 322
#     4   9  18  31  46  67  94 122 153 194 241 288
#     4  10  20  36  58  83 112 147 184 226 274 322
#     4   9  17  29  47  70  96 127 161 197 242 296
#     4   9  16  29  51  77 104 135 173 213 254 305
#
# _framework density 18.737143
#
# number of rings (size 3 to 8) (size 9 to 14) (size 15 to 20)
#    0.000    2.727    0.909    0.545    0.000    2.909 
#    0.000    7.273    0.000    1.636    0.000    5.091 
#    0.000    0.000    0.000    0.000    0.000    0.000 
#
# Total GULP energy -545079.260668 kJ/mol
# GULP energy per Si atom -12388.165015 kJ/mol
# Density = 1.869450 g / cm^3
# Si number density = 18.737143 Si / 1000 Ang^3
#
#
#
# Elastic Constant Matrix: (Units=GPa)
#
#
# Indices 1 2 3 4 5 6 
#
# 1 87.5998 36.8901 46.3167 0.0000 0.0000 0.0000
# 2 36.8901 49.5497 49.4000 0.0000 0.0000 0.0000
# 3 46.3167 49.4000 139.7046 0.0000 0.0000 0.0000
# 4 0.0000 0.0000 0.0000 34.1490 0.0000 0.0000
# 5 0.0000 0.0000 0.0000 0.0000 21.1374 0.0000
# 6 0.0000 0.0000 0.0000 0.0000 0.0000 22.9019
#
#
#
# Elastic Compliance Matrix: (Units=1/GPa)
#
#
# Indices 1 2 3 4 5 6 
#
# 1 0.016912 -0.010813 -0.001783 0.000000 0.000000 0.000000
# 2 -0.010813 0.038084 -0.009882 0.000000 0.000000 0.000000
# 3 -0.001783 -0.009882 0.011243 0.000000 0.000000 0.000000
# 4 0.000000 0.000000 0.000000 0.029283 0.000000 0.000000
# 5 0.000000 0.000000 0.000000 0.000000 0.047310 0.000000
# 6 0.000000 0.000000 0.000000 0.000000 0.000000 0.043664
#
#
# Mechanical properties :
#
#
# Convention : Reuss Voigt Hill
#
# Bulk Modulus (GPa) = 46.98572 60.22975 53.60774
# Shear Modulus (GPa) = 20.96014 25.25415 23.10714
#
# Velocity S-wave (km/s) = 3.34824 3.67524 3.51554
# Velocity P-wave (km/s) = 6.33074 7.08690 6.71947
#
# Compressibility (1/GPa) = 0.02128306
#
# Stress axis : x y z
#
# Youngs Moduli (GPa) = 59.12915 26.25766 88.94113
#
# Poissons Ratio (x) = 0.28393 0.15861
# Poissons Ratio (y) = 0.63938 0.87889
# Poissons Ratio (z) = 0.10545 0.25947
#
# Static dielectric constant tensor:
#      x y z
#    x 3.349670 0.000000 0.000000 
#    y 0.000000 3.224420 0.000000 
#    z 0.000000 0.000000 3.972960 
# 
# 
# High freq. dielectric constant tensor:
#      x y z
#    x 1.707670 0.000000 0.000000 
#    y 0.000000 1.702670 0.000000 
#    z 0.000000 0.000000 1.746070 
# 
# From -- ./inp_files/44309.got.cif
#   From: 2010.03.12/outbox.cif.g09.slc.cpg/sg67_23_cif.got.tgz:44309.got - 2010.04.10 22:41:39.
