data_PCOD8280132
_publ_section_title
;
Structure prediction by ZEFSAII (Michael W. Deem and Ramdas Pophale) SiO2 
 PCOD8280132
Probable space group: C M M A
;
_chemical_formula_sum "Si O2"
_cell_formula_units_Z 88
_cell_length_a 15.871554
_cell_length_b 8.851911
_cell_length_c 29.578807
_cell_angle_alpha 90.000000
_cell_angle_beta 90.000000
_cell_angle_gamma 90.000000
_cell_volume 4155.632589
_symmetry_space_group_name_H-M "C M M A"
_symmetry_group_IT_number 67
_symmetry_cell_setting 'orthorhombic'
loop_
_space_group_symop_operation_xyz
x,y,z
-x,1/2-y,z
x,-y,-z
-x,1/2+y,-z
-x,-y,-z
x,1/2+y,-z
-x,y,z
x,1/2-y,z
1/2+x,1/2+y,z
1/2-x,-y,z
1/2+x,1/2-y,-z
1/2-x,y,-z
1/2-x,1/2-y,-z
1/2+x,y,-z
1/2-x,1/2+y,z
1/2+x,-y,z
loop_
_atom_site_type_symbol
_atom_site_label
_atom_site_fract_x
_atom_site_fract_y
_atom_site_fract_z
Si Si1 0.338145 0.571588 0.902709
Si Si2 0.099529 0.081817 0.634266
Si Si3 0.500000 0.568881 0.049398
Si Si4 0.338326 0.073678 0.723736
Si Si5 0.094610 0.581146 0.192652
Si Si6 0.600562 0.420115 0.545034
O O1 0.341009 0.750000 0.913922
O O2 0.250000 0.500000 0.919776
O O3 0.415500 0.488170 0.926413
O O4 0.344066 0.542208 0.848856
O O5 0.137660 0.250000 0.638887
O O6 0.000000 0.089373 0.630734
O O7 0.124053 0.984442 0.677167
O O8 0.136672 0.006339 0.588922
O O9 0.500000 0.750000 0.048252
O O10 0.500000 0.500000 0.000000
O O11 0.328019 0.250000 0.719231
O O12 0.250000 0.000000 0.734945
O O13 0.397743 0.034488 0.765909
O O14 0.113589 0.750000 0.211009
O O15 0.000000 0.570617 0.173530
O O16 0.635595 0.500000 0.500000
O O17 0.500000 0.422705 0.545245
O O18 0.634809 0.250000 0.546003
#
# Coordination Sequence:
#
# PCOD8280132 Si02
#       6
#    16  16   8  16  16  16
#     4  11  23  43  69 102 139 180 226 278 335 397
#     4  10  20  35  55  79 109 145 185 234 293 354
#     4  12  26  46  72 102 138 182 230 284 339 398
#     4  12  25  39  56  81 114 154 199 247 298 361
#     4  10  21  40  65  93 127 165 205 256 313 373
#     4   9  16  27  46  74 106 139 179 229 284 344
#
# _framework density 21.176079000000001
#
# number of rings (size 3 to 8) (size 9 to 14) (size 15 to 20)
#    0.000    1.455    0.909    5.182    0.000    9.091 
#    0.000    1.818    0.000    0.545    0.000    3.818 
#    0.000    0.000    0.000    0.000    0.000    0.000 
#
# Total GULP energy -545692.435172 kJ/mol
# GULP energy per Si atom -12402.100799 kJ/mol
# Density = 2.112788 g / cm^3
# Si number density = 21.176079 Si / 1000 Ang^3
#
#
#
# Elastic Constant Matrix: (Units=GPa)
#
#
# Indices 1 2 3 4 5 6 
#
# 1 82.3662 50.9636 39.3213 0.0000 0.0000 0.0000
# 2 50.9636 200.5705 77.2656 0.0000 0.0000 0.0000
# 3 39.3213 77.2656 129.7039 0.0000 0.0000 0.0000
# 4 0.0000 0.0000 0.0000 44.6687 0.0000 0.0000
# 5 0.0000 0.0000 0.0000 0.0000 13.2670 0.0000
# 6 0.0000 0.0000 0.0000 0.0000 0.0000 29.2059
#
#
#
# Elastic Compliance Matrix: (Units=1/GPa)
#
#
# Indices 1 2 3 4 5 6 
#
# 1 0.015258 -0.002719 -0.003006 0.000000 0.000000 0.000000
# 2 -0.002719 0.006955 -0.003319 0.000000 0.000000 0.000000
# 3 -0.003006 -0.003319 0.010598 0.000000 0.000000 0.000000
# 4 0.000000 0.000000 0.000000 0.022387 0.000000 0.000000
# 5 0.000000 0.000000 0.000000 0.000000 0.075375 0.000000
# 6 0.000000 0.000000 0.000000 0.000000 0.000000 0.034240
#
#
# Mechanical properties :
#
#
# Convention : Reuss Voigt Hill
#
# Bulk Modulus (GPa) = 67.91699 83.08241 75.49970
# Shear Modulus (GPa) = 26.62269 33.76764 30.19516
#
# Velocity S-wave (km/s) = 3.54956 3.99759 3.78022
# Velocity P-wave (km/s) = 6.99580 7.78633 7.40163
#
# Compressibility (1/GPa) = 0.01472386
#
# Stress axis : x y z
#
# Youngs Moduli (GPa) = 65.53789 143.77663 94.35457
#
# Poissons Ratio (x) = 0.39093 0.28363
# Poissons Ratio (y) = 0.17820 0.31316
# Poissons Ratio (z) = 0.19701 0.47719
#
# Static dielectric constant tensor:
#      x y z
#    x 3.676260 0.000000 0.000000 
#    y 0.000000 3.943210 0.000000 
#    z 0.000000 0.000000 4.050230 
# 
# 
# High freq. dielectric constant tensor:
#      x y z
#    x 1.816550 0.000000 0.000000 
#    y 0.000000 1.842190 0.000000 
#    z 0.000000 0.000000 1.837840 
# 
# From -- ./inp_files/45781.got.cif
#   From: 2010.03.12/outbox.cif.g09.slc.cpg/sg67_23_cif.got.tgz:45781.got - 2010.04.10 22:41:39.
