data_PCOD8280322
_publ_section_title
;
Structure prediction by ZEFSAII (Michael W. Deem and Ramdas Pophale) SiO2 
 PCOD8280322
Probable space group: C M M A
;
_chemical_formula_sum "Si O2"
_cell_formula_units_Z 72
_cell_length_a 8.704333
_cell_length_b 15.455391
_cell_length_c 27.954930
_cell_angle_alpha 90.000000
_cell_angle_beta 90.000000
_cell_angle_gamma 90.000000
_cell_volume 3760.745141
_symmetry_space_group_name_H-M "C M M A"
_symmetry_group_IT_number 67
_symmetry_cell_setting 'orthorhombic'
loop_
_space_group_symop_operation_xyz
x,y,z
-x,1/2-y,z
x,-y,-z
-x,1/2+y,-z
-x,-y,-z
x,1/2+y,-z
-x,y,z
x,1/2-y,z
1/2+x,1/2+y,z
1/2-x,-y,z
1/2+x,1/2-y,-z
1/2-x,y,-z
1/2-x,1/2-y,-z
1/2+x,y,-z
1/2-x,1/2+y,z
1/2+x,-y,z
loop_
_atom_site_type_symbol
_atom_site_label
_atom_site_fract_x
_atom_site_fract_y
_atom_site_fract_z
Si Si1 0.682263 0.750000 0.947503
Si Si2 0.318497 0.909599 0.551364
Si Si3 0.819412 0.410540 0.219605
Si Si4 0.181909 0.591253 0.890246
Si Si5 0.181869 0.250000 0.279239
Si Si6 0.179869 0.250000 0.617202
O O1 0.500000 0.750000 0.949631
O O2 0.740071 0.834782 0.920832
O O3 0.750000 0.750000 0.000000
O O4 0.500000 0.918196 0.546213
O O5 0.250000 0.885308 0.500000
O O6 0.270713 0.834881 0.588006
O O7 0.250000 0.000000 0.570496
O O8 0.750000 0.500000 0.238494
O O9 0.772718 0.392368 0.164876
O O10 0.750960 0.334320 0.252503
O O11 0.000000 0.417127 0.224891
O O12 0.250000 0.500000 0.907785
O O13 0.000000 0.592584 0.898109
O O14 0.228564 0.250000 0.333936
O O15 0.000000 0.250000 0.274750
O O16 0.000000 0.250000 0.628094
#
# Coordination Sequence:
#
# PCOD8280322 Si02
#       6
#     8  16  16  16   8   8
#     4  12  25  40  58  84 116 152 191 230 280 336
#     4  10  20  36  57  80 105 135 175 220 267 317
#     4   9  19  36  58  83 110 142 182 226 272 321
#     4  10  20  38  62  87 115 147 186 234 282 331
#     4  10  21  36  54  78 110 148 183 218 266 322
#     4  10  23  38  52  76 110 144 177 218 266 318
#
# _framework density 19.145143999999998
#
# number of rings (size 3 to 8) (size 9 to 14) (size 15 to 20)
#    0.000    2.000    0.000    4.000    0.000    6.667 
#    0.000    7.778    0.000    0.000    0.000    0.000 
#    0.000    0.000    0.000    0.000    0.000    0.000 
#
# Total GULP energy -446513.619969 kJ/mol
# GULP energy per Si atom -12403.156110 kJ/mol
# Density = 1.910157 g / cm^3
# Si number density = 19.145144 Si / 1000 Ang^3
#
#
#
# Elastic Constant Matrix: (Units=GPa)
#
#
# Indices 1 2 3 4 5 6 
#
# 1 80.8064 62.2484 48.4603 0.0000 0.0000 0.0000
# 2 62.2484 201.5184 107.4238 0.0000 0.0000 0.0000
# 3 48.4603 107.4238 120.7324 0.0000 0.0000 0.0000
# 4 0.0000 0.0000 0.0000 42.3003 0.0000 0.0000
# 5 0.0000 0.0000 0.0000 0.0000 31.3225 0.0000
# 6 0.0000 0.0000 0.0000 0.0000 0.0000 35.5676
#
#
#
# Elastic Compliance Matrix: (Units=1/GPa)
#
#
# Indices 1 2 3 4 5 6 
#
# 1 0.017271 -0.003119 -0.004157 0.000000 0.000000 0.000000
# 2 -0.003119 0.010003 -0.007648 0.000000 0.000000 0.000000
# 3 -0.004157 -0.007648 0.016757 0.000000 0.000000 0.000000
# 4 0.000000 0.000000 0.000000 0.023640 0.000000 0.000000
# 5 0.000000 0.000000 0.000000 0.000000 0.031926 0.000000
# 6 0.000000 0.000000 0.000000 0.000000 0.000000 0.028115
#
#
# Mechanical properties :
#
#
# Convention : Reuss Voigt Hill
#
# Bulk Modulus (GPa) = 70.51392 93.25802 81.88597
# Shear Modulus (GPa) = 30.80930 34.16638 32.48784
#
# Velocity S-wave (km/s) = 4.01590 4.22903 4.12384
# Velocity P-wave (km/s) = 7.64293 8.52427 8.09560
#
# Compressibility (1/GPa) = 0.01418160
#
# Stress axis : x y z
#
# Youngs Moduli (GPa) = 57.90059 99.97155 59.67747
#
# Poissons Ratio (x) = 0.31179 0.24810
# Poissons Ratio (y) = 0.18058 0.45644
# Poissons Ratio (z) = 0.24071 0.76462
#
# Static dielectric constant tensor:
#      x y z
#    x 3.495200 0.000000 0.000000 
#    y 0.000000 3.829920 0.000000 
#    z 0.000000 0.000000 3.415490 
# 
# 
# High freq. dielectric constant tensor:
#      x y z
#    x 1.746980 0.000000 0.000000 
#    y 0.000000 1.764210 0.000000 
#    z 0.000000 0.000000 1.740190 
# 
# From -- ./inp_files/43139.got.cif
#   From: 2010.03.12/outbox.cif.g09.slc.cpg/sg67_22_cif.got.tgz:43139.got - 2010.04.10 22:41:39.
