data_PCOD8280359
_publ_section_title
;
Structure prediction by ZEFSAII (Michael W. Deem and Ramdas Pophale) SiO2 
 PCOD8280359
Probable space group: C M M A
;
_chemical_formula_sum "Si O2"
_cell_formula_units_Z 96
_cell_length_a 18.282877
_cell_length_b 24.759487
_cell_length_c 11.616857
_cell_angle_alpha 90.000000
_cell_angle_beta 90.000000
_cell_angle_gamma 90.000000
_cell_volume 5258.656739
_symmetry_space_group_name_H-M "C M M A"
_symmetry_group_IT_number 67
_symmetry_cell_setting 'orthorhombic'
loop_
_space_group_symop_operation_xyz
x,y,z
-x,1/2-y,z
x,-y,-z
-x,1/2+y,-z
-x,-y,-z
x,1/2+y,-z
-x,y,z
x,1/2-y,z
1/2+x,1/2+y,z
1/2-x,-y,z
1/2+x,1/2-y,-z
1/2-x,y,-z
1/2-x,1/2-y,-z
1/2+x,y,-z
1/2-x,1/2+y,z
1/2+x,-y,z
loop_
_atom_site_type_symbol
_atom_site_label
_atom_site_fract_x
_atom_site_fract_y
_atom_site_fract_z
Si Si1 0.082361 0.494597 0.364805
Si Si2 0.349226 0.906335 0.762903
Si Si3 0.679676 0.594410 0.253774
Si Si4 0.818551 0.688331 0.576333
Si Si5 0.336283 0.560773 0.007023
Si Si6 0.416648 0.811700 0.632860
O O1 0.088183 0.500000 0.500000
O O2 0.102359 0.550986 0.305706
O O3 0.138487 0.448119 0.332503
O O4 0.000000 0.478951 0.327588
O O5 0.264590 0.921933 0.747423
O O6 0.366128 0.846610 0.717273
O O7 0.369166 0.906631 0.898732
O O8 0.670816 0.653902 0.307703
O O9 0.643624 0.591348 0.126120
O O10 0.804921 0.750000 0.615011
O O11 0.750000 0.667463 0.500000
O O12 0.891041 0.682317 0.499118
O O13 0.368841 0.500000 0.000000
O O14 0.250000 0.557559 0.000000
O O15 0.500000 0.831637 0.639414
O O16 0.408183 0.750000 0.673846
#
# Coordination Sequence:
#
# PCOD8280359 Si02
#       6
#    16  16  16  16  16  16
#     4  11  24  36  50  79 117 147 182 236 292 344
#     4  11  20  36  59  80 110 151 191 232 278 337
#     4  11  21  35  58  83 109 148 190 235 282 334
#     4  10  20  36  58  86 115 146 188 233 280 343
#     4   9  18  35  54  79 112 149 188 233 278 328
#     4  10  21  37  59  86 116 149 184 230 289 341
#
# _framework density 18.255611999999999
#
# number of rings (size 3 to 8) (size 9 to 14) (size 15 to 20)
#    0.000    1.667    3.333    2.000    0.000    2.667 
#    0.000    3.333    0.000    3.000    0.000    2.333 
#    0.000    0.000    0.000    0.000    0.000    0.000 
#
# Total GULP energy -595204.989018 kJ/mol
# GULP energy per Si atom -12400.103938 kJ/mol
# Density = 1.821406 g / cm^3
# Si number density = 18.255612 Si / 1000 Ang^3
#
#
#
# Elastic Constant Matrix: (Units=GPa)
#
#
# Indices 1 2 3 4 5 6 
#
# 1 85.6544 28.5611 37.0008 0.0000 0.0000 0.0000
# 2 28.5611 99.7241 64.8326 0.0000 0.0000 0.0000
# 3 37.0008 64.8326 132.8063 0.0000 0.0000 0.0000
# 4 0.0000 0.0000 0.0000 25.5239 0.0000 0.0000
# 5 0.0000 0.0000 0.0000 0.0000 7.0918 0.0000
# 6 0.0000 0.0000 0.0000 0.0000 0.0000 23.4576
#
#
#
# Elastic Compliance Matrix: (Units=1/GPa)
#
#
# Indices 1 2 3 4 5 6 
#
# 1 0.013564 -0.002092 -0.002758 0.000000 0.000000 0.000000
# 2 -0.002092 0.015012 -0.006746 0.000000 0.000000 0.000000
# 3 -0.002758 -0.006746 0.011591 0.000000 0.000000 0.000000
# 4 0.000000 0.000000 0.000000 0.039179 0.000000 0.000000
# 5 0.000000 0.000000 0.000000 0.000000 0.141008 0.000000
# 6 0.000000 0.000000 0.000000 0.000000 0.000000 0.042630
#
#
# Mechanical properties :
#
#
# Convention : Reuss Voigt Hill
#
# Bulk Modulus (GPa) = 58.90520 64.33042 61.61781
# Shear Modulus (GPa) = 17.13302 23.73402 20.43352
#
# Velocity S-wave (km/s) = 3.06683 3.60959 3.34922
# Velocity P-wave (km/s) = 6.69907 7.25861 6.98445
#
# Compressibility (1/GPa) = 0.01697643
#
# Stress axis : x y z
#
# Youngs Moduli (GPa) = 73.72671 66.61174 86.27188
#
# Poissons Ratio (x) = 0.13934 0.23792
# Poissons Ratio (y) = 0.15422 0.58198
# Poissons Ratio (z) = 0.20332 0.44935
#
# Static dielectric constant tensor:
#      x y z
#    x 3.376270 0.000000 0.000000 
#    y 0.000000 3.342020 0.000000 
#    z 0.000000 0.000000 3.577170 
# 
# 
# High freq. dielectric constant tensor:
#      x y z
#    x 1.700410 0.000000 0.000000 
#    y 0.000000 1.701720 0.000000 
#    z 0.000000 0.000000 1.705690 
# 
# From -- ./inp_files/19676.got.cif
#   From: 2010.03.12/outbox.cif.g09.slc.cpg/sg67_10_cif.got.tgz:19676.got - 2010.04.10 22:41:39.
