data_PCOD8280898
_publ_section_title
;
Structure prediction by ZEFSAII (Michael W. Deem and Ramdas Pophale) SiO2 
 PCOD8280898
Probable space group: C M M A
;
_chemical_formula_sum "Si O2"
_cell_formula_units_Z 80
_cell_length_a 18.318188
_cell_length_b 8.815022
_cell_length_c 25.915767
_cell_angle_alpha 90.000000
_cell_angle_beta 90.000000
_cell_angle_gamma 90.000000
_cell_volume 4184.754443
_symmetry_space_group_name_H-M "C M M A"
_symmetry_group_IT_number 67
_symmetry_cell_setting 'orthorhombic'
loop_
_space_group_symop_operation_xyz
x,y,z
-x,1/2-y,z
x,-y,-z
-x,1/2+y,-z
-x,-y,-z
x,1/2+y,-z
-x,y,z
x,1/2-y,z
1/2+x,1/2+y,z
1/2-x,-y,z
1/2+x,1/2-y,-z
1/2-x,y,-z
1/2-x,1/2-y,-z
1/2+x,y,-z
1/2-x,1/2+y,z
1/2+x,-y,z
loop_
_atom_site_type_symbol
_atom_site_label
_atom_site_fract_x
_atom_site_fract_y
_atom_site_fract_z
Si Si1 0.829478 0.927745 0.549254
Si Si2 0.671247 0.429169 0.147220
Si Si3 0.585224 0.573666 0.238698
Si Si4 0.171919 0.073042 0.338005
Si Si5 0.083887 0.927360 0.945045
O O1 0.824643 0.750000 0.540149
O O2 0.863326 0.967309 0.605644
O O3 0.873255 0.000000 0.500000
O O4 0.750000 0.000000 0.549800
O O5 0.678316 0.250000 0.142343
O O6 0.750000 0.500000 0.156656
O O7 0.620603 0.470567 0.195166
O O8 0.636667 0.493955 0.095333
O O9 0.500000 0.541958 0.238847
O O10 0.602653 0.750000 0.227364
O O11 0.615701 0.520787 0.294159
O O12 0.186434 0.250000 0.335040
O O13 0.250000 0.000000 0.327943
O O14 0.101498 0.750000 0.947386
O O15 0.000000 0.956356 0.928811
O O16 0.100948 0.000000 0.000000
#
# Coordination Sequence:
#
# PCOD8280898 Si02
#       5
#    16  16  16  16  16
#     4   9  15  24  40  65  96 128 165 208 257 311
#     4  12  25  40  59  84 114 146 184 228 274 323
#     4  10  21  38  58  79 106 141 180 222 271 327
#     4   9  18  31  49  74 102 134 172 216 265 317
#     4  10  21  39  63  90 120 153 188 225 267 317
#
# _framework density 19.117011000000002
#
# number of rings (size 3 to 8) (size 9 to 14) (size 15 to 20)
#    0.000    2.000    0.000    4.800    0.000    7.600 
#    0.000    2.000    0.000    0.600    0.000    0.000 
#    0.000    0.000    0.000    0.000    0.000    5.400 
#
# Total GULP energy -495864.401035 kJ/mol
# GULP energy per Si atom -12396.610026 kJ/mol
# Density = 1.907350 g / cm^3
# Si number density = 19.117011 Si / 1000 Ang^3
#
#
#
# Elastic Constant Matrix: (Units=GPa)
#
#
# Indices 1 2 3 4 5 6 
#
# 1 83.4742 38.9478 58.2983 0.0000 0.0000 0.0000
# 2 38.9478 102.4549 62.6727 0.0000 0.0000 0.0000
# 3 58.2983 62.6727 147.9799 0.0000 0.0000 0.0000
# 4 0.0000 0.0000 0.0000 35.4372 0.0000 0.0000
# 5 0.0000 0.0000 0.0000 0.0000 41.1510 0.0000
# 6 0.0000 0.0000 0.0000 0.0000 0.0000 22.9374
#
#
#
# Elastic Compliance Matrix: (Units=1/GPa)
#
#
# Indices 1 2 3 4 5 6 
#
# 1 0.017292 -0.003248 -0.005437 0.000000 0.000000 0.000000
# 2 -0.003248 0.013783 -0.004558 0.000000 0.000000 0.000000
# 3 -0.005437 -0.004558 0.010830 0.000000 0.000000 0.000000
# 4 0.000000 0.000000 0.000000 0.028219 0.000000 0.000000
# 5 0.000000 0.000000 0.000000 0.000000 0.024301 0.000000
# 6 0.000000 0.000000 0.000000 0.000000 0.000000 0.043597
#
#
# Mechanical properties :
#
#
# Convention : Reuss Voigt Hill
#
# Bulk Modulus (GPa) = 64.85054 72.63851 68.74452
# Shear Modulus (GPa) = 29.47286 31.50447 30.48867
#
# Velocity S-wave (km/s) = 3.93072 4.06394 3.99788
# Velocity P-wave (km/s) = 7.38900 7.75242 7.57289
#
# Compressibility (1/GPa) = 0.01542007
#
# Stress axis : x y z
#
# Youngs Moduli (GPa) = 57.82923 72.55230 92.33565
#
# Poissons Ratio (x) = 0.23563 0.50203
# Poissons Ratio (y) = 0.18781 0.42087
# Poissons Ratio (z) = 0.31442 0.33069
#
# Static dielectric constant tensor:
#      x y z
#    x 3.296120 0.000000 0.000000 
#    y 0.000000 3.577240 0.000000 
#    z 0.000000 0.000000 5.048400 
# 
# 
# High freq. dielectric constant tensor:
#      x y z
#    x 1.712080 0.000000 0.000000 
#    y 0.000000 1.749410 0.000000 
#    z 0.000000 0.000000 1.772410 
# 
# From -- ./inp_files/43311.got.cif
#   From: 2010.03.12/outbox.cif.g09.slc.cpg/sg67_22_cif.got.tgz:43311.got - 2010.04.10 22:41:39.
