data_PCOD8280560
_publ_section_title
;
Structure prediction by ZEFSAII (Michael W. Deem and Ramdas Pophale) SiO2 
 PCOD8280560
Probable space group: C M M A
;
_chemical_formula_sum "Si O2"
_cell_formula_units_Z 80
_cell_length_a 18.250763
_cell_length_b 24.871280
_cell_length_c 8.948102
_cell_angle_alpha 90.000000
_cell_angle_beta 90.000000
_cell_angle_gamma 90.000000
_cell_volume 4061.720999
_symmetry_space_group_name_H-M "C M M A"
_symmetry_group_IT_number 67
_symmetry_cell_setting 'orthorhombic'
loop_
_space_group_symop_operation_xyz
x,y,z
-x,1/2-y,z
x,-y,-z
-x,1/2+y,-z
-x,-y,-z
x,1/2+y,-z
-x,y,z
x,1/2-y,z
1/2+x,1/2+y,z
1/2-x,-y,z
1/2+x,1/2-y,-z
1/2-x,y,-z
1/2-x,1/2-y,-z
1/2+x,y,-z
1/2-x,1/2+y,z
1/2+x,-y,z
loop_
_atom_site_type_symbol
_atom_site_label
_atom_site_fract_x
_atom_site_fract_y
_atom_site_fract_z
Si Si1 0.319763 0.811200 0.594658
Si Si2 0.324129 0.404055 0.182997
Si Si3 0.916866 0.504287 0.323781
Si Si4 0.583646 0.188663 0.679662
Si Si5 0.345154 0.906101 0.155702
O O1 0.305380 0.750000 0.645656
O O2 0.250000 0.832653 0.500000
O O3 0.332506 0.845396 0.743822
O O4 0.391872 0.816256 0.492517
O O5 0.364811 0.447059 0.282905
O O6 0.239374 0.420379 0.179421
O O7 0.361561 0.404977 0.020653
O O8 0.909402 0.500000 0.500000
O O9 0.893774 0.449914 0.240131
O O10 0.000000 0.517052 0.276702
O O11 0.500000 0.168894 0.690569
O O12 0.592284 0.250000 0.735011
O O13 0.635450 0.152782 0.783380
#
# Coordination Sequence:
#
# PCOD8280560 Si02
#       5
#    16  16  16  16  16
#     4  10  20  38  63  91 121 159 205 253 306 363
#     4  11  24  38  61  91 121 158 201 251 307 368
#     4  11  25  42  62  87 117 159 208 255 305 367
#     4  10  21  38  62  90 121 160 204 249 301 365
#     4  11  23  40  59  89 126 158 199 252 308 368
#
# _framework density 19.696083999999999
#
# number of rings (size 3 to 8) (size 9 to 14) (size 15 to 20)
#    0.000    1.400    2.000    3.000    0.000    8.000 
#    0.000    2.000    0.000    2.400    0.000    0.000 
#    0.000    0.000    0.000    0.000    0.000    0.000 
#
# Total GULP energy -496160.504407 kJ/mol
# GULP energy per Si atom -12404.012610 kJ/mol
# Density = 1.965126 g / cm^3
# Si number density = 19.696084 Si / 1000 Ang^3
#
#
#
# Elastic Constant Matrix: (Units=GPa)
#
#
# Indices 1 2 3 4 5 6 
#
# 1 101.6624 40.9385 46.3042 0.0000 0.0000 0.0000
# 2 40.9385 104.3530 51.7485 0.0000 0.0000 0.0000
# 3 46.3042 51.7485 106.7433 0.0000 0.0000 0.0000
# 4 0.0000 0.0000 0.0000 23.4419 0.0000 0.0000
# 5 0.0000 0.0000 0.0000 0.0000 22.4644 0.0000
# 6 0.0000 0.0000 0.0000 0.0000 0.0000 31.2149
#
#
#
# Elastic Compliance Matrix: (Units=1/GPa)
#
#
# Indices 1 2 3 4 5 6 
#
# 1 0.012943 -0.003019 -0.004151 0.000000 0.000000 0.000000
# 2 -0.003019 0.013320 -0.005148 0.000000 0.000000 0.000000
# 3 -0.004151 -0.005148 0.013664 0.000000 0.000000 0.000000
# 4 0.000000 0.000000 0.000000 0.042659 0.000000 0.000000
# 5 0.000000 0.000000 0.000000 0.000000 0.044515 0.000000
# 6 0.000000 0.000000 0.000000 0.000000 0.000000 0.032036
#
#
# Mechanical properties :
#
#
# Convention : Reuss Voigt Hill
#
# Bulk Modulus (GPa) = 65.39443 65.63789 65.51616
# Shear Modulus (GPa) = 26.47324 27.00872 26.74098
#
# Velocity S-wave (km/s) = 3.67016 3.70709 3.68867
# Velocity P-wave (km/s) = 7.15778 7.19173 7.17478
#
# Compressibility (1/GPa) = 0.01529182
#
# Stress axis : x y z
#
# Youngs Moduli (GPa) = 77.26271 75.07445 73.18245
#
# Poissons Ratio (x) = 0.22667 0.30377
# Poissons Ratio (y) = 0.23327 0.37673
# Poissons Ratio (z) = 0.32070 0.38647
#
# Static dielectric constant tensor:
#      x y z
#    x 3.725050 0.000000 0.000000 
#    y 0.000000 3.626990 0.000000 
#    z 0.000000 0.000000 3.582140 
# 
# 
# High freq. dielectric constant tensor:
#      x y z
#    x 1.776690 0.000000 0.000000 
#    y 0.000000 1.775540 0.000000 
#    z 0.000000 0.000000 1.764240 
# 
# From -- ./inp_files/9978.got.cif
#   From: 2010.03.12/outbox.cif.g09.slc.cpg/sg67_5_cif.got.tgz:9978.got - 2010.04.10 22:41:39.
