data_PCOD8280484
_publ_section_title
;
Structure prediction by ZEFSAII (Michael W. Deem and Ramdas Pophale) SiO2 
 PCOD8280484
Probable space group: C M M A
;
_chemical_formula_sum "Si O2"
_cell_formula_units_Z 96
_cell_length_a 21.731010
_cell_length_b 8.769955
_cell_length_c 24.579218
_cell_angle_alpha 90.000000
_cell_angle_beta 90.000000
_cell_angle_gamma 90.000000
_cell_volume 4684.306870
_symmetry_space_group_name_H-M "C M M A"
_symmetry_group_IT_number 67
_symmetry_cell_setting 'orthorhombic'
loop_
_space_group_symop_operation_xyz
x,y,z
-x,1/2-y,z
x,-y,-z
-x,1/2+y,-z
-x,-y,-z
x,1/2+y,-z
-x,y,z
x,1/2-y,z
1/2+x,1/2+y,z
1/2-x,-y,z
1/2+x,1/2-y,-z
1/2-x,y,-z
1/2-x,1/2-y,-z
1/2+x,y,-z
1/2-x,1/2+y,z
1/2+x,-y,z
loop_
_atom_site_type_symbol
_atom_site_label
_atom_site_fract_x
_atom_site_fract_y
_atom_site_fract_z
Si Si1 0.687862 0.429048 0.156761
Si Si2 0.000000 0.431515 0.113864
Si Si3 0.631325 0.927554 0.256773
Si Si4 0.000000 0.925005 0.765412
Si Si5 0.315256 0.569566 0.369708
Si Si6 0.069277 0.569542 0.558645
Si Si7 0.123949 0.569324 0.941639
O O1 0.691758 0.250000 0.148191
O O2 0.750000 0.500000 0.180502
O O3 0.639203 0.470955 0.203194
O O4 0.675509 0.509756 0.099465
O O5 0.058935 0.491908 0.080891
O O6 0.000000 0.250000 0.114612
O O7 0.000000 0.504631 0.174655
O O8 0.642912 0.750000 0.242942
O O9 0.559707 0.959798 0.271564
O O10 0.673513 0.979734 0.307090
O O11 0.000000 0.750000 0.782046
O O12 0.310565 0.750000 0.375384
O O13 0.250000 0.500000 0.389866
O O14 0.374773 0.508937 0.403259
O O15 0.081664 0.500000 0.500000
O O16 0.073060 0.750000 0.554430
O O17 0.000000 0.522368 0.579397
O O18 0.126916 0.750000 0.945181
O O19 0.137806 0.500000 0.000000
#
# Coordination Sequence:
#
# PCOD8280484 Si02
#       7
#    16   8  16   8  16  16  16
#     4  12  25  41  60  82 110 149 191 236 286 344
#     4   9  17  33  59  87 114 143 179 222 274 340
#     4  10  20  37  61  88 118 153 191 237 290 346
#     4   9  16  31  59  89 113 146 190 231 280 345
#     4  10  22  37  58  88 121 159 202 249 297 353
#     4   9  19  37  60  88 120 158 205 252 299 352
#     4  11  22  39  60  86 115 146 184 229 282 342
#
# _framework density 20.493960999999999
#
# number of rings (size 3 to 8) (size 9 to 14) (size 15 to 20)
#    0.000    1.833    1.667    2.750    1.167    3.333 
#    0.000    5.833    0.000    0.000    0.000    0.000 
#    0.000    0.000    0.000    0.000    0.000    0.000 
#
# Total GULP energy -594978.626386 kJ/mol
# GULP energy per Si atom -12395.388050 kJ/mol
# Density = 2.044732 g / cm^3
# Si number density = 20.493961 Si / 1000 Ang^3
#
#
#
# Elastic Constant Matrix: (Units=GPa)
#
#
# Indices 1 2 3 4 5 6 
#
# 1 136.4355 31.8368 52.4944 0.0000 0.0000 0.0000
# 2 31.8368 65.0123 28.8680 0.0000 0.0000 0.0000
# 3 52.4944 28.8680 99.6986 0.0000 0.0000 0.0000
# 4 0.0000 0.0000 0.0000 29.7102 0.0000 0.0000
# 5 0.0000 0.0000 0.0000 0.0000 35.3641 0.0000
# 6 0.0000 0.0000 0.0000 0.0000 0.0000 24.8987
#
#
#
# Elastic Compliance Matrix: (Units=1/GPa)
#
#
# Indices 1 2 3 4 5 6 
#
# 1 0.009624 -0.002826 -0.004249 0.000000 0.000000 0.000000
# 2 -0.002826 0.018481 -0.003863 0.000000 0.000000 0.000000
# 3 -0.004249 -0.003863 0.013386 0.000000 0.000000 0.000000
# 4 0.000000 0.000000 0.000000 0.033658 0.000000 0.000000
# 5 0.000000 0.000000 0.000000 0.000000 0.028277 0.000000
# 6 0.000000 0.000000 0.000000 0.000000 0.000000 0.040163
#
#
# Mechanical properties :
#
#
# Convention : Reuss Voigt Hill
#
# Bulk Modulus (GPa) = 50.98293 58.61608 54.79950
# Shear Modulus (GPa) = 29.06915 30.52443 29.79679
#
# Velocity S-wave (km/s) = 3.77028 3.86351 3.81718
# Velocity P-wave (km/s) = 6.62453 6.96893 6.79891
#
# Compressibility (1/GPa) = 0.01961441
#
# Stress axis : x y z
#
# Youngs Moduli (GPa) = 103.91001 54.10938 74.70496
#
# Poissons Ratio (x) = 0.15292 0.31741
# Poissons Ratio (y) = 0.29366 0.28860
# Poissons Ratio (z) = 0.44150 0.20904
#
# Static dielectric constant tensor:
#      x y z
#    x 4.059180 0.000000 0.000000 
#    y 0.000000 3.401350 0.000000 
#    z 0.000000 0.000000 3.604960 
# 
# 
# High freq. dielectric constant tensor:
#      x y z
#    x 1.819000 0.000000 0.000000 
#    y 0.000000 1.771220 0.000000 
#    z 0.000000 0.000000 1.796710 
# 
# From -- ./inp_files/42581.got.cif
#   From: 2010.03.12/outbox.cif.g09.slc.cpg/sg67_22_cif.got.tgz:42581.got - 2010.04.10 22:41:39.
