data_PCOD8280934
_publ_section_title
;
Structure prediction by ZEFSAII (Michael W. Deem and Ramdas Pophale) SiO2 
 PCOD8280934
Probable space group: C M M A
;
_chemical_formula_sum "Si O2"
_cell_formula_units_Z 64
_cell_length_a 8.583035
_cell_length_b 15.449169
_cell_length_c 23.933280
_cell_angle_alpha 90.000000
_cell_angle_beta 90.000000
_cell_angle_gamma 90.000000
_cell_volume 3173.571075
_symmetry_space_group_name_H-M "C M M A"
_symmetry_group_IT_number 67
_symmetry_cell_setting 'orthorhombic'
loop_
_space_group_symop_operation_xyz
x,y,z
-x,1/2-y,z
x,-y,-z
-x,1/2+y,-z
-x,-y,-z
x,1/2+y,-z
-x,y,z
x,1/2-y,z
1/2+x,1/2+y,z
1/2-x,-y,z
1/2+x,1/2-y,-z
1/2-x,y,-z
1/2-x,1/2-y,-z
1/2+x,y,-z
1/2-x,1/2+y,z
1/2+x,-y,z
loop_
_atom_site_type_symbol
_atom_site_label
_atom_site_fract_x
_atom_site_fract_y
_atom_site_fract_z
Si Si1 0.683118 0.750000 0.870776
Si Si2 0.815426 0.750000 0.749559
Si Si3 0.185139 0.092893 0.060583
Si Si4 0.316135 0.410742 0.674497
Si Si5 0.315921 0.848566 0.443263
O O1 0.500000 0.750000 0.883175
O O2 0.715805 0.750000 0.805416
O O3 0.760700 0.664466 0.895872
O O4 0.762648 0.833607 0.714623
O O5 0.000000 0.750000 0.762294
O O6 0.000000 0.088882 0.058084
O O7 0.250000 0.000000 0.080161
O O8 0.250000 0.118310 0.000000
O O9 0.500000 0.414215 0.672816
O O10 0.250000 0.500000 0.699053
O O11 0.250218 0.396905 0.611609
O O12 0.500000 0.852912 0.444593
O O13 0.256705 0.750000 0.439528
O O14 0.250000 0.892269 0.500000
#
# Coordination Sequence:
#
# PCOD8280934 Si02
#       5
#     8   8  16  16  16
#     4  12  25  41  62  91 124 162 208 254 299 358
#     4  10  22  43  62  79 111 156 198 244 299 352
#     4  11  22  40  65  96 131 167 204 248 300 354
#     4  10  21  38  60  82 110 147 190 237 292 353
#     4   9  17  32  54  80 109 144 182 226 283 347
#
# _framework density 20.166554999999999
#
# number of rings (size 3 to 8) (size 9 to 14) (size 15 to 20)
#    0.000    1.750    1.250    4.500    0.000    3.500 
#    0.000    5.000    0.000    0.000    0.000    0.000 
#    0.000    0.000    0.000    0.000    0.000    0.000 
#
# Total GULP energy -396860.478511 kJ/mol
# GULP energy per Si atom -12401.889953 kJ/mol
# Density = 2.012066 g / cm^3
# Si number density = 20.166555 Si / 1000 Ang^3
#
#
#
# Elastic Constant Matrix: (Units=GPa)
#
#
# Indices 1 2 3 4 5 6 
#
# 1 97.4039 42.3261 44.6883 0.0000 0.0000 0.0000
# 2 42.3261 150.8269 80.4220 0.0000 0.0000 0.0000
# 3 44.6883 80.4220 138.3642 0.0000 0.0000 0.0000
# 4 0.0000 0.0000 0.0000 171.4587 0.0000 0.0000
# 5 0.0000 0.0000 0.0000 0.0000 34.6436 0.0000
# 6 0.0000 0.0000 0.0000 0.0000 0.0000 29.8213
#
#
#
# Elastic Compliance Matrix: (Units=1/GPa)
#
#
# Indices 1 2 3 4 5 6 
#
# 1 0.012438 -0.001954 -0.002881 0.000000 0.000000 0.000000
# 2 -0.001954 0.009915 -0.005132 0.000000 0.000000 0.000000
# 3 -0.002881 -0.005132 0.011141 0.000000 0.000000 0.000000
# 4 0.000000 0.000000 0.000000 0.005832 0.000000 0.000000
# 5 0.000000 0.000000 0.000000 0.000000 0.028865 0.000000
# 6 0.000000 0.000000 0.000000 0.000000 0.000000 0.033533
#
#
# Mechanical properties :
#
#
# Convention : Reuss Voigt Hill
#
# Bulk Modulus (GPa) = 73.75215 80.16307 76.95761
# Shear Modulus (GPa) = 39.62682 61.79529 50.71105
#
# Velocity S-wave (km/s) = 4.43762 5.54157 5.02003
# Velocity P-wave (km/s) = 7.93142 8.98789 8.47613
#
# Compressibility (1/GPa) = 0.01355893
#
# Stress axis : x y z
#
# Youngs Moduli (GPa) = 80.40174 100.86031 89.76179
#
# Poissons Ratio (x) = 0.19708 0.25863
# Poissons Ratio (y) = 0.15710 0.46063
# Poissons Ratio (z) = 0.23166 0.51758
#
# Static dielectric constant tensor:
#      x y z
#    x 3.520810 0.000000 0.000000 
#    y 0.000000 2.652020 0.000000 
#    z 0.000000 0.000000 3.774500 
# 
# 
# High freq. dielectric constant tensor:
#      x y z
#    x 1.780740 0.000000 0.000000 
#    y 0.000000 1.794360 0.000000 
#    z 0.000000 0.000000 1.789540 
# 
# From -- ./inp_files/40441.got.cif
#   From: 2010.03.12/outbox.cif.g09.slc.cpg/sg67_21_cif.got.tgz:40441.got - 2010.04.10 22:41:39.
