data_PCOD8280736
_publ_section_title
;
Structure prediction by ZEFSAII (Michael W. Deem and Ramdas Pophale) SiO2 
 PCOD8280736
Probable space group: C M M A
;
_chemical_formula_sum "Si O2"
_cell_formula_units_Z 80
_cell_length_a 8.796635
_cell_length_b 18.125414
_cell_length_c 25.617199
_cell_angle_alpha 90.000000
_cell_angle_beta 90.000000
_cell_angle_gamma 90.000000
_cell_volume 4084.474124
_symmetry_space_group_name_H-M "C M M A"
_symmetry_group_IT_number 67
_symmetry_cell_setting 'orthorhombic'
loop_
_space_group_symop_operation_xyz
x,y,z
-x,1/2-y,z
x,-y,-z
-x,1/2+y,-z
-x,-y,-z
x,1/2+y,-z
-x,y,z
x,1/2-y,z
1/2+x,1/2+y,z
1/2-x,-y,z
1/2+x,1/2-y,-z
1/2-x,y,-z
1/2-x,1/2-y,-z
1/2+x,y,-z
1/2-x,1/2+y,z
1/2+x,-y,z
loop_
_atom_site_type_symbol
_atom_site_label
_atom_site_fract_x
_atom_site_fract_y
_atom_site_fract_z
Si Si1 0.679191 0.079152 0.149778
Si Si2 0.175165 0.663552 0.757550
Si Si3 0.320790 0.079395 0.653769
Si Si4 0.178058 0.165328 0.055602
Si Si5 0.679853 0.665913 0.446643
O O1 0.500000 0.071497 0.144318
O O2 0.718675 0.133437 0.196916
O O3 0.745477 0.111206 0.096539
O O4 0.750000 0.000000 0.161949
O O5 0.200435 0.750000 0.752584
O O6 0.227124 0.628310 0.703103
O O7 0.000000 0.644525 0.770678
O O8 0.500000 0.071658 0.650172
O O9 0.256938 0.117992 0.601505
O O10 0.250000 0.000000 0.660674
O O11 0.210303 0.250000 0.071762
O O12 0.000000 0.149030 0.053241
O O13 0.250000 0.147203 0.000000
O O14 0.500000 0.660981 0.450332
O O15 0.733688 0.750000 0.438044
O O16 0.750000 0.633694 0.500000
#
# Coordination Sequence:
#
# PCOD8280736 Si02
#       5
#    16  16  16  16  16
#     4  12  25  40  59  85 118 153 191 235 284 337
#     4  10  21  39  62  85 111 146 187 231 282 339
#     4  10  21  36  55  80 111 146 183 226 277 333
#     4  10  21  39  63  90 120 154 193 236 282 334
#     4   9  18  34  55  78 105 140 183 228 274 327
#
# _framework density 19.586365000000001
#
# number of rings (size 3 to 8) (size 9 to 14) (size 15 to 20)
#    0.000    1.800    0.000    4.200    0.000   10.400 
#    0.000    4.000    0.000    3.600    0.000    0.000 
#    0.000    0.000    0.000    0.000    0.000    0.000 
#
# Total GULP energy -496196.008500 kJ/mol
# GULP energy per Si atom -12404.900212 kJ/mol
# Density = 1.954179 g / cm^3
# Si number density = 19.586365 Si / 1000 Ang^3
#
#
#
# Elastic Constant Matrix: (Units=GPa)
#
#
# Indices 1 2 3 4 5 6 
#
# 1 76.1012 38.1948 53.2820 0.0000 0.0000 0.0000
# 2 38.1948 111.1325 65.3044 0.0000 0.0000 0.0000
# 3 53.2820 65.3044 139.9061 0.0000 0.0000 0.0000
# 4 0.0000 0.0000 0.0000 35.7315 0.0000 0.0000
# 5 0.0000 0.0000 0.0000 0.0000 34.4126 0.0000
# 6 0.0000 0.0000 0.0000 0.0000 0.0000 32.1209
#
#
#
# Elastic Compliance Matrix: (Units=1/GPa)
#
#
# Indices 1 2 3 4 5 6 
#
# 1 0.018654 -0.003082 -0.005666 0.000000 0.000000 0.000000
# 2 -0.003082 0.012908 -0.004852 0.000000 0.000000 0.000000
# 3 -0.005666 -0.004852 0.011570 0.000000 0.000000 0.000000
# 4 0.000000 0.000000 0.000000 0.027987 0.000000 0.000000
# 5 0.000000 0.000000 0.000000 0.000000 0.029059 0.000000
# 6 0.000000 0.000000 0.000000 0.000000 0.000000 0.031132
#
#
# Mechanical properties :
#
#
# Convention : Reuss Voigt Hill
#
# Bulk Modulus (GPa) = 62.75847 71.18912 66.97379
# Shear Modulus (GPa) = 30.52132 31.81024 31.16578
#
# Velocity S-wave (km/s) = 3.95181 4.03439 3.99331
# Velocity P-wave (km/s) = 7.27556 7.62410 7.45187
#
# Compressibility (1/GPa) = 0.01593411
#
# Stress axis : x y z
#
# Youngs Moduli (GPa) = 53.60788 77.46907 86.43064
#
# Poissons Ratio (x) = 0.23875 0.48969
# Poissons Ratio (y) = 0.16521 0.41933
# Poissons Ratio (z) = 0.30373 0.37585
#
# Static dielectric constant tensor:
#      x y z
#    x 3.505200 0.000000 0.000000 
#    y 0.000000 3.616900 0.000000 
#    z 0.000000 0.000000 3.527320 
# 
# 
# High freq. dielectric constant tensor:
#      x y z
#    x 1.757760 0.000000 0.000000 
#    y 0.000000 1.768520 0.000000 
#    z 0.000000 0.000000 1.780610 
# 
# From -- ./inp_files/43298.got.cif
#   From: 2010.03.12/outbox.cif.g09.slc.cpg/sg67_22_cif.got.tgz:43298.got - 2010.04.10 22:41:39.
