data_PCOD8280977
_publ_section_title
;
Structure prediction by ZEFSAII (Michael W. Deem and Ramdas Pophale) SiO2 
 PCOD8280977
Probable space group: C M M A
;
_chemical_formula_sum "Si O2"
_cell_formula_units_Z 88
_cell_length_a 15.976927
_cell_length_b 9.294406
_cell_length_c 29.400208
_cell_angle_alpha 90.000000
_cell_angle_beta 90.000000
_cell_angle_gamma 90.000000
_cell_volume 4365.814645
_symmetry_space_group_name_H-M "C M M A"
_symmetry_group_IT_number 67
_symmetry_cell_setting 'orthorhombic'
loop_
_space_group_symop_operation_xyz
x,y,z
-x,1/2-y,z
x,-y,-z
-x,1/2+y,-z
-x,-y,-z
x,1/2+y,-z
-x,y,z
x,1/2-y,z
1/2+x,1/2+y,z
1/2-x,-y,z
1/2+x,1/2-y,-z
1/2-x,y,-z
1/2-x,1/2-y,-z
1/2+x,y,-z
1/2-x,1/2+y,z
1/2+x,-y,z
loop_
_atom_site_type_symbol
_atom_site_label
_atom_site_fract_x
_atom_site_fract_y
_atom_site_fract_z
Si Si1 0.167473 0.079653 0.601883
Si Si2 0.400430 0.909621 0.958681
Si Si3 0.000000 0.418573 0.547077
Si Si4 0.094932 0.413734 0.319161
Si Si5 0.330537 0.916044 0.225130
Si Si6 0.598498 0.914387 0.858083
O O1 0.182744 0.250000 0.602325
O O2 0.084635 0.036884 0.573568
O O3 0.250000 0.000000 0.581340
O O4 0.154124 0.022729 0.653269
O O5 0.500000 0.909270 0.962243
O O6 0.365019 0.750000 0.964423
O O7 0.374745 0.967985 0.908668
O O8 0.360347 0.000000 0.000000
O O9 0.000000 0.500000 0.500000
O O10 0.000000 0.250000 0.537536
O O11 0.120747 0.250000 0.331572
O O12 0.101665 0.437814 0.264963
O O13 0.000000 0.445339 0.333250
O O14 0.309317 0.750000 0.216955
O O15 0.250000 0.000000 0.242744
O O16 0.359843 0.980007 0.177537
O O17 0.500000 0.924378 0.852127
O O18 0.628087 0.750000 0.850092
#
# Coordination Sequence:
#
# PCOD8280977 Si02
#       6
#    16  16   8  16  16  16
#     4  11  23  41  64  95 129 166 211 258 307 366
#     4   8  14  25  43  69  99 129 165 211 264 325
#     4  10  24  44  66  94 130 168 214 262 311 366
#     4  10  21  38  61  89 119 153 194 242 296 353
#     4  11  23  37  53  77 109 145 187 232 280 340
#     4   9  18  33  52  75 104 138 176 220 274 333
#
# _framework density 20.156604999999999
#
# number of rings (size 3 to 8) (size 9 to 14) (size 15 to 20)
#    0.000    2.182    0.909    3.273    0.000    6.545 
#    0.000    3.636    0.000    0.545    0.000    3.818 
#    0.000    0.000    0.000    0.000    0.000    0.000 
#
# Total GULP energy -545473.943239 kJ/mol
# GULP energy per Si atom -12397.135074 kJ/mol
# Density = 2.011073 g / cm^3
# Si number density = 20.156605 Si / 1000 Ang^3
#
#
#
# Elastic Constant Matrix: (Units=GPa)
#
#
# Indices 1 2 3 4 5 6 
#
# 1 91.6631 51.5004 45.0641 0.0000 0.0000 0.0000
# 2 51.5004 106.6780 60.1334 0.0000 0.0000 0.0000
# 3 45.0641 60.1334 122.0191 0.0000 0.0000 0.0000
# 4 0.0000 0.0000 0.0000 39.3852 0.0000 0.0000
# 5 0.0000 0.0000 0.0000 0.0000 15.2333 0.0000
# 6 0.0000 0.0000 0.0000 0.0000 0.0000 31.1963
#
#
#
# Elastic Compliance Matrix: (Units=1/GPa)
#
#
# Indices 1 2 3 4 5 6 
#
# 1 0.015654 -0.005952 -0.002848 0.000000 0.000000 0.000000
# 2 -0.005952 0.015243 -0.005314 0.000000 0.000000 0.000000
# 3 -0.002848 -0.005314 0.011866 0.000000 0.000000 0.000000
# 4 0.000000 0.000000 0.000000 0.025390 0.000000 0.000000
# 5 0.000000 0.000000 0.000000 0.000000 0.065645 0.000000
# 6 0.000000 0.000000 0.000000 0.000000 0.000000 0.032055
#
#
# Mechanical properties :
#
#
# Convention : Reuss Voigt Hill
#
# Bulk Modulus (GPa) = 68.79842 70.41735 69.60788
# Shear Modulus (GPa) = 25.13510 28.07378 26.60444
#
# Velocity S-wave (km/s) = 3.53511 3.73605 3.63697
# Velocity P-wave (km/s) = 7.13223 7.32269 7.22808
#
# Compressibility (1/GPa) = 0.01453522
#
# Stress axis : x y z
#
# Youngs Moduli (GPa) = 63.88314 65.60591 84.27393
#
# Poissons Ratio (x) = 0.39045 0.24003
# Poissons Ratio (y) = 0.38020 0.44782
# Poissons Ratio (z) = 0.18195 0.34862
#
# Static dielectric constant tensor:
#      x y z
#    x 3.652650 0.000000 0.000000 
#    y 0.000000 3.714570 0.000000 
#    z 0.000000 0.000000 3.713850 
# 
# 
# High freq. dielectric constant tensor:
#      x y z
#    x 1.775750 0.000000 0.000000 
#    y 0.000000 1.784700 0.000000 
#    z 0.000000 0.000000 1.790580 
# 
# From -- ./inp_files/45775.got.cif
#   From: 2010.03.12/outbox.cif.g09.slc.cpg/sg67_23_cif.got.tgz:45775.got - 2010.04.10 22:41:39.
