data_PCOD8280217
_publ_section_title
;
Structure prediction by ZEFSAII (Michael W. Deem and Ramdas Pophale) SiO2 
 PCOD8280217
Probable space group: C M M A
;
_chemical_formula_sum "Si O2"
_cell_formula_units_Z 88
_cell_length_a 26.740408
_cell_length_b 8.815528
_cell_length_c 19.802495
_cell_angle_alpha 90.000000
_cell_angle_beta 90.000000
_cell_angle_gamma 90.000000
_cell_volume 4668.058294
_symmetry_space_group_name_H-M "C M M A"
_symmetry_group_IT_number 67
_symmetry_cell_setting 'orthorhombic'
loop_
_space_group_symop_operation_xyz
x,y,z
-x,1/2-y,z
x,-y,-z
-x,1/2+y,-z
-x,-y,-z
x,1/2+y,-z
-x,y,z
x,1/2-y,z
1/2+x,1/2+y,z
1/2-x,-y,z
1/2+x,1/2-y,-z
1/2-x,y,-z
1/2-x,1/2-y,-z
1/2+x,y,-z
1/2-x,1/2+y,z
1/2+x,-y,z
loop_
_atom_site_type_symbol
_atom_site_label
_atom_site_fract_x
_atom_site_fract_y
_atom_site_fract_z
Si Si1 0.000000 0.068269 0.573861
Si Si2 0.405182 0.068206 0.649628
Si Si3 0.558161 0.416791 0.935796
Si Si4 0.800341 0.920612 0.360563
Si Si5 0.798152 0.419015 0.799288
Si Si6 0.898478 0.928363 0.801168
O O1 0.000000 0.250000 0.572414
O O2 0.000000 0.000000 0.500000
O O3 0.949919 0.008865 0.609352
O O4 0.407867 0.250000 0.643155
O O5 0.412737 0.008996 0.726976
O O6 0.351061 0.013531 0.621199
O O7 0.500000 0.406644 0.949219
O O8 0.582515 0.250000 0.933759
O O9 0.567021 0.493743 0.862080
O O10 0.583402 0.500000 0.000000
O O11 0.804538 0.750000 0.390474
O O12 0.794175 0.912399 0.280885
O O13 0.750000 0.000000 0.390852
O O14 0.803686 0.250000 0.829003
O O15 0.750000 0.500000 0.830785
O O16 0.843486 0.522795 0.822520
O O17 0.902872 0.750000 0.795570
#
# Coordination Sequence:
#
# PCOD8280217 Si02
#       6
#     8  16  16  16  16  16
#     4  12  26  44  62  82 111 148 185 222 265 320
#     4  10  20  35  57  84 111 144 184 226 273 323
#     4   9  18  32  49  69  97 134 173 212 258 312
#     4   9  16  28  48  77 112 145 179 223 271 320
#     4   9  16  26  43  68 101 134 169 210 259 311
#     4   9  18  31  51  76 104 136 173 215 261 310
#
# _framework density 18.851521999999999
#
# number of rings (size 3 to 8) (size 9 to 14) (size 15 to 20)
#    0.000    2.545    0.000    2.455    1.273    5.818 
#    0.000    0.000    0.000    1.091    0.000    7.636 
#    0.000    0.000    0.000    0.000    0.000    0.000 
#
# Total GULP energy -545172.946932 kJ/mol
# GULP energy per Si atom -12390.294248 kJ/mol
# Density = 1.880861 g / cm^3
# Si number density = 18.851522 Si / 1000 Ang^3
#
#
#
# Elastic Constant Matrix: (Units=GPa)
#
#
# Indices 1 2 3 4 5 6 
#
# 1 113.2737 45.0904 54.1929 0.0000 0.0000 0.0000
# 2 45.0904 65.8123 41.2099 0.0000 0.0000 0.0000
# 3 54.1929 41.2099 91.7825 0.0000 0.0000 0.0000
# 4 0.0000 0.0000 0.0000 19.8591 0.0000 0.0000
# 5 0.0000 0.0000 0.0000 0.0000 0.5158 0.0000
# 6 0.0000 0.0000 0.0000 0.0000 0.0000 34.7082
#
#
#
# Elastic Compliance Matrix: (Units=1/GPa)
#
#
# Indices 1 2 3 4 5 6 
#
# 1 0.013857 -0.006080 -0.005452 0.000000 0.000000 0.000000
# 2 -0.006080 0.023805 -0.007099 0.000000 0.000000 0.000000
# 3 -0.005452 -0.007099 0.017302 0.000000 0.000000 0.000000
# 4 0.000000 0.000000 0.000000 0.050355 0.000000 0.000000
# 5 0.000000 0.000000 0.000000 0.000000 1.938709 0.000000
# 6 0.000000 0.000000 0.000000 0.000000 0.000000 0.028812
#
#
# Mechanical properties :
#
#
# Convention : Reuss Voigt Hill
#
# Bulk Modulus (GPa) = 56.48792 61.31721 58.90257
# Shear Modulus (GPa) = 2.36295 19.70831 11.03563
#
# Velocity S-wave (km/s) = 1.12079 3.23685 2.42212
# Velocity P-wave (km/s) = 5.63068 6.82397 6.25584
#
# Compressibility (1/GPa) = 0.01770290
#
# Stress axis : x y z
#
# Youngs Moduli (GPa) = 72.16746 42.00753 57.79833
#
# Poissons Ratio (x) = 0.25540 0.31510
# Poissons Ratio (y) = 0.43877 0.41028
# Poissons Ratio (z) = 0.39344 0.29819
#
# Static dielectric constant tensor:
#      x y z
#    x 3.471140 0.000000 0.000000 
#    y 0.000000 3.692310 0.000000 
#    z 0.000000 0.000000 3.406040 
# 
# 
# High freq. dielectric constant tensor:
#      x y z
#    x 1.731380 0.000000 0.000000 
#    y 0.000000 1.736040 0.000000 
#    z 0.000000 0.000000 1.697780 
# 
# From -- ./inp_files/36946.got.cif
#   From: 2010.03.12/outbox.cif.g09.slc.cpg/sg67_19_cif.got.tgz:36946.got - 2010.04.10 22:41:39.
