data_PCOD8280086
_publ_section_title
;
Structure prediction by ZEFSAII (Michael W. Deem and Ramdas Pophale) SiO2 
 PCOD8280086
Probable space group: C M M A
;
_chemical_formula_sum "Si O2"
_cell_formula_units_Z 96
_cell_length_a 18.956476
_cell_length_b 18.727102
_cell_length_c 13.374854
_cell_angle_alpha 90.000000
_cell_angle_beta 90.000000
_cell_angle_gamma 90.000000
_cell_volume 4748.071292
_symmetry_space_group_name_H-M "C M M A"
_symmetry_group_IT_number 67
_symmetry_cell_setting 'orthorhombic'
loop_
_space_group_symop_operation_xyz
x,y,z
-x,1/2-y,z
x,-y,-z
-x,1/2+y,-z
-x,-y,-z
x,1/2+y,-z
-x,y,z
x,1/2-y,z
1/2+x,1/2+y,z
1/2-x,-y,z
1/2+x,1/2-y,-z
1/2-x,y,-z
1/2-x,1/2-y,-z
1/2+x,y,-z
1/2-x,1/2+y,z
1/2+x,-y,z
loop_
_atom_site_type_symbol
_atom_site_label
_atom_site_fract_x
_atom_site_fract_y
_atom_site_fract_z
Si Si1 0.420225 0.334224 0.830445
Si Si2 0.915787 0.669158 0.418786
Si Si3 0.580658 0.462189 0.292927
Si Si4 0.328982 0.527709 0.892702
Si Si5 0.168585 0.327998 0.980115
Si Si6 0.919104 0.608442 0.623935
O O1 0.500000 0.364333 0.846013
O O2 0.421322 0.250000 0.826735
O O3 0.385490 0.361916 0.726879
O O4 0.370697 0.359501 0.921708
O O5 0.890562 0.750000 0.394002
O O6 0.888589 0.613023 0.334790
O O7 0.883780 0.644171 0.525950
O O8 0.000000 0.664346 0.422436
O O9 0.500000 0.452214 0.259426
O O10 0.621819 0.495559 0.198411
O O11 0.587459 0.522151 0.379818
O O12 0.250000 0.500000 0.873318
O O13 0.337045 0.614070 0.892268
O O14 0.356039 0.500000 0.000000
O O15 0.136671 0.250000 0.948851
O O16 0.250000 0.317682 0.000000
O O17 0.000000 0.633045 0.625388
#
# Coordination Sequence:
#
# PCOD8280086 Si02
#       6
#    16  16  16  16  16  16
#     4   9  17  29  49  81 113 138 173 222 269 311
#     4   9  17  31  52  80 114 145 172 208 261 324
#     4  10  21  34  53  82 111 139 177 222 266 315
#     4  11  22  38  56  76 103 142 185 223 267 322
#     4  10  20  35  54  75 102 140 183 223 267 321
#     4   9  16  28  50  79 110 142 173 212 261 313
#
# _framework density 20.218734999999999
#
# number of rings (size 3 to 8) (size 9 to 14) (size 15 to 20)
#    0.000    2.333    1.667    2.000    0.000    5.667 
#    0.000    0.000    0.000    2.000    0.000    1.167 
#    0.000    0.000    0.000    0.000    0.000    0.000 
#
# Total GULP energy -594773.995972 kJ/mol
# GULP energy per Si atom -12391.124916 kJ/mol
# Density = 2.017272 g / cm^3
# Si number density = 20.218735 Si / 1000 Ang^3
#
#
#
# Elastic Constant Matrix: (Units=GPa)
#
#
# Indices 1 2 3 4 5 6 
#
# 1 43.8265 17.5023 46.0775 0.0000 0.0000 0.0000
# 2 17.5023 79.4826 36.6272 0.0000 0.0000 0.0000
# 3 46.0775 36.6272 99.2704 0.0000 0.0000 0.0000
# 4 0.0000 0.0000 0.0000 14.5722 0.0000 0.0000
# 5 0.0000 0.0000 0.0000 0.0000 11.6590 0.0000
# 6 0.0000 0.0000 0.0000 0.0000 0.0000 42.2173
#
#
#
# Elastic Compliance Matrix: (Units=1/GPa)
#
#
# Indices 1 2 3 4 5 6 
#
# 1 0.044573 -0.000339 -0.020564 0.000000 0.000000 0.000000
# 2 -0.000339 0.015161 -0.005437 0.000000 0.000000 0.000000
# 3 -0.020564 -0.005437 0.021624 0.000000 0.000000 0.000000
# 4 0.000000 0.000000 0.000000 0.068624 0.000000 0.000000
# 5 0.000000 0.000000 0.000000 0.000000 0.085770 0.000000
# 6 0.000000 0.000000 0.000000 0.000000 0.000000 0.023687
#
#
# Mechanical properties :
#
#
# Convention : Reuss Voigt Hill
#
# Bulk Modulus (GPa) = 34.86803 46.99928 40.93365
# Shear Modulus (GPa) = 15.54349 21.84789 18.69569
#
# Velocity S-wave (km/s) = 2.77567 3.29078 3.04414
# Velocity P-wave (km/s) = 5.24932 6.14287 5.71359
#
# Compressibility (1/GPa) = 0.02867957
#
# Stress axis : x y z
#
# Youngs Moduli (GPa) = 22.43530 65.95733 46.24397
#
# Poissons Ratio (x) = 0.02234 0.95096
# Poissons Ratio (y) = 0.00760 0.25142
# Poissons Ratio (z) = 0.46136 0.35859
#
# Static dielectric constant tensor:
#      x y z
#    x 3.313740 0.000000 0.000000 
#    y 0.000000 4.278890 0.000000 
#    z 0.000000 0.000000 3.653240 
# 
# 
# High freq. dielectric constant tensor:
#      x y z
#    x 1.728800 0.000000 0.000000 
#    y 0.000000 1.817210 0.000000 
#    z 0.000000 0.000000 1.778910 
# 
# From -- ./inp_files/20874.got.cif
#   From: 2010.03.12/outbox.cif.g09.slc.cpg/sg67_11_cif.got.tgz:20874.got - 2010.04.10 22:41:39.
