data_PCOD8280621
_publ_section_title
;
Structure prediction by ZEFSAII (Michael W. Deem and Ramdas Pophale) SiO2 
 PCOD8280621
Probable space group: C M M A
;
_chemical_formula_sum "Si O2"
_cell_formula_units_Z 112
_cell_length_a 14.341051
_cell_length_b 23.421463
_cell_length_c 15.901253
_cell_angle_alpha 90.000000
_cell_angle_beta 90.000000
_cell_angle_gamma 90.000000
_cell_volume 5341.046355
_symmetry_space_group_name_H-M "C M M A"
_symmetry_group_IT_number 67
_symmetry_cell_setting 'orthorhombic'
loop_
_space_group_symop_operation_xyz
x,y,z
-x,1/2-y,z
x,-y,-z
-x,1/2+y,-z
-x,-y,-z
x,1/2+y,-z
-x,y,z
x,1/2-y,z
1/2+x,1/2+y,z
1/2-x,-y,z
1/2+x,1/2-y,-z
1/2-x,y,-z
1/2-x,1/2-y,-z
1/2+x,y,-z
1/2-x,1/2+y,z
1/2+x,-y,z
loop_
_atom_site_type_symbol
_atom_site_label
_atom_site_fract_x
_atom_site_fract_y
_atom_site_fract_z
Si Si1 0.603999 0.186240 0.695222
Si Si2 0.228986 0.587975 0.096091
Si Si3 0.896015 0.018972 0.149372
Si Si4 0.211138 0.685310 0.220031
Si Si5 0.642904 0.500597 0.331363
Si Si6 0.391176 0.397449 0.552290
Si Si7 0.105357 0.373809 0.629602
O O1 0.500000 0.167503 0.725449
O O2 0.600510 0.250000 0.657658
O O3 0.676578 0.183398 0.771640
O O4 0.644397 0.145613 0.622915
O O5 0.154255 0.537522 0.111656
O O6 0.331499 0.572870 0.129714
O O7 0.186112 0.643512 0.143024
O O8 0.250000 0.602384 0.000000
O O9 0.910072 0.023452 0.249734
O O10 0.000000 0.023491 0.109227
O O11 0.177633 0.750000 0.200045
O O12 0.164503 0.665378 0.307580
O O13 0.750000 0.500000 0.305743
O O14 0.629811 0.538195 0.415887
O O15 0.600763 0.438530 0.340919
O O16 0.500000 0.391183 0.536804
O O17 0.345144 0.379038 0.462952
O O18 0.000000 0.349042 0.626983
#
# Coordination Sequence:
#
# PCOD8280621 Si02
#       7
#    16  16  16  16  16  16  16
#     4   9  19  37  59  83 114 150 197 256 307 358
#     4  11  24  42  63  95 126 151 203 263 318 395
#     4  11  21  39  66  94 129 165 197 245 319 392
#     4  11  24  42  64  88 117 166 216 257 318 377
#     4  12  21  34  56  88 126 162 204 254 306 366
#     4  10  21  34  54  85 119 163 211 255 309 356
#     4  11  23  39  56  82 124 168 214 260 300 361
#
# _framework density 20.969674000000001
#
# number of rings (size 3 to 8) (size 9 to 14) (size 15 to 20)
#    0.000    1.286    2.857    4.286    0.000    8.000 
#    0.000    2.857    0.000    0.000    0.000    4.000 
#    0.000    0.000    0.000    0.000    0.000    0.000 
#
# Total GULP energy -694009.551841 kJ/mol
# GULP energy per Si atom -12393.027711 kJ/mol
# Density = 2.092195 g / cm^3
# Si number density = 20.969674 Si / 1000 Ang^3
#
#
#
# Elastic Constant Matrix: (Units=GPa)
#
#
# Indices 1 2 3 4 5 6 
#
# 1 82.3027 11.2107 6.3174 0.0000 0.0000 0.0000
# 2 11.2107 107.5118 27.9982 0.0000 0.0000 0.0000
# 3 6.3174 27.9982 92.8762 0.0000 0.0000 0.0000
# 4 0.0000 0.0000 0.0000 13.3244 0.0000 0.0000
# 5 0.0000 0.0000 0.0000 0.0000 16.5666 0.0000
# 6 0.0000 0.0000 0.0000 0.0000 0.0000 22.6422
#
#
#
# Elastic Compliance Matrix: (Units=1/GPa)
#
#
# Indices 1 2 3 4 5 6 
#
# 1 0.012346 -0.001160 -0.000490 0.000000 0.000000 0.000000
# 2 -0.001160 0.010203 -0.002997 0.000000 0.000000 0.000000
# 3 -0.000490 -0.002997 0.011704 0.000000 0.000000 0.000000
# 4 0.000000 0.000000 0.000000 0.075051 0.000000 0.000000
# 5 0.000000 0.000000 0.000000 0.000000 0.060363 0.000000
# 6 0.000000 0.000000 0.000000 0.000000 0.000000 0.044165
#
#
# Mechanical properties :
#
#
# Convention : Reuss Voigt Hill
#
# Bulk Modulus (GPa) = 40.06574 41.52704 40.79639
# Shear Modulus (GPa) = 21.60353 26.31758 23.96055
#
# Velocity S-wave (km/s) = 3.21320 3.54648 3.38395
# Velocity P-wave (km/s) = 5.73709 6.05115 5.89621
#
# Compressibility (1/GPa) = 0.02495898
#
# Stress axis : x y z
#
# Youngs Moduli (GPa) = 80.99882 98.01372 85.44265
#
# Poissons Ratio (x) = 0.11367 0.04188
# Poissons Ratio (y) = 0.09394 0.25605
# Poissons Ratio (z) = 0.03970 0.29373
#
# Static dielectric constant tensor:
#      x y z
#    x 3.515360 0.000000 0.000000 
#    y 0.000000 3.758140 0.000000 
#    z 0.000000 0.000000 3.786060 
# 
# 
# High freq. dielectric constant tensor:
#      x y z
#    x 1.828850 0.000000 0.000000 
#    y 0.000000 1.810130 0.000000 
#    z 0.000000 0.000000 1.805040 
# 
# From -- ./inp_files/27506.got.cif
#   From: 2010.03.12/outbox.cif.g09.slc.cpg/sg67_14_cif.got.tgz:27506.got - 2010.04.10 22:41:39.
