data_PCOD8280148
_publ_section_title
;
Structure prediction by ZEFSAII (Michael W. Deem and Ramdas Pophale) SiO2 
 PCOD8280148
Probable space group: C M M A
;
_chemical_formula_sum "Si O2"
_cell_formula_units_Z 96
_cell_length_a 23.760783
_cell_length_b 17.466242
_cell_length_c 12.015894
_cell_angle_alpha 90.000000
_cell_angle_beta 90.000000
_cell_angle_gamma 90.000000
_cell_volume 4986.735226
_symmetry_space_group_name_H-M "C M M A"
_symmetry_group_IT_number 67
_symmetry_cell_setting 'orthorhombic'
loop_
_space_group_symop_operation_xyz
x,y,z
-x,1/2-y,z
x,-y,-z
-x,1/2+y,-z
-x,-y,-z
x,1/2+y,-z
-x,y,z
x,1/2-y,z
1/2+x,1/2+y,z
1/2-x,-y,z
1/2+x,1/2-y,-z
1/2-x,y,-z
1/2-x,1/2-y,-z
1/2+x,y,-z
1/2-x,1/2+y,z
1/2+x,-y,z
loop_
_atom_site_type_symbol
_atom_site_label
_atom_site_fract_x
_atom_site_fract_y
_atom_site_fract_z
Si Si1 0.500000 0.988200 0.374055
Si Si2 0.178244 0.839163 0.392276
Si Si3 0.885662 0.597157 0.832134
Si Si4 0.500000 0.339427 0.736368
Si Si5 0.308707 0.162185 0.641979
Si Si6 0.403365 0.434367 0.238597
Si Si7 0.435930 0.839091 0.964923
O O1 0.500000 0.895638 0.368965
O O2 0.500000 0.000000 0.500000
O O3 0.554231 0.026945 0.323204
O O4 0.161124 0.750000 0.379077
O O5 0.242356 0.851080 0.355612
O O6 0.168444 0.865815 0.520880
O O7 0.144005 0.893060 0.310459
O O8 0.836319 0.621522 0.748175
O O9 0.881687 0.505423 0.835246
O O10 0.944104 0.638693 0.802338
O O11 0.884670 0.624775 0.960900
O O12 0.500000 0.250000 0.702590
O O13 0.324485 0.250000 0.654267
O O14 0.432656 0.373606 0.158546
O O15 0.500000 0.854368 0.009898
O O16 0.423978 0.750000 0.955279
#
# Coordination Sequence:
#
# PCOD8280148 Si02
#       7
#     8  16  16   8  16  16  16
#     4  10  24  39  53  85 129 159 193 243 297 360
#     4   9  20  39  61  85 119 157 202 250 300 365
#     4  11  22  35  60  87 118 152 196 252 299 353
#     4  10  20  35  55  83 113 151 195 240 290 350
#     4   9  19  38  62  88 115 154 204 254 300 350
#     4  11  23  38  58  84 124 159 193 239 308 361
#     4  11  22  39  61  85 115 156 204 245 295 365
#
# _framework density 19.251072000000001
#
# number of rings (size 3 to 8) (size 9 to 14) (size 15 to 20)
#    0.000    1.833    1.667    3.500    4.667    1.333 
#    0.000    3.333    0.000    5.000    0.000    0.000 
#    0.000    0.000    0.000    0.000    0.000    0.000 
#
# Total GULP energy -594649.261766 kJ/mol
# GULP energy per Si atom -12388.526287 kJ/mol
# Density = 1.920726 g / cm^3
# Si number density = 19.251072 Si / 1000 Ang^3
#
#
#
# Elastic Constant Matrix: (Units=GPa)
#
#
# Indices 1 2 3 4 5 6 
#
# 1 54.4898 43.3007 24.7740 0.0000 0.0000 0.0000
# 2 43.3007 131.9695 61.1943 0.0000 0.0000 0.0000
# 3 24.7740 61.1943 97.0351 0.0000 0.0000 0.0000
# 4 0.0000 0.0000 0.0000 32.7057 0.0000 0.0000
# 5 0.0000 0.0000 0.0000 0.0000 8.9329 0.0000
# 6 0.0000 0.0000 0.0000 0.0000 0.0000 327.4427
#
#
#
# Elastic Compliance Matrix: (Units=1/GPa)
#
#
# Indices 1 2 3 4 5 6 
#
# 1 0.025024 -0.007417 -0.001711 0.000000 0.000000 0.000000
# 2 -0.007417 0.012908 -0.006246 0.000000 0.000000 0.000000
# 3 -0.001711 -0.006246 0.014682 0.000000 0.000000 0.000000
# 4 0.000000 0.000000 0.000000 0.030576 0.000000 0.000000
# 5 0.000000 0.000000 0.000000 0.000000 0.111946 0.000000
# 6 0.000000 0.000000 0.000000 0.000000 0.000000 0.003054
#
#
# Mechanical properties :
#
#
# Convention : Reuss Voigt Hill
#
# Bulk Modulus (GPa) = 45.73786 60.22580 52.98183
# Shear Modulus (GPa) = 21.16608 84.09794 52.63201
#
# Velocity S-wave (km/s) = 3.31943 6.61662 5.23442
# Velocity P-wave (km/s) = 6.20497 9.47234 8.00709
#
# Compressibility (1/GPa) = 0.02186373
#
# Stress axis : x y z
#
# Youngs Moduli (GPa) = 39.96121 77.47353 68.11194
#
# Poissons Ratio (x) = 0.57464 0.11656
# Poissons Ratio (y) = 0.29640 0.42545
# Poissons Ratio (z) = 0.06839 0.48393
#
# Static dielectric constant tensor:
#      x y z
#    x 3.366980 0.000000 0.000000 
#    y 0.000000 3.648640 0.000000 
#    z 0.000000 0.000000 3.563060 
# 
# 
# High freq. dielectric constant tensor:
#      x y z
#    x 1.729640 0.000000 0.000000 
#    y 0.000000 1.759600 0.000000 
#    z 0.000000 0.000000 1.754040 
# 
# From -- ./inp_files/21978.got.cif
#   From: 2010.03.12/outbox.cif.g09.slc.cpg/sg67_11_cif.got.tgz:21978.got - 2010.04.10 22:41:39.
