data_PCOD8280162
_publ_section_title
;
Structure prediction by ZEFSAII (Michael W. Deem and Ramdas Pophale) SiO2 
 PCOD8280162
Probable space group: C M M A
;
_chemical_formula_sum "Si O2"
_cell_formula_units_Z 104
_cell_length_a 9.351333
_cell_length_b 21.122140
_cell_length_c 27.470935
_cell_angle_alpha 90.000000
_cell_angle_beta 90.000000
_cell_angle_gamma 90.000000
_cell_volume 5426.063609
_symmetry_space_group_name_H-M "C M M A"
_symmetry_group_IT_number 67
_symmetry_cell_setting 'orthorhombic'
loop_
_space_group_symop_operation_xyz
x,y,z
-x,1/2-y,z
x,-y,-z
-x,1/2+y,-z
-x,-y,-z
x,1/2+y,-z
-x,y,z
x,1/2-y,z
1/2+x,1/2+y,z
1/2-x,-y,z
1/2+x,1/2-y,-z
1/2-x,y,-z
1/2-x,1/2-y,-z
1/2+x,y,-z
1/2-x,1/2+y,z
1/2+x,-y,z
loop_
_atom_site_type_symbol
_atom_site_label
_atom_site_fract_x
_atom_site_fract_y
_atom_site_fract_z
Si Si1 0.827982 0.562222 0.948813
Si Si2 0.250000 0.000000 0.630434
Si Si3 0.665998 0.177950 0.878246
Si Si4 0.335095 0.323441 0.218005
Si Si5 0.662298 0.879306 0.684604
Si Si6 0.163320 0.677909 0.412091
Si Si7 0.658342 0.575305 0.457684
O O1 0.750000 0.500000 0.924952
O O2 0.794970 0.626051 0.918822
O O3 0.000000 0.551266 0.954116
O O4 0.750000 0.573219 0.000000
O O5 0.171636 0.048106 0.666831
O O6 0.355127 0.036266 0.592983
O O7 0.500000 0.175264 0.865503
O O8 0.708170 0.250000 0.895092
O O9 0.749233 0.157881 0.829946
O O10 0.500000 0.340199 0.207703
O O11 0.315323 0.250000 0.231297
O O12 0.266687 0.364519 0.262914
O O13 0.500000 0.859542 0.693101
O O14 0.724929 0.833959 0.642365
O O15 0.172209 0.750000 0.426745
O O16 0.261905 0.641606 0.449912
O O17 0.000000 0.652121 0.414683
O O18 0.500000 0.587306 0.477800
O O19 0.750000 0.540012 0.500000
#
# Coordination Sequence:
#
# PCOD8280162 Si02
#       7
#    16   8  16  16  16  16  16
#     4  10  20  35  56  80 110 148 189 233 281 332
#     4  10  21  36  54  74 104 134 169 210 256 306
#     4   9  19  36  55  78 111 148 185 228 278 328
#     4   9  17  31  54  81 106 136 175 216 259 311
#     4   9  17  32  53  76 102 133 170 212 255 304
#     4   9  18  34  56  79 103 132 166 207 256 309
#     4  11  23  37  55  77 101 133 169 208 255 308
#
# _framework density 19.166748999999999
#
# number of rings (size 3 to 8) (size 9 to 14) (size 15 to 20)
#    0.000    2.462    0.000    2.538    0.000    6.462 
#    1.385    3.846    0.000    3.692    0.000    0.000 
#    0.000    0.000    0.000    0.000    0.000    0.000 
#
# Total GULP energy -644224.389405 kJ/mol
# GULP energy per Si atom -12388.930565 kJ/mol
# Density = 1.912312 g / cm^3
# Si number density = 19.166749 Si / 1000 Ang^3
#
#
#
# Elastic Constant Matrix: (Units=GPa)
#
#
# Indices 1 2 3 4 5 6 
#
# 1 96.1191 42.7168 47.3689 0.0000 0.0000 0.0000
# 2 42.7168 115.3702 63.2180 0.0000 0.0000 0.0000
# 3 47.3689 63.2180 112.9770 0.0000 0.0000 0.0000
# 4 0.0000 0.0000 0.0000 -25.4231 0.0000 0.0000
# 5 0.0000 0.0000 0.0000 0.0000 26.8871 0.0000
# 6 0.0000 0.0000 0.0000 0.0000 0.0000 17.0377
#
#
#
# Elastic Compliance Matrix: (Units=1/GPa)
#
#
# Indices 1 2 3 4 5 6 
#
# 1 0.013704 -0.002777 -0.004192 0.000000 0.000000 0.000000
# 2 -0.002777 0.013063 -0.006146 0.000000 0.000000 0.000000
# 3 -0.004192 -0.006146 0.014048 0.000000 0.000000 0.000000
# 4 0.000000 0.000000 0.000000 -0.039334 0.000000 0.000000
# 5 0.000000 0.000000 0.000000 0.000000 0.037193 0.000000
# 6 0.000000 0.000000 0.000000 0.000000 0.000000 0.058693
#
#
# Mechanical properties :
#
#
# Convention : Reuss Voigt Hill
#
# Bulk Modulus (GPa) = 68.55762 70.11931 69.33847
# Shear Modulus (GPa) = 38.92358 15.11119 27.01738
#
# Velocity S-wave (km/s) = 4.51131 2.81090 3.75853
# Velocity P-wave (km/s) = 7.93616 6.87009 7.42229
#
# Compressibility (1/GPa) = 0.01458627
#
# Stress axis : x y z
#
# Youngs Moduli (GPa) = 72.97327 76.54953 71.18604
#
# Poissons Ratio (x) = 0.21258 0.29839
# Poissons Ratio (y) = 0.20265 0.43747
# Poissons Ratio (z) = 0.30589 0.47044
#
# Static dielectric constant tensor:
#      x y z
#    x 3.399160 0.000000 0.000000 
#    y 0.000000 3.613380 0.000000 
#    z 0.000000 0.000000 3.560100 
# 
# 
# High freq. dielectric constant tensor:
#      x y z
#    x 1.728130 0.000000 0.000000 
#    y 0.000000 1.751400 0.000000 
#    z 0.000000 0.000000 1.740740 
# 
# From -- ./inp_files/43723.got.cif
#   From: 2010.03.12/outbox.cif.g09.slc.cpg/sg67_22_cif.got.tgz:43723.got - 2010.04.10 22:41:39.
