data_PCOD8280600
_publ_section_title
;
Structure prediction by ZEFSAII (Michael W. Deem and Ramdas Pophale) SiO2 
 PCOD8280600
Probable space group: C M M A
;
_chemical_formula_sum "Si O2"
_cell_formula_units_Z 80
_cell_length_a 19.813290
_cell_length_b 17.736961
_cell_length_c 10.906002
_cell_angle_alpha 90.000000
_cell_angle_beta 90.000000
_cell_angle_gamma 90.000000
_cell_volume 3832.669585
_symmetry_space_group_name_H-M "C M M A"
_symmetry_group_IT_number 67
_symmetry_cell_setting 'orthorhombic'
loop_
_space_group_symop_operation_xyz
x,y,z
-x,1/2-y,z
x,-y,-z
-x,1/2+y,-z
-x,-y,-z
x,1/2+y,-z
-x,y,z
x,1/2-y,z
1/2+x,1/2+y,z
1/2-x,-y,z
1/2+x,1/2-y,-z
1/2-x,y,-z
1/2-x,1/2-y,-z
1/2+x,y,-z
1/2-x,1/2+y,z
1/2+x,-y,z
loop_
_atom_site_type_symbol
_atom_site_label
_atom_site_fract_x
_atom_site_fract_y
_atom_site_fract_z
Si Si1 0.860731 0.458064 0.129011
Si Si2 0.671799 0.832780 0.472534
Si Si3 0.000000 0.662176 0.178641
Si Si4 0.500000 0.919858 0.065232
Si Si5 0.363092 0.099007 0.289390
Si Si6 0.275952 0.164303 0.782776
O O1 0.847823 0.514525 0.243238
O O2 0.801144 0.396022 0.117212
O O3 0.932651 0.415624 0.148061
O O4 0.859959 0.500000 0.000000
O O5 0.638043 0.750000 0.493428
O O6 0.750000 0.825843 0.500000
O O7 0.635593 0.894443 0.561151
O O8 0.671760 0.854811 0.329247
O O9 0.934158 0.624668 0.236361
O O10 0.000000 0.750000 0.206499
O O11 0.000000 0.647577 0.033430
O O12 0.500000 0.000000 0.000000
O O13 0.303067 0.154021 0.245440
O O14 0.285870 0.250000 0.828319
#
# Coordination Sequence:
#
# PCOD8280600 Si02
#       6
#    16  16   8   8  16  16
#     4  11  22  41  61  83 118 161 200 246 301 354
#     4   8  16  34  57  83 117 151 186 241 302 352
#     4  12  22  36  63  91 115 159 209 246 297 357
#     4  10  20  44  57  75 118 165 194 243 295 347
#     4  11  20  37  62  89 122 154 198 251 302 356
#     4  10  22  39  60  88 122 158 196 245 306 366
#
# _framework density 20.873179
#
# number of rings (size 3 to 8) (size 9 to 14) (size 15 to 20)
#    0.000    1.800    4.000    3.600    0.000    3.200 
#    0.000    5.000    0.000    4.800    0.000    0.000 
#    0.000    0.000    0.000    0.000    0.000    0.000 
#
# Total GULP energy -495671.419816 kJ/mol
# GULP energy per Si atom -12391.785495 kJ/mol
# Density = 2.082567 g / cm^3
# Si number density = 20.873179 Si / 1000 Ang^3
#
#
#
# Elastic Constant Matrix: (Units=GPa)
#
#
# Indices 1 2 3 4 5 6 
#
# 1 102.2229 49.4170 29.6803 0.0000 0.0000 0.0000
# 2 49.4170 106.6358 21.2365 0.0000 0.0000 0.0000
# 3 29.6803 21.2365 58.2776 0.0000 0.0000 0.0000
# 4 0.0000 0.0000 0.0000 29.7980 0.0000 0.0000
# 5 0.0000 0.0000 0.0000 0.0000 30.3349 0.0000
# 6 0.0000 0.0000 0.0000 0.0000 0.0000 21.1482
#
#
#
# Elastic Compliance Matrix: (Units=1/GPa)
#
#
# Indices 1 2 3 4 5 6 
#
# 1 0.013881 -0.005418 -0.005095 0.000000 0.000000 0.000000
# 2 -0.005418 0.012226 -0.001696 0.000000 0.000000 0.000000
# 3 -0.005095 -0.001696 0.020372 0.000000 0.000000 0.000000
# 4 0.000000 0.000000 0.000000 0.033559 0.000000 0.000000
# 5 0.000000 0.000000 0.000000 0.000000 0.032965 0.000000
# 6 0.000000 0.000000 0.000000 0.000000 0.000000 0.047285
#
#
# Mechanical properties :
#
#
# Convention : Reuss Voigt Hill
#
# Bulk Modulus (GPa) = 45.32833 51.97823 48.65328
# Shear Modulus (GPa) = 26.03330 27.37638 26.70484
#
# Velocity S-wave (km/s) = 3.53542 3.62547 3.58073
# Velocity P-wave (km/s) = 6.19910 6.51777 6.36043
#
# Compressibility (1/GPa) = 0.02206126
#
# Stress axis : x y z
#
# Youngs Moduli (GPa) = 72.04013 81.79093 49.08653
#
# Poissons Ratio (x) = 0.44315 0.25011
# Poissons Ratio (y) = 0.39032 0.08325
# Poissons Ratio (z) = 0.36706 0.13871
#
# Static dielectric constant tensor:
#      x y z
#    x 4.112950 0.000000 0.000000 
#    y 0.000000 3.802520 0.000000 
#    z 0.000000 0.000000 4.199640 
# 
# 
# High freq. dielectric constant tensor:
#      x y z
#    x 1.808140 0.000000 0.000000 
#    y 0.000000 1.812120 0.000000 
#    z 0.000000 0.000000 1.802490 
# 
# From -- ./inp_files/20575.got.cif
#   From: 2010.03.12/outbox.cif.g09.slc.cpg/sg67_11_cif.got.tgz:20575.got - 2010.04.10 22:41:39.
