data_PCOD8280910
_publ_section_title
;
Structure prediction by ZEFSAII (Michael W. Deem and Ramdas Pophale) SiO2 
 PCOD8280910
Probable space group: C M M A
;
_chemical_formula_sum "Si O2"
_cell_formula_units_Z 64
_cell_length_a 14.651912
_cell_length_b 10.379031
_cell_length_c 20.403625
_cell_angle_alpha 90.000000
_cell_angle_beta 90.000000
_cell_angle_gamma 90.000000
_cell_volume 3102.833300
_symmetry_space_group_name_H-M "C M M A"
_symmetry_group_IT_number 67
_symmetry_cell_setting 'orthorhombic'
loop_
_space_group_symop_operation_xyz
x,y,z
-x,1/2-y,z
x,-y,-z
-x,1/2+y,-z
-x,-y,-z
x,1/2+y,-z
-x,y,z
x,1/2-y,z
1/2+x,1/2+y,z
1/2-x,-y,z
1/2+x,1/2-y,-z
1/2-x,y,-z
1/2-x,1/2-y,-z
1/2+x,y,-z
1/2-x,1/2+y,z
1/2+x,-y,z
loop_
_atom_site_type_symbol
_atom_site_label
_atom_site_fract_x
_atom_site_fract_y
_atom_site_fract_z
Si Si1 0.500000 0.104180 0.605180
Si Si2 0.322410 0.104280 0.195547
Si Si3 0.801284 0.887381 0.569428
Si Si4 0.000000 0.104242 0.718962
Si Si5 0.893446 0.395561 0.947853
O O1 0.500000 0.250000 0.634246
O O2 0.590819 0.083914 0.560856
O O3 0.500000 0.999522 0.661717
O O4 0.285794 0.250000 0.206449
O O5 0.413191 0.080511 0.236232
O O6 0.341021 0.080023 0.119309
O O7 0.250000 0.000000 0.220944
O O8 0.787530 0.750000 0.605649
O O9 0.750000 0.881797 0.500000
O O10 0.750000 0.000000 0.611086
O O11 0.000000 0.250000 0.689913
O O12 0.875395 0.250000 0.974080
O O13 0.000000 0.416748 0.934393
O O14 0.856630 0.500000 0.000000
#
# Coordination Sequence:
#
# PCOD8280910 Si02
#       5
#     8  16  16   8  16
#     4  10  22  39  59  86 119 152 189 235 282 333
#     4  10  21  38  59  82 111 150 195 242 291 346
#     4   9  19  36  58  85 118 152 185 225 273 328
#     4  10  22  42  62  80 111 155 198 237 286 343
#     4   9  17  32  54  79 110 147 188 237 291 348
#
# _framework density 20.62631
#
# number of rings (size 3 to 8) (size 9 to 14) (size 15 to 20)
#    0.000    2.500    1.250    0.000    0.000    6.500 
#    0.000    8.750    0.000    0.000    0.000    0.000 
#    0.000    0.000    0.000    0.000    0.000    0.000 
#
# Total GULP energy -396500.117326 kJ/mol
# GULP energy per Si atom -12390.628666 kJ/mol
# Density = 2.057936 g / cm^3
# Si number density = 20.626310 Si / 1000 Ang^3
#
#
#
# Elastic Constant Matrix: (Units=GPa)
#
#
# Indices 1 2 3 4 5 6 
#
# 1 150.3776 97.0102 39.2398 0.0000 0.0000 0.0000
# 2 97.0102 181.4455 53.0368 0.0000 0.0000 0.0000
# 3 39.2398 53.0368 68.2646 0.0000 0.0000 0.0000
# 4 0.0000 0.0000 0.0000 17.5937 0.0000 0.0000
# 5 0.0000 0.0000 0.0000 0.0000 37.7348 0.0000
# 6 0.0000 0.0000 0.0000 0.0000 0.0000 33.3904
#
#
#
# Elastic Compliance Matrix: (Units=1/GPa)
#
#
# Indices 1 2 3 4 5 6 
#
# 1 0.010388 -0.004928 -0.002143 0.000000 0.000000 0.000000
# 2 -0.004928 0.009468 -0.004524 0.000000 0.000000 0.000000
# 3 -0.002143 -0.004524 0.019395 0.000000 0.000000 0.000000
# 4 0.000000 0.000000 0.000000 0.056839 0.000000 0.000000
# 5 0.000000 0.000000 0.000000 0.000000 0.026501 0.000000
# 6 0.000000 0.000000 0.000000 0.000000 0.000000 0.029949
#
#
# Mechanical properties :
#
#
# Convention : Reuss Voigt Hill
#
# Bulk Modulus (GPa) = 62.25408 86.51795 74.38601
# Shear Modulus (GPa) = 27.61189 31.79717 29.70453
#
# Velocity S-wave (km/s) = 3.66276 3.93056 3.79902
# Velocity P-wave (km/s) = 6.93795 7.91426 7.44213
#
# Compressibility (1/GPa) = 0.01606320
#
# Stress axis : x y z
#
# Youngs Moduli (GPa) = 96.26581 105.61797 51.55945
#
# Poissons Ratio (x) = 0.52044 0.11048
# Poissons Ratio (y) = 0.47436 0.23323
# Poissons Ratio (z) = 0.20628 0.47777
#
# Static dielectric constant tensor:
#      x y z
#    x 3.884030 0.000000 0.000000 
#    y 0.000000 5.425560 0.000000 
#    z 0.000000 0.000000 3.338950 
# 
# 
# High freq. dielectric constant tensor:
#      x y z
#    x 1.814450 0.000000 0.000000 
#    y 0.000000 1.831270 0.000000 
#    z 0.000000 0.000000 1.769720 
# 
# From -- ./inp_files/33413.got.cif
#   From: 2010.03.12/outbox.cif.g09.slc.cpg/sg67_17_cif.got.tgz:33413.got - 2010.04.10 22:41:39.
