data_PCOD8280568
_publ_section_title
;
Structure prediction by ZEFSAII (Michael W. Deem and Ramdas Pophale) SiO2 
 PCOD8280568
Probable space group: C M M A
;
_chemical_formula_sum "Si O2"
_cell_formula_units_Z 64
_cell_length_a 15.408133
_cell_length_b 8.619382
_cell_length_c 23.645425
_cell_angle_alpha 90.000000
_cell_angle_beta 90.000000
_cell_angle_gamma 90.000000
_cell_volume 3140.315418
_symmetry_space_group_name_H-M "C M M A"
_symmetry_group_IT_number 67
_symmetry_cell_setting 'orthorhombic'
loop_
_space_group_symop_operation_xyz
x,y,z
-x,1/2-y,z
x,-y,-z
-x,1/2+y,-z
-x,-y,-z
x,1/2+y,-z
-x,y,z
x,1/2-y,z
1/2+x,1/2+y,z
1/2-x,-y,z
1/2+x,1/2-y,-z
1/2-x,y,-z
1/2-x,1/2-y,-z
1/2+x,y,-z
1/2-x,1/2+y,z
1/2+x,-y,z
loop_
_atom_site_type_symbol
_atom_site_label
_atom_site_fract_x
_atom_site_fract_y
_atom_site_fract_z
Si Si1 0.500000 0.567202 0.437823
Si Si2 0.101410 0.429488 0.256489
Si Si3 0.158094 0.932694 0.868449
Si Si4 0.340985 0.431615 0.369558
Si Si5 0.000000 0.433006 0.937784
O O1 0.500000 0.750000 0.441232
O O2 0.500000 0.500000 0.500000
O O3 0.415594 0.513570 0.404707
O O4 0.117946 0.250000 0.271731
O O5 0.142986 0.475114 0.196893
O O6 0.147136 0.535810 0.303081
O O7 0.000000 0.466950 0.254314
O O8 0.154217 0.750000 0.878501
O O9 0.250000 0.000000 0.888234
O O10 0.085168 0.011237 0.905834
O O11 0.343914 0.250000 0.381263
O O12 0.250000 0.500000 0.390918
O O13 0.000000 0.250000 0.940767
O O14 0.000000 0.500000 0.000000
#
# Coordination Sequence:
#
# PCOD8280568 Si02
#       5
#     8  16  16  16   8
#     4  12  26  47  70  95 128 167 215 269 321 380
#     4  10  20  38  65  96 133 172 209 259 319 379
#     4  11  23  42  66  97 132 169 212 262 318 381
#     4  12  25  42  66  98 132 172 216 263 318 380
#     4  12  26  45  68  93 124 167 215 267 321 378
#
# _framework density 20.380120000000002
#
# number of rings (size 3 to 8) (size 9 to 14) (size 15 to 20)
#    0.000    0.750    2.500    6.000    0.000    5.000 
#    0.000    5.000    0.000    0.000    0.000    0.000 
#    0.000    0.000    0.000    0.000    0.000    0.000 
#
# Total GULP energy -397041.626086 kJ/mol
# GULP energy per Si atom -12407.550815 kJ/mol
# Density = 2.033373 g / cm^3
# Si number density = 20.380120 Si / 1000 Ang^3
#
#
#
# Elastic Constant Matrix: (Units=GPa)
#
#
# Indices 1 2 3 4 5 6 
#
# 1 183.6667 74.0930 73.8356 0.0000 0.0000 0.0000
# 2 74.0930 169.4015 77.4103 0.0000 0.0000 0.0000
# 3 73.8356 77.4103 129.7478 0.0000 0.0000 0.0000
# 4 0.0000 0.0000 0.0000 39.0276 0.0000 0.0000
# 5 0.0000 0.0000 0.0000 0.0000 -71.0738 0.0000
# 6 0.0000 0.0000 0.0000 0.0000 0.0000 37.3960
#
#
#
# Elastic Compliance Matrix: (Units=1/GPa)
#
#
# Indices 1 2 3 4 5 6 
#
# 1 0.007445 -0.001815 -0.003154 0.000000 0.000000 0.000000
# 2 -0.001815 0.008558 -0.004073 0.000000 0.000000 0.000000
# 3 -0.003154 -0.004073 0.011932 0.000000 0.000000 0.000000
# 4 0.000000 0.000000 0.000000 0.025623 0.000000 0.000000
# 5 0.000000 0.000000 0.000000 0.000000 -0.014070 0.000000
# 6 0.000000 0.000000 0.000000 0.000000 0.000000 0.026741
#
#
# Mechanical properties :
#
#
# Convention : Reuss Voigt Hill
#
# Bulk Modulus (GPa) = 101.50967 103.72152 102.61559
# Shear Modulus (GPa) = 57.08006 18.23510 37.65758
#
# Velocity S-wave (km/s) = 5.29797 2.99448 4.30322
# Velocity P-wave (km/s) = 9.34564 7.93472 8.66893
#
# Compressibility (1/GPa) = 0.00985128
#
# Stress axis : x y z
#
# Youngs Moduli (GPa) = 134.32488 116.84573 83.80809
#
# Poissons Ratio (x) = 0.21208 0.26430
# Poissons Ratio (y) = 0.24381 0.34136
# Poissons Ratio (z) = 0.42361 0.47593
#
# Static dielectric constant tensor:
#      x y z
#    x 3.981680 0.000000 0.000000 
#    y 0.000000 3.769310 0.000000 
#    z 0.000000 0.000000 3.740840 
# 
# 
# High freq. dielectric constant tensor:
#      x y z
#    x 1.818240 0.000000 0.000000 
#    y 0.000000 1.807900 0.000000 
#    z 0.000000 0.000000 1.797700 
# 
# From -- ./inp_files/41722.got.cif
#   From: 2010.03.12/outbox.cif.g09.slc.cpg/sg67_21_cif.got.tgz:41722.got - 2010.04.10 22:41:39.
