data_PCOD8280914
_publ_section_title
;
Structure prediction by ZEFSAII (Michael W. Deem and Ramdas Pophale) SiO2 
 PCOD8280914
Probable space group: C M M A
;
_chemical_formula_sum "Si O2"
_cell_formula_units_Z 88
_cell_length_a 9.920638
_cell_length_b 15.065331
_cell_length_c 30.204780
_cell_angle_alpha 90.000000
_cell_angle_beta 90.000000
_cell_angle_gamma 90.000000
_cell_volume 4514.336803
_symmetry_space_group_name_H-M "C M M A"
_symmetry_group_IT_number 67
_symmetry_cell_setting 'orthorhombic'
loop_
_space_group_symop_operation_xyz
x,y,z
-x,1/2-y,z
x,-y,-z
-x,1/2+y,-z
-x,-y,-z
x,1/2+y,-z
-x,y,z
x,1/2-y,z
1/2+x,1/2+y,z
1/2-x,-y,z
1/2+x,1/2-y,-z
1/2-x,y,-z
1/2-x,1/2-y,-z
1/2+x,y,-z
1/2-x,1/2+y,z
1/2+x,-y,z
loop_
_atom_site_type_symbol
_atom_site_label
_atom_site_fract_x
_atom_site_fract_y
_atom_site_fract_z
Si Si1 0.840325 0.153093 0.632631
Si Si2 0.151641 0.356465 0.537600
Si Si3 0.151616 0.856358 0.272369
Si Si4 0.155417 0.421316 0.099973
Si Si5 0.344672 0.250000 0.957910
Si Si6 0.346185 0.646260 0.196222
O O1 0.771159 0.250000 0.632766
O O2 0.800144 0.105467 0.586071
O O3 0.801100 0.104982 0.679189
O O4 0.000000 0.165029 0.632444
O O5 0.157501 0.250000 0.539222
O O6 0.250000 0.395434 0.500000
O O7 0.000000 0.387949 0.526487
O O8 0.156900 0.750000 0.274673
O O9 0.251553 0.893309 0.234832
O O10 0.000000 0.887907 0.260726
O O11 0.250000 0.500000 0.082322
O O12 0.188762 0.335327 0.071348
O O13 0.190536 0.402718 0.150959
O O14 0.000000 0.449423 0.094476
O O15 0.500000 0.250000 0.973270
O O16 0.250000 0.250000 0.000000
O O17 0.500000 0.628928 0.210191
O O18 0.319350 0.750000 0.188828
#
# Coordination Sequence:
#
# PCOD8280914 Si02
#       6
#    16  16  16  16   8  16
#     4   7  10  17  27  39  60  90 125 170 227 284
#     4   8  12  17  24  33  48  77 118 165 219 277
#     4   8  13  21  35  56  79 106 145 193 239 289
#     4  10  21  38  59  83 113 148 184 222 267 318
#     4  10  22  42  64  86 116 152 186 224 271 318
#     4   9  16  29  48  68  95 131 164 199 251 309
#
# _framework density 19.493448999999998
#
# number of rings (size 3 to 8) (size 9 to 14) (size 15 to 20)
#    0.000    3.455    0.909    2.182    0.000    1.818 
#    0.000    2.727    0.000    5.455    0.000    0.000 
#    0.000    0.000    0.000    0.000    0.000    0.909 
#
# Total GULP energy -545093.862182 kJ/mol
# GULP energy per Si atom -12388.496868 kJ/mol
# Density = 1.944908 g / cm^3
# Si number density = 19.493449 Si / 1000 Ang^3
#
#
#
# Elastic Constant Matrix: (Units=GPa)
#
#
# Indices 1 2 3 4 5 6 
#
# 1 99.4668 39.5406 87.8909 0.0000 0.0000 0.0000
# 2 39.5406 51.4876 39.6155 0.0000 0.0000 0.0000
# 3 87.8909 39.6155 162.4973 0.0000 0.0000 0.0000
# 4 0.0000 0.0000 0.0000 -6.0137 0.0000 0.0000
# 5 0.0000 0.0000 0.0000 0.0000 39.1911 0.0000
# 6 0.0000 0.0000 0.0000 0.0000 0.0000 16.4347
#
#
#
# Elastic Compliance Matrix: (Units=1/GPa)
#
#
# Indices 1 2 3 4 5 6 
#
# 1 0.022683 -0.009823 -0.009874 0.000000 0.000000 0.000000
# 2 -0.009823 0.028160 -0.001552 0.000000 0.000000 0.000000
# 3 -0.009874 -0.001552 0.011873 0.000000 0.000000 0.000000
# 4 0.000000 0.000000 0.000000 -0.166287 0.000000 0.000000
# 5 0.000000 0.000000 0.000000 0.000000 0.025516 0.000000
# 6 0.000000 0.000000 0.000000 0.000000 0.000000 0.060847
#
#
# Mechanical properties :
#
#
# Convention : Reuss Voigt Hill
#
# Bulk Modulus (GPa) = 49.46063 71.94951 60.70507
# Shear Modulus (GPa) = 156.10276 19.68274 87.89275
#
# Velocity S-wave (km/s) = 8.95843 3.18104 6.72207
# Velocity P-wave (km/s) = 11.50794 7.10505 9.56332
#
# Compressibility (1/GPa) = 0.02021810
#
# Stress axis : x y z
#
# Youngs Moduli (GPa) = 44.08501 35.51146 84.22364
#
# Poissons Ratio (x) = 0.34881 0.83165
# Poissons Ratio (y) = 0.43303 0.13074
# Poissons Ratio (z) = 0.43531 0.05513
#
# Static dielectric constant tensor:
#      x y z
#    x 3.399160 0.000000 0.000000 
#    y 0.000000 2.132650 0.000000 
#    z 0.000000 0.000000 4.029100 
# 
# 
# High freq. dielectric constant tensor:
#      x y z
#    x 1.734930 0.000000 0.000000 
#    y 0.000000 1.712670 0.000000 
#    z 0.000000 0.000000 1.775410 
# 
# From -- ./inp_files/44052.got.cif
#   From: 2010.03.12/outbox.cif.g09.slc.cpg/sg67_23_cif.got.tgz:44052.got - 2010.04.10 22:41:39.
