data_PCOD8280339
_publ_section_title
;
Structure prediction by ZEFSAII (Michael W. Deem and Ramdas Pophale) SiO2 
 PCOD8280339
Probable space group: C M M A
;
_chemical_formula_sum "Si O2"
_cell_formula_units_Z 80
_cell_length_a 18.114985
_cell_length_b 14.153521
_cell_length_c 16.153284
_cell_angle_alpha 90.000000
_cell_angle_beta 90.000000
_cell_angle_gamma 90.000000
_cell_volume 4141.553740
_symmetry_space_group_name_H-M "C M M A"
_symmetry_group_IT_number 67
_symmetry_cell_setting 'orthorhombic'
loop_
_space_group_symop_operation_xyz
x,y,z
-x,1/2-y,z
x,-y,-z
-x,1/2+y,-z
-x,-y,-z
x,1/2+y,-z
-x,y,z
x,1/2-y,z
1/2+x,1/2+y,z
1/2-x,-y,z
1/2+x,1/2-y,-z
1/2-x,y,-z
1/2-x,1/2-y,-z
1/2+x,y,-z
1/2-x,1/2+y,z
1/2+x,-y,z
loop_
_atom_site_type_symbol
_atom_site_label
_atom_site_fract_x
_atom_site_fract_y
_atom_site_fract_z
Si Si1 0.334859 0.018220 0.802275
Si Si2 0.837479 0.482560 0.382879
Si Si3 0.323859 0.358030 0.957158
Si Si4 0.587508 0.860691 0.520099
Si Si5 0.083594 0.642591 0.115003
O O1 0.356579 0.051663 0.710234
O O2 0.352825 0.094008 0.873196
O O3 0.250000 0.000000 0.805408
O O4 0.373827 0.919138 0.818638
O O5 0.750000 0.500000 0.396718
O O6 0.881514 0.580135 0.401678
O O7 0.867716 0.398560 0.440471
O O8 0.307227 0.250000 0.934422
O O9 0.250000 0.402136 0.000000
O O10 0.389353 0.372225 0.021594
O O11 0.500000 0.878525 0.509187
O O12 0.604413 0.750000 0.533087
O O13 0.094941 0.750000 0.143412
O O14 0.000000 0.610144 0.116219
#
# Coordination Sequence:
#
# PCOD8280339 Si02
#       5
#    16  16  16  16  16
#     4  11  22  35  57  87 117 152 192 237 292 347
#     4  10  22  37  57  90 121 145 187 242 289 344
#     4  10  20  36  58  80 112 157 198 236 284 344
#     4  10  21  40  64  84 111 156 196 231 289 357
#     4  10  22  38  56  82 114 151 198 245 290 343
#
# _framework density 19.316421999999999
#
# number of rings (size 3 to 8) (size 9 to 14) (size 15 to 20)
#    0.000    1.800    2.000    3.000    0.000    6.400 
#    0.000    6.000    0.000    2.400    0.000    0.000 
#    0.000    0.000    0.000    0.000    0.000    0.000 
#
# Total GULP energy -495875.310960 kJ/mol
# GULP energy per Si atom -12396.882774 kJ/mol
# Density = 1.927246 g / cm^3
# Si number density = 19.316422 Si / 1000 Ang^3
#
#
#
# Elastic Constant Matrix: (Units=GPa)
#
#
# Indices 1 2 3 4 5 6 
#
# 1 118.3605 47.8694 51.4055 0.0000 0.0000 0.0000
# 2 47.8694 90.1111 24.0771 0.0000 0.0000 0.0000
# 3 51.4055 24.0771 74.3965 0.0000 0.0000 0.0000
# 4 0.0000 0.0000 0.0000 18.5163 0.0000 0.0000
# 5 0.0000 0.0000 0.0000 0.0000 33.7054 0.0000
# 6 0.0000 0.0000 0.0000 0.0000 0.0000 21.4132
#
#
#
# Elastic Compliance Matrix: (Units=1/GPa)
#
#
# Indices 1 2 3 4 5 6 
#
# 1 0.014086 -0.005345 -0.008004 0.000000 0.000000 0.000000
# 2 -0.005345 0.014176 -0.000895 0.000000 0.000000 0.000000
# 3 -0.008004 -0.000895 0.019261 0.000000 0.000000 0.000000
# 4 0.000000 0.000000 0.000000 0.054007 0.000000 0.000000
# 5 0.000000 0.000000 0.000000 0.000000 0.029669 0.000000
# 6 0.000000 0.000000 0.000000 0.000000 0.000000 0.046700
#
#
# Mechanical properties :
#
#
# Convention : Reuss Voigt Hill
#
# Bulk Modulus (GPa) = 52.52790 58.84136 55.68463
# Shear Modulus (GPa) = 23.50394 25.36138 24.43266
#
# Velocity S-wave (km/s) = 3.49203 3.62739 3.56035
# Velocity P-wave (km/s) = 6.59632 6.93339 6.76695
#
# Compressibility (1/GPa) = 0.01903750
#
# Stress axis : x y z
#
# Youngs Moduli (GPa) = 70.99078 70.54346 51.91773
#
# Poissons Ratio (x) = 0.37702 0.41552
# Poissons Ratio (y) = 0.37941 0.04646
# Poissons Ratio (z) = 0.56818 0.06312
#
# Static dielectric constant tensor:
#      x y z
#    x 3.685430 0.000000 0.000000 
#    y 0.000000 3.562850 0.000000 
#    z 0.000000 0.000000 0.772140 
# 
# 
# High freq. dielectric constant tensor:
#      x y z
#    x 1.759130 0.000000 0.000000 
#    y 0.000000 1.750670 0.000000 
#    z 0.000000 0.000000 1.749720 
# 
# From -- ./inp_files/34093.got.cif
#   From: 2010.03.12/outbox.cif.g09.slc.cpg/sg67_18_cif.got.tgz:34093.got - 2010.04.10 22:41:39.
