data_PCOD8280927
_publ_section_title
;
Structure prediction by ZEFSAII (Michael W. Deem and Ramdas Pophale) SiO2 
 PCOD8280927
Probable space group: C M M A
;
_chemical_formula_sum "Si O2"
_cell_formula_units_Z 96
_cell_length_a 15.703041
_cell_length_b 14.565983
_cell_length_c 20.672078
_cell_angle_alpha 90.000000
_cell_angle_beta 90.000000
_cell_angle_gamma 90.000000
_cell_volume 4728.329119
_symmetry_space_group_name_H-M "C M M A"
_symmetry_group_IT_number 67
_symmetry_cell_setting 'orthorhombic'
loop_
_space_group_symop_operation_xyz
x,y,z
-x,1/2-y,z
x,-y,-z
-x,1/2+y,-z
-x,-y,-z
x,1/2+y,-z
-x,y,z
x,1/2-y,z
1/2+x,1/2+y,z
1/2-x,-y,z
1/2+x,1/2-y,-z
1/2-x,y,-z
1/2-x,1/2-y,-z
1/2+x,y,-z
1/2-x,1/2+y,z
1/2+x,-y,z
loop_
_atom_site_type_symbol
_atom_site_label
_atom_site_fract_x
_atom_site_fract_y
_atom_site_fract_z
Si Si1 0.100713 0.355282 0.500000
Si Si2 0.845993 0.355546 0.839485
Si Si3 0.154006 0.644454 0.839485
Si Si4 0.000000 0.358733 0.927996
Si Si5 0.347088 1.000000 0.603134
Si Si6 0.500000 0.858733 0.072003
Si Si7 0.596642 0.500000 0.744787
O O1 0.133889 0.250000 0.500000
O O2 0.134191 0.407672 0.436852
O O3 0.134192 0.407671 0.563148
O O4 0.000000 0.358748 0.500001
O O5 0.863786 0.250000 0.822832
O O6 0.750000 0.369740 0.866726
O O7 0.914203 0.392668 0.891874
O O8 0.856692 0.410004 0.772558
O O9 0.136213 0.750000 0.822833
O O10 0.143306 0.589996 0.772558
O O11 0.085797 0.607332 0.891875
O O12 0.000000 0.250000 0.932026
O O13 0.000000 0.401286 1.000000
O O14 0.402908 1.000000 0.667488
O O15 0.250000 0.000000 0.624735
O O16 0.500000 0.750000 0.067973
O O17 0.500000 0.500002 0.768725
#
# Coordination Sequence:
#
# PCOD8280927 Si02
#       7
#    16  16  16   8  16   8  16
#     4  10  21  40  63  87 118 154 193 237 286 343
#     4  10  21  38  59  85 118 154 197 247 297 353
#     4  10  21  38  59  85 118 154 197 247 297 353
#     4   9  18  35  59  87 118 153 195 241 296 357
#     4  11  23  38  59  88 119 152 194 240 289 346
#     4   9  18  35  59  87 118 153 195 241 296 357
#     4  12  23  39  62  84 117 158 197 244 294 350
#
# _framework density 20.303153999999999
#
# number of rings (size 3 to 8) (size 9 to 14) (size 15 to 20)
#    0.000    1.667    1.667    4.500    0.000    3.333 
#    0.000    5.000    0.000    2.000    0.000    0.000 
#    0.000    0.000    0.000    0.000    0.000    0.000 
#
# Total GULP energy -595228.086808 kJ/mol
# GULP energy per Si atom -12400.585142 kJ/mol
# Density = 2.025694 g / cm^3
# Si number density = 20.303154 Si / 1000 Ang^3
#
#
#
# Elastic Constant Matrix: (Units=GPa)
#
#
# Indices 1 2 3 4 5 6 
#
# 1 140.2510 34.7856 42.6790 0.0000 0.0000 0.0000
# 2 34.7856 123.5586 51.5329 0.0000 0.0000 0.0000
# 3 42.6790 51.5329 146.4812 0.0000 0.0000 0.0000
# 4 0.0000 0.0000 0.0000 440.9255 0.0000 0.0000
# 5 0.0000 0.0000 0.0000 0.0000 26.4488 0.0000
# 6 0.0000 0.0000 0.0000 0.0000 0.0000 25.7862
#
#
#
# Elastic Compliance Matrix: (Units=1/GPa)
#
#
# Indices 1 2 3 4 5 6 
#
# 1 0.008057 -0.001511 -0.001816 0.000000 0.000000 0.000000
# 2 -0.001511 0.009768 -0.002996 0.000000 0.000000 0.000000
# 3 -0.001816 -0.002996 0.008410 0.000000 0.000000 0.000000
# 4 0.000000 0.000000 0.000000 0.002268 0.000000 0.000000
# 5 0.000000 0.000000 0.000000 0.000000 0.037809 0.000000
# 6 0.000000 0.000000 0.000000 0.000000 0.000000 0.038780
#
#
# Mechanical properties :
#
#
# Convention : Reuss Voigt Hill
#
# Bulk Modulus (GPa) = 73.58806 74.25399 73.92103
# Shear Modulus (GPa) = 40.89320 117.38499 79.13909
#
# Velocity S-wave (km/s) = 4.49278 7.61194 6.25007
# Velocity P-wave (km/s) = 7.95215 10.67275 9.41128
#
# Compressibility (1/GPa) = 0.01358916
#
# Stress axis : x y z
#
# Youngs Moduli (GPa) = 124.10838 102.37084 118.90503
#
# Poissons Ratio (x) = 0.15468 0.21594
# Poissons Ratio (y) = 0.18753 0.35628
# Poissons Ratio (z) = 0.22539 0.30674
#
# Static dielectric constant tensor:
#      x y z
#    x 3.913150 0.000000 0.000000 
#    y 0.000000 3.746500 0.000000 
#    z 0.000000 0.000000 3.543700 
# 
# 
# High freq. dielectric constant tensor:
#      x y z
#    x 1.813060 0.000000 0.000000 
#    y 0.000000 1.795670 0.000000 
#    z 0.000000 0.000000 1.777720 
# 
# From -- ./inp_files/38544.got.cif
#   From: 2010.03.12/outbox.cif.g09.slc.cpg/sg67_20_cif.got.tgz:38544.got - 2010.04.10 22:41:39.
