data_PCOD8280983
_publ_section_title
;
Structure prediction by ZEFSAII (Michael W. Deem and Ramdas Pophale) SiO2 
 PCOD8280983
Probable space group: C M M A
;
_chemical_formula_sum "Si O2"
_cell_formula_units_Z 72
_cell_length_a 15.352097
_cell_length_b 8.646970
_cell_length_c 27.797983
_cell_angle_alpha 90.000000
_cell_angle_beta 90.000000
_cell_angle_gamma 90.000000
_cell_volume 3690.157842
_symmetry_space_group_name_H-M "C M M A"
_symmetry_group_IT_number 67
_symmetry_cell_setting 'orthorhombic'
loop_
_space_group_symop_operation_xyz
x,y,z
-x,1/2-y,z
x,-y,-z
-x,1/2+y,-z
-x,-y,-z
x,1/2+y,-z
-x,y,z
x,1/2-y,z
1/2+x,1/2+y,z
1/2-x,-y,z
1/2+x,1/2-y,-z
1/2-x,y,-z
1/2-x,1/2-y,-z
1/2+x,y,-z
1/2-x,1/2+y,z
1/2+x,-y,z
loop_
_atom_site_type_symbol
_atom_site_label
_atom_site_fract_x
_atom_site_fract_y
_atom_site_fract_z
Si Si1 0.500000 0.071608 0.108955
Si Si2 0.500000 0.067212 0.447115
Si Si3 0.841237 0.568630 0.722431
Si Si4 0.342439 0.932848 0.387630
Si Si5 0.000000 0.426587 0.777483
Si Si6 0.843134 0.066100 0.051833
O O1 0.500000 0.250000 0.092361
O O2 0.500000 0.055397 0.165761
O O3 0.585650 0.986413 0.090050
O O4 0.500000 0.250000 0.449472
O O5 0.500000 0.000000 0.500000
O O6 0.414812 0.010158 0.420052
O O7 0.835887 0.750000 0.727626
O O8 0.750000 0.500000 0.739982
O O9 0.861482 0.520487 0.667542
O O10 0.914891 0.506875 0.757122
O O11 0.343640 0.750000 0.395059
O O12 0.250000 0.000000 0.404339
O O13 0.000000 0.250000 0.760893
O O14 0.838298 0.250000 0.049100
O O15 0.750000 0.000000 0.068397
O O16 0.869939 0.000000 0.000000
#
# Coordination Sequence:
#
# PCOD8280983 Si02
#       6
#     8   8  16  16   8  16
#     4  11  24  41  58  83 118 156 195 238 287 342
#     4  12  25  40  59  85 118 156 193 236 287 344
#     4  10  21  38  62  88 117 151 192 239 287 340
#     4  10  21  39  62  89 117 150 192 239 287 340
#     4  11  24  39  58  84 118 156 195 238 287 342
#     4  11  22  39  63  89 116 150 191 238 287 341
#
# _framework density 19.511361999999998
#
# number of rings (size 3 to 8) (size 9 to 14) (size 15 to 20)
#    0.000    1.333    0.000    6.667    0.000    8.444 
#    0.000    2.222    0.000    0.000    0.000    0.000 
#    0.000    0.000    0.000    0.000    0.000    0.000 
#
# Total GULP energy -446610.674787 kJ/mol
# GULP energy per Si atom -12405.852077 kJ/mol
# Density = 1.946695 g / cm^3
# Si number density = 19.511362 Si / 1000 Ang^3
#
#
#
# Elastic Constant Matrix: (Units=GPa)
#
#
# Indices 1 2 3 4 5 6 
#
# 1 163.1527 69.4478 74.9392 0.0000 0.0000 0.0000
# 2 69.4478 138.8706 53.0043 0.0000 0.0000 0.0000
# 3 74.9392 53.0043 84.6053 0.0000 0.0000 0.0000
# 4 0.0000 0.0000 0.0000 32.5440 0.0000 0.0000
# 5 0.0000 0.0000 0.0000 0.0000 -42.2690 0.0000
# 6 0.0000 0.0000 0.0000 0.0000 0.0000 38.1406
#
#
#
# Elastic Compliance Matrix: (Units=1/GPa)
#
#
# Indices 1 2 3 4 5 6 
#
# 1 0.010871 -0.002315 -0.008179 0.000000 0.000000 0.000000
# 2 -0.002315 0.009957 -0.004187 0.000000 0.000000 0.000000
# 3 -0.008179 -0.004187 0.021688 0.000000 0.000000 0.000000
# 4 0.000000 0.000000 0.000000 0.030728 0.000000 0.000000
# 5 0.000000 0.000000 0.000000 0.000000 -0.023658 0.000000
# 6 0.000000 0.000000 0.000000 0.000000 0.000000 0.026219
#
#
# Mechanical properties :
#
#
# Convention : Reuss Voigt Hill
#
# Bulk Modulus (GPa) = 76.02819 86.82346 81.42582
# Shear Modulus (GPa) = 45.64060 18.29893 31.96976
#
# Velocity S-wave (km/s) = 4.84175 3.06577 4.05226
# Velocity P-wave (km/s) = 8.38496 7.55827 7.98232
#
# Compressibility (1/GPa) = 0.01315302
#
# Stress axis : x y z
#
# Youngs Moduli (GPa) = 91.98447 100.43316 46.10923
#
# Poissons Ratio (x) = 0.23249 0.37713
# Poissons Ratio (y) = 0.21293 0.19308
# Poissons Ratio (z) = 0.75235 0.42056
#
# Static dielectric constant tensor:
#      x y z
#    x 3.770530 0.000000 0.000000 
#    y 0.000000 3.819750 0.000000 
#    z 0.000000 0.000000 3.549740 
# 
# 
# High freq. dielectric constant tensor:
#      x y z
#    x 1.778200 0.000000 0.000000 
#    y 0.000000 1.782600 0.000000 
#    z 0.000000 0.000000 1.756250 
# 
# From -- ./inp_files/44269.got.cif
#   From: 2010.03.12/outbox.cif.g09.slc.cpg/sg67_23_cif.got.tgz:44269.got - 2010.04.10 22:41:39.
