data_PCOD8280542
_publ_section_title
;
Structure prediction by ZEFSAII (Michael W. Deem and Ramdas Pophale) SiO2 
 PCOD8280542
Probable space group: C M M A
;
_chemical_formula_sum "Si O2"
_cell_formula_units_Z 72
_cell_length_a 15.406389
_cell_length_b 8.480342
_cell_length_c 27.921180
_cell_angle_alpha 90.000000
_cell_angle_beta 90.000000
_cell_angle_gamma 90.000000
_cell_volume 3647.942589
_symmetry_space_group_name_H-M "C M M A"
_symmetry_group_IT_number 67
_symmetry_cell_setting 'orthorhombic'
loop_
_space_group_symop_operation_xyz
x,y,z
-x,1/2-y,z
x,-y,-z
-x,1/2+y,-z
-x,-y,-z
x,1/2+y,-z
-x,y,z
x,1/2-y,z
1/2+x,1/2+y,z
1/2-x,-y,z
1/2+x,1/2-y,-z
1/2-x,y,-z
1/2-x,1/2-y,-z
1/2+x,y,-z
1/2-x,1/2+y,z
1/2+x,-y,z
loop_
_atom_site_type_symbol
_atom_site_label
_atom_site_fract_x
_atom_site_fract_y
_atom_site_fract_z
Si Si1 0.000000 0.066098 0.215257
Si Si2 0.000000 0.066092 0.888468
Si Si3 0.842900 0.562700 0.275552
Si Si4 0.500000 0.437477 0.446762
Si Si5 0.156418 0.436042 0.051852
Si Si6 0.159082 0.064285 0.614967
O O1 0.000000 0.250000 0.201933
O O2 0.915002 0.024752 0.245085
O O3 0.000000 0.961235 0.167895
O O4 0.000000 0.250000 0.900400
O O5 0.085981 0.987945 0.909719
O O6 0.849843 0.750000 0.268799
O O7 0.750000 0.500000 0.257515
O O8 0.857563 0.510534 0.330523
O O9 0.500000 0.250000 0.446825
O O10 0.500000 0.500000 0.500000
O O11 0.583868 0.504290 0.418919
O O12 0.161163 0.250000 0.049110
O O13 0.250000 0.500000 0.068070
O O14 0.129040 0.500000 0.000000
O O15 0.161164 0.250000 0.612241
O O16 0.250000 0.000000 0.595332
#
# Coordination Sequence:
#
# PCOD8280542 Si02
#       6
#     8   8  16   8  16  16
#     4  12  25  40  58  86 119 154 192 234 284 344
#     4  12  25  42  61  86 119 158 197 240 291 344
#     4  10  20  38  62  87 113 147 188 236 286 339
#     4  10  21  36  52  76 110 148 183 224 275 332
#     4  11  22  40  64  92 121 155 197 243 290 342
#     4   9  19  36  58  81 108 141 183 229 278 330
#
# _framework density 19.737152999999999
#
# number of rings (size 3 to 8) (size 9 to 14) (size 15 to 20)
#    0.000    1.556    0.000    6.333    0.000    4.889 
#    0.000    7.778    0.000    0.000    0.000    0.000 
#    0.000    0.000    0.000    0.000    0.000    0.000 
#
# Total GULP energy -446565.469193 kJ/mol
# GULP energy per Si atom -12404.596366 kJ/mol
# Density = 1.969223 g / cm^3
# Si number density = 19.737153 Si / 1000 Ang^3
#
#
#
# Elastic Constant Matrix: (Units=GPa)
#
#
# Indices 1 2 3 4 5 6 
#
# 1 171.7607 34.9973 84.6182 0.0000 0.0000 0.0000
# 2 34.9973 99.1952 23.2221 0.0000 0.0000 0.0000
# 3 84.6182 23.2221 106.3133 0.0000 0.0000 0.0000
# 4 0.0000 0.0000 0.0000 31.8820 0.0000 0.0000
# 5 0.0000 0.0000 0.0000 0.0000 7.2281 0.0000
# 6 0.0000 0.0000 0.0000 0.0000 0.0000 35.1413
#
#
#
# Elastic Compliance Matrix: (Units=1/GPa)
#
#
# Indices 1 2 3 4 5 6 
#
# 1 0.009851 -0.001728 -0.007463 0.000000 0.000000 0.000000
# 2 -0.001728 0.010928 -0.001011 0.000000 0.000000 0.000000
# 3 -0.007463 -0.001011 0.015567 0.000000 0.000000 0.000000
# 4 0.000000 0.000000 0.000000 0.031366 0.000000 0.000000
# 5 0.000000 0.000000 0.000000 0.000000 0.138350 0.000000
# 6 0.000000 0.000000 0.000000 0.000000 0.000000 0.028457
#
#
# Mechanical properties :
#
#
# Convention : Reuss Voigt Hill
#
# Bulk Modulus (GPa) = 62.73435 73.66051 68.19743
# Shear Modulus (GPa) = 19.21329 30.47907 24.84618
#
# Velocity S-wave (km/s) = 3.12341 3.93396 3.55188
# Velocity P-wave (km/s) = 6.69787 7.61816 7.17279
#
# Compressibility (1/GPa) = 0.01594023
#
# Stress axis : x y z
#
# Youngs Moduli (GPa) = 101.51295 91.51085 64.23753
#
# Poissons Ratio (x) = 0.15817 0.47942
# Poissons Ratio (y) = 0.17545 0.06496
# Poissons Ratio (z) = 0.75761 0.09254
#
# Static dielectric constant tensor:
#      x y z
#    x 3.601170 0.000000 0.000000 
#    y 0.000000 3.629270 0.000000 
#    z 0.000000 0.000000 3.635210 
# 
# 
# High freq. dielectric constant tensor:
#      x y z
#    x 1.787850 0.000000 0.000000 
#    y 0.000000 1.776710 0.000000 
#    z 0.000000 0.000000 1.764790 
# 
# From -- ./inp_files/44265.got.cif
#   From: 2010.03.12/outbox.cif.g09.slc.cpg/sg67_23_cif.got.tgz:44265.got - 2010.04.10 22:41:39.
