data_PCOD8280601
_publ_section_title
;
Structure prediction by ZEFSAII (Michael W. Deem and Ramdas Pophale) SiO2 
 PCOD8280601
Probable space group: C M M A
;
_chemical_formula_sum "Si O2"
_cell_formula_units_Z 44
_cell_length_a 13.797037
_cell_length_b 13.741050
_cell_length_c 10.868401
_cell_angle_alpha 90.000000
_cell_angle_beta 90.000000
_cell_angle_gamma 90.000000
_cell_volume 2060.494230
_symmetry_space_group_name_H-M "C M M A"
_symmetry_group_IT_number 67
_symmetry_cell_setting 'orthorhombic'
loop_
_space_group_symop_operation_xyz
x,y,z
-x,1/2-y,z
x,-y,-z
-x,1/2+y,-z
-x,-y,-z
x,1/2+y,-z
-x,y,z
x,1/2-y,z
1/2+x,1/2+y,z
1/2-x,-y,z
1/2+x,1/2-y,-z
1/2-x,y,-z
1/2-x,1/2-y,-z
1/2+x,y,-z
1/2-x,1/2+y,z
1/2+x,-y,z
loop_
_atom_site_type_symbol
_atom_site_label
_atom_site_fract_x
_atom_site_fract_y
_atom_site_fract_z
Si Si1 0.610547 0.750000 0.192473
Si Si2 0.500000 0.360744 0.509790
Si Si3 0.846213 0.057295 0.314786
Si Si4 0.000000 0.250000 0.959221
Si Si5 0.500000 0.581260 0.765558
O O1 0.500000 0.750000 0.249696
O O2 0.671683 0.843444 0.238177
O O3 0.597388 0.750000 0.044071
O O4 0.500000 0.250000 0.553847
O O5 0.405134 0.416248 0.561059
O O6 0.500000 0.361996 0.363335
O O7 0.750000 0.000000 0.353618
O O8 0.906217 0.987105 0.224504
O O9 0.000000 0.154106 0.878093
#
# Coordination Sequence:
#
# PCOD8280601 Si02
#       5
#     8   8  16   4   8
#     4  10  20  44  72  86 130 179 214 270 331 379
#     4  11  20  43  67  91 136 178 210 268 337 395
#     4  11  22  40  69  97 128 172 222 272 334 393
#     4  10  22  42  68  94 130 178 222 274 318 386
#     4  11  23  39  64  98 131 176 225 265 323 400
#
# _framework density 21.354102000000001
#
# number of rings (size 3 to 8) (size 9 to 14) (size 15 to 20)
#    0.545    0.727    6.364    2.182    0.000    7.273 
#    0.000    7.273    0.000    0.000    0.000    0.000 
#    0.000    0.000    0.000    0.000    0.000    0.000 
#
# Total GULP energy -272714.436755 kJ/mol
# GULP energy per Si atom -12396.110762 kJ/mol
# Density = 2.130550 g / cm^3
# Si number density = 21.354102 Si / 1000 Ang^3
#
#
#
# Elastic Constant Matrix: (Units=GPa)
#
#
# Indices 1 2 3 4 5 6 
#
# 1 124.6369 66.6092 28.2547 0.0000 0.0000 0.0000
# 2 66.6092 172.5359 59.6554 0.0000 0.0000 0.0000
# 3 28.2547 59.6554 135.6260 0.0000 0.0000 0.0000
# 4 0.0000 0.0000 0.0000 31.3806 0.0000 0.0000
# 5 0.0000 0.0000 0.0000 0.0000 -3.8211 0.0000
# 6 0.0000 0.0000 0.0000 0.0000 0.0000 31.9484
#
#
#
# Elastic Compliance Matrix: (Units=1/GPa)
#
#
# Indices 1 2 3 4 5 6 
#
# 1 0.010133 -0.003753 -0.000460 0.000000 0.000000 0.000000
# 2 -0.003753 0.008225 -0.002836 0.000000 0.000000 0.000000
# 3 -0.000460 -0.002836 0.008717 0.000000 0.000000 0.000000
# 4 0.000000 0.000000 0.000000 0.031867 0.000000 0.000000
# 5 0.000000 0.000000 0.000000 0.000000 -0.261708 0.000000
# 6 0.000000 0.000000 0.000000 0.000000 0.000000 0.031300
#
#
# Mechanical properties :
#
#
# Convention : Reuss Voigt Hill
#
# Bulk Modulus (GPa) = 77.06199 82.42638 79.74419
# Shear Modulus (GPa) = -32.67095 30.45356 -1.10870
#
# Velocity S-wave (km/s) = -3.91572 3.78050 -0.72133
# Velocity P-wave (km/s) = 3.96513 7.59867 6.06061
#
# Compressibility (1/GPa) = 0.01297657
#
# Stress axis : x y z
#
# Youngs Moduli (GPa) = 98.68437 121.57552 114.72392
#
# Poissons Ratio (x) = 0.45626 0.05281
# Poissons Ratio (y) = 0.37035 0.32537
# Poissons Ratio (z) = 0.04543 0.34480
#
# Static dielectric constant tensor:
#      x y z
#    x 3.627940 0.000000 0.000000 
#    y 0.000000 4.124040 0.000000 
#    z 0.000000 0.000000 3.595960 
# 
# 
# High freq. dielectric constant tensor:
#      x y z
#    x 1.799420 0.000000 0.000000 
#    y 0.000000 1.865760 0.000000 
#    z 0.000000 0.000000 1.830830 
# 
# From -- ./inp_files/17116.got.cif
#   From: 2010.03.12/outbox.cif.g09.slc.cpg/sg67_9_cif.got.tgz:17116.got - 2010.04.10 22:41:39.
