data_PCOD8280564
_publ_section_title
;
Structure prediction by ZEFSAII (Michael W. Deem and Ramdas Pophale) SiO2 
 PCOD8280564
Probable space group: C M M A
;
_chemical_formula_sum "Si O2"
_cell_formula_units_Z 64
_cell_length_a 9.405181
_cell_length_b 18.182772
_cell_length_c 18.715329
_cell_angle_alpha 90.000000
_cell_angle_beta 90.000000
_cell_angle_gamma 90.000000
_cell_volume 3200.550742
_symmetry_space_group_name_H-M "C M M A"
_symmetry_group_IT_number 67
_symmetry_cell_setting 'orthorhombic'
loop_
_space_group_symop_operation_xyz
x,y,z
-x,1/2-y,z
x,-y,-z
-x,1/2+y,-z
-x,-y,-z
x,1/2+y,-z
-x,y,z
x,1/2-y,z
1/2+x,1/2+y,z
1/2-x,-y,z
1/2+x,1/2-y,-z
1/2-x,y,-z
1/2-x,1/2-y,-z
1/2+x,y,-z
1/2-x,1/2+y,z
1/2+x,-y,z
loop_
_atom_site_type_symbol
_atom_site_label
_atom_site_fract_x
_atom_site_fract_y
_atom_site_fract_z
Si Si1 0.326197 0.422190 0.930682
Si Si2 0.771602 0.915947 0.658887
Si Si3 0.160076 0.330053 0.202325
Si Si4 0.000000 0.662900 0.398003
Si Si5 0.000000 0.421611 0.461242
O O1 0.500000 0.428812 0.937802
O O2 0.250000 0.500000 0.920089
O O3 0.272372 0.375112 0.862909
O O4 0.250000 0.385443 0.000000
O O5 0.843836 0.875499 0.724615
O O6 0.629415 0.873078 0.642916
O O7 0.861969 0.913094 0.586849
O O8 0.750000 0.000000 0.681866
O O9 0.236064 0.250000 0.211868
O O10 0.000000 0.315506 0.179551
O O11 0.000000 0.643873 0.481711
O O12 0.000000 0.750000 0.389032
O O13 0.000000 0.500000 0.500000
#
# Coordination Sequence:
#
# PCOD8280564 Si02
#       5
#    16  16  16   8   8
#     4  10  20  38  64  94 126 162 210 260 310 378
#     4  12  23  43  69  91 128 171 216 268 325 395
#     4  10  22  40  62  91 126 166 215 260 317 385
#     4  12  28  42  62 100 135 159 211 283 335 383
#     4  12  24  44  68  96 123 169 224 268 327 400
#
# _framework density 19.996559000000001
#
# number of rings (size 3 to 8) (size 9 to 14) (size 15 to 20)
#    0.000    1.000    3.750    3.750    0.000    3.500 
#    4.500    0.000    0.000    0.000    0.000    0.000 
#    0.000    0.000    0.000    0.000    0.000    0.000 
#
# Total GULP energy -396614.618416 kJ/mol
# GULP energy per Si atom -12394.206825 kJ/mol
# Density = 1.995105 g / cm^3
# Si number density = 19.996559 Si / 1000 Ang^3
#
#
#
# Elastic Constant Matrix: (Units=GPa)
#
#
# Indices 1 2 3 4 5 6 
#
# 1 99.6728 41.7144 26.4362 0.0000 0.0000 0.0000
# 2 41.7144 157.2228 66.6620 0.0000 0.0000 0.0000
# 3 26.4362 66.6620 139.7729 0.0000 0.0000 0.0000
# 4 0.0000 0.0000 0.0000 -215.5779 0.0000 0.0000
# 5 0.0000 0.0000 0.0000 0.0000 35.3180 0.0000
# 6 0.0000 0.0000 0.0000 0.0000 0.0000 -7.5093
#
#
#
# Elastic Compliance Matrix: (Units=1/GPa)
#
#
# Indices 1 2 3 4 5 6 
#
# 1 0.011374 -0.002639 -0.000892 0.000000 0.000000 0.000000
# 2 -0.002639 0.008585 -0.003595 0.000000 0.000000 0.000000
# 3 -0.000892 -0.003595 0.009038 0.000000 0.000000 0.000000
# 4 0.000000 0.000000 0.000000 -0.004639 0.000000 0.000000
# 5 0.000000 0.000000 0.000000 0.000000 0.028314 0.000000
# 6 0.000000 0.000000 0.000000 0.000000 0.000000 -0.133169
#
#
# Mechanical properties :
#
#
# Convention : Reuss Voigt Hill
#
# Bulk Modulus (GPa) = 67.82916 74.03262 70.93089
# Shear Modulus (GPa) = -81.52973 -20.09677 -50.81325
#
# Velocity S-wave (km/s) = -6.39221 -3.17363 -5.04640
# Velocity P-wave (km/s) = 4.52620 4.86557 1.26241
#
# Compressibility (1/GPa) = 0.01474292
#
# Stress axis : x y z
#
# Youngs Moduli (GPa) = 87.91858 116.48124 110.64447
#
# Poissons Ratio (x) = 0.30744 0.09875
# Poissons Ratio (y) = 0.23205 0.39780
# Poissons Ratio (z) = 0.07846 0.41878
#
# Static dielectric constant tensor:
#      x y z
#    x 3.677180 0.000000 0.000000 
#    y 0.000000 3.928480 0.000000 
#    z 0.000000 0.000000 3.858400 
# 
# 
# High freq. dielectric constant tensor:
#      x y z
#    x 1.776300 0.000000 0.000000 
#    y 0.000000 1.787630 0.000000 
#    z 0.000000 0.000000 1.795600 
# 
# From -- ./inp_files/34657.got.cif
#   From: 2010.03.12/outbox.cif.g09.slc.cpg/sg67_18_cif.got.tgz:34657.got - 2010.04.10 22:41:39.
