data_PCOD8280497
_publ_section_title
;
Structure prediction by ZEFSAII (Michael W. Deem and Ramdas Pophale) SiO2 
 PCOD8280497
Probable space group: C M M A
;
_chemical_formula_sum "Si O2"
_cell_formula_units_Z 48
_cell_length_a 17.374748
_cell_length_b 15.853671
_cell_length_c 7.465669
_cell_angle_alpha 90.000000
_cell_angle_beta 90.000000
_cell_angle_gamma 90.000000
_cell_volume 2056.444943
_symmetry_space_group_name_H-M "C M M A"
_symmetry_group_IT_number 67
_symmetry_cell_setting 'orthorhombic'
loop_
_space_group_symop_operation_xyz
x,y,z
-x,1/2-y,z
x,-y,-z
-x,1/2+y,-z
-x,-y,-z
x,1/2+y,-z
-x,y,z
x,1/2-y,z
1/2+x,1/2+y,z
1/2-x,-y,z
1/2+x,1/2-y,-z
1/2-x,y,-z
1/2-x,1/2-y,-z
1/2+x,y,-z
1/2-x,1/2+y,z
1/2+x,-y,z
loop_
_atom_site_type_symbol
_atom_site_label
_atom_site_fract_x
_atom_site_fract_y
_atom_site_fract_z
Si Si1 0.586792 0.848664 0.507374
Si Si2 0.699279 0.084474 0.777642
Si Si3 0.151465 0.843710 0.124944
O O1 0.500000 0.868738 0.445671
O O2 0.606289 0.750000 0.480686
O O3 0.645724 0.905899 0.395014
O O4 0.594764 0.874158 0.716362
O O5 0.761766 0.159571 0.793003
O O6 0.750000 0.000000 0.768760
O O7 0.646492 0.091153 0.957781
O O8 0.128046 0.750000 0.060678
#
# Coordination Sequence:
#
# PCOD8280497 Si02
#       3
#    16  16  16
#     4  10  22  40  64  95 128 165 211 262 318 379
#     4  11  22  37  61  91 125 165 209 259 318 379
#     4  10  20  37  62  89 119 164 221 270 308 359
#
# _framework density 23.341253999999999
#
# number of rings (size 3 to 8) (size 9 to 14) (size 15 to 20)
#    0.000    1.667    0.000    7.000    0.000    8.000 
#    0.000    6.667    0.000   12.000    0.000    0.000 
#    0.000    0.000    0.000    0.000    0.000    0.000 
#
# Total GULP energy -297444.775622 kJ/mol
# GULP energy per Si atom -12393.532318 kJ/mol
# Density = 2.328813 g / cm^3
# Si number density = 23.341254 Si / 1000 Ang^3
#
#
#
# Elastic Constant Matrix: (Units=GPa)
#
#
# Indices 1 2 3 4 5 6 
#
# 1 70.6181 37.7590 49.7653 0.0000 0.0000 0.0000
# 2 37.7590 109.5046 71.6378 0.0000 0.0000 0.0000
# 3 49.7653 71.6378 136.3095 0.0000 0.0000 0.0000
# 4 0.0000 0.0000 0.0000 26.1607 0.0000 0.0000
# 5 0.0000 0.0000 0.0000 0.0000 31.2816 0.0000
# 6 0.0000 0.0000 0.0000 0.0000 0.0000 25.2748
#
#
#
# Elastic Compliance Matrix: (Units=1/GPa)
#
#
# Indices 1 2 3 4 5 6 
#
# 1 0.019773 -0.003193 -0.005541 0.000000 0.000000 0.000000
# 2 -0.003193 0.014433 -0.006419 0.000000 0.000000 0.000000
# 3 -0.005541 -0.006419 0.012733 0.000000 0.000000 0.000000
# 4 0.000000 0.000000 0.000000 0.038225 0.000000 0.000000
# 5 0.000000 0.000000 0.000000 0.000000 0.031968 0.000000
# 6 0.000000 0.000000 0.000000 0.000000 0.000000 0.039565
#
#
# Mechanical properties :
#
#
# Convention : Reuss Voigt Hill
#
# Bulk Modulus (GPa) = 60.12610 70.52847 65.32728
# Shear Modulus (GPa) = 25.96783 27.02810 26.49797
#
# Velocity S-wave (km/s) = 3.33908 3.40656 3.37299
# Velocity P-wave (km/s) = 6.37820 6.76422 6.57405
#
# Compressibility (1/GPa) = 0.01663171
#
# Stress axis : x y z
#
# Youngs Moduli (GPa) = 50.57513 69.28758 78.53801
#
# Poissons Ratio (x) = 0.22126 0.43514
# Poissons Ratio (y) = 0.16150 0.50415
# Poissons Ratio (z) = 0.28021 0.44477
#
# Static dielectric constant tensor:
#      x y z
#    x 4.058830 0.000000 0.000000 
#    y 0.000000 4.096410 0.000000 
#    z 0.000000 0.000000 4.325350 
# 
# 
# High freq. dielectric constant tensor:
#      x y z
#    x 1.893150 0.000000 0.000000 
#    y 0.000000 1.914360 0.000000 
#    z 0.000000 0.000000 1.929820 
# 
# From -- ./inp_files/8813.got.cif
#   From: 2010.03.12/outbox.cif.g09.slc.cpg/sg67_5_cif.got.tgz:8813.got - 2010.04.10 22:41:39.
