data_PCOD8280279
_publ_section_title
;
Structure prediction by ZEFSAII (Michael W. Deem and Ramdas Pophale) SiO2 
 PCOD8280279
Probable space group: C M M A
;
_chemical_formula_sum "Si O2"
_cell_formula_units_Z 112
_cell_length_a 16.923422
_cell_length_b 23.916414
_cell_length_c 13.266801
_cell_angle_alpha 90.000000
_cell_angle_beta 90.000000
_cell_angle_gamma 90.000000
_cell_volume 5369.705425
_symmetry_space_group_name_H-M "C M M A"
_symmetry_group_IT_number 67
_symmetry_cell_setting 'orthorhombic'
loop_
_space_group_symop_operation_xyz
x,y,z
-x,1/2-y,z
x,-y,-z
-x,1/2+y,-z
-x,-y,-z
x,1/2+y,-z
-x,y,z
x,1/2-y,z
1/2+x,1/2+y,z
1/2-x,-y,z
1/2+x,1/2-y,-z
1/2-x,y,-z
1/2-x,1/2-y,-z
1/2+x,y,-z
1/2-x,1/2+y,z
1/2+x,-y,z
loop_
_atom_site_type_symbol
_atom_site_label
_atom_site_fract_x
_atom_site_fract_y
_atom_site_fract_z
Si Si1 0.413737 0.189505 0.775304
Si Si2 0.694266 0.113952 0.299738
Si Si3 0.712174 0.863091 0.102763
Si Si4 0.088150 0.958409 0.908169
Si Si5 0.409489 0.994370 0.688168
Si Si6 0.092098 0.313737 0.577300
Si Si7 0.861116 0.390507 0.392270
O O1 0.500000 0.184979 0.827902
O O2 0.406071 0.250000 0.720588
O O3 0.342642 0.186461 0.855026
O O4 0.408888 0.139161 0.697162
O O5 0.721674 0.117085 0.183392
O O6 0.639932 0.168265 0.322382
O O7 0.768167 0.115601 0.375266
O O8 0.646641 0.058339 0.328906
O O9 0.654885 0.913339 0.074272
O O10 0.750000 0.840721 0.000000
O O11 0.104583 0.988390 0.803013
O O12 0.000000 0.931767 0.907355
O O13 0.096744 0.000000 0.000000
O O14 0.500000 0.976833 0.668161
O O15 0.386014 0.044250 0.610797
O O16 0.115200 0.250000 0.546333
O O17 0.114991 0.359685 0.494127
O O18 0.000000 0.317260 0.601370
#
# Coordination Sequence:
#
# PCOD8280279 Si02
#       7
#    16  16  16  16  16  16  16
#     4  10  20  37  61  88 118 154 203 263 322 376
#     4  11  24  39  61  93 130 167 204 259 319 373
#     4  11  23  38  60  89 125 166 208 262 309 377
#     4  10  20  35  60  90 123 164 207 255 310 373
#     4  11  21  37  60  90 132 167 204 250 308 384
#     4  11  25  46  68  91 122 164 216 264 317 388
#     4  11  22  38  67  96 123 157 206 267 324 376
#
# _framework density 20.857754
#
# number of rings (size 3 to 8) (size 9 to 14) (size 15 to 20)
#    0.000    1.286    2.857    4.286    0.000    6.857 
#    0.000    5.000    0.000    1.714    0.000    0.000 
#    0.000    0.000    0.000    0.000    0.000    0.000 
#
# Total GULP energy -694248.504307 kJ/mol
# GULP energy per Si atom -12397.294720 kJ/mol
# Density = 2.081028 g / cm^3
# Si number density = 20.857754 Si / 1000 Ang^3
#
#
#
# Elastic Constant Matrix: (Units=GPa)
#
#
# Indices 1 2 3 4 5 6 
#
# 1 120.4338 52.3987 31.3279 0.0000 0.0000 0.0000
# 2 52.3987 119.9426 30.3435 0.0000 0.0000 0.0000
# 3 31.3279 30.3435 68.6339 0.0000 0.0000 0.0000
# 4 0.0000 0.0000 0.0000 21.3810 0.0000 0.0000
# 5 0.0000 0.0000 0.0000 0.0000 26.0265 0.0000
# 6 0.0000 0.0000 0.0000 0.0000 0.0000 73.2964
#
#
#
# Elastic Compliance Matrix: (Units=1/GPa)
#
#
# Indices 1 2 3 4 5 6 
#
# 1 0.010848 -0.003925 -0.003216 0.000000 0.000000 0.000000
# 2 -0.003925 0.010808 -0.002986 0.000000 0.000000 0.000000
# 3 -0.003216 -0.002986 0.017358 0.000000 0.000000 0.000000
# 4 0.000000 0.000000 0.000000 0.046771 0.000000 0.000000
# 5 0.000000 0.000000 0.000000 0.000000 0.038422 0.000000
# 6 0.000000 0.000000 0.000000 0.000000 0.000000 0.013643
#
#
# Mechanical properties :
#
#
# Convention : Reuss Voigt Hill
#
# Bulk Modulus (GPa) = 53.31021 59.68339 56.49680
# Shear Modulus (GPa) = 30.42134 37.13679 33.77907
#
# Velocity S-wave (km/s) = 3.82319 4.22415 4.02866
# Velocity P-wave (km/s) = 6.71591 7.24347 6.98467
#
# Compressibility (1/GPa) = 0.01875813
#
# Stress axis : x y z
#
# Youngs Moduli (GPa) = 92.18497 92.52657 57.60933
#
# Poissons Ratio (x) = 0.36320 0.18527
# Poissons Ratio (y) = 0.36186 0.17204
# Poissons Ratio (z) = 0.29647 0.27632
#
# Static dielectric constant tensor:
#      x y z
#    x 4.089110 0.000000 0.000000 
#    y 0.000000 3.853700 0.000000 
#    z 0.000000 0.000000 3.773180 
# 
# 
# High freq. dielectric constant tensor:
#      x y z
#    x 1.837640 0.000000 0.000000 
#    y 0.000000 1.818050 0.000000 
#    z 0.000000 0.000000 1.799690 
# 
# From -- ./inp_files/27538.got.cif
#   From: 2010.03.12/outbox.cif.g09.slc.cpg/sg67_14_cif.got.tgz:27538.got - 2010.04.10 22:41:39.
