data_PCOD8280077
_publ_section_title
;
Structure prediction by ZEFSAII (Michael W. Deem and Ramdas Pophale) SiO2 
 PCOD8280077
Probable space group: C M M A
;
_chemical_formula_sum "Si O2"
_cell_formula_units_Z 72
_cell_length_a 30.533257
_cell_length_b 8.650270
_cell_length_c 14.508842
_cell_angle_alpha 90.000000
_cell_angle_beta 90.000000
_cell_angle_gamma 90.000000
_cell_volume 3832.088654
_symmetry_space_group_name_H-M "C M M A"
_symmetry_group_IT_number 67
_symmetry_cell_setting 'orthorhombic'
loop_
_space_group_symop_operation_xyz
x,y,z
-x,1/2-y,z
x,-y,-z
-x,1/2+y,-z
-x,-y,-z
x,1/2+y,-z
-x,y,z
x,1/2-y,z
1/2+x,1/2+y,z
1/2-x,-y,z
1/2+x,1/2-y,-z
1/2-x,y,-z
1/2-x,1/2-y,-z
1/2+x,y,-z
1/2-x,1/2+y,z
1/2+x,-y,z
loop_
_atom_site_type_symbol
_atom_site_label
_atom_site_fract_x
_atom_site_fract_y
_atom_site_fract_z
Si Si1 0.951069 0.932376 0.598193
Si Si2 0.594901 0.433213 0.102124
Si Si3 0.202748 0.067182 0.597118
Si Si4 0.629200 0.067552 0.721896
Si Si5 0.500000 0.570830 0.901538
O O1 0.950667 0.750000 0.589119
O O2 0.915677 0.988233 0.672828
O O3 0.000000 0.990565 0.626896
O O4 0.937182 0.000000 0.500000
O O5 0.602710 0.250000 0.099768
O O6 0.628540 0.514978 0.171501
O O7 0.546312 0.477098 0.144339
O O8 0.602018 0.500000 0.000000
O O9 0.205874 0.250000 0.589144
O O10 0.185761 0.000000 0.500000
O O11 0.250000 0.000000 0.622551
O O12 0.169778 0.019108 0.676837
O O13 0.636045 0.250000 0.714295
O O14 0.500000 0.750000 0.918248
O O15 0.500000 0.500000 0.000000
#
# Coordination Sequence:
#
# PCOD8280077 Si02
#       5
#    16  16  16  16   8
#     4   9  19  34  50  72 105 145 185 224 267 320
#     4  10  20  35  53  77 108 146 190 238 287 333
#     4  11  22  39  62  88 117 146 182 228 281 337
#     4  11  22  35  55  82 112 147 189 232 279 334
#     4   8  16  30  48  70  99 136 183 232 280 326
#
# _framework density 18.788709999999998
#
# number of rings (size 3 to 8) (size 9 to 14) (size 15 to 20)
#    0.000    2.000    0.000    4.667    1.556    4.444 
#    0.000    0.000    0.000    0.667    0.000    4.667 
#    0.000    0.000    0.000    0.000    0.000    0.000 
#
# Total GULP energy -446226.603450 kJ/mol
# GULP energy per Si atom -12395.183429 kJ/mol
# Density = 1.874595 g / cm^3
# Si number density = 18.788710 Si / 1000 Ang^3
#
#
#
# Elastic Constant Matrix: (Units=GPa)
#
#
# Indices 1 2 3 4 5 6 
#
# 1 91.1147 45.4170 64.8944 0.0000 0.0000 0.0000
# 2 45.4170 89.9407 40.6326 0.0000 0.0000 0.0000
# 3 64.8944 40.6326 112.2150 0.0000 0.0000 0.0000
# 4 0.0000 0.0000 0.0000 31.6892 0.0000 0.0000
# 5 0.0000 0.0000 0.0000 0.0000 -11.5720 0.0000
# 6 0.0000 0.0000 0.0000 0.0000 0.0000 26.5498
#
#
#
# Elastic Compliance Matrix: (Units=1/GPa)
#
#
# Indices 1 2 3 4 5 6 
#
# 1 0.021187 -0.006173 -0.010017 0.000000 0.000000 0.000000
# 2 -0.006173 0.015092 -0.001895 0.000000 0.000000 0.000000
# 3 -0.010017 -0.001895 0.015390 0.000000 0.000000 0.000000
# 4 0.000000 0.000000 0.000000 0.031556 0.000000 0.000000
# 5 0.000000 0.000000 0.000000 0.000000 -0.086416 0.000000
# 6 0.000000 0.000000 0.000000 0.000000 0.000000 0.037665
#
#
# Mechanical properties :
#
#
# Convention : Reuss Voigt Hill
#
# Bulk Modulus (GPa) = 64.52041 66.12874 65.32458
# Shear Modulus (GPa) = 65.95364 18.82183 42.38773
#
# Velocity S-wave (km/s) = 5.93119 3.16850 4.75491
# Velocity P-wave (km/s) = 9.01775 6.97555 8.06158
#
# Compressibility (1/GPa) = 0.01549897
#
# Stress axis : x y z
#
# Youngs Moduli (GPa) = 47.19945 66.26194 64.97538
#
# Poissons Ratio (x) = 0.40904 0.65086
# Poissons Ratio (y) = 0.29137 0.12311
# Poissons Ratio (z) = 0.47280 0.12554
#
# Static dielectric constant tensor:
#      x y z
#    x 3.574420 0.000000 0.000000 
#    y 0.000000 3.393220 0.000000 
#    z 0.000000 0.000000 3.299490 
# 
# 
# High freq. dielectric constant tensor:
#      x y z
#    x 1.718970 0.000000 0.000000 
#    y 0.000000 1.739460 0.000000 
#    z 0.000000 0.000000 1.721060 
# 
# From -- ./inp_files/30540.got.cif
#   From: 2010.03.12/outbox.cif.g09.slc.cpg/sg67_16_cif.got.tgz:30540.got - 2010.04.10 22:41:39.
