data_PCOD8280270
_publ_section_title
;
Structure prediction by ZEFSAII (Michael W. Deem and Ramdas Pophale) SiO2 
 PCOD8280270
Probable space group: C M M A
;
_chemical_formula_sum "Si O2"
_cell_formula_units_Z 80
_cell_length_a 8.680241
_cell_length_b 30.713134
_cell_length_c 14.310700
_cell_angle_alpha 90.000000
_cell_angle_beta 90.000000
_cell_angle_gamma 90.000000
_cell_volume 3815.195484
_symmetry_space_group_name_H-M "C M M A"
_symmetry_group_IT_number 67
_symmetry_cell_setting 'orthorhombic'
loop_
_space_group_symop_operation_xyz
x,y,z
-x,1/2-y,z
x,-y,-z
-x,1/2+y,-z
-x,-y,-z
x,1/2+y,-z
-x,y,z
x,1/2-y,z
1/2+x,1/2+y,z
1/2-x,-y,z
1/2+x,1/2-y,-z
1/2-x,y,-z
1/2-x,1/2-y,-z
1/2+x,y,-z
1/2-x,1/2+y,z
1/2+x,-y,z
loop_
_atom_site_type_symbol
_atom_site_label
_atom_site_fract_x
_atom_site_fract_y
_atom_site_fract_z
Si Si1 0.181589 0.624699 0.101495
Si Si2 0.176808 0.955242 0.791778
Si Si3 0.677023 0.577834 0.407747
Si Si4 0.175977 0.200734 0.216608
Si Si5 0.181982 0.671282 0.402557
O O1 0.232200 0.585259 0.167014
O O2 0.236401 0.670336 0.143583
O O3 0.000000 0.625432 0.094476
O O4 0.250000 0.617382 0.000000
O O5 0.191508 0.954527 0.679440
O O6 0.000000 0.952772 0.824167
O O7 0.250000 0.000000 0.829148
O O8 0.500000 0.590479 0.427307
O O9 0.750000 0.555125 0.500000
O O10 0.771337 0.621412 0.385809
O O11 0.185997 0.250000 0.178649
O O12 0.251273 0.199772 0.318666
O O13 0.000000 0.184610 0.223929
O O14 0.500000 0.675971 0.596287
O O15 0.250000 0.689110 0.500000
#
# Coordination Sequence:
#
# PCOD8280270 Si02
#       5
#    16  16  16  16  16
#     4  12  26  46  72  97 127 165 209 263 325 386
#     4  11  24  42  66  96 132 170 215 266 318 379
#     4  10  20  35  59  89 128 171 215 262 311 371
#     4  11  24  43  67  96 131 169 213 264 318 379
#     4  11  21  35  60  91 128 172 217 262 314 375
#
# _framework density 20.968779999999999
#
# number of rings (size 3 to 8) (size 9 to 14) (size 15 to 20)
#    0.000    1.000    2.000    6.600    0.000    5.600 
#    0.000    4.000    0.000    0.000    0.000    0.000 
#    0.000    0.000    0.000    0.000    0.000    0.000 
#
# Total GULP energy -496194.879326 kJ/mol
# GULP energy per Si atom -12404.871983 kJ/mol
# Density = 2.092105 g / cm^3
# Si number density = 20.968780 Si / 1000 Ang^3
#
#
#
# Elastic Constant Matrix: (Units=GPa)
#
#
# Indices 1 2 3 4 5 6 
#
# 1 199.2714 47.1747 51.5830 0.0000 0.0000 0.0000
# 2 47.1747 86.8288 23.4628 0.0000 0.0000 0.0000
# 3 51.5830 23.4628 93.9791 0.0000 0.0000 0.0000
# 4 0.0000 0.0000 0.0000 8.8644 0.0000 0.0000
# 5 0.0000 0.0000 0.0000 0.0000 39.3160 0.0000
# 6 0.0000 0.0000 0.0000 0.0000 0.0000 19.2688
#
#
#
# Elastic Compliance Matrix: (Units=1/GPa)
#
#
# Indices 1 2 3 4 5 6 
#
# 1 0.006393 -0.002708 -0.002833 0.000000 0.000000 0.000000
# 2 -0.002708 0.013497 -0.001883 0.000000 0.000000 0.000000
# 3 -0.002833 -0.001883 0.012666 0.000000 0.000000 0.000000
# 4 0.000000 0.000000 0.000000 0.112811 0.000000 0.000000
# 5 0.000000 0.000000 0.000000 0.000000 0.025435 0.000000
# 6 0.000000 0.000000 0.000000 0.000000 0.000000 0.051897
#
#
# Mechanical properties :
#
#
# Convention : Reuss Voigt Hill
#
# Bulk Modulus (GPa) = 56.47326 69.39113 62.93220
# Shear Modulus (GPa) = 20.53821 30.68042 25.60932
#
# Velocity S-wave (km/s) = 3.13304 3.82926 3.49851
# Velocity P-wave (km/s) = 6.33075 7.26054 6.81153
#
# Compressibility (1/GPa) = 0.01770749
#
# Stress axis : x y z
#
# Youngs Moduli (GPa) = 156.43183 74.09074 78.95328
#
# Poissons Ratio (x) = 0.20061 0.22365
# Poissons Ratio (y) = 0.42356 0.14871
# Poissons Ratio (z) = 0.44313 0.13955
#
# Static dielectric constant tensor:
#      x y z
#    x 4.019620 0.000000 0.000000 
#    y 0.000000 3.575020 0.000000 
#    z 0.000000 0.000000 3.949110 
# 
# 
# High freq. dielectric constant tensor:
#      x y z
#    x 1.841540 0.000000 0.000000 
#    y 0.000000 1.813230 0.000000 
#    z 0.000000 0.000000 1.823300 
# 
# From -- ./inp_files/32288.got.cif
#   From: 2010.03.12/outbox.cif.g09.slc.cpg/sg67_17_cif.got.tgz:32288.got - 2010.04.10 22:41:39.
