data_PCOD8280488
_publ_section_title
;
Structure prediction by ZEFSAII (Michael W. Deem and Ramdas Pophale) SiO2 
 PCOD8280488
Probable space group: C M M A
;
_chemical_formula_sum "Si O2"
_cell_formula_units_Z 104
_cell_length_a 8.679806
_cell_length_b 23.708946
_cell_length_c 25.308562
_cell_angle_alpha 90.000000
_cell_angle_beta 90.000000
_cell_angle_gamma 90.000000
_cell_volume 5208.224975
_symmetry_space_group_name_H-M "C M M A"
_symmetry_group_IT_number 67
_symmetry_cell_setting 'orthorhombic'
loop_
_space_group_symop_operation_xyz
x,y,z
-x,1/2-y,z
x,-y,-z
-x,1/2+y,-z
-x,-y,-z
x,1/2+y,-z
-x,y,z
x,1/2-y,z
1/2+x,1/2+y,z
1/2-x,-y,z
1/2+x,1/2-y,-z
1/2-x,y,-z
1/2-x,1/2-y,-z
1/2+x,y,-z
1/2-x,1/2+y,z
1/2+x,-y,z
loop_
_atom_site_type_symbol
_atom_site_label
_atom_site_fract_x
_atom_site_fract_y
_atom_site_fract_z
Si Si1 0.317013 0.369069 0.444009
Si Si2 0.181027 0.750000 0.283515
Si Si3 0.179556 0.250000 0.056759
Si Si4 0.818974 0.628526 0.253237
Si Si5 0.319409 0.940190 0.849274
Si Si6 0.181841 0.061315 0.348966
Si Si7 0.818018 0.871974 0.941735
Si Si8 0.316878 0.750000 0.598658
O O1 0.500000 0.371805 0.444879
O O2 0.250000 0.388066 0.500000
O O3 0.256128 0.412685 0.401117
O O4 0.257034 0.305840 0.431121
O O5 0.231275 0.805752 0.251584
O O6 0.253993 0.750000 0.342268
O O7 0.000000 0.750000 0.291063
O O8 0.227737 0.309867 0.083355
O O9 0.000000 0.250000 0.048325
O O10 0.250000 0.250000 0.000000
O O11 0.774322 0.603276 0.196729
O O12 0.721571 0.598965 0.298565
O O13 0.000000 0.620982 0.265931
O O14 0.500000 0.946353 0.855867
O O15 0.250413 0.919706 0.904457
O O16 0.250000 0.000000 0.833358
O O17 0.000000 0.057642 0.356175
O O18 0.250000 0.000000 0.338846
O O19 0.000000 0.879762 0.945071
O O20 0.750000 0.879838 0.000000
O O21 0.500000 0.750000 0.600725
#
# Coordination Sequence:
#
# PCOD8280488 Si02
#       8
#    16   8   8  16  16  16  16   8
#     4  11  22  39  61  90 123 160 200 244 295 352
#     4   9  16  34  64  94 121 155 192 234 293 354
#     4   8  16  31  54  84 116 153 190 234 289 345
#     4  10  21  40  65  91 121 156 196 242 294 355
#     4  11  24  40  60  87 119 159 204 250 299 353
#     4  12  25  41  62  87 116 156 202 249 299 355
#     4  10  20  37  61  89 123 160 200 246 297 356
#     4   9  17  33  62  90 122 159 194 237 292 355
#
# _framework density 19.968416000000001
#
# number of rings (size 3 to 8) (size 9 to 14) (size 15 to 20)
#    0.000    1.692    1.538    3.462    0.000    4.308 
#    0.000    6.154    0.000    0.000    0.000    0.000 
#    0.000    0.000    0.000    0.000    0.000    0.000 
#
# Total GULP energy -644733.938506 kJ/mol
# GULP energy per Si atom -12398.729587 kJ/mol
# Density = 1.992297 g / cm^3
# Si number density = 19.968416 Si / 1000 Ang^3
#
#
#
# Elastic Constant Matrix: (Units=GPa)
#
#
# Indices 1 2 3 4 5 6 
#
# 1 81.8145 43.9267 44.1765 0.0000 0.0000 0.0000
# 2 43.9267 145.1004 58.9869 0.0000 0.0000 0.0000
# 3 44.1765 58.9869 123.8322 0.0000 0.0000 0.0000
# 4 0.0000 0.0000 0.0000 -3.1210 0.0000 0.0000
# 5 0.0000 0.0000 0.0000 0.0000 29.9109 0.0000
# 6 0.0000 0.0000 0.0000 0.0000 0.0000 26.8373
#
#
#
# Elastic Compliance Matrix: (Units=1/GPa)
#
#
# Indices 1 2 3 4 5 6 
#
# 1 0.016239 -0.003176 -0.004280 0.000000 0.000000 0.000000
# 2 -0.003176 0.009168 -0.003234 0.000000 0.000000 0.000000
# 3 -0.004280 -0.003234 0.011143 0.000000 0.000000 0.000000
# 4 0.000000 0.000000 0.000000 -0.320412 0.000000 0.000000
# 5 0.000000 0.000000 0.000000 0.000000 0.033433 0.000000
# 6 0.000000 0.000000 0.000000 0.000000 0.000000 0.037262
#
#
# Mechanical properties :
#
#
# Convention : Reuss Voigt Hill
#
# Bulk Modulus (GPa) = 65.92309 71.65857 68.79083
# Shear Modulus (GPa) = -26.77663 24.30257 -1.23703
#
# Velocity S-wave (km/s) = -3.66587 3.49241 -0.78793
# Velocity P-wave (km/s) = 3.89451 7.22679 5.80490
#
# Compressibility (1/GPa) = 0.01516919
#
# Stress axis : x y z
#
# Youngs Moduli (GPa) = 61.57916 109.07473 89.74252
#
# Poissons Ratio (x) = 0.34643 0.38413
# Poissons Ratio (y) = 0.19558 0.29024
# Poissons Ratio (z) = 0.26358 0.35276
#
# Static dielectric constant tensor:
#      x y z
#    x 3.496980 0.000000 0.000000 
#    y 0.000000 4.137500 0.000000 
#    z 0.000000 0.000000 3.610800 
# 
# 
# High freq. dielectric constant tensor:
#      x y z
#    x 1.770390 0.000000 0.000000 
#    y 0.000000 1.796450 0.000000 
#    z 0.000000 0.000000 1.775110 
# 
# From -- ./inp_files/43639.got.cif
#   From: 2010.03.12/outbox.cif.g09.slc.cpg/sg67_22_cif.got.tgz:43639.got - 2010.04.10 22:41:39.
