data_PCOD8280679
_publ_section_title
;
Structure prediction by ZEFSAII (Michael W. Deem and Ramdas Pophale) SiO2 
 PCOD8280679
Probable space group: C M M A
;
_chemical_formula_sum "Si O2"
_cell_formula_units_Z 64
_cell_length_a 31.301088
_cell_length_b 9.048737
_cell_length_c 11.299352
_cell_angle_alpha 90.000000
_cell_angle_beta 90.000000
_cell_angle_gamma 90.000000
_cell_volume 3200.375502
_symmetry_space_group_name_H-M "C M M A"
_symmetry_group_IT_number 67
_symmetry_cell_setting 'orthorhombic'
loop_
_space_group_symop_operation_xyz
x,y,z
-x,1/2-y,z
x,-y,-z
-x,1/2+y,-z
-x,-y,-z
x,1/2+y,-z
-x,y,z
x,1/2-y,z
1/2+x,1/2+y,z
1/2-x,-y,z
1/2+x,1/2-y,-z
1/2-x,y,-z
1/2-x,1/2-y,-z
1/2+x,y,-z
1/2-x,1/2+y,z
1/2+x,-y,z
loop_
_atom_site_type_symbol
_atom_site_label
_atom_site_fract_x
_atom_site_fract_y
_atom_site_fract_z
Si Si1 0.649096 0.072722 0.125317
Si Si2 0.916815 0.418526 0.288148
Si Si3 0.500000 0.427171 0.372424
Si Si4 0.859567 0.500000 0.500000
Si Si5 0.290541 0.410054 0.328527
O O1 0.643062 0.250000 0.118142
O O2 0.689489 0.027575 0.206887
O O3 0.607301 0.997187 0.180361
O O4 0.658438 0.000000 0.000000
O O5 0.928493 0.250000 0.253831
O O6 0.889362 0.410492 0.409284
O O7 0.958668 0.517497 0.302910
O O8 0.500000 0.250000 0.383344
O O9 0.500000 0.500000 0.500000
O O10 0.828187 0.394359 0.574427
O O11 0.271591 0.250000 0.304112
O O12 0.250000 0.500000 0.374498
#
# Coordination Sequence:
#
# PCOD8280679 Si02
#       5
#    16  16   8   8  16
#     4  10  22  41  62  85 115 152 199 246 297 352
#     4  11  22  38  62  89 120 157 197 240 295 351
#     4  12  24  38  59  90 127 160 196 239 287 343
#     4  10  21  35  58  84 120 154 198 237 291 356
#     4  10  22  37  55  83 116 153 194 243 294 350
#
# _framework density 19.997654000000001
#
# number of rings (size 3 to 8) (size 9 to 14) (size 15 to 20)
#    0.000    1.500    1.250    3.750    0.000    9.500 
#    0.000    3.125    0.000    0.000    0.000    0.000 
#    0.000    0.000    0.000    0.000    0.000    0.000 
#
# Total GULP energy -396671.625374 kJ/mol
# GULP energy per Si atom -12395.988293 kJ/mol
# Density = 1.995214 g / cm^3
# Si number density = 19.997654 Si / 1000 Ang^3
#
#
#
# Elastic Constant Matrix: (Units=GPa)
#
#
# Indices 1 2 3 4 5 6 
#
# 1 121.8436 47.3118 30.0925 0.0000 0.0000 0.0000
# 2 47.3118 132.1257 24.6512 0.0000 0.0000 0.0000
# 3 30.0925 24.6512 99.1864 0.0000 0.0000 0.0000
# 4 0.0000 0.0000 0.0000 23.9737 0.0000 0.0000
# 5 0.0000 0.0000 0.0000 0.0000 18.3854 0.0000
# 6 0.0000 0.0000 0.0000 0.0000 0.0000 26.3427
#
#
#
# Elastic Compliance Matrix: (Units=1/GPa)
#
#
# Indices 1 2 3 4 5 6 
#
# 1 0.009988 -0.003158 -0.002246 0.000000 0.000000 0.000000
# 2 -0.003158 0.008935 -0.001263 0.000000 0.000000 0.000000
# 3 -0.002246 -0.001263 0.011077 0.000000 0.000000 0.000000
# 4 0.000000 0.000000 0.000000 0.041712 0.000000 0.000000
# 5 0.000000 0.000000 0.000000 0.000000 0.054391 0.000000
# 6 0.000000 0.000000 0.000000 0.000000 0.000000 0.037961
#
#
# Mechanical properties :
#
#
# Convention : Reuss Voigt Hill
#
# Bulk Modulus (GPa) = 59.99357 61.91853 60.95605
# Shear Modulus (GPa) = 27.32958 30.48036 28.90497
#
# Velocity S-wave (km/s) = 3.70082 3.90833 3.80599
# Velocity P-wave (km/s) = 6.95175 7.16916 7.06129
#
# Compressibility (1/GPa) = 0.01666845
#
# Stress axis : x y z
#
# Youngs Moduli (GPa) = 100.12112 111.92219 90.27632
#
# Poissons Ratio (x) = 0.35340 0.20272
# Poissons Ratio (y) = 0.31614 0.11398
# Poissons Ratio (z) = 0.22482 0.14131
#
# Static dielectric constant tensor:
#      x y z
#    x 3.804070 0.000000 0.000000 
#    y 0.000000 3.573980 0.000000 
#    z 0.000000 0.000000 3.605430 
# 
# 
# High freq. dielectric constant tensor:
#      x y z
#    x 1.783410 0.000000 0.000000 
#    y 0.000000 1.787180 0.000000 
#    z 0.000000 0.000000 1.772510 
# 
# From -- ./inp_files/15836.got.cif
#   From: 2010.03.12/outbox.cif.g09.slc.cpg/sg67_8_cif.got.tgz:15836.got - 2010.04.10 22:41:39.
