data_PCOD8280847
_publ_section_title
;
Structure prediction by ZEFSAII (Michael W. Deem and Ramdas Pophale) SiO2 
 PCOD8280847
Probable space group: C M M A
;
_chemical_formula_sum "Si O2"
_cell_formula_units_Z 88
_cell_length_a 26.959004
_cell_length_b 8.622384
_cell_length_c 18.920852
_cell_angle_alpha 90.000000
_cell_angle_beta 90.000000
_cell_angle_gamma 90.000000
_cell_volume 4398.168788
_symmetry_space_group_name_H-M "C M M A"
_symmetry_group_IT_number 67
_symmetry_cell_setting 'orthorhombic'
loop_
_space_group_symop_operation_xyz
x,y,z
-x,1/2-y,z
x,-y,-z
-x,1/2+y,-z
-x,-y,-z
x,1/2+y,-z
-x,y,z
x,1/2-y,z
1/2+x,1/2+y,z
1/2-x,-y,z
1/2+x,1/2-y,-z
1/2-x,y,-z
1/2-x,1/2-y,-z
1/2+x,y,-z
1/2-x,1/2+y,z
1/2+x,-y,z
loop_
_atom_site_type_symbol
_atom_site_label
_atom_site_fract_x
_atom_site_fract_y
_atom_site_fract_z
Si Si1 0.401896 0.569867 0.158597
Si Si2 0.443924 0.072975 0.289847
Si Si3 0.500000 0.565358 0.077920
Si Si4 0.697553 0.932469 0.816753
Si Si5 0.885770 0.071258 0.573824
Si Si6 0.800872 0.432455 0.337172
O O1 0.395639 0.750000 0.144179
O O2 0.410320 0.538172 0.241782
O O3 0.449763 0.503301 0.116118
O O4 0.349614 0.489815 0.136173
O O5 0.500000 0.020210 0.279221
O O6 0.435064 0.250000 0.265303
O O7 0.431231 0.053637 0.372079
O O8 0.500000 0.750000 0.078074
O O9 0.500000 0.500000 0.000000
O O10 0.701130 0.750000 0.821567
O O11 0.750000 0.000000 0.845003
O O12 0.687165 0.983318 0.736503
O O13 0.869791 0.250000 0.564963
O O14 0.903540 0.000000 0.500000
O O15 0.840563 0.970884 0.603234
O O16 0.797324 0.250000 0.323060
O O17 0.750000 0.500000 0.367907
#
# Coordination Sequence:
#
# PCOD8280847 Si02
#       6
#    16  16   8  16  16  16
#     4  11  21  37  61  92 125 161 203 248 295 352
#     4  10  21  37  58  83 111 148 196 245 296 358
#     4  10  24  42  64  98 135 168 203 242 291 351
#     4  11  21  35  57  89 122 159 201 250 302 356
#     4  11  23  38  54  76 108 147 196 246 302 362
#     4  11  21  35  55  79 109 145 188 242 299 355
#
# _framework density 20.008327999999999
#
# number of rings (size 3 to 8) (size 9 to 14) (size 15 to 20)
#    0.000    1.273    2.727    5.455    0.000    2.909 
#    0.000    1.818    0.000    0.545    0.000    3.818 
#    0.000    0.000    0.000    0.000    0.000    0.000 
#
# Total GULP energy -545609.349511 kJ/mol
# GULP energy per Si atom -12400.212489 kJ/mol
# Density = 1.996279 g / cm^3
# Si number density = 20.008328 Si / 1000 Ang^3
#
#
#
# Elastic Constant Matrix: (Units=GPa)
#
#
# Indices 1 2 3 4 5 6 
#
# 1 154.6878 53.5938 41.4157 0.0000 0.0000 0.0000
# 2 53.5938 115.9527 23.9435 0.0000 0.0000 0.0000
# 3 41.4157 23.9435 66.7034 0.0000 0.0000 0.0000
# 4 0.0000 0.0000 0.0000 26.7788 0.0000 0.0000
# 5 0.0000 0.0000 0.0000 0.0000 23.6398 0.0000
# 6 0.0000 0.0000 0.0000 0.0000 0.0000 31.8192
#
#
#
# Elastic Compliance Matrix: (Units=1/GPa)
#
#
# Indices 1 2 3 4 5 6 
#
# 1 0.008695 -0.003137 -0.004273 0.000000 0.000000 0.000000
# 2 -0.003137 0.010446 -0.001802 0.000000 0.000000 0.000000
# 3 -0.004273 -0.001802 0.018292 0.000000 0.000000 0.000000
# 4 0.000000 0.000000 0.000000 0.037343 0.000000 0.000000
# 5 0.000000 0.000000 0.000000 0.000000 0.042301 0.000000
# 6 0.000000 0.000000 0.000000 0.000000 0.000000 0.031428
#
#
# Mechanical properties :
#
#
# Convention : Reuss Voigt Hill
#
# Bulk Modulus (GPa) = 52.60501 63.91664 58.26082
# Shear Modulus (GPa) = 28.85747 31.00698 29.93222
#
# Velocity S-wave (km/s) = 3.80185 3.94090 3.87200
# Velocity P-wave (km/s) = 6.75431 7.26099 7.01223
#
# Compressibility (1/GPa) = 0.01900960
#
# Stress axis : x y z
#
# Youngs Moduli (GPa) = 115.00289 95.72922 54.66960
#
# Poissons Ratio (x) = 0.30028 0.23360
# Poissons Ratio (y) = 0.36073 0.09852
# Poissons Ratio (z) = 0.49141 0.17252
#
# Static dielectric constant tensor:
#      x y z
#    x 3.867760 0.000000 0.000000 
#    y 0.000000 3.647650 0.000000 
#    z 0.000000 0.000000 3.347380 
# 
# 
# High freq. dielectric constant tensor:
#      x y z
#    x 1.801350 0.000000 0.000000 
#    y 0.000000 1.786840 0.000000 
#    z 0.000000 0.000000 1.739610 
# 
# From -- ./inp_files/36195.got.cif
#   From: 2010.03.12/outbox.cif.g09.slc.cpg/sg67_19_cif.got.tgz:36195.got - 2010.04.10 22:41:39.
