data_PCOD8280221
_publ_section_title
;
Structure prediction by ZEFSAII (Michael W. Deem and Ramdas Pophale) SiO2 
 PCOD8280221
Probable space group: C M M A
;
_chemical_formula_sum "Si O2"
_cell_formula_units_Z 112
_cell_length_a 29.690410
_cell_length_b 14.792380
_cell_length_c 11.814295
_cell_angle_alpha 90.000000
_cell_angle_beta 90.000000
_cell_angle_gamma 90.000000
_cell_volume 5188.741807
_symmetry_space_group_name_H-M "C M M A"
_symmetry_group_IT_number 67
_symmetry_cell_setting 'orthorhombic'
loop_
_space_group_symop_operation_xyz
x,y,z
-x,1/2-y,z
x,-y,-z
-x,1/2+y,-z
-x,-y,-z
x,1/2+y,-z
-x,y,z
x,1/2-y,z
1/2+x,1/2+y,z
1/2-x,-y,z
1/2+x,1/2-y,-z
1/2-x,y,-z
1/2-x,1/2-y,-z
1/2+x,y,-z
1/2-x,1/2+y,z
1/2+x,-y,z
loop_
_atom_site_type_symbol
_atom_site_label
_atom_site_fract_x
_atom_site_fract_y
_atom_site_fract_z
Si Si1 0.549631 0.352766 0.785279
Si Si2 0.287052 0.148715 0.595706
Si Si3 0.791969 0.147545 0.923174
Si Si4 0.450254 0.399569 0.540265
Si Si5 0.637210 0.651055 0.576135
Si Si6 0.817150 0.490652 0.740082
Si Si7 0.127231 0.583594 0.928550
O O1 0.500000 0.388025 0.823168
O O2 0.546970 0.250000 0.748509
O O3 0.566116 0.402850 0.671173
O O4 0.583583 0.360659 0.891123
O O5 0.280096 0.250000 0.650610
O O6 0.250000 0.132132 0.500000
O O7 0.336227 0.143367 0.541560
O O8 0.283327 0.064156 0.682128
O O9 0.786973 0.250000 0.879373
O O10 0.789582 0.080202 0.816870
O O11 0.750000 0.118766 0.000000
O O12 0.838109 0.140544 0.994799
O O13 0.454040 0.500000 0.500000
O O14 0.500000 0.353170 0.531934
O O15 0.415230 0.350345 0.457003
O O16 0.646989 0.750000 0.632987
O O17 0.652498 0.568602 0.654914
O O18 0.849635 0.551199 0.814436
O O19 0.108816 0.500000 0.000000
#
# Coordination Sequence:
#
# PCOD8280221 Si02
#       7
#    16  16  16  16  16  16  16
#     4  10  20  35  57  84 114 151 195 242 293 350
#     4  10  23  40  59  88 122 158 200 244 295 355
#     4  10  23  43  65  90 119 153 198 249 302 361
#     4  10  20  35  57  86 121 160 202 247 295 352
#     4  11  22  36  57  86 122 162 201 243 294 354
#     4  11  23  40  62  87 117 157 199 245 299 357
#     4  10  22  37  59  87 114 150 196 248 304 354
#
# _framework density 21.585194999999999
#
# number of rings (size 3 to 8) (size 9 to 14) (size 15 to 20)
#    0.000    1.714    0.000    4.286    0.000    9.429 
#    0.000    2.857    0.000    4.286    0.000    0.000 
#    0.000    0.000    0.000    0.000    0.000    0.000 
#
# Total GULP energy -694105.233234 kJ/mol
# GULP energy per Si atom -12394.736308 kJ/mol
# Density = 2.153607 g / cm^3
# Si number density = 21.585195 Si / 1000 Ang^3
#
#
#
# Elastic Constant Matrix: (Units=GPa)
#
#
# Indices 1 2 3 4 5 6 
#
# 1 108.2788 43.6152 49.9476 0.0000 0.0000 0.0000
# 2 43.6152 131.4396 60.0029 0.0000 0.0000 0.0000
# 3 49.9476 60.0029 99.8031 0.0000 0.0000 0.0000
# 4 0.0000 0.0000 0.0000 28.5807 0.0000 0.0000
# 5 0.0000 0.0000 0.0000 0.0000 32.5219 0.0000
# 6 0.0000 0.0000 0.0000 0.0000 0.0000 26.9203
#
#
#
# Elastic Compliance Matrix: (Units=1/GPa)
#
#
# Indices 1 2 3 4 5 6 
#
# 1 0.012293 -0.001751 -0.005099 0.000000 0.000000 0.000000
# 2 -0.001751 0.010736 -0.005578 0.000000 0.000000 0.000000
# 3 -0.005099 -0.005578 0.015925 0.000000 0.000000 0.000000
# 4 0.000000 0.000000 0.000000 0.034989 0.000000 0.000000
# 5 0.000000 0.000000 0.000000 0.000000 0.030748 0.000000
# 6 0.000000 0.000000 0.000000 0.000000 0.000000 0.037147
#
#
# Mechanical properties :
#
#
# Convention : Reuss Voigt Hill
#
# Bulk Modulus (GPa) = 70.93778 71.85031 71.39404
# Shear Modulus (GPa) = 29.17263 30.00165 29.58714
#
# Velocity S-wave (km/s) = 3.68028 3.73220 3.70633
# Velocity P-wave (km/s) = 7.14106 7.20636 7.17378
#
# Compressibility (1/GPa) = 0.01409686
#
# Stress axis : x y z
#
# Youngs Moduli (GPa) = 81.34644 93.14873 62.79352
#
# Poissons Ratio (x) = 0.16313 0.32020
# Poissons Ratio (y) = 0.14246 0.35025
# Poissons Ratio (z) = 0.41481 0.51957
#
# Static dielectric constant tensor:
#      x y z
#    x 4.205510 0.000000 0.000000 
#    y 0.000000 4.106590 0.000000 
#    z 0.000000 0.000000 3.761560 
# 
# 
# High freq. dielectric constant tensor:
#      x y z
#    x 1.853920 0.000000 0.000000 
#    y 0.000000 1.859380 0.000000 
#    z 0.000000 0.000000 1.831680 
# 
# From -- ./inp_files/23830.got.cif
#   From: 2010.03.12/outbox.cif.g09.slc.cpg/sg67_12_cif.got.tgz:23830.got - 2010.04.10 22:41:39.
