data_PCOD8280755
_publ_section_title
;
Structure prediction by ZEFSAII (Michael W. Deem and Ramdas Pophale) SiO2 
 PCOD8280755
Probable space group: C M M A
;
_chemical_formula_sum "Si O2"
_cell_formula_units_Z 88
_cell_length_a 9.013446
_cell_length_b 16.366824
_cell_length_c 29.418375
_cell_angle_alpha 90.000000
_cell_angle_beta 90.000000
_cell_angle_gamma 90.000000
_cell_volume 4339.842346
_symmetry_space_group_name_H-M "C M M A"
_symmetry_group_IT_number 67
_symmetry_cell_setting 'orthorhombic'
loop_
_space_group_symop_operation_xyz
x,y,z
-x,1/2-y,z
x,-y,-z
-x,1/2+y,-z
-x,-y,-z
x,1/2+y,-z
-x,y,z
x,1/2-y,z
1/2+x,1/2+y,z
1/2-x,-y,z
1/2+x,1/2-y,-z
1/2-x,y,-z
1/2-x,1/2-y,-z
1/2+x,y,-z
1/2-x,1/2+y,z
1/2+x,-y,z
loop_
_atom_site_type_symbol
_atom_site_label
_atom_site_fract_x
_atom_site_fract_y
_atom_site_fract_z
Si Si1 0.823732 0.250000 0.048665
Si Si2 0.824336 0.414024 0.101170
Si Si3 0.824577 0.416393 0.623398
Si Si4 0.831263 0.342888 0.294719
Si Si5 0.664030 0.655734 0.457379
Si Si6 0.171473 0.580655 0.796791
O O1 0.770742 0.333892 0.073422
O O2 0.000000 0.250000 0.044590
O O3 0.750000 0.250000 0.000000
O O4 0.750000 0.500000 0.084470
O O5 0.772992 0.394307 0.152939
O O6 0.000000 0.425395 0.096370
O O7 0.750000 0.500000 0.607732
O O8 0.779344 0.396350 0.675148
O O9 0.760052 0.350175 0.588595
O O10 0.000000 0.420844 0.620024
O O11 0.809892 0.250000 0.309088
O O12 0.794324 0.350510 0.240931
O O13 0.000000 0.372148 0.304050
O O14 0.500000 0.615421 0.451750
O O15 0.642107 0.750000 0.468396
O O16 0.750000 0.613978 0.500000
O O17 0.250000 0.500000 0.778772
O O18 0.000000 0.560527 0.800306
#
# Coordination Sequence:
#
# PCOD8280755 Si02
#       6
#     8  16  16  16  16  16
#     4  10  22  38  58  84 116 154 198 246 297 356
#     4   9  19  36  58  84 115 153 196 243 296 353
#     4  12  25  40  58  80 111 149 189 232 279 331
#     4  10  21  36  56  83 113 147 185 227 277 336
#     4  10  21  39  63  89 116 145 181 226 277 334
#     4   9  18  33  55  81 110 145 186 230 280 337
#
# _framework density 20.277234
#
# number of rings (size 3 to 8) (size 9 to 14) (size 15 to 20)
#    0.000    2.000    0.000    3.273    1.273    7.273 
#    0.000    3.636    0.000    0.000    0.000    0.000 
#    0.000    0.000    0.000    0.000    0.000    0.000 
#
# Total GULP energy -545456.104017 kJ/mol
# GULP energy per Si atom -12396.729637 kJ/mol
# Density = 2.023108 g / cm^3
# Si number density = 20.277234 Si / 1000 Ang^3
#
#
#
# Elastic Constant Matrix: (Units=GPa)
#
#
# Indices 1 2 3 4 5 6 
#
# 1 109.8779 40.2330 51.7931 0.0000 0.0000 0.0000
# 2 40.2330 89.0890 45.7915 0.0000 0.0000 0.0000
# 3 51.7931 45.7915 122.9642 0.0000 0.0000 0.0000
# 4 0.0000 0.0000 0.0000 21.7553 0.0000 0.0000
# 5 0.0000 0.0000 0.0000 0.0000 31.3889 0.0000
# 6 0.0000 0.0000 0.0000 0.0000 0.0000 28.1076
#
#
#
# Elastic Compliance Matrix: (Units=1/GPa)
#
#
# Indices 1 2 3 4 5 6 
#
# 1 0.012199 -0.003547 -0.003817 0.000000 0.000000 0.000000
# 2 -0.003547 0.014913 -0.004060 0.000000 0.000000 0.000000
# 3 -0.003817 -0.004060 0.011252 0.000000 0.000000 0.000000
# 4 0.000000 0.000000 0.000000 0.045966 0.000000 0.000000
# 5 0.000000 0.000000 0.000000 0.000000 0.031858 0.000000
# 6 0.000000 0.000000 0.000000 0.000000 0.000000 0.035578
#
#
# Mechanical properties :
#
#
# Convention : Reuss Voigt Hill
#
# Bulk Modulus (GPa) = 64.44804 66.39625 65.42215
# Shear Modulus (GPa) = 27.81074 28.52461 28.16767
#
# Velocity S-wave (km/s) = 3.70743 3.75471 3.73114
# Velocity P-wave (km/s) = 7.08372 7.18418 7.13413
#
# Compressibility (1/GPa) = 0.01551638
#
# Stress axis : x y z
#
# Youngs Moduli (GPa) = 81.97223 67.05459 88.87182
#
# Poissons Ratio (x) = 0.23785 0.33927
# Poissons Ratio (y) = 0.29076 0.36078
# Poissons Ratio (z) = 0.31293 0.27221
#
# Static dielectric constant tensor:
#      x y z
#    x 3.758940 0.000000 0.000000 
#    y 0.000000 3.970060 0.000000 
#    z 0.000000 0.000000 3.724240 
# 
# 
# High freq. dielectric constant tensor:
#      x y z
#    x 1.786440 0.000000 0.000000 
#    y 0.000000 1.783950 0.000000 
#    z 0.000000 0.000000 1.797850 
# 
# From -- ./inp_files/45224.got.cif
#   From: 2010.03.12/outbox.cif.g09.slc.cpg/sg67_23_cif.got.tgz:45224.got - 2010.04.10 22:41:39.
