data_PCOD8280608
_publ_section_title
;
Structure prediction by ZEFSAII (Michael W. Deem and Ramdas Pophale) SiO2 
 PCOD8280608
Probable space group: C M M A
;
_chemical_formula_sum "Si O2"
_cell_formula_units_Z 80
_cell_length_a 18.912631
_cell_length_b 17.390962
_cell_length_c 14.375802
_cell_angle_alpha 90.000000
_cell_angle_beta 90.000000
_cell_angle_gamma 90.000000
_cell_volume 4728.328461
_symmetry_space_group_name_H-M "C M M A"
_symmetry_group_IT_number 67
_symmetry_cell_setting 'orthorhombic'
loop_
_space_group_symop_operation_xyz
x,y,z
-x,1/2-y,z
x,-y,-z
-x,1/2+y,-z
-x,-y,-z
x,1/2+y,-z
-x,y,z
x,1/2-y,z
1/2+x,1/2+y,z
1/2-x,-y,z
1/2+x,1/2-y,-z
1/2-x,y,-z
1/2-x,1/2-y,-z
1/2+x,y,-z
1/2-x,1/2+y,z
1/2+x,-y,z
loop_
_atom_site_type_symbol
_atom_site_label
_atom_site_fract_x
_atom_site_fract_y
_atom_site_fract_z
Si Si1 0.666827 0.516448 0.099825
Si Si2 0.671834 0.586637 0.529322
Si Si3 0.674531 0.660475 0.209871
Si Si4 0.302476 0.929616 0.733403
Si Si5 0.578293 0.659898 0.381705
O O1 0.750000 0.500000 0.091679
O O2 0.651435 0.605895 0.123678
O O3 0.643267 0.458896 0.184699
O O4 0.629685 0.500000 0.000000
O O5 0.659694 0.500000 0.500000
O O6 0.750000 0.615620 0.500000
O O7 0.657182 0.594807 0.639802
O O8 0.613518 0.638004 0.479215
O O9 0.664275 0.750000 0.183419
O O10 0.756585 0.643882 0.233286
O O11 0.626810 0.632872 0.296299
O O12 0.250000 0.000000 0.707406
O O13 0.500000 0.622487 0.373477
O O14 0.570978 0.750000 0.378278
#
# Coordination Sequence:
#
# PCOD8280608 Si02
#       5
#    16  16  16  16  16
#     4   8  15  28  44  63  90 119 141 183 243 278
#     4  11  17  28  47  69  92 125 157 192 225 272
#     4   9  16  27  45  65  85 115 154 187 221 271
#     4   9  15  26  42  64  92 118 150 183 226 274
#     4  10  21  33  44  65  97 127 156 192 231 271
#
# _framework density 16.919298000000001
#
# number of rings (size 3 to 8) (size 9 to 14) (size 15 to 20)
#    0.000    3.000    4.000    1.200    0.000    1.600 
#    0.000    8.000    0.000    0.600    0.000    0.000 
#    0.000    3.200    0.000    0.000    0.000    0.000 
#
# Total GULP energy -495565.688822 kJ/mol
# GULP energy per Si atom -12389.142221 kJ/mol
# Density = 1.688079 g / cm^3
# Si number density = 16.919298 Si / 1000 Ang^3
#
#
#
# Elastic Constant Matrix: (Units=GPa)
#
#
# Indices 1 2 3 4 5 6 
#
# 1 39.7104 22.3157 22.5788 0.0000 0.0000 0.0000
# 2 22.3157 57.2248 50.4246 0.0000 0.0000 0.0000
# 3 22.5788 50.4246 161.9201 0.0000 0.0000 0.0000
# 4 0.0000 0.0000 0.0000 24.9133 0.0000 0.0000
# 5 0.0000 0.0000 0.0000 0.0000 22.5510 0.0000
# 6 0.0000 0.0000 0.0000 0.0000 0.0000 11.9439
#
#
#
# Elastic Compliance Matrix: (Units=1/GPa)
#
#
# Indices 1 2 3 4 5 6 
#
# 1 0.032325 -0.011899 -0.000802 0.000000 0.000000 0.000000
# 2 -0.011899 0.028464 -0.007205 0.000000 0.000000 0.000000
# 3 -0.000802 -0.007205 0.008531 0.000000 0.000000 0.000000
# 4 0.000000 0.000000 0.000000 0.040139 0.000000 0.000000
# 5 0.000000 0.000000 0.000000 0.000000 0.044344 0.000000
# 6 0.000000 0.000000 0.000000 0.000000 0.000000 0.083725
#
#
# Mechanical properties :
#
#
# Convention : Reuss Voigt Hill
#
# Bulk Modulus (GPa) = 33.88837 49.94372 41.91605
# Shear Modulus (GPa) = 17.41090 22.78405 20.09748
#
# Velocity S-wave (km/s) = 3.21137 3.67363 3.45025
# Velocity P-wave (km/s) = 5.81579 6.89760 6.37967
#
# Compressibility (1/GPa) = 0.02950865
#
# Stress axis : x y z
#
# Youngs Moduli (GPa) = 30.93570 35.13225 117.21362
#
# Poissons Ratio (x) = 0.41804 0.09400
# Poissons Ratio (y) = 0.36810 0.84451
# Poissons Ratio (z) = 0.02481 0.25312
#
# Static dielectric constant tensor:
#      x y z
#    x 3.012040 0.000000 0.000000 
#    y 0.000000 3.052740 0.000000 
#    z 0.000000 0.000000 4.060930 
# 
# 
# High freq. dielectric constant tensor:
#      x y z
#    x 1.592520 0.000000 0.000000 
#    y 0.000000 1.641800 0.000000 
#    z 0.000000 0.000000 1.660450 
# 
# From -- ./inp_files/28363.got.cif
#   From: 2010.03.12/outbox.cif.g09.slc.cpg/sg67_15_cif.got.tgz:28363.got - 2010.04.10 22:41:39.
