data_PCOD8280816
_publ_section_title
;
Structure prediction by ZEFSAII (Michael W. Deem and Ramdas Pophale) SiO2 
 PCOD8280816
Probable space group: C M M A
;
_chemical_formula_sum "Si O2"
_cell_formula_units_Z 96
_cell_length_a 19.943609
_cell_length_b 8.754708
_cell_length_c 30.012764
_cell_angle_alpha 90.000000
_cell_angle_beta 90.000000
_cell_angle_gamma 90.000000
_cell_volume 5240.242798
_symmetry_space_group_name_H-M "C M M A"
_symmetry_group_IT_number 67
_symmetry_cell_setting 'orthorhombic'
loop_
_space_group_symop_operation_xyz
x,y,z
-x,1/2-y,z
x,-y,-z
-x,1/2+y,-z
-x,-y,-z
x,1/2+y,-z
-x,y,z
x,1/2-y,z
1/2+x,1/2+y,z
1/2-x,-y,z
1/2+x,1/2-y,-z
1/2-x,y,-z
1/2-x,1/2-y,-z
1/2+x,y,-z
1/2-x,1/2+y,z
1/2+x,-y,z
loop_
_atom_site_type_symbol
_atom_site_label
_atom_site_fract_x
_atom_site_fract_y
_atom_site_fract_z
Si Si1 0.076743 0.927071 0.292445
Si Si2 0.422125 0.927024 0.385353
Si Si3 0.075843 0.930623 0.046090
Si Si4 0.820078 0.430637 0.547753
Si Si5 0.180233 0.930837 0.118580
Si Si6 0.180572 0.069857 0.781065
O O1 0.090293 0.750000 0.303697
O O2 0.121243 0.985396 0.251232
O O3 0.000000 0.954138 0.278537
O O4 0.096492 0.026597 0.335177
O O5 0.500000 0.961443 0.394947
O O6 0.404798 0.750000 0.392458
O O7 0.379297 0.029270 0.418647
O O8 0.079645 0.750000 0.042365
O O9 0.121432 0.991709 0.086537
O O10 0.000000 0.986258 0.055351
O O11 0.103057 0.000000 0.000000
O O12 0.838731 0.500000 0.500000
O O13 0.812707 0.250000 0.543478
O O14 0.750000 0.500000 0.565398
O O15 0.185611 0.750000 0.116578
O O16 0.164388 0.987325 0.168838
O O17 0.250000 0.000000 0.101539
O O18 0.187637 0.250000 0.780095
O O19 0.250000 0.000000 0.763585
#
# Coordination Sequence:
#
# PCOD8280816 Si02
#       6
#    16  16  16  16  16  16
#     4   9  18  33  52  74 100 131 168 209 252 298
#     4  10  21  37  56  79 108 141 177 216 258 305
#     4   9  18  32  49  69  94 124 159 199 242 289
#     4  11  22  38  59  82 110 141 176 217 261 309
#     4   9  18  32  49  70  96 126 160 199 244 293
#     4   9  18  32  50  72  98 128 162 202 247 296
#
# _framework density 18.319762000000001
#
# number of rings (size 3 to 8) (size 9 to 14) (size 15 to 20)
#    0.000    2.500    0.000    2.500    0.000    4.333 
#    0.000    6.667    0.000    0.000    0.000    9.333 
#    0.000    0.000    0.000    0.000    0.000    0.000 
#
# Total GULP energy -595290.616829 kJ/mol
# GULP energy per Si atom -12401.887851 kJ/mol
# Density = 1.827806 g / cm^3
# Si number density = 18.319762 Si / 1000 Ang^3
#
#
#
# Elastic Constant Matrix: (Units=GPa)
#
#
# Indices 1 2 3 4 5 6 
#
# 1 116.5108 38.3662 88.2108 0.0000 0.0000 0.0000
# 2 38.3662 62.4903 38.9111 0.0000 0.0000 0.0000
# 3 88.2108 38.9111 116.7891 0.0000 0.0000 0.0000
# 4 0.0000 0.0000 0.0000 28.9067 0.0000 0.0000
# 5 0.0000 0.0000 0.0000 0.0000 39.3575 0.0000
# 6 0.0000 0.0000 0.0000 0.0000 0.0000 30.0068
#
#
#
# Elastic Compliance Matrix: (Units=1/GPa)
#
#
# Indices 1 2 3 4 5 6 
#
# 1 0.020722 -0.003756 -0.014400 0.000000 0.000000 0.000000
# 2 -0.003756 0.020872 -0.004117 0.000000 0.000000 0.000000
# 3 -0.014400 -0.004117 0.020810 0.000000 0.000000 0.000000
# 4 0.000000 0.000000 0.000000 0.034594 0.000000 0.000000
# 5 0.000000 0.000000 0.000000 0.000000 0.025408 0.000000
# 6 0.000000 0.000000 0.000000 0.000000 0.000000 0.033326
#
#
# Mechanical properties :
#
#
# Convention : Reuss Voigt Hill
#
# Bulk Modulus (GPa) = 55.99589 69.64071 62.81830
# Shear Modulus (GPa) = 24.24462 28.34101 26.29281
#
# Velocity S-wave (km/s) = 3.64182 3.93748 3.79253
# Velocity P-wave (km/s) = 6.95097 7.66604 7.31725
#
# Compressibility (1/GPa) = 0.01785845
#
# Stress axis : x y z
#
# Youngs Moduli (GPa) = 48.25811 47.91086 48.05272
#
# Poissons Ratio (x) = 0.17995 0.69196
# Poissons Ratio (y) = 0.18125 0.19785
# Poissons Ratio (z) = 0.69491 0.19726
#
# Static dielectric constant tensor:
#      x y z
#    x 3.485850 0.000000 0.000000 
#    y 0.000000 3.304330 0.000000 
#    z 0.000000 0.000000 3.518980 
# 
# 
# High freq. dielectric constant tensor:
#      x y z
#    x 1.711770 0.000000 0.000000 
#    y 0.000000 1.706510 0.000000 
#    z 0.000000 0.000000 1.712290 
# 
# From -- ./inp_files/43434.got.cif
#   From: 2010.03.12/outbox.cif.g09.slc.cpg/sg67_22_cif.got.tgz:43434.got - 2010.04.10 22:41:39.
