data_PCOD8280500
_publ_section_title
;
Structure prediction by ZEFSAII (Michael W. Deem and Ramdas Pophale) SiO2 
 PCOD8280500
Probable space group: C M M A
;
_chemical_formula_sum "Si O2"
_cell_formula_units_Z 96
_cell_length_a 26.745689
_cell_length_b 19.148333
_cell_length_c 9.895171
_cell_angle_alpha 90.000000
_cell_angle_beta 90.000000
_cell_angle_gamma 90.000000
_cell_volume 5067.666955
_symmetry_space_group_name_H-M "C M M A"
_symmetry_group_IT_number 67
_symmetry_cell_setting 'orthorhombic'
loop_
_space_group_symop_operation_xyz
x,y,z
-x,1/2-y,z
x,-y,-z
-x,1/2+y,-z
-x,-y,-z
x,1/2+y,-z
-x,y,z
x,1/2-y,z
1/2+x,1/2+y,z
1/2-x,-y,z
1/2+x,1/2-y,-z
1/2-x,y,-z
1/2-x,1/2-y,-z
1/2+x,y,-z
1/2-x,1/2+y,z
1/2+x,-y,z
loop_
_atom_site_type_symbol
_atom_site_label
_atom_site_fract_x
_atom_site_fract_y
_atom_site_fract_z
Si Si1 0.602518 0.670311 0.493348
Si Si2 0.442858 0.327428 0.788592
Si Si3 0.276782 0.567854 0.140656
Si Si4 0.108397 0.039118 0.128892
Si Si5 0.210877 0.168309 0.385425
Si Si6 0.442809 0.544682 0.634794
O O1 0.605621 0.750000 0.548549
O O2 0.562993 0.663640 0.372195
O O3 0.656187 0.645253 0.436451
O O4 0.583450 0.620075 0.613000
O O5 0.500000 0.340399 0.825191
O O6 0.425016 0.250000 0.831638
O O7 0.410578 0.381542 0.872972
O O8 0.250000 0.500000 0.203575
O O9 0.332675 0.543115 0.114627
O O10 0.274148 0.630653 0.246834
O O11 0.250000 0.590531 0.000000
O O12 0.090203 0.997803 0.259701
O O13 0.085475 0.000000 0.000000
O O14 0.212283 0.250000 0.353468
O O15 0.250000 0.146808 0.500000
O O16 0.441918 0.500000 0.500000
O O17 0.500000 0.554819 0.685328
#
# Coordination Sequence:
#
# PCOD8280500 Si02
#       6
#    16  16  16  16  16  16
#     4  10  20  37  62  90 122 159 201 252 305 363
#     4  10  20  37  63  90 117 157 206 250 300 366
#     4  11  23  41  61  87 120 162 210 252 300 368
#     4  12  24  41  62  88 127 163 204 256 311 363
#     4  10  22  39  62  92 124 156 201 256 312 367
#     4  11  22  37  60  91 122 157 203 250 306 372
#
# _framework density 18.943629999999999
#
# number of rings (size 3 to 8) (size 9 to 14) (size 15 to 20)
#    0.000    1.333    5.000    1.000    2.333    3.000 
#    0.000    0.833    0.000    0.000    0.000    0.000 
#    0.000    0.000    0.000    0.000    0.000    0.000 
#
# Total GULP energy -595245.506465 kJ/mol
# GULP energy per Si atom -12400.948051 kJ/mol
# Density = 1.890051 g / cm^3
# Si number density = 18.943630 Si / 1000 Ang^3
#
#
#
# Elastic Constant Matrix: (Units=GPa)
#
#
# Indices 1 2 3 4 5 6 
#
# 1 114.0282 65.5003 55.1985 0.0000 0.0000 0.0000
# 2 65.5003 125.1609 51.2403 0.0000 0.0000 0.0000
# 3 55.1985 51.2403 91.8922 0.0000 0.0000 0.0000
# 4 0.0000 0.0000 0.0000 23.5483 0.0000 0.0000
# 5 0.0000 0.0000 0.0000 0.0000 26.4078 0.0000
# 6 0.0000 0.0000 0.0000 0.0000 0.0000 57.6544
#
#
#
# Elastic Compliance Matrix: (Units=1/GPa)
#
#
# Indices 1 2 3 4 5 6 
#
# 1 0.014622 -0.005256 -0.005852 0.000000 0.000000 0.000000
# 2 -0.005256 0.012243 -0.003669 0.000000 0.000000 0.000000
# 3 -0.005852 -0.003669 0.016444 0.000000 0.000000 0.000000
# 4 0.000000 0.000000 0.000000 0.042466 0.000000 0.000000
# 5 0.000000 0.000000 0.000000 0.000000 0.037868 0.000000
# 6 0.000000 0.000000 0.000000 0.000000 0.000000 0.017345
#
#
# Mechanical properties :
#
#
# Convention : Reuss Voigt Hill
#
# Bulk Modulus (GPa) = 72.71275 74.99548 73.85411
# Shear Modulus (GPa) = 28.55076 32.13158 30.34117
#
# Velocity S-wave (km/s) = 3.88641 4.12292 4.00641
# Velocity P-wave (km/s) = 7.65545 7.89553 7.77642
#
# Compressibility (1/GPa) = 0.01375275
#
# Stress axis : x y z
#
# Youngs Moduli (GPa) = 68.38997 81.68169 60.81318
#
# Poissons Ratio (x) = 0.42934 0.35590
# Poissons Ratio (y) = 0.35947 0.22314
# Poissons Ratio (z) = 0.40024 0.29972
#
# Static dielectric constant tensor:
#      x y z
#    x 3.648470 0.000000 0.000000 
#    y 0.000000 3.682070 0.000000 
#    z 0.000000 0.000000 1.539610 
# 
# 
# High freq. dielectric constant tensor:
#      x y z
#    x 1.752500 0.000000 0.000000 
#    y 0.000000 1.747780 0.000000 
#    z 0.000000 0.000000 1.709160 
# 
# From -- ./inp_files/13714.got.cif
#   From: 2010.03.12/outbox.cif.g09.slc.cpg/sg67_7_cif.got.tgz:13714.got - 2010.04.10 22:41:39.
