data_PCOD8280212
_publ_section_title
;
Structure prediction by ZEFSAII (Michael W. Deem and Ramdas Pophale) SiO2 
 PCOD8280212
Probable space group: C M M A
;
_chemical_formula_sum "Si O2"
_cell_formula_units_Z 96
_cell_length_a 16.681527
_cell_length_b 23.371460
_cell_length_c 11.239545
_cell_angle_alpha 90.000000
_cell_angle_beta 90.000000
_cell_angle_gamma 90.000000
_cell_volume 4381.979853
_symmetry_space_group_name_H-M "C M M A"
_symmetry_group_IT_number 67
_symmetry_cell_setting 'orthorhombic'
loop_
_space_group_symop_operation_xyz
x,y,z
-x,1/2-y,z
x,-y,-z
-x,1/2+y,-z
-x,-y,-z
x,1/2+y,-z
-x,y,z
x,1/2-y,z
1/2+x,1/2+y,z
1/2-x,-y,z
1/2+x,1/2-y,-z
1/2-x,y,-z
1/2-x,1/2-y,-z
1/2+x,y,-z
1/2-x,1/2+y,z
1/2+x,-y,z
loop_
_atom_site_type_symbol
_atom_site_label
_atom_site_fract_x
_atom_site_fract_y
_atom_site_fract_z
Si Si1 0.405065 0.900791 0.580612
Si Si2 0.905412 0.401628 0.313256
Si Si3 0.674283 0.815930 0.158613
Si Si4 0.646260 0.814720 0.755142
Si Si5 0.590133 0.386015 0.043411
Si Si6 0.905310 0.482204 0.789073
O O1 0.500000 0.889960 0.584164
O O2 0.376430 0.915100 0.447055
O O3 0.357870 0.844285 0.625731
O O4 0.377988 0.952515 0.666177
O O5 0.870289 0.340499 0.274553
O O6 0.875216 0.451843 0.221218
O O7 0.000000 0.397979 0.309564
O O8 0.648250 0.750000 0.135334
O O9 0.768236 0.820007 0.180432
O O10 0.650001 0.856317 0.048742
O O11 0.620214 0.750000 0.737130
O O12 0.582450 0.846049 0.840197
O O13 0.500000 0.392261 0.988438
O O14 0.624460 0.447782 0.092217
O O15 0.000000 0.480767 0.796053
#
# Coordination Sequence:
#
# PCOD8280212 Si02
#       6
#    16  16  16  16  16  16
#     4   9  18  34  58  86 112 141 185 238 284 333
#     4  10  20  35  57  83 113 149 186 229 283 340
#     4  11  24  38  52  77 116 157 193 231 279 334
#     4  10  21  37  56  78 109 151 194 234 280 334
#     4  10  20  36  60  86 110 139 184 240 289 339
#     4   8  16  33  58  86 110 136 178 233 289 340
#
# _framework density 21.907906000000001
#
# number of rings (size 3 to 8) (size 9 to 14) (size 15 to 20)
#    0.000    2.333    0.000    3.500    0.000    8.667 
#    0.000    9.167    0.000    8.000    0.000    0.000 
#    0.000    0.000    0.000    0.000    0.000    0.000 
#
# Total GULP energy -594831.087715 kJ/mol
# GULP energy per Si atom -12392.314327 kJ/mol
# Density = 2.185804 g / cm^3
# Si number density = 21.907906 Si / 1000 Ang^3
#
#
#
# Elastic Constant Matrix: (Units=GPa)
#
#
# Indices 1 2 3 4 5 6 
#
# 1 28.7240 24.6233 20.5807 0.0000 0.0000 0.0000
# 2 24.6233 111.6225 29.7166 0.0000 0.0000 0.0000
# 3 20.5807 29.7166 59.6986 0.0000 0.0000 0.0000
# 4 0.0000 0.0000 0.0000 32.0532 0.0000 0.0000
# 5 0.0000 0.0000 0.0000 0.0000 37.4803 0.0000
# 6 0.0000 0.0000 0.0000 0.0000 0.0000 21.7359
#
#
#
# Elastic Compliance Matrix: (Units=1/GPa)
#
#
# Indices 1 2 3 4 5 6 
#
# 1 0.051298 -0.007618 -0.013893 0.000000 0.000000 0.000000
# 2 -0.007618 0.011459 -0.003078 0.000000 0.000000 0.000000
# 3 -0.013893 -0.003078 0.023072 0.000000 0.000000 0.000000
# 4 0.000000 0.000000 0.000000 0.031198 0.000000 0.000000
# 5 0.000000 0.000000 0.000000 0.000000 0.026681 0.000000
# 6 0.000000 0.000000 0.000000 0.000000 0.000000 0.046007
#
#
# Mechanical properties :
#
#
# Convention : Reuss Voigt Hill
#
# Bulk Modulus (GPa) = 27.28299 38.87626 33.07962
# Shear Modulus (GPa) = 19.91167 26.59548 23.25357
#
# Velocity S-wave (km/s) = 3.01803 3.48798 3.26148
# Velocity P-wave (km/s) = 4.96238 5.83140 5.41435
#
# Compressibility (1/GPa) = 0.03665288
#
# Stress axis : x y z
#
# Youngs Moduli (GPa) = 19.49379 87.27137 43.34193
#
# Poissons Ratio (x) = 0.66479 0.60215
# Poissons Ratio (y) = 0.14849 0.13339
# Poissons Ratio (z) = 0.27083 0.26859
#
# Static dielectric constant tensor:
#      x y z
#    x 3.532420 0.000000 0.000000 
#    y 0.000000 4.293570 0.000000 
#    z 0.000000 0.000000 4.146430 
# 
# 
# High freq. dielectric constant tensor:
#      x y z
#    x 1.825320 0.000000 0.000000 
#    y 0.000000 1.867480 0.000000 
#    z 0.000000 0.000000 1.867440 
# 
# From -- ./inp_files/19624.got.cif
#   From: 2010.03.12/outbox.cif.g09.slc.cpg/sg67_10_cif.got.tgz:19624.got - 2010.04.10 22:41:39.
