data_PCOD8280175
_publ_section_title
;
Structure prediction by ZEFSAII (Michael W. Deem and Ramdas Pophale) SiO2 
 PCOD8280175
Probable space group: C M M A
;
_chemical_formula_sum "Si O2"
_cell_formula_units_Z 72
_cell_length_a 9.038927
_cell_length_b 15.902627
_cell_length_c 24.812406
_cell_angle_alpha 90.000000
_cell_angle_beta 90.000000
_cell_angle_gamma 90.000000
_cell_volume 3566.601849
_symmetry_space_group_name_H-M "C M M A"
_symmetry_group_IT_number 67
_symmetry_cell_setting 'orthorhombic'
loop_
_space_group_symop_operation_xyz
x,y,z
-x,1/2-y,z
x,-y,-z
-x,1/2+y,-z
-x,-y,-z
x,1/2+y,-z
-x,y,z
x,1/2-y,z
1/2+x,1/2+y,z
1/2-x,-y,z
1/2+x,1/2-y,-z
1/2-x,y,-z
1/2-x,1/2-y,-z
1/2+x,y,-z
1/2-x,1/2+y,z
1/2+x,-y,z
loop_
_atom_site_type_symbol
_atom_site_label
_atom_site_fract_x
_atom_site_fract_y
_atom_site_fract_z
Si Si1 0.673906 0.590604 0.949612
Si Si2 0.328685 0.587654 0.832623
Si Si3 0.670766 0.345099 0.279775
Si Si4 0.174748 0.750000 0.557382
Si Si5 0.325350 0.084219 0.622093
O O1 0.500000 0.583255 0.960850
O O2 0.750000 0.500000 0.947508
O O3 0.706400 0.632181 0.890730
O O4 0.750000 0.640933 0.000000
O O5 0.500000 0.566124 0.830754
O O6 0.250000 0.500000 0.825076
O O7 0.283138 0.647404 0.783058
O O8 0.500000 0.370664 0.288396
O O9 0.699771 0.250000 0.297758
O O10 0.771927 0.404977 0.316288
O O11 0.250000 0.750000 0.500000
O O12 0.226466 0.834173 0.588446
O O13 0.000000 0.750000 0.550118
O O14 0.500000 0.072604 0.620691
O O15 0.250000 0.000000 0.597667
#
# Coordination Sequence:
#
# PCOD8280175 Si02
#       5
#    16  16  16   8  16
#     4   9  15  24  39  60  89 123 163 214 271 330
#     4   9  18  30  45  70 100 131 172 223 277 337
#     4  10  20  35  56  81 110 148 191 235 288 349
#     4  10  24  44  66  92 128 164 201 244 289 338
#     4  11  23  41  63  92 125 160 200 245 294 345
#
# _framework density 20.187282
#
# number of rings (size 3 to 8) (size 9 to 14) (size 15 to 20)
#    0.000    2.222    1.111    2.667    0.000    5.778 
#    0.000    2.222    0.000    0.667    0.000    0.000 
#    0.000    0.000    0.000    0.000    0.000    6.000 
#
# Total GULP energy -446119.641440 kJ/mol
# GULP energy per Si atom -12392.212262 kJ/mol
# Density = 2.014134 g / cm^3
# Si number density = 20.187282 Si / 1000 Ang^3
#
#
#
# Elastic Constant Matrix: (Units=GPa)
#
#
# Indices 1 2 3 4 5 6 
#
# 1 72.5307 39.4289 50.6338 0.0000 0.0000 0.0000
# 2 39.4289 100.6141 51.8045 0.0000 0.0000 0.0000
# 3 50.6338 51.8045 147.4636 0.0000 0.0000 0.0000
# 4 0.0000 0.0000 0.0000 11.3300 0.0000 0.0000
# 5 0.0000 0.0000 0.0000 0.0000 81.9748 0.0000
# 6 0.0000 0.0000 0.0000 0.0000 0.0000 23.2768
#
#
#
# Elastic Compliance Matrix: (Units=1/GPa)
#
#
# Indices 1 2 3 4 5 6 
#
# 1 0.020217 -0.005309 -0.005077 0.000000 0.000000 0.000000
# 2 -0.005309 0.013528 -0.002929 0.000000 0.000000 0.000000
# 3 -0.005077 -0.002929 0.009554 0.000000 0.000000 0.000000
# 4 0.000000 0.000000 0.000000 0.088261 0.000000 0.000000
# 5 0.000000 0.000000 0.000000 0.000000 0.012199 0.000000
# 6 0.000000 0.000000 0.000000 0.000000 0.000000 0.042961
#
#
# Mechanical properties :
#
#
# Convention : Reuss Voigt Hill
#
# Bulk Modulus (GPa) = 59.99378 67.14920 63.57149
# Shear Modulus (GPa) = 22.84077 35.23239 29.03658
#
# Velocity S-wave (km/s) = 3.36734 4.18218 3.79669
# Velocity P-wave (km/s) = 6.70088 7.52703 7.12594
#
# Compressibility (1/GPa) = 0.01666839
#
# Stress axis : x y z
#
# Youngs Moduli (GPa) = 49.46217 73.92213 104.67126
#
# Poissons Ratio (x) = 0.39244 0.53141
# Poissons Ratio (y) = 0.26259 0.30663
# Poissons Ratio (z) = 0.25112 0.21655
#
# Static dielectric constant tensor:
#      x y z
#    x 3.622450 0.000000 0.000000 
#    y 0.000000 3.623020 0.000000 
#    z 0.000000 0.000000 4.299050 
# 
# 
# High freq. dielectric constant tensor:
#      x y z
#    x 1.784710 0.000000 0.000000 
#    y 0.000000 1.758320 0.000000 
#    z 0.000000 0.000000 1.805320 
# 
# From -- ./inp_files/42134.got.cif
#   From: 2010.03.12/outbox.cif.g09.slc.cpg/sg67_22_cif.got.tgz:42134.got - 2010.04.10 22:41:39.
