data_PCOD8280164
_publ_section_title
;
Structure prediction by ZEFSAII (Michael W. Deem and Ramdas Pophale) SiO2 
 PCOD8280164
Probable space group: C M M A
;
_chemical_formula_sum "Si O2"
_cell_formula_units_Z 96
_cell_length_a 28.077051
_cell_length_b 18.313100
_cell_length_c 10.290125
_cell_angle_alpha 90.000000
_cell_angle_beta 90.000000
_cell_angle_gamma 90.000000
_cell_volume 5290.954273
_symmetry_space_group_name_H-M "C M M A"
_symmetry_group_IT_number 67
_symmetry_cell_setting 'orthorhombic'
loop_
_space_group_symop_operation_xyz
x,y,z
-x,1/2-y,z
x,-y,-z
-x,1/2+y,-z
-x,-y,-z
x,1/2+y,-z
-x,y,z
x,1/2-y,z
1/2+x,1/2+y,z
1/2-x,-y,z
1/2+x,1/2-y,-z
1/2-x,y,-z
1/2-x,1/2-y,-z
1/2+x,y,-z
1/2-x,1/2+y,z
1/2+x,-y,z
loop_
_atom_site_type_symbol
_atom_site_label
_atom_site_fract_x
_atom_site_fract_y
_atom_site_fract_z
Si Si1 0.196456 0.911862 0.252537
Si Si2 0.859568 0.085813 0.003058
Si Si3 0.445996 0.334516 0.098102
Si Si4 0.692379 0.080694 0.737315
Si Si5 0.849378 0.836282 0.493519
Si Si6 0.948209 0.336563 0.609675
O O1 0.173122 0.887822 0.116539
O O2 0.252636 0.902464 0.239048
O O3 0.177990 0.857894 0.363057
O O4 0.183304 0.995123 0.287855
O O5 0.911404 0.122218 0.998037
O O6 0.835158 0.110159 0.136817
O O7 0.866216 0.000000 0.000000
O O8 0.500000 0.346659 0.050153
O O9 0.431970 0.250000 0.092634
O O10 0.439579 0.365966 0.244220
O O11 0.673945 0.123661 0.613561
O O12 0.844962 0.750000 0.513125
O O13 0.904927 0.861501 0.482849
O O14 0.949795 0.250000 0.619192
O O15 0.000000 0.364921 0.557539
#
# Coordination Sequence:
#
# PCOD8280164 Si02
#       6
#    16  16  16  16  16  16
#     4  10  20  38  57  73 102 148 185 210 255 326
#     4  10  20  35  56  81 105 138 180 226 263 307
#     4   9  17  32  55  79 104 140 182 216 257 320
#     4  10  22  36  53  78 109 140 175 220 271 317
#     4  11  21  34  55  82 107 135 177 224 266 312
#     4   8  15  30  53  77 100 134 177 213 250 309
#
# _framework density 18.144175000000001
#
# number of rings (size 3 to 8) (size 9 to 14) (size 15 to 20)
#    0.000    2.333    1.667    2.500    0.000    5.667 
#    0.000    0.833    0.000    8.000    0.000    0.000 
#    0.000    0.000    0.000    0.000    0.000    0.000 
#
# Total GULP energy -595153.590625 kJ/mol
# GULP energy per Si atom -12399.033138 kJ/mol
# Density = 1.810288 g / cm^3
# Si number density = 18.144175 Si / 1000 Ang^3
#
#
#
# Elastic Constant Matrix: (Units=GPa)
#
#
# Indices 1 2 3 4 5 6 
#
# 1 107.1632 26.6667 42.8192 0.0000 0.0000 0.0000
# 2 26.6667 27.7858 27.9542 0.0000 0.0000 0.0000
# 3 42.8192 27.9542 97.0259 0.0000 0.0000 0.0000
# 4 0.0000 0.0000 0.0000 -1.3394 0.0000 0.0000
# 5 0.0000 0.0000 0.0000 0.0000 -57.2280 0.0000
# 6 0.0000 0.0000 0.0000 0.0000 0.0000 28.2282
#
#
#
# Elastic Compliance Matrix: (Units=1/GPa)
#
#
# Indices 1 2 3 4 5 6 
#
# 1 0.012844 -0.009328 -0.002981 0.000000 0.000000 0.000000
# 2 -0.009328 0.057453 -0.012437 0.000000 0.000000 0.000000
# 3 -0.002981 -0.012437 0.015205 0.000000 0.000000 0.000000
# 4 0.000000 0.000000 0.000000 -0.746618 0.000000 0.000000
# 5 0.000000 0.000000 0.000000 0.000000 -0.017474 0.000000
# 6 0.000000 0.000000 0.000000 0.000000 0.000000 0.035426
#
#
# Mechanical properties :
#
#
# Convention : Reuss Voigt Hill
#
# Bulk Modulus (GPa) = 27.76814 47.42833 37.59823
# Shear Modulus (GPa) = -8.59594 2.90116 -2.84739
#
# Velocity S-wave (km/s) = -2.17896 1.26587 -1.25408
# Velocity P-wave (km/s) = 3.00115 5.32288 4.32087
#
# Compressibility (1/GPa) = 0.03601250
#
# Stress axis : x y z
#
# Youngs Moduli (GPa) = 77.85928 17.40539 65.76750
#
# Poissons Ratio (x) = 0.16235 0.19604
# Poissons Ratio (y) = 0.72624 0.81792
# Poissons Ratio (z) = 0.23208 0.21646
#
# Static dielectric constant tensor:
#      x y z
#    x 3.750170 0.000000 0.000000 
#    y 0.000000 3.139950 0.000000 
#    z 0.000000 0.000000 3.366850 
# 
# 
# High freq. dielectric constant tensor:
#      x y z
#    x 1.721230 0.000000 0.000000 
#    y 0.000000 1.680140 0.000000 
#    z 0.000000 0.000000 1.692770 
# 
# From -- ./inp_files/13702.got.cif
#   From: 2010.03.12/outbox.cif.g09.slc.cpg/sg67_7_cif.got.tgz:13702.got - 2010.04.10 22:41:39.
