data_PCOD8280911
_publ_section_title
;
Structure prediction by ZEFSAII (Michael W. Deem and Ramdas Pophale) SiO2 
 PCOD8280911
Probable space group: C M M A
;
_chemical_formula_sum "Si O2"
_cell_formula_units_Z 112
_cell_length_a 13.511524
_cell_length_b 13.568908
_cell_length_c 27.556686
_cell_angle_alpha 90.000000
_cell_angle_beta 90.000000
_cell_angle_gamma 90.000000
_cell_volume 5052.149838
_symmetry_space_group_name_H-M "C M M A"
_symmetry_group_IT_number 67
_symmetry_cell_setting 'orthorhombic'
loop_
_space_group_symop_operation_xyz
x,y,z
-x,1/2-y,z
x,-y,-z
-x,1/2+y,-z
-x,-y,-z
x,1/2+y,-z
-x,y,z
x,1/2-y,z
1/2+x,1/2+y,z
1/2-x,-y,z
1/2+x,1/2-y,-z
1/2-x,y,-z
1/2-x,1/2-y,-z
1/2+x,y,-z
1/2-x,1/2+y,z
1/2+x,-y,z
loop_
_atom_site_type_symbol
_atom_site_label
_atom_site_fract_x
_atom_site_fract_y
_atom_site_fract_z
Si Si1 0.298936 0.363673 0.725916
Si Si2 0.696254 0.132153 0.926604
Si Si3 0.891895 0.632440 0.026333
Si Si4 0.618119 0.356855 0.523477
Si Si5 0.610245 0.866260 0.172964
Si Si6 0.385303 0.049543 0.317734
Si Si7 0.382373 0.548310 0.573496
O O1 0.325838 0.250000 0.715102
O O2 0.321831 0.393563 0.781257
O O3 0.365000 0.433198 0.691053
O O4 0.182164 0.384172 0.717732
O O5 0.694016 0.250000 0.925035
O O6 0.808885 0.093809 0.935839
O O7 0.657468 0.087846 0.875875
O O8 0.629152 0.093533 0.971510
O O9 0.886719 0.750000 0.024760
O O10 0.000000 0.595475 0.043017
O O11 0.500000 0.361058 0.523433
O O12 0.656912 0.250000 0.540049
O O13 0.655499 0.376008 0.467925
O O14 0.660661 0.439389 0.560193
O O15 0.500000 0.910057 0.180758
O O16 0.603149 0.750000 0.167114
O O17 0.500000 0.074509 0.308329
O O18 0.350471 0.077457 0.372317
O O19 0.500000 0.542436 0.572002
#
# Coordination Sequence:
#
# PCOD8280911 Si02
#       7
#    16  16  16  16  16  16  16
#     4  10  22  38  56  81 110 141 186 240 287 336
#     4   8  13  20  33  56  86 125 174 220 266 328
#     4   8  12  18  29  50  86 129 168 210 265 329
#     4   8  13  23  42  72 108 140 175 221 265 314
#     4   9  16  28  47  69  95 130 175 229 283 331
#     4  10  21  38  59  82 112 149 186 231 288 344
#     4   8  15  27  45  73 106 140 179 220 268 327
#
# _framework density 22.168780999999999
#
# number of rings (size 3 to 8) (size 9 to 14) (size 15 to 20)
#    0.000    3.286    0.000    2.571    0.000    4.000 
#    0.000    3.571    0.000    9.429    0.000    8.000 
#    0.000    9.143    0.000   34.286    0.000   76.286 
#
# Total GULP energy -694085.324354 kJ/mol
# GULP energy per Si atom -12394.380792 kJ/mol
# Density = 2.211832 g / cm^3
# Si number density = 22.168781 Si / 1000 Ang^3
#
#
#
# Elastic Constant Matrix: (Units=GPa)
#
#
# Indices 1 2 3 4 5 6 
#
# 1 123.1839 -2.0939 58.6752 0.0000 0.0000 0.0000
# 2 -2.0939 47.6647 14.0611 0.0000 0.0000 0.0000
# 3 58.6752 14.0611 142.6697 0.0000 0.0000 0.0000
# 4 0.0000 0.0000 0.0000 20.4654 0.0000 0.0000
# 5 0.0000 0.0000 0.0000 0.0000 24.4997 0.0000
# 6 0.0000 0.0000 0.0000 0.0000 0.0000 22.3818
#
#
#
# Elastic Compliance Matrix: (Units=1/GPa)
#
#
# Indices 1 2 3 4 5 6 
#
# 1 0.010234 0.001742 -0.004381 0.000000 0.000000 0.000000
# 2 0.001742 0.021905 -0.002875 0.000000 0.000000 0.000000
# 3 -0.004381 -0.002875 0.009094 0.000000 0.000000 0.000000
# 4 0.000000 0.000000 0.000000 0.048863 0.000000 0.000000
# 5 0.000000 0.000000 0.000000 0.000000 0.040817 0.000000
# 6 0.000000 0.000000 0.000000 0.000000 0.000000 0.044679
#
#
# Mechanical properties :
#
#
# Convention : Reuss Voigt Hill
#
# Bulk Modulus (GPa) = 33.10713 50.53367 41.82040
# Shear Modulus (GPa) = 25.42093 29.66109 27.54101
#
# Velocity S-wave (km/s) = 3.38997 3.66179 3.52850
# Velocity P-wave (km/s) = 5.50355 6.38144 5.95868
#
# Compressibility (1/GPa) = 0.03020497
#
# Stress axis : x y z
#
# Youngs Moduli (GPa) = 97.71218 45.65248 109.96056
#
# Poissons Ratio (x) = -0.07952 0.48170
# Poissons Ratio (y) = -0.17020 0.31616
# Poissons Ratio (z) = 0.42804 0.13126
#
# Static dielectric constant tensor:
#      x y z
#    x 4.085500 0.000000 0.000000 
#    y 0.000000 3.798560 0.000000 
#    z 0.000000 0.000000 4.136290 
# 
# 
# High freq. dielectric constant tensor:
#      x y z
#    x 1.880390 0.000000 0.000000 
#    y 0.000000 1.852800 0.000000 
#    z 0.000000 0.000000 1.857710 
# 
# From -- ./inp_files/44371.got.cif
#   From: 2010.03.12/outbox.cif.g09.slc.cpg/sg67_23_cif.got.tgz:44371.got - 2010.04.10 22:41:39.
