data_PCOD8280947
_publ_section_title
;
Structure prediction by ZEFSAII (Michael W. Deem and Ramdas Pophale) SiO2 
 PCOD8280947
Probable space group: C M M A
;
_chemical_formula_sum "Si O2"
_cell_formula_units_Z 80
_cell_length_a 18.501317
_cell_length_b 8.820699
_cell_length_c 26.040105
_cell_angle_alpha 90.000000
_cell_angle_beta 90.000000
_cell_angle_gamma 90.000000
_cell_volume 4249.603175
_symmetry_space_group_name_H-M "C M M A"
_symmetry_group_IT_number 67
_symmetry_cell_setting 'orthorhombic'
loop_
_space_group_symop_operation_xyz
x,y,z
-x,1/2-y,z
x,-y,-z
-x,1/2+y,-z
-x,-y,-z
x,1/2+y,-z
-x,y,z
x,1/2-y,z
1/2+x,1/2+y,z
1/2-x,-y,z
1/2+x,1/2-y,-z
1/2-x,y,-z
1/2-x,1/2-y,-z
1/2+x,y,-z
1/2-x,1/2+y,z
1/2+x,-y,z
loop_
_atom_site_type_symbol
_atom_site_label
_atom_site_fract_x
_atom_site_fract_y
_atom_site_fract_z
Si Si1 0.328580 0.930153 0.645875
Si Si2 0.416631 0.572871 0.445515
Si Si3 0.172044 0.427586 0.838585
Si Si4 0.919228 0.430259 0.743715
Si Si5 0.171550 0.573179 0.048836
O O1 0.323122 0.750000 0.643433
O O2 0.374502 0.986914 0.694659
O O3 0.250000 0.000000 0.651099
O O4 0.366622 0.989883 0.595096
O O5 0.398200 0.500000 0.500000
O O6 0.500000 0.544307 0.430796
O O7 0.398083 0.750000 0.447296
O O8 0.183415 0.250000 0.831030
O O9 0.250000 0.500000 0.831373
O O10 0.118052 0.493105 0.795604
O O11 0.136954 0.461162 0.895079
O O12 0.922329 0.250000 0.744874
O O13 0.000000 0.498024 0.740489
O O14 0.177843 0.750000 0.038732
O O15 0.250000 0.500000 0.050109
O O16 0.128163 0.500000 0.000000
#
# Coordination Sequence:
#
# PCOD8280947 Si02
#       5
#    16  16  16  16  16
#     4  11  22  36  56  81 109 140 175 216 262 309
#     4  10  21  38  60  85 113 144 178 215 255 303
#     4   9  17  29  47  71  97 126 162 204 249 296
#     4   9  18  33  53  75  99 130 169 210 252 304
#     4   9  15  23  38  62  91 122 156 196 242 291
#
# _framework density 18.825286999999999
#
# number of rings (size 3 to 8) (size 9 to 14) (size 15 to 20)
#    0.000    2.400    0.000    3.600    0.000    3.200 
#    0.000    3.000    0.000    3.600    0.000    0.000 
#    0.000    0.000    0.000    0.000    0.000    5.400 
#
# Total GULP energy -495808.351274 kJ/mol
# GULP energy per Si atom -12395.208782 kJ/mol
# Density = 1.878244 g / cm^3
# Si number density = 18.825287 Si / 1000 Ang^3
#
#
#
# Elastic Constant Matrix: (Units=GPa)
#
#
# Indices 1 2 3 4 5 6 
#
# 1 122.4198 40.6847 94.6887 0.0000 0.0000 0.0000
# 2 40.6847 74.2366 55.0084 0.0000 0.0000 0.0000
# 3 94.6887 55.0084 180.9932 0.0000 0.0000 0.0000
# 4 0.0000 0.0000 0.0000 -2.2810 0.0000 0.0000
# 5 0.0000 0.0000 0.0000 0.0000 14.1090 0.0000
# 6 0.0000 0.0000 0.0000 0.0000 0.0000 15.5275
#
#
#
# Elastic Compliance Matrix: (Units=1/GPa)
#
#
# Indices 1 2 3 4 5 6 
#
# 1 0.014201 -0.002940 -0.006536 0.000000 0.000000 0.000000
# 2 -0.002940 0.017994 -0.003931 0.000000 0.000000 0.000000
# 3 -0.006536 -0.003931 0.010139 0.000000 0.000000 0.000000
# 4 0.000000 0.000000 0.000000 -0.438399 0.000000 0.000000
# 5 0.000000 0.000000 0.000000 0.000000 0.070877 0.000000
# 6 0.000000 0.000000 0.000000 0.000000 0.000000 0.064402
#
#
# Mechanical properties :
#
#
# Convention : Reuss Voigt Hill
#
# Bulk Modulus (GPa) = 64.42799 84.26814 74.34806
# Shear Modulus (GPa) = -21.85320 17.95562 -1.94879
#
# Velocity S-wave (km/s) = -3.41081 3.09172 -1.01855
# Velocity P-wave (km/s) = 4.33439 7.58982 6.18031
#
# Compressibility (1/GPa) = 0.01552120
#
# Stress axis : x y z
#
# Youngs Moduli (GPa) = 70.41758 55.57305 98.62735
#
# Poissons Ratio (x) = 0.16337 0.64463
# Poissons Ratio (y) = 0.20700 0.38771
# Poissons Ratio (z) = 0.46025 0.21846
#
# Static dielectric constant tensor:
#      x y z
#    x 3.331050 0.000000 0.000000 
#    y 0.000000 3.369500 0.000000 
#    z 0.000000 0.000000 4.253650 
# 
# 
# High freq. dielectric constant tensor:
#      x y z
#    x 1.701600 0.000000 0.000000 
#    y 0.000000 1.721080 0.000000 
#    z 0.000000 0.000000 1.759570 
# 
# From -- ./inp_files/43275.got.cif
#   From: 2010.03.12/outbox.cif.g09.slc.cpg/sg67_22_cif.got.tgz:43275.got - 2010.04.10 22:41:39.
