data_PCOD8280327
_publ_section_title
;
Structure prediction by ZEFSAII (Michael W. Deem and Ramdas Pophale) SiO2 
 PCOD8280327
Probable space group: C M M A
;
_chemical_formula_sum "Si O2"
_cell_formula_units_Z 72
_cell_length_a 8.544229
_cell_length_b 15.332685
_cell_length_c 28.300300
_cell_angle_alpha 90.000000
_cell_angle_beta 90.000000
_cell_angle_gamma 90.000000
_cell_volume 3707.508304
_symmetry_space_group_name_H-M "C M M A"
_symmetry_group_IT_number 67
_symmetry_cell_setting 'orthorhombic'
loop_
_space_group_symop_operation_xyz
x,y,z
-x,1/2-y,z
x,-y,-z
-x,1/2+y,-z
-x,-y,-z
x,1/2+y,-z
-x,y,z
x,1/2-y,z
1/2+x,1/2+y,z
1/2-x,-y,z
1/2+x,1/2-y,-z
1/2-x,y,-z
1/2-x,1/2-y,-z
1/2+x,y,-z
1/2-x,1/2+y,z
1/2+x,-y,z
loop_
_atom_site_type_symbol
_atom_site_label
_atom_site_fract_x
_atom_site_fract_y
_atom_site_fract_z
Si Si1 0.185258 0.750000 0.552323
Si Si2 0.815065 0.092370 0.284415
Si Si3 0.183821 0.750000 0.114199
Si Si4 0.682553 0.250000 0.782781
Si Si5 0.814622 0.594326 0.386500
Si Si6 0.814143 0.407283 0.948662
O O1 0.250000 0.750000 0.500000
O O2 0.245345 0.836082 0.577877
O O3 0.000000 0.750000 0.551972
O O4 0.768279 0.164418 0.246161
O O5 0.736417 0.119137 0.333624
O O6 0.000000 0.086599 0.292397
O O7 0.750000 0.000000 0.266011
O O8 0.226132 0.750000 0.168662
O O9 0.250107 0.836061 0.088407
O O10 0.000000 0.750000 0.108629
O O11 0.500000 0.250000 0.793790
O O12 0.750000 0.500000 0.401132
O O13 0.000000 0.594333 0.389905
O O14 0.750000 0.500000 0.931235
O O15 0.000000 0.410915 0.951076
O O16 0.750000 0.382316 0.000000
#
# Coordination Sequence:
#
# PCOD8280327 Si02
#       6
#     8  16   8   8  16  16
#     4  12  25  42  61  87 121 157 195 240 289 345
#     4  10  20  37  59  85 113 147 189 236 282 332
#     4  10  23  38  54  78 111 145 181 222 273 329
#     4  10  23  38  55  79 112 150 187 226 279 334
#     4  11  22  39  63  91 118 153 195 239 289 342
#     4  10  20  36  57  82 107 139 179 224 271 323
#
# _framework density 19.420048999999999
#
# number of rings (size 3 to 8) (size 9 to 14) (size 15 to 20)
#    0.000    1.556    0.000    7.333    0.000    5.778 
#    0.000    6.667    0.000    0.000    0.000    0.000 
#    0.000    0.000    0.000    0.000    0.000    0.000 
#
# Total GULP energy -446537.638074 kJ/mol
# GULP energy per Si atom -12403.823280 kJ/mol
# Density = 1.937585 g / cm^3
# Si number density = 19.420049 Si / 1000 Ang^3
#
#
#
# Elastic Constant Matrix: (Units=GPa)
#
#
# Indices 1 2 3 4 5 6 
#
# 1 129.2763 59.7191 50.2844 0.0000 0.0000 0.0000
# 2 59.7191 166.9916 106.9186 0.0000 0.0000 0.0000
# 3 50.2844 106.9186 132.3472 0.0000 0.0000 0.0000
# 4 0.0000 0.0000 0.000042836.8011 0.0000 0.0000
# 5 0.0000 0.0000 0.0000 0.0000 35.4228 0.0000
# 6 0.0000 0.0000 0.0000 0.0000 0.0000 35.1105
#
#
#
# Elastic Compliance Matrix: (Units=1/GPa)
#
#
# Indices 1 2 3 4 5 6 
#
# 1 0.009465 -0.002242 -0.001785 0.000000 0.000000 0.000000
# 2 -0.002242 0.012936 -0.009598 0.000000 0.000000 0.000000
# 3 -0.001785 -0.009598 0.015988 0.000000 0.000000 0.000000
# 4 0.000000 0.000000 0.000000 0.000023 0.000000 0.000000
# 5 0.000000 0.000000 0.000000 0.000000 0.028230 0.000000
# 6 0.000000 0.000000 0.000000 0.000000 0.000000 0.028481
#
#
# Mechanical properties :
#
#
# Convention : Reuss Voigt Hill
#
# Bulk Modulus (GPa) = 89.77986 95.82880 92.80433
# Shear Modulus (GPa) = 39.65479 8595.57975 4317.61727
#
# Velocity S-wave (km/s) = 4.52370 66.60139 47.20280
# Velocity P-wave (km/s) = 8.57998 77.22551 54.94268
#
# Compressibility (1/GPa) = 0.01113836
#
# Stress axis : x y z
#
# Youngs Moduli (GPa) = 105.64763 77.30595 62.54603
#
# Poissons Ratio (x) = 0.17333 0.11164
# Poissons Ratio (y) = 0.23688 0.60034
# Poissons Ratio (z) = 0.18858 0.74201
#
# Static dielectric constant tensor:
#      x y z
#    x 3.643350 0.000000 0.000000 
#    y 0.000000 3.906830 0.000000 
#    z 0.000000 0.000000 3.505040 
# 
# 
# High freq. dielectric constant tensor:
#      x y z
#    x 1.769180 0.000000 0.000000 
#    y 0.000000 1.775210 0.000000 
#    z 0.000000 0.000000 1.752430 
# 
# From -- ./inp_files/43127.got.cif
#   From: 2010.03.12/outbox.cif.g09.slc.cpg/sg67_22_cif.got.tgz:43127.got - 2010.04.10 22:41:39.
