data_PCOD8280786
_publ_section_title
;
Structure prediction by ZEFSAII (Michael W. Deem and Ramdas Pophale) SiO2 
 PCOD8280786
Probable space group: C M M A
;
_chemical_formula_sum "Si O2"
_cell_formula_units_Z 104
_cell_length_a 14.041328
_cell_length_b 20.238096
_cell_length_c 19.104556
_cell_angle_alpha 90.000000
_cell_angle_beta 90.000000
_cell_angle_gamma 90.000000
_cell_volume 5428.936788
_symmetry_space_group_name_H-M "C M M A"
_symmetry_group_IT_number 67
_symmetry_cell_setting 'orthorhombic'
loop_
_space_group_symop_operation_xyz
x,y,z
-x,1/2-y,z
x,-y,-z
-x,1/2+y,-z
-x,-y,-z
x,1/2+y,-z
-x,y,z
x,1/2-y,z
1/2+x,1/2+y,z
1/2-x,-y,z
1/2+x,1/2-y,-z
1/2-x,y,-z
1/2-x,1/2-y,-z
1/2+x,y,-z
1/2-x,1/2+y,z
1/2+x,-y,z
loop_
_atom_site_type_symbol
_atom_site_label
_atom_site_fract_x
_atom_site_fract_y
_atom_site_fract_z
Si Si1 0.614074 0.750000 0.214080
Si Si2 0.890259 0.823703 0.373758
Si Si3 0.750000 0.500000 0.319598
Si Si4 0.259541 0.427292 0.115534
Si Si5 0.888582 0.109942 0.009181
Si Si6 0.889066 0.041368 0.565703
Si Si7 0.889649 0.750000 0.944646
Si Si8 0.252117 0.637115 0.253659
O O1 0.500000 0.750000 0.222252
O O2 0.653528 0.750000 0.133988
O O3 0.656553 0.814593 0.253162
O O4 0.870264 0.750000 0.404387
O O5 0.867302 0.878878 0.434179
O O6 0.829415 0.833577 0.303401
O O7 0.000000 0.830964 0.350833
O O8 0.843460 0.513231 0.364730
O O9 0.717487 0.563832 0.276435
O O10 0.250000 0.500000 0.149060
O O11 0.155955 0.415424 0.081510
O O12 0.285801 0.372902 0.174241
O O13 0.341973 0.425504 0.057143
O O14 0.862233 0.187661 0.007485
O O15 0.000000 0.094598 0.009532
O O16 0.000000 0.026948 0.569968
O O17 0.846166 0.000000 0.500000
O O18 0.000000 0.750000 0.928009
#
# Coordination Sequence:
#
# PCOD8280786 Si02
#       8
#     8  16   8  16  16  16   8  16
#     4  11  22  37  58  82 113 156 196 237 291 354
#     4   9  18  34  57  86 119 152 187 230 282 333
#     4  10  21  36  60  83 120 154 190 232 282 331
#     4  11  23  36  53  77 103 139 188 234 288 348
#     4  10  21  37  54  74 103 136 179 238 297 350
#     4   9  18  34  59  88 116 151 193 230 272 326
#     4   9  18  34  54  75  95 130 181 225 283 346
#     4  11  21  37  57  82 114 153 190 235 284 346
#
# _framework density 19.156604000000002
#
# number of rings (size 3 to 8) (size 9 to 14) (size 15 to 20)
#    0.000    2.000    3.077    1.154    0.000    4.308 
#    0.000    0.000    1.692    1.846    0.000    0.000 
#    0.000    0.000    0.000    0.000    0.000    0.000 
#
# Total GULP energy -644341.201861 kJ/mol
# GULP energy per Si atom -12391.176959 kJ/mol
# Density = 1.911300 g / cm^3
# Si number density = 19.156604 Si / 1000 Ang^3
#
#
#
# Elastic Constant Matrix: (Units=GPa)
#
#
# Indices 1 2 3 4 5 6 
#
# 1 82.2887 39.0792 28.6737 0.0000 0.0000 0.0000
# 2 39.0792 151.4368 47.7028 0.0000 0.0000 0.0000
# 3 28.6737 47.7028 80.1569 0.0000 0.0000 0.0000
# 4 0.0000 0.0000 0.0000 36.3159 0.0000 0.0000
# 5 0.0000 0.0000 0.0000 0.0000 14.6544 0.0000
# 6 0.0000 0.0000 0.0000 0.0000 0.0000 24.7861
#
#
#
# Elastic Compliance Matrix: (Units=1/GPa)
#
#
# Indices 1 2 3 4 5 6 
#
# 1 0.014686 -0.002628 -0.003690 0.000000 0.000000 0.000000
# 2 -0.002628 0.008597 -0.004176 0.000000 0.000000 0.000000
# 3 -0.003690 -0.004176 0.016281 0.000000 0.000000 0.000000
# 4 0.000000 0.000000 0.000000 0.027536 0.000000 0.000000
# 5 0.000000 0.000000 0.000000 0.000000 0.068239 0.000000
# 6 0.000000 0.000000 0.000000 0.000000 0.000000 0.040345
#
#
# Mechanical properties :
#
#
# Convention : Reuss Voigt Hill
#
# Bulk Modulus (GPa) = 53.83134 60.53266 57.18200
# Shear Modulus (GPa) = 24.64718 28.37974 26.51346
#
# Velocity S-wave (km/s) = 3.59083 3.85315 3.72430
# Velocity P-wave (km/s) = 6.73452 7.17378 6.95762
#
# Compressibility (1/GPa) = 0.01857654
#
# Stress axis : x y z
#
# Youngs Moduli (GPa) = 68.09274 116.31963 61.42195
#
# Poissons Ratio (x) = 0.30563 0.22663
# Poissons Ratio (y) = 0.17891 0.25652
# Poissons Ratio (z) = 0.25125 0.48579
#
# Static dielectric constant tensor:
#      x y z
#    x 3.332770 0.000000 0.000000 
#    y 0.000000 4.116240 0.000000 
#    z 0.000000 0.000000 3.400520 
# 
# 
# High freq. dielectric constant tensor:
#      x y z
#    x 1.735440 0.000000 0.000000 
#    y 0.000000 1.767420 0.000000 
#    z 0.000000 0.000000 1.724640 
# 
# From -- ./inp_files/33745.got.cif
#   From: 2010.03.12/outbox.cif.g09.slc.cpg/sg67_17_cif.got.tgz:33745.got - 2010.04.10 22:41:39.
