data_PCOD8280485
_publ_section_title
;
Structure prediction by ZEFSAII (Michael W. Deem and Ramdas Pophale) SiO2 
 PCOD8280485
Probable space group: C M M A
;
_chemical_formula_sum "Si O2"
_cell_formula_units_Z 72
_cell_length_a 16.004232
_cell_length_b 8.918848
_cell_length_c 24.770847
_cell_angle_alpha 90.000000
_cell_angle_beta 90.000000
_cell_angle_gamma 90.000000
_cell_volume 3535.773672
_symmetry_space_group_name_H-M "C M M A"
_symmetry_group_IT_number 67
_symmetry_cell_setting 'orthorhombic'
loop_
_space_group_symop_operation_xyz
x,y,z
-x,1/2-y,z
x,-y,-z
-x,1/2+y,-z
-x,-y,-z
x,1/2+y,-z
-x,y,z
x,1/2-y,z
1/2+x,1/2+y,z
1/2-x,-y,z
1/2+x,1/2-y,-z
1/2-x,y,-z
1/2-x,1/2-y,-z
1/2+x,y,-z
1/2-x,1/2+y,z
1/2+x,-y,z
loop_
_atom_site_type_symbol
_atom_site_label
_atom_site_fract_x
_atom_site_fract_y
_atom_site_fract_z
Si Si1 0.595943 0.585010 0.449212
Si Si2 0.837475 0.571903 0.349514
Si Si3 0.836259 0.572673 0.123641
Si Si4 0.500000 0.427723 0.058152
Si Si5 0.593392 0.071893 0.235967
O O1 0.639435 0.500000 0.500000
O O2 0.500000 0.609011 0.463460
O O3 0.637849 0.750000 0.441445
O O4 0.599960 0.485590 0.395200
O O5 0.833443 0.750000 0.350059
O O6 0.750000 0.500000 0.364494
O O7 0.866365 0.510761 0.291105
O O8 0.826686 0.750000 0.119715
O O9 0.750000 0.500000 0.102081
O O10 0.851472 0.518223 0.185189
O O11 0.916073 0.518252 0.088871
O O12 0.500000 0.250000 0.053339
O O13 0.500000 0.500000 0.000000
O O14 0.500000 0.006093 0.230280
O O15 0.588596 0.250000 0.236769
#
# Coordination Sequence:
#
# PCOD8280485 Si02
#       5
#    16  16  16   8  16
#     4  10  21  38  59  81 107 140 182 232 284 343
#     4  11  22  35  54  81 113 147 186 231 283 344
#     4  10  20  37  61  88 119 157 200 246 297 351
#     4  10  22  40  62  86 120 162 203 246 293 350
#     4   9  17  33  58  84 112 149 192 235 286 348
#
# _framework density 20.363295000000001
#
# number of rings (size 3 to 8) (size 9 to 14) (size 15 to 20)
#    0.000    2.000    1.111    2.667    0.000    4.000 
#    0.000    5.556    0.000    2.667    0.000    0.000 
#    0.000    0.000    0.000    0.000    0.000    0.000 
#
# Total GULP energy -446353.364709 kJ/mol
# GULP energy per Si atom -12398.704575 kJ/mol
# Density = 2.031695 g / cm^3
# Si number density = 20.363295 Si / 1000 Ang^3
#
#
#
# Elastic Constant Matrix: (Units=GPa)
#
#
# Indices 1 2 3 4 5 6 
#
# 1 114.4590 33.0831 47.1048 0.0000 0.0000 0.0000
# 2 33.0831 67.6793 43.3152 0.0000 0.0000 0.0000
# 3 47.1048 43.3152 161.9488 0.0000 0.0000 0.0000
# 4 0.0000 0.0000 0.0000 31.3233 0.0000 0.0000
# 5 0.0000 0.0000 0.0000 0.0000 14.7970 0.0000
# 6 0.0000 0.0000 0.0000 0.0000 0.0000 27.2417
#
#
#
# Elastic Compliance Matrix: (Units=1/GPa)
#
#
# Indices 1 2 3 4 5 6 
#
# 1 0.010721 -0.003915 -0.002071 0.000000 0.000000 0.000000
# 2 -0.003915 0.019257 -0.004012 0.000000 0.000000 0.000000
# 3 -0.002071 -0.004012 0.007850 0.000000 0.000000 0.000000
# 4 0.000000 0.000000 0.000000 0.031925 0.000000 0.000000
# 5 0.000000 0.000000 0.000000 0.000000 0.067581 0.000000
# 6 0.000000 0.000000 0.000000 0.000000 0.000000 0.036708
#
#
# Mechanical properties :
#
#
# Convention : Reuss Voigt Hill
#
# Bulk Modulus (GPa) = 56.07897 65.67705 60.87801
# Shear Modulus (GPa) = 25.00222 29.37800 27.19011
#
# Velocity S-wave (km/s) = 3.50781 3.80240 3.65807
# Velocity P-wave (km/s) = 6.63365 7.18334 6.91396
#
# Compressibility (1/GPa) = 0.01783200
#
# Stress axis : x y z
#
# Youngs Moduli (GPa) = 93.27747 51.92959 127.38526
#
# Poissons Ratio (x) = 0.20330 0.26383
# Poissons Ratio (y) = 0.36518 0.51104
# Poissons Ratio (z) = 0.19319 0.20833
#
# Static dielectric constant tensor:
#      x y z
#    x 3.667010 0.000000 0.000000 
#    y 0.000000 3.535830 0.000000 
#    z 0.000000 0.000000 3.854930 
# 
# 
# High freq. dielectric constant tensor:
#      x y z
#    x 1.796140 0.000000 0.000000 
#    y 0.000000 1.772210 0.000000 
#    z 0.000000 0.000000 1.802970 
# 
# From -- ./inp_files/40503.got.cif
#   From: 2010.03.12/outbox.cif.g09.slc.cpg/sg67_21_cif.got.tgz:40503.got - 2010.04.10 22:41:39.
