data_PCOD8280719
_publ_section_title
;
Structure prediction by ZEFSAII (Michael W. Deem and Ramdas Pophale) SiO2 
 PCOD8280719
Probable space group: C M M A
;
_chemical_formula_sum "Si O2"
_cell_formula_units_Z 80
_cell_length_a 17.834544
_cell_length_b 9.977875
_cell_length_c 23.612819
_cell_angle_alpha 90.000000
_cell_angle_beta 90.000000
_cell_angle_gamma 90.000000
_cell_volume 4201.921229
_symmetry_space_group_name_H-M "C M M A"
_symmetry_group_IT_number 67
_symmetry_cell_setting 'orthorhombic'
loop_
_space_group_symop_operation_xyz
x,y,z
-x,1/2-y,z
x,-y,-z
-x,1/2+y,-z
-x,-y,-z
x,1/2+y,-z
-x,y,z
x,1/2-y,z
1/2+x,1/2+y,z
1/2-x,-y,z
1/2+x,1/2-y,-z
1/2-x,y,-z
1/2-x,1/2-y,-z
1/2+x,y,-z
1/2-x,1/2+y,z
1/2+x,-y,z
loop_
_atom_site_type_symbol
_atom_site_label
_atom_site_fract_x
_atom_site_fract_y
_atom_site_fract_z
Si Si1 0.414044 0.900297 0.266106
Si Si2 0.330579 0.250000 0.530661
Si Si3 0.910726 0.900204 0.046715
Si Si4 0.411835 0.250000 0.417966
Si Si5 0.664367 0.520848 0.378627
Si Si6 0.910861 0.400510 0.827543
O O1 0.500000 0.940309 0.276784
O O2 0.407002 0.750000 0.242190
O O3 0.372873 0.907766 0.325614
O O4 0.377125 0.998808 0.219340
O O5 0.250000 0.250000 0.500000
O O6 0.396583 0.250000 0.484814
O O7 0.341179 0.384046 0.566840
O O8 0.884264 0.750000 0.031797
O O9 0.881839 0.940166 0.109610
O O10 0.000000 0.907892 0.045627
O O11 0.875602 0.000000 0.000000
O O12 0.500000 0.250000 0.406207
O O13 0.375432 0.119899 0.389773
O O14 0.750000 0.500000 0.362606
O O15 0.884868 0.250000 0.812117
O O16 0.000000 0.409907 0.827403
#
# Coordination Sequence:
#
# PCOD8280719 Si02
#       6
#    16   8  16   8  16  16
#     4  10  21  36  54  79 110 144 188 238 288 342
#     4  12  24  46  68  90 120 158 191 237 302 363
#     4   8  13  21  35  59  92 134 183 229 278 339
#     4  12  28  42  66 100 122 152 199 243 293 357
#     4  12  24  43  66  87 120 155 193 239 296 361
#     4   8  15  28  45  66 100 144 184 233 292 344
#
# _framework density 19.038910999999999
#
# number of rings (size 3 to 8) (size 9 to 14) (size 15 to 20)
#    0.000    2.000    3.000    2.400    1.400    3.200 
#    0.000    4.000    0.000    0.000    0.000    0.000 
#    0.000    0.800    0.000    6.200    0.000    8.600 
#
# Total GULP energy -495932.134357 kJ/mol
# GULP energy per Si atom -12398.303359 kJ/mol
# Density = 1.899558 g / cm^3
# Si number density = 19.038911 Si / 1000 Ang^3
#
#
#
# Elastic Constant Matrix: (Units=GPa)
#
#
# Indices 1 2 3 4 5 6 
#
# 1 67.3459 38.9617 28.6665 0.0000 0.0000 0.0000
# 2 38.9617 128.8449 71.4274 0.0000 0.0000 0.0000
# 3 28.6665 71.4274 132.3826 0.0000 0.0000 0.0000
# 4 0.0000 0.0000 0.0000 53.3424 0.0000 0.0000
# 5 0.0000 0.0000 0.0000 0.0000 -170.2359 0.0000
# 6 0.0000 0.0000 0.0000 0.0000 0.0000 18.2878
#
#
#
# Elastic Compliance Matrix: (Units=1/GPa)
#
#
# Indices 1 2 3 4 5 6 
#
# 1 0.018173 -0.004728 -0.001384 0.000000 0.000000 0.000000
# 2 -0.004728 0.012304 -0.005615 0.000000 0.000000 0.000000
# 3 -0.001384 -0.005615 0.010883 0.000000 0.000000 0.000000
# 4 0.000000 0.000000 0.000000 0.018747 0.000000 0.000000
# 5 0.000000 0.000000 0.000000 0.000000 -0.005874 0.000000
# 6 0.000000 0.000000 0.000000 0.000000 0.000000 0.054681
#
#
# Mechanical properties :
#
#
# Convention : Reuss Voigt Hill
#
# Bulk Modulus (GPa) = 55.84727 67.40940 61.62833
# Shear Modulus (GPa) = 36.14386 -7.08661 14.52863
#
# Velocity S-wave (km/s) = 4.36181 -1.93139 2.76543
# Velocity P-wave (km/s) = 7.40028 5.52352 6.52968
#
# Compressibility (1/GPa) = 0.01790598
#
# Stress axis : x y z
#
# Youngs Moduli (GPa) = 55.02589 81.27742 91.88668
#
# Poissons Ratio (x) = 0.38429 0.12719
# Poissons Ratio (y) = 0.26017 0.51590
# Poissons Ratio (z) = 0.07617 0.45634
#
# Static dielectric constant tensor:
#      x y z
#    x 3.072550 0.000000 0.000000 
#    y 0.000000 3.747650 0.000000 
#    z 0.000000 0.000000 3.796060 
# 
# 
# High freq. dielectric constant tensor:
#      x y z
#    x 1.690050 0.000000 0.000000 
#    y 0.000000 1.755850 0.000000 
#    z 0.000000 0.000000 1.749400 
# 
# From -- ./inp_files/42310.got.cif
#   From: 2010.03.12/outbox.cif.g09.slc.cpg/sg67_22_cif.got.tgz:42310.got - 2010.04.10 22:41:39.
