data_PCOD8280382
_publ_section_title
;
Structure prediction by ZEFSAII (Michael W. Deem and Ramdas Pophale) SiO2 
 PCOD8280382
Probable space group: C M M A
;
_chemical_formula_sum "Si O2"
_cell_formula_units_Z 112
_cell_length_a 17.243931
_cell_length_b 21.896775
_cell_length_c 14.597883
_cell_angle_alpha 90.000000
_cell_angle_beta 90.000000
_cell_angle_gamma 90.000000
_cell_volume 5511.963217
_symmetry_space_group_name_H-M "C M M A"
_symmetry_group_IT_number 67
_symmetry_cell_setting 'orthorhombic'
loop_
_space_group_symop_operation_xyz
x,y,z
-x,1/2-y,z
x,-y,-z
-x,1/2+y,-z
-x,-y,-z
x,1/2+y,-z
-x,y,z
x,1/2-y,z
1/2+x,1/2+y,z
1/2-x,-y,z
1/2+x,1/2-y,-z
1/2-x,y,-z
1/2-x,1/2-y,-z
1/2+x,y,-z
1/2-x,1/2+y,z
1/2+x,-y,z
loop_
_atom_site_type_symbol
_atom_site_label
_atom_site_fract_x
_atom_site_fract_y
_atom_site_fract_z
Si Si1 0.910072 0.867399 0.822463
Si Si2 0.910715 0.384177 0.461738
Si Si3 0.808232 0.181865 0.330720
Si Si4 0.087669 0.979455 0.698587
Si Si5 0.088661 0.182171 0.811075
Si Si6 0.156737 0.397531 0.660668
Si Si7 0.159331 0.178900 0.996902
O O1 0.857407 0.821779 0.762707
O O2 0.897288 0.936458 0.786499
O O3 0.883982 0.861938 0.927425
O O4 0.000000 0.848748 0.810890
O O5 0.865139 0.327369 0.417119
O O6 0.902232 0.441857 0.395000
O O7 0.871699 0.400231 0.557141
O O8 0.000000 0.365542 0.475489
O O9 0.772085 0.250000 0.337216
O O10 0.743101 0.129155 0.331700
O O11 0.000000 0.006311 0.702124
O O12 0.150835 0.033684 0.700232
O O13 0.120787 0.250000 0.791252
O O14 0.099504 0.143876 0.719642
O O15 0.000000 0.183684 0.839349
O O16 0.133798 0.154015 0.897652
O O17 0.136276 0.250000 0.010141
O O18 0.250000 0.168447 0.000000
#
# Coordination Sequence:
#
# PCOD8280382 Si02
#       7
#    16  16  16  16  16  16  16
#     4  10  21  39  64  90 116 152 196 242 295 347
#     4  10  22  39  60  85 113 152 200 245 294 354
#     4  11  24  39  56  86 122 151 193 249 294 345
#     4   9  20  39  62  89 116 146 198 254 290 341
#     4  10  21  35  53  82 114 146 191 234 272 340
#     4  12  22  37  60  82 117 161 192 233 299 351
#     4  10  20  36  59  86 117 152 190 237 291 344
#
# _framework density 20.319438000000002
#
# number of rings (size 3 to 8) (size 9 to 14) (size 15 to 20)
#    0.000    1.714    0.000    5.571    0.000    8.857 
#    0.000    3.571    0.000    3.429    0.000    0.000 
#    0.000    0.000    0.000    0.000    0.000    0.000 
#
# Total GULP energy -694450.352283 kJ/mol
# GULP energy per Si atom -12400.899148 kJ/mol
# Density = 2.027319 g / cm^3
# Si number density = 20.319438 Si / 1000 Ang^3
#
#
#
# Elastic Constant Matrix: (Units=GPa)
#
#
# Indices 1 2 3 4 5 6 
#
# 1 104.8512 40.6573 13.9511 0.0000 0.0000 0.0000
# 2 40.6573 100.2887 30.9109 0.0000 0.0000 0.0000
# 3 13.9511 30.9109 75.6591 0.0000 0.0000 0.0000
# 4 0.0000 0.0000 0.0000 21.3891 0.0000 0.0000
# 5 0.0000 0.0000 0.0000 0.0000 37.7904 0.0000
# 6 0.0000 0.0000 0.0000 0.0000 0.0000 31.3747
#
#
#
# Elastic Compliance Matrix: (Units=1/GPa)
#
#
# Indices 1 2 3 4 5 6 
#
# 1 0.011320 -0.004514 -0.000243 0.000000 0.000000 0.000000
# 2 -0.004514 0.013208 -0.004564 0.000000 0.000000 0.000000
# 3 -0.000243 -0.004564 0.015127 0.000000 0.000000 0.000000
# 4 0.000000 0.000000 0.000000 0.046753 0.000000 0.000000
# 5 0.000000 0.000000 0.000000 0.000000 0.026462 0.000000
# 6 0.000000 0.000000 0.000000 0.000000 0.000000 0.031873
#
#
# Mechanical properties :
#
#
# Convention : Reuss Voigt Hill
#
# Bulk Modulus (GPa) = 47.59083 50.20417 48.89750
# Shear Modulus (GPa) = 29.34471 31.12947 30.23709
#
# Velocity S-wave (km/s) = 3.80435 3.91833 3.86176
# Velocity P-wave (km/s) = 6.53984 6.72549 6.63332
#
# Compressibility (1/GPa) = 0.02101245
#
# Stress axis : x y z
#
# Youngs Moduli (GPa) = 88.33813 75.71183 66.10891
#
# Poissons Ratio (x) = 0.34179 0.01607
# Poissons Ratio (y) = 0.39879 0.30171
# Poissons Ratio (z) = 0.02147 0.34553
#
# Static dielectric constant tensor:
#      x y z
#    x 3.782910 0.000000 0.000000 
#    y 0.000000 3.541550 0.000000 
#    z 0.000000 0.000000 3.711480 
# 
# 
# High freq. dielectric constant tensor:
#      x y z
#    x 1.805140 0.000000 0.000000 
#    y 0.000000 1.775490 0.000000 
#    z 0.000000 0.000000 1.797010 
# 
# From -- ./inp_files/27528.got.cif
#   From: 2010.03.12/outbox.cif.g09.slc.cpg/sg67_14_cif.got.tgz:27528.got - 2010.04.10 22:41:39.
