data_PCOD8280750
_publ_section_title
;
Structure prediction by ZEFSAII (Michael W. Deem and Ramdas Pophale) SiO2 
 PCOD8280750
Probable space group: C M M A
;
_chemical_formula_sum "Si O2"
_cell_formula_units_Z 112
_cell_length_a 14.149330
_cell_length_b 13.565571
_cell_length_c 25.608839
_cell_angle_alpha 90.000000
_cell_angle_beta 90.000000
_cell_angle_gamma 90.000000
_cell_volume 4915.456353
_symmetry_space_group_name_H-M "C M M A"
_symmetry_group_IT_number 67
_symmetry_cell_setting 'orthorhombic'
loop_
_space_group_symop_operation_xyz
x,y,z
-x,1/2-y,z
x,-y,-z
-x,1/2+y,-z
-x,-y,-z
x,1/2+y,-z
-x,y,z
x,1/2-y,z
1/2+x,1/2+y,z
1/2-x,-y,z
1/2+x,1/2-y,-z
1/2-x,y,-z
1/2-x,1/2-y,-z
1/2+x,y,-z
1/2-x,1/2+y,z
1/2+x,-y,z
loop_
_atom_site_type_symbol
_atom_site_label
_atom_site_fract_x
_atom_site_fract_y
_atom_site_fract_z
Si Si1 0.607697 0.552831 0.303648
Si Si2 0.695281 0.638308 0.205755
Si Si3 0.112107 0.969532 0.886625
Si Si4 0.854317 0.146350 0.513936
Si Si5 0.395776 0.974378 0.416458
Si Si6 0.734642 0.362894 0.059482
Si Si7 0.104630 0.861422 0.240844
O O1 0.500000 0.590912 0.299843
O O2 0.670780 0.621480 0.266392
O O3 0.650120 0.565119 0.362498
O O4 0.615951 0.437720 0.288177
O O5 0.667083 0.750000 0.189186
O O6 0.637277 0.553633 0.174124
O O7 0.809362 0.623850 0.199034
O O8 0.161821 0.876604 0.915086
O O9 0.000000 0.971201 0.896052
O O10 0.158090 0.069378 0.910253
O O11 0.904585 0.250000 0.529840
O O12 0.750000 0.172615 0.500000
O O13 0.905807 0.104756 0.462666
O O14 0.844343 0.071121 0.561937
O O15 0.500000 0.009348 0.400352
O O16 0.701134 0.250000 0.064597
O O17 0.750000 0.395444 0.000000
O O18 0.111323 0.750000 0.263387
O O19 0.000000 0.876724 0.213550
#
# Coordination Sequence:
#
# PCOD8280750 Si02
#       7
#    16  16  16  16  16  16  16
#     4  10  22  38  58  87 121 161 209 263 321 386
#     4  11  24  41  62  91 129 174 222 272 329 395
#     4  11  24  43  69 101 139 185 233 281 336 400
#     4  10  21  36  56  81 110 148 194 248 314 384
#     4  10  21  37  57  83 114 148 195 254 314 380
#     4  10  24  46  72 106 144 181 228 284 340 398
#     4   9  20  39  61  86 118 160 210 263 322 391
#
# _framework density 22.785269
#
# number of rings (size 3 to 8) (size 9 to 14) (size 15 to 20)
#    0.000    1.857    0.000    3.857    4.000    8.000 
#    0.000    7.143    0.000    0.000    0.000    0.000 
#    0.000    0.000    0.000    0.000    0.000    0.000 
#
# Total GULP energy -693735.614458 kJ/mol
# GULP energy per Si atom -12388.135972 kJ/mol
# Density = 2.273341 g / cm^3
# Si number density = 22.785269 Si / 1000 Ang^3
#
#
#
# Elastic Constant Matrix: (Units=GPa)
#
#
# Indices 1 2 3 4 5 6 
#
# 1 143.9067 34.1371 32.4110 0.0000 0.0000 0.0000
# 2 34.1371 134.2707 34.2392 0.0000 0.0000 0.0000
# 3 32.4110 34.2392 124.7973 0.0000 0.0000 0.0000
# 4 0.0000 0.0000 0.0000 24.9927 0.0000 0.0000
# 5 0.0000 0.0000 0.0000 0.0000 26.0545 0.0000
# 6 0.0000 0.0000 0.0000 0.0000 0.0000 35.9024
#
#
#
# Elastic Compliance Matrix: (Units=1/GPa)
#
#
# Indices 1 2 3 4 5 6 
#
# 1 0.007670 -0.001550 -0.001566 0.000000 0.000000 0.000000
# 2 -0.001550 0.008321 -0.001880 0.000000 0.000000 0.000000
# 3 -0.001566 -0.001880 0.008936 0.000000 0.000000 0.000000
# 4 0.000000 0.000000 0.000000 0.040012 0.000000 0.000000
# 5 0.000000 0.000000 0.000000 0.000000 0.038381 0.000000
# 6 0.000000 0.000000 0.000000 0.000000 0.000000 0.027853
#
#
# Mechanical properties :
#
#
# Convention : Reuss Voigt Hill
#
# Bulk Modulus (GPa) = 66.97026 67.17218 67.07122
# Shear Modulus (GPa) = 34.21272 37.53576 35.87424
#
# Velocity S-wave (km/s) = 3.87916 4.06318 3.97224
# Velocity P-wave (km/s) = 7.03701 7.18033 7.10903
#
# Compressibility (1/GPa) = 0.01493200
#
# Stress axis : x y z
#
# Youngs Moduli (GPa) = 130.38576 120.17318 111.91052
#
# Poissons Ratio (x) = 0.18632 0.17530
# Poissons Ratio (y) = 0.20216 0.21043
# Poissons Ratio (z) = 0.20425 0.22597
#
# Static dielectric constant tensor:
#      x y z
#    x 4.286130 0.000000 0.000000 
#    y 0.000000 4.159780 0.000000 
#    z 0.000000 0.000000 4.294010 
# 
# 
# High freq. dielectric constant tensor:
#      x y z
#    x 1.899450 0.000000 0.000000 
#    y 0.000000 1.906310 0.000000 
#    z 0.000000 0.000000 1.887920 
# 
# From -- ./inp_files/41947.got.cif
#   From: 2010.03.12/outbox.cif.g09.slc.cpg/sg67_21_cif.got.tgz:41947.got - 2010.04.10 22:41:39.
