data_PCOD8280088
_publ_section_title
;
Structure prediction by ZEFSAII (Michael W. Deem and Ramdas Pophale) SiO2 
 PCOD8280088
Probable space group: C M M A
;
_chemical_formula_sum "Si O2"
_cell_formula_units_Z 104
_cell_length_a 8.947617
_cell_length_b 29.750473
_cell_length_c 23.078015
_cell_angle_alpha 90.000000
_cell_angle_beta 90.000000
_cell_angle_gamma 90.000000
_cell_volume 6143.271542
_symmetry_space_group_name_H-M "C M M A"
_symmetry_group_IT_number 67
_symmetry_cell_setting 'orthorhombic'
loop_
_space_group_symop_operation_xyz
x,y,z
-x,1/2-y,z
x,-y,-z
-x,1/2+y,-z
-x,-y,-z
x,1/2+y,-z
-x,y,z
x,1/2-y,z
1/2+x,1/2+y,z
1/2-x,-y,z
1/2+x,1/2-y,-z
1/2-x,y,-z
1/2-x,1/2-y,-z
1/2+x,y,-z
1/2-x,1/2+y,z
1/2+x,-y,z
loop_
_atom_site_type_symbol
_atom_site_label
_atom_site_fract_x
_atom_site_fract_y
_atom_site_fract_z
Si Si1 0.178127 0.045459 0.178869
Si Si2 0.332661 0.696663 0.443665
Si Si3 0.674896 0.072957 0.059533
Si Si4 0.163763 0.168787 0.895744
Si Si5 0.170823 0.750000 0.939623
Si Si6 0.822925 0.801171 0.325917
Si Si7 0.168968 0.128818 0.770213
O O1 0.241817 0.051090 0.113985
O O2 0.225975 0.085307 0.222681
O O3 0.000000 0.042611 0.176458
O O4 0.250000 0.000000 0.204522
O O5 0.500000 0.677000 0.441346
O O6 0.336367 0.750000 0.448324
O O7 0.250000 0.676353 0.500000
O O8 0.245325 0.681837 0.386228
O O9 0.500000 0.059547 0.061489
O O10 0.695957 0.126546 0.062853
O O11 0.750000 0.055512 0.000000
O O12 0.289314 0.205834 0.903839
O O13 0.168453 0.155490 0.829509
O O14 0.000000 0.188663 0.910870
O O15 0.000000 0.750000 0.953091
O O16 0.250000 0.750000 0.000000
O O17 0.769791 0.750000 0.310831
O O18 0.767075 0.836607 0.277665
O O19 0.000000 0.801967 0.331285
O O20 0.000000 0.113196 0.754914
#
# Coordination Sequence:
#
# PCOD8280088 Si02
#       7
#    16  16  16  16   8  16  16
#     4  11  22  37  56  75  98 125 157 197 245 297
#     4   9  16  26  41  63  95 134 174 213 248 283
#     4  10  20  35  54  75  96 119 149 188 239 297
#     4   9  19  34  51  67  89 120 154 194 238 286
#     4  12  24  34  46  64  86 116 157 200 239 284
#     4   9  17  29  48  73 101 136 173 206 242 287
#     4   9  19  35  54  74  98 128 163 200 243 293
#
# _framework density 16.929089999999999
#
# number of rings (size 3 to 8) (size 9 to 14) (size 15 to 20)
#    0.000    2.308    0.000    4.385    1.077    7.077 
#    0.000    1.538    0.000    0.000    0.000    0.000 
#    0.000    0.615    0.000    6.462    0.000    3.077 
#
# Total GULP energy -644702.291225 kJ/mol
# GULP energy per Si atom -12398.120985 kJ/mol
# Density = 1.689056 g / cm^3
# Si number density = 16.929090 Si / 1000 Ang^3
#
#
#
# Elastic Constant Matrix: (Units=GPa)
#
#
# Indices 1 2 3 4 5 6 
#
# 1 107.0501 49.9068 34.1489 0.0000 0.0000 0.0000
# 2 49.9068 84.8457 39.6928 0.0000 0.0000 0.0000
# 3 34.1489 39.6928 92.5849 0.0000 0.0000 0.0000
# 4 0.0000 0.0000 0.0000 11.6416 0.0000 0.0000
# 5 0.0000 0.0000 0.0000 0.0000 27.3466 0.0000
# 6 0.0000 0.0000 0.0000 0.0000 0.0000 23.7757
#
#
#
# Elastic Compliance Matrix: (Units=1/GPa)
#
#
# Indices 1 2 3 4 5 6 
#
# 1 0.013137 -0.006831 -0.001917 0.000000 0.000000 0.000000
# 2 -0.006831 0.018294 -0.005324 0.000000 0.000000 0.000000
# 3 -0.001917 -0.005324 0.013790 0.000000 0.000000 0.000000
# 4 0.000000 0.000000 0.000000 0.085899 0.000000 0.000000
# 5 0.000000 0.000000 0.000000 0.000000 0.036568 0.000000
# 6 0.000000 0.000000 0.000000 0.000000 0.000000 0.042060
#
#
# Mechanical properties :
#
#
# Convention : Reuss Voigt Hill
#
# Bulk Modulus (GPa) = 58.55077 59.10863 58.82970
# Shear Modulus (GPa) = 20.52675 23.26829 21.89752
#
# Velocity S-wave (km/s) = 3.48589 3.71139 3.60041
# Velocity P-wave (km/s) = 7.13182 7.30459 7.21873
#
# Compressibility (1/GPa) = 0.01707919
#
# Stress axis : x y z
#
# Youngs Moduli (GPa) = 76.11834 54.66125 72.51411
#
# Poissons Ratio (x) = 0.37337 0.13902
# Poissons Ratio (y) = 0.51994 0.38605
# Poissons Ratio (z) = 0.14593 0.29100
#
# Static dielectric constant tensor:
#      x y z
#    x 3.462510 0.000000 0.000000 
#    y 0.000000 3.070140 0.000000 
#    z 0.000000 0.000000 3.101010 
# 
# 
# High freq. dielectric constant tensor:
#      x y z
#    x 1.660910 0.000000 0.000000 
#    y 0.000000 1.629260 0.000000 
#    z 0.000000 0.000000 1.635960 
# 
# From -- ./inp_files/37535.got.cif
#   From: 2010.03.12/outbox.cif.g09.slc.cpg/sg67_19_cif.got.tgz:37535.got - 2010.04.10 22:41:39.
