data_PCOD8280612
_publ_section_title
;
Structure prediction by ZEFSAII (Michael W. Deem and Ramdas Pophale) SiO2 
 PCOD8280612
Probable space group: C M M A
;
_chemical_formula_sum "Si O2"
_cell_formula_units_Z 80
_cell_length_a 22.542640
_cell_length_b 23.721322
_cell_length_c 9.015514
_cell_angle_alpha 90.000000
_cell_angle_beta 90.000000
_cell_angle_gamma 90.000000
_cell_volume 4820.966975
_symmetry_space_group_name_H-M "C M M A"
_symmetry_group_IT_number 67
_symmetry_cell_setting 'orthorhombic'
loop_
_space_group_symop_operation_xyz
x,y,z
-x,1/2-y,z
x,-y,-z
-x,1/2+y,-z
-x,-y,-z
x,1/2+y,-z
-x,y,z
x,1/2-y,z
1/2+x,1/2+y,z
1/2-x,-y,z
1/2+x,1/2-y,-z
1/2-x,y,-z
1/2-x,1/2-y,-z
1/2+x,y,-z
1/2-x,1/2+y,z
1/2+x,-y,z
loop_
_atom_site_type_symbol
_atom_site_label
_atom_site_fract_x
_atom_site_fract_y
_atom_site_fract_z
Si Si1 0.070406 0.934637 0.000000
Si Si2 0.250000 0.816602 0.674735
Si Si3 0.366739 0.155256 0.835609
Si Si4 0.633261 0.344744 0.164391
Si Si5 0.069293 0.750000 0.664052
Si Si6 0.430707 0.750000 0.664052
O O1 0.100596 0.905638 0.854236
O O2 0.000000 0.924219 0.000001
O O3 0.100596 0.905638 0.145764
O O4 0.086544 0.000000 0.000000
O O5 0.250000 0.750000 0.715750
O O6 0.250000 0.825555 0.500000
O O7 0.193567 0.848474 0.742830
O O8 0.306432 0.848474 0.742831
O O9 0.412358 0.194765 0.751338
O O10 0.352772 0.180036 1.000000
O O11 0.587643 0.305235 0.248663
O O12 0.099340 0.750000 0.500000
O O13 0.000000 0.750000 0.646769
O O14 0.500000 0.750000 0.646771
#
# Coordination Sequence:
#
# PCOD8280612 Si02
#       6
#    16  16  16  16   8   8
#     4   9  20  38  59  82 108 140 184 237 280 315
#     4  11  21  35  53  80 119 155 178 215 275 340
#     4  10  21  33  56  82 108 142 189 225 270 324
#     4  10  21  33  56  82 108 142 189 225 270 324
#     4  11  21  32  49  80 119 147 174 222 281 338
#     4  11  21  32  49  80 119 147 174 222 281 338
#
# _framework density 16.594180999999999
#
# number of rings (size 3 to 8) (size 9 to 14) (size 15 to 20)
#    1.200    0.600    2.000    3.600    0.000    1.600 
#    0.000    2.000    0.000    6.000    0.000   14.000 
#    0.000    0.000    0.000    0.000    0.000    0.000 
#
# Total GULP energy -495696.702061 kJ/mol
# GULP energy per Si atom -12392.417552 kJ/mol
# Density = 1.655641 g / cm^3
# Si number density = 16.594181 Si / 1000 Ang^3
#
#
#
# Elastic Constant Matrix: (Units=GPa)
#
#
# Indices 1 2 3 4 5 6 
#
# 1 117.5561 64.4205 49.7123 0.0000 0.0000 0.0000
# 2 64.4205 135.4047 52.1231 0.0000 0.0000 0.0000
# 3 49.7123 52.1231 118.9972 0.0000 0.0000 0.0000
# 4 0.0000 0.0000 0.0000 -3.5659 0.0000 0.0000
# 5 0.0000 0.0000 0.0000 0.0000 29.6358 0.0000
# 6 0.0000 0.0000 0.0000 0.0000 0.0000 22.5629
#
#
#
# Elastic Compliance Matrix: (Units=1/GPa)
#
#
# Indices 1 2 3 4 5 6 
#
# 1 0.012402 -0.004698 -0.003123 0.000000 0.000000 0.000000
# 2 -0.004698 0.010663 -0.002708 0.000000 0.000000 0.000000
# 3 -0.003123 -0.002708 0.010894 0.000000 0.000000 0.000000
# 4 0.000000 0.000000 0.000000 -0.280432 0.000000 0.000000
# 5 0.000000 0.000000 0.000000 0.000000 0.033743 0.000000
# 6 0.000000 0.000000 0.000000 0.000000 0.000000 0.044321
#
#
# Mechanical properties :
#
#
# Convention : Reuss Voigt Hill
#
# Bulk Modulus (GPa) = 77.51415 78.27440 77.89428
# Shear Modulus (GPa) = -34.95258 23.44002 -5.75628
#
# Velocity S-wave (km/s) = -4.59444 3.76246 -1.86451
# Velocity P-wave (km/s) = 4.32063 8.13308 6.51210
#
# Compressibility (1/GPa) = 0.01290087
#
# Stress axis : x y z
#
# Youngs Moduli (GPa) = 80.63321 93.78386 91.79056
#
# Poissons Ratio (x) = 0.44061 0.28667
# Poissons Ratio (y) = 0.37882 0.24855
# Poissons Ratio (z) = 0.25183 0.25395
#
# Static dielectric constant tensor:
#      x y z
#    x 3.173330 0.000000 0.000000 
#    y 0.000000 2.860720 0.000000 
#    z 0.000000 0.000000 3.221330 
# 
# 
# High freq. dielectric constant tensor:
#      x y z
#    x 1.656960 0.000000 0.000000 
#    y 0.000000 1.607850 0.000000 
#    z 0.000000 0.000000 1.641650 
# 
# From -- ./inp_files/12737.got.cif
#   From: 2010.03.12/outbox.cif.g09.slc.cpg/sg67_7_cif.got.tgz:12737.got - 2010.04.10 22:41:39.
