data_PCOD8280230
_publ_section_title
;
Structure prediction by ZEFSAII (Michael W. Deem and Ramdas Pophale) SiO2 
 PCOD8280230
Probable space group: C M M A
;
_chemical_formula_sum "Si O2"
_cell_formula_units_Z 112
_cell_length_a 30.061249
_cell_length_b 14.335657
_cell_length_c 12.102219
_cell_angle_alpha 90.000000
_cell_angle_beta 90.000000
_cell_angle_gamma 90.000000
_cell_volume 5215.424104
_symmetry_space_group_name_H-M "C M M A"
_symmetry_group_IT_number 67
_symmetry_cell_setting 'orthorhombic'
loop_
_space_group_symop_operation_xyz
x,y,z
-x,1/2-y,z
x,-y,-z
-x,1/2+y,-z
-x,-y,-z
x,1/2+y,-z
-x,y,z
x,1/2-y,z
1/2+x,1/2+y,z
1/2-x,-y,z
1/2+x,1/2-y,-z
1/2-x,y,-z
1/2-x,1/2-y,-z
1/2+x,y,-z
1/2-x,1/2+y,z
1/2+x,-y,z
loop_
_atom_site_type_symbol
_atom_site_label
_atom_site_fract_x
_atom_site_fract_y
_atom_site_fract_z
Si Si1 0.288116 0.354525 0.412042
Si Si2 0.128977 0.413582 0.929381
Si Si3 0.047890 0.143767 0.800312
Si Si4 0.290932 0.854517 0.075061
Si Si5 0.050233 0.139777 0.558091
Si Si6 0.818447 0.991694 0.742836
Si Si7 0.367353 0.143290 0.575120
O O1 0.280548 0.250000 0.361075
O O2 0.250000 0.376939 0.500000
O O3 0.285746 0.437015 0.321746
O O4 0.335932 0.358452 0.468394
O O5 0.084204 0.359934 0.897493
O O6 0.150124 0.442594 0.813964
O O7 0.112380 0.500000 0.000000
O O8 0.163691 0.355401 0.003291
O O9 0.039707 0.250000 0.771325
O O10 0.061321 0.098816 0.681079
O O11 0.000000 0.101282 0.840063
O O12 0.283735 0.750000 0.119708
O O13 0.290061 0.924444 0.177847
O O14 0.250000 0.887248 0.000000
O O15 0.056720 0.250000 0.556978
O O16 0.085165 0.102179 0.466379
O O17 0.000000 0.111291 0.523104
O O18 0.848501 0.925298 0.667318
O O19 0.370150 0.250000 0.621755
#
# Coordination Sequence:
#
# PCOD8280230 Si02
#       7
#    16  16  16  16  16  16  16
#     4  10  23  40  58  85 119 157 199 240 288 346
#     4  10  22  36  55  83 113 149 194 245 299 350
#     4   9  17  32  56  82 109 147 194 242 293 349
#     4  10  23  43  65  89 117 151 194 244 299 358
#     4   8  15  30  54  84 117 154 195 236 281 341
#     4  11  23  39  61  87 116 154 196 242 294 351
#     4  10  20  35  57  86 121 158 195 238 289 346
#
# _framework density 21.474764
#
# number of rings (size 3 to 8) (size 9 to 14) (size 15 to 20)
#    0.000    2.286    0.000    3.000    0.000    8.571 
#    0.000    3.571    0.000    7.714    0.000    8.000 
#    0.000    0.000    0.000    0.000    0.000    1.143 
#
# Total GULP energy -693994.345472 kJ/mol
# GULP energy per Si atom -12392.756169 kJ/mol
# Density = 2.142589 g / cm^3
# Si number density = 21.474764 Si / 1000 Ang^3
#
#
#
# Elastic Constant Matrix: (Units=GPa)
#
#
# Indices 1 2 3 4 5 6 
#
# 1 128.4017 38.9243 60.8826 0.0000 0.0000 0.0000
# 2 38.9243 89.7772 60.1241 0.0000 0.0000 0.0000
# 3 60.8826 60.1241 110.4747 0.0000 0.0000 0.0000
# 4 0.0000 0.0000 0.0000 22.2651 0.0000 0.0000
# 5 0.0000 0.0000 0.0000 0.0000 28.4142 0.0000
# 6 0.0000 0.0000 0.0000 0.0000 0.0000 19.2579
#
#
#
# Elastic Compliance Matrix: (Units=1/GPa)
#
#
# Indices 1 2 3 4 5 6 
#
# 1 0.010609 -0.001077 -0.005261 0.000000 0.000000 0.000000
# 2 -0.001077 0.017636 -0.009005 0.000000 0.000000 0.000000
# 3 -0.005261 -0.009005 0.016852 0.000000 0.000000 0.000000
# 4 0.000000 0.000000 0.000000 0.044913 0.000000 0.000000
# 5 0.000000 0.000000 0.000000 0.000000 0.035194 0.000000
# 6 0.000000 0.000000 0.000000 0.000000 0.000000 0.051927
#
#
# Mechanical properties :
#
#
# Convention : Reuss Voigt Hill
#
# Bulk Modulus (GPa) = 69.38413 72.05728 70.72071
# Shear Modulus (GPa) = 23.51633 25.23562 24.37598
#
# Velocity S-wave (km/s) = 3.31277 3.43173 3.37278
# Velocity P-wave (km/s) = 6.85656 7.02351 6.94053
#
# Compressibility (1/GPa) = 0.01441252
#
# Stress axis : x y z
#
# Youngs Moduli (GPa) = 94.26176 56.70219 59.34126
#
# Poissons Ratio (x) = 0.06104 0.31217
# Poissons Ratio (y) = 0.10148 0.53436
# Poissons Ratio (z) = 0.49587 0.51059
#
# Static dielectric constant tensor:
#      x y z
#    x 3.994320 0.000000 0.000000 
#    y 0.000000 3.861610 0.000000 
#    z 0.000000 0.000000 3.803150 
# 
# 
# High freq. dielectric constant tensor:
#      x y z
#    x 1.850490 0.000000 0.000000 
#    y 0.000000 1.837790 0.000000 
#    z 0.000000 0.000000 1.828770 
# 
# From -- ./inp_files/23829.got.cif
#   From: 2010.03.12/outbox.cif.g09.slc.cpg/sg67_12_cif.got.tgz:23829.got - 2010.04.10 22:41:39.
