data_PCOD8280960
_publ_section_title
;
Structure prediction by ZEFSAII (Michael W. Deem and Ramdas Pophale) SiO2 
 PCOD8280960
Probable space group: C M M A
;
_chemical_formula_sum "Si O2"
_cell_formula_units_Z 64
_cell_length_a 9.408618
_cell_length_b 24.097084
_cell_length_c 14.036501
_cell_angle_alpha 90.000000
_cell_angle_beta 90.000000
_cell_angle_gamma 90.000000
_cell_volume 3182.359132
_symmetry_space_group_name_H-M "C M M A"
_symmetry_group_IT_number 67
_symmetry_cell_setting 'orthorhombic'
loop_
_space_group_symop_operation_xyz
x,y,z
-x,1/2-y,z
x,-y,-z
-x,1/2+y,-z
-x,-y,-z
x,1/2+y,-z
-x,y,z
x,1/2-y,z
1/2+x,1/2+y,z
1/2-x,-y,z
1/2+x,1/2-y,-z
1/2-x,y,-z
1/2-x,1/2-y,-z
1/2+x,y,-z
1/2-x,1/2+y,z
1/2+x,-y,z
loop_
_atom_site_type_symbol
_atom_site_label
_atom_site_fract_x
_atom_site_fract_y
_atom_site_fract_z
Si Si1 0.719217 0.602875 0.609277
Si Si2 0.750000 0.345968 0.000000
Si Si3 0.000000 0.190361 0.124431
Si Si4 0.000000 0.184525 0.683162
Si Si5 0.500000 0.117065 0.128173
Si Si6 0.000000 0.531144 0.285666
Si Si7 0.500000 0.901815 0.280549
O O1 0.750000 0.590054 0.500000
O O2 0.634118 0.659594 0.626981
O O3 0.638163 0.549620 0.653672
O O4 0.865527 0.614929 0.659589
O O5 0.856380 0.308348 0.061798
O O6 0.645185 0.382653 0.066574
O O7 0.000000 0.134450 0.185315
O O8 0.000000 0.250000 0.180192
O O9 0.000000 0.167256 0.794645
O O10 0.000000 0.250000 0.674565
O O11 0.500000 0.059223 0.182860
O O12 0.000000 0.466996 0.260136
#
# Coordination Sequence:
#
# PCOD8280960 Si02
#       7
#    16   8   8   8   8   8   8
#     4  10  22  39  60  88 119 156 201 242 287 345
#     4  10  21  38  61  84 110 150 198 240 286 352
#     4  11  23  39  58  84 115 148 191 243 294 347
#     4  10  22  41  61  83 123 165 191 236 305 356
#     4   9  20  39  58  83 114 151 196 240 293 346
#     4  10  22  40  59  84 124 160 188 240 306 352
#     4  12  23  37  62  91 118 152 201 247 289 348
#
# _framework density 20.110866000000001
#
# number of rings (size 3 to 8) (size 9 to 14) (size 15 to 20)
#    0.000    2.000    0.000    5.625    0.000    9.500 
#    0.000    5.000    0.000    0.000    0.000    0.000 
#    0.000    0.000    0.000    0.000    0.000    0.000 
#
# Total GULP energy -396615.692754 kJ/mol
# GULP energy per Si atom -12394.240399 kJ/mol
# Density = 2.006509 g / cm^3
# Si number density = 20.110866 Si / 1000 Ang^3
#
#
#
# Elastic Constant Matrix: (Units=GPa)
#
#
# Indices 1 2 3 4 5 6 
#
# 1 174.1775 51.9197 56.6782 0.0000 0.0000 0.0000
# 2 51.9197 179.9913 61.1690 0.0000 0.0000 0.0000
# 3 56.6782 61.1690 124.9461 0.0000 0.0000 0.0000
# 4 0.0000 0.0000 0.0000 13.6396 0.0000 0.0000
# 5 0.0000 0.0000 0.0000 0.0000 42.1538 0.0000
# 6 0.0000 0.0000 0.0000 0.0000 0.0000 17.4133
#
#
#
# Elastic Compliance Matrix: (Units=1/GPa)
#
#
# Indices 1 2 3 4 5 6 
#
# 1 0.006917 -0.001114 -0.002592 0.000000 0.000000 0.000000
# 2 -0.001114 0.006844 -0.002845 0.000000 0.000000 0.000000
# 3 -0.002592 -0.002845 0.010572 0.000000 0.000000 0.000000
# 4 0.000000 0.000000 0.000000 0.073316 0.000000 0.000000
# 5 0.000000 0.000000 0.000000 0.000000 0.023723 0.000000
# 6 0.000000 0.000000 0.000000 0.000000 0.000000 0.057427
#
#
# Mechanical properties :
#
#
# Convention : Reuss Voigt Hill
#
# Bulk Modulus (GPa) = 89.04692 90.96097 90.00395
# Shear Modulus (GPa) = 25.55636 35.26453 30.41045
#
# Velocity S-wave (km/s) = 3.56866 4.19203 3.89284
# Velocity P-wave (km/s) = 7.83292 8.29209 8.06577
#
# Compressibility (1/GPa) = 0.01123003
#
# Stress axis : x y z
#
# Youngs Moduli (GPa) = 144.57290 146.10965 94.58768
#
# Poissons Ratio (x) = 0.16281 0.24518
# Poissons Ratio (y) = 0.16110 0.26912
# Poissons Ratio (z) = 0.37475 0.41571
#
# Static dielectric constant tensor:
#      x y z
#    x 4.014320 0.000000 0.000000 
#    y 0.000000 3.372210 0.000000 
#    z 0.000000 0.000000 3.003830 
# 
# 
# High freq. dielectric constant tensor:
#      x y z
#    x 1.813110 0.000000 0.000000 
#    y 0.000000 1.767880 0.000000 
#    z 0.000000 0.000000 1.784090 
# 
# From -- ./inp_files/24912.got.cif
#   From: 2010.03.12/outbox.cif.g09.slc.cpg/sg67_13_cif.got.tgz:24912.got - 2010.04.10 22:41:39.
