data_PCOD8280391
_publ_section_title
;
Structure prediction by ZEFSAII (Michael W. Deem and Ramdas Pophale) SiO2 
 PCOD8280391
Probable space group: C M M A
;
_chemical_formula_sum "Si O2"
_cell_formula_units_Z 112
_cell_length_a 15.335426
_cell_length_b 14.343159
_cell_length_c 23.827064
_cell_angle_alpha 90.000000
_cell_angle_beta 90.000000
_cell_angle_gamma 90.000000
_cell_volume 5240.964148
_symmetry_space_group_name_H-M "C M M A"
_symmetry_group_IT_number 67
_symmetry_cell_setting 'orthorhombic'
loop_
_space_group_symop_operation_xyz
x,y,z
-x,1/2-y,z
x,-y,-z
-x,1/2+y,-z
-x,-y,-z
x,1/2+y,-z
-x,y,z
x,1/2-y,z
1/2+x,1/2+y,z
1/2-x,-y,z
1/2+x,1/2-y,-z
1/2-x,y,-z
1/2-x,1/2-y,-z
1/2+x,y,-z
1/2-x,1/2+y,z
1/2+x,-y,z
loop_
_atom_site_type_symbol
_atom_site_label
_atom_site_fract_x
_atom_site_fract_y
_atom_site_fract_z
Si Si1 0.129500 0.354401 0.045020
Si Si2 0.603814 0.646239 0.236911
Si Si3 0.095089 0.484631 0.140780
Si Si4 0.329447 0.645914 0.923115
Si Si5 0.732923 0.644608 0.438052
Si Si6 0.402540 0.649292 0.632754
Si Si7 0.899061 0.055578 0.351615
O O1 0.094529 0.250000 0.055411
O O2 0.078212 0.424423 0.084675
O O3 0.229723 0.361534 0.061282
O O4 0.116145 0.380589 0.979403
O O5 0.500000 0.646077 0.232819
O O6 0.640884 0.750000 0.225911
O O7 0.641777 0.577050 0.189238
O O8 0.633983 0.615136 0.298684
O O9 0.151969 0.575609 0.127704
O O10 0.000000 0.518137 0.161674
O O11 0.354045 0.750000 0.903250
O O12 0.694500 0.750000 0.439377
O O13 0.750000 0.603912 0.500000
O O14 0.830141 0.645504 0.414443
O O15 0.664779 0.579605 0.403733
O O16 0.500000 0.646610 0.605744
O O17 0.392533 0.750000 0.665965
O O18 0.390827 0.553392 0.668007
O O19 0.000000 0.079283 0.367255
#
# Coordination Sequence:
#
# PCOD8280391 Si02
#       7
#    16  16  16  16  16  16  16
#     4   9  18  34  54  73  99 140 184 224 270 325
#     4   9  19  36  55  77 108 143 180 225 276 330
#     4  11  21  32  51  79 107 135 172 224 282 329
#     4   9  19  35  52  72 104 145 183 219 265 328
#     4  10  21  36  56  85 119 150 183 229 280 332
#     4   9  19  36  55  77 111 151 184 218 269 333
#     4  10  20  36  60  84 108 147 195 238 282 335
#
# _framework density 21.370114000000001
#
# number of rings (size 3 to 8) (size 9 to 14) (size 15 to 20)
#    0.000    2.429    0.000    3.000    0.000    6.000 
#    0.000    7.857    0.000    6.000    0.000    0.000 
#    0.000    0.000    0.000    0.000    0.000    0.000 
#
# Total GULP energy -693752.003933 kJ/mol
# GULP energy per Si atom -12388.428642 kJ/mol
# Density = 2.132147 g / cm^3
# Si number density = 21.370114 Si / 1000 Ang^3
#
#
#
# Elastic Constant Matrix: (Units=GPa)
#
#
# Indices 1 2 3 4 5 6 
#
# 1 65.9573 33.3329 26.9305 0.0000 0.0000 0.0000
# 2 33.3329 158.2810 69.0041 0.0000 0.0000 0.0000
# 3 26.9305 69.0041 105.9542 0.0000 0.0000 0.0000
# 4 0.0000 0.0000 0.0000 30.5410 0.0000 0.0000
# 5 0.0000 0.0000 0.0000 0.0000 22.0802 0.0000
# 6 0.0000 0.0000 0.0000 0.0000 0.0000 8.2063
#
#
#
# Elastic Compliance Matrix: (Units=1/GPa)
#
#
# Indices 1 2 3 4 5 6 
#
# 1 0.017571 -0.002449 -0.002871 0.000000 0.000000 0.000000
# 2 -0.002449 0.009164 -0.005346 0.000000 0.000000 0.000000
# 3 -0.002871 -0.005346 0.013649 0.000000 0.000000 0.000000
# 4 0.000000 0.000000 0.000000 0.032743 0.000000 0.000000
# 5 0.000000 0.000000 0.000000 0.000000 0.045289 0.000000
# 6 0.000000 0.000000 0.000000 0.000000 0.000000 0.121858
#
#
# Mechanical properties :
#
#
# Convention : Reuss Voigt Hill
#
# Bulk Modulus (GPa) = 52.48524 65.41418 58.94971
# Shear Modulus (GPa) = 18.65968 25.56051 22.11009
#
# Velocity S-wave (km/s) = 2.95815 3.46220 3.22005
# Velocity P-wave (km/s) = 6.02337 6.83074 6.43972
#
# Compressibility (1/GPa) = 0.01905298
#
# Stress axis : x y z
#
# Youngs Moduli (GPa) = 56.91143 109.12119 73.26289
#
# Poissons Ratio (x) = 0.26719 0.21037
# Poissons Ratio (y) = 0.13935 0.39166
# Poissons Ratio (z) = 0.16342 0.58335
#
# Static dielectric constant tensor:
#      x y z
#    x 3.758270 0.000000 0.000000 
#    y 0.000000 4.363960 0.000000 
#    z 0.000000 0.000000 3.705770 
# 
# 
# High freq. dielectric constant tensor:
#      x y z
#    x 1.826430 0.000000 0.000000 
#    y 0.000000 1.858070 0.000000 
#    z 0.000000 0.000000 1.799150 
# 
# From -- ./inp_files/41962.got.cif
#   From: 2010.03.12/outbox.cif.g09.slc.cpg/sg67_21_cif.got.tgz:41962.got - 2010.04.10 22:41:39.
