data_PCOD8280850
_publ_section_title
;
Structure prediction by ZEFSAII (Michael W. Deem and Ramdas Pophale) SiO2 
 PCOD8280850
Probable space group: C M M A
;
_chemical_formula_sum "Si O2"
_cell_formula_units_Z 96
_cell_length_a 14.577085
_cell_length_b 15.663574
_cell_length_c 20.996319
_cell_angle_alpha 90.000000
_cell_angle_beta 90.000000
_cell_angle_gamma 90.000000
_cell_volume 4794.073762
_symmetry_space_group_name_H-M "C M M A"
_symmetry_group_IT_number 67
_symmetry_cell_setting 'orthorhombic'
loop_
_space_group_symop_operation_xyz
x,y,z
-x,1/2-y,z
x,-y,-z
-x,1/2+y,-z
-x,-y,-z
x,1/2+y,-z
-x,y,z
x,1/2-y,z
1/2+x,1/2+y,z
1/2-x,-y,z
1/2+x,1/2-y,-z
1/2-x,y,-z
1/2-x,1/2-y,-z
1/2+x,y,-z
1/2-x,1/2+y,z
1/2+x,-y,z
loop_
_atom_site_type_symbol
_atom_site_label
_atom_site_fract_x
_atom_site_fract_y
_atom_site_fract_z
Si Si1 0.750000 0.898289 0.741750
Si Si2 0.750000 0.900425 0.400881
Si Si3 0.893849 0.153257 0.840764
Si Si4 0.601805 0.650678 0.500000
Si Si5 0.606151 0.653257 0.159236
Si Si6 0.608557 0.500000 0.929146
O O1 0.750000 0.861422 0.669971
O O2 0.659597 0.861524 0.775338
O O3 0.840403 0.861524 0.775338
O O4 0.750000 0.000000 0.744417
O O5 0.657719 0.873977 0.437081
O O6 0.842281 0.873977 0.437081
O O7 0.750000 0.000000 0.394807
O O8 0.877401 0.250000 0.865977
O O9 0.000000 0.136880 0.825538
O O10 0.857410 0.085658 0.893221
O O11 0.500000 0.607387 0.500000
O O12 0.588229 0.750000 0.500000
O O13 0.500000 0.636880 0.174462
O O14 0.622599 0.750000 0.134023
O O15 0.642591 0.585658 0.106779
O O16 0.500000 0.499999 0.933433
O O17 0.651311 0.500000 0.000000
#
# Coordination Sequence:
#
# PCOD8280850 Si02
#       6
#    16  16  16  16  16  16
#     4  11  22  38  59  82 115 154 191 238 291 340
#     4  10  22  37  58  86 112 148 192 233 280 333
#     4  10  21  37  58  84 115 152 194 240 291 346
#     4  10  21  38  59  83 116 152 185 231 284 333
#     4  10  21  37  58  84 115 152 194 240 291 346
#     4   9  18  35  59  85 116 151 189 239 292 345
#
# _framework density 20.024723000000002
#
# number of rings (size 3 to 8) (size 9 to 14) (size 15 to 20)
#    0.000    2.000    1.667    2.500    0.000    6.000 
#    0.000   11.667    0.000    2.000    0.000    0.000 
#    0.000    0.000    0.000    0.000    0.000    0.000 
#
# Total GULP energy -595101.553792 kJ/mol
# GULP energy per Si atom -12397.949037 kJ/mol
# Density = 1.997915 g / cm^3
# Si number density = 20.024723 Si / 1000 Ang^3
#
#
#
# Elastic Constant Matrix: (Units=GPa)
#
#
# Indices 1 2 3 4 5 6 
#
# 1 126.0528 32.8343 69.7715 0.0000 0.0000 0.0000
# 2 32.8343 126.8044 66.5470 0.0000 0.0000 0.0000
# 3 69.7715 66.5470 192.8038 0.0000 0.0000 0.0000
# 4 0.0000 0.0000 0.0000 11.0239 0.0000 0.0000
# 5 0.0000 0.0000 0.0000 0.0000 31.2366 0.0000
# 6 0.0000 0.0000 0.0000 0.0000 0.0000 2.3863
#
#
#
# Elastic Compliance Matrix: (Units=1/GPa)
#
#
# Indices 1 2 3 4 5 6 
#
# 1 0.009993 -0.000842 -0.003326 0.000000 0.000000 0.000000
# 2 -0.000842 0.009702 -0.003044 0.000000 0.000000 0.000000
# 3 -0.003326 -0.003044 0.007441 0.000000 0.000000 0.000000
# 4 0.000000 0.000000 0.000000 0.090712 0.000000 0.000000
# 5 0.000000 0.000000 0.000000 0.000000 0.032014 0.000000
# 6 0.000000 0.000000 0.000000 0.000000 0.000000 0.419063
#
#
# Mechanical properties :
#
#
# Convention : Reuss Voigt Hill
#
# Bulk Modulus (GPa) = 78.66450 87.10740 82.88595
# Shear Modulus (GPa) = 8.50940 27.36323 17.93632
#
# Velocity S-wave (km/s) = 2.06365 3.70059 2.99609
# Velocity P-wave (km/s) = 6.71172 7.86470 7.31098
#
# Compressibility (1/GPa) = 0.01271221
#
# Stress axis : x y z
#
# Youngs Moduli (GPa) = 100.06625 103.07547 134.39678
#
# Poissons Ratio (x) = 0.08683 0.44696
# Poissons Ratio (y) = 0.08429 0.40907
# Poissons Ratio (z) = 0.33279 0.31373
#
# Static dielectric constant tensor:
#      x y z
#    x 3.201520 0.000000 0.000000 
#    y 0.000000 3.857560 0.000000 
#    z 0.000000 0.000000 2.901830 
# 
# 
# High freq. dielectric constant tensor:
#      x y z
#    x 1.785680 0.000000 0.000000 
#    y 0.000000 1.795700 0.000000 
#    z 0.000000 0.000000 1.772200 
# 
# From -- ./inp_files/38440.got.cif
#   From: 2010.03.12/outbox.cif.g09.slc.cpg/sg67_20_cif.got.tgz:38440.got - 2010.04.10 22:41:39.
