data_PCOD8280537
_publ_section_title
;
Structure prediction by ZEFSAII (Michael W. Deem and Ramdas Pophale) SiO2 
 PCOD8280537
Probable space group: C M M A
;
_chemical_formula_sum "Si O2"
_cell_formula_units_Z 80
_cell_length_a 23.911439
_cell_length_b 13.847599
_cell_length_c 12.068050
_cell_angle_alpha 90.000000
_cell_angle_beta 90.000000
_cell_angle_gamma 90.000000
_cell_volume 3995.924670
_symmetry_space_group_name_H-M "C M M A"
_symmetry_group_IT_number 67
_symmetry_cell_setting 'orthorhombic'
loop_
_space_group_symop_operation_xyz
x,y,z
-x,1/2-y,z
x,-y,-z
-x,1/2+y,-z
-x,-y,-z
x,1/2+y,-z
-x,y,z
x,1/2-y,z
1/2+x,1/2+y,z
1/2-x,-y,z
1/2+x,1/2-y,-z
1/2-x,y,-z
1/2-x,1/2-y,-z
1/2+x,y,-z
1/2-x,1/2+y,z
1/2+x,-y,z
loop_
_atom_site_type_symbol
_atom_site_label
_atom_site_fract_x
_atom_site_fract_y
_atom_site_fract_z
Si Si1 0.938640 0.007371 0.312329
Si Si2 0.251760 0.364134 0.172373
Si Si3 0.411647 0.136107 0.485976
Si Si4 0.653808 0.498948 0.120626
Si Si5 0.290466 0.364333 0.410873
O O1 0.920992 0.098710 0.388899
O O2 0.000000 0.028822 0.259034
O O3 0.949448 0.915428 0.393310
O O4 0.893463 0.987065 0.215270
O O5 0.250147 0.250000 0.154872
O O6 0.302877 0.409209 0.102758
O O7 0.190516 0.405273 0.144715
O O8 0.268993 0.400928 0.293736
O O9 0.422143 0.250000 0.485163
O O10 0.351606 0.101273 0.442669
O O11 0.623551 0.500000 0.000000
O O12 0.287761 0.250000 0.413639
O O13 0.250000 0.411951 0.500000
#
# Coordination Sequence:
#
# PCOD8280537 Si02
#       5
#    16  16  16  16  16
#     4  11  24  40  59  87 119 158 205 245 291 349
#     4  10  20  38  61  88 120 152 192 244 299 357
#     4  10  20  38  61  88 121 153 192 244 299 356
#     4  11  24  40  59  87 119 157 204 246 292 349
#     4   9  16  28  52  84 116 147 177 219 287 356
#
# _framework density 20.020396999999999
#
# number of rings (size 3 to 8) (size 9 to 14) (size 15 to 20)
#    0.000    1.800    2.000    3.600    0.000    6.000 
#    0.000    0.000    0.000    0.000    0.000    5.600 
#    0.000    0.000    0.000    0.000    0.000    0.000 
#
# Total GULP energy -495552.242790 kJ/mol
# GULP energy per Si atom -12388.806070 kJ/mol
# Density = 1.997483 g / cm^3
# Si number density = 20.020397 Si / 1000 Ang^3
#
#
#
# Elastic Constant Matrix: (Units=GPa)
#
#
# Indices 1 2 3 4 5 6 
#
# 1 106.0890 23.7016 47.9431 0.0000 0.0000 0.0000
# 2 23.7016 127.9193 18.4353 0.0000 0.0000 0.0000
# 3 47.9431 18.4353 87.8514 0.0000 0.0000 0.0000
# 4 0.0000 0.0000 0.0000 15.2327 0.0000 0.0000
# 5 0.0000 0.0000 0.0000 0.0000 54.4304 0.0000
# 6 0.0000 0.0000 0.0000 0.0000 0.0000 -75.9519
#
#
#
# Elastic Compliance Matrix: (Units=1/GPa)
#
#
# Indices 1 2 3 4 5 6 
#
# 1 0.012751 -0.001402 -0.006664 0.000000 0.000000 0.000000
# 2 -0.001402 0.008215 -0.000959 0.000000 0.000000 0.000000
# 3 -0.006664 -0.000959 0.015221 0.000000 0.000000 0.000000
# 4 0.000000 0.000000 0.000000 0.065648 0.000000 0.000000
# 5 0.000000 0.000000 0.000000 0.000000 0.018372 0.000000
# 6 0.000000 0.000000 0.000000 0.000000 0.000000 -0.013166
#
#
# Mechanical properties :
#
#
# Convention : Reuss Voigt Hill
#
# Bulk Modulus (GPa) = 55.13640 55.77996 55.45818
# Shear Modulus (GPa) = 38.12789 14.19424 26.16106
#
# Velocity S-wave (km/s) = 4.36874 2.66557 3.61878
# Velocity P-wave (km/s) = 7.28339 6.11521 6.72471
#
# Compressibility (1/GPa) = 0.01813684
#
# Stress axis : x y z
#
# Youngs Moduli (GPa) = 78.42513 121.72267 65.69874
#
# Poissons Ratio (x) = 0.17067 0.43784
# Poissons Ratio (y) = 0.10996 0.06299
# Poissons Ratio (z) = 0.52265 0.11671
#
# Static dielectric constant tensor:
#      x y z
#    x 3.611860 0.000000 0.000000 
#    y 0.000000 3.468980 0.000000 
#    z 0.000000 0.000000 3.116840 
# 
# 
# High freq. dielectric constant tensor:
#      x y z
#    x 1.776830 0.000000 0.000000 
#    y 0.000000 1.782590 0.000000 
#    z 0.000000 0.000000 1.779070 
# 
# From -- ./inp_files/17894.got.cif
#   From: 2010.03.12/outbox.cif.g09.slc.cpg/sg67_9_cif.got.tgz:17894.got - 2010.04.10 22:41:39.
