data_PCOD8280759
_publ_section_title
;
Structure prediction by ZEFSAII (Michael W. Deem and Ramdas Pophale) SiO2 
 PCOD8280759
Probable space group: C M M A
;
_chemical_formula_sum "Si O2"
_cell_formula_units_Z 88
_cell_length_a 9.166591
_cell_length_b 15.968421
_cell_length_c 29.793202
_cell_angle_alpha 90.000000
_cell_angle_beta 90.000000
_cell_angle_gamma 90.000000
_cell_volume 4361.009266
_symmetry_space_group_name_H-M "C M M A"
_symmetry_group_IT_number 67
_symmetry_cell_setting 'orthorhombic'
loop_
_space_group_symop_operation_xyz
x,y,z
-x,1/2-y,z
x,-y,-z
-x,1/2+y,-z
-x,-y,-z
x,1/2+y,-z
-x,y,z
x,1/2-y,z
1/2+x,1/2+y,z
1/2-x,-y,z
1/2+x,1/2-y,-z
1/2-x,y,-z
1/2-x,1/2-y,-z
1/2+x,y,-z
1/2-x,1/2+y,z
1/2+x,-y,z
loop_
_atom_site_type_symbol
_atom_site_label
_atom_site_fract_x
_atom_site_fract_y
_atom_site_fract_z
Si Si1 0.673004 0.250000 0.047402
Si Si2 0.671656 0.585026 0.898407
Si Si3 0.830201 0.653258 0.456655
Si Si4 0.831907 0.651834 0.197411
Si Si5 0.660423 0.154059 0.717784
Si Si6 0.826368 0.914833 0.361412
O O1 0.500000 0.250000 0.041533
O O2 0.723589 0.334123 0.073278
O O3 0.750000 0.250000 0.000000
O O4 0.500000 0.572044 0.903931
O O5 0.750000 0.500000 0.915310
O O6 0.715127 0.601697 0.846843
O O7 0.788239 0.750000 0.451160
O O8 0.750000 0.614105 0.500000
O O9 0.776221 0.607651 0.411775
O O10 0.000000 0.640243 0.464425
O O11 0.803583 0.750000 0.188940
O O12 0.738808 0.613734 0.238829
O O13 0.000000 0.636423 0.209301
O O14 0.500000 0.112395 0.709978
O O15 0.638297 0.250000 0.729255
O O16 0.762584 0.150972 0.673819
O O17 0.000000 0.918289 0.357728
O O18 0.750000 0.000000 0.347033
#
# Coordination Sequence:
#
# PCOD8280759 Si02
#       6
#     8  16  16  16  16  16
#     4  10  22  42  64  88 122 162 204 250 301 358
#     4  10  21  38  61  89 121 158 202 250 300 359
#     4   9  19  36  58  81 103 132 174 222 273 332
#     4   9  17  34  59  82 110 153 197 238 288 346
#     4  10  21  36  56  84 115 148 189 236 282 335
#     4  11  23  38  55  77 109 147 186 229 278 336
#
# _framework density 20.178813999999999
#
# number of rings (size 3 to 8) (size 9 to 14) (size 15 to 20)
#    0.000    2.182    0.909    1.636    0.000    6.182 
#    0.000    7.273    0.000    0.000    0.000    0.000 
#    0.000    0.000    0.000    0.000    0.000    0.000 
#
# Total GULP energy -545546.729175 kJ/mol
# GULP energy per Si atom -12398.789299 kJ/mol
# Density = 2.013289 g / cm^3
# Si number density = 20.178814 Si / 1000 Ang^3
#
#
#
# Elastic Constant Matrix: (Units=GPa)
#
#
# Indices 1 2 3 4 5 6 
#
# 1 85.6368 38.8189 66.0072 0.0000 0.0000 0.0000
# 2 38.8189 81.2766 47.4962 0.0000 0.0000 0.0000
# 3 66.0072 47.4962 147.8849 0.0000 0.0000 0.0000
# 4 0.0000 0.0000 0.0000 15.5346 0.0000 0.0000
# 5 0.0000 0.0000 0.0000 0.0000 38.5537 0.0000
# 6 0.0000 0.0000 0.0000 0.0000 0.0000 28.2914
#
#
#
# Elastic Compliance Matrix: (Units=1/GPa)
#
#
# Indices 1 2 3 4 5 6 
#
# 1 0.019428 -0.005185 -0.007006 0.000000 0.000000 0.000000
# 2 -0.005185 0.016530 -0.002995 0.000000 0.000000 0.000000
# 3 -0.007006 -0.002995 0.010851 0.000000 0.000000 0.000000
# 4 0.000000 0.000000 0.000000 0.064373 0.000000 0.000000
# 5 0.000000 0.000000 0.000000 0.000000 0.025938 0.000000
# 6 0.000000 0.000000 0.000000 0.000000 0.000000 0.035346
#
#
# Mechanical properties :
#
#
# Convention : Reuss Voigt Hill
#
# Bulk Modulus (GPa) = 60.83713 68.82699 64.83206
# Shear Modulus (GPa) = 24.00200 27.30769 25.65484
#
# Velocity S-wave (km/s) = 3.45260 3.68269 3.56950
# Velocity P-wave (km/s) = 6.79032 7.22949 7.01334
#
# Compressibility (1/GPa) = 0.01643733
#
# Stress axis : x y z
#
# Youngs Moduli (GPa) = 51.47303 60.49593 92.15717
#
# Poissons Ratio (x) = 0.31365 0.64567
# Poissons Ratio (y) = 0.26687 0.27600
# Poissons Ratio (z) = 0.36063 0.18118
#
# Static dielectric constant tensor:
#      x y z
#    x 3.720380 0.000000 0.000000 
#    y 0.000000 3.524490 0.000000 
#    z 0.000000 0.000000 3.724900 
# 
# 
# High freq. dielectric constant tensor:
#      x y z
#    x 1.783420 0.000000 0.000000 
#    y 0.000000 1.777030 0.000000 
#    z 0.000000 0.000000 1.794620 
# 
# From -- ./inp_files/45215.got.cif
#   From: 2010.03.12/outbox.cif.g09.slc.cpg/sg67_23_cif.got.tgz:45215.got - 2010.04.10 22:41:39.
