data_PCOD8280613
_publ_section_title
;
Structure prediction by ZEFSAII (Michael W. Deem and Ramdas Pophale) SiO2 
 PCOD8280613
Probable space group: C M M A
;
_chemical_formula_sum "Si O2"
_cell_formula_units_Z 112
_cell_length_a 15.069336
_cell_length_b 22.523606
_cell_length_c 15.817269
_cell_angle_alpha 90.000000
_cell_angle_beta 90.000000
_cell_angle_gamma 90.000000
_cell_volume 5368.630802
_symmetry_space_group_name_H-M "C M M A"
_symmetry_group_IT_number 67
_symmetry_cell_setting 'orthorhombic'
loop_
_space_group_symop_operation_xyz
x,y,z
-x,1/2-y,z
x,-y,-z
-x,1/2+y,-z
-x,-y,-z
x,1/2+y,-z
-x,y,z
x,1/2-y,z
1/2+x,1/2+y,z
1/2-x,-y,z
1/2+x,1/2-y,-z
1/2-x,y,-z
1/2-x,1/2-y,-z
1/2+x,y,-z
1/2-x,1/2+y,z
1/2+x,-y,z
loop_
_atom_site_type_symbol
_atom_site_label
_atom_site_fract_x
_atom_site_fract_y
_atom_site_fract_z
Si Si1 0.756718 0.183265 0.755905
Si Si2 0.154112 0.442910 0.957698
Si Si3 0.898302 0.399708 0.297988
Si Si4 0.898381 0.524711 0.218795
Si Si5 0.599237 0.625641 0.652730
Si Si6 0.332912 0.684664 0.939742
Si Si7 0.854144 0.933638 0.513017
O O1 0.724260 0.250000 0.752731
O O2 0.666495 0.148060 0.741816
O O3 0.829174 0.174138 0.681536
O O4 0.801267 0.168674 0.845533
O O5 0.163956 0.457140 0.858796
O O6 0.111591 0.375403 0.968265
O O7 0.101869 0.500000 0.000000
O O8 0.250000 0.439701 0.000000
O O9 0.877207 0.458591 0.246091
O O10 0.879856 0.409219 0.396197
O O11 0.000000 0.379478 0.285270
O O12 0.875092 0.565334 0.298651
O O13 0.000000 0.533127 0.189997
O O14 0.500000 0.647902 0.675622
O O15 0.603151 0.611976 0.553449
O O16 0.383555 0.750000 0.941093
O O17 0.250000 0.692423 0.000000
O O18 0.750000 0.934332 0.500000
O O19 0.893258 0.000000 0.500000
#
# Coordination Sequence:
#
# PCOD8280613 Si02
#       7
#    16  16  16  16  16  16  16
#     4  11  24  42  66  89 122 167 217 265 301 367
#     4  10  21  33  57  90 117 160 202 253 311 369
#     4  11  24  40  63  92 128 166 207 259 316 377
#     4  10  22  38  59  92 129 161 200 257 318 380
#     4  11  22  39  64  94 129 161 202 256 315 379
#     4   9  19  37  59  87 120 161 208 255 311 371
#     4  11  21  37  62  97 127 166 203 254 320 383
#
# _framework density 20.861930000000001
#
# number of rings (size 3 to 8) (size 9 to 14) (size 15 to 20)
#    0.000    1.571    4.286    0.429    6.000    2.000 
#    0.000    1.429    0.000    3.000    0.000    4.000 
#    0.000    0.000    0.000    0.000    0.000    0.000 
#
# Total GULP energy -693884.265018 kJ/mol
# GULP energy per Si atom -12390.790447 kJ/mol
# Density = 2.081445 g / cm^3
# Si number density = 20.861930 Si / 1000 Ang^3
#
#
#
# Elastic Constant Matrix: (Units=GPa)
#
#
# Indices 1 2 3 4 5 6 
#
# 1 63.1420 23.9036 12.7861 0.0000 0.0000 0.0000
# 2 23.9036 161.1076 34.1693 0.0000 0.0000 0.0000
# 3 12.7861 34.1693 88.1305 0.0000 0.0000 0.0000
# 4 0.0000 0.0000 0.0000 49.4022 0.0000 0.0000
# 5 0.0000 0.0000 0.0000 0.0000 19.7049 0.0000
# 6 0.0000 0.0000 0.0000 0.0000 0.0000 -2.4025
#
#
#
# Elastic Compliance Matrix: (Units=1/GPa)
#
#
# Indices 1 2 3 4 5 6 
#
# 1 0.016990 -0.002177 -0.001621 0.000000 0.000000 0.000000
# 2 -0.002177 0.007042 -0.002414 0.000000 0.000000 0.000000
# 3 -0.001621 -0.002414 0.012518 0.000000 0.000000 0.000000
# 4 0.000000 0.000000 0.000000 0.020242 0.000000 0.000000
# 5 0.000000 0.000000 0.000000 0.000000 0.050749 0.000000
# 6 0.000000 0.000000 0.000000 0.000000 0.000000 -0.416236
#
#
# Mechanical properties :
#
#
# Convention : Reuss Voigt Hill
#
# Bulk Modulus (GPa) = 41.45033 50.45535 45.95284
# Shear Modulus (GPa) = -17.34731 29.44235 6.04752
#
# Velocity S-wave (km/s) = -2.88675 3.76080 1.70444
# Velocity P-wave (km/s) = 2.96663 6.56475 5.09396
#
# Compressibility (1/GPa) = 0.02412526
#
# Stress axis : x y z
#
# Youngs Moduli (GPa) = 58.85927 142.00269 79.88444
#
# Poissons Ratio (x) = 0.30914 0.12948
# Poissons Ratio (y) = 0.12814 0.19288
# Poissons Ratio (z) = 0.09540 0.34286
#
# Static dielectric constant tensor:
#      x y z
#    x 3.550290 0.000000 0.000000 
#    y 0.000000 4.418510 0.000000 
#    z 0.000000 0.000000 3.871930 
# 
# 
# High freq. dielectric constant tensor:
#      x y z
#    x 1.789730 0.000000 0.000000 
#    y 0.000000 1.819410 0.000000 
#    z 0.000000 0.000000 1.827030 
# 
# From -- ./inp_files/27589.got.cif
#   From: 2010.03.12/outbox.cif.g09.slc.cpg/sg67_14_cif.got.tgz:27589.got - 2010.04.10 22:41:39.
