data_PCOD8280663
_publ_section_title
;
Structure prediction by ZEFSAII (Michael W. Deem and Ramdas Pophale) SiO2 
 PCOD8280663
Probable space group: C M M A
;
_chemical_formula_sum "Si O2"
_cell_formula_units_Z 64
_cell_length_a 9.044782
_cell_length_b 27.124500
_cell_length_c 12.839359
_cell_angle_alpha 90.000000
_cell_angle_beta 90.000000
_cell_angle_gamma 90.000000
_cell_volume 3149.946572
_symmetry_space_group_name_H-M "C M M A"
_symmetry_group_IT_number 67
_symmetry_cell_setting 'orthorhombic'
loop_
_space_group_symop_operation_xyz
x,y,z
-x,1/2-y,z
x,-y,-z
-x,1/2+y,-z
-x,-y,-z
x,1/2+y,-z
-x,y,z
x,1/2-y,z
1/2+x,1/2+y,z
1/2-x,-y,z
1/2+x,1/2-y,-z
1/2-x,y,-z
1/2-x,1/2-y,-z
1/2+x,y,-z
1/2-x,1/2+y,z
1/2+x,-y,z
loop_
_atom_site_type_symbol
_atom_site_label
_atom_site_fract_x
_atom_site_fract_y
_atom_site_fract_z
Si Si1 0.821446 0.750000 0.885317
Si Si2 0.750000 0.500000 0.271288
Si Si3 0.157892 0.437010 0.906357
Si Si4 0.169751 0.404451 0.390682
Si Si5 0.822179 0.344156 0.783875
O O1 0.763601 0.704231 0.818576
O O2 0.000000 0.750000 0.894024
O O3 0.750000 0.750000 0.000000
O O4 0.862949 0.527259 0.193094
O O5 0.831201 0.459054 0.340380
O O6 0.223074 0.384737 0.869644
O O7 0.000000 0.427745 0.956923
O O8 0.250000 0.460536 0.000000
O O9 0.250000 0.408791 0.500000
O O10 0.258693 0.363096 0.326187
O O11 0.000000 0.387629 0.403935
O O12 0.000000 0.336410 0.775849
#
# Coordination Sequence:
#
# PCOD8280663 Si02
#       5
#     8   8  16  16  16
#     4  12  24  40  65  96 127 160 198 240 292 350
#     4  10  22  36  56  82 116 156 202 248 292 348
#     4  10  21  35  53  80 115 155 196 239 289 346
#     4  11  23  40  62  87 117 155 200 250 304 358
#     4  10  22  41  62  87 120 156 198 247 299 356
#
# _framework density 20.317806000000001
#
# number of rings (size 3 to 8) (size 9 to 14) (size 15 to 20)
#    0.000    1.500    0.000    4.875    0.000   13.000 
#    0.000    0.625    0.000    0.000    0.000    0.000 
#    0.000    0.000    0.000    0.000    0.000    0.000 
#
# Total GULP energy -396540.766469 kJ/mol
# GULP energy per Si atom -12391.898952 kJ/mol
# Density = 2.027156 g / cm^3
# Si number density = 20.317806 Si / 1000 Ang^3
#
#
#
# Elastic Constant Matrix: (Units=GPa)
#
#
# Indices 1 2 3 4 5 6 
#
# 1 142.1717 52.1146 69.7042 0.0000 0.0000 0.0000
# 2 52.1146 142.0001 64.2103 0.0000 0.0000 0.0000
# 3 69.7042 64.2103 152.8566 0.0000 0.0000 0.0000
# 4 0.0000 0.0000 0.0000 13.5859 0.0000 0.0000
# 5 0.0000 0.0000 0.0000 0.0000 32.4412 0.0000
# 6 0.0000 0.0000 0.0000 0.0000 0.0000 11.1159
#
#
#
# Elastic Compliance Matrix: (Units=1/GPa)
#
#
# Indices 1 2 3 4 5 6 
#
# 1 0.009447 -0.001875 -0.003520 0.000000 0.000000 0.000000
# 2 -0.001875 0.009066 -0.002953 0.000000 0.000000 0.000000
# 3 -0.003520 -0.002953 0.009388 0.000000 0.000000 0.000000
# 4 0.000000 0.000000 0.000000 0.073605 0.000000 0.000000
# 5 0.000000 0.000000 0.000000 0.000000 0.030825 0.000000
# 6 0.000000 0.000000 0.000000 0.000000 0.000000 0.089961
#
#
# Mechanical properties :
#
#
# Convention : Reuss Voigt Hill
#
# Bulk Modulus (GPa) = 89.25800 89.89852 89.57826
# Shear Modulus (GPa) = 20.59951 28.16189 24.38070
#
# Velocity S-wave (km/s) = 3.18758 3.72703 3.46781
# Velocity P-wave (km/s) = 7.58774 7.92864 7.76006
#
# Compressibility (1/GPa) = 0.01120348
#
# Stress axis : x y z
#
# Youngs Moduli (GPa) = 105.85310 110.30398 106.52086
#
# Poissons Ratio (x) = 0.20686 0.37497
# Poissons Ratio (y) = 0.19851 0.31457
# Poissons Ratio (z) = 0.37262 0.32574
#
# Static dielectric constant tensor:
#      x y z
#    x 3.733910 0.000000 0.000000 
#    y 0.000000 3.766840 0.000000 
#    z 0.000000 0.000000 3.756730 
# 
# 
# High freq. dielectric constant tensor:
#      x y z
#    x 1.801720 0.000000 0.000000 
#    y 0.000000 1.794810 0.000000 
#    z 0.000000 0.000000 1.795610 
# 
# From -- ./inp_files/24866.got.cif
#   From: 2010.03.12/outbox.cif.g09.slc.cpg/sg67_13_cif.got.tgz:24866.got - 2010.04.10 22:41:39.
