data_PCOD8280868
_publ_section_title
;
Structure prediction by ZEFSAII (Michael W. Deem and Ramdas Pophale) SiO2 
 PCOD8280868
Probable space group: C M M A
;
_chemical_formula_sum "Si O2"
_cell_formula_units_Z 80
_cell_length_a 9.251857
_cell_length_b 18.414911
_cell_length_c 23.560818
_cell_angle_alpha 90.000000
_cell_angle_beta 90.000000
_cell_angle_gamma 90.000000
_cell_volume 4014.106588
_symmetry_space_group_name_H-M "C M M A"
_symmetry_group_IT_number 67
_symmetry_cell_setting 'orthorhombic'
loop_
_space_group_symop_operation_xyz
x,y,z
-x,1/2-y,z
x,-y,-z
-x,1/2+y,-z
-x,-y,-z
x,1/2+y,-z
-x,y,z
x,1/2-y,z
1/2+x,1/2+y,z
1/2-x,-y,z
1/2+x,1/2-y,-z
1/2-x,y,-z
1/2-x,1/2-y,-z
1/2+x,y,-z
1/2-x,1/2+y,z
1/2+x,-y,z
loop_
_atom_site_type_symbol
_atom_site_label
_atom_site_fract_x
_atom_site_fract_y
_atom_site_fract_z
Si Si1 0.334261 0.836125 0.665358
Si Si2 0.722657 0.915612 0.122064
Si Si3 0.000000 0.581714 0.974134
Si Si4 0.000000 0.835801 0.088521
Si Si5 0.335397 0.336495 0.554849
Si Si6 0.337927 0.074389 0.753800
O O1 0.500000 0.863931 0.664274
O O2 0.330046 0.750000 0.668000
O O3 0.251321 0.865223 0.609626
O O4 0.250117 0.865130 0.719911
O O5 0.636222 0.899519 0.064785
O O6 0.644020 0.898183 0.181261
O O7 0.864939 0.867533 0.122024
O O8 0.750000 0.000000 0.120498
O O9 0.000000 0.500000 0.000000
O O10 0.000000 0.639816 0.023656
O O11 0.000000 0.750000 0.092090
O O12 0.500000 0.366493 0.555207
O O13 0.338074 0.250000 0.554111
O O14 0.250000 0.366287 0.500000
O O15 0.500000 0.064524 0.728970
O O16 0.250000 0.000000 0.749427
#
# Coordination Sequence:
#
# PCOD8280868 Si02
#       6
#    16  16   8   8  16  16
#     4  10  21  37  59  87 122 166 209 256 319 376
#     4  11  23  42  67  93 120 164 212 253 309 385
#     4  12  22  42  70  98 120 164 213 259 310 389
#     4  12  28  42  64 100 134 158 199 265 327 371
#     4   9  16  28  50  82 120 160 209 263 313 371
#     4  11  24  41  63  90 120 157 209 260 303 369
#
# _framework density 19.929714000000001
#
# number of rings (size 3 to 8) (size 9 to 14) (size 15 to 20)
#    0.000    1.400    3.000    2.400    5.600    6.000 
#    0.000    0.000    0.000    0.600    0.000    4.200 
#    0.000    0.000    0.000    0.000    0.000    0.000 
#
# Total GULP energy -495917.469873 kJ/mol
# GULP energy per Si atom -12397.936747 kJ/mol
# Density = 1.988435 g / cm^3
# Si number density = 19.929714 Si / 1000 Ang^3
#
#
#
# Elastic Constant Matrix: (Units=GPa)
#
#
# Indices 1 2 3 4 5 6 
#
# 1 180.6078 40.7911 49.5399 0.0000 0.0000 0.0000
# 2 40.7911 73.6015 22.4428 0.0000 0.0000 0.0000
# 3 49.5399 22.4428 104.6077 0.0000 0.0000 0.0000
# 4 0.0000 0.0000 0.0000 23.6526 0.0000 0.0000
# 5 0.0000 0.0000 0.0000 0.0000 38.3807 0.0000
# 6 0.0000 0.0000 0.0000 0.0000 0.0000 22.4191
#
#
#
# Elastic Compliance Matrix: (Units=1/GPa)
#
#
# Indices 1 2 3 4 5 6 
#
# 1 0.006948 -0.003047 -0.002637 0.000000 0.000000 0.000000
# 2 -0.003047 0.015874 -0.001963 0.000000 0.000000 0.000000
# 3 -0.002637 -0.001963 0.011229 0.000000 0.000000 0.000000
# 4 0.000000 0.000000 0.000000 0.042279 0.000000 0.000000
# 5 0.000000 0.000000 0.000000 0.000000 0.026055 0.000000
# 6 0.000000 0.000000 0.000000 0.000000 0.000000 0.044605
#
#
# Mechanical properties :
#
#
# Convention : Reuss Voigt Hill
#
# Bulk Modulus (GPa) = 53.30878 64.92941 59.11910
# Shear Modulus (GPa) = 29.66739 33.29337 31.48038
#
# Velocity S-wave (km/s) = 3.86242 4.09166 3.97869
# Velocity P-wave (km/s) = 6.83356 7.41432 7.12986
#
# Compressibility (1/GPa) = 0.01875864
#
# Stress axis : x y z
#
# Youngs Moduli (GPa) = 143.92058 62.99713 89.05216
#
# Poissons Ratio (x) = 0.19194 0.23482
# Poissons Ratio (y) = 0.43850 0.17478
# Poissons Ratio (z) = 0.37950 0.12364
#
# Static dielectric constant tensor:
#      x y z
#    x 3.812920 0.000000 0.000000 
#    y 0.000000 3.203360 0.000000 
#    z 0.000000 0.000000 4.117860 
# 
# 
# High freq. dielectric constant tensor:
#      x y z
#    x 1.799600 0.000000 0.000000 
#    y 0.000000 1.734340 0.000000 
#    z 0.000000 0.000000 1.792310 
# 
# From -- ./inp_files/40587.got.cif
#   From: 2010.03.12/outbox.cif.g09.slc.cpg/sg67_21_cif.got.tgz:40587.got - 2010.04.10 22:41:39.
