data_PCOD8280426
_publ_section_title
;
Structure prediction by ZEFSAII (Michael W. Deem and Ramdas Pophale) SiO2 
 PCOD8280426
Probable space group: C M M A
;
_chemical_formula_sum "Si O2"
_cell_formula_units_Z 112
_cell_length_a 21.920000
_cell_length_b 14.900204
_cell_length_c 14.902227
_cell_angle_alpha 90.000000
_cell_angle_beta 90.000000
_cell_angle_gamma 90.000000
_cell_volume 4867.253194
_symmetry_space_group_name_H-M "C M M A"
_symmetry_group_IT_number 67
_symmetry_cell_setting 'orthorhombic'
loop_
_space_group_symop_operation_xyz
x,y,z
-x,1/2-y,z
x,-y,-z
-x,1/2+y,-z
-x,-y,-z
x,1/2+y,-z
-x,y,z
x,1/2-y,z
1/2+x,1/2+y,z
1/2-x,-y,z
1/2+x,1/2-y,-z
1/2-x,y,-z
1/2-x,1/2-y,-z
1/2+x,y,-z
1/2-x,1/2+y,z
1/2+x,-y,z
loop_
_atom_site_type_symbol
_atom_site_label
_atom_site_fract_x
_atom_site_fract_y
_atom_site_fract_z
Si Si1 0.131618 0.849753 0.733235
Si Si2 0.879376 0.147251 0.637864
Si Si3 0.734419 0.601005 0.741144
Si Si4 0.431394 0.355590 0.550194
Si Si5 0.434917 0.148766 0.058477
Si Si6 0.433914 0.985182 0.779855
Si Si7 0.198034 0.853850 0.063120
O O1 0.105511 0.750000 0.756877
O O2 0.204278 0.840902 0.740209
O O3 0.107617 0.885023 0.636839
O O4 0.109228 0.928465 0.799985
O O5 0.902012 0.250000 0.651650
O O6 0.807967 0.141400 0.662904
O O7 0.892785 0.114075 0.536753
O O8 0.915003 0.078750 0.699605
O O9 0.750000 0.500000 0.715583
O O10 0.699357 0.602565 0.837544
O O11 0.500000 0.397661 0.550353
O O12 0.437694 0.250000 0.550657
O O13 0.500000 0.138948 0.001977
O O14 0.433125 0.250000 0.098796
O O15 0.437769 0.074643 0.133171
O O16 0.368257 0.133092 0.012637
O O17 0.500000 0.025564 0.756660
O O18 0.213529 0.750000 0.077333
O O19 0.250000 0.898079 0.000000
#
# Coordination Sequence:
#
# PCOD8280426 Si02
#       7
#    16  16  16  16  16  16  16
#     4  11  23  40  59  81 120 170 213 254 298 358
#     4  11  21  37  61  89 121 152 195 257 316 365
#     4  12  23  41  61  88 124 160 207 254 306 371
#     4   9  20  38  59  85 117 157 207 258 310 363
#     4   9  17  32  57  91 130 164 198 253 319 372
#     4  11  21  34  57  89 120 158 202 247 302 362
#     4  10  20  36  61  94 126 160 204 250 304 374
#
# _framework density 23.010923999999999
#
# number of rings (size 3 to 8) (size 9 to 14) (size 15 to 20)
#    0.000    1.571    2.857    2.571    0.000    3.714 
#    0.000    4.286    0.000    1.714    0.000    9.000 
#    0.000    0.000    0.000    0.000    0.000    0.000 
#
# Total GULP energy -693733.363438 kJ/mol
# GULP energy per Si atom -12388.095776 kJ/mol
# Density = 2.295855 g / cm^3
# Si number density = 23.010924 Si / 1000 Ang^3
#
#
#
# Elastic Constant Matrix: (Units=GPa)
#
#
# Indices 1 2 3 4 5 6 
#
# 1 199.7575 14.4587 28.4771 0.0000 0.0000 0.0000
# 2 14.4587 90.0217 4.9583 0.0000 0.0000 0.0000
# 3 28.4771 4.9583 28.9745 0.0000 0.0000 0.0000
# 4 0.0000 0.0000 0.0000 -68.3743 0.0000 0.0000
# 5 0.0000 0.0000 0.0000 0.0000 35.9629 0.0000
# 6 0.0000 0.0000 0.0000 0.0000 0.0000 24.7491
#
#
#
# Elastic Compliance Matrix: (Units=1/GPa)
#
#
# Indices 1 2 3 4 5 6 
#
# 1 0.005857 -0.000630 -0.005649 0.000000 0.000000 0.000000
# 2 -0.000630 0.011282 -0.001312 0.000000 0.000000 0.000000
# 3 -0.005649 -0.001312 0.040289 0.000000 0.000000 0.000000
# 4 0.000000 0.000000 0.000000 -0.014625 0.000000 0.000000
# 5 0.000000 0.000000 0.000000 0.000000 0.027806 0.000000
# 6 0.000000 0.000000 0.000000 0.000000 0.000000 0.040406
#
#
# Mechanical properties :
#
#
# Convention : Reuss Voigt Hill
#
# Bulk Modulus (GPa) = 23.66983 46.06021 34.86502
# Shear Modulus (GPa) = 35.64370 16.52485 26.08427
#
# Velocity S-wave (km/s) = 3.93999 2.68270 3.37049
# Velocity P-wave (km/s) = 5.56837 5.44573 5.50739
#
# Compressibility (1/GPa) = 0.04224787
#
# Stress axis : x y z
#
# Youngs Moduli (GPa) = 170.73892 88.63827 24.82051
#
# Poissons Ratio (x) = 0.05580 0.14020
# Poissons Ratio (y) = 0.10749 0.03256
# Poissons Ratio (z) = 0.96444 0.11628
#
# Static dielectric constant tensor:
#      x y z
#    x 4.946190 0.000000 0.000000 
#    y 0.000000 4.094160 0.000000 
#    z 0.000000 0.000000 4.017270 
# 
# 
# High freq. dielectric constant tensor:
#      x y z
#    x 1.930160 0.000000 0.000000 
#    y 0.000000 1.917900 0.000000 
#    z 0.000000 0.000000 1.865010 
# 
# From -- ./inp_files/30132.got.cif
#   From: 2010.03.12/outbox.cif.g09.slc.cpg/sg67_16_cif.got.tgz:30132.got - 2010.04.10 22:41:39.
