data_PCOD8280225
_publ_section_title
;
Structure prediction by ZEFSAII (Michael W. Deem and Ramdas Pophale) SiO2 
 PCOD8280225
Probable space group: C M M A
;
_chemical_formula_sum "Si O2"
_cell_formula_units_Z 96
_cell_length_a 17.635482
_cell_length_b 17.464679
_cell_length_c 15.261612
_cell_angle_alpha 90.000000
_cell_angle_beta 90.000000
_cell_angle_gamma 90.000000
_cell_volume 4700.546463
_symmetry_space_group_name_H-M "C M M A"
_symmetry_group_IT_number 67
_symmetry_cell_setting 'orthorhombic'
loop_
_space_group_symop_operation_xyz
x,y,z
-x,1/2-y,z
x,-y,-z
-x,1/2+y,-z
-x,-y,-z
x,1/2+y,-z
-x,y,z
x,1/2-y,z
1/2+x,1/2+y,z
1/2-x,-y,z
1/2+x,1/2-y,-z
1/2-x,y,-z
1/2-x,1/2-y,-z
1/2+x,y,-z
1/2-x,1/2+y,z
1/2+x,-y,z
loop_
_atom_site_type_symbol
_atom_site_label
_atom_site_fract_x
_atom_site_fract_y
_atom_site_fract_z
Si Si1 0.665771 0.840897 0.485891
Si Si2 0.087857 0.160334 0.662467
Si Si3 0.832394 0.095138 0.826484
Si Si4 0.340697 0.583078 0.151659
Si Si5 0.412309 0.837518 0.312091
Si Si6 0.087110 0.338536 0.988439
O O1 0.667035 0.750000 0.480022
O O2 0.750000 0.874152 0.500000
O O3 0.611990 0.866716 0.565557
O O4 0.633452 0.873053 0.394290
O O5 0.104637 0.250000 0.676154
O O6 0.137781 0.111805 0.729567
O O7 0.000000 0.141257 0.676627
O O8 0.743382 0.113899 0.829042
O O9 0.877274 0.149552 0.892949
O O10 0.846435 0.007782 0.851648
O O11 0.396782 0.613773 0.225753
O O12 0.366083 0.612019 0.057188
O O13 0.500000 0.842956 0.336457
O O14 0.388278 0.750000 0.293631
O O15 0.093169 0.250000 0.014580
O O16 0.000000 0.365552 0.987257
#
# Coordination Sequence:
#
# PCOD8280225 Si02
#       6
#    16  16  16  16  16  16
#     4   9  17  31  54  83 114 149 188 232 282 331
#     4  10  20  35  57  85 115 148 189 235 281 332
#     4  11  24  40  58  83 115 150 188 230 278 333
#     4  11  24  40  58  83 115 150 188 230 278 333
#     4  10  20  35  57  85 115 148 189 235 281 332
#     4  11  24  41  62  88 114 143 184 231 278 332
#
# _framework density 20.423157
#
# number of rings (size 3 to 8) (size 9 to 14) (size 15 to 20)
#    0.000    1.667    0.000    4.500    0.000   14.000 
#    0.000    0.833    0.000    5.000    0.000    0.000 
#    0.000    0.000    0.000    0.000    0.000    0.000 
#
# Total GULP energy -595494.299530 kJ/mol
# GULP energy per Si atom -12406.131240 kJ/mol
# Density = 2.037667 g / cm^3
# Si number density = 20.423157 Si / 1000 Ang^3
#
#
#
# Elastic Constant Matrix: (Units=GPa)
#
#
# Indices 1 2 3 4 5 6 
#
# 1 98.0329 22.1109 15.0215 0.0000 0.0000 0.0000
# 2 22.1109 43.3428 9.7299 0.0000 0.0000 0.0000
# 3 15.0215 9.7299 93.9615 0.0000 0.0000 0.0000
# 4 0.0000 0.0000 0.0000 -3.4781 0.0000 0.0000
# 5 0.0000 0.0000 0.0000 0.0000 46.4827 0.0000
# 6 0.0000 0.0000 0.0000 0.0000 0.0000 23.9778
#
#
#
# Elastic Compliance Matrix: (Units=1/GPa)
#
#
# Indices 1 2 3 4 5 6 
#
# 1 0.011675 -0.005669 -0.001280 0.000000 0.000000 0.000000
# 2 -0.005669 0.026373 -0.001825 0.000000 0.000000 0.000000
# 3 -0.001280 -0.001825 0.011036 0.000000 0.000000 0.000000
# 4 0.000000 0.000000 0.000000 -0.287509 0.000000 0.000000
# 5 0.000000 0.000000 0.000000 0.000000 0.021513 0.000000
# 6 0.000000 0.000000 0.000000 0.000000 0.000000 0.041705
#
#
# Mechanical properties :
#
#
# Convention : Reuss Voigt Hill
#
# Bulk Modulus (GPa) = 31.70702 36.56242 34.13472
# Shear Modulus (GPa) = -33.97969 25.96146 -4.00911
#
# Velocity S-wave (km/s) = -4.08337 3.56923 -1.40260
# Velocity P-wave (km/s) = 2.58325 5.90992 3.75859
#
# Compressibility (1/GPa) = 0.03153875
#
# Stress axis : x y z
#
# Youngs Moduli (GPa) = 85.65092 37.91699 90.61122
#
# Poissons Ratio (x) = 0.21494 0.11594
# Poissons Ratio (y) = 0.48554 0.16534
# Poissons Ratio (z) = 0.10959 0.06919
#
# Static dielectric constant tensor:
#      x y z
#    x 3.859880 0.000000 0.000000 
#    y 0.000000 3.427490 0.000000 
#    z 0.000000 0.000000 3.725870 
# 
# 
# High freq. dielectric constant tensor:
#      x y z
#    x 1.813660 0.000000 0.000000 
#    y 0.000000 1.773050 0.000000 
#    z 0.000000 0.000000 1.813470 
# 
# From -- ./inp_files/27177.got.cif
#   From: 2010.03.12/outbox.cif.g09.slc.cpg/sg67_14_cif.got.tgz:27177.got - 2010.04.10 22:41:39.
