data_PCOD8280243
_publ_section_title
;
Structure prediction by ZEFSAII (Michael W. Deem and Ramdas Pophale) SiO2 
 PCOD8280243
Probable space group: C M M A
;
_chemical_formula_sum "Si O2"
_cell_formula_units_Z 72
_cell_length_a 9.063771
_cell_length_b 14.619015
_cell_length_c 28.712800
_cell_angle_alpha 90.000000
_cell_angle_beta 90.000000
_cell_angle_gamma 90.000000
_cell_volume 3804.543744
_symmetry_space_group_name_H-M "C M M A"
_symmetry_group_IT_number 67
_symmetry_cell_setting 'orthorhombic'
loop_
_space_group_symop_operation_xyz
x,y,z
-x,1/2-y,z
x,-y,-z
-x,1/2+y,-z
-x,-y,-z
x,1/2+y,-z
-x,y,z
x,1/2-y,z
1/2+x,1/2+y,z
1/2-x,-y,z
1/2+x,1/2-y,-z
1/2-x,y,-z
1/2-x,1/2-y,-z
1/2+x,y,-z
1/2-x,1/2+y,z
1/2+x,-y,z
loop_
_atom_site_type_symbol
_atom_site_label
_atom_site_fract_x
_atom_site_fract_y
_atom_site_fract_z
Si Si1 0.173419 0.409917 0.860861
Si Si2 0.174516 0.250000 0.306542
Si Si3 0.830091 0.250000 0.791073
Si Si4 0.172978 0.750000 0.549200
Si Si5 0.326030 0.401518 0.622217
Si Si6 0.165663 0.358004 0.044916
O O1 0.250000 0.500000 0.841121
O O2 0.211546 0.336335 0.822051
O O3 0.242234 0.384838 0.910172
O O4 0.000000 0.422294 0.867931
O O5 0.233936 0.250000 0.254791
O O6 0.227220 0.342268 0.333052
O O7 0.000000 0.250000 0.305619
O O8 0.000000 0.250000 0.776234
O O9 0.250000 0.750000 0.500000
O O10 0.218920 0.658037 0.576957
O O11 0.000000 0.750000 0.541165
O O12 0.500000 0.417886 0.623761
O O13 0.250000 0.500000 0.621400
O O14 0.156378 0.250000 0.040852
O O15 0.000000 0.399206 0.047734
O O16 0.250000 0.398780 0.000000
#
# Coordination Sequence:
#
# PCOD8280243 Si02
#       6
#    16   8   8   8  16  16
#     4  11  23  40  59  83 113 145 182 225 273 328
#     4   9  20  38  59  80 108 144 183 227 280 336
#     4  10  23  41  60  82 113 145 179 228 281 332
#     4   9  19  35  53  78 116 155 194 233 279 330
#     4   9  19  36  56  81 112 148 188 235 281 329
#     4  10  20  35  58  85 112 145 182 221 269 324
#
# _framework density 18.924738999999999
#
# number of rings (size 3 to 8) (size 9 to 14) (size 15 to 20)
#    0.000    2.222    1.111    2.667    0.000    6.222 
#    0.000   11.111    0.000    0.000    0.000    0.000 
#    0.000    0.000    0.000    0.000    0.000    0.000 
#
# Total GULP energy -446349.839198 kJ/mol
# GULP energy per Si atom -12398.606644 kJ/mol
# Density = 1.888167 g / cm^3
# Si number density = 18.924739 Si / 1000 Ang^3
#
#
#
# Elastic Constant Matrix: (Units=GPa)
#
#
# Indices 1 2 3 4 5 6 
#
# 1 97.6607 63.4611 67.9158 0.0000 0.0000 0.0000
# 2 63.4611 127.6995 70.3556 0.0000 0.0000 0.0000
# 3 67.9158 70.3556 150.0538 0.0000 0.0000 0.0000
# 4 0.0000 0.0000 0.0000 19.2642 0.0000 0.0000
# 5 0.0000 0.0000 0.0000 0.0000 120.2176 0.0000
# 6 0.0000 0.0000 0.0000 0.0000 0.0000 33.5439
#
#
#
# Elastic Compliance Matrix: (Units=1/GPa)
#
#
# Indices 1 2 3 4 5 6 
#
# 1 0.017741 -0.005922 -0.005253 0.000000 0.000000 0.000000
# 2 -0.005922 0.012535 -0.003197 0.000000 0.000000 0.000000
# 3 -0.005253 -0.003197 0.010541 0.000000 0.000000 0.000000
# 4 0.000000 0.000000 0.000000 0.051910 0.000000 0.000000
# 5 0.000000 0.000000 0.000000 0.000000 0.008318 0.000000
# 6 0.000000 0.000000 0.000000 0.000000 0.000000 0.029812
#
#
# Mechanical properties :
#
#
# Convention : Reuss Voigt Hill
#
# Bulk Modulus (GPa) = 82.83198 86.54210 84.68704
# Shear Modulus (GPa) = 30.55757 46.18392 38.37075
#
# Velocity S-wave (km/s) = 4.02268 4.94540 4.50771
# Velocity P-wave (km/s) = 8.08951 8.85653 8.48169
#
# Compressibility (1/GPa) = 0.01207263
#
# Stress axis : x y z
#
# Youngs Moduli (GPa) = 56.36652 79.77404 94.87016
#
# Poissons Ratio (x) = 0.47246 0.49834
# Poissons Ratio (y) = 0.33383 0.30329
# Poissons Ratio (z) = 0.29609 0.25503
#
# Static dielectric constant tensor:
#      x y z
#    x 3.523610 0.000000 0.000000 
#    y 0.000000 3.693000 0.000000 
#    z 0.000000 0.000000 4.888180 
# 
# 
# High freq. dielectric constant tensor:
#      x y z
#    x 1.738050 0.000000 0.000000 
#    y 0.000000 1.744600 0.000000 
#    z 0.000000 0.000000 1.735410 
# 
# From -- ./inp_files/43135.got.cif
#   From: 2010.03.12/outbox.cif.g09.slc.cpg/sg67_22_cif.got.tgz:43135.got - 2010.04.10 22:41:39.
