data_PCOD8280163
_publ_section_title
;
Structure prediction by ZEFSAII (Michael W. Deem and Ramdas Pophale) SiO2 
 PCOD8280163
Probable space group: C M M A
;
_chemical_formula_sum "Si O2"
_cell_formula_units_Z 120
_cell_length_a 26.139894
_cell_length_b 8.852727
_cell_length_c 27.578765
_cell_angle_alpha 90.000000
_cell_angle_beta 90.000000
_cell_angle_gamma 90.000000
_cell_volume 6381.983955
_symmetry_space_group_name_H-M "C M M A"
_symmetry_group_IT_number 67
_symmetry_cell_setting 'orthorhombic'
loop_
_space_group_symop_operation_xyz
x,y,z
-x,1/2-y,z
x,-y,-z
-x,1/2+y,-z
-x,-y,-z
x,1/2+y,-z
-x,y,z
x,1/2-y,z
1/2+x,1/2+y,z
1/2-x,-y,z
1/2+x,1/2-y,-z
1/2-x,y,-z
1/2-x,1/2-y,-z
1/2+x,y,-z
1/2-x,1/2+y,z
1/2+x,-y,z
loop_
_atom_site_type_symbol
_atom_site_label
_atom_site_fract_x
_atom_site_fract_y
_atom_site_fract_z
Si Si1 0.442080 0.075784 0.093762
Si Si2 0.402678 0.578644 0.804081
Si Si3 0.000000 0.928734 0.447661
Si Si4 0.151527 0.428209 0.049995
Si Si5 0.442966 0.072828 0.710117
Si Si6 0.197058 0.571117 0.551974
Si Si7 0.800154 0.076442 0.857793
Si Si8 0.405815 0.572978 0.393105
O O1 0.500000 0.054547 0.076623
O O2 0.423593 0.250000 0.089474
O O3 0.436405 0.025419 0.149843
O O4 0.407537 0.974000 0.058973
O O5 0.416262 0.750000 0.790516
O O6 0.414054 0.477434 0.758119
O O7 0.343382 0.558669 0.817241
O O8 0.000000 0.750000 0.451816
O O9 0.000000 0.000000 0.500000
O O10 0.051292 0.980292 0.421059
O O11 0.156328 0.250000 0.046957
O O12 0.186394 0.490321 0.092892
O O13 0.171065 0.500000 0.000000
O O14 0.500000 0.000678 0.706943
O O15 0.448530 0.250000 0.712394
O O16 0.409569 0.025936 0.663345
O O17 0.183747 0.500000 0.500000
O O18 0.203947 0.750000 0.546372
O O19 0.250000 0.500000 0.572322
O O20 0.150842 0.530142 0.588324
O O21 0.790432 0.250000 0.870812
O O22 0.750000 0.000000 0.835139
O O23 0.417036 0.750000 0.400897
#
# Coordination Sequence:
#
# PCOD8280163 Si02
#       8
#    16  16   8  16  16  16  16  16
#     4   9  18  34  54  76 106 143 181 226 274 320
#     4   9  19  35  55  80 109 139 176 223 271 321
#     4  12  24  36  56  84 114 152 190 234 285 342
#     4  11  22  36  54  78 109 143 180 222 269 329
#     4  10  20  35  56  80 112 150 184 223 272 325
#     4  10  20  35  58  81 107 144 185 233 280 329
#     4  10  21  39  60  82 108 139 177 226 278 327
#     4  10  21  39  57  79 115 153 189 234 285 335
#
# _framework density 18.802931000000001
#
# number of rings (size 3 to 8) (size 9 to 14) (size 15 to 20)
#    0.000    2.000    0.667    4.600    0.000    6.933 
#    0.000    2.000    0.000    3.200    0.000    0.000 
#    0.000    0.000    0.000    0.000    0.000    0.000 
#
# Total GULP energy -744078.614070 kJ/mol
# GULP energy per Si atom -12401.310235 kJ/mol
# Density = 1.876013 g / cm^3
# Si number density = 18.802931 Si / 1000 Ang^3
#
#
#
# Elastic Constant Matrix: (Units=GPa)
#
#
# Indices 1 2 3 4 5 6 
#
# 1 110.2151 43.0568 37.0047 0.0000 0.0000 0.0000
# 2 43.0568 95.1422 38.9529 0.0000 0.0000 0.0000
# 3 37.0047 38.9529 101.8438 0.0000 0.0000 0.0000
# 4 0.0000 0.0000 0.0000 31.0469 0.0000 0.0000
# 5 0.0000 0.0000 0.0000 0.0000 18.4908 0.0000
# 6 0.0000 0.0000 0.0000 0.0000 0.0000 32.3292
#
#
#
# Elastic Compliance Matrix: (Units=1/GPa)
#
#
# Indices 1 2 3 4 5 6 
#
# 1 0.011580 -0.004171 -0.002612 0.000000 0.000000 0.000000
# 2 -0.004171 0.013964 -0.003826 0.000000 0.000000 0.000000
# 3 -0.002612 -0.003826 0.012231 0.000000 0.000000 0.000000
# 4 0.000000 0.000000 0.000000 0.032209 0.000000 0.000000
# 5 0.000000 0.000000 0.000000 0.000000 0.054081 0.000000
# 6 0.000000 0.000000 0.000000 0.000000 0.000000 0.030932
#
#
# Mechanical properties :
#
#
# Convention : Reuss Voigt Hill
#
# Bulk Modulus (GPa) = 60.39370 60.58109 60.48740
# Shear Modulus (GPa) = 27.51274 28.91915 28.21595
#
# Velocity S-wave (km/s) = 3.82935 3.92601 3.87798
# Velocity P-wave (km/s) = 7.19312 7.26913 7.23122
#
# Compressibility (1/GPa) = 0.01655802
#
# Stress axis : x y z
#
# Youngs Moduli (GPa) = 86.35872 71.61071 81.75769
#
# Poissons Ratio (x) = 0.29868 0.21356
# Poissons Ratio (y) = 0.36019 0.31277
# Poissons Ratio (z) = 0.22558 0.27395
#
# Static dielectric constant tensor:
#      x y z
#    x 3.571410 0.000000 0.000000 
#    y 0.000000 3.461670 0.000000 
#    z 0.000000 0.000000 3.173420 
# 
# 
# High freq. dielectric constant tensor:
#      x y z
#    x 1.736180 0.000000 0.000000 
#    y 0.000000 1.730930 0.000000 
#    z 0.000000 0.000000 1.722220 
# 
# From -- ./inp_files/45046.got.cif
#   From: 2010.03.12/outbox.cif.g09.slc.cpg/sg67_23_cif.got.tgz:45046.got - 2010.04.10 22:41:39.
