data_PCOD8280581
_publ_section_title
;
Structure prediction by ZEFSAII (Michael W. Deem and Ramdas Pophale) SiO2 
 PCOD8280581
Probable space group: C M M A
;
_chemical_formula_sum "Si O2"
_cell_formula_units_Z 72
_cell_length_a 7.867004
_cell_length_b 27.842395
_cell_length_c 15.344230
_cell_angle_alpha 90.000000
_cell_angle_beta 90.000000
_cell_angle_gamma 90.000000
_cell_volume 3360.942335
_symmetry_space_group_name_H-M "C M M A"
_symmetry_group_IT_number 67
_symmetry_cell_setting 'orthorhombic'
loop_
_space_group_symop_operation_xyz
x,y,z
-x,1/2-y,z
x,-y,-z
-x,1/2+y,-z
-x,-y,-z
x,1/2+y,-z
-x,y,z
x,1/2-y,z
1/2+x,1/2+y,z
1/2-x,-y,z
1/2+x,1/2-y,-z
1/2-x,y,-z
1/2-x,1/2-y,-z
1/2+x,y,-z
1/2-x,1/2+y,z
1/2+x,-y,z
loop_
_atom_site_type_symbol
_atom_site_label
_atom_site_fract_x
_atom_site_fract_y
_atom_site_fract_z
Si Si1 0.298566 0.446837 0.868921
Si Si2 0.250000 0.371881 0.000000
Si Si3 0.801418 0.947405 0.667885
Si Si4 0.000000 0.694311 0.902561
Si Si5 0.693584 0.647938 0.596680
Si Si6 0.500000 0.195031 0.696970
O O1 0.500000 0.436571 0.884540
O O2 0.250000 0.500000 0.900342
O O3 0.247847 0.440664 0.768332
O O4 0.184278 0.409137 0.925250
O O5 0.151555 0.333735 0.055518
O O6 0.699063 0.909472 0.609478
O O7 0.000000 0.938351 0.655079
O O8 0.750000 0.000000 0.634611
O O9 0.000000 0.750000 0.929631
O O10 0.000000 0.688091 0.799577
O O11 0.500000 0.666142 0.612993
O O12 0.750000 0.662176 0.500000
O O13 0.826001 0.671594 0.663182
O O14 0.500000 0.250000 0.667930
#
# Coordination Sequence:
#
# PCOD8280581 Si02
#       6
#    16   8  16   8  16   8
#     4  10  22  37  59  95 137 177 225 278 335 410
#     4  12  22  40  68  92 126 176 220 280 346 392
#     4  10  20  39  63  96 144 190 231 283 342 409
#     4  11  26  48  69  96 133 177 232 292 348 415
#     4  12  24  44  72 108 143 181 231 288 346 423
#     4  11  26  52  76  99 141 185 229 296 363 419
#
# _framework density 21.422564000000001
#
# number of rings (size 3 to 8) (size 9 to 14) (size 15 to 20)
#    0.000    1.111    3.333    2.667    1.556    3.111 
#    6.000    2.222    0.000    0.000    0.000    0.000 
#    0.000    0.000    0.000    0.000    0.000    0.000 
#
# Total GULP energy -445981.713007 kJ/mol
# GULP energy per Si atom -12388.380917 kJ/mol
# Density = 2.137380 g / cm^3
# Si number density = 21.422564 Si / 1000 Ang^3
#
#
#
# Elastic Constant Matrix: (Units=GPa)
#
#
# Indices 1 2 3 4 5 6 
#
# 1 110.1988 42.8768 28.8871 0.0000 0.0000 0.0000
# 2 42.8768 145.2691 43.8447 0.0000 0.0000 0.0000
# 3 28.8871 43.8447 55.7807 0.0000 0.0000 0.0000
# 4 0.0000 0.0000 0.0000 6.5173 0.0000 0.0000
# 5 0.0000 0.0000 0.0000 0.0000 32.3043 0.0000
# 6 0.0000 0.0000 0.0000 0.0000 0.0000 58.0127
#
#
#
# Elastic Compliance Matrix: (Units=1/GPa)
#
#
# Indices 1 2 3 4 5 6 
#
# 1 0.010921 -0.001988 -0.004093 0.000000 0.000000 0.000000
# 2 -0.001988 0.009387 -0.006349 0.000000 0.000000 0.000000
# 3 -0.004093 -0.006349 0.025037 0.000000 0.000000 0.000000
# 4 0.000000 0.000000 0.000000 0.153437 0.000000 0.000000
# 5 0.000000 0.000000 0.000000 0.000000 0.030956 0.000000
# 6 0.000000 0.000000 0.000000 0.000000 0.000000 0.017238
#
#
# Mechanical properties :
#
#
# Convention : Reuss Voigt Hill
#
# Bulk Modulus (GPa) = 48.81495 60.27397 54.54446
# Shear Modulus (GPa) = 17.94286 32.40952 25.17619
#
# Velocity S-wave (km/s) = 2.89722 3.89378 3.43186
# Velocity P-wave (km/s) = 5.83335 6.95789 6.42029
#
# Compressibility (1/GPa) = 0.02048553
#
# Stress axis : x y z
#
# Youngs Moduli (GPa) = 91.56719 106.53427 39.94076
#
# Poissons Ratio (x) = 0.21179 0.16348
# Poissons Ratio (y) = 0.18204 0.25357
# Poissons Ratio (z) = 0.37478 0.67634
#
# Static dielectric constant tensor:
#      x y z
#    x 3.749790 0.000000 0.000000 
#    y 0.000000 4.180620 0.000000 
#    z 0.000000 0.000000 3.935680 
# 
# 
# High freq. dielectric constant tensor:
#      x y z
#    x 1.829050 0.000000 0.000000 
#    y 0.000000 1.852180 0.000000 
#    z 0.000000 0.000000 1.848940 
# 
# From -- ./inp_files/25148.got.cif
#   From: 2010.03.12/outbox.cif.g09.slc.cpg/sg67_13_cif.got.tgz:25148.got - 2010.04.10 22:41:39.
