data_PCOD8280034
_publ_section_title
;
Structure prediction by ZEFSAII (Michael W. Deem and Ramdas Pophale) SiO2 
 PCOD8280034
Probable space group: C M M A
;
_chemical_formula_sum "Si O2"
_cell_formula_units_Z 80
_cell_length_a 8.991400
_cell_length_b 15.527533
_cell_length_c 28.797808
_cell_angle_alpha 90.000000
_cell_angle_beta 90.000000
_cell_angle_gamma 90.000000
_cell_volume 4020.584660
_symmetry_space_group_name_H-M "C M M A"
_symmetry_group_IT_number 67
_symmetry_cell_setting 'orthorhombic'
loop_
_space_group_symop_operation_xyz
x,y,z
-x,1/2-y,z
x,-y,-z
-x,1/2+y,-z
-x,-y,-z
x,1/2+y,-z
-x,y,z
x,1/2-y,z
1/2+x,1/2+y,z
1/2-x,-y,z
1/2+x,1/2-y,-z
1/2-x,y,-z
1/2-x,1/2-y,-z
1/2+x,y,-z
1/2-x,1/2+y,z
1/2+x,-y,z
loop_
_atom_site_type_symbol
_atom_site_label
_atom_site_fract_x
_atom_site_fract_y
_atom_site_fract_z
Si Si1 0.329856 0.649251 0.791866
Si Si2 0.823439 0.250000 0.950214
Si Si3 0.827707 0.149040 0.300852
Si Si4 0.824491 0.586858 0.108541
Si Si5 0.323871 0.913806 0.608972
Si Si6 0.175363 0.750000 0.450421
O O1 0.500000 0.627262 0.779323
O O2 0.311517 0.750000 0.801555
O O3 0.225999 0.617958 0.749714
O O4 0.276029 0.600914 0.838089
O O5 0.767532 0.334023 0.922576
O O6 0.000000 0.250000 0.955089
O O7 0.750000 0.250000 0.000000
O O8 0.796444 0.250000 0.306810
O O9 0.732841 0.098556 0.338791
O O10 0.000000 0.126020 0.307064
O O11 0.750000 0.500000 0.089450
O O12 0.000000 0.578407 0.104666
O O13 0.500000 0.923441 0.609327
O O14 0.271225 0.834060 0.577491
O O15 0.250000 0.000000 0.587898
O O16 0.250000 0.750000 0.500000
O O17 0.000000 0.750000 0.456977
#
# Coordination Sequence:
#
# PCOD8280034 Si02
#       6
#    16   8  16  16  16   8
#     4   9  17  33  57  81 112 158 200 237 284 343
#     4  10  22  42  63  84 113 149 190 237 293 352
#     4  10  20  34  56  88 123 160 200 244 290 344
#     4  10  21  38  60  86 116 151 193 238 288 347
#     4  11  23  41  63  91 122 159 202 245 294 353
#     4  10  24  44  67  90 119 155 196 245 303 358
#
# _framework density 19.897604999999999
#
# number of rings (size 3 to 8) (size 9 to 14) (size 15 to 20)
#    0.000    2.000    2.000    1.200    0.000    5.600 
#    0.000    6.000    0.000    0.000    0.000    0.000 
#    0.000    0.000    0.000    0.000    0.000    0.000 
#
# Total GULP energy -496163.297983 kJ/mol
# GULP energy per Si atom -12404.082450 kJ/mol
# Density = 1.985232 g / cm^3
# Si number density = 19.897605 Si / 1000 Ang^3
#
#
#
# Elastic Constant Matrix: (Units=GPa)
#
#
# Indices 1 2 3 4 5 6 
#
# 1 62.8675 48.9077 44.3092 0.0000 0.0000 0.0000
# 2 48.9077 148.2290 76.3541 0.0000 0.0000 0.0000
# 3 44.3092 76.3541 128.4480 0.0000 0.0000 0.0000
# 4 0.0000 0.0000 0.0000 11.2438 0.0000 0.0000
# 5 0.0000 0.0000 0.0000 0.0000 37.2941 0.0000
# 6 0.0000 0.0000 0.0000 0.0000 0.0000 33.9491
#
#
#
# Elastic Compliance Matrix: (Units=1/GPa)
#
#
# Indices 1 2 3 4 5 6 
#
# 1 0.023458 -0.005148 -0.005032 0.000000 0.000000 0.000000
# 2 -0.005148 0.010853 -0.004676 0.000000 0.000000 0.000000
# 3 -0.005032 -0.004676 0.012301 0.000000 0.000000 0.000000
# 4 0.000000 0.000000 0.000000 0.088938 0.000000 0.000000
# 5 0.000000 0.000000 0.000000 0.000000 0.026814 0.000000
# 6 0.000000 0.000000 0.000000 0.000000 0.000000 0.029456
#
#
# Mechanical properties :
#
#
# Convention : Reuss Voigt Hill
#
# Bulk Modulus (GPa) = 59.16985 75.40961 67.28973
# Shear Modulus (GPa) = 22.01053 27.82894 24.91973
#
# Velocity S-wave (km/s) = 3.32955 3.74385 3.54276
# Velocity P-wave (km/s) = 6.67705 7.52793 7.11522
#
# Compressibility (1/GPa) = 0.01690050
#
# Stress axis : x y z
#
# Youngs Moduli (GPa) = 42.62998 92.13682 81.29721
#
# Poissons Ratio (x) = 0.47431 0.40908
# Poissons Ratio (y) = 0.21945 0.38014
# Poissons Ratio (z) = 0.21451 0.43082
#
# Static dielectric constant tensor:
#      x y z
#    x 3.482590 0.000000 0.000000 
#    y 0.000000 3.812810 0.000000 
#    z 0.000000 0.000000 3.575180 
# 
# 
# High freq. dielectric constant tensor:
#      x y z
#    x 1.768770 0.000000 0.000000 
#    y 0.000000 1.783030 0.000000 
#    z 0.000000 0.000000 1.773530 
# 
# From -- ./inp_files/43377.got.cif
#   From: 2010.03.12/outbox.cif.g09.slc.cpg/sg67_22_cif.got.tgz:43377.got - 2010.04.10 22:41:39.
