data_PCOD8280515
_publ_section_title
;
Structure prediction by ZEFSAII (Michael W. Deem and Ramdas Pophale) SiO2 
 PCOD8280515
Probable space group: C M M A
;
_chemical_formula_sum "Si O2"
_cell_formula_units_Z 92
_cell_length_a 21.306772
_cell_length_b 17.010156
_cell_length_c 11.806537
_cell_angle_alpha 90.000000
_cell_angle_beta 90.000000
_cell_angle_gamma 90.000000
_cell_volume 4279.061099
_symmetry_space_group_name_H-M "C M M A"
_symmetry_group_IT_number 67
_symmetry_cell_setting 'orthorhombic'
loop_
_space_group_symop_operation_xyz
x,y,z
-x,1/2-y,z
x,-y,-z
-x,1/2+y,-z
-x,-y,-z
x,1/2+y,-z
-x,y,z
x,1/2-y,z
1/2+x,1/2+y,z
1/2-x,-y,z
1/2+x,1/2-y,-z
1/2-x,y,-z
1/2-x,1/2-y,-z
1/2+x,y,-z
1/2-x,1/2+y,z
1/2+x,-y,z
loop_
_atom_site_type_symbol
_atom_site_label
_atom_site_fract_x
_atom_site_fract_y
_atom_site_fract_z
Si Si1 0.930179 0.750000 0.196040
Si Si2 0.000000 0.160254 0.392537
Si Si3 0.698212 0.339351 0.749793
Si Si4 0.500000 0.911281 0.153874
Si Si5 0.338554 0.382980 0.275655
Si Si6 0.365224 0.658696 0.482561
Si Si7 0.634068 0.472140 0.877450
Si Si8 0.500000 0.750000 0.020484
O O1 0.894571 0.828037 0.233285
O O2 0.000000 0.750000 0.253007
O O3 0.937814 0.750000 0.059436
O O4 0.060972 0.143414 0.467577
O O5 0.000000 0.250000 0.347785
O O6 0.000000 0.101062 0.287976
O O7 0.676208 0.250000 0.769199
O O8 0.772672 0.344992 0.758497
O O9 0.673197 0.368610 0.627793
O O10 0.666207 0.389152 0.849240
O O11 0.440630 0.963049 0.118484
O O12 0.500000 0.826990 0.095663
O O13 0.341995 0.392758 0.411374
O O14 0.344755 0.467644 0.219273
O O15 0.351478 0.750000 0.510406
O O16 0.658350 0.500000 0.000000
#
# Coordination Sequence:
#
# PCOD8280515 Si02
#       8
#     8   8  16   8  16  16  16   4
#     4  10  24  42  65 107 132 181 237 287 342 423
#     4  10  20  37  70 108 138 177 234 296 343 410
#     4  11  24  47  73 102 140 196 238 280 349 433
#     4  12  23  47  72 101 136 191 233 296 355 414
#     4  12  24  45  71 104 149 184 229 294 360 416
#     4  10  21  39  70 108 143 183 235 286 349 424
#     4  12  29  47  71 104 146 182 240 302 356 413
#     4  10  24  40  76  96 140 180 252 274 340 434
#
# _framework density 21.500042000000001
#
# number of rings (size 3 to 8) (size 9 to 14) (size 15 to 20)
#    0.261    0.696    3.913    2.348    3.652    3.478 
#    1.565    3.478    0.000    0.000    0.000    0.000 
#    0.000    0.000    0.000    0.000    0.000    0.000 
#
# Total GULP energy -570662.758758 kJ/mol
# GULP energy per Si atom -12405.712147 kJ/mol
# Density = 2.145111 g / cm^3
# Si number density = 21.500042 Si / 1000 Ang^3
#
#
#
# Elastic Constant Matrix: (Units=GPa)
#
#
# Indices 1 2 3 4 5 6 
#
# 1 132.9144 27.9288 35.2015 0.0000 0.0000 0.0000
# 2 27.9288 95.2036 60.9168 0.0000 0.0000 0.0000
# 3 35.2015 60.9168 142.0897 0.0000 0.0000 0.0000
# 4 0.0000 0.0000 0.0000 38.4502 0.0000 0.0000
# 5 0.0000 0.0000 0.0000 0.0000 23.6342 0.0000
# 6 0.0000 0.0000 0.0000 0.0000 0.0000 21.2160
#
#
#
# Elastic Compliance Matrix: (Units=1/GPa)
#
#
# Indices 1 2 3 4 5 6 
#
# 1 0.008210 -0.001525 -0.001380 0.000000 0.000000 0.000000
# 2 -0.001525 0.014758 -0.005949 0.000000 0.000000 0.000000
# 3 -0.001380 -0.005949 0.009930 0.000000 0.000000 0.000000
# 4 0.000000 0.000000 0.000000 0.026008 0.000000 0.000000
# 5 0.000000 0.000000 0.000000 0.000000 0.042311 0.000000
# 6 0.000000 0.000000 0.000000 0.000000 0.000000 0.047134
#
#
# Mechanical properties :
#
#
# Convention : Reuss Voigt Hill
#
# Bulk Modulus (GPa) = 65.83779 68.70021 67.26900
# Shear Modulus (GPa) = 29.21877 33.07079 31.14478
#
# Velocity S-wave (km/s) = 3.69047 3.92621 3.81017
# Velocity P-wave (km/s) = 6.98914 7.25096 7.12125
#
# Compressibility (1/GPa) = 0.01518885
#
# Stress axis : x y z
#
# Youngs Moduli (GPa) = 121.80822 67.76038 100.70329
#
# Poissons Ratio (x) = 0.10336 0.13896
# Poissons Ratio (y) = 0.18581 0.59909
# Poissons Ratio (z) = 0.16808 0.40311
#
# Static dielectric constant tensor:
#      x y z
#    x 3.994060 0.000000 0.000000 
#    y 0.000000 3.754280 0.000000 
#    z 0.000000 0.000000 3.886780 
# 
# 
# High freq. dielectric constant tensor:
#      x y z
#    x 1.856350 0.000000 0.000000 
#    y 0.000000 1.833460 0.000000 
#    z 0.000000 0.000000 1.846690 
# 
# From -- ./inp_files/20721.got.cif
#   From: 2010.03.12/outbox.cif.g09.slc.cpg/sg67_11_cif.got.tgz:20721.got - 2010.04.10 22:41:39.
