data_PCOD8280611
_publ_section_title
;
Structure prediction by ZEFSAII (Michael W. Deem and Ramdas Pophale) SiO2 
 PCOD8280611
Probable space group: C M M A
;
_chemical_formula_sum "Si O2"
_cell_formula_units_Z 128
_cell_length_a 23.758501
_cell_length_b 24.534466
_cell_length_c 12.353241
_cell_angle_alpha 90.000000
_cell_angle_beta 90.000000
_cell_angle_gamma 90.000000
_cell_volume 7200.730553
_symmetry_space_group_name_H-M "C M M A"
_symmetry_group_IT_number 67
_symmetry_cell_setting 'orthorhombic'
loop_
_space_group_symop_operation_xyz
x,y,z
-x,1/2-y,z
x,-y,-z
-x,1/2+y,-z
-x,-y,-z
x,1/2+y,-z
-x,y,z
x,1/2-y,z
1/2+x,1/2+y,z
1/2-x,-y,z
1/2+x,1/2-y,-z
1/2-x,y,-z
1/2-x,1/2-y,-z
1/2+x,y,-z
1/2-x,1/2+y,z
1/2+x,-y,z
loop_
_atom_site_type_symbol
_atom_site_label
_atom_site_fract_x
_atom_site_fract_y
_atom_site_fract_z
Si Si1 0.130830 0.811809 0.558565
Si Si2 0.437684 0.687317 0.242022
Si Si3 0.762232 0.624771 0.619408
Si Si4 0.563707 0.500430 0.128762
Si Si5 0.152084 0.313746 0.679075
Si Si6 0.245202 0.063400 0.173113
Si Si7 0.872274 0.894357 0.894400
Si Si8 0.867261 0.603146 0.139269
O O1 0.153429 0.750000 0.559716
O O2 0.074418 0.818850 0.629236
O O3 0.177209 0.847661 0.619265
O O4 0.119300 0.827810 0.433228
O O5 0.500000 0.663033 0.219630
O O6 0.435706 0.750000 0.207766
O O7 0.389409 0.658995 0.171410
O O8 0.750000 0.602214 0.500000
O O9 0.716827 0.669097 0.660548
O O10 0.762301 0.572749 0.698421
O O11 0.500000 0.498292 0.173024
O O12 0.593507 0.556476 0.162854
O O13 0.598267 0.449949 0.179939
O O14 0.565637 0.500000 0.000000
O O15 0.149019 0.250000 0.709318
O O16 0.122576 0.347588 0.776108
O O17 0.193784 0.091879 0.110619
O O18 0.301365 0.091335 0.130221
O O19 0.250000 0.000000 0.145959
O O20 0.889115 0.882251 0.019101
#
# Coordination Sequence:
#
# PCOD8280611 Si02
#       8
#    16  16  16  16  16  16  16  16
#     4   9  16  31  54  76 101 136 177 220 261 309
#     4  10  21  36  56  82 108 138 182 229 269 314
#     4   9  17  30  50  76 104 140 178 215 262 320
#     4   9  18  33  53  73  95 132 182 226 258 305
#     4   9  18  32  52  78 108 138 172 213 264 324
#     4  11  20  32  51  78 111 142 176 221 273 320
#     4  11  20  34  54  76 108 144 178 219 269 324
#     4  10  21  33  51  79 108 140 177 217 266 322
#
# _framework density 17.775974000000001
#
# number of rings (size 3 to 8) (size 9 to 14) (size 15 to 20)
#    0.000    2.250    2.500    1.125    0.000    3.250 
#    0.000    0.625    0.000    4.125    0.000    1.750 
#    0.000    0.000    0.000    0.000    0.000    0.000 
#
# Total GULP energy -793367.538164 kJ/mol
# GULP energy per Si atom -12396.367784 kJ/mol
# Density = 1.773552 g / cm^3
# Si number density = 17.775974 Si / 1000 Ang^3
#
#
#
# Elastic Constant Matrix: (Units=GPa)
#
#
# Indices 1 2 3 4 5 6 
#
# 1 86.4259 30.2122 19.3514 0.0000 0.0000 0.0000
# 2 30.2122 78.6723 43.5965 0.0000 0.0000 0.0000
# 3 19.3514 43.5965 94.1151 0.0000 0.0000 0.0000
# 4 0.0000 0.0000 0.0000 24.1393 0.0000 0.0000
# 5 0.0000 0.0000 0.0000 0.0000 11.2815 0.0000
# 6 0.0000 0.0000 0.0000 0.0000 0.0000 23.6420
#
#
#
# Elastic Compliance Matrix: (Units=1/GPa)
#
#
# Indices 1 2 3 4 5 6 
#
# 1 0.013382 -0.004863 -0.000499 0.000000 0.000000 0.000000
# 2 -0.004863 0.018868 -0.007740 0.000000 0.000000 0.000000
# 3 -0.000499 -0.007740 0.014313 0.000000 0.000000 0.000000
# 4 0.000000 0.000000 0.000000 0.041426 0.000000 0.000000
# 5 0.000000 0.000000 0.000000 0.000000 0.088641 0.000000
# 6 0.000000 0.000000 0.000000 0.000000 0.000000 0.042298
#
#
# Mechanical properties :
#
#
# Convention : Reuss Voigt Hill
#
# Bulk Modulus (GPa) = 49.11708 49.50372 49.31040
# Shear Modulus (GPa) = 19.84775 22.88276 21.36526
#
# Velocity S-wave (km/s) = 3.34511 3.59177 3.47063
# Velocity P-wave (km/s) = 6.52769 6.71641 6.62273
#
# Compressibility (1/GPa) = 0.02035952
#
# Stress axis : x y z
#
# Youngs Moduli (GPa) = 74.72627 53.00118 69.86494
#
# Poissons Ratio (x) = 0.25772 0.03487
# Poissons Ratio (y) = 0.36336 0.54076
# Poissons Ratio (z) = 0.03730 0.41023
#
# Static dielectric constant tensor:
#      x y z
#    x 3.254090 0.000000 0.000000 
#    y 0.000000 3.210120 0.000000 
#    z 0.000000 0.000000 3.297260 
# 
# 
# High freq. dielectric constant tensor:
#      x y z
#    x 1.679390 0.000000 0.000000 
#    y 0.000000 1.677920 0.000000 
#    z 0.000000 0.000000 1.680910 
# 
# From -- ./inp_files/22333.got.cif
#   From: 2010.03.12/outbox.cif.g09.slc.cpg/sg67_12_cif.got.tgz:22333.got - 2010.04.10 22:41:39.
