data_PCOD8280070
_publ_section_title
;
Structure prediction by ZEFSAII (Michael W. Deem and Ramdas Pophale) SiO2 
 PCOD8280070
Probable space group: C M M A
;
_chemical_formula_sum "Si O2"
_cell_formula_units_Z 88
_cell_length_a 8.627316
_cell_length_b 30.735272
_cell_length_c 17.716768
_cell_angle_alpha 90.000000
_cell_angle_beta 90.000000
_cell_angle_gamma 90.000000
_cell_volume 4697.829650
_symmetry_space_group_name_H-M "C M M A"
_symmetry_group_IT_number 67
_symmetry_cell_setting 'orthorhombic'
loop_
_space_group_symop_operation_xyz
x,y,z
-x,1/2-y,z
x,-y,-z
-x,1/2+y,-z
-x,-y,-z
x,1/2+y,-z
-x,y,z
x,1/2-y,z
1/2+x,1/2+y,z
1/2-x,-y,z
1/2+x,1/2-y,-z
1/2-x,y,-z
1/2-x,1/2-y,-z
1/2+x,y,-z
1/2-x,1/2+y,z
1/2+x,-y,z
loop_
_atom_site_type_symbol
_atom_site_label
_atom_site_fract_x
_atom_site_fract_y
_atom_site_fract_z
Si Si1 0.814749 0.545127 0.233551
Si Si2 0.316791 0.577242 0.079098
Si Si3 0.325436 0.663422 0.867166
Si Si4 0.315173 0.799140 0.581116
Si Si5 0.172724 0.632151 0.301056
Si Si6 0.818247 0.750000 0.917903
O O1 0.750000 0.500000 0.267049
O O2 0.755497 0.550167 0.148004
O O3 0.750623 0.584171 0.288121
O O4 0.000000 0.546120 0.231599
O O5 0.500000 0.571739 0.080438
O O6 0.270141 0.627646 0.086679
O O7 0.250000 0.558953 0.000000
O O8 0.500000 0.664993 0.900424
O O9 0.330340 0.654880 0.779113
O O10 0.239732 0.708604 0.873133
O O11 0.500000 0.800605 0.580586
O O12 0.260224 0.750000 0.603023
O O13 0.250000 0.812277 0.500000
O O14 0.244209 0.835043 0.639676
O O15 0.000000 0.624583 0.331858
O O16 0.000000 0.750000 0.922520
O O17 0.750000 0.750000 0.000000
#
# Coordination Sequence:
#
# PCOD8280070 Si02
#       6
#    16  16  16  16  16   8
#     4  10  20  36  55  78 104 134 177 222 271 321
#     4  11  21  35  53  74 102 135 172 219 272 322
#     4  10  20  35  53  73  97 133 178 222 266 317
#     4   9  17  31  53  81 112 143 174 207 251 306
#     4   8  17  33  55  78 103 137 174 212 256 316
#     4  12  24  36  48  68  97 134 177 224 269 316
#
# _framework density 18.732054999999999
#
# number of rings (size 3 to 8) (size 9 to 14) (size 15 to 20)
#    0.000    2.182    0.000    5.182    1.273    0.364 
#    0.000    7.273    0.000    0.545    0.000    3.818 
#    0.000    0.000    0.000    0.000    0.000    0.000 
#
# Total GULP energy -545372.927720 kJ/mol
# GULP energy per Si atom -12394.839266 kJ/mol
# Density = 1.868942 g / cm^3
# Si number density = 18.732055 Si / 1000 Ang^3
#
#
#
# Elastic Constant Matrix: (Units=GPa)
#
#
# Indices 1 2 3 4 5 6 
#
# 1 87.2199 34.7263 20.4949 0.0000 0.0000 0.0000
# 2 34.7263 149.9303 54.5778 0.0000 0.0000 0.0000
# 3 20.4949 54.5778 86.7769 0.0000 0.0000 0.0000
# 4 0.0000 0.0000 0.0000 20.4902 0.0000 0.0000
# 5 0.0000 0.0000 0.0000 0.0000 23.0937 0.0000
# 6 0.0000 0.0000 0.0000 0.0000 0.0000 28.7702
#
#
#
# Elastic Compliance Matrix: (Units=1/GPa)
#
#
# Indices 1 2 3 4 5 6 
#
# 1 0.012779 -0.002414 -0.001500 0.000000 0.000000 0.000000
# 2 -0.002414 0.009106 -0.005157 0.000000 0.000000 0.000000
# 3 -0.001500 -0.005157 0.015122 0.000000 0.000000 0.000000
# 4 0.000000 0.000000 0.000000 0.048804 0.000000 0.000000
# 5 0.000000 0.000000 0.000000 0.000000 0.043302 0.000000
# 6 0.000000 0.000000 0.000000 0.000000 0.000000 0.034758
#
#
# Mechanical properties :
#
#
# Convention : Reuss Voigt Hill
#
# Bulk Modulus (GPa) = 53.00886 60.39165 56.70025
# Shear Modulus (GPa) = 26.55332 28.74604 27.64968
#
# Velocity S-wave (km/s) = 3.76910 3.92164 3.84612
# Velocity P-wave (km/s) = 6.87760 7.26742 7.07519
#
# Compressibility (1/GPa) = 0.01886477
#
# Stress axis : x y z
#
# Youngs Moduli (GPa) = 78.25487 109.81587 66.13039
#
# Poissons Ratio (x) = 0.26507 0.09919
# Poissons Ratio (y) = 0.18889 0.34105
# Poissons Ratio (z) = 0.11738 0.56634
#
# Static dielectric constant tensor:
#      x y z
#    x 3.286460 0.000000 0.000000 
#    y 0.000000 3.748160 0.000000 
#    z 0.000000 0.000000 3.346050 
# 
# 
# High freq. dielectric constant tensor:
#      x y z
#    x 1.717160 0.000000 0.000000 
#    y 0.000000 1.738340 0.000000 
#    z 0.000000 0.000000 1.704680 
# 
# From -- ./inp_files/32380.got.cif
#   From: 2010.03.12/outbox.cif.g09.slc.cpg/sg67_17_cif.got.tgz:32380.got - 2010.04.10 22:41:39.
