data_PCOD8280183
_publ_section_title
;
Structure prediction by ZEFSAII (Michael W. Deem and Ramdas Pophale) SiO2 
 PCOD8280183
Probable space group: C M M A
;
_chemical_formula_sum "Si O2"
_cell_formula_units_Z 96
_cell_length_a 18.626558
_cell_length_b 8.770779
_cell_length_c 30.828306
_cell_angle_alpha 90.000000
_cell_angle_beta 90.000000
_cell_angle_gamma 90.000000
_cell_volume 5036.402586
_symmetry_space_group_name_H-M "C M M A"
_symmetry_group_IT_number 67
_symmetry_cell_setting 'orthorhombic'
loop_
_space_group_symop_operation_xyz
x,y,z
-x,1/2-y,z
x,-y,-z
-x,1/2+y,-z
-x,-y,-z
x,1/2+y,-z
-x,y,z
x,1/2-y,z
1/2+x,1/2+y,z
1/2-x,-y,z
1/2+x,1/2-y,-z
1/2-x,y,-z
1/2-x,1/2-y,-z
1/2+x,y,-z
1/2-x,1/2+y,z
1/2+x,-y,z
loop_
_atom_site_type_symbol
_atom_site_label
_atom_site_fract_x
_atom_site_fract_y
_atom_site_fract_z
Si Si1 0.414610 0.578314 0.293936
Si Si2 0.582815 0.428571 0.954110
Si Si3 0.082069 0.929158 0.206202
Si Si4 0.914898 0.923262 0.381002
Si Si5 0.173940 0.070005 0.454509
Si Si6 0.828261 0.069330 0.876854
O O1 0.500000 0.572645 0.293312
O O2 0.385818 0.750000 0.298579
O O3 0.385448 0.508193 0.249084
O O4 0.385648 0.480852 0.334531
O O5 0.500000 0.462972 0.942977
O O6 0.598957 0.250000 0.955390
O O7 0.631847 0.507787 0.918788
O O8 0.604058 0.500000 0.000000
O O9 0.087277 0.750000 0.213452
O O10 0.128245 0.984649 0.165439
O O11 0.000000 0.979707 0.197810
O O12 0.889081 0.750000 0.387789
O O13 0.000000 0.936837 0.383016
O O14 0.884241 0.030492 0.418365
O O15 0.181343 0.250000 0.459559
O O16 0.147727 0.000000 0.500000
O O17 0.250000 0.000000 0.440541
O O18 0.823690 0.250000 0.879841
O O19 0.750000 0.000000 0.873970
#
# Coordination Sequence:
#
# PCOD8280183 Si02
#       6
#    16  16  16  16  16  16
#     4   9  17  30  51  80 110 139 175 222 273 323
#     4  10  21  38  61  87 113 142 180 225 271 322
#     4   9  18  34  56  79 104 139 181 223 269 323
#     4  10  20  35  56  82 112 144 180 224 273 323
#     4  11  22  38  58  79 107 142 182 224 269 324
#     4  11  23  38  56  80 113 149 185 226 273 324
#
# _framework density 19.061223999999999
#
# number of rings (size 3 to 8) (size 9 to 14) (size 15 to 20)
#    0.000    2.000    0.000    4.500    0.000    6.667 
#    0.000    4.167    0.000    2.000    0.000    0.000 
#    0.000    0.000    0.000    0.000    0.000    0.000 
#
# Total GULP energy -595362.455090 kJ/mol
# GULP energy per Si atom -12403.384481 kJ/mol
# Density = 1.901784 g / cm^3
# Si number density = 19.061224 Si / 1000 Ang^3
#
#
#
# Elastic Constant Matrix: (Units=GPa)
#
#
# Indices 1 2 3 4 5 6 
#
# 1 69.1264 43.5958 67.8330 0.0000 0.0000 0.0000
# 2 43.5958 120.3803 68.1499 0.0000 0.0000 0.0000
# 3 67.8330 68.1499 161.3388 0.0000 0.0000 0.0000
# 4 0.0000 0.0000 0.0000 36.7470 0.0000 0.0000
# 5 0.0000 0.0000 0.0000 0.0000 -3.8225 0.0000
# 6 0.0000 0.0000 0.0000 0.0000 0.0000 21.0296
#
#
#
# Elastic Compliance Matrix: (Units=1/GPa)
#
#
# Indices 1 2 3 4 5 6 
#
# 1 0.026199 -0.004274 -0.009210 0.000000 0.000000 0.000000
# 2 -0.004274 0.011615 -0.003109 0.000000 0.000000 0.000000
# 3 -0.009210 -0.003109 0.011384 0.000000 0.000000 0.000000
# 4 0.000000 0.000000 0.000000 0.027213 0.000000 0.000000
# 5 0.000000 0.000000 0.000000 0.000000 -0.261611 0.000000
# 6 0.000000 0.000000 0.000000 0.000000 0.000000 0.047552
#
#
# Mechanical properties :
#
#
# Convention : Reuss Voigt Hill
#
# Bulk Modulus (GPa) = 62.45454 78.88920 70.67187
# Shear Modulus (GPa) = -50.44179 22.20863 -14.11658
#
# Velocity S-wave (km/s) = -5.14980 3.41709 -2.72433
# Velocity P-wave (km/s) = 1.58880 7.55287 5.22118
#
# Compressibility (1/GPa) = 0.01601165
#
# Stress axis : x y z
#
# Youngs Moduli (GPa) = 38.16895 86.09481 87.84573
#
# Poissons Ratio (x) = 0.36799 0.80904
# Poissons Ratio (y) = 0.16314 0.27313
# Poissons Ratio (z) = 0.35153 0.26768
#
# Static dielectric constant tensor:
#      x y z
#    x 2.993060 0.000000 0.000000 
#    y 0.000000 3.629300 0.000000 
#    z 0.000000 0.000000 3.652810 
# 
# 
# High freq. dielectric constant tensor:
#      x y z
#    x 1.715030 0.000000 0.000000 
#    y 0.000000 1.755470 0.000000 
#    z 0.000000 0.000000 1.757660 
# 
# From -- ./inp_files/44600.got.cif
#   From: 2010.03.12/outbox.cif.g09.slc.cpg/sg67_23_cif.got.tgz:44600.got - 2010.04.10 22:41:39.
