data_PCOD8280475
_publ_section_title
;
Structure prediction by ZEFSAII (Michael W. Deem and Ramdas Pophale) SiO2 
 PCOD8280475
Probable space group: C M M A
;
_chemical_formula_sum "Si O2"
_cell_formula_units_Z 72
_cell_length_a 8.667112
_cell_length_b 15.423763
_cell_length_c 27.792952
_cell_angle_alpha 90.000000
_cell_angle_beta 90.000000
_cell_angle_gamma 90.000000
_cell_volume 3715.347409
_symmetry_space_group_name_H-M "C M M A"
_symmetry_group_IT_number 67
_symmetry_cell_setting 'orthorhombic'
loop_
_space_group_symop_operation_xyz
x,y,z
-x,1/2-y,z
x,-y,-z
-x,1/2+y,-z
-x,-y,-z
x,1/2+y,-z
-x,y,z
x,1/2-y,z
1/2+x,1/2+y,z
1/2-x,-y,z
1/2+x,1/2-y,-z
1/2-x,y,-z
1/2-x,1/2-y,-z
1/2+x,y,-z
1/2-x,1/2+y,z
1/2+x,-y,z
loop_
_atom_site_type_symbol
_atom_site_label
_atom_site_fract_x
_atom_site_fract_y
_atom_site_fract_z
Si Si1 0.822317 0.250000 0.392037
Si Si2 0.817827 0.409463 0.775628
Si Si3 0.683298 0.250000 0.052831
Si Si4 0.323882 0.250000 0.721646
Si Si5 0.316259 0.907582 0.552000
Si Si6 0.182301 0.590024 0.115178
O O1 0.808815 0.250000 0.335183
O O2 0.736421 0.335309 0.410581
O O3 0.000000 0.250000 0.409218
O O4 0.750000 0.500000 0.756718
O O5 0.758442 0.334712 0.741407
O O6 0.762067 0.391684 0.830304
O O7 0.000000 0.413479 0.772514
O O8 0.500000 0.250000 0.050771
O O9 0.745633 0.166003 0.081118
O O10 0.750000 0.250000 0.000000
O O11 0.500000 0.250000 0.738731
O O12 0.500000 0.912421 0.549447
O O13 0.250000 0.882441 0.500000
O O14 0.250000 0.000000 0.569251
O O15 0.250000 0.500000 0.095635
O O16 0.000000 0.584820 0.113035
#
# Coordination Sequence:
#
# PCOD8280475 Si02
#       6
#     8  16   8   8  16  16
#     4  11  24  41  58  82 117 154 191 232 279 332
#     4  10  20  37  61  85 111 144 185 232 281 332
#     4  10  21  36  52  75 109 144 179 218 269 325
#     4  11  24  39  57  83 116 152 189 230 278 333
#     4  11  22  39  63  89 116 149 190 235 282 332
#     4   9  19  36  57  80 106 139 179 225 272 323
#
# _framework density 19.379076000000001
#
# number of rings (size 3 to 8) (size 9 to 14) (size 15 to 20)
#    0.000    1.778    0.000    5.000    0.000    6.667 
#    0.000    3.333    0.000    0.000    0.000    0.000 
#    0.000    0.000    0.000    0.000    0.000    0.000 
#
# Total GULP energy -446549.611979 kJ/mol
# GULP energy per Si atom -12404.155888 kJ/mol
# Density = 1.933497 g / cm^3
# Si number density = 19.379076 Si / 1000 Ang^3
#
#
#
# Elastic Constant Matrix: (Units=GPa)
#
#
# Indices 1 2 3 4 5 6 
#
# 1 107.3294 57.1649 42.5693 0.0000 0.0000 0.0000
# 2 57.1649 172.2625 73.9791 0.0000 0.0000 0.0000
# 3 42.5693 73.9791 84.7473 0.0000 0.0000 0.0000
# 4 0.0000 0.0000 0.0000 -4.8088 0.0000 0.0000
# 5 0.0000 0.0000 0.0000 0.0000 30.6563 0.0000
# 6 0.0000 0.0000 0.0000 0.0000 0.0000 35.7701
#
#
#
# Elastic Compliance Matrix: (Units=1/GPa)
#
#
# Indices 1 2 3 4 5 6 
#
# 1 0.012161 -0.002259 -0.004136 0.000000 0.000000 0.000000
# 2 -0.002259 0.009706 -0.007338 0.000000 0.000000 0.000000
# 3 -0.004136 -0.007338 0.020283 0.000000 0.000000 0.000000
# 4 0.000000 0.000000 0.000000 -0.207952 0.000000 0.000000
# 5 0.000000 0.000000 0.000000 0.000000 0.032620 0.000000
# 6 0.000000 0.000000 0.000000 0.000000 0.000000 0.027956
#
#
# Mechanical properties :
#
#
# Convention : Reuss Voigt Hill
#
# Bulk Modulus (GPa) = 68.10600 79.08509 73.59554
# Shear Modulus (GPa) = -68.62093 25.03193 -21.79450
#
# Velocity S-wave (km/s) = -5.95707 3.59792 -3.35720
# Velocity P-wave (km/s) = 3.47781 7.62615 4.79911
#
# Compressibility (1/GPa) = 0.01468299
#
# Stress axis : x y z
#
# Youngs Moduli (GPa) = 82.23022 103.02727 49.30179
#
# Poissons Ratio (x) = 0.23276 0.20393
# Poissons Ratio (y) = 0.18577 0.36178
# Poissons Ratio (z) = 0.34014 0.75602
#
# Static dielectric constant tensor:
#      x y z
#    x 3.627870 0.000000 0.000000 
#    y 0.000000 3.720080 0.000000 
#    z 0.000000 0.000000 3.532450 
# 
# 
# High freq. dielectric constant tensor:
#      x y z
#    x 1.762310 0.000000 0.000000 
#    y 0.000000 1.771850 0.000000 
#    z 0.000000 0.000000 1.748010 
# 
# From -- ./inp_files/43136.got.cif
#   From: 2010.03.12/outbox.cif.g09.slc.cpg/sg67_22_cif.got.tgz:43136.got - 2010.04.10 22:41:39.
