data_PCOD8280834
_publ_section_title
;
Structure prediction by ZEFSAII (Michael W. Deem and Ramdas Pophale) SiO2 
 PCOD8280834
Probable space group: C M M A
;
_chemical_formula_sum "Si O2"
_cell_formula_units_Z 96
_cell_length_a 14.395985
_cell_length_b 17.613985
_cell_length_c 19.259275
_cell_angle_alpha 90.000000
_cell_angle_beta 90.000000
_cell_angle_gamma 90.000000
_cell_volume 4883.587147
_symmetry_space_group_name_H-M "C M M A"
_symmetry_group_IT_number 67
_symmetry_cell_setting 'orthorhombic'
loop_
_space_group_symop_operation_xyz
x,y,z
-x,1/2-y,z
x,-y,-z
-x,1/2+y,-z
-x,-y,-z
x,1/2+y,-z
-x,y,z
x,1/2-y,z
1/2+x,1/2+y,z
1/2-x,-y,z
1/2+x,1/2-y,-z
1/2-x,y,-z
1/2-x,1/2-y,-z
1/2+x,y,-z
1/2-x,1/2+y,z
1/2+x,-y,z
loop_
_atom_site_type_symbol
_atom_site_label
_atom_site_fract_x
_atom_site_fract_y
_atom_site_fract_z
Si Si1 0.254310 0.589014 0.238310
Si Si2 0.890830 0.662754 0.863637
Si Si3 0.108049 0.340075 0.503686
Si Si4 0.110186 0.914556 0.003212
Si Si5 0.893195 0.839221 0.143759
Si Si6 0.746226 0.910330 0.398894
O O1 0.250000 0.500000 0.226314
O O2 0.345784 0.619709 0.200750
O O3 0.161909 0.627768 0.208764
O O4 0.261300 0.610686 0.318587
O O5 0.861579 0.750000 0.860552
O O6 0.852098 0.629813 0.936112
O O7 0.000000 0.650661 0.857177
O O8 0.120551 0.250000 0.501071
O O9 0.159817 0.372610 0.571505
O O10 0.154923 0.376499 0.435661
O O11 0.000000 0.363422 0.506481
O O12 0.000000 0.912140 0.003481
O O13 0.147554 0.875046 0.072941
O O14 0.148452 0.000000 0.000000
O O15 0.879157 0.750000 0.138893
O O16 0.000000 0.861746 0.154856
O O17 0.750000 0.000000 0.412072
#
# Coordination Sequence:
#
# PCOD8280834 Si02
#       6
#    16  16  16  16  16  16
#     4  11  24  39  56  82 115 150 188 229 276 331
#     4  10  21  37  57  81 110 146 189 236 285 336
#     4  10  21  38  63  91 116 146 183 223 270 325
#     4   9  17  32  55  80 108 143 185 236 287 334
#     4  10  21  37  57  81 110 146 189 236 285 336
#     4  10  22  39  59  85 117 150 185 228 272 321
#
# _framework density 19.657682000000001
#
# number of rings (size 3 to 8) (size 9 to 14) (size 15 to 20)
#    0.000    2.000    0.000    4.000    0.000   10.000 
#    0.000   10.000    0.000    0.000    0.000    0.000 
#    0.000    0.000    0.000    0.000    0.000    0.000 
#
# Total GULP energy -595329.816489 kJ/mol
# GULP energy per Si atom -12402.704510 kJ/mol
# Density = 1.961294 g / cm^3
# Si number density = 19.657682 Si / 1000 Ang^3
#
#
#
# Elastic Constant Matrix: (Units=GPa)
#
#
# Indices 1 2 3 4 5 6 
#
# 1 75.7029 12.3594 9.8233 0.0000 0.0000 0.0000
# 2 12.3594 95.1382 32.6194 0.0000 0.0000 0.0000
# 3 9.8233 32.6194 107.9197 0.0000 0.0000 0.0000
# 4 0.0000 0.0000 0.0000 19.6307 0.0000 0.0000
# 5 0.0000 0.0000 0.0000 0.0000 24.5228 0.0000
# 6 0.0000 0.0000 0.0000 0.0000 0.0000 26.5384
#
#
#
# Elastic Compliance Matrix: (Units=1/GPa)
#
#
# Indices 1 2 3 4 5 6 
#
# 1 0.013555 -0.001493 -0.000783 0.000000 0.000000 0.000000
# 2 -0.001493 0.011891 -0.003458 0.000000 0.000000 0.000000
# 3 -0.000783 -0.003458 0.010383 0.000000 0.000000 0.000000
# 4 0.000000 0.000000 0.000000 0.050941 0.000000 0.000000
# 5 0.000000 0.000000 0.000000 0.000000 0.040778 0.000000
# 6 0.000000 0.000000 0.000000 0.000000 0.000000 0.037681
#
#
# Mechanical properties :
#
#
# Convention : Reuss Voigt Hill
#
# Bulk Modulus (GPa) = 41.04880 43.15168 42.10024
# Shear Modulus (GPa) = 27.05401 29.06895 28.06148
#
# Velocity S-wave (km/s) = 3.71382 3.84963 3.78234
# Velocity P-wave (km/s) = 6.27033 6.46210 6.36694
#
# Compressibility (1/GPa) = 0.02436125
#
# Stress axis : x y z
#
# Youngs Moduli (GPa) = 73.77476 84.10009 96.31458
#
# Poissons Ratio (x) = 0.12552 0.07538
# Poissons Ratio (y) = 0.11011 0.33307
# Poissons Ratio (z) = 0.05774 0.29083
#
# Static dielectric constant tensor:
#      x y z
#    x 3.539350 0.000000 0.000000 
#    y 0.000000 3.745330 0.000000 
#    z 0.000000 0.000000 3.625900 
# 
# 
# High freq. dielectric constant tensor:
#      x y z
#    x 1.770410 0.000000 0.000000 
#    y 0.000000 1.783540 0.000000 
#    z 0.000000 0.000000 1.765740 
# 
# From -- ./inp_files/38393.got.cif
#   From: 2010.03.12/outbox.cif.g09.slc.cpg/sg67_20_cif.got.tgz:38393.got - 2010.04.10 22:41:39.
