data_PCOD8280864
_publ_section_title
;
Structure prediction by ZEFSAII (Michael W. Deem and Ramdas Pophale) SiO2 
 PCOD8280864
Probable space group: C M M A
;
_chemical_formula_sum "Si O2"
_cell_formula_units_Z 96
_cell_length_a 23.217005
_cell_length_b 8.825508
_cell_length_c 25.445648
_cell_angle_alpha 90.000000
_cell_angle_beta 90.000000
_cell_angle_gamma 90.000000
_cell_volume 5213.860690
_symmetry_space_group_name_H-M "C M M A"
_symmetry_group_IT_number 67
_symmetry_cell_setting 'orthorhombic'
loop_
_space_group_symop_operation_xyz
x,y,z
-x,1/2-y,z
x,-y,-z
-x,1/2+y,-z
-x,-y,-z
x,1/2+y,-z
-x,y,z
x,1/2-y,z
1/2+x,1/2+y,z
1/2-x,-y,z
1/2+x,1/2-y,-z
1/2-x,y,-z
1/2-x,1/2-y,-z
1/2+x,y,-z
1/2-x,1/2+y,z
1/2+x,-y,z
loop_
_atom_site_type_symbol
_atom_site_label
_atom_site_fract_x
_atom_site_fract_y
_atom_site_fract_z
Si Si1 0.500000 0.926347 0.314444
Si Si2 0.612449 0.571718 0.732716
Si Si3 0.500000 0.082734 0.418095
Si Si4 0.873938 0.922905 0.447776
Si Si5 0.431450 0.420414 0.948159
Si Si6 0.565266 0.426836 0.157130
Si Si7 0.311796 0.930320 0.350904
O O1 0.500000 0.750000 0.299140
O O2 0.444939 0.010586 0.292903
O O3 0.500000 0.945759 0.376858
O O4 0.618015 0.750000 0.722111
O O5 0.608318 0.535113 0.794855
O O6 0.666579 0.487377 0.706268
O O7 0.500000 0.250000 0.390375
O O8 0.556997 0.069225 0.453423
O O9 0.851775 0.750000 0.444066
O O10 0.847200 0.000000 0.500000
O O11 0.855028 0.013376 0.395956
O O12 0.500000 0.432246 0.948899
O O13 0.409164 0.250000 0.948828
O O14 0.408337 0.496690 0.894844
O O15 0.405649 0.500000 0.000000
O O16 0.500000 0.485724 0.169557
O O17 0.562599 0.250000 0.146228
O O18 0.308973 0.750000 0.350970
O O19 0.250000 0.000000 0.362884
#
# Coordination Sequence:
#
# PCOD8280864 Si02
#       7
#     8  16   8  16  16  16  16
#     4  12  22  31  53  84 112 144 181 219 264 325
#     4  11  21  37  57  80 111 144 179 224 276 326
#     4  10  21  37  59  84 118 150 176 211 264 319
#     4  11  23  40  62  88 116 147 179 219 266 319
#     4   9  16  25  38  59  92 136 181 223 261 307
#     4   9  17  29  46  70 101 140 179 217 263 317
#     4  12  26  44  63  84 107 140 182 225 273 327
#
# _framework density 18.412461
#
# number of rings (size 3 to 8) (size 9 to 14) (size 15 to 20)
#    0.000    1.500    2.500    4.000    0.000    4.333 
#    0.000    1.667    0.000    0.000    0.000    0.000 
#    0.000    0.667    0.000    7.000    0.000    3.333 
#
# Total GULP energy -595164.002044 kJ/mol
# GULP energy per Si atom -12399.250043 kJ/mol
# Density = 1.837055 g / cm^3
# Si number density = 18.412461 Si / 1000 Ang^3
#
#
#
# Elastic Constant Matrix: (Units=GPa)
#
#
# Indices 1 2 3 4 5 6 
#
# 1 55.6266 28.2373 19.6130 0.0000 0.0000 0.0000
# 2 28.2373 125.6209 68.5530 0.0000 0.0000 0.0000
# 3 19.6130 68.5530 133.8914 0.0000 0.0000 0.0000
# 4 0.0000 0.0000 0.0000 35.4919 0.0000 0.0000
# 5 0.0000 0.0000 0.0000 0.0000 9.9304 0.0000
# 6 0.0000 0.0000 0.0000 0.0000 0.0000 23.2542
#
#
#
# Elastic Compliance Matrix: (Units=1/GPa)
#
#
# Indices 1 2 3 4 5 6 
#
# 1 0.020368 -0.004094 -0.000887 0.000000 0.000000 0.000000
# 2 -0.004094 0.011870 -0.005478 0.000000 0.000000 0.000000
# 3 -0.000887 -0.005478 0.010403 0.000000 0.000000 0.000000
# 4 0.000000 0.000000 0.000000 0.028175 0.000000 0.000000
# 5 0.000000 0.000000 0.000000 0.000000 0.100701 0.000000
# 6 0.000000 0.000000 0.000000 0.000000 0.000000 0.043003
#
#
# Mechanical properties :
#
#
# Convention : Reuss Voigt Hill
#
# Bulk Modulus (GPa) = 46.03429 60.88284 53.45856
# Shear Modulus (GPa) = 20.60321 26.98433 23.79377
#
# Velocity S-wave (km/s) = 3.34875 3.83240 3.59871
# Velocity P-wave (km/s) = 6.32520 7.26092 6.80915
#
# Compressibility (1/GPa) = 0.02172294
#
# Stress axis : x y z
#
# Youngs Moduli (GPa) = 49.09627 84.24567 96.12256
#
# Poissons Ratio (x) = 0.34491 0.08530
# Poissons Ratio (y) = 0.20101 0.52654
# Poissons Ratio (z) = 0.04357 0.46148
#
# Static dielectric constant tensor:
#      x y z
#    x 2.955620 0.000000 0.000000 
#    y 0.000000 3.516930 0.000000 
#    z 0.000000 0.000000 3.539000 
# 
# 
# High freq. dielectric constant tensor:
#      x y z
#    x 1.662300 0.000000 0.000000 
#    y 0.000000 1.728010 0.000000 
#    z 0.000000 0.000000 1.720540 
# 
# From -- ./inp_files/42591.got.cif
#   From: 2010.03.12/outbox.cif.g09.slc.cpg/sg67_22_cif.got.tgz:42591.got - 2010.04.10 22:41:39.
