data_PCOD8280264
_publ_section_title
;
Structure prediction by ZEFSAII (Michael W. Deem and Ramdas Pophale) SiO2 
 PCOD8280264
Probable space group: C M M A
;
_chemical_formula_sum "Si O2"
_cell_formula_units_Z 104
_cell_length_a 8.806558
_cell_length_b 29.352446
_cell_length_c 20.234734
_cell_angle_alpha 90.000000
_cell_angle_beta 90.000000
_cell_angle_gamma 90.000000
_cell_volume 5230.557698
_symmetry_space_group_name_H-M "C M M A"
_symmetry_group_IT_number 67
_symmetry_cell_setting 'orthorhombic'
loop_
_space_group_symop_operation_xyz
x,y,z
-x,1/2-y,z
x,-y,-z
-x,1/2+y,-z
-x,-y,-z
x,1/2+y,-z
-x,y,z
x,1/2-y,z
1/2+x,1/2+y,z
1/2-x,-y,z
1/2+x,1/2-y,-z
1/2-x,y,-z
1/2-x,1/2-y,-z
1/2+x,y,-z
1/2-x,1/2+y,z
1/2+x,-y,z
loop_
_atom_site_type_symbol
_atom_site_label
_atom_site_fract_x
_atom_site_fract_y
_atom_site_fract_z
Si Si1 0.176308 0.750000 0.069470
Si Si2 0.678818 0.131939 0.211044
Si Si3 0.321240 0.303413 0.688073
Si Si4 0.176660 0.848193 0.070195
Si Si5 0.667706 0.043719 0.742234
Si Si6 0.819557 0.640808 0.432250
Si Si7 0.168275 0.044384 0.411625
O O1 0.224959 0.798266 0.100669
O O2 0.000000 0.750000 0.059105
O O3 0.250000 0.750000 0.000000
O O4 0.500000 0.140836 0.217787
O O5 0.763718 0.175317 0.242811
O O6 0.723335 0.121786 0.133715
O O7 0.725873 0.087182 0.249819
O O8 0.500000 0.311778 0.681689
O O9 0.280204 0.250000 0.687334
O O10 0.239940 0.328656 0.627757
O O11 0.000000 0.851133 0.055051
O O12 0.250000 0.862131 0.000000
O O13 0.500000 0.050523 0.774374
O O14 0.647797 0.035560 0.665355
O O15 0.750000 0.000000 0.775131
O O16 0.750000 0.661123 0.500000
O O17 0.769758 0.588421 0.425801
O O18 0.000000 0.643790 0.433752
O O19 0.000000 0.051038 0.443088
O O20 0.250000 0.000000 0.443036
#
# Coordination Sequence:
#
# PCOD8280264 Si02
#       7
#     8  16  16  16  16  16  16
#     4   8  14  28  46  68 102 142 185 228 273 326
#     4  11  22  36  60  90 121 156 197 243 296 352
#     4  11  25  44  63  87 119 155 200 249 295 346
#     4   9  19  33  52  79 114 155 197 241 289 348
#     4  10  20  35  59  87 120 154 192 240 292 350
#     4  12  25  42  65  89 119 157 198 244 297 352
#     4  10  20  36  59  88 123 156 194 239 292 353
#
# _framework density 19.883157000000001
#
# number of rings (size 3 to 8) (size 9 to 14) (size 15 to 20)
#    0.000    1.692    1.538    3.231    1.077    4.308 
#    0.000    1.538    0.000    0.462    0.000    3.231 
#    0.000    0.000    0.000    0.000    0.000    0.000 
#
# Total GULP energy -644311.094565 kJ/mol
# GULP energy per Si atom -12390.597972 kJ/mol
# Density = 1.983790 g / cm^3
# Si number density = 19.883157 Si / 1000 Ang^3
#
#
#
# Elastic Constant Matrix: (Units=GPa)
#
#
# Indices 1 2 3 4 5 6 
#
# 1 123.2285 51.8738 47.7044 0.0000 0.0000 0.0000
# 2 51.8738 104.9660 33.7141 0.0000 0.0000 0.0000
# 3 47.7044 33.7141 99.7170 0.0000 0.0000 0.0000
# 4 0.0000 0.0000 0.0000 19.9186 0.0000 0.0000
# 5 0.0000 0.0000 0.0000 0.0000 28.6789 0.0000
# 6 0.0000 0.0000 0.0000 0.0000 0.0000 25.2562
#
#
#
# Elastic Compliance Matrix: (Units=1/GPa)
#
#
# Indices 1 2 3 4 5 6 
#
# 1 0.011527 -0.004404 -0.004026 0.000000 0.000000 0.000000
# 2 -0.004404 0.012370 -0.002075 0.000000 0.000000 0.000000
# 3 -0.004026 -0.002075 0.012656 0.000000 0.000000 0.000000
# 4 0.000000 0.000000 0.000000 0.050204 0.000000 0.000000
# 5 0.000000 0.000000 0.000000 0.000000 0.034869 0.000000
# 6 0.000000 0.000000 0.000000 0.000000 0.000000 0.039594
#
#
# Mechanical properties :
#
#
# Convention : Reuss Voigt Hill
#
# Bulk Modulus (GPa) = 64.33670 66.05513 65.19591
# Shear Modulus (GPa) = 26.67928 27.74535 27.21232
#
# Velocity S-wave (km/s) = 3.66704 3.73958 3.70349
# Velocity P-wave (km/s) = 7.09628 7.20692 7.15182
#
# Compressibility (1/GPa) = 0.01554323
#
# Stress axis : x y z
#
# Youngs Moduli (GPa) = 86.75127 80.84203 79.01395
#
# Poissons Ratio (x) = 0.35600 0.31809
# Poissons Ratio (y) = 0.38202 0.16399
# Poissons Ratio (z) = 0.34924 0.16779
#
# Static dielectric constant tensor:
#      x y z
#    x 3.857350 0.000000 0.000000 
#    y 0.000000 3.620740 0.000000 
#    z 0.000000 0.000000 3.630580 
# 
# 
# High freq. dielectric constant tensor:
#      x y z
#    x 1.788920 0.000000 0.000000 
#    y 0.000000 1.766700 0.000000 
#    z 0.000000 0.000000 1.767760 
# 
# From -- ./inp_files/37337.got.cif
#   From: 2010.03.12/outbox.cif.g09.slc.cpg/sg67_19_cif.got.tgz:37337.got - 2010.04.10 22:41:39.
