data_PCOD8280787
_publ_section_title
;
Structure prediction by ZEFSAII (Michael W. Deem and Ramdas Pophale) SiO2 
 PCOD8280787
Probable space group: C M M A
;
_chemical_formula_sum "Si O2"
_cell_formula_units_Z 56
_cell_length_a 17.268390
_cell_length_b 9.712119
_cell_length_c 14.925662
_cell_angle_alpha 90.000000
_cell_angle_beta 90.000000
_cell_angle_gamma 90.000000
_cell_volume 2503.222456
_symmetry_space_group_name_H-M "C M M A"
_symmetry_group_IT_number 67
_symmetry_cell_setting 'orthorhombic'
loop_
_space_group_symop_operation_xyz
x,y,z
-x,1/2-y,z
x,-y,-z
-x,1/2+y,-z
-x,-y,-z
x,1/2+y,-z
-x,y,z
x,1/2-y,z
1/2+x,1/2+y,z
1/2-x,-y,z
1/2+x,1/2-y,-z
1/2-x,y,-z
1/2-x,1/2-y,-z
1/2+x,y,-z
1/2-x,1/2+y,z
1/2+x,-y,z
loop_
_atom_site_type_symbol
_atom_site_label
_atom_site_fract_x
_atom_site_fract_y
_atom_site_fract_z
Si Si1 0.407903 0.750000 0.286983
Si Si2 0.203378 0.250000 0.116716
Si Si3 0.915951 0.250000 0.689294
Si Si4 0.618969 0.250000 0.115447
Si Si5 0.353013 0.000000 0.000000
Si Si6 0.658235 0.503150 0.397964
O O1 0.500000 0.750000 0.265749
O O2 0.360580 0.750000 0.194338
O O3 0.383592 0.874863 0.348170
O O4 0.291634 0.250000 0.149264
O O5 0.196788 0.108094 0.059875
O O6 0.931170 0.250000 0.795529
O O7 0.866043 0.375464 0.658914
O O8 0.000000 0.250000 0.642690
O O9 0.597454 0.391889 0.061144
O O10 0.628444 0.500000 0.500000
O O11 0.750000 0.500000 0.395269
#
# Coordination Sequence:
#
# PCOD8280787 Si02
#       6
#     8   8   8   8   8  16
#     4  12  26  42  63  96 134 169 206 255 320 381
#     4  11  20  37  61  87 120 160 209 258 307 366
#     4  12  26  42  63  96 134 169 206 255 320 381
#     4  11  20  37  61  87 120 160 209 258 307 366
#     4  10  21  36  61  90 115 156 213 264 305 358
#     4  11  24  44  69  95 124 165 216 263 310 370
#
# _framework density 22.371162000000002
#
# number of rings (size 3 to 8) (size 9 to 14) (size 15 to 20)
#    0.000    0.857    0.000    9.429    0.000    5.714 
#    0.000    4.286    0.000    0.000    0.000    0.000 
#    0.000    0.000    0.000    0.000    0.000    0.000 
#
# Total GULP energy -346895.205879 kJ/mol
# GULP energy per Si atom -12389.114496 kJ/mol
# Density = 2.232024 g / cm^3
# Si number density = 22.371162 Si / 1000 Ang^3
#
#
#
# Elastic Constant Matrix: (Units=GPa)
#
#
# Indices 1 2 3 4 5 6 
#
# 1 104.6200 31.3791 55.5199 0.0000 0.0000 0.0000
# 2 31.3791 210.9436 71.1811 0.0000 0.0000 0.0000
# 3 55.5199 71.1811 161.1286 0.0000 0.0000 0.0000
# 4 0.0000 0.0000 0.0000 41.7976 0.0000 0.0000
# 5 0.0000 0.0000 0.0000 0.0000 83.7039 0.0000
# 6 0.0000 0.0000 0.0000 0.0000 0.0000 44.4668
#
#
#
# Elastic Compliance Matrix: (Units=1/GPa)
#
#
# Indices 1 2 3 4 5 6 
#
# 1 0.011733 -0.000448 -0.003845 0.000000 0.000000 0.000000
# 2 -0.000448 0.005588 -0.002314 0.000000 0.000000 0.000000
# 3 -0.003845 -0.002314 0.008553 0.000000 0.000000 0.000000
# 4 0.000000 0.000000 0.000000 0.023925 0.000000 0.000000
# 5 0.000000 0.000000 0.000000 0.000000 0.011947 0.000000
# 6 0.000000 0.000000 0.000000 0.000000 0.000000 0.022489
#
#
# Mechanical properties :
#
#
# Convention : Reuss Voigt Hill
#
# Bulk Modulus (GPa) = 78.98674 88.09472 83.54073
# Shear Modulus (GPa) = 49.17871 55.23446 52.20658
#
# Velocity S-wave (km/s) = 4.69370 4.97430 4.83603
# Velocity P-wave (km/s) = 8.04726 8.51209 8.28294
#
# Compressibility (1/GPa) = 0.01266035
#
# Stress axis : x y z
#
# Youngs Moduli (GPa) = 85.22793 178.94899 116.91128
#
# Poissons Ratio (x) = 0.08015 0.44953
# Poissons Ratio (y) = 0.03817 0.27057
# Poissons Ratio (z) = 0.32770 0.41415
#
# Static dielectric constant tensor:
#      x y z
#    x 3.826240 0.000000 0.000000 
#    y 0.000000 4.309390 0.000000 
#    z 0.000000 0.000000 3.227500 
# 
# 
# High freq. dielectric constant tensor:
#      x y z
#    x 1.873010 0.000000 0.000000 
#    y 0.000000 1.907290 0.000000 
#    z 0.000000 0.000000 1.894770 
# 
# From -- ./inp_files/24655.got.cif
#   From: 2010.03.12/outbox.cif.g09.slc.cpg/sg67_13_cif.got.tgz:24655.got - 2010.04.10 22:41:39.
