data_PCOD8280725
_publ_section_title
;
Structure prediction by ZEFSAII (Michael W. Deem and Ramdas Pophale) SiO2 
 PCOD8280725
Probable space group: C M M A
;
_chemical_formula_sum "Si O2"
_cell_formula_units_Z 84
_cell_length_a 13.564236
_cell_length_b 13.719220
_cell_length_c 21.357761
_cell_angle_alpha 90.000000
_cell_angle_beta 90.000000
_cell_angle_gamma 90.000000
_cell_volume 3974.481503
_symmetry_space_group_name_H-M "C M M A"
_symmetry_group_IT_number 67
_symmetry_cell_setting 'orthorhombic'
loop_
_space_group_symop_operation_xyz
x,y,z
-x,1/2-y,z
x,-y,-z
-x,1/2+y,-z
-x,-y,-z
x,1/2+y,-z
-x,y,z
x,1/2-y,z
1/2+x,1/2+y,z
1/2-x,-y,z
1/2+x,1/2-y,-z
1/2-x,y,-z
1/2-x,1/2-y,-z
1/2+x,y,-z
1/2-x,1/2+y,z
1/2+x,-y,z
loop_
_atom_site_type_symbol
_atom_site_label
_atom_site_fract_x
_atom_site_fract_y
_atom_site_fract_z
Si Si1 0.386859 0.864324 0.584298
Si Si2 0.107777 0.141733 0.985249
Si Si3 0.279710 0.101106 0.898250
Si Si4 0.197985 0.856303 0.765558
Si Si5 0.388837 0.552641 0.722338
Si Si6 0.250000 0.500000 0.500000
O O1 0.500000 0.871777 0.561437
O O2 0.354589 0.750000 0.586294
O O3 0.374780 0.914111 0.651452
O O4 0.318034 0.927097 0.539336
O O5 0.101556 0.250000 0.014078
O O6 0.181728 0.149325 0.926877
O O7 0.000000 0.104861 0.963235
O O8 0.144942 0.077569 0.044384
O O9 0.327683 0.157485 0.839716
O O10 0.250000 0.000000 0.866711
O O11 0.178810 0.750000 0.734329
O O12 0.314031 0.883753 0.763541
O O13 0.133459 0.936693 0.729092
O O14 0.500000 0.572883 0.745596
#
# Coordination Sequence:
#
# PCOD8280725 Si02
#       6
#    16  16  16  16  16   4
#     4  10  22  40  62  92 131 170 206 250 300 348
#     4  10  21  36  55  78 104 142 187 232 294 368
#     4  11  21  37  55  77 112 143 183 240 297 355
#     4  11  22  39  61  87 117 152 198 253 308 357
#     4  10  22  41  61  86 120 160 204 245 294 356
#     4  12  20  36  68 100 132 164 216 250 292 344
#
# _framework density 21.134831999999999
#
# number of rings (size 3 to 8) (size 9 to 14) (size 15 to 20)
#    0.000    1.524    1.905    5.714    0.000    4.571 
#    0.000    0.952    0.000    2.286    0.000    0.000 
#    0.000    0.000    0.000    0.000    0.000    0.000 
#
# Total GULP energy -520448.797922 kJ/mol
# GULP energy per Si atom -12391.638046 kJ/mol
# Density = 2.108673 g / cm^3
# Si number density = 21.134832 Si / 1000 Ang^3
#
#
#
# Elastic Constant Matrix: (Units=GPa)
#
#
# Indices 1 2 3 4 5 6 
#
# 1 109.2400 17.1097 45.1588 0.0000 0.0000 0.0000
# 2 17.1097 136.4459 44.7818 0.0000 0.0000 0.0000
# 3 45.1588 44.7818 98.7250 0.0000 0.0000 0.0000
# 4 0.0000 0.0000 0.0000 27.1860 0.0000 0.0000
# 5 0.0000 0.0000 0.0000 0.0000 20.8853 0.0000
# 6 0.0000 0.0000 0.0000 0.0000 0.0000 28.9719
#
#
#
# Elastic Compliance Matrix: (Units=1/GPa)
#
#
# Indices 1 2 3 4 5 6 
#
# 1 0.011301 0.000328 -0.005318 0.000000 0.000000 0.000000
# 2 0.000328 0.008620 -0.004060 0.000000 0.000000 0.000000
# 3 -0.005318 -0.004060 0.014404 0.000000 0.000000 0.000000
# 4 0.000000 0.000000 0.000000 0.036784 0.000000 0.000000
# 5 0.000000 0.000000 0.000000 0.000000 0.047881 0.000000
# 6 0.000000 0.000000 0.000000 0.000000 0.000000 0.034516
#
#
# Mechanical properties :
#
#
# Convention : Reuss Voigt Hill
#
# Bulk Modulus (GPa) = 61.63518 62.05681 61.84600
# Shear Modulus (GPa) = 28.24621 31.23267 29.73944
#
# Velocity S-wave (km/s) = 3.65975 3.84836 3.75524
# Velocity P-wave (km/s) = 6.86182 7.01232 6.93748
#
# Compressibility (1/GPa) = 0.01622450
#
# Stress axis : x y z
#
# Youngs Moduli (GPa) = 88.48539 116.00426 69.42661
#
# Poissons Ratio (x) = -0.03809 0.36924
# Poissons Ratio (y) = -0.02906 0.28190
# Poissons Ratio (z) = 0.47060 0.47103
#
# Static dielectric constant tensor:
#      x y z
#    x 3.932790 0.000000 0.000000 
#    y 0.000000 4.117500 0.000000 
#    z 0.000000 0.000000 3.508200 
# 
# 
# High freq. dielectric constant tensor:
#      x y z
#    x 1.821280 0.000000 0.000000 
#    y 0.000000 1.849120 0.000000 
#    z 0.000000 0.000000 1.810390 
# 
# From -- ./inp_files/38300.got.cif
#   From: 2010.03.12/outbox.cif.g09.slc.cpg/sg67_20_cif.got.tgz:38300.got - 2010.04.10 22:41:39.
