data_PCOD8280166
_publ_section_title
;
Structure prediction by ZEFSAII (Michael W. Deem and Ramdas Pophale) SiO2 
 PCOD8280166
Probable space group: C M M A
;
_chemical_formula_sum "Si O2"
_cell_formula_units_Z 96
_cell_length_a 13.721536
_cell_length_b 16.787255
_cell_length_c 21.535687
_cell_angle_alpha 90.000000
_cell_angle_beta 90.000000
_cell_angle_gamma 90.000000
_cell_volume 4960.679253
_symmetry_space_group_name_H-M "C M M A"
_symmetry_group_IT_number 67
_symmetry_cell_setting 'orthorhombic'
loop_
_space_group_symop_operation_xyz
x,y,z
-x,1/2-y,z
x,-y,-z
-x,1/2+y,-z
-x,-y,-z
x,1/2+y,-z
-x,y,z
x,1/2-y,z
1/2+x,1/2+y,z
1/2-x,-y,z
1/2+x,1/2-y,-z
1/2-x,y,-z
1/2-x,1/2-y,-z
1/2+x,y,-z
1/2-x,1/2+y,z
1/2+x,-y,z
loop_
_atom_site_type_symbol
_atom_site_label
_atom_site_fract_x
_atom_site_fract_y
_atom_site_fract_z
Si Si1 0.610314 0.658047 0.982503
Si Si2 0.890049 0.343043 0.207551
Si Si3 0.110359 0.500951 0.430871
Si Si4 0.892355 0.839454 0.360824
Si Si5 0.288617 0.419523 0.684063
Si Si6 0.724816 0.091731 0.906293
O O1 0.500000 0.635864 0.964979
O O2 0.620260 0.750000 0.002208
O O3 0.677332 0.640625 0.922833
O O4 0.643716 0.604989 0.040743
O O5 0.871981 0.250000 0.213269
O O6 0.874502 0.382379 0.275060
O O7 0.813969 0.379034 0.159390
O O8 0.000000 0.361841 0.185930
O O9 0.154510 0.500000 0.500000
O O10 0.114093 0.594117 0.413770
O O11 0.172642 0.444123 0.384857
O O12 0.000000 0.468307 0.429809
O O13 0.880557 0.750000 0.388315
O O14 0.801520 0.856905 0.315333
O O15 0.000000 0.846526 0.328026
O O16 0.250000 0.500000 0.716863
O O17 0.750000 0.000000 0.902269
#
# Coordination Sequence:
#
# PCOD8280166 Si02
#       6
#    16  16  16  16  16  16
#     4  10  20  36  59  85 114 148 186 231 282 333
#     4  11  23  39  58  79 108 147 188 231 281 337
#     4   9  18  34  56  80 108 141 177 222 276 331
#     4   9  18  33  52  74 102 138 176 215 264 322
#     4  10  20  35  56  81 108 138 179 227 273 329
#     4  11  22  36  56  82 112 147 187 233 280 331
#
# _framework density 19.352188000000002
#
# number of rings (size 3 to 8) (size 9 to 14) (size 15 to 20)
#    0.000    2.000    0.000    5.000    0.000    7.000 
#    0.000    3.333    0.000    7.000    0.000    0.000 
#    0.000    0.000    0.000    0.000    0.000    0.000 
#
# Total GULP energy -594934.918883 kJ/mol
# GULP energy per Si atom -12394.477477 kJ/mol
# Density = 1.930814 g / cm^3
# Si number density = 19.352188 Si / 1000 Ang^3
#
#
#
# Elastic Constant Matrix: (Units=GPa)
#
#
# Indices 1 2 3 4 5 6 
#
# 1 137.1205 56.2646 50.5528 0.0000 0.0000 0.0000
# 2 56.2646 115.3976 46.5195 0.0000 0.0000 0.0000
# 3 50.5528 46.5195 108.3492 0.0000 0.0000 0.0000
# 4 0.0000 0.0000 0.0000 19.6913 0.0000 0.0000
# 5 0.0000 0.0000 0.0000 0.0000 26.0145 0.0000
# 6 0.0000 0.0000 0.0000 0.0000 0.0000 26.9969
#
#
#
# Elastic Compliance Matrix: (Units=1/GPa)
#
#
# Indices 1 2 3 4 5 6 
#
# 1 0.009899 -0.003585 -0.003079 0.000000 0.000000 0.000000
# 2 -0.003585 0.011778 -0.003384 0.000000 0.000000 0.000000
# 3 -0.003079 -0.003384 0.012119 0.000000 0.000000 0.000000
# 4 0.000000 0.000000 0.000000 0.050784 0.000000 0.000000
# 5 0.000000 0.000000 0.000000 0.000000 0.038440 0.000000
# 6 0.000000 0.000000 0.000000 0.000000 0.000000 0.037041
#
#
# Mechanical properties :
#
#
# Convention : Reuss Voigt Hill
#
# Bulk Modulus (GPa) = 72.99842 74.17123 73.58483
# Shear Modulus (GPa) = 27.06722 28.37591 27.72156
#
# Velocity S-wave (km/s) = 3.74393 3.83337 3.78891
# Velocity P-wave (km/s) = 7.51613 7.61599 7.56622
#
# Compressibility (1/GPa) = 0.01369893
#
# Stress axis : x y z
#
# Youngs Moduli (GPa) = 101.01739 84.90446 82.51417
#
# Poissons Ratio (x) = 0.30440 0.25410
# Poissons Ratio (y) = 0.36217 0.27923
# Poissons Ratio (z) = 0.31108 0.28732
#
# Static dielectric constant tensor:
#      x y z
#    x 3.943860 0.000000 0.000000 
#    y 0.000000 3.619770 0.000000 
#    z 0.000000 0.000000 3.270860 
# 
# 
# High freq. dielectric constant tensor:
#      x y z
#    x 1.775760 0.000000 0.000000 
#    y 0.000000 1.758370 0.000000 
#    z 0.000000 0.000000 1.722970 
# 
# From -- ./inp_files/38457.got.cif
#   From: 2010.03.12/outbox.cif.g09.slc.cpg/sg67_20_cif.got.tgz:38457.got - 2010.04.10 22:41:39.
