data_PCOD8280262
_publ_section_title
;
Structure prediction by ZEFSAII (Michael W. Deem and Ramdas Pophale) SiO2 
 PCOD8280262
Probable space group: C M M A
;
_chemical_formula_sum "Si O2"
_cell_formula_units_Z 80
_cell_length_a 9.360903
_cell_length_b 17.555555
_cell_length_c 23.806964
_cell_angle_alpha 90.000000
_cell_angle_beta 90.000000
_cell_angle_gamma 90.000000
_cell_volume 3912.337605
_symmetry_space_group_name_H-M "C M M A"
_symmetry_group_IT_number 67
_symmetry_cell_setting 'orthorhombic'
loop_
_space_group_symop_operation_xyz
x,y,z
-x,1/2-y,z
x,-y,-z
-x,1/2+y,-z
-x,-y,-z
x,1/2+y,-z
-x,y,z
x,1/2-y,z
1/2+x,1/2+y,z
1/2-x,-y,z
1/2+x,1/2-y,-z
1/2-x,y,-z
1/2-x,1/2-y,-z
1/2+x,y,-z
1/2-x,1/2+y,z
1/2+x,-y,z
loop_
_atom_site_type_symbol
_atom_site_label
_atom_site_fract_x
_atom_site_fract_y
_atom_site_fract_z
Si Si1 0.291671 0.839598 0.632971
Si Si2 0.838652 0.923073 0.255027
Si Si3 0.336594 0.340752 0.054013
Si Si4 0.336646 0.659693 0.161797
Si Si5 0.000000 0.160725 0.537701
Si Si6 0.000000 0.339917 0.413891
O O1 0.312894 0.750000 0.645032
O O2 0.357069 0.886097 0.683985
O O3 0.362960 0.863182 0.573974
O O4 0.129920 0.865482 0.624897
O O5 0.749985 0.865626 0.216344
O O6 0.000000 0.937048 0.231762
O O7 0.750000 0.000000 0.258338
O O8 0.500000 0.372025 0.053927
O O9 0.340243 0.250000 0.054083
O O10 0.249703 0.371706 0.107852
O O11 0.250000 0.371139 0.000000
O O12 0.500000 0.628143 0.161593
O O13 0.340771 0.750000 0.161220
O O14 0.000000 0.250000 0.527408
O O15 0.000000 0.121291 0.476042
O O16 0.000000 0.250000 0.422768
#
# Coordination Sequence:
#
# PCOD8280262 Si02
#       6
#    16  16  16  16   8   8
#     4  10  20  35  59  87 114 146 185 232 284 342
#     4  12  26  42  59  79 111 153 196 244 294 345
#     4   9  16  28  50  83 122 158 192 234 285 336
#     4  10  21  37  60  89 119 152 194 241 288 342
#     4   9  16  32  55  87 117 143 180 227 282 339
#     4   9  18  30  55  89 119 143 176 227 282 339
#
# _framework density 20.448132999999999
#
# number of rings (size 3 to 8) (size 9 to 14) (size 15 to 20)
#    0.000    2.000    1.000    3.000    2.800    6.800 
#    0.000    0.000    0.000    4.200    0.000    4.200 
#    0.000    0.000    0.000    0.000    0.000    0.000 
#
# Total GULP energy -495828.582363 kJ/mol
# GULP energy per Si atom -12395.714559 kJ/mol
# Density = 2.040159 g / cm^3
# Si number density = 20.448133 Si / 1000 Ang^3
#
#
#
# Elastic Constant Matrix: (Units=GPa)
#
#
# Indices 1 2 3 4 5 6 
#
# 1 189.8440 21.4432 43.6034 0.0000 0.0000 0.0000
# 2 21.4432 18.6131 9.3241 0.0000 0.0000 0.0000
# 3 43.6034 9.3241 100.5556 0.0000 0.0000 0.0000
# 4 0.0000 0.0000 0.0000 0.2402 0.0000 0.0000
# 5 0.0000 0.0000 0.0000 0.0000 56.0898 0.0000
# 6 0.0000 0.0000 0.0000 0.0000 0.0000 14.7538
#
#
#
# Elastic Compliance Matrix: (Units=1/GPa)
#
#
# Indices 1 2 3 4 5 6 
#
# 1 0.006499 -0.006371 -0.002227 0.000000 0.000000 0.000000
# 2 -0.006371 0.062589 -0.003041 0.000000 0.000000 0.000000
# 3 -0.002227 -0.003041 0.011192 0.000000 0.000000 0.000000
# 4 0.000000 0.000000 0.000000 4.163200 0.000000 0.000000
# 5 0.000000 0.000000 0.000000 0.000000 0.017829 0.000000
# 6 0.000000 0.000000 0.000000 0.000000 0.000000 0.067779
#
#
# Mechanical properties :
#
#
# Convention : Reuss Voigt Hill
#
# Bulk Modulus (GPa) = 17.54339 50.86157 34.20248
# Shear Modulus (GPa) = 1.14381 29.85957 15.50169
#
# Velocity S-wave (km/s) = 0.74872 3.82548 2.75634
# Velocity P-wave (km/s) = 3.05705 6.66632 5.18582
#
# Compressibility (1/GPa) = 0.05700153
#
# Stress axis : x y z
#
# Youngs Moduli (GPa) = 153.87801 15.97729 89.34562
#
# Poissons Ratio (x) = 0.10179 0.19899
# Poissons Ratio (y) = 0.98037 0.27169
# Poissons Ratio (z) = 0.34272 0.04859
#
# Static dielectric constant tensor:
#      x y z
#    x 3.927290 0.000000 0.000000 
#    y 0.000000 3.134600 0.000000 
#    z 0.000000 0.000000 3.817290 
# 
# 
# High freq. dielectric constant tensor:
#      x y z
#    x 1.826430 0.000000 0.000000 
#    y 0.000000 1.737750 0.000000 
#    z 0.000000 0.000000 1.809590 
# 
# From -- ./inp_files/40597.got.cif
#   From: 2010.03.12/outbox.cif.g09.slc.cpg/sg67_21_cif.got.tgz:40597.got - 2010.04.10 22:41:39.
