data_PCOD8280386
_publ_section_title
;
Structure prediction by ZEFSAII (Michael W. Deem and Ramdas Pophale) SiO2 
 PCOD8280386
Probable space group: C M M A
;
_chemical_formula_sum "Si O2"
_cell_formula_units_Z 104
_cell_length_a 12.823435
_cell_length_b 26.414383
_cell_length_c 15.796160
_cell_angle_alpha 90.000000
_cell_angle_beta 90.000000
_cell_angle_gamma 90.000000
_cell_volume 5350.524654
_symmetry_space_group_name_H-M "C M M A"
_symmetry_group_IT_number 67
_symmetry_cell_setting 'orthorhombic'
loop_
_space_group_symop_operation_xyz
x,y,z
-x,1/2-y,z
x,-y,-z
-x,1/2+y,-z
-x,-y,-z
x,1/2+y,-z
-x,y,z
x,1/2-y,z
1/2+x,1/2+y,z
1/2-x,-y,z
1/2+x,1/2-y,-z
1/2-x,y,-z
1/2-x,1/2-y,-z
1/2+x,y,-z
1/2-x,1/2+y,z
1/2+x,-y,z
loop_
_atom_site_type_symbol
_atom_site_label
_atom_site_fract_x
_atom_site_fract_y
_atom_site_fract_z
Si Si1 0.000000 0.309060 0.818303
Si Si2 0.680173 0.455558 0.707499
Si Si3 0.000000 0.995465 0.397432
Si Si4 0.387538 0.132093 0.808955
Si Si5 0.779924 0.880009 0.413811
Si Si6 0.385410 0.192775 0.636889
Si Si7 0.779155 0.193741 0.902291
Si Si8 0.000000 0.877330 0.352784
O O1 0.899236 0.318955 0.878306
O O2 0.000000 0.250000 0.786042
O O3 0.000000 0.349573 0.739945
O O4 0.750000 0.500000 0.746784
O O5 0.601130 0.475340 0.636327
O O6 0.623524 0.427283 0.784871
O O7 0.759686 0.415938 0.665378
O O8 0.000000 0.939085 0.356999
O O9 0.000000 0.000000 0.500000
O O10 0.500000 0.138621 0.855215
O O11 0.386922 0.165238 0.725673
O O12 0.292672 0.149821 0.865607
O O13 0.750000 0.910321 0.500000
O O14 0.702541 0.832045 0.421032
O O15 0.898007 0.859697 0.404713
O O16 0.500000 0.188003 0.594090
O O17 0.353228 0.250000 0.653267
O O18 0.752596 0.250000 0.866501
O O19 0.750000 0.193168 0.000000
#
# Coordination Sequence:
#
# PCOD8280386 Si02
#       8
#     8  16   8  16  16  16  16   8
#     4  10  22  42  63  91 130 163 207 254 300 386
#     4  11  22  38  57  85 115 155 199 250 309 368
#     4  12  24  38  59  87 122 155 207 272 317 357
#     4  10  20  36  59  87 117 152 198 243 293 363
#     4  11  24  36  56  81 114 151 201 256 312 362
#     4   9  19  36  56  79 109 149 193 238 294 357
#     4  10  22  38  63  96 128 160 194 245 307 364
#     4  12  24  40  60  90 119 168 210 250 326 381
#
# _framework density 19.437346999999999
#
# number of rings (size 3 to 8) (size 9 to 14) (size 15 to 20)
#    0.000    1.538    2.308    3.231    3.231    3.077 
#    0.000    0.000    0.000    0.462    0.000    2.154 
#    0.000    0.000    0.000    0.000    0.000    0.000 
#
# Total GULP energy -644276.717423 kJ/mol
# GULP energy per Si atom -12389.936874 kJ/mol
# Density = 1.939311 g / cm^3
# Si number density = 19.437347 Si / 1000 Ang^3
#
#
#
# Elastic Constant Matrix: (Units=GPa)
#
#
# Indices 1 2 3 4 5 6 
#
# 1 164.9211 56.0015 47.0133 0.0000 0.0000 0.0000
# 2 56.0015 117.0587 30.1968 0.0000 0.0000 0.0000
# 3 47.0133 30.1968 68.2084 0.0000 0.0000 0.0000
# 4 0.0000 0.0000 0.0000 23.8830 0.0000 0.0000
# 5 0.0000 0.0000 0.0000 0.0000 31.6854 0.0000
# 6 0.0000 0.0000 0.0000 0.0000 0.0000 27.9133
#
#
#
# Elastic Compliance Matrix: (Units=1/GPa)
#
#
# Indices 1 2 3 4 5 6 
#
# 1 0.008294 -0.002814 -0.004470 0.000000 0.000000 0.000000
# 2 -0.002814 0.010599 -0.002753 0.000000 0.000000 0.000000
# 3 -0.004470 -0.002753 0.018961 0.000000 0.000000 0.000000
# 4 0.000000 0.000000 0.000000 0.041871 0.000000 0.000000
# 5 0.000000 0.000000 0.000000 0.000000 0.031560 0.000000
# 6 0.000000 0.000000 0.000000 0.000000 0.000000 0.035825
#
#
# Mechanical properties :
#
#
# Convention : Reuss Voigt Hill
#
# Bulk Modulus (GPa) = 56.24685 68.51239 62.37962
# Shear Modulus (GPa) = 28.88320 31.16144 30.02232
#
# Velocity S-wave (km/s) = 3.85900 4.00831 3.93436
# Velocity P-wave (km/s) = 6.98972 7.53302 7.26645
#
# Compressibility (1/GPa) = 0.01777877
#
# Stress axis : x y z
#
# Youngs Moduli (GPa) = 120.57533 94.34644 52.74038
#
# Poissons Ratio (x) = 0.26554 0.23577
# Poissons Ratio (y) = 0.33936 0.14517
# Poissons Ratio (z) = 0.53902 0.25969
#
# Static dielectric constant tensor:
#      x y z
#    x 4.098380 0.000000 0.000000 
#    y 0.000000 3.868940 0.000000 
#    z 0.000000 0.000000 3.346200 
# 
# 
# High freq. dielectric constant tensor:
#      x y z
#    x 1.783660 0.000000 0.000000 
#    y 0.000000 1.754720 0.000000 
#    z 0.000000 0.000000 1.717390 
# 
# From -- ./inp_files/33184.got.cif
#   From: 2010.03.12/outbox.cif.g09.slc.cpg/sg67_17_cif.got.tgz:33184.got - 2010.04.10 22:41:39.
