data_PCOD8280080
_publ_section_title
;
Structure prediction by ZEFSAII (Michael W. Deem and Ramdas Pophale) SiO2 
 PCOD8280080
Probable space group: C M M A
;
_chemical_formula_sum "Si O2"
_cell_formula_units_Z 104
_cell_length_a 29.531338
_cell_length_b 8.895644
_cell_length_c 20.157501
_cell_angle_alpha 90.000000
_cell_angle_beta 90.000000
_cell_angle_gamma 90.000000
_cell_volume 5295.380949
_symmetry_space_group_name_H-M "C M M A"
_symmetry_group_IT_number 67
_symmetry_cell_setting 'orthorhombic'
loop_
_space_group_symop_operation_xyz
x,y,z
-x,1/2-y,z
x,-y,-z
-x,1/2+y,-z
-x,-y,-z
x,1/2+y,-z
-x,y,z
x,1/2-y,z
1/2+x,1/2+y,z
1/2-x,-y,z
1/2+x,1/2-y,-z
1/2-x,y,-z
1/2-x,1/2-y,-z
1/2+x,y,-z
1/2-x,1/2+y,z
1/2+x,-y,z
loop_
_atom_site_type_symbol
_atom_site_label
_atom_site_fract_x
_atom_site_fract_y
_atom_site_fract_z
Si Si1 0.902094 0.926154 0.571835
Si Si2 0.500000 0.421537 0.568494
Si Si3 0.706019 0.917257 0.090750
Si Si4 0.293381 0.417048 0.754259
Si Si5 0.551192 0.071604 0.191359
Si Si6 0.378511 0.926945 0.700704
Si Si7 0.889265 0.070947 0.932732
O O1 0.892534 0.750000 0.564413
O O2 0.952435 0.962411 0.602977
O O3 0.893713 0.000000 0.500000
O O4 0.871154 0.997355 0.628559
O O5 0.500000 0.250000 0.549379
O O6 0.500000 0.500000 0.500000
O O7 0.700489 0.750000 0.059496
O O8 0.713931 0.899531 0.168288
O O9 0.750000 0.000000 0.059700
O O10 0.662022 0.015624 0.075346
O O11 0.299410 0.250000 0.722558
O O12 0.250000 0.500000 0.721804
O O13 0.336351 0.522597 0.744141
O O14 0.500000 0.004843 0.191431
O O15 0.549329 0.250000 0.188293
O O16 0.576549 0.020737 0.259076
O O17 0.579263 0.012147 0.127746
O O18 0.378220 0.750000 0.690765
O O19 0.889668 0.250000 0.936656
O O20 0.909852 0.000000 0.000000
#
# Coordination Sequence:
#
# PCOD8280080 Si02
#       7
#    16   8  16  16  16  16  16
#     4  10  20  35  53  79 114 153 194 238 288 340
#     4   8  16  30  48  70 104 144 185 228 275 330
#     4  10  20  35  57  84 115 147 183 228 285 344
#     4  10  20  35  58  86 117 148 186 233 284 341
#     4   9  20  38  58  82 113 150 193 240 286 336
#     4  11  21  35  59  87 116 152 193 235 286 341
#     4  11  22  38  59  82 113 150 192 238 287 342
#
# _framework density 19.639756999999999
#
# number of rings (size 3 to 8) (size 9 to 14) (size 15 to 20)
#    0.000    2.000    1.538    2.308    1.077    2.462 
#    0.000    1.538    0.000    5.538    0.000    3.231 
#    0.000    0.000    0.000    0.000    0.000    0.000 
#
# Total GULP energy -644422.619898 kJ/mol
# GULP energy per Si atom -12392.742690 kJ/mol
# Density = 1.959506 g / cm^3
# Si number density = 19.639757 Si / 1000 Ang^3
#
#
#
# Elastic Constant Matrix: (Units=GPa)
#
#
# Indices 1 2 3 4 5 6 
#
# 1 108.9778 30.5423 34.6476 0.0000 0.0000 0.0000
# 2 30.5423 89.9148 44.2155 0.0000 0.0000 0.0000
# 3 34.6476 44.2155 99.6207 0.0000 0.0000 0.0000
# 4 0.0000 0.0000 0.0000 28.5675 0.0000 0.0000
# 5 0.0000 0.0000 0.0000 0.0000 -9.3679 0.0000
# 6 0.0000 0.0000 0.0000 0.0000 0.0000 27.5063
#
#
#
# Elastic Compliance Matrix: (Units=1/GPa)
#
#
# Indices 1 2 3 4 5 6 
#
# 1 0.010677 -0.002304 -0.002691 0.000000 0.000000 0.000000
# 2 -0.002304 0.014724 -0.005734 0.000000 0.000000 0.000000
# 3 -0.002691 -0.005734 0.013519 0.000000 0.000000 0.000000
# 4 0.000000 0.000000 0.000000 0.035005 0.000000 0.000000
# 5 0.000000 0.000000 0.000000 0.000000 -0.106747 0.000000
# 6 0.000000 0.000000 0.000000 0.000000 0.000000 0.036355
#
#
# Mechanical properties :
#
#
# Convention : Reuss Voigt Hill
#
# Bulk Modulus (GPa) = 57.26371 57.48045 57.37208
# Shear Modulus (GPa) = 162.28217 21.94838 92.11527
#
# Velocity S-wave (km/s) = 9.09993 3.34660 6.85597
# Velocity P-wave (km/s) = 11.81660 6.65311 9.58895
#
# Compressibility (1/GPa) = 0.01746307
#
# Stress axis : x y z
#
# Youngs Moduli (GPa) = 93.65604 67.91773 73.97041
#
# Poissons Ratio (x) = 0.15645 0.19906
# Poissons Ratio (y) = 0.21574 0.42413
# Poissons Ratio (z) = 0.25204 0.38943
#
# Static dielectric constant tensor:
#      x y z
#    x 3.703180 0.000000 0.000000 
#    y 0.000000 3.630390 0.000000 
#    z 0.000000 0.000000 3.479030 
# 
# 
# High freq. dielectric constant tensor:
#      x y z
#    x 1.758200 0.000000 0.000000 
#    y 0.000000 1.766020 0.000000 
#    z 0.000000 0.000000 1.754700 
# 
# From -- ./inp_files/39968.got.cif
#   From: 2010.03.12/outbox.cif.g09.slc.cpg/sg67_20_cif.got.tgz:39968.got - 2010.04.10 22:41:39.
