data_PCOD8280727
_publ_section_title
;
Structure prediction by ZEFSAII (Michael W. Deem and Ramdas Pophale) SiO2 
 PCOD8280727
Probable space group: C M M A
;
_chemical_formula_sum "Si O2"
_cell_formula_units_Z 116
_cell_length_a 9.196198
_cell_length_b 29.612189
_cell_length_c 23.121274
_cell_angle_alpha 90.000000
_cell_angle_beta 90.000000
_cell_angle_gamma 90.000000
_cell_volume 6296.375006
_symmetry_space_group_name_H-M "C M M A"
_symmetry_group_IT_number 67
_symmetry_cell_setting 'orthorhombic'
loop_
_space_group_symop_operation_xyz
x,y,z
-x,1/2-y,z
x,-y,-z
-x,1/2+y,-z
-x,-y,-z
x,1/2+y,-z
-x,y,z
x,1/2-y,z
1/2+x,1/2+y,z
1/2-x,-y,z
1/2+x,1/2-y,-z
1/2-x,y,-z
1/2-x,1/2-y,-z
1/2+x,y,-z
1/2-x,1/2+y,z
1/2+x,-y,z
loop_
_atom_site_type_symbol
_atom_site_label
_atom_site_fract_x
_atom_site_fract_y
_atom_site_fract_z
Si Si1 0.167653 0.198257 0.718042
Si Si2 0.828678 0.638544 0.941718
Si Si3 0.336815 0.913169 0.553446
Si Si4 0.250000 0.500000 0.500000
Si Si5 0.671241 0.882160 0.334131
Si Si6 0.165443 0.802200 0.148482
Si Si7 0.669661 0.544092 0.109787
Si Si8 0.830822 0.044019 0.241413
O O1 0.196960 0.250000 0.700788
O O2 0.269654 0.167935 0.677637
O O3 0.207647 0.190323 0.784892
O O4 0.000000 0.185584 0.706999
O O5 0.777382 0.669479 0.889205
O O6 0.785816 0.586832 0.928727
O O7 0.000000 0.644724 0.948954
O O8 0.750000 0.654346 0.000000
O O9 0.500000 0.893565 0.558015
O O10 0.250000 0.889587 0.500000
O O11 0.248911 0.903885 0.611241
O O12 0.346093 0.967360 0.541478
O O13 0.500000 0.880163 0.345900
O O14 0.711662 0.912605 0.278899
O O15 0.181856 0.750000 0.131612
O O16 0.000000 0.818175 0.136948
O O17 0.500000 0.534335 0.106436
O O18 0.750000 0.500000 0.084879
O O19 0.718543 0.553972 0.175702
O O20 0.000000 0.033478 0.245472
O O21 0.750000 0.000000 0.266067
#
# Coordination Sequence:
#
# PCOD8280727 Si02
#       8
#    16  16  16   4  16  16  16  16
#     4   9  19  37  60  85 112 143 180 223 274 329
#     4  11  23  37  54  77 105 137 177 222 269 323
#     4  10  21  36  55  78 110 148 190 232 274 319
#     4   8  22  36  58  76 108 152 198 236 276 324
#     4  11  22  34  53  83 116 148 187 229 271 322
#     4   9  19  37  60  84 110 140 175 217 269 329
#     4   9  19  36  54  72  99 135 176 220 267 317
#     4   9  19  33  49  74 106 139 174 216 265 320
#
# _framework density 18.423299
#
# number of rings (size 3 to 8) (size 9 to 14) (size 15 to 20)
#    0.414    1.931    0.000    3.103    0.966    4.966 
#    0.000    5.517    0.000    0.414    0.000    0.000 
#    0.000    0.000    0.000    0.000    0.000    0.000 
#
# Total GULP energy -719177.212074 kJ/mol
# GULP energy per Si atom -12399.607105 kJ/mol
# Density = 1.838137 g / cm^3
# Si number density = 18.423299 Si / 1000 Ang^3
#
#
#
# Elastic Constant Matrix: (Units=GPa)
#
#
# Indices 1 2 3 4 5 6 
#
# 1 90.7610 44.3753 41.4945 0.0000 0.0000 0.0000
# 2 44.3753 84.6913 34.7459 0.0000 0.0000 0.0000
# 3 41.4945 34.7459 65.9003 0.0000 0.0000 0.0000
# 4 0.0000 0.0000 0.0000 21.4918 0.0000 0.0000
# 5 0.0000 0.0000 0.0000 0.0000 29.1039 0.0000
# 6 0.0000 0.0000 0.0000 0.0000 0.0000 32.1086
#
#
#
# Elastic Compliance Matrix: (Units=1/GPa)
#
#
# Indices 1 2 3 4 5 6 
#
# 1 0.017541 -0.005946 -0.007910 0.000000 0.000000 0.000000
# 2 -0.005946 0.017082 -0.005263 0.000000 0.000000 0.000000
# 3 -0.007910 -0.005263 0.022930 0.000000 0.000000 0.000000
# 4 0.000000 0.000000 0.000000 0.046529 0.000000 0.000000
# 5 0.000000 0.000000 0.000000 0.000000 0.034360 0.000000
# 6 0.000000 0.000000 0.000000 0.000000 0.000000 0.031144
#
#
# Mechanical properties :
#
#
# Convention : Reuss Voigt Hill
#
# Bulk Modulus (GPa) = 51.77041 53.62045 52.69543
# Shear Modulus (GPa) = 23.33585 24.58999 23.96292
#
# Velocity S-wave (km/s) = 3.56286 3.65735 3.61041
# Velocity P-wave (km/s) = 6.71467 6.85586 6.78563
#
# Compressibility (1/GPa) = 0.01931605
#
# Stress axis : x y z
#
# Youngs Moduli (GPa) = 57.00803 58.54080 43.61129
#
# Poissons Ratio (x) = 0.34807 0.34497
# Poissons Ratio (y) = 0.33896 0.22951
# Poissons Ratio (z) = 0.45094 0.30808
#
# Static dielectric constant tensor:
#      x y z
#    x 3.317710 0.000000 0.000000 
#    y 0.000000 3.298790 0.000000 
#    z 0.000000 0.000000 3.301480 
# 
# 
# High freq. dielectric constant tensor:
#      x y z
#    x 1.716750 0.000000 0.000000 
#    y 0.000000 1.705370 0.000000 
#    z 0.000000 0.000000 1.706900 
# 
# From -- ./inp_files/41217.got.cif
#   From: 2010.03.12/outbox.cif.g09.slc.cpg/sg67_21_cif.got.tgz:41217.got - 2010.04.10 22:41:39.
