data_PCOD8280151
_publ_section_title
;
Structure prediction by ZEFSAII (Michael W. Deem and Ramdas Pophale) SiO2 
 PCOD8280151
Probable space group: C M M A
;
_chemical_formula_sum "Si O2"
_cell_formula_units_Z 80
_cell_length_a 8.977187
_cell_length_b 19.273717
_cell_length_c 25.045833
_cell_angle_alpha 90.000000
_cell_angle_beta 90.000000
_cell_angle_gamma 90.000000
_cell_volume 4333.524240
_symmetry_space_group_name_H-M "C M M A"
_symmetry_group_IT_number 67
_symmetry_cell_setting 'orthorhombic'
loop_
_space_group_symop_operation_xyz
x,y,z
-x,1/2-y,z
x,-y,-z
-x,1/2+y,-z
-x,-y,-z
x,1/2+y,-z
-x,y,z
x,1/2-y,z
1/2+x,1/2+y,z
1/2-x,-y,z
1/2+x,1/2-y,-z
1/2-x,y,-z
1/2-x,1/2-y,-z
1/2+x,y,-z
1/2-x,1/2+y,z
1/2+x,-y,z
loop_
_atom_site_type_symbol
_atom_site_label
_atom_site_fract_x
_atom_site_fract_y
_atom_site_fract_z
Si Si1 0.825283 0.429836 0.855339
Si Si2 0.675514 0.928748 0.444455
Si Si3 0.824592 0.671227 0.053232
Si Si4 0.827126 0.169891 0.347441
Si Si5 0.824647 0.428355 0.733856
O O1 0.750000 0.500000 0.875187
O O2 0.768939 0.369341 0.894426
O O3 0.778453 0.411841 0.794813
O O4 0.000000 0.440416 0.859487
O O5 0.500000 0.940747 0.452440
O O6 0.750000 0.906081 0.500000
O O7 0.709882 0.867846 0.402928
O O8 0.750000 0.000000 0.423529
O O9 0.771750 0.750000 0.061474
O O10 0.000000 0.665270 0.046146
O O11 0.750000 0.639626 0.000000
O O12 0.780654 0.250000 0.353259
O O13 0.731694 0.136172 0.300406
O O14 0.000000 0.161789 0.332789
O O15 0.750000 0.500000 0.714241
O O16 0.000000 0.436750 0.726699
#
# Coordination Sequence:
#
# PCOD8280151 Si02
#       5
#    16  16  16  16  16
#     4   9  19  34  52  75 102 131 165 209 256 300
#     4  10  20  35  56  79 104 136 174 214 256 304
#     4   9  18  33  51  71  98 132 168 206 249 298
#     4  10  22  38  54  77 110 142 172 213 263 308
#     4  10  20  35  56  79 103 136 176 215 258 310
#
# _framework density 18.460726000000001
#
# number of rings (size 3 to 8) (size 9 to 14) (size 15 to 20)
#    0.000    2.400    0.000    2.400    0.000    6.800 
#    0.000    4.000    0.000    2.400    0.000    0.000 
#    0.000    0.000    0.000    0.000    0.000    0.000 
#
# Total GULP energy -496090.164825 kJ/mol
# GULP energy per Si atom -12402.254121 kJ/mol
# Density = 1.841871 g / cm^3
# Si number density = 18.460726 Si / 1000 Ang^3
#
#
#
# Elastic Constant Matrix: (Units=GPa)
#
#
# Indices 1 2 3 4 5 6 
#
# 1 62.0173 50.4196 50.0912 0.0000 0.0000 0.0000
# 2 50.4196 139.8146 88.1183 0.0000 0.0000 0.0000
# 3 50.0912 88.1183 120.5694 0.0000 0.0000 0.0000
# 4 0.0000 0.0000 0.0000 33.7834 0.0000 0.0000
# 5 0.0000 0.0000 0.0000 0.0000 31.1114 0.0000
# 6 0.0000 0.0000 0.0000 0.0000 0.0000 28.4120
#
#
#
# Elastic Compliance Matrix: (Units=1/GPa)
#
#
# Indices 1 2 3 4 5 6 
#
# 1 0.025855 -0.004735 -0.007281 0.000000 0.000000 0.000000
# 2 -0.004735 0.014127 -0.008358 0.000000 0.000000 0.000000
# 3 -0.007281 -0.008358 0.017427 0.000000 0.000000 0.000000
# 4 0.000000 0.000000 0.000000 0.029600 0.000000 0.000000
# 5 0.000000 0.000000 0.000000 0.000000 0.032143 0.000000
# 6 0.000000 0.000000 0.000000 0.000000 0.000000 0.035196
#
#
# Mechanical properties :
#
#
# Convention : Reuss Voigt Hill
#
# Bulk Modulus (GPa) = 60.01710 77.73997 68.87854
# Shear Modulus (GPa) = 24.91898 27.57951 26.24924
#
# Velocity S-wave (km/s) = 3.67800 3.86937 3.77490
# Velocity P-wave (km/s) = 7.11464 7.88448 7.50944
#
# Compressibility (1/GPa) = 0.01666192
#
# Stress axis : x y z
#
# Youngs Moduli (GPa) = 38.67755 70.78466 57.38107
#
# Poissons Ratio (x) = 0.33515 0.41780
# Poissons Ratio (y) = 0.18313 0.47959
# Poissons Ratio (z) = 0.28162 0.59161
#
# Static dielectric constant tensor:
#      x y z
#    x 3.363400 0.000000 0.000000 
#    y 0.000000 3.474690 0.000000 
#    z 0.000000 0.000000 3.571220 
# 
# 
# High freq. dielectric constant tensor:
#      x y z
#    x 1.716600 0.000000 0.000000 
#    y 0.000000 1.711530 0.000000 
#    z 0.000000 0.000000 1.724770 
# 
# From -- ./inp_files/43212.got.cif
#   From: 2010.03.12/outbox.cif.g09.slc.cpg/sg67_22_cif.got.tgz:43212.got - 2010.04.10 22:41:39.
