data_PCOD8280754
_publ_section_title
;
Structure prediction by ZEFSAII (Michael W. Deem and Ramdas Pophale) SiO2 
 PCOD8280754
Probable space group: C M M A
;
_chemical_formula_sum "Si O2"
_cell_formula_units_Z 80
_cell_length_a 25.696861
_cell_length_b 14.543622
_cell_length_c 11.117301
_cell_angle_alpha 90.000000
_cell_angle_beta 90.000000
_cell_angle_gamma 90.000000
_cell_volume 4154.818130
_symmetry_space_group_name_H-M "C M M A"
_symmetry_group_IT_number 67
_symmetry_cell_setting 'orthorhombic'
loop_
_space_group_symop_operation_xyz
x,y,z
-x,1/2-y,z
x,-y,-z
-x,1/2+y,-z
-x,-y,-z
x,1/2+y,-z
-x,y,z
x,1/2-y,z
1/2+x,1/2+y,z
1/2-x,-y,z
1/2+x,1/2-y,-z
1/2-x,y,-z
1/2-x,1/2-y,-z
1/2+x,y,-z
1/2-x,1/2+y,z
1/2+x,-y,z
loop_
_atom_site_type_symbol
_atom_site_label
_atom_site_fract_x
_atom_site_fract_y
_atom_site_fract_z
Si Si1 0.127534 0.477776 0.363214
Si Si2 0.850995 0.605609 0.972783
Si Si3 0.940359 0.356021 0.199554
Si Si4 0.668898 0.148787 0.235425
Si Si5 0.212572 0.145256 0.260033
O O1 0.115011 0.500000 0.500000
O O2 0.080453 0.418756 0.308402
O O3 0.130375 0.574336 0.292472
O O4 0.181121 0.420418 0.351111
O O5 0.908938 0.623764 0.922825
O O6 0.809353 0.637749 0.874568
O O7 0.841777 0.500000 0.000000
O O8 0.842151 0.661420 0.094206
O O9 0.933325 0.250000 0.237940
O O10 0.000000 0.380805 0.174100
O O11 0.659927 0.250000 0.293370
O O12 0.727593 0.114424 0.259091
O O13 0.206825 0.250000 0.305100
#
# Coordination Sequence:
#
# PCOD8280754 Si02
#       5
#    16  16  16  16  16
#     4  11  23  39  58  82 114 151 196 246 283 328
#     4  11  19  34  59  87 116 149 184 235 289 346
#     4  10  22  42  66  87 110 145 189 238 297 359
#     4  11  22  35  54  85 120 156 190 229 283 337
#     4  10  21  36  56  82 117 158 197 230 273 340
#
# _framework density 19.254753999999998
#
# number of rings (size 3 to 8) (size 9 to 14) (size 15 to 20)
#    0.000    1.400    4.000    4.800    0.000    6.400 
#    0.000    2.000    0.000    0.600    0.000    0.000 
#    0.000    0.000    0.000    0.000    0.000    0.000 
#
# Total GULP energy -496048.788036 kJ/mol
# GULP energy per Si atom -12401.219701 kJ/mol
# Density = 1.921093 g / cm^3
# Si number density = 19.254754 Si / 1000 Ang^3
#
#
#
# Elastic Constant Matrix: (Units=GPa)
#
#
# Indices 1 2 3 4 5 6 
#
# 1 70.0262 24.7700 3.2065 0.0000 0.0000 0.0000
# 2 24.7700 99.5398 10.0192 0.0000 0.0000 0.0000
# 3 3.2065 10.0192 38.7456 0.0000 0.0000 0.0000
# 4 0.0000 0.0000 0.0000 10.8447 0.0000 0.0000
# 5 0.0000 0.0000 0.0000 0.0000 13.4953 0.0000
# 6 0.0000 0.0000 0.0000 0.0000 0.0000 132.0645
#
#
#
# Elastic Compliance Matrix: (Units=1/GPa)
#
#
# Indices 1 2 3 4 5 6 
#
# 1 0.015662 -0.003868 -0.000296 0.000000 0.000000 0.000000
# 2 -0.003868 0.011270 -0.002594 0.000000 0.000000 0.000000
# 3 -0.000296 -0.002594 0.026505 0.000000 0.000000 0.000000
# 4 0.000000 0.000000 0.000000 0.092211 0.000000 0.000000
# 5 0.000000 0.000000 0.000000 0.000000 0.074100 0.000000
# 6 0.000000 0.000000 0.000000 0.000000 0.000000 0.007572
#
#
# Mechanical properties :
#
#
# Convention : Reuss Voigt Hill
#
# Bulk Modulus (GPa) = 25.04955 31.58922 28.31938
# Shear Modulus (GPa) = 19.67404 42.63529 31.15467
#
# Velocity S-wave (km/s) = 3.19999 4.71071 4.02683
# Velocity P-wave (km/s) = 5.16634 6.78449 6.02994
#
# Compressibility (1/GPa) = 0.03992088
#
# Stress axis : x y z
#
# Youngs Moduli (GPa) = 63.84888 88.73291 37.72912
#
# Poissons Ratio (x) = 0.34318 0.01117
# Poissons Ratio (y) = 0.24694 0.09788
# Poissons Ratio (z) = 0.01890 0.23019
#
# Static dielectric constant tensor:
#      x y z
#    x 3.441800 0.000000 0.000000 
#    y 0.000000 3.740640 0.000000 
#    z 0.000000 0.000000 3.409470 
# 
# 
# High freq. dielectric constant tensor:
#      x y z
#    x 1.730620 0.000000 0.000000 
#    y 0.000000 1.776120 0.000000 
#    z 0.000000 0.000000 1.728360 
# 
# From -- ./inp_files/18232.got.cif
#   From: 2010.03.12/outbox.cif.g09.slc.cpg/sg67_10_cif.got.tgz:18232.got - 2010.04.10 22:41:39.
