data_PCOD8280614
_publ_section_title
;
Structure prediction by ZEFSAII (Michael W. Deem and Ramdas Pophale) SiO2 
 PCOD8280614
Probable space group: C M M A
;
_chemical_formula_sum "Si O2"
_cell_formula_units_Z 96
_cell_length_a 17.575529
_cell_length_b 24.177517
_cell_length_c 10.918886
_cell_angle_alpha 90.000000
_cell_angle_beta 90.000000
_cell_angle_gamma 90.000000
_cell_volume 4639.791176
_symmetry_space_group_name_H-M "C M M A"
_symmetry_group_IT_number 67
_symmetry_cell_setting 'orthorhombic'
loop_
_space_group_symop_operation_xyz
x,y,z
-x,1/2-y,z
x,-y,-z
-x,1/2+y,-z
-x,-y,-z
x,1/2+y,-z
-x,y,z
x,1/2-y,z
1/2+x,1/2+y,z
1/2-x,-y,z
1/2+x,1/2-y,-z
1/2-x,y,-z
1/2-x,1/2-y,-z
1/2+x,y,-z
1/2-x,1/2+y,z
1/2+x,-y,z
loop_
_atom_site_type_symbol
_atom_site_label
_atom_site_fract_x
_atom_site_fract_y
_atom_site_fract_z
Si Si1 0.000000 0.050414 0.340468
Si Si2 0.413551 0.315228 0.771709
Si Si3 0.157955 0.463470 0.242805
Si Si4 0.279761 0.630833 0.368297
Si Si5 0.856337 0.908121 0.235160
Si Si6 0.167166 0.616885 0.969821
Si Si7 0.000000 0.077593 0.607286
O O1 0.928588 0.058189 0.252009
O O2 0.000000 0.090594 0.461117
O O3 0.000000 0.987582 0.383792
O O4 0.500000 0.337301 0.740908
O O5 0.416203 0.250000 0.782248
O O6 0.352168 0.331756 0.667637
O O7 0.385307 0.338812 0.901309
O O8 0.197627 0.434233 0.360734
O O9 0.173431 0.528449 0.248565
O O10 0.185341 0.437227 0.114061
O O11 0.250000 0.648598 0.500000
O O12 0.209289 0.635691 0.272745
O O13 0.926601 0.896864 0.325552
O O14 0.878389 0.899121 0.093657
O O15 0.250000 0.642571 0.000000
#
# Coordination Sequence:
#
# PCOD8280614 Si02
#       7
#     8  16  16  16  16  16   8
#     4   9  18  35  49  81 109 175 220 261 288 349
#     4  10  24  47  72  95 121 159 208 271 343 407
#     4  10  21  33  59  83 132 174 220 249 301 369
#     4  11  23  38  62  95 123 164 214 263 313 375
#     4  11  21  37  52  92 129 179 208 258 307 366
#     4  11  22  38  59  90 122 161 210 263 312 370
#     4   9  20  33  53  73 127 163 222 255 304 351
#
# _framework density 20.690587000000001
#
# number of rings (size 3 to 8) (size 9 to 14) (size 15 to 20)
#    0.000    1.667    3.333    2.000    5.833    4.000 
#    1.500    2.500    0.000    0.000    0.000    0.000 
#    0.000    0.000    0.000    0.000    0.000    0.000 
#
# Total GULP energy -594814.817503 kJ/mol
# GULP energy per Si atom -12391.975365 kJ/mol
# Density = 2.064349 g / cm^3
# Si number density = 20.690587 Si / 1000 Ang^3
#
#
#
# Elastic Constant Matrix: (Units=GPa)
#
#
# Indices 1 2 3 4 5 6 
#
# 1 136.9368 43.5749 41.8214 0.0000 0.0000 0.0000
# 2 43.5749 48.7924 33.3610 0.0000 0.0000 0.0000
# 3 41.8214 33.3610 115.1035 0.0000 0.0000 0.0000
# 4 0.0000 0.0000 0.0000 16.9067 0.0000 0.0000
# 5 0.0000 0.0000 0.0000 0.0000 -133.1037 0.0000
# 6 0.0000 0.0000 0.0000 0.0000 0.0000 30.4561
#
#
#
# Elastic Compliance Matrix: (Units=1/GPa)
#
#
# Indices 1 2 3 4 5 6 
#
# 1 0.010368 -0.008335 -0.001351 0.000000 0.000000 0.000000
# 2 -0.008335 0.032261 -0.006322 0.000000 0.000000 0.000000
# 3 -0.001351 -0.006322 0.011011 0.000000 0.000000 0.000000
# 4 0.000000 0.000000 0.000000 0.059148 0.000000 0.000000
# 5 0.000000 0.000000 0.000000 0.000000 -0.007513 0.000000
# 6 0.000000 0.000000 0.000000 0.000000 0.000000 0.032834
#
#
# Mechanical properties :
#
#
# Convention : Reuss Voigt Hill
#
# Bulk Modulus (GPa) = 46.24590 59.81637 53.03114
# Shear Modulus (GPa) = 28.19540 -5.00981 11.59279
#
# Velocity S-wave (km/s) = 3.69550 -1.55774 2.36962
# Velocity P-wave (km/s) = 6.37250 5.07319 5.75960
#
# Compressibility (1/GPa) = 0.02162354
#
# Stress axis : x y z
#
# Youngs Moduli (GPa) = 96.45408 30.99672 90.81757
#
# Poissons Ratio (x) = 0.25836 0.12271
# Poissons Ratio (y) = 0.80396 0.57415
# Poissons Ratio (z) = 0.13032 0.19596
#
# Static dielectric constant tensor:
#      x y z
#    x 4.233970 0.000000 0.000000 
#    y 0.000000 3.337590 0.000000 
#    z 0.000000 0.000000 3.801920 
# 
# 
# High freq. dielectric constant tensor:
#      x y z
#    x 1.835210 0.000000 0.000000 
#    y 0.000000 1.762510 0.000000 
#    z 0.000000 0.000000 1.810000 
# 
# From -- ./inp_files/19871.got.cif
#   From: 2010.03.12/outbox.cif.g09.slc.cpg/sg67_10_cif.got.tgz:19871.got - 2010.04.10 22:41:39.
