data_PCOD8280812
_publ_section_title
;
Structure prediction by ZEFSAII (Michael W. Deem and Ramdas Pophale) SiO2 
 PCOD8280812
Probable space group: C M M A
;
_chemical_formula_sum "Si O2"
_cell_formula_units_Z 104
_cell_length_a 18.558615
_cell_length_b 15.499110
_cell_length_c 18.566348
_cell_angle_alpha 90.000000
_cell_angle_beta 90.000000
_cell_angle_gamma 90.000000
_cell_volume 5340.461756
_symmetry_space_group_name_H-M "C M M A"
_symmetry_group_IT_number 67
_symmetry_cell_setting 'orthorhombic'
loop_
_space_group_symop_operation_xyz
x,y,z
-x,1/2-y,z
x,-y,-z
-x,1/2+y,-z
-x,-y,-z
x,1/2+y,-z
-x,y,z
x,1/2-y,z
1/2+x,1/2+y,z
1/2-x,-y,z
1/2+x,1/2-y,-z
1/2-x,y,-z
1/2-x,1/2-y,-z
1/2+x,y,-z
1/2-x,1/2+y,z
1/2+x,-y,z
loop_
_atom_site_type_symbol
_atom_site_label
_atom_site_fract_x
_atom_site_fract_y
_atom_site_fract_z
Si Si1 0.919786 0.750000 0.175602
Si Si2 0.829075 0.845673 0.969263
Si Si3 0.287453 0.090873 0.677628
Si Si4 0.086138 0.750000 0.449775
Si Si5 0.176119 0.052086 0.167955
Si Si6 0.831794 0.403504 0.476560
Si Si7 0.320024 0.250000 0.310905
Si Si8 0.081582 0.922023 0.087863
O O1 0.858082 0.750000 0.234407
O O2 0.908574 0.669342 0.124717
O O3 0.000000 0.750000 0.210371
O O4 0.862211 0.750000 0.977213
O O5 0.823851 0.866437 0.884821
O O6 0.750000 0.850441 0.000000
O O7 0.877289 0.916710 0.011001
O O8 0.334779 0.086427 0.750617
O O9 0.339162 0.108367 0.609721
O O10 0.227548 0.164558 0.683139
O O11 0.250000 0.000000 0.661927
O O12 0.113066 0.836167 0.489286
O O13 0.117381 0.750000 0.369714
O O14 0.000000 0.750000 0.447035
O O15 0.250000 0.000000 0.161818
O O16 0.110991 0.991128 0.144560
O O17 0.853824 0.500000 0.500000
O O18 0.750000 0.381580 0.500000
O O19 0.000000 0.946241 0.070518
#
# Coordination Sequence:
#
# PCOD8280812 Si02
#       8
#     8  16  16   8  16  16   8  16
#     4  10  21  37  55  83 121 158 195 246 308 374
#     4  11  23  37  59  87 120 157 202 257 304 362
#     4  11  22  37  63  95 124 159 211 265 314 377
#     4  12  25  40  62  98 135 173 215 262 326 393
#     4  11  23  38  58  92 123 153 205 258 313 371
#     4  11  20  41  67  94 125 167 221 271 313 379
#     4  12  22  36  63  91 130 167 204 261 318 375
#     4  11  23  41  62  85 120 164 207 255 317 374
#
# _framework density 19.473972
#
# number of rings (size 3 to 8) (size 9 to 14) (size 15 to 20)
#    0.000    0.923    5.385    3.231    1.077    1.538 
#    0.000    0.769    0.000    0.000    0.000    0.000 
#    0.000    0.000    0.000    0.000    0.000    0.000 
#
# Total GULP energy -644900.765688 kJ/mol
# GULP energy per Si atom -12401.937802 kJ/mol
# Density = 1.942965 g / cm^3
# Si number density = 19.473972 Si / 1000 Ang^3
#
#
#
# Elastic Constant Matrix: (Units=GPa)
#
#
# Indices 1 2 3 4 5 6 
#
# 1 83.9666 40.9816 42.0168 0.0000 0.0000 0.0000
# 2 40.9816 95.5289 24.9121 0.0000 0.0000 0.0000
# 3 42.0168 24.9121 145.5659 0.0000 0.0000 0.0000
# 4 0.0000 0.0000 0.0000 38.8093 0.0000 0.0000
# 5 0.0000 0.0000 0.0000 0.0000 23.9460 0.0000
# 6 0.0000 0.0000 0.0000 0.0000 0.0000 17.2673
#
#
#
# Elastic Compliance Matrix: (Units=1/GPa)
#
#
# Indices 1 2 3 4 5 6 
#
# 1 0.016856 -0.006241 -0.003797 0.000000 0.000000 0.000000
# 2 -0.006241 0.013268 -0.000469 0.000000 0.000000 0.000000
# 3 -0.003797 -0.000469 0.008046 0.000000 0.000000 0.000000
# 4 0.000000 0.000000 0.000000 0.025767 0.000000 0.000000
# 5 0.000000 0.000000 0.000000 0.000000 0.041761 0.000000
# 6 0.000000 0.000000 0.000000 0.000000 0.000000 0.057913
#
#
# Mechanical properties :
#
#
# Convention : Reuss Voigt Hill
#
# Bulk Modulus (GPa) = 58.29252 60.09803 59.19527
# Shear Modulus (GPa) = 26.26842 30.48125 28.37484
#
# Velocity S-wave (km/s) = 3.67672 3.96059 3.82129
# Velocity P-wave (km/s) = 6.92986 7.20019 7.06632
#
# Compressibility (1/GPa) = 0.01715486
#
# Stress axis : x y z
#
# Youngs Moduli (GPa) = 59.32766 75.37115 124.28386
#
# Poissons Ratio (x) = 0.47037 0.47193
# Poissons Ratio (y) = 0.37025 0.05832
# Poissons Ratio (z) = 0.22528 0.03537
#
# Static dielectric constant tensor:
#      x y z
#    x 3.349260 0.000000 0.000000 
#    y 0.000000 3.739600 0.000000 
#    z 0.000000 0.000000 3.863490 
# 
# 
# High freq. dielectric constant tensor:
#      x y z
#    x 1.728050 0.000000 0.000000 
#    y 0.000000 1.775330 0.000000 
#    z 0.000000 0.000000 1.775200 
# 
# From -- ./inp_files/35040.got.cif
#   From: 2010.03.12/outbox.cif.g09.slc.cpg/sg67_18_cif.got.tgz:35040.got - 2010.04.10 22:41:39.
