data_PCOD8280688
_publ_section_title
;
Structure prediction by ZEFSAII (Michael W. Deem and Ramdas Pophale) SiO2 
 PCOD8280688
Probable space group: C M M A
;
_chemical_formula_sum "Si O2"
_cell_formula_units_Z 96
_cell_length_a 9.130164
_cell_length_b 19.352231
_cell_length_c 30.679719
_cell_angle_alpha 90.000000
_cell_angle_beta 90.000000
_cell_angle_gamma 90.000000
_cell_volume 5420.770183
_symmetry_space_group_name_H-M "C M M A"
_symmetry_group_IT_number 67
_symmetry_cell_setting 'orthorhombic'
loop_
_space_group_symop_operation_xyz
x,y,z
-x,1/2-y,z
x,-y,-z
-x,1/2+y,-z
-x,-y,-z
x,1/2+y,-z
-x,y,z
x,1/2-y,z
1/2+x,1/2+y,z
1/2-x,-y,z
1/2+x,1/2-y,-z
1/2-x,y,-z
1/2-x,1/2-y,-z
1/2+x,y,-z
1/2-x,1/2+y,z
1/2+x,-y,z
loop_
_atom_site_type_symbol
_atom_site_label
_atom_site_fract_x
_atom_site_fract_y
_atom_site_fract_z
Si Si1 0.332056 0.167886 0.228403
Si Si2 0.830412 0.831328 0.456007
Si Si3 0.326058 0.174039 0.134015
Si Si4 0.664345 0.667208 0.958819
Si Si5 0.830823 0.068994 0.290317
Si Si6 0.828564 0.929837 0.608062
O O1 0.500000 0.148674 0.238750
O O2 0.310433 0.250000 0.229600
O O3 0.286202 0.137620 0.180180
O O4 0.229084 0.134653 0.264484
O O5 0.815246 0.750000 0.449060
O O6 0.750000 0.855379 0.500000
O O7 0.748392 0.866286 0.415774
O O8 0.000000 0.854108 0.458050
O O9 0.500000 0.181512 0.131178
O O10 0.254989 0.250000 0.135765
O O11 0.273720 0.138391 0.088266
O O12 0.500000 0.641732 0.965511
O O13 0.674435 0.750000 0.957810
O O14 0.750000 0.635878 0.000000
O O15 0.802638 0.082943 0.341023
O O16 0.000000 0.059184 0.279719
O O17 0.750000 0.000000 0.274448
O O18 0.000000 0.933723 0.596266
O O19 0.750000 0.000000 0.592628
#
# Coordination Sequence:
#
# PCOD8280688 Si02
#       6
#    16  16  16  16  16  16
#     4   9  17  30  49  71  95 126 163 200 240 289
#     4  10  21  37  57  81 109 139 170 204 242 285
#     4   7  11  21  36  54  79 113 150 186 226 275
#     4   8  12  18  29  46  71 105 144 182 221 268
#     4  10  21  36  53  73  99 130 163 203 248 291
#     4  10  21  37  56  77 102 132 167 206 247 291
#
# _framework density 17.70966
#
# number of rings (size 3 to 8) (size 9 to 14) (size 15 to 20)
#    0.000    3.000    0.000    3.500    0.000    4.333 
#    0.000    5.833    0.000    3.000    0.000    0.000 
#    0.000    0.667    0.000    7.667    0.000    9.000 
#
# Total GULP energy -594727.033372 kJ/mol
# GULP energy per Si atom -12390.146529 kJ/mol
# Density = 1.766935 g / cm^3
# Si number density = 17.709660 Si / 1000 Ang^3
#
#
#
# Elastic Constant Matrix: (Units=GPa)
#
#
# Indices 1 2 3 4 5 6 
#
# 1 104.3609 35.7021 65.5353 0.0000 0.0000 0.0000
# 2 35.7021 39.1051 43.2173 0.0000 0.0000 0.0000
# 3 65.5353 43.2173 108.1631 0.0000 0.0000 0.0000
# 4 0.0000 0.0000 0.0000 3.7976 0.0000 0.0000
# 5 0.0000 0.0000 0.0000 0.0000 31.4889 0.0000
# 6 0.0000 0.0000 0.0000 0.0000 0.0000 25.7843
#
#
#
# Elastic Compliance Matrix: (Units=1/GPa)
#
#
# Indices 1 2 3 4 5 6 
#
# 1 0.016527 -0.007203 -0.007136 0.000000 0.000000 0.000000
# 2 -0.007203 0.048932 -0.015187 0.000000 0.000000 0.000000
# 3 -0.007136 -0.015187 0.019637 0.000000 0.000000 0.000000
# 4 0.000000 0.000000 0.000000 0.263323 0.000000 0.000000
# 5 0.000000 0.000000 0.000000 0.000000 0.031757 0.000000
# 6 0.000000 0.000000 0.000000 0.000000 0.000000 0.038783
#
#
# Mechanical properties :
#
#
# Convention : Reuss Voigt Hill
#
# Bulk Modulus (GPa) = 38.39504 60.05982 49.22743
# Shear Modulus (GPa) = 10.27341 19.35913 14.81627
#
# Velocity S-wave (km/s) = 2.41114 3.30985 2.89558
# Velocity P-wave (km/s) = 5.42944 6.97094 6.24792
#
# Compressibility (1/GPa) = 0.02604503
#
# Stress axis : x y z
#
# Youngs Moduli (GPa) = 60.50582 20.43644 50.92438
#
# Poissons Ratio (x) = 0.14720 0.36339
# Poissons Ratio (y) = 0.43581 0.77339
# Poissons Ratio (z) = 0.43176 0.31037
#
# Static dielectric constant tensor:
#      x y z
#    x 3.234130 0.000000 0.000000 
#    y 0.000000 2.830620 0.000000 
#    z 0.000000 0.000000 3.661270 
# 
# 
# High freq. dielectric constant tensor:
#      x y z
#    x 1.675080 0.000000 0.000000 
#    y 0.000000 1.635520 0.000000 
#    z 0.000000 0.000000 1.705340 
# 
# From -- ./inp_files/43480.got.cif
#   From: 2010.03.12/outbox.cif.g09.slc.cpg/sg67_22_cif.got.tgz:43480.got - 2010.04.10 22:41:39.
