data_PCOD8280528
_publ_section_title
;
Structure prediction by ZEFSAII (Michael W. Deem and Ramdas Pophale) SiO2 
 PCOD8280528
Probable space group: C M M A
;
_chemical_formula_sum "Si O2"
_cell_formula_units_Z 96
_cell_length_a 15.317715
_cell_length_b 14.337725
_cell_length_c 20.817679
_cell_angle_alpha 90.000000
_cell_angle_beta 90.000000
_cell_angle_gamma 90.000000
_cell_volume 4572.003337
_symmetry_space_group_name_H-M "C M M A"
_symmetry_group_IT_number 67
_symmetry_cell_setting 'orthorhombic'
loop_
_space_group_symop_operation_xyz
x,y,z
-x,1/2-y,z
x,-y,-z
-x,1/2+y,-z
-x,-y,-z
x,1/2+y,-z
-x,y,z
x,1/2-y,z
1/2+x,1/2+y,z
1/2-x,-y,z
1/2+x,1/2-y,-z
1/2-x,y,-z
1/2-x,1/2-y,-z
1/2+x,y,-z
1/2-x,1/2+y,z
1/2+x,-y,z
loop_
_atom_site_type_symbol
_atom_site_label
_atom_site_fract_x
_atom_site_fract_y
_atom_site_fract_z
Si Si1 0.400062 0.047582 0.438054
Si Si2 0.899819 0.420207 0.174609
Si Si3 0.098636 0.250000 0.599478
Si Si4 0.732907 0.250000 0.677799
Si Si5 0.399443 0.250000 0.099703
Si Si6 0.278207 0.250000 0.827432
Si Si7 0.166328 0.946861 0.687131
Si Si8 0.100428 0.548300 0.061515
O O1 0.500000 0.018647 0.439744
O O2 0.385912 0.158772 0.444245
O O3 0.353040 0.000000 0.500000
O O4 0.366586 0.011585 0.370089
O O5 0.833766 0.339762 0.151452
O O6 0.896669 0.441601 0.251090
O O7 0.869177 0.508531 0.131113
O O8 0.000000 0.390671 0.160453
O O9 0.166454 0.250000 0.657441
O O10 0.000000 0.250000 0.628146
O O11 0.731200 0.250000 0.752700
O O12 0.683926 0.344652 0.655475
O O13 0.500000 0.250000 0.128665
O O14 0.322390 0.250000 0.151349
O O15 0.384670 0.341027 0.056172
O O16 0.250000 0.000000 0.715297
O O17 0.000000 0.522438 0.056814
O O18 0.148208 0.500000 0.000000
#
# Coordination Sequence:
#
# PCOD8280528 Si02
#       8
#    16  16   8   8   8   8  16  16
#     4  10  22  40  62  89 120 160 205 252 309 371
#     4  10  22  40  63  89 122 168 211 254 313 372
#     4  10  20  38  60  84 118 155 202 251 304 370
#     4  10  22  39  55  91 118 159 199 251 308 354
#     4  10  22  39  60  91 124 160 208 260 318 372
#     4  10  23  38  63  88 128 160 207 264 307 370
#     4  11  22  38  61  87 126 159 205 256 309 372
#     4   9  20  39  63  91 124 164 207 257 315 376
#
# _framework density 20.997361000000001
#
# number of rings (size 3 to 8) (size 9 to 14) (size 15 to 20)
#    0.000    2.000    1.667    0.750    4.667    2.000 
#    0.000    7.917    0.000    0.000    0.000    0.000 
#    0.000    0.000    0.000    0.000    0.000    0.000 
#
# Total GULP energy -594742.902063 kJ/mol
# GULP energy per Si atom -12390.477126 kJ/mol
# Density = 2.094957 g / cm^3
# Si number density = 20.997361 Si / 1000 Ang^3
#
#
#
# Elastic Constant Matrix: (Units=GPa)
#
#
# Indices 1 2 3 4 5 6 
#
# 1 80.5483 40.7746 20.6064 0.0000 0.0000 0.0000
# 2 40.7746 165.6078 59.9555 0.0000 0.0000 0.0000
# 3 20.6064 59.9555 91.4346 0.0000 0.0000 0.0000
# 4 0.0000 0.0000 0.0000 25.1345 0.0000 0.0000
# 5 0.0000 0.0000 0.0000 0.0000 7.7473 0.0000
# 6 0.0000 0.0000 0.0000 0.0000 0.0000 37.1268
#
#
#
# Elastic Compliance Matrix: (Units=1/GPa)
#
#
# Indices 1 2 3 4 5 6 
#
# 1 0.014282 -0.003083 -0.001197 0.000000 0.000000 0.000000
# 2 -0.003083 0.008584 -0.004934 0.000000 0.000000 0.000000
# 3 -0.001197 -0.004934 0.014442 0.000000 0.000000 0.000000
# 4 0.000000 0.000000 0.000000 0.039786 0.000000 0.000000
# 5 0.000000 0.000000 0.000000 0.000000 0.129077 0.000000
# 6 0.000000 0.000000 0.000000 0.000000 0.000000 0.026935
#
#
# Mechanical properties :
#
#
# Convention : Reuss Voigt Hill
#
# Bulk Modulus (GPa) = 52.96711 64.47374 58.72043
# Shear Modulus (GPa) = 19.39296 28.41868 23.90582
#
# Velocity S-wave (km/s) = 3.04236 3.68290 3.37785
# Velocity P-wave (km/s) = 6.13365 6.98980 6.57567
#
# Compressibility (1/GPa) = 0.01887964
#
# Stress axis : x y z
#
# Youngs Moduli (GPa) = 70.01928 116.50193 69.24430
#
# Poissons Ratio (x) = 0.35917 0.08289
# Poissons Ratio (y) = 0.21587 0.34162
# Poissons Ratio (z) = 0.08382 0.57477
#
# Static dielectric constant tensor:
#      x y z
#    x 3.903300 0.000000 0.000000 
#    y 0.000000 -4.900780 0.000000 
#    z 0.000000 0.000000 3.729550 
# 
# 
# High freq. dielectric constant tensor:
#      x y z
#    x 1.816280 0.000000 0.000000 
#    y 0.000000 1.838050 0.000000 
#    z 0.000000 0.000000 1.807570 
# 
# From -- ./inp_files/38569.got.cif
#   From: 2010.03.12/outbox.cif.g09.slc.cpg/sg67_20_cif.got.tgz:38569.got - 2010.04.10 22:41:39.
