data_PCOD8280462
_publ_section_title
;
Structure prediction by ZEFSAII (Michael W. Deem and Ramdas Pophale) SiO2 
 PCOD8280462
Probable space group: C M M A
;
_chemical_formula_sum "Si O2"
_cell_formula_units_Z 88
_cell_length_a 21.794084
_cell_length_b 11.384645
_cell_length_c 17.980384
_cell_angle_alpha 90.000000
_cell_angle_beta 90.000000
_cell_angle_gamma 90.000000
_cell_volume 4461.255289
_symmetry_space_group_name_H-M "C M M A"
_symmetry_group_IT_number 67
_symmetry_cell_setting 'orthorhombic'
loop_
_space_group_symop_operation_xyz
x,y,z
-x,1/2-y,z
x,-y,-z
-x,1/2+y,-z
-x,-y,-z
x,1/2+y,-z
-x,y,z
x,1/2-y,z
1/2+x,1/2+y,z
1/2-x,-y,z
1/2+x,1/2-y,-z
1/2-x,y,-z
1/2-x,1/2-y,-z
1/2+x,y,-z
1/2-x,1/2+y,z
1/2+x,-y,z
loop_
_atom_site_type_symbol
_atom_site_label
_atom_site_fract_x
_atom_site_fract_y
_atom_site_fract_z
Si Si1 0.067205 0.750000 0.655718
Si Si2 0.929979 0.505856 0.582971
Si Si3 0.317943 0.250000 0.028198
Si Si4 0.567614 0.546162 0.152049
Si Si5 0.890436 0.620950 0.276065
Si Si6 0.147278 0.750000 0.796959
Si Si7 0.292947 0.750000 0.799639
Si Si8 0.380929 0.000000 0.000000
O O1 0.073285 0.858984 0.602411
O O2 0.122102 0.750000 0.713865
O O3 0.000000 0.750000 0.696175
O O4 0.902315 0.500000 0.500000
O O5 0.888593 0.433254 0.641241
O O6 0.000000 0.457887 0.585295
O O7 0.319746 0.250000 0.117277
O O8 0.345110 0.374138 0.996603
O O9 0.250000 0.250000 0.000000
O O10 0.500000 0.604984 0.153783
O O11 0.568888 0.456654 0.220882
O O12 0.622777 0.637439 0.159962
O O13 0.576852 0.484607 0.072724
O O14 0.921195 0.750000 0.280183
O O15 0.820781 0.634561 0.242749
O O16 0.220253 0.750000 0.796542
#
# Coordination Sequence:
#
# PCOD8280462 Si02
#       8
#     8  16   8  16  16   8   8   8
#     4  10  20  37  59  94 126 156 205 260 321 373
#     4  10  21  37  63  96 129 165 207 266 324 382
#     4  12  24  43  66  92 132 173 226 284 326 383
#     4  12  24  41  65  94 127 166 211 266 332 392
#     4  10  22  42  61  91 128 167 214 255 314 381
#     4  12  24  41  67  93 126 163 216 267 318 379
#     4  10  24  45  62  94 123 178 221 261 313 391
#     4  12  24  44  60  96 130 171 219 272 338 398
#
# _framework density 19.725390000000001
#
# number of rings (size 3 to 8) (size 9 to 14) (size 15 to 20)
#    0.545    0.545    3.636    3.545    1.273    2.182 
#    0.000    0.909    0.000    3.273    0.000    0.000 
#    0.000    0.000    0.000    0.000    0.000    0.000 
#
# Total GULP energy -545188.029063 kJ/mol
# GULP energy per Si atom -12390.637024 kJ/mol
# Density = 1.968049 g / cm^3
# Si number density = 19.725390 Si / 1000 Ang^3
#
#
#
# Elastic Constant Matrix: (Units=GPa)
#
#
# Indices 1 2 3 4 5 6 
#
# 1 114.1632 30.4796 41.6098 0.0000 0.0000 0.0000
# 2 30.4796 119.3132 40.8654 0.0000 0.0000 0.0000
# 3 41.6098 40.8654 170.3367 0.0000 0.0000 0.0000
# 4 0.0000 0.0000 0.0000 25.9027 0.0000 0.0000
# 5 0.0000 0.0000 0.0000 0.0000 28.0198 0.0000
# 6 0.0000 0.0000 0.0000 0.0000 0.0000 31.5286
#
#
#
# Elastic Compliance Matrix: (Units=1/GPa)
#
#
# Indices 1 2 3 4 5 6 
#
# 1 0.009984 -0.001869 -0.001991 0.000000 0.000000 0.000000
# 2 -0.001869 0.009481 -0.001818 0.000000 0.000000 0.000000
# 3 -0.001991 -0.001818 0.006793 0.000000 0.000000 0.000000
# 4 0.000000 0.000000 0.000000 0.038606 0.000000 0.000000
# 5 0.000000 0.000000 0.000000 0.000000 0.035689 0.000000
# 6 0.000000 0.000000 0.000000 0.000000 0.000000 0.031717
#
#
# Mechanical properties :
#
#
# Convention : Reuss Voigt Hill
#
# Bulk Modulus (GPa) = 67.09798 69.96916 68.53357
# Shear Modulus (GPa) = 33.64889 36.48078 35.06484
#
# Velocity S-wave (km/s) = 4.13470 4.30517 4.22079
# Velocity P-wave (km/s) = 7.54216 7.76281 7.65328
#
# Compressibility (1/GPa) = 0.01490358
#
# Stress axis : x y z
#
# Youngs Moduli (GPa) = 100.16228 105.46949 147.20661
#
# Poissons Ratio (x) = 0.19709 0.29302
# Poissons Ratio (y) = 0.18717 0.26765
# Poissons Ratio (z) = 0.19938 0.19176
#
# Static dielectric constant tensor:
#      x y z
#    x 3.333410 0.000000 0.000000 
#    y 0.000000 3.781970 0.000000 
#    z 0.000000 0.000000 3.790470 
# 
# 
# High freq. dielectric constant tensor:
#      x y z
#    x 1.740750 0.000000 0.000000 
#    y 0.000000 1.775940 0.000000 
#    z 0.000000 0.000000 1.784390 
# 
# From -- ./inp_files/34936.got.cif
#   From: 2010.03.12/outbox.cif.g09.slc.cpg/sg67_18_cif.got.tgz:34936.got - 2010.04.10 22:41:39.
