data_PCOD8280405
_publ_section_title
;
Structure prediction by ZEFSAII (Michael W. Deem and Ramdas Pophale) SiO2 
 PCOD8280405
Probable space group: C M M A
;
_chemical_formula_sum "Si O2"
_cell_formula_units_Z 116
_cell_length_a 27.353746
_cell_length_b 24.025158
_cell_length_c 8.816239
_cell_angle_alpha 90.000000
_cell_angle_beta 90.000000
_cell_angle_gamma 90.000000
_cell_volume 5793.838927
_symmetry_space_group_name_H-M "C M M A"
_symmetry_group_IT_number 67
_symmetry_cell_setting 'orthorhombic'
loop_
_space_group_symop_operation_xyz
x,y,z
-x,1/2-y,z
x,-y,-z
-x,1/2+y,-z
-x,-y,-z
x,1/2+y,-z
-x,y,z
x,1/2-y,z
1/2+x,1/2+y,z
1/2-x,-y,z
1/2+x,1/2-y,-z
1/2-x,y,-z
1/2-x,1/2-y,-z
1/2+x,y,-z
1/2-x,1/2+y,z
1/2+x,-y,z
loop_
_atom_site_type_symbol
_atom_site_label
_atom_site_fract_x
_atom_site_fract_y
_atom_site_fract_z
Si Si1 0.445512 0.112094 0.818207
Si Si2 0.055862 0.506985 0.328250
Si Si3 0.290420 0.392838 0.114175
Si Si4 0.887736 0.187809 0.390276
Si Si5 0.750000 0.500000 0.000000
Si Si6 0.201728 0.686472 0.403095
Si Si7 0.053443 0.812285 0.323787
Si Si8 0.399701 0.898634 0.871085
O O1 0.500000 0.136860 0.790511
O O2 0.440351 0.052735 0.744014
O O3 0.402205 0.151115 0.754670
O O4 0.439386 0.103518 0.996980
O O5 0.074840 0.500000 0.500000
O O6 0.091527 0.547588 0.234775
O O7 0.000000 0.529847 0.325793
O O8 0.278882 0.459481 0.118549
O O9 0.289388 0.358940 0.271221
O O10 0.346095 0.393700 0.054334
O O11 0.250000 0.364744 0.000000
O O12 0.876057 0.250000 0.331825
O O13 0.841389 0.165044 0.485554
O O14 0.935013 0.186830 0.498189
O O15 0.189769 0.750000 0.343040
O O16 0.250000 0.688823 0.500000
O O17 0.053771 0.750000 0.259892
O O18 0.094870 0.844744 0.233982
O O19 0.000000 0.839695 0.301661
#
# Coordination Sequence:
#
# PCOD8280405 Si02
#       8
#    16  16  16  16   4  16  16  16
#     4  11  24  37  57  90 125 168 215 257 312 375
#     4  10  22  39  60  88 122 163 215 263 308 371
#     4  10  24  43  66  92 130 168 213 271 332 396
#     4  10  21  39  62  91 126 164 212 262 321 388
#     4   8  24  44  60  92 130 172 214 262 332 396
#     4  10  22  43  70  99 124 157 214 276 329 388
#     4  10  20  36  60  88 122 163 207 258 316 383
#     4  12  23  39  63  90 125 170 210 262 322 384
#
# _framework density 20.021267000000002
#
# number of rings (size 3 to 8) (size 9 to 14) (size 15 to 20)
#    0.414    1.241    1.379    2.897    3.862    3.862 
#    0.000    0.345    0.000    0.000    0.000    0.000 
#    0.000    0.000    0.000    0.000    0.000    0.000 
#
# Total GULP energy -718702.892372 kJ/mol
# GULP energy per Si atom -12391.429179 kJ/mol
# Density = 1.997570 g / cm^3
# Si number density = 20.021267 Si / 1000 Ang^3
#
#
#
# Elastic Constant Matrix: (Units=GPa)
#
#
# Indices 1 2 3 4 5 6 
#
# 1 119.5055 33.8165 33.4132 0.0000 0.0000 0.0000
# 2 33.8165 89.6606 48.0812 0.0000 0.0000 0.0000
# 3 33.4132 48.0812 104.6673 0.0000 0.0000 0.0000
# 4 0.0000 0.0000 0.0000 36.2089 0.0000 0.0000
# 5 0.0000 0.0000 0.0000 0.0000 34.6057 0.0000
# 6 0.0000 0.0000 0.0000 0.0000 0.0000 27.2549
#
#
#
# Elastic Compliance Matrix: (Units=1/GPa)
#
#
# Indices 1 2 3 4 5 6 
#
# 1 0.009635 -0.002633 -0.001866 0.000000 0.000000 0.000000
# 2 -0.002633 0.015518 -0.006288 0.000000 0.000000 0.000000
# 3 -0.001866 -0.006288 0.013038 0.000000 0.000000 0.000000
# 4 0.000000 0.000000 0.000000 0.027618 0.000000 0.000000
# 5 0.000000 0.000000 0.000000 0.000000 0.028897 0.000000
# 6 0.000000 0.000000 0.000000 0.000000 0.000000 0.036691
#
#
# Mechanical properties :
#
#
# Convention : Reuss Voigt Hill
#
# Bulk Modulus (GPa) = 60.18037 60.49501 60.33769
# Shear Modulus (GPa) = 31.54375 32.84874 32.19624
#
# Velocity S-wave (km/s) = 3.97358 4.05494 4.01447
# Velocity P-wave (km/s) = 7.15373 7.22526 7.18958
#
# Compressibility (1/GPa) = 0.01661671
#
# Stress axis : x y z
#
# Youngs Moduli (GPa) = 103.79184 64.43997 76.69665
#
# Poissons Ratio (x) = 0.16968 0.14313
# Poissons Ratio (y) = 0.27329 0.48228
# Poissons Ratio (z) = 0.19369 0.40520
#
# Static dielectric constant tensor:
#      x y z
#    x 3.758200 0.000000 0.000000 
#    y 0.000000 3.655670 0.000000 
#    z 0.000000 0.000000 3.272290 
# 
# 
# High freq. dielectric constant tensor:
#      x y z
#    x 1.788310 0.000000 0.000000 
#    y 0.000000 1.781040 0.000000 
#    z 0.000000 0.000000 1.768010 
# 
# From -- ./inp_files/14030.got.cif
#   From: 2010.03.12/outbox.cif.g09.slc.cpg/sg67_8_cif.got.tgz:14030.got - 2010.04.10 22:41:39.
