data_PCOD8280806
_publ_section_title
;
Structure prediction by ZEFSAII (Michael W. Deem and Ramdas Pophale) SiO2 
 PCOD8280806
Probable space group: C M M A
;
_chemical_formula_sum "Si O2"
_cell_formula_units_Z 72
_cell_length_a 8.842530
_cell_length_b 14.647928
_cell_length_c 28.791805
_cell_angle_alpha 90.000000
_cell_angle_beta 90.000000
_cell_angle_gamma 90.000000
_cell_volume 3729.251137
_symmetry_space_group_name_H-M "C M M A"
_symmetry_group_IT_number 67
_symmetry_cell_setting 'orthorhombic'
loop_
_space_group_symop_operation_xyz
x,y,z
-x,1/2-y,z
x,-y,-z
-x,1/2+y,-z
-x,-y,-z
x,1/2+y,-z
-x,y,z
x,1/2-y,z
1/2+x,1/2+y,z
1/2-x,-y,z
1/2+x,1/2-y,-z
1/2-x,y,-z
1/2-x,1/2-y,-z
1/2+x,y,-z
1/2-x,1/2+y,z
1/2+x,-y,z
loop_
_atom_site_type_symbol
_atom_site_label
_atom_site_fract_x
_atom_site_fract_y
_atom_site_fract_z
Si Si1 0.827609 0.750000 0.308630
Si Si2 0.678734 0.399210 0.384434
Si Si3 0.178359 0.750000 0.789471
Si Si4 0.680365 0.907700 0.145233
Si Si5 0.168306 0.358185 0.045052
Si Si6 0.318616 0.250000 0.550735
O O1 0.791875 0.658017 0.337459
O O2 0.724864 0.750000 0.263680
O O3 0.000000 0.750000 0.292447
O O4 0.500000 0.406772 0.394949
O O5 0.750000 0.500000 0.379850
O O6 0.759206 0.342752 0.425314
O O7 0.242532 0.663794 0.817383
O O8 0.000000 0.750000 0.791238
O O9 0.500000 0.908019 0.143705
O O10 0.746145 0.887961 0.093499
O O11 0.750000 0.000000 0.164187
O O12 0.169552 0.250000 0.042727
O O13 0.000000 0.397257 0.043680
O O14 0.250000 0.400425 0.000000
O O15 0.500000 0.250000 0.550189
O O16 0.250000 0.250000 0.500000
#
# Coordination Sequence:
#
# PCOD8280806 Si02
#       6
#     8  16   8  16  16   8
#     4   9  21  39  59  84 115 146 185 239 291 340
#     4  10  21  39  61  88 121 157 199 248 296 346
#     4  10  21  39  59  77 106 145 181 220 276 337
#     4  10  21  37  55  77 105 138 174 217 266 323
#     4   9  17  32  53  74 100 133 170 210 257 314
#     4  11  22  38  60  89 126 167 208 249 295 345
#
# _framework density 19.306825
#
# number of rings (size 3 to 8) (size 9 to 14) (size 15 to 20)
#    0.000    2.222    1.111    2.333    0.000    6.222 
#    0.000    8.889    0.000    0.000    0.000    0.000 
#    0.000    0.000    0.000    0.000    0.000    0.000 
#
# Total GULP energy -446264.939811 kJ/mol
# GULP energy per Si atom -12396.248328 kJ/mol
# Density = 1.926288 g / cm^3
# Si number density = 19.306825 Si / 1000 Ang^3
#
#
#
# Elastic Constant Matrix: (Units=GPa)
#
#
# Indices 1 2 3 4 5 6 
#
# 1 80.9978 52.0284 50.2493 0.0000 0.0000 0.0000
# 2 52.0284 145.5639 69.5291 0.0000 0.0000 0.0000
# 3 50.2493 69.5291 144.9035 0.0000 0.0000 0.0000
# 4 0.0000 0.0000 0.0000 44.6781 0.0000 0.0000
# 5 0.0000 0.0000 0.0000 0.0000 34.6393 0.0000
# 6 0.0000 0.0000 0.0000 0.0000 0.0000 33.0603
#
#
#
# Elastic Compliance Matrix: (Units=1/GPa)
#
#
# Indices 1 2 3 4 5 6 
#
# 1 0.017660 -0.004394 -0.004016 0.000000 0.000000 0.000000
# 2 -0.004394 0.010006 -0.003277 0.000000 0.000000 0.000000
# 3 -0.004016 -0.003277 0.009866 0.000000 0.000000 0.000000
# 4 0.000000 0.000000 0.000000 0.022382 0.000000 0.000000
# 5 0.000000 0.000000 0.000000 0.000000 0.028869 0.000000
# 6 0.000000 0.000000 0.000000 0.000000 0.000000 0.030248
#
#
# Mechanical properties :
#
#
# Convention : Reuss Voigt Hill
#
# Bulk Modulus (GPa) = 70.63233 79.45321 75.04277
# Shear Modulus (GPa) = 33.98496 35.78609 34.88553
#
# Velocity S-wave (km/s) = 4.20009 4.30995 4.25538
# Velocity P-wave (km/s) = 7.75787 8.12464 7.94338
#
# Compressibility (1/GPa) = 0.01415782
#
# Stress axis : x y z
#
# Youngs Moduli (GPa) = 56.62630 99.94212 101.35563
#
# Poissons Ratio (x) = 0.43914 0.40701
# Poissons Ratio (y) = 0.24881 0.33218
# Poissons Ratio (z) = 0.22739 0.32755
#
# Static dielectric constant tensor:
#      x y z
#    x 3.497860 0.000000 0.000000 
#    y 0.000000 3.611080 0.000000 
#    z 0.000000 0.000000 3.614350 
# 
# 
# High freq. dielectric constant tensor:
#      x y z
#    x 1.744140 0.000000 0.000000 
#    y 0.000000 1.757500 0.000000 
#    z 0.000000 0.000000 1.754780 
# 
# From -- ./inp_files/43158.got.cif
#   From: 2010.03.12/outbox.cif.g09.slc.cpg/sg67_22_cif.got.tgz:43158.got - 2010.04.10 22:41:39.
