data_PCOD8280981
_publ_section_title
;
Structure prediction by ZEFSAII (Michael W. Deem and Ramdas Pophale) SiO2 
 PCOD8280981
Probable space group: C M M A
;
_chemical_formula_sum "Si O2"
_cell_formula_units_Z 112
_cell_length_a 21.952646
_cell_length_b 15.214252
_cell_length_c 16.406436
_cell_angle_alpha 90.000000
_cell_angle_beta 90.000000
_cell_angle_gamma 90.000000
_cell_volume 5479.636228
_symmetry_space_group_name_H-M "C M M A"
_symmetry_group_IT_number 67
_symmetry_cell_setting 'orthorhombic'
loop_
_space_group_symop_operation_xyz
x,y,z
-x,1/2-y,z
x,-y,-z
-x,1/2+y,-z
-x,-y,-z
x,1/2+y,-z
-x,y,z
x,1/2-y,z
1/2+x,1/2+y,z
1/2-x,-y,z
1/2+x,1/2-y,-z
1/2-x,y,-z
1/2-x,1/2-y,-z
1/2+x,y,-z
1/2-x,1/2+y,z
1/2+x,-y,z
loop_
_atom_site_type_symbol
_atom_site_label
_atom_site_fract_x
_atom_site_fract_y
_atom_site_fract_z
Si Si1 0.145619 0.647996 0.189081
Si Si2 0.302083 0.147158 0.559900
Si Si3 0.568158 0.994105 0.255802
Si Si4 0.569030 0.072366 0.568261
Si Si5 0.269943 0.354051 0.735025
Si Si6 0.319289 0.103767 0.008773
Si Si7 0.878060 0.350299 0.153915
O O1 0.130957 0.750000 0.208792
O O2 0.094144 0.585557 0.223565
O O3 0.204979 0.612514 0.235566
O O4 0.153311 0.636389 0.093038
O O5 0.291706 0.250000 0.562498
O O6 0.250000 0.106255 0.500000
O O7 0.373767 0.132011 0.537296
O O8 0.286290 0.105557 0.647647
O O9 0.500000 0.020208 0.271644
O O10 0.592570 0.963181 0.344213
O O11 0.570671 0.916646 0.187263
O O12 0.500000 0.117023 0.576042
O O13 0.561924 0.000000 0.500000
O O14 0.271633 0.250000 0.733751
O O15 0.318378 0.387574 0.800751
O O16 0.364689 0.144788 0.941885
O O17 0.250000 0.139548 0.000000
O O18 0.320465 0.000000 0.000000
O O19 0.895637 0.250000 0.177400
#
# Coordination Sequence:
#
# PCOD8280981 Si02
#       7
#    16  16  16  16  16  16  16
#     4  11  23  40  63  90 125 168 208 257 321 378
#     4  10  21  38  61  93 129 161 201 260 321 377
#     4  11  25  44  64  88 122 164 217 268 301 363
#     4  10  23  43  62  87 124 166 211 257 309 373
#     4   9  19  35  58  90 124 155 197 253 311 375
#     4  11  21  35  60  95 130 165 202 251 317 382
#     4  11  21  38  63  92 126 159 202 258 315 369
#
# _framework density 20.439312999999999
#
# number of rings (size 3 to 8) (size 9 to 14) (size 15 to 20)
#    0.000    1.571    4.286    0.429    2.000    2.286 
#    0.000    2.857    0.000    4.286    0.000    0.000 
#    0.000    0.000    0.000    0.000    0.000    0.000 
#
# Total GULP energy -693917.014370 kJ/mol
# GULP energy per Si atom -12391.375257 kJ/mol
# Density = 2.039279 g / cm^3
# Si number density = 20.439313 Si / 1000 Ang^3
#
#
#
# Elastic Constant Matrix: (Units=GPa)
#
#
# Indices 1 2 3 4 5 6 
#
# 1 88.3376 22.8380 41.0658 0.0000 0.0000 0.0000
# 2 22.8380 65.1982 9.9362 0.0000 0.0000 0.0000
# 3 41.0658 9.9362 106.1539 0.0000 0.0000 0.0000
# 4 0.0000 0.0000 0.0000 13.5037 0.0000 0.0000
# 5 0.0000 0.0000 0.0000 0.0000 40.3938 0.0000
# 6 0.0000 0.0000 0.0000 0.0000 0.0000 16.7418
#
#
#
# Elastic Compliance Matrix: (Units=1/GPa)
#
#
# Indices 1 2 3 4 5 6 
#
# 1 0.014962 -0.004422 -0.005374 0.000000 0.000000 0.000000
# 2 -0.004422 0.016867 0.000132 0.000000 0.000000 0.000000
# 3 -0.005374 0.000132 0.011487 0.000000 0.000000 0.000000
# 4 0.000000 0.000000 0.000000 0.074054 0.000000 0.000000
# 5 0.000000 0.000000 0.000000 0.000000 0.024756 0.000000
# 6 0.000000 0.000000 0.000000 0.000000 0.000000 0.059731
#
#
# Mechanical properties :
#
#
# Convention : Reuss Voigt Hill
#
# Bulk Modulus (GPa) = 41.68904 45.26330 43.47617
# Shear Modulus (GPa) = 21.81692 26.51784 24.16738
#
# Velocity S-wave (km/s) = 3.27065 3.60584 3.44233
# Velocity P-wave (km/s) = 5.89098 6.28724 6.09234
#
# Compressibility (1/GPa) = 0.02398712
#
# Stress axis : x y z
#
# Youngs Moduli (GPa) = 66.83758 59.28857 87.05572
#
# Poissons Ratio (x) = 0.26216 0.46784
# Poissons Ratio (y) = 0.29554 -0.01148
# Poissons Ratio (z) = 0.35919 -0.00782
#
# Static dielectric constant tensor:
#      x y z
#    x 3.906320 0.000000 0.000000 
#    y 0.000000 3.522050 0.000000 
#    z 0.000000 0.000000 3.964020 
# 
# 
# High freq. dielectric constant tensor:
#      x y z
#    x 1.790590 0.000000 0.000000 
#    y 0.000000 1.784790 0.000000 
#    z 0.000000 0.000000 1.810520 
# 
# From -- ./inp_files/30126.got.cif
#   From: 2010.03.12/outbox.cif.g09.slc.cpg/sg67_16_cif.got.tgz:30126.got - 2010.04.10 22:41:39.
