data_PCOD8280028
_publ_section_title
;
Structure prediction by ZEFSAII (Michael W. Deem and Ramdas Pophale) SiO2 
 PCOD8280028
Probable space group: C M M A
;
_chemical_formula_sum "Si O2"
_cell_formula_units_Z 96
_cell_length_a 8.555198
_cell_length_b 28.533215
_cell_length_c 20.488961
_cell_angle_alpha 90.000000
_cell_angle_beta 90.000000
_cell_angle_gamma 90.000000
_cell_volume 5001.505029
_symmetry_space_group_name_H-M "C M M A"
_symmetry_group_IT_number 67
_symmetry_cell_setting 'orthorhombic'
loop_
_space_group_symop_operation_xyz
x,y,z
-x,1/2-y,z
x,-y,-z
-x,1/2+y,-z
-x,-y,-z
x,1/2+y,-z
-x,y,z
x,1/2-y,z
1/2+x,1/2+y,z
1/2-x,-y,z
1/2+x,1/2-y,-z
1/2-x,y,-z
1/2-x,1/2-y,-z
1/2+x,y,-z
1/2-x,1/2+y,z
1/2+x,-y,z
loop_
_atom_site_type_symbol
_atom_site_label
_atom_site_fract_x
_atom_site_fract_y
_atom_site_fract_z
Si Si1 0.180108 0.697236 0.228787
Si Si2 0.315221 0.948259 0.693146
Si Si3 0.182877 0.050185 0.931048
Si Si4 0.318788 0.606574 0.185194
Si Si5 0.817123 0.102726 0.430322
Si Si6 0.821479 0.698093 0.633225
O O1 0.222569 0.750000 0.206949
O O2 0.288006 0.662237 0.187379
O O3 0.208709 0.690798 0.305654
O O4 0.000000 0.685483 0.215061
O O5 0.500000 0.948601 0.702352
O O6 0.239104 0.915263 0.747288
O O7 0.271030 0.928724 0.622466
O O8 0.250000 0.000000 0.702540
O O9 0.223593 0.087102 0.875668
O O10 0.000000 0.045082 0.938418
O O11 0.250000 0.000000 0.910331
O O12 0.250000 0.067718 0.000000
O O13 0.500000 0.595765 0.175139
O O14 0.750000 0.088050 0.500000
O O15 0.782963 0.158078 0.419549
O O16 0.000000 0.091282 0.426768
O O17 0.794635 0.750000 0.602214
O O18 0.000000 0.692836 0.657980
#
# Coordination Sequence:
#
# PCOD8280028 Si02
#       6
#    16  16  16  16  16  16
#     4  10  20  34  56  87 119 152 193 240 290 343
#     4  12  25  42  62  85 113 146 191 244 295 349
#     4  11  22  39  61  90 126 163 201 242 289 344
#     4  12  23  38  61  90 122 158 197 239 289 344
#     4  11  23  39  58  82 113 151 193 239 292 353
#     4   9  18  34  56  81 112 149 188 233 287 347
#
# _framework density 19.194222
#
# number of rings (size 3 to 8) (size 9 to 14) (size 15 to 20)
#    0.000    1.167    1.667    6.500    0.000    2.333 
#    0.000    1.667    0.000    0.500    0.000    0.000 
#    0.000    0.000    0.000    0.000    0.000    0.000 
#
# Total GULP energy -595395.978434 kJ/mol
# GULP energy per Si atom -12404.082884 kJ/mol
# Density = 1.915053 g / cm^3
# Si number density = 19.194222 Si / 1000 Ang^3
#
#
#
# Elastic Constant Matrix: (Units=GPa)
#
#
# Indices 1 2 3 4 5 6 
#
# 1 108.6373 30.3676 18.8933 0.0000 0.0000 0.0000
# 2 30.3676 98.1349 35.4565 0.0000 0.0000 0.0000
# 3 18.8933 35.4565 89.9207 0.0000 0.0000 0.0000
# 4 0.0000 0.0000 0.0000 24.9705 0.0000 0.0000
# 5 0.0000 0.0000 0.0000 0.0000 32.8585 0.0000
# 6 0.0000 0.0000 0.0000 0.0000 0.0000 27.1759
#
#
#
# Elastic Compliance Matrix: (Units=1/GPa)
#
#
# Indices 1 2 3 4 5 6 
#
# 1 0.010160 -0.002767 -0.001044 0.000000 0.000000 0.000000
# 2 -0.002767 0.012636 -0.004401 0.000000 0.000000 0.000000
# 3 -0.001044 -0.004401 0.013076 0.000000 0.000000 0.000000
# 4 0.000000 0.000000 0.000000 0.040047 0.000000 0.000000
# 5 0.000000 0.000000 0.000000 0.000000 0.030434 0.000000
# 6 0.000000 0.000000 0.000000 0.000000 0.000000 0.036797
#
#
# Mechanical properties :
#
#
# Convention : Reuss Voigt Hill
#
# Bulk Modulus (GPa) = 51.41848 51.79198 51.60523
# Shear Modulus (GPa) = 30.11021 31.13268 30.62145
#
# Velocity S-wave (km/s) = 3.96499 4.03175 3.99851
# Velocity P-wave (km/s) = 6.91435 6.97962 6.94706
#
# Compressibility (1/GPa) = 0.01944826
#
# Stress axis : x y z
#
# Youngs Moduli (GPa) = 98.42639 79.13606 76.47779
#
# Poissons Ratio (x) = 0.21896 0.07982
# Poissons Ratio (y) = 0.27233 0.33660
# Poissons Ratio (z) = 0.10273 0.34830
#
# Static dielectric constant tensor:
#      x y z
#    x 3.648770 0.000000 0.000000 
#    y 0.000000 3.720310 0.000000 
#    z 0.000000 0.000000 3.319450 
# 
# 
# High freq. dielectric constant tensor:
#      x y z
#    x 1.763250 0.000000 0.000000 
#    y 0.000000 1.755650 0.000000 
#    z 0.000000 0.000000 1.725520 
# 
# From -- ./inp_files/37134.got.cif
#   From: 2010.03.12/outbox.cif.g09.slc.cpg/sg67_19_cif.got.tgz:37134.got - 2010.04.10 22:41:39.
