data_PCOD8280445
_publ_section_title
;
Structure prediction by ZEFSAII (Michael W. Deem and Ramdas Pophale) SiO2 
 PCOD8280445
Probable space group: C M M A
;
_chemical_formula_sum "Si O2"
_cell_formula_units_Z 80
_cell_length_a 18.560691
_cell_length_b 16.383371
_cell_length_c 13.313325
_cell_angle_alpha 90.000000
_cell_angle_beta 90.000000
_cell_angle_gamma 90.000000
_cell_volume 4048.404888
_symmetry_space_group_name_H-M "C M M A"
_symmetry_group_IT_number 67
_symmetry_cell_setting 'orthorhombic'
loop_
_space_group_symop_operation_xyz
x,y,z
-x,1/2-y,z
x,-y,-z
-x,1/2+y,-z
-x,-y,-z
x,1/2+y,-z
-x,y,z
x,1/2-y,z
1/2+x,1/2+y,z
1/2-x,-y,z
1/2+x,1/2-y,-z
1/2-x,y,-z
1/2-x,1/2-y,-z
1/2+x,y,-z
1/2-x,1/2+y,z
1/2+x,-y,z
loop_
_atom_site_type_symbol
_atom_site_label
_atom_site_fract_x
_atom_site_fract_y
_atom_site_fract_z
Si Si1 0.323469 0.544328 0.718281
Si Si2 0.828266 0.079802 0.950608
Si Si3 0.916799 0.094123 0.359581
Si Si4 0.335509 0.250000 0.979414
Si Si5 0.330618 0.158473 0.461529
Si Si6 0.583168 0.250000 0.775377
O O1 0.250000 0.500000 0.686291
O O2 0.321123 0.571933 0.832470
O O3 0.390031 0.483986 0.701686
O O4 0.333843 0.624401 0.651090
O O5 0.750000 0.084378 0.000000
O O6 0.868683 0.165992 0.973796
O O7 0.868179 0.000000 0.000000
O O8 0.877824 0.101202 0.466600
O O9 0.900052 0.172374 0.292356
O O10 0.000000 0.083221 0.382603
O O11 0.357870 0.250000 0.863176
O O12 0.250000 0.250000 0.000000
O O13 0.362445 0.250000 0.460075
O O14 0.250000 0.158501 0.500000
O O15 0.500000 0.250000 0.814423
#
# Coordination Sequence:
#
# PCOD8280445 Si02
#       6
#    16  16  16   8  16   8
#     4  12  23  38  64  91 131 168 214 266 324 381
#     4  10  20  37  57  92 126 164 209 266 316 373
#     4  11  24  43  66  93 129 173 216 258 319 397
#     4  10  22  34  63  96 125 166 218 267 321 377
#     4  11  24  39  60  94 130 165 209 265 323 384
#     4  10  22  42  66  94 130 172 213 259 318 389
#
# _framework density 19.760869
#
# number of rings (size 3 to 8) (size 9 to 14) (size 15 to 20)
#    0.000    1.200    5.000    1.800    4.200    1.600 
#    0.000    1.000    0.000    3.600    0.000    0.000 
#    0.000    0.000    0.000    0.000    0.000    0.000 
#
# Total GULP energy -496007.328420 kJ/mol
# GULP energy per Si atom -12400.183211 kJ/mol
# Density = 1.971589 g / cm^3
# Si number density = 19.760869 Si / 1000 Ang^3
#
#
#
# Elastic Constant Matrix: (Units=GPa)
#
#
# Indices 1 2 3 4 5 6 
#
# 1 67.3811 18.8039 40.0692 0.0000 0.0000 0.0000
# 2 18.8039 144.5022 51.3292 0.0000 0.0000 0.0000
# 3 40.0692 51.3292 159.8955 0.0000 0.0000 0.0000
# 4 0.0000 0.0000 0.0000 -36.7423 0.0000 0.0000
# 5 0.0000 0.0000 0.0000 0.0000 26.0694 0.0000
# 6 0.0000 0.0000 0.0000 0.0000 0.0000 22.2984
#
#
#
# Elastic Compliance Matrix: (Units=1/GPa)
#
#
# Indices 1 2 3 4 5 6 
#
# 1 0.017524 -0.000813 -0.004130 0.000000 0.000000 0.000000
# 2 -0.000813 0.007849 -0.002316 0.000000 0.000000 0.000000
# 3 -0.004130 -0.002316 0.008033 0.000000 0.000000 0.000000
# 4 0.000000 0.000000 0.000000 -0.027217 0.000000 0.000000
# 5 0.000000 0.000000 0.000000 0.000000 0.038359 0.000000
# 6 0.000000 0.000000 0.000000 0.000000 0.000000 0.044846
#
#
# Mechanical properties :
#
#
# Convention : Reuss Voigt Hill
#
# Bulk Modulus (GPa) = 52.94769 65.79817 59.37293
# Shear Modulus (GPa) = 45.36851 19.76353 32.56602
#
# Velocity S-wave (km/s) = 4.79673 3.16592 4.06397
# Velocity P-wave (km/s) = 7.58489 6.83620 7.22025
#
# Compressibility (1/GPa) = 0.01888656
#
# Stress axis : x y z
#
# Youngs Moduli (GPa) = 57.06419 127.40912 124.49333
#
# Poissons Ratio (x) = 0.10361 0.51421
# Poissons Ratio (y) = 0.04641 0.28830
# Poissons Ratio (z) = 0.23570 0.29505
#
# Static dielectric constant tensor:
#      x y z
#    x 3.282030 0.000000 0.000000 
#    y 0.000000 4.658170 0.000000 
#    z 0.000000 0.000000 3.535560 
# 
# 
# High freq. dielectric constant tensor:
#      x y z
#    x 1.732760 0.000000 0.000000 
#    y 0.000000 1.795390 0.000000 
#    z 0.000000 0.000000 1.777910 
# 
# From -- ./inp_files/20561.got.cif
#   From: 2010.03.12/outbox.cif.g09.slc.cpg/sg67_11_cif.got.tgz:20561.got - 2010.04.10 22:41:39.
