data_PCOD8280516
_publ_section_title
;
Structure prediction by ZEFSAII (Michael W. Deem and Ramdas Pophale) SiO2 
 PCOD8280516
Probable space group: C M M A
;
_chemical_formula_sum "Si O2"
_cell_formula_units_Z 52
_cell_length_a 14.297429
_cell_length_b 19.321951
_cell_length_c 11.268322
_cell_angle_alpha 90.000000
_cell_angle_beta 90.000000
_cell_angle_gamma 90.000000
_cell_volume 3112.921534
_symmetry_space_group_name_H-M "C M M A"
_symmetry_group_IT_number 67
_symmetry_cell_setting 'orthorhombic'
loop_
_space_group_symop_operation_xyz
x,y,z
-x,1/2-y,z
x,-y,-z
-x,1/2+y,-z
-x,-y,-z
x,1/2+y,-z
-x,y,z
x,1/2-y,z
1/2+x,1/2+y,z
1/2-x,-y,z
1/2+x,1/2-y,-z
1/2-x,y,-z
1/2-x,1/2-y,-z
1/2+x,y,-z
1/2-x,1/2+y,z
1/2+x,-y,z
loop_
_atom_site_type_symbol
_atom_site_label
_atom_site_fract_x
_atom_site_fract_y
_atom_site_fract_z
Si Si1 0.500000 0.044944 0.331514
Si Si2 0.250000 0.500000 0.000000
Si Si3 0.198978 0.331013 0.379494
Si Si4 0.804037 0.434683 0.772262
Si Si5 0.000000 0.604182 0.592942
O O1 0.409378 0.075293 0.268632
O O2 0.500000 0.072732 0.463301
O O3 0.500000 0.961654 0.319194
O O4 0.190919 0.448273 0.914697
O O5 0.212375 0.250000 0.361845
O O6 0.250000 0.356686 0.500000
O O7 0.246123 0.366840 0.265019
O O8 0.089811 0.348589 0.384826
O O9 0.750000 0.500000 0.710460
#
# Coordination Sequence:
#
# PCOD8280516 Si02
#       5
#     8   4  16  16   8
#     4  11  20  29  60  83 107 143 186 233 278 323
#     4   8  20  38  60  76 110 144 194 244 276 312
#     4  11  22  35  53  81 119 150 177 223 282 342
#     4  10  20  38  55  81 111 144 189 233 275 324
#     4  11  19  32  52  85 110 148 184 222 274 340
#
# _framework density 16.704566
#
# number of rings (size 3 to 8) (size 9 to 14) (size 15 to 20)
#    0.923    0.615    6.154    0.462    0.000    1.231 
#    0.000    1.538    0.000    0.000    0.000    0.000 
#    0.000    0.000    0.000    0.000    0.000    0.000 
#
# Total GULP energy -322258.586640 kJ/mol
# GULP energy per Si atom -12394.561025 kJ/mol
# Density = 1.666655 g / cm^3
# Si number density = 16.704566 Si / 1000 Ang^3
#
#
#
# Elastic Constant Matrix: (Units=GPa)
#
#
# Indices 1 2 3 4 5 6 
#
# 1 140.8308 35.3118 36.0092 0.0000 0.0000 0.0000
# 2 35.3118 82.6256 36.8110 0.0000 0.0000 0.0000
# 3 36.0092 36.8110 85.6878 0.0000 0.0000 0.0000
# 4 0.0000 0.0000 0.0000 23.5261 0.0000 0.0000
# 5 0.0000 0.0000 0.0000 0.0000 57.5894 0.0000
# 6 0.0000 0.0000 0.0000 0.0000 0.0000 24.8258
#
#
#
# Elastic Compliance Matrix: (Units=1/GPa)
#
#
# Indices 1 2 3 4 5 6 
#
# 1 0.008347 -0.002479 -0.002443 0.000000 0.000000 0.000000
# 2 -0.002479 0.015704 -0.005704 0.000000 0.000000 0.000000
# 3 -0.002443 -0.005704 0.015147 0.000000 0.000000 0.000000
# 4 0.000000 0.000000 0.000000 0.042506 0.000000 0.000000
# 5 0.000000 0.000000 0.000000 0.000000 0.017364 0.000000
# 6 0.000000 0.000000 0.000000 0.000000 0.000000 0.040281
#
#
# Mechanical properties :
#
#
# Convention : Reuss Voigt Hill
#
# Bulk Modulus (GPa) = 55.72375 58.37869 57.05122
# Shear Modulus (GPa) = 30.01507 34.58907 32.30207
#
# Velocity S-wave (km/s) = 4.24349 4.55536 4.40219
# Velocity P-wave (km/s) = 7.57894 7.91783 7.75024
#
# Compressibility (1/GPa) = 0.01794567
#
# Stress axis : x y z
#
# Youngs Moduli (GPa) = 119.80534 63.67946 66.01786
#
# Poissons Ratio (x) = 0.15786 0.16126
# Poissons Ratio (y) = 0.29699 0.37660
# Poissons Ratio (z) = 0.29265 0.36326
#
# Static dielectric constant tensor:
#      x y z
#    x 3.113820 0.000000 0.000000 
#    y 0.000000 3.039960 0.000000 
#    z 0.000000 0.000000 2.952390 
# 
# 
# High freq. dielectric constant tensor:
#      x y z
#    x 1.654560 0.000000 0.000000 
#    y 0.000000 1.635920 0.000000 
#    z 0.000000 0.000000 1.619380 
# 
# From -- ./inp_files/17361.got.cif
#   From: 2010.03.12/outbox.cif.g09.slc.cpg/sg67_9_cif.got.tgz:17361.got - 2010.04.10 22:41:39.
