data_PCOD8280752
_publ_section_title
;
Structure prediction by ZEFSAII (Michael W. Deem and Ramdas Pophale) SiO2 
 PCOD8280752
Probable space group: C M M A
;
_chemical_formula_sum "Si O2"
_cell_formula_units_Z 96
_cell_length_a 8.712284
_cell_length_b 18.521040
_cell_length_c 30.620577
_cell_angle_alpha 90.000000
_cell_angle_beta 90.000000
_cell_angle_gamma 90.000000
_cell_volume 4940.953466
_symmetry_space_group_name_H-M "C M M A"
_symmetry_group_IT_number 67
_symmetry_cell_setting 'orthorhombic'
loop_
_space_group_symop_operation_xyz
x,y,z
-x,1/2-y,z
x,-y,-z
-x,1/2+y,-z
-x,-y,-z
x,1/2+y,-z
-x,y,z
x,1/2-y,z
1/2+x,1/2+y,z
1/2-x,-y,z
1/2+x,1/2-y,-z
1/2-x,y,-z
1/2-x,1/2-y,-z
1/2+x,y,-z
1/2-x,1/2+y,z
1/2+x,-y,z
loop_
_atom_site_type_symbol
_atom_site_label
_atom_site_fract_x
_atom_site_fract_y
_atom_site_fract_z
Si Si1 0.318528 0.078969 0.705798
Si Si2 0.674277 0.164753 0.120610
Si Si3 0.180303 0.577029 0.954579
Si Si4 0.820050 0.666751 0.789468
Si Si5 0.178843 0.333944 0.378860
Si Si6 0.818823 0.575845 0.453246
O O1 0.500000 0.073718 0.706608
O O2 0.259201 0.119570 0.749047
O O3 0.263212 0.124278 0.664014
O O4 0.250000 0.000000 0.703381
O O5 0.500000 0.138454 0.113871
O O6 0.689207 0.250000 0.117433
O O7 0.782018 0.132819 0.083402
O O8 0.731980 0.138289 0.167815
O O9 0.250000 0.500000 0.941916
O O10 0.000000 0.569302 0.960257
O O11 0.250000 0.606011 0.000000
O O12 0.781014 0.750000 0.779407
O O13 0.000000 0.656301 0.797438
O O14 0.212460 0.250000 0.371582
O O15 0.276198 0.361102 0.419885
O O16 0.000000 0.348495 0.387913
O O17 0.750000 0.500000 0.436337
O O18 0.750000 0.596868 0.500000
O O19 0.000000 0.568068 0.457415
#
# Coordination Sequence:
#
# PCOD8280752 Si02
#       6
#    16  16  16  16  16  16
#     4  10  21  36  56  82 111 145 184 228 277 331
#     4  10  21  37  57  83 114 147 185 229 277 329
#     4  11  22  38  59  82 111 146 185 229 278 331
#     4   9  18  35  57  79 106 143 186 228 273 327
#     4  10  21  38  59  83 113 149 188 231 280 332
#     4  11  22  38  60  85 114 148 187 230 278 331
#
# _framework density 19.429449999999999
#
# number of rings (size 3 to 8) (size 9 to 14) (size 15 to 20)
#    0.000    1.833    0.000    5.500    0.000    7.333 
#    0.000    1.667    0.000    3.000    0.000    0.000 
#    0.000    0.000    0.000    0.000    0.000    0.000 
#
# Total GULP energy -595434.887633 kJ/mol
# GULP energy per Si atom -12404.893492 kJ/mol
# Density = 1.938523 g / cm^3
# Si number density = 19.429450 Si / 1000 Ang^3
#
#
#
# Elastic Constant Matrix: (Units=GPa)
#
#
# Indices 1 2 3 4 5 6 
#
# 1 110.0203 40.9163 55.3755 0.0000 0.0000 0.0000
# 2 40.9163 97.8754 74.6106 0.0000 0.0000 0.0000
# 3 55.3755 74.6106 148.6587 0.0000 0.0000 0.0000
# 4 0.0000 0.0000 0.0000 41.9213 0.0000 0.0000
# 5 0.0000 0.0000 0.0000 0.0000 32.0091 0.0000
# 6 0.0000 0.0000 0.0000 0.0000 0.0000 32.0496
#
#
#
# Elastic Compliance Matrix: (Units=1/GPa)
#
#
# Indices 1 2 3 4 5 6 
#
# 1 0.011555 -0.002509 -0.003045 0.000000 0.000000 0.000000
# 2 -0.002509 0.017093 -0.007644 0.000000 0.000000 0.000000
# 3 -0.003045 -0.007644 0.011698 0.000000 0.000000 0.000000
# 4 0.000000 0.000000 0.000000 0.023854 0.000000 0.000000
# 5 0.000000 0.000000 0.000000 0.000000 0.031241 0.000000
# 6 0.000000 0.000000 0.000000 0.000000 0.000000 0.031202
#
#
# Mechanical properties :
#
#
# Convention : Reuss Voigt Hill
#
# Bulk Modulus (GPa) = 71.68981 77.59545 74.64263
# Shear Modulus (GPa) = 31.70788 33.57280 32.64034
#
# Velocity S-wave (km/s) = 4.04412 4.16135 4.10316
# Velocity P-wave (km/s) = 7.66708 7.94436 7.80695
#
# Compressibility (1/GPa) = 0.01394898
#
# Stress axis : x y z
#
# Youngs Moduli (GPa) = 86.54263 58.50228 85.48784
#
# Poissons Ratio (x) = 0.14681 0.26029
# Poissons Ratio (y) = 0.21718 0.65349
# Poissons Ratio (z) = 0.26350 0.44720
#
# Static dielectric constant tensor:
#      x y z
#    x 3.567370 0.000000 0.000000 
#    y 0.000000 3.410690 0.000000 
#    z 0.000000 0.000000 3.697800 
# 
# 
# High freq. dielectric constant tensor:
#      x y z
#    x 1.757390 0.000000 0.000000 
#    y 0.000000 1.753080 0.000000 
#    z 0.000000 0.000000 1.770680 
# 
# From -- ./inp_files/43489.got.cif
#   From: 2010.03.12/outbox.cif.g09.slc.cpg/sg67_22_cif.got.tgz:43489.got - 2010.04.10 22:41:39.
