data_PCOD8280061
_publ_section_title
;
Structure prediction by ZEFSAII (Michael W. Deem and Ramdas Pophale) SiO2 
 PCOD8280061
Probable space group: C M M A
;
_chemical_formula_sum "Si O2"
_cell_formula_units_Z 104
_cell_length_a 8.881196
_cell_length_b 30.457813
_cell_length_c 23.265241
_cell_angle_alpha 90.000000
_cell_angle_beta 90.000000
_cell_angle_gamma 90.000000
_cell_volume 6293.289730
_symmetry_space_group_name_H-M "C M M A"
_symmetry_group_IT_number 67
_symmetry_cell_setting 'orthorhombic'
loop_
_space_group_symop_operation_xyz
x,y,z
-x,1/2-y,z
x,-y,-z
-x,1/2+y,-z
-x,-y,-z
x,1/2+y,-z
-x,y,z
x,1/2-y,z
1/2+x,1/2+y,z
1/2-x,-y,z
1/2+x,1/2-y,-z
1/2-x,y,-z
1/2-x,1/2-y,-z
1/2+x,y,-z
1/2-x,1/2+y,z
1/2+x,-y,z
loop_
_atom_site_type_symbol
_atom_site_label
_atom_site_fract_x
_atom_site_fract_y
_atom_site_fract_z
Si Si1 0.827824 0.043429 0.820627
Si Si2 0.835051 0.801878 0.445555
Si Si3 0.820369 0.580350 0.057592
Si Si4 0.321245 0.750000 0.938079
Si Si5 0.824492 0.363274 0.780465
Si Si6 0.678833 0.299039 0.320271
Si Si7 0.322223 0.163741 0.894817
O O1 0.768060 0.054449 0.885118
O O2 0.803242 0.083867 0.776028
O O3 0.000000 0.031391 0.826240
O O4 0.750000 0.000000 0.795713
O O5 0.846534 0.750000 0.453735
O O6 0.750000 0.823181 0.500000
O O7 0.755940 0.811487 0.383615
O O8 0.000000 0.823318 0.446145
O O9 0.748773 0.628755 0.061308
O O10 0.000000 0.583378 0.053212
O O11 0.750000 0.557960 0.000000
O O12 0.500000 0.750000 0.942313
O O13 0.263335 0.791246 0.903340
O O14 0.250000 0.750000 0.000000
O O15 0.771795 0.337308 0.723579
O O16 0.711224 0.348346 0.829419
O O17 0.000000 0.352942 0.795713
O O18 0.500000 0.297075 0.325397
O O19 0.735952 0.250000 0.301280
O O20 0.500000 0.167791 0.905844
#
# Coordination Sequence:
#
# PCOD8280061 Si02
#       7
#    16  16  16   8  16  16  16
#     4   9  19  33  49  68  91 116 147 185 228 282
#     4   8  13  22  37  59  88 122 158 189 218 257
#     4  10  20  35  52  71  91 114 143 178 224 281
#     4  12  24  38  52  66  86 116 153 192 229 270
#     4   9  18  33  50  70  92 119 156 192 228 272
#     4   8  14  25  44  68  92 123 161 192 221 264
#     4  11  22  35  49  68  92 118 148 187 231 275
#
# _framework density 16.525538999999998
#
# number of rings (size 3 to 8) (size 9 to 14) (size 15 to 20)
#    0.000    2.615    0.000    4.846    1.077    3.385 
#    0.000    2.308    0.000    0.923    0.000    0.000 
#    0.000    0.615    0.000    7.692    0.000    0.308 
#
# Total GULP energy -644353.492844 kJ/mol
# GULP energy per Si atom -12391.413324 kJ/mol
# Density = 1.648793 g / cm^3
# Si number density = 16.525539 Si / 1000 Ang^3
#
#
#
# Elastic Constant Matrix: (Units=GPa)
#
#
# Indices 1 2 3 4 5 6 
#
# 1 68.5161 26.9416 21.7129 0.0000 0.0000 0.0000
# 2 26.9416 91.9698 37.8186 0.0000 0.0000 0.0000
# 3 21.7129 37.8186 98.4778 0.0000 0.0000 0.0000
# 4 0.0000 0.0000 0.0000 13.0473 0.0000 0.0000
# 5 0.0000 0.0000 0.0000 0.0000 21.6092 0.0000
# 6 0.0000 0.0000 0.0000 0.0000 0.0000 22.7589
#
#
#
# Elastic Compliance Matrix: (Units=1/GPa)
#
#
# Indices 1 2 3 4 5 6 
#
# 1 0.016875 -0.004053 -0.002164 0.000000 0.000000 0.000000
# 2 -0.004053 0.013886 -0.004439 0.000000 0.000000 0.000000
# 3 -0.002164 -0.004439 0.012336 0.000000 0.000000 0.000000
# 4 0.000000 0.000000 0.000000 0.076644 0.000000 0.000000
# 5 0.000000 0.000000 0.000000 0.000000 0.046277 0.000000
# 6 0.000000 0.000000 0.000000 0.000000 0.000000 0.043939
#
#
# Mechanical properties :
#
#
# Convention : Reuss Voigt Hill
#
# Bulk Modulus (GPa) = 45.90451 47.99000 46.94725
# Shear Modulus (GPa) = 20.96165 22.98244 21.97204
#
# Velocity S-wave (km/s) = 3.56538 3.73329 3.65030
# Velocity P-wave (km/s) = 6.69234 6.90552 6.79977
#
# Compressibility (1/GPa) = 0.02178435
#
# Stress axis : x y z
#
# Youngs Moduli (GPa) = 59.26011 72.01580 81.06112
#
# Poissons Ratio (x) = 0.29191 0.17542
# Poissons Ratio (y) = 0.24021 0.35982
# Poissons Ratio (z) = 0.12824 0.31967
#
# Static dielectric constant tensor:
#      x y z
#    x 3.045420 0.000000 0.000000 
#    y 0.000000 -1.742070 0.000000 
#    z 0.000000 0.000000 3.218920 
# 
# 
# High freq. dielectric constant tensor:
#      x y z
#    x 1.626270 0.000000 0.000000 
#    y 0.000000 1.612140 0.000000 
#    z 0.000000 0.000000 1.621280 
# 
# From -- ./inp_files/41166.got.cif
#   From: 2010.03.12/outbox.cif.g09.slc.cpg/sg67_21_cif.got.tgz:41166.got - 2010.04.10 22:41:39.
