data_PCOD8280909
_publ_section_title
;
Structure prediction by ZEFSAII (Michael W. Deem and Ramdas Pophale) SiO2 
 PCOD8280909
Probable space group: C M M A
;
_chemical_formula_sum "Si O2"
_cell_formula_units_Z 72
_cell_length_a 8.684541
_cell_length_b 15.981037
_cell_length_c 24.726276
_cell_angle_alpha 90.000000
_cell_angle_beta 90.000000
_cell_angle_gamma 90.000000
_cell_volume 3431.709678
_symmetry_space_group_name_H-M "C M M A"
_symmetry_group_IT_number 67
_symmetry_cell_setting 'orthorhombic'
loop_
_space_group_symop_operation_xyz
x,y,z
-x,1/2-y,z
x,-y,-z
-x,1/2+y,-z
-x,-y,-z
x,1/2+y,-z
-x,y,z
x,1/2-y,z
1/2+x,1/2+y,z
1/2-x,-y,z
1/2+x,1/2-y,-z
1/2-x,y,-z
1/2-x,1/2-y,-z
1/2+x,y,-z
1/2-x,1/2+y,z
1/2+x,-y,z
loop_
_atom_site_type_symbol
_atom_site_label
_atom_site_fract_x
_atom_site_fract_y
_atom_site_fract_z
Si Si1 0.681327 0.911600 0.153943
Si Si2 0.682149 0.156976 0.733510
Si Si3 0.831756 0.153916 0.948102
Si Si4 0.317244 0.411067 0.619873
Si Si5 0.316306 0.750000 0.559583
O O1 0.500000 0.916085 0.158337
O O2 0.751922 0.880979 0.211261
O O3 0.729171 0.850398 0.105795
O O4 0.750000 0.000000 0.138296
O O5 0.500000 0.162991 0.738326
O O6 0.750622 0.250000 0.724804
O O7 0.728851 0.099281 0.682880
O O8 0.856161 0.250000 0.962298
O O9 0.000000 0.111734 0.939101
O O10 0.750000 0.110241 0.000000
O O11 0.500000 0.409363 0.610779
O O12 0.250000 0.500000 0.599390
O O13 0.243223 0.334147 0.587950
O O14 0.500000 0.750000 0.559114
O O15 0.250000 0.750000 0.500000
#
# Coordination Sequence:
#
# PCOD8280909 Si02
#       5
#    16  16  16  16   8
#     4  11  22  36  56  83 118 156 198 245 301 364
#     4   9  18  35  61  90 123 164 206 252 310 372
#     4  10  21  38  59  82 109 143 189 243 301 366
#     4  11  22  41  68  99 137 177 220 271 325 385
#     4  12  26  46  70 100 134 176 225 272 327 384
#
# _framework density 20.980793999999999
#
# number of rings (size 3 to 8) (size 9 to 14) (size 15 to 20)
#    0.000    1.556    1.111    4.333    0.000    3.111 
#    0.000    7.778    0.000    0.000    0.000    0.000 
#    0.000    0.000    0.000    0.000    0.000    0.000 
#
# Total GULP energy -446364.545164 kJ/mol
# GULP energy per Si atom -12399.015143 kJ/mol
# Density = 2.093304 g / cm^3
# Si number density = 20.980794 Si / 1000 Ang^3
#
#
#
# Elastic Constant Matrix: (Units=GPa)
#
#
# Indices 1 2 3 4 5 6 
#
# 1 114.4622 45.9608 55.5376 0.0000 0.0000 0.0000
# 2 45.9608 119.2015 47.8013 0.0000 0.0000 0.0000
# 3 55.5376 47.8013 157.5797 0.0000 0.0000 0.0000
# 4 0.0000 0.0000 0.0000 13.8696 0.0000 0.0000
# 5 0.0000 0.0000 0.0000 0.0000 30.8419 0.0000
# 6 0.0000 0.0000 0.0000 0.0000 0.0000 29.5403
#
#
#
# Elastic Compliance Matrix: (Units=1/GPa)
#
#
# Indices 1 2 3 4 5 6 
#
# 1 0.011522 -0.003204 -0.003089 0.000000 0.000000 0.000000
# 2 -0.003204 0.010442 -0.002038 0.000000 0.000000 0.000000
# 3 -0.003089 -0.002038 0.008053 0.000000 0.000000 0.000000
# 4 0.000000 0.000000 0.000000 0.072100 0.000000 0.000000
# 5 0.000000 0.000000 0.000000 0.000000 0.032423 0.000000
# 6 0.000000 0.000000 0.000000 0.000000 0.000000 0.033852
#
#
# Mechanical properties :
#
#
# Convention : Reuss Voigt Hill
#
# Bulk Modulus (GPa) = 74.88108 76.64921 75.76514
# Shear Modulus (GPa) = 26.38444 30.97993 28.68219
#
# Velocity S-wave (km/s) = 3.55005 3.84681 3.70140
# Velocity P-wave (km/s) = 7.25062 7.50619 7.37951
#
# Compressibility (1/GPa) = 0.01335451
#
# Stress axis : x y z
#
# Youngs Moduli (GPa) = 86.79304 95.76841 124.17787
#
# Poissons Ratio (x) = 0.30682 0.38357
# Poissons Ratio (y) = 0.27806 0.25312
# Poissons Ratio (z) = 0.26809 0.19521
#
# Static dielectric constant tensor:
#      x y z
#    x 3.823750 0.000000 0.000000 
#    y 0.000000 4.317270 0.000000 
#    z 0.000000 0.000000 6.703430 
# 
# 
# High freq. dielectric constant tensor:
#      x y z
#    x 1.812100 0.000000 0.000000 
#    y 0.000000 1.821670 0.000000 
#    z 0.000000 0.000000 1.831550 
# 
# From -- ./inp_files/43109.got.cif
#   From: 2010.03.12/outbox.cif.g09.slc.cpg/sg67_22_cif.got.tgz:43109.got - 2010.04.10 22:41:39.
