data_PCOD8280229
_publ_section_title
;
Structure prediction by ZEFSAII (Michael W. Deem and Ramdas Pophale) SiO2 
 PCOD8280229
Probable space group: C M M A
;
_chemical_formula_sum "Si O2"
_cell_formula_units_Z 88
_cell_length_a 23.417229
_cell_length_b 13.853133
_cell_length_c 13.532467
_cell_angle_alpha 90.000000
_cell_angle_beta 90.000000
_cell_angle_gamma 90.000000
_cell_volume 4389.959195
_symmetry_space_group_name_H-M "C M M A"
_symmetry_group_IT_number 67
_symmetry_cell_setting 'orthorhombic'
loop_
_space_group_symop_operation_xyz
x,y,z
-x,1/2-y,z
x,-y,-z
-x,1/2+y,-z
-x,-y,-z
x,1/2+y,-z
-x,y,z
x,1/2-y,z
1/2+x,1/2+y,z
1/2-x,-y,z
1/2+x,1/2-y,-z
1/2-x,y,-z
1/2-x,1/2-y,-z
1/2+x,y,-z
1/2-x,1/2+y,z
1/2+x,-y,z
loop_
_atom_site_type_symbol
_atom_site_label
_atom_site_fract_x
_atom_site_fract_y
_atom_site_fract_z
Si Si1 0.278934 0.640613 0.338256
Si Si2 0.149585 0.642289 0.344878
Si Si3 0.435921 0.642002 0.998541
Si Si4 0.383384 0.641825 0.201701
Si Si5 0.564096 0.552478 0.794660
Si Si6 0.826044 0.500000 0.500000
O O1 0.288189 0.750000 0.376214
O O2 0.213785 0.623597 0.304086
O O3 0.319936 0.620535 0.243910
O O4 0.288150 0.569194 0.430051
O O5 0.143124 0.750000 0.386406
O O6 0.106215 0.627709 0.255976
O O7 0.134167 0.568672 0.433420
O O8 0.500000 0.625741 0.044402
O O9 0.432922 0.750000 0.952477
O O10 0.425687 0.562917 0.912752
O O11 0.387093 0.633249 0.082652
O O12 0.403714 0.750000 0.234161
O O13 0.424089 0.557017 0.242796
O O14 0.500000 0.581125 0.765900
#
# Coordination Sequence:
#
# PCOD8280229 Si02
#       6
#    16  16  16  16  16   8
#     4  10  21  37  60  90 117 146 187 236 289 343
#     4  11  23  38  60  88 117 149 189 238 288 339
#     4   9  18  34  57  84 114 152 196 236 275 330
#     4  10  20  35  57  86 119 148 187 239 286 334
#     4  11  22  37  59  85 116 156 196 233 279 336
#     4  12  21  38  65  88 113 146 190 239 290 347
#
# _framework density 20.045745
#
# number of rings (size 3 to 8) (size 9 to 14) (size 15 to 20)
#    0.000    1.636    1.818    3.818    0.000    5.091 
#    0.000    1.364    0.000    6.545    0.000    0.000 
#    0.000    0.000    0.000    0.000    0.000    0.000 
#
# Total GULP energy -545288.392057 kJ/mol
# GULP energy per Si atom -12392.918001 kJ/mol
# Density = 2.000012 g / cm^3
# Si number density = 20.045745 Si / 1000 Ang^3
#
#
#
# Elastic Constant Matrix: (Units=GPa)
#
#
# Indices 1 2 3 4 5 6 
#
# 1 105.4468 49.7765 76.4042 0.0000 0.0000 0.0000
# 2 49.7765 113.6271 48.3024 0.0000 0.0000 0.0000
# 3 76.4042 48.3024 100.4312 0.0000 0.0000 0.0000
# 4 0.0000 0.0000 0.0000 36.2992 0.0000 0.0000
# 5 0.0000 0.0000 0.0000 0.0000 24.8633 0.0000
# 6 0.0000 0.0000 0.0000 0.0000 0.0000 21.4340
#
#
#
# Elastic Compliance Matrix: (Units=1/GPa)
#
#
# Indices 1 2 3 4 5 6 
#
# 1 0.022005 -0.003172 -0.015215 0.000000 0.000000 0.000000
# 2 -0.003172 0.011520 -0.003127 0.000000 0.000000 0.000000
# 3 -0.015215 -0.003127 0.023036 0.000000 0.000000 0.000000
# 4 0.000000 0.000000 0.000000 0.027549 0.000000 0.000000
# 5 0.000000 0.000000 0.000000 0.000000 0.040220 0.000000
# 6 0.000000 0.000000 0.000000 0.000000 0.000000 0.046655
#
#
# Mechanical properties :
#
#
# Convention : Reuss Voigt Hill
#
# Bulk Modulus (GPa) = 73.89709 74.27457 74.08583
# Shear Modulus (GPa) = 22.88067 26.18744 24.53406
#
# Velocity S-wave (km/s) = 3.38216 3.61831 3.50223
# Velocity P-wave (km/s) = 7.22470 7.38845 7.30703
#
# Compressibility (1/GPa) = 0.01353233
#
# Stress axis : x y z
#
# Youngs Moduli (GPa) = 45.44328 86.80834 43.40953
#
# Poissons Ratio (x) = 0.27535 0.66049
# Poissons Ratio (y) = 0.14414 0.13575
# Poissons Ratio (z) = 0.69144 0.27148
#
# Static dielectric constant tensor:
#      x y z
#    x 3.486670 0.000000 0.000000 
#    y 0.000000 4.208240 0.000000 
#    z 0.000000 0.000000 3.493810 
# 
# 
# High freq. dielectric constant tensor:
#      x y z
#    x 1.752620 0.000000 0.000000 
#    y 0.000000 1.822160 0.000000 
#    z 0.000000 0.000000 1.755470 
# 
# From -- ./inp_files/30021.got.cif
#   From: 2010.03.12/outbox.cif.g09.slc.cpg/sg67_16_cif.got.tgz:30021.got - 2010.04.10 22:41:39.
