data_PCOD8280079
_publ_section_title
;
Structure prediction by ZEFSAII (Michael W. Deem and Ramdas Pophale) SiO2 
 PCOD8280079
Probable space group: C M M A
;
_chemical_formula_sum "Si O2"
_cell_formula_units_Z 96
_cell_length_a 8.677468
_cell_length_b 24.659876
_cell_length_c 22.067916
_cell_angle_alpha 90.000000
_cell_angle_beta 90.000000
_cell_angle_gamma 90.000000
_cell_volume 4722.209292
_symmetry_space_group_name_H-M "C M M A"
_symmetry_group_IT_number 67
_symmetry_cell_setting 'orthorhombic'
loop_
_space_group_symop_operation_xyz
x,y,z
-x,1/2-y,z
x,-y,-z
-x,1/2+y,-z
-x,-y,-z
x,1/2+y,-z
-x,y,z
x,1/2-y,z
1/2+x,1/2+y,z
1/2-x,-y,z
1/2+x,1/2-y,-z
1/2-x,y,-z
1/2-x,1/2-y,-z
1/2+x,y,-z
1/2-x,1/2+y,z
1/2+x,-y,z
loop_
_atom_site_type_symbol
_atom_site_label
_atom_site_fract_x
_atom_site_fract_y
_atom_site_fract_z
Si Si1 0.181646 0.944106 0.239808
Si Si2 0.182308 0.750000 0.838512
Si Si3 0.318356 0.861420 0.329750
Si Si4 0.822623 0.667966 0.938357
Si Si5 0.682073 0.057365 0.564834
Si Si6 0.681920 0.750000 0.704755
Si Si7 0.680416 0.053159 0.891126
O O1 0.258492 0.892600 0.270977
O O2 0.222302 0.939444 0.169657
O O3 0.000000 0.943304 0.250238
O O4 0.250000 0.000000 0.267381
O O5 0.237631 0.802095 0.877779
O O6 0.266219 0.750000 0.774508
O O7 0.000000 0.750000 0.825546
O O8 0.500000 0.854654 0.324680
O O9 0.269408 0.895092 0.389221
O O10 0.243297 0.802187 0.331472
O O11 0.788687 0.604153 0.933956
O O12 0.000000 0.681837 0.943655
O O13 0.750000 0.690835 0.000000
O O14 0.500000 0.051097 0.559947
O O15 0.750000 0.073694 0.500000
O O16 0.750000 0.000000 0.587561
O O17 0.500000 0.750000 0.702688
O O18 0.500000 0.046308 0.875642
O O19 0.750000 0.000000 0.924685
#
# Coordination Sequence:
#
# PCOD8280079 Si02
#       7
#    16   8  16  16  16   8  16
#     4  11  21  34  56  86 116 150 191 240 294 349
#     4  10  21  41  63  83 111 146 181 230 290 346
#     4  11  23  40  60  85 119 159 198 242 292 346
#     4  10  22  37  57  81 106 140 182 228 283 341
#     4  10  21  37  62  92 124 161 199 240 289 336
#     4  12  26  41  62  91 117 152 196 242 293 348
#     4  10  20  35  53  77 109 147 186 228 283 346
#
# _framework density 20.329467999999999
#
# number of rings (size 3 to 8) (size 9 to 14) (size 15 to 20)
#    0.000    1.500    0.000    7.000    0.000    7.667 
#    0.000    2.083    0.000    0.000    0.000    0.000 
#    0.000    0.000    0.000    0.000    0.000    0.000 
#
# Total GULP energy -595271.300977 kJ/mol
# GULP energy per Si atom -12401.485437 kJ/mol
# Density = 2.028320 g / cm^3
# Si number density = 20.329468 Si / 1000 Ang^3
#
#
#
# Elastic Constant Matrix: (Units=GPa)
#
#
# Indices 1 2 3 4 5 6 
#
# 1 101.6252 58.2425 47.1650 0.0000 0.0000 0.0000
# 2 58.2425 151.2823 55.7095 0.0000 0.0000 0.0000
# 3 47.1650 55.7095 95.5977 0.0000 0.0000 0.0000
# 4 0.0000 0.0000 0.0000 19.8795 0.0000 0.0000
# 5 0.0000 0.0000 0.0000 0.0000 31.8727 0.0000
# 6 0.0000 0.0000 0.0000 0.0000 0.0000 31.4862
#
#
#
# Elastic Compliance Matrix: (Units=1/GPa)
#
#
# Indices 1 2 3 4 5 6 
#
# 1 0.014206 -0.003677 -0.004866 0.000000 0.000000 0.000000
# 2 -0.003677 0.009368 -0.003645 0.000000 0.000000 0.000000
# 3 -0.004866 -0.003645 0.014985 0.000000 0.000000 0.000000
# 4 0.000000 0.000000 0.000000 0.050303 0.000000 0.000000
# 5 0.000000 0.000000 0.000000 0.000000 0.031375 0.000000
# 6 0.000000 0.000000 0.000000 0.000000 0.000000 0.031760
#
#
# Mechanical properties :
#
#
# Convention : Reuss Voigt Hill
#
# Bulk Modulus (GPa) = 70.50673 74.52659 72.51666
# Shear Modulus (GPa) = 27.60891 29.14022 28.37457
#
# Velocity S-wave (km/s) = 3.68920 3.79013 3.74001
# Velocity P-wave (km/s) = 7.27353 7.47612 7.37552
#
# Compressibility (1/GPa) = 0.01418304
#
# Stress axis : x y z
#
# Youngs Moduli (GPa) = 70.39363 106.74441 66.73220
#
# Poissons Ratio (x) = 0.39253 0.32470
# Poissons Ratio (y) = 0.25886 0.24324
# Poissons Ratio (z) = 0.34252 0.38909
#
# Static dielectric constant tensor:
#      x y z
#    x 3.713130 0.000000 0.000000 
#    y 0.000000 4.148880 0.000000 
#    z 0.000000 0.000000 3.571550 
# 
# 
# High freq. dielectric constant tensor:
#      x y z
#    x 1.800100 0.000000 0.000000 
#    y 0.000000 1.806750 0.000000 
#    z 0.000000 0.000000 1.784480 
# 
# From -- ./inp_files/40850.got.cif
#   From: 2010.03.12/outbox.cif.g09.slc.cpg/sg67_21_cif.got.tgz:40850.got - 2010.04.10 22:41:39.
