data_PCOD8280087
_publ_section_title
;
Structure prediction by ZEFSAII (Michael W. Deem and Ramdas Pophale) SiO2 
 PCOD8280087
Probable space group: C M M A
;
_chemical_formula_sum "Si O2"
_cell_formula_units_Z 104
_cell_length_a 27.018513
_cell_length_b 9.463508
_cell_length_c 23.951611
_cell_angle_alpha 90.000000
_cell_angle_beta 90.000000
_cell_angle_gamma 90.000000
_cell_volume 6124.185355
_symmetry_space_group_name_H-M "C M M A"
_symmetry_group_IT_number 67
_symmetry_cell_setting 'orthorhombic'
loop_
_space_group_symop_operation_xyz
x,y,z
-x,1/2-y,z
x,-y,-z
-x,1/2+y,-z
-x,-y,-z
x,1/2+y,-z
-x,y,z
x,1/2-y,z
1/2+x,1/2+y,z
1/2-x,-y,z
1/2+x,1/2-y,-z
1/2-x,y,-z
1/2-x,1/2-y,-z
1/2+x,y,-z
1/2-x,1/2+y,z
1/2+x,-y,z
loop_
_atom_site_type_symbol
_atom_site_label
_atom_site_fract_x
_atom_site_fract_y
_atom_site_fract_z
Si Si1 0.199581 0.917354 0.723391
Si Si2 0.635692 0.912876 0.172813
Si Si3 0.444786 0.089262 0.231220
Si Si4 0.882369 0.088537 0.661908
Si Si5 0.108359 0.912121 0.944301
Si Si6 0.000000 0.090650 0.053738
Si Si7 0.556432 0.414868 0.445610
O O1 0.206195 0.750000 0.712874
O O2 0.182064 0.948956 0.787164
O O3 0.250000 0.000000 0.713936
O O4 0.160889 0.979966 0.678714
O O5 0.621170 0.750000 0.179816
O O6 0.646226 0.947092 0.106983
O O7 0.588444 0.000828 0.190029
O O8 0.500000 0.027926 0.228207
O O9 0.442919 0.250000 0.210464
O O10 0.427025 0.077175 0.294673
O O11 0.861832 0.250000 0.660268
O O12 0.905434 0.042038 0.602987
O O13 0.113719 0.750000 0.962698
O O14 0.053108 0.941798 0.917142
O O15 0.120689 0.000000 0.000000
O O16 0.000000 0.250000 0.033345
O O17 0.000000 0.000000 0.000000
O O18 0.573257 0.500000 0.500000
O O19 0.500000 0.454098 0.428558
O O20 0.560520 0.250000 0.459099
#
# Coordination Sequence:
#
# PCOD8280087 Si02
#       7
#    16  16  16  16  16   8  16
#     4  10  20  35  54  75  95 119 154 199 250 300
#     4   9  19  32  47  68  93 120 153 192 237 288
#     4   9  17  28  43  66  95 126 159 194 231 276
#     4   9  17  31  50  71  98 131 165 200 240 283
#     4   9  17  29  44  63  88 120 154 189 227 272
#     4   8  14  24  38  56  80 114 150 178 209 250
#     4   9  17  29  47  73 106 144 178 204 232 270
#
# _framework density 16.981850999999999
#
# number of rings (size 3 to 8) (size 9 to 14) (size 15 to 20)
#    0.000    2.923    0.000    0.923    1.077    4.000 
#    0.000    0.000    0.000    3.692    0.000    6.462 
#    0.000    0.000    0.000    0.000    0.000    0.000 
#
# Total GULP energy -644262.553368 kJ/mol
# GULP energy per Si atom -12389.664488 kJ/mol
# Density = 1.694320 g / cm^3
# Si number density = 16.981851 Si / 1000 Ang^3
#
#
#
# Elastic Constant Matrix: (Units=GPa)
#
#
# Indices 1 2 3 4 5 6 
#
# 1 81.3627 44.0592 40.9472 0.0000 0.0000 0.0000
# 2 44.0592 67.2297 48.2676 0.0000 0.0000 0.0000
# 3 40.9472 48.2676 114.5856 0.0000 0.0000 0.0000
# 4 0.0000 0.0000 0.0000 27.3993 0.0000 0.0000
# 5 0.0000 0.0000 0.0000 0.0000 15.8035 0.0000
# 6 0.0000 0.0000 0.0000 0.0000 0.0000 21.9269
#
#
#
# Elastic Compliance Matrix: (Units=1/GPa)
#
#
# Indices 1 2 3 4 5 6 
#
# 1 0.019454 -0.011122 -0.002267 0.000000 0.000000 0.000000
# 2 -0.011122 0.027681 -0.007686 0.000000 0.000000 0.000000
# 3 -0.002267 -0.007686 0.012775 0.000000 0.000000 0.000000
# 4 0.000000 0.000000 0.000000 0.036497 0.000000 0.000000
# 5 0.000000 0.000000 0.000000 0.000000 0.063277 0.000000
# 6 0.000000 0.000000 0.000000 0.000000 0.000000 0.045606
#
#
# Mechanical properties :
#
#
# Convention : Reuss Voigt Hill
#
# Bulk Modulus (GPa) = 56.30415 58.85843 57.58129
# Shear Modulus (GPa) = 19.73472 21.68620 20.71046
#
# Velocity S-wave (km/s) = 3.41267 3.57742 3.49601
# Velocity P-wave (km/s) = 6.98254 7.19714 7.09065
#
# Compressibility (1/GPa) = 0.01776068
#
# Stress axis : x y z
#
# Youngs Moduli (GPa) = 51.40280 36.12559 78.27880
#
# Poissons Ratio (x) = 0.40178 0.17746
# Poissons Ratio (y) = 0.57169 0.60165
# Poissons Ratio (z) = 0.11653 0.27766
#
# Static dielectric constant tensor:
#      x y z
#    x 2.868020 0.000000 0.000000 
#    y 0.000000 3.214520 0.000000 
#    z 0.000000 0.000000 3.133110 
# 
# 
# High freq. dielectric constant tensor:
#      x y z
#    x 1.629170 0.000000 0.000000 
#    y 0.000000 1.658560 0.000000 
#    z 0.000000 0.000000 1.648540 
# 
# From -- ./inp_files/42757.got.cif
#   From: 2010.03.12/outbox.cif.g09.slc.cpg/sg67_22_cif.got.tgz:42757.got - 2010.04.10 22:41:39.
