data_PCOD8280253
_publ_section_title
;
Structure prediction by ZEFSAII (Michael W. Deem and Ramdas Pophale) SiO2 
 PCOD8280253
Probable space group: C M M A
;
_chemical_formula_sum "Si O2"
_cell_formula_units_Z 96
_cell_length_a 17.548582
_cell_length_b 25.954259
_cell_length_c 10.353131
_cell_angle_alpha 90.000000
_cell_angle_beta 90.000000
_cell_angle_gamma 90.000000
_cell_volume 4715.441625
_symmetry_space_group_name_H-M "C M M A"
_symmetry_group_IT_number 67
_symmetry_cell_setting 'orthorhombic'
loop_
_space_group_symop_operation_xyz
x,y,z
-x,1/2-y,z
x,-y,-z
-x,1/2+y,-z
-x,-y,-z
x,1/2+y,-z
-x,y,z
x,1/2-y,z
1/2+x,1/2+y,z
1/2-x,-y,z
1/2+x,1/2-y,-z
1/2-x,y,-z
1/2-x,1/2-y,-z
1/2+x,y,-z
1/2-x,1/2+y,z
1/2+x,-y,z
loop_
_atom_site_type_symbol
_atom_site_label
_atom_site_fract_x
_atom_site_fract_y
_atom_site_fract_z
Si Si1 0.590509 0.024398 0.131606
Si Si2 0.589473 0.807063 0.128652
Si Si3 0.909421 0.640230 0.129394
Si Si4 0.841043 0.853521 0.621976
Si Si5 0.821996 0.690226 0.355749
Si Si6 0.588422 0.537986 0.381291
O O1 0.500000 0.026180 0.125076
O O2 0.621855 0.082352 0.148078
O O3 0.617275 0.990108 0.251785
O O4 0.623827 0.000000 0.000000
O O5 0.500000 0.802693 0.112719
O O6 0.626442 0.750000 0.129204
O O7 0.606372 0.835709 0.261200
O O8 0.622417 0.838981 0.007428
O O9 0.879905 0.676974 0.242304
O O10 0.000000 0.641778 0.133984
O O11 0.862011 0.821362 0.493204
O O12 0.752915 0.845060 0.658362
O O13 0.857800 0.913242 0.595033
O O14 0.798896 0.750000 0.348485
O O15 0.599995 0.500000 0.500000
O O16 0.500000 0.555019 0.369605
#
# Coordination Sequence:
#
# PCOD8280253 Si02
#       6
#    16  16  16  16  16  16
#     4   9  17  32  55  82 112 145 180 224 281 339
#     4  10  20  35  58  87 115 146 190 242 290 341
#     4  10  21  38  60  87 117 150 192 241 293 348
#     4  11  22  39  58  81 114 153 194 236 286 345
#     4  11  24  41  59  81 114 156 197 239 289 348
#     4  10  20  35  58  87 115 146 189 238 286 339
#
# _framework density 20.358644999999999
#
# number of rings (size 3 to 8) (size 9 to 14) (size 15 to 20)
#    0.000    1.833    0.000    5.000    0.000    7.000 
#    0.000    7.500    0.000    1.000    0.000    0.000 
#    0.000    0.000    0.000    0.000    0.000    0.000 
#
# Total GULP energy -595323.969920 kJ/mol
# GULP energy per Si atom -12402.582707 kJ/mol
# Density = 2.031231 g / cm^3
# Si number density = 20.358645 Si / 1000 Ang^3
#
#
#
# Elastic Constant Matrix: (Units=GPa)
#
#
# Indices 1 2 3 4 5 6 
#
# 1 30.6471 41.7330 27.8200 0.0000 0.0000 0.0000
# 2 41.7330 152.3240 51.2223 0.0000 0.0000 0.0000
# 3 27.8200 51.2223 149.9545 0.0000 0.0000 0.0000
# 4 0.0000 0.0000 0.0000 38.6893 0.0000 0.0000
# 5 0.0000 0.0000 0.0000 0.0000 21.4365 0.0000
# 6 0.0000 0.0000 0.0000 0.0000 0.0000 28.8772
#
#
#
# Elastic Compliance Matrix: (Units=1/GPa)
#
#
# Indices 1 2 3 4 5 6 
#
# 1 0.056239 -0.013444 -0.005841 0.000000 0.000000 0.000000
# 2 -0.013444 0.010631 -0.001137 0.000000 0.000000 0.000000
# 3 -0.005841 -0.001137 0.008141 0.000000 0.000000 0.000000
# 4 0.000000 0.000000 0.000000 0.025847 0.000000 0.000000
# 5 0.000000 0.000000 0.000000 0.000000 0.046649 0.000000
# 6 0.000000 0.000000 0.000000 0.000000 0.000000 0.034629
#
#
# Mechanical properties :
#
#
# Convention : Reuss Voigt Hill
#
# Bulk Modulus (GPa) = 29.26909 63.83068 46.54989
# Shear Modulus (GPa) = 21.33385 31.94396 26.63890
#
# Velocity S-wave (km/s) = 3.24064 3.96543 3.62122
# Velocity P-wave (km/s) = 5.33013 7.23791 6.35601
#
# Compressibility (1/GPa) = 0.03416573
#
# Stress axis : x y z
#
# Youngs Moduli (GPa) = 17.78127 94.06803 122.83756
#
# Poissons Ratio (x) = 1.26463 0.71754
# Poissons Ratio (y) = 0.23905 0.13968
# Poissons Ratio (z) = 0.10387 0.10697
#
# Static dielectric constant tensor:
#      x y z
#    x 3.261920 0.000000 0.000000 
#    y 0.000000 3.954840 0.000000 
#    z 0.000000 0.000000 3.961100 
# 
# 
# High freq. dielectric constant tensor:
#      x y z
#    x 1.755900 0.000000 0.000000 
#    y 0.000000 1.810570 0.000000 
#    z 0.000000 0.000000 1.815690 
# 
# From -- ./inp_files/11496.got.cif
#   From: 2010.03.12/outbox.cif.g09.slc.cpg/sg67_6_cif.got.tgz:11496.got - 2010.04.10 22:41:39.
