data_PCOD8280261
_publ_section_title
;
Structure prediction by ZEFSAII (Michael W. Deem and Ramdas Pophale) SiO2 
 PCOD8280261
Probable space group: C M M A
;
_chemical_formula_sum "Si O2"
_cell_formula_units_Z 112
_cell_length_a 15.715250
_cell_length_b 14.761390
_cell_length_c 22.800161
_cell_angle_alpha 90.000000
_cell_angle_beta 90.000000
_cell_angle_gamma 90.000000
_cell_volume 5289.157048
_symmetry_space_group_name_H-M "C M M A"
_symmetry_group_IT_number 67
_symmetry_cell_setting 'orthorhombic'
loop_
_space_group_symop_operation_xyz
x,y,z
-x,1/2-y,z
x,-y,-z
-x,1/2+y,-z
-x,-y,-z
x,1/2+y,-z
-x,y,z
x,1/2-y,z
1/2+x,1/2+y,z
1/2-x,-y,z
1/2+x,1/2-y,-z
1/2-x,y,-z
1/2-x,1/2-y,-z
1/2+x,y,-z
1/2-x,1/2+y,z
1/2+x,-y,z
loop_
_atom_site_type_symbol
_atom_site_label
_atom_site_fract_x
_atom_site_fract_y
_atom_site_fract_z
Si Si1 0.851002 0.848655 0.841051
Si Si2 0.271524 0.642519 0.629036
Si Si3 0.700841 0.853445 0.760444
Si Si4 0.906984 0.849332 0.591554
Si Si5 0.905168 0.044220 0.855681
Si Si6 0.210436 0.148499 0.939634
Si Si7 0.594159 0.095414 0.468383
O O1 0.899350 0.750000 0.839350
O O2 0.798895 0.862098 0.780667
O O3 0.784415 0.845654 0.893097
O O4 0.911401 0.934613 0.851862
O O5 0.267119 0.750000 0.621313
O O6 0.304380 0.614981 0.693203
O O7 0.175921 0.600692 0.619382
O O8 0.336367 0.603050 0.581992
O O9 0.669100 0.750000 0.768543
O O10 0.641433 0.918707 0.798222
O O11 0.913198 0.750000 0.620025
O O12 0.891968 0.834787 0.521712
O O13 0.000000 0.899091 0.602695
O O14 0.859928 0.078121 0.915511
O O15 0.000000 0.082887 0.856821
O O16 0.171367 0.250000 0.948791
O O17 0.250000 0.110799 0.000000
O O18 0.500000 0.108309 0.440325
O O19 0.603761 0.000000 0.500000
#
# Coordination Sequence:
#
# PCOD8280261 Si02
#       7
#    16  16  16  16  16  16  16
#     4   9  19  38  59  79 114 162 205 245 292 350
#     4  10  20  35  59  85 107 143 193 239 296 366
#     4   9  19  37  60  86 114 149 199 252 301 365
#     4   9  18  34  54  76 105 139 177 225 281 347
#     4  11  22  36  58  90 125 159 196 252 317 363
#     4   9  18  35  61  89 119 161 206 244 287 348
#     4  10  21  36  50  74 112 147 184 233 288 348
#
# _framework density 21.175395999999999
#
# number of rings (size 3 to 8) (size 9 to 14) (size 15 to 20)
#    0.000    2.429    0.000    3.857    0.000    6.286 
#    5.143    3.571    0.000    5.143    0.000    0.000 
#    0.000    0.000    0.000    0.000    0.000    0.000 
#
# Total GULP energy -693801.036830 kJ/mol
# GULP energy per Si atom -12389.304229 kJ/mol
# Density = 2.112720 g / cm^3
# Si number density = 21.175396 Si / 1000 Ang^3
#
#
#
# Elastic Constant Matrix: (Units=GPa)
#
#
# Indices 1 2 3 4 5 6 
#
# 1 133.0853 34.7211 56.0207 0.0000 0.0000 0.0000
# 2 34.7211 95.7059 28.5507 0.0000 0.0000 0.0000
# 3 56.0207 28.5507 108.9017 0.0000 0.0000 0.0000
# 4 0.0000 0.0000 0.0000 17.4536 0.0000 0.0000
# 5 0.0000 0.0000 0.0000 0.0000 12.6024 0.0000
# 6 0.0000 0.0000 0.0000 0.0000 0.0000 14.9244
#
#
#
# Elastic Compliance Matrix: (Units=1/GPa)
#
#
# Indices 1 2 3 4 5 6 
#
# 1 0.010028 -0.002277 -0.004562 0.000000 0.000000 0.000000
# 2 -0.002277 0.011852 -0.001936 0.000000 0.000000 0.000000
# 3 -0.004562 -0.001936 0.012037 0.000000 0.000000 0.000000
# 4 0.000000 0.000000 0.000000 0.057295 0.000000 0.000000
# 5 0.000000 0.000000 0.000000 0.000000 0.079350 0.000000
# 6 0.000000 0.000000 0.000000 0.000000 0.000000 0.067004
#
#
# Mechanical properties :
#
#
# Convention : Reuss Voigt Hill
#
# Bulk Modulus (GPa) = 61.09594 64.03088 62.56341
# Shear Modulus (GPa) = 19.18853 23.55610 21.37231
#
# Velocity S-wave (km/s) = 3.01353 3.33893 3.18039
# Velocity P-wave (km/s) = 6.40496 6.72076 6.56476
#
# Compressibility (1/GPa) = 0.01636770
#
# Stress axis : x y z
#
# Youngs Moduli (GPa) = 99.71778 84.37132 83.07931
#
# Poissons Ratio (x) = 0.19214 0.37898
# Poissons Ratio (y) = 0.22709 0.16083
# Poissons Ratio (z) = 0.45488 0.16333
#
# Static dielectric constant tensor:
#      x y z
#    x 3.785830 0.000000 0.000000 
#    y 0.000000 4.122170 0.000000 
#    z 0.000000 0.000000 3.993170 
# 
# 
# High freq. dielectric constant tensor:
#      x y z
#    x 1.808440 0.000000 0.000000 
#    y 0.000000 1.836830 0.000000 
#    z 0.000000 0.000000 1.817740 
# 
# From -- ./inp_files/41999.got.cif
#   From: 2010.03.12/outbox.cif.g09.slc.cpg/sg67_21_cif.got.tgz:41999.got - 2010.04.10 22:41:39.
