data_PCOD8280078
_publ_section_title
;
Structure prediction by ZEFSAII (Michael W. Deem and Ramdas Pophale) SiO2 
 PCOD8280078
Probable space group: C M M A
;
_chemical_formula_sum "Si O2"
_cell_formula_units_Z 72
_cell_length_a 32.110801
_cell_length_b 8.627736
_cell_length_c 13.496755
_cell_angle_alpha 90.000000
_cell_angle_beta 90.000000
_cell_angle_gamma 90.000000
_cell_volume 3739.188430
_symmetry_space_group_name_H-M "C M M A"
_symmetry_group_IT_number 67
_symmetry_cell_setting 'orthorhombic'
loop_
_space_group_symop_operation_xyz
x,y,z
-x,1/2-y,z
x,-y,-z
-x,1/2+y,-z
-x,-y,-z
x,1/2+y,-z
-x,y,z
x,1/2-y,z
1/2+x,1/2+y,z
1/2-x,-y,z
1/2+x,1/2-y,-z
1/2-x,y,-z
1/2-x,1/2-y,-z
1/2+x,y,-z
1/2-x,1/2+y,z
1/2+x,-y,z
loop_
_atom_site_type_symbol
_atom_site_label
_atom_site_fract_x
_atom_site_fract_y
_atom_site_fract_z
Si Si1 0.917535 0.566173 0.702770
Si Si2 0.293555 0.069295 0.200499
Si Si3 0.000000 0.933665 0.390302
Si Si4 0.338016 0.433389 0.396866
Si Si5 0.121838 0.934336 0.105691
O O1 0.920809 0.750000 0.700979
O O2 0.960296 0.491747 0.669144
O O3 0.881994 0.512002 0.626916
O O4 0.908718 0.507565 0.813585
O O5 0.288813 0.250000 0.191880
O O6 0.304388 0.020498 0.313191
O O7 0.330752 0.012127 0.129001
O O8 0.250000 0.000000 0.165096
O O9 0.000000 0.750000 0.396238
O O10 0.000000 0.000000 0.500000
O O11 0.320763 0.500000 0.500000
O O12 0.344655 0.250000 0.401496
O O13 0.117543 0.750000 0.109668
O O14 0.108271 0.000000 0.000000
#
# Coordination Sequence:
#
# PCOD8280078 Si02
#       5
#    16  16   8  16  16
#     4  11  22  38  59  85 114 147 185 229 276 328
#     4   9  20  35  52  76 109 143 184 232 279 329
#     4  12  24  40  61  88 121 154 186 226 270 322
#     4  10  20  35  53  77 108 147 188 229 277 334
#     4  10  21  39  60  84 111 146 186 229 279 333
#
# _framework density 19.255514999999999
#
# number of rings (size 3 to 8) (size 9 to 14) (size 15 to 20)
#    0.000    1.778    0.000    6.333    0.000    6.222 
#    0.000    5.000    0.000    0.000    0.000    0.000 
#    0.000    0.000    0.000    0.000    0.000    0.000 
#
# Total GULP energy -446488.616386 kJ/mol
# GULP energy per Si atom -12402.461566 kJ/mol
# Density = 1.921169 g / cm^3
# Si number density = 19.255515 Si / 1000 Ang^3
#
#
#
# Elastic Constant Matrix: (Units=GPa)
#
#
# Indices 1 2 3 4 5 6 
#
# 1 108.9012 37.8998 27.2565 0.0000 0.0000 0.0000
# 2 37.8998 119.9475 34.5115 0.0000 0.0000 0.0000
# 3 27.2565 34.5115 107.6576 0.0000 0.0000 0.0000
# 4 0.0000 0.0000 0.0000 34.4402 0.0000 0.0000
# 5 0.0000 0.0000 0.0000 0.0000 17.0784 0.0000
# 6 0.0000 0.0000 0.0000 0.0000 0.0000 32.4385
#
#
#
# Elastic Compliance Matrix: (Units=1/GPa)
#
#
# Indices 1 2 3 4 5 6 
#
# 1 0.010617 -0.002843 -0.001776 0.000000 0.000000 0.000000
# 2 -0.002843 0.009946 -0.002468 0.000000 0.000000 0.000000
# 3 -0.001776 -0.002468 0.010530 0.000000 0.000000 0.000000
# 4 0.000000 0.000000 0.000000 0.029036 0.000000 0.000000
# 5 0.000000 0.000000 0.000000 0.000000 0.058553 0.000000
# 6 0.000000 0.000000 0.000000 0.000000 0.000000 0.030828
#
#
# Mechanical properties :
#
#
# Convention : Reuss Voigt Hill
#
# Bulk Modulus (GPa) = 59.11662 59.53798 59.32730
# Shear Modulus (GPa) = 29.52917 32.58066 31.05492
#
# Velocity S-wave (km/s) = 3.92030 4.11788 4.02030
# Velocity P-wave (km/s) = 7.15957 7.32095 7.24071
#
# Compressibility (1/GPa) = 0.01691572
#
# Stress axis : x y z
#
# Youngs Moduli (GPa) = 94.18996 100.54667 94.96922
#
# Poissons Ratio (x) = 0.28590 0.16870
# Poissons Ratio (y) = 0.26783 0.23442
# Poissons Ratio (z) = 0.16732 0.24818
#
# Static dielectric constant tensor:
#      x y z
#    x 3.551730 0.000000 0.000000 
#    y 0.000000 3.580180 0.000000 
#    z 0.000000 0.000000 3.476440 
# 
# 
# High freq. dielectric constant tensor:
#      x y z
#    x 1.741760 0.000000 0.000000 
#    y 0.000000 1.762460 0.000000 
#    z 0.000000 0.000000 1.755090 
# 
# From -- ./inp_files/25326.got.cif
#   From: 2010.03.12/outbox.cif.g09.slc.cpg/sg67_13_cif.got.tgz:25326.got - 2010.04.10 22:41:39.
