data_PCOD8280247
_publ_section_title
;
Structure prediction by ZEFSAII (Michael W. Deem and Ramdas Pophale) SiO2 
 PCOD8280247
Probable space group: C M M A
;
_chemical_formula_sum "Si O2"
_cell_formula_units_Z 72
_cell_length_a 8.777101
_cell_length_b 16.420256
_cell_length_c 24.752212
_cell_angle_alpha 90.000000
_cell_angle_beta 90.000000
_cell_angle_gamma 90.000000
_cell_volume 3567.344371
_symmetry_space_group_name_H-M "C M M A"
_symmetry_group_IT_number 67
_symmetry_cell_setting 'orthorhombic'
loop_
_space_group_symop_operation_xyz
x,y,z
-x,1/2-y,z
x,-y,-z
-x,1/2+y,-z
-x,-y,-z
x,1/2+y,-z
-x,y,z
x,1/2-y,z
1/2+x,1/2+y,z
1/2-x,-y,z
1/2+x,1/2-y,-z
1/2-x,y,-z
1/2-x,1/2-y,-z
1/2+x,y,-z
1/2-x,1/2+y,z
1/2+x,-y,z
loop_
_atom_site_type_symbol
_atom_site_label
_atom_site_fract_x
_atom_site_fract_y
_atom_site_fract_z
Si Si1 0.680939 0.588618 0.376351
Si Si2 0.180306 0.750000 0.558748
Si Si3 0.665421 0.843072 0.848275
Si Si4 0.179403 0.084310 0.737444
Si Si5 0.677204 0.087677 0.947779
O O1 0.500000 0.579013 0.377347
O O2 0.750000 0.500000 0.394502
O O3 0.734946 0.665452 0.412819
O O4 0.736674 0.613152 0.316733
O O5 0.250000 0.750000 0.500000
O O6 0.000000 0.750000 0.555538
O O7 0.500000 0.887341 0.857244
O O8 0.640772 0.750000 0.858955
O O9 0.717852 0.854844 0.786353
O O10 0.791521 0.871167 0.890492
O O11 0.000000 0.076846 0.725324
O O12 0.250000 0.000000 0.757112
O O13 0.500000 0.082622 0.957633
O O14 0.750000 0.000000 0.945074
O O15 0.750000 0.134415 0.000000
#
# Coordination Sequence:
#
# PCOD8280247 Si02
#       5
#    16   8  16  16  16
#     4  10  21  39  61  89 122 159 202 250 300 355
#     4  10  24  42  62  90 124 162 203 248 299 352
#     4  10  22  38  55  81 116 149 186 233 284 342
#     4  10  20  35  58  85 114 151 191 235 287 341
#     4  11  22  38  60  82 106 142 187 234 286 343
#
# _framework density 20.183081999999999
#
# number of rings (size 3 to 8) (size 9 to 14) (size 15 to 20)
#    0.000    1.778    0.000    6.000    1.556    6.667 
#    0.000    2.222    0.000    0.000    0.000    0.000 
#    0.000    0.000    0.000    0.000    0.000    0.000 
#
# Total GULP energy -446127.945800 kJ/mol
# GULP energy per Si atom -12392.442939 kJ/mol
# Density = 2.013714 g / cm^3
# Si number density = 20.183082 Si / 1000 Ang^3
#
#
#
# Elastic Constant Matrix: (Units=GPa)
#
#
# Indices 1 2 3 4 5 6 
#
# 1 115.8032 44.5703 54.6790 0.0000 0.0000 0.0000
# 2 44.5703 102.1412 67.1400 0.0000 0.0000 0.0000
# 3 54.6790 67.1400 137.5204 0.0000 0.0000 0.0000
# 4 0.0000 0.0000 0.0000 27.1262 0.0000 0.0000
# 5 0.0000 0.0000 0.0000 0.0000 37.4956 0.0000
# 6 0.0000 0.0000 0.0000 0.0000 0.0000 18.8530
#
#
#
# Elastic Compliance Matrix: (Units=1/GPa)
#
#
# Indices 1 2 3 4 5 6 
#
# 1 0.011179 -0.002881 -0.003038 0.000000 0.000000 0.000000
# 2 -0.002881 0.015159 -0.006256 0.000000 0.000000 0.000000
# 3 -0.003038 -0.006256 0.011534 0.000000 0.000000 0.000000
# 4 0.000000 0.000000 0.000000 0.036865 0.000000 0.000000
# 5 0.000000 0.000000 0.000000 0.000000 0.026670 0.000000
# 6 0.000000 0.000000 0.000000 0.000000 0.000000 0.053042
#
#
# Mechanical properties :
#
#
# Convention : Reuss Voigt Hill
#
# Bulk Modulus (GPa) = 73.95110 76.47149 75.21130
# Shear Modulus (GPa) = 27.27687 29.29999 28.28843
#
# Velocity S-wave (km/s) = 3.68023 3.81427 3.74784
# Velocity P-wave (km/s) = 7.40125 7.57425 7.48825
#
# Compressibility (1/GPa) = 0.01352245
#
# Stress axis : x y z
#
# Youngs Moduli (GPa) = 89.45599 65.96534 86.70147
#
# Poissons Ratio (x) = 0.19003 0.26342
# Poissons Ratio (y) = 0.25771 0.54238
# Poissons Ratio (z) = 0.27179 0.41266
#
# Static dielectric constant tensor:
#      x y z
#    x 3.674090 0.000000 0.000000 
#    y 0.000000 3.634340 0.000000 
#    z 0.000000 0.000000 3.801880 
# 
# 
# High freq. dielectric constant tensor:
#      x y z
#    x 1.794960 0.000000 0.000000 
#    y 0.000000 1.780120 0.000000 
#    z 0.000000 0.000000 1.796420 
# 
# From -- ./inp_files/40515.got.cif
#   From: 2010.03.12/outbox.cif.g09.slc.cpg/sg67_21_cif.got.tgz:40515.got - 2010.04.10 22:41:39.
