data_PCOD8280185
_publ_section_title
;
Structure prediction by ZEFSAII (Michael W. Deem and Ramdas Pophale) SiO2 
 PCOD8280185
Probable space group: C M M A
;
_chemical_formula_sum "Si O2"
_cell_formula_units_Z 64
_cell_length_a 17.808249
_cell_length_b 8.782561
_cell_length_c 20.630647
_cell_angle_alpha 90.000000
_cell_angle_beta 90.000000
_cell_angle_gamma 90.000000
_cell_volume 3226.675136
_symmetry_space_group_name_H-M "C M M A"
_symmetry_group_IT_number 67
_symmetry_cell_setting 'orthorhombic'
loop_
_space_group_symop_operation_xyz
x,y,z
-x,1/2-y,z
x,-y,-z
-x,1/2+y,-z
-x,-y,-z
x,1/2+y,-z
-x,y,z
x,1/2-y,z
1/2+x,1/2+y,z
1/2-x,-y,z
1/2+x,1/2-y,-z
1/2-x,y,-z
1/2-x,1/2-y,-z
1/2+x,y,-z
1/2-x,1/2+y,z
1/2+x,-y,z
loop_
_atom_site_type_symbol
_atom_site_label
_atom_site_fract_x
_atom_site_fract_y
_atom_site_fract_z
Si Si1 0.410915 0.921870 0.934887
Si Si2 0.412666 0.428086 0.302907
Si Si3 0.910825 0.578986 0.564346
Si Si4 0.169207 0.070388 0.183250
O O1 0.500000 0.920550 0.935853
O O2 0.379318 0.750000 0.930566
O O3 0.385893 0.017947 0.873338
O O4 0.379062 0.000000 0.000000
O O5 0.500000 0.467309 0.291793
O O6 0.397361 0.250000 0.295259
O O7 0.385605 0.481046 0.373709
O O8 0.363445 0.518056 0.251601
O O9 0.877237 0.500000 0.500000
O O10 0.878651 0.750000 0.570107
O O11 0.000000 0.583419 0.559573
O O12 0.175835 0.250000 0.182971
O O13 0.250000 0.000000 0.170703
#
# Coordination Sequence:
#
# PCOD8280185 Si02
#       4
#    16  16  16  16
#     4  10  21  39  63  90 118 147 182 225 273 326
#     4  10  20  35  56  82 112 146 185 230 279 331
#     4   9  16  27  46  75 109 143 181 227 278 328
#     4  12  25  40  58  81 112 149 189 231 277 329
#
# _framework density 19.834658999999998
#
# number of rings (size 3 to 8) (size 9 to 14) (size 15 to 20)
#    0.000    1.750    0.000    5.250    0.000    9.500 
#    0.000    2.500    0.000    0.750    0.000    5.250 
#    0.000    0.000    0.000    0.000    0.000    0.000 
#
# Total GULP energy -396922.178856 kJ/mol
# GULP energy per Si atom -12403.818089 kJ/mol
# Density = 1.978951 g / cm^3
# Si number density = 19.834659 Si / 1000 Ang^3
#
#
#
# Elastic Constant Matrix: (Units=GPa)
#
#
# Indices 1 2 3 4 5 6 
#
# 1 17.0305 19.9046 10.6039 0.0000 0.0000 0.0000
# 2 19.9046 153.5162 44.1224 0.0000 0.0000 0.0000
# 3 10.6039 44.1224 129.7213 0.0000 0.0000 0.0000
# 4 0.0000 0.0000 0.0000 42.1704 0.0000 0.0000
# 5 0.0000 0.0000 0.0000 0.0000 8.3421 0.0000
# 6 0.0000 0.0000 0.0000 0.0000 0.0000 25.5197
#
#
#
# Elastic Compliance Matrix: (Units=1/GPa)
#
#
# Indices 1 2 3 4 5 6 
#
# 1 0.070195 -0.008260 -0.002929 0.000000 0.000000 0.000000
# 2 -0.008260 0.008192 -0.002111 0.000000 0.000000 0.000000
# 3 -0.002929 -0.002111 0.008666 0.000000 0.000000 0.000000
# 4 0.000000 0.000000 0.000000 0.023713 0.000000 0.000000
# 5 0.000000 0.000000 0.000000 0.000000 0.119874 0.000000
# 6 0.000000 0.000000 0.000000 0.000000 0.000000 0.039185
#
#
# Mechanical properties :
#
#
# Convention : Reuss Voigt Hill
#
# Bulk Modulus (GPa) = 16.54141 49.94777 33.24459
# Shear Modulus (GPa) = 15.79402 30.24893 23.02148
#
# Velocity S-wave (km/s) = 2.82491 3.90943 3.41056
# Velocity P-wave (km/s) = 4.35866 6.75388 5.68387
#
# Compressibility (1/GPa) = 0.06045433
#
# Stress axis : x y z
#
# Youngs Moduli (GPa) = 14.24601 122.07565 115.38988
#
# Poissons Ratio (x) = 1.00830 0.33794
# Poissons Ratio (y) = 0.11767 0.24360
# Poissons Ratio (z) = 0.04172 0.25771
#
# Static dielectric constant tensor:
#      x y z
#    x 3.284890 0.000000 0.000000 
#    y 0.000000 3.931390 0.000000 
#    z 0.000000 0.000000 3.816020 
# 
# 
# High freq. dielectric constant tensor:
#      x y z
#    x 1.733870 0.000000 0.000000 
#    y 0.000000 1.794360 0.000000 
#    z 0.000000 0.000000 1.792930 
# 
# From -- ./inp_files/31747.got.cif
#   From: 2010.03.12/outbox.cif.g09.slc.cpg/sg67_16_cif.got.tgz:31747.got - 2010.04.10 22:41:39.
