data_PCOD8280874
_publ_section_title
;
Structure prediction by ZEFSAII (Michael W. Deem and Ramdas Pophale) SiO2 
 PCOD8280874
Probable space group: C M M A
;
_chemical_formula_sum "Si O2"
_cell_formula_units_Z 112
_cell_length_a 16.480893
_cell_length_b 28.191684
_cell_length_c 11.502296
_cell_angle_alpha 90.000000
_cell_angle_beta 90.000000
_cell_angle_gamma 90.000000
_cell_volume 5344.244243
_symmetry_space_group_name_H-M "C M M A"
_symmetry_group_IT_number 67
_symmetry_cell_setting 'orthorhombic'
loop_
_space_group_symop_operation_xyz
x,y,z
-x,1/2-y,z
x,-y,-z
-x,1/2+y,-z
-x,-y,-z
x,1/2+y,-z
-x,y,z
x,1/2-y,z
1/2+x,1/2+y,z
1/2-x,-y,z
1/2+x,1/2-y,-z
1/2-x,y,-z
1/2-x,1/2-y,-z
1/2+x,y,-z
1/2-x,1/2+y,z
1/2+x,-y,z
loop_
_atom_site_type_symbol
_atom_site_label
_atom_site_fract_x
_atom_site_fract_y
_atom_site_fract_z
Si Si1 0.594364 0.606785 0.954910
Si Si2 0.660687 0.518599 0.822358
Si Si3 0.334053 0.887254 0.440766
Si Si4 0.591763 0.418661 0.791907
Si Si5 0.908465 0.959717 0.411921
Si Si6 0.596420 0.197216 0.186852
Si Si7 0.907064 0.695787 0.450384
O O1 0.500000 0.600547 0.922354
O O2 0.640227 0.559004 0.916006
O O3 0.629981 0.654723 0.895084
O O4 0.607352 0.612791 0.093097
O O5 0.750000 0.500000 0.848393
O O6 0.600162 0.473827 0.826446
O O7 0.652960 0.542190 0.695769
O O8 0.250000 0.903457 0.500000
O O9 0.343036 0.903120 0.306261
O O10 0.404936 0.910810 0.518148
O O11 0.349879 0.831413 0.457151
O O12 0.500000 0.410492 0.746022
O O13 0.000000 0.968855 0.367929
O O14 0.878388 0.000000 0.500000
O O15 0.500000 0.198606 0.180838
O O16 0.628721 0.250000 0.149105
O O17 0.623690 0.186129 0.318740
O O18 0.896510 0.750000 0.483917
O O19 0.000000 0.680014 0.463949
#
# Coordination Sequence:
#
# PCOD8280874 Si02
#       7
#    16  16  16  16  16  16  16
#     4  10  21  37  60  87 117 161 207 245 294 358
#     4  12  24  38  58  86 121 158 200 250 302 357
#     4  12  24  38  58  86 120 156 194 248 311 367
#     4  11  23  40  58  81 119 163 203 243 292 360
#     4  11  22  37  60  83 111 154 198 242 293 354
#     4   8  15  32  59  89 115 140 186 250 299 339
#     4   9  18  35  61  88 114 151 200 249 299 360
#
# _framework density 20.957127
#
# number of rings (size 3 to 8) (size 9 to 14) (size 15 to 20)
#    0.000    1.571    1.429    5.571    0.000    3.714 
#    0.000    0.714    0.000    2.571    0.000    4.000 
#    0.000    0.000    0.000    0.000    0.000    0.286 
#
# Total GULP energy -694264.893519 kJ/mol
# GULP energy per Si atom -12397.587384 kJ/mol
# Density = 2.090943 g / cm^3
# Si number density = 20.957127 Si / 1000 Ang^3
#
#
#
# Elastic Constant Matrix: (Units=GPa)
#
#
# Indices 1 2 3 4 5 6 
#
# 1 70.2319 30.2767 40.4658 0.0000 0.0000 0.0000
# 2 30.2767 121.7781 56.6719 0.0000 0.0000 0.0000
# 3 40.4658 56.6719 109.3493 0.0000 0.0000 0.0000
# 4 0.0000 0.0000 0.0000 30.2097 0.0000 0.0000
# 5 0.0000 0.0000 0.0000 0.0000 20.3652 0.0000
# 6 0.0000 0.0000 0.0000 0.0000 0.0000 21.9148
#
#
#
# Elastic Compliance Matrix: (Units=1/GPa)
#
#
# Indices 1 2 3 4 5 6 
#
# 1 0.018409 -0.001854 -0.005852 0.000000 0.000000 0.000000
# 2 -0.001854 0.011008 -0.005019 0.000000 0.000000 0.000000
# 3 -0.005852 -0.005019 0.013912 0.000000 0.000000 0.000000
# 4 0.000000 0.000000 0.000000 0.033102 0.000000 0.000000
# 5 0.000000 0.000000 0.000000 0.000000 0.049103 0.000000
# 6 0.000000 0.000000 0.000000 0.000000 0.000000 0.045631
#
#
# Mechanical properties :
#
#
# Convention : Reuss Voigt Hill
#
# Bulk Modulus (GPa) = 55.92865 61.79868 58.86367
# Shear Modulus (GPa) = 24.68212 26.09426 25.38819
#
# Velocity S-wave (km/s) = 3.43555 3.53246 3.48434
# Velocity P-wave (km/s) = 6.51786 6.79631 6.65854
#
# Compressibility (1/GPa) = 0.01787992
#
# Stress axis : x y z
#
# Youngs Moduli (GPa) = 54.32018 90.84019 71.88109
#
# Poissons Ratio (x) = 0.16839 0.42064
# Poissons Ratio (y) = 0.10069 0.36079
# Poissons Ratio (z) = 0.31787 0.45595
#
# Static dielectric constant tensor:
#      x y z
#    x 3.470770 0.000000 0.000000 
#    y 0.000000 4.008650 0.000000 
#    z 0.000000 0.000000 3.777290 
# 
# 
# High freq. dielectric constant tensor:
#      x y z
#    x 1.795360 0.000000 0.000000 
#    y 0.000000 1.821650 0.000000 
#    z 0.000000 0.000000 1.816620 
# 
# From -- ./inp_files/18577.got.cif
#   From: 2010.03.12/outbox.cif.g09.slc.cpg/sg67_10_cif.got.tgz:18577.got - 2010.04.10 22:41:39.
