data_PCOD8280053
_publ_section_title
;
Structure prediction by ZEFSAII (Michael W. Deem and Ramdas Pophale) SiO2 
 PCOD8280053
Probable space group: C M M A
;
_chemical_formula_sum "Si O2"
_cell_formula_units_Z 64
_cell_length_a 10.514097
_cell_length_b 19.571502
_cell_length_c 16.088621
_cell_angle_alpha 90.000000
_cell_angle_beta 90.000000
_cell_angle_gamma 90.000000
_cell_volume 3310.662862
_symmetry_space_group_name_H-M "C M M A"
_symmetry_group_IT_number 67
_symmetry_cell_setting 'orthorhombic'
loop_
_space_group_symop_operation_xyz
x,y,z
-x,1/2-y,z
x,-y,-z
-x,1/2+y,-z
-x,-y,-z
x,1/2+y,-z
-x,y,z
x,1/2-y,z
1/2+x,1/2+y,z
1/2-x,-y,z
1/2+x,1/2-y,-z
1/2-x,y,-z
1/2-x,1/2-y,-z
1/2+x,y,-z
1/2-x,1/2+y,z
1/2+x,-y,z
loop_
_atom_site_type_symbol
_atom_site_label
_atom_site_fract_x
_atom_site_fract_y
_atom_site_fract_z
Si Si1 0.778303 0.671497 0.258422
Si Si2 0.000000 0.576479 0.970847
Si Si3 0.500000 0.827715 0.870242
Si Si4 0.139232 0.830461 0.442622
Si Si5 0.360526 0.944245 0.181893
O O1 0.730903 0.750000 0.257556
O O2 0.877690 0.656744 0.185225
O O3 0.839162 0.652638 0.346459
O O4 0.662460 0.620004 0.242690
O O5 0.126700 0.585319 0.912774
O O6 0.000000 0.500000 0.000000
O O7 0.000000 0.626984 0.047724
O O8 0.500000 0.750000 0.900797
O O9 0.138409 0.750000 0.457180
O O10 0.250000 0.863802 0.500000
O O11 0.000000 0.859962 0.468080
O O12 0.500000 0.976260 0.206130
O O13 0.250000 0.000000 0.190446
#
# Coordination Sequence:
#
# PCOD8280053 Si02
#       5
#    16   8   8  16  16
#     4  10  20  36  59  87 122 157 192 238 296 350
#     4  10  22  38  58  81 114 150 204 243 290 336
#     4  10  20  34  58  85 118 159 194 239 296 349
#     4   9  17  31  54  85 117 153 193 233 282 344
#     4  10  24  40  59  85 115 154 199 248 291 345
#
# _framework density 19.331475999999999
#
# number of rings (size 3 to 8) (size 9 to 14) (size 15 to 20)
#    0.750    1.500    1.250    1.500    1.750    6.000 
#    0.000    5.000    0.000    0.750    0.000    3.500 
#    0.000    0.000    0.000    0.000    0.000    0.000 
#
# Total GULP energy -396460.261068 kJ/mol
# GULP energy per Si atom -12389.383158 kJ/mol
# Density = 1.928748 g / cm^3
# Si number density = 19.331476 Si / 1000 Ang^3
#
#
#
# Elastic Constant Matrix: (Units=GPa)
#
#
# Indices 1 2 3 4 5 6 
#
# 1 154.0136 53.8978 68.1630 0.0000 0.0000 0.0000
# 2 53.8978 72.9840 52.7006 0.0000 0.0000 0.0000
# 3 68.1630 52.7006 91.6809 0.0000 0.0000 0.0000
# 4 0.0000 0.0000 0.0000 19.5215 0.0000 0.0000
# 5 0.0000 0.0000 0.0000 0.0000 25.5855 0.0000
# 6 0.0000 0.0000 0.0000 0.0000 0.0000 29.6644
#
#
#
# Elastic Compliance Matrix: (Units=1/GPa)
#
#
# Indices 1 2 3 4 5 6 
#
# 1 0.010177 -0.003508 -0.005550 0.000000 0.000000 0.000000
# 2 -0.003508 0.024634 -0.011552 0.000000 0.000000 0.000000
# 3 -0.005550 -0.011552 0.021674 0.000000 0.000000 0.000000
# 4 0.000000 0.000000 0.000000 0.051226 0.000000 0.000000
# 5 0.000000 0.000000 0.000000 0.000000 0.039085 0.000000
# 6 0.000000 0.000000 0.000000 0.000000 0.000000 0.033710
#
#
# Mechanical properties :
#
#
# Convention : Reuss Voigt Hill
#
# Bulk Modulus (GPa) = 65.50955 74.24461 69.87708
# Shear Modulus (GPa) = 22.04458 24.54874 23.29666
#
# Velocity S-wave (km/s) = 3.38057 3.56741 3.47524
# Velocity P-wave (km/s) = 7.01418 7.44701 7.23383
#
# Compressibility (1/GPa) = 0.01526495
#
# Stress axis : x y z
#
# Youngs Moduli (GPa) = 98.26293 40.59455 46.13845
#
# Poissons Ratio (x) = 0.14241 0.25605
# Poissons Ratio (y) = 0.34471 0.53299
# Poissons Ratio (z) = 0.54533 0.46895
#
# Static dielectric constant tensor:
#      x y z
#    x 3.637790 0.000000 0.000000 
#    y 0.000000 2.705960 0.000000 
#    z 0.000000 0.000000 3.661900 
# 
# 
# High freq. dielectric constant tensor:
#      x y z
#    x 1.755680 0.000000 0.000000 
#    y 0.000000 1.720760 0.000000 
#    z 0.000000 0.000000 1.749990 
# 
# From -- ./inp_files/31765.got.cif
#   From: 2010.03.12/outbox.cif.g09.slc.cpg/sg67_16_cif.got.tgz:31765.got - 2010.04.10 22:41:39.
