data_PCOD8280887
_publ_section_title
;
Structure prediction by ZEFSAII (Michael W. Deem and Ramdas Pophale) SiO2 
 PCOD8280887
Probable space group: C M M A
;
_chemical_formula_sum "Si O2"
_cell_formula_units_Z 96
_cell_length_a 9.026924
_cell_length_b 27.233292
_cell_length_c 23.940883
_cell_angle_alpha 90.000000
_cell_angle_beta 90.000000
_cell_angle_gamma 90.000000
_cell_volume 5885.455671
_symmetry_space_group_name_H-M "C M M A"
_symmetry_group_IT_number 67
_symmetry_cell_setting 'orthorhombic'
loop_
_space_group_symop_operation_xyz
x,y,z
-x,1/2-y,z
x,-y,-z
-x,1/2+y,-z
-x,-y,-z
x,1/2+y,-z
-x,y,z
x,1/2-y,z
1/2+x,1/2+y,z
1/2-x,-y,z
1/2+x,1/2-y,-z
1/2-x,y,-z
1/2-x,1/2-y,-z
1/2+x,y,-z
1/2-x,1/2+y,z
1/2+x,-y,z
loop_
_atom_site_type_symbol
_atom_site_label
_atom_site_fract_x
_atom_site_fract_y
_atom_site_fract_z
Si Si1 0.325575 0.806951 0.675936
Si Si2 0.328244 0.694480 0.874870
Si Si3 0.175233 0.948678 0.169655
Si Si4 0.837603 0.191875 0.552009
Si Si5 0.329315 0.102945 0.056320
Si Si6 0.823998 0.142984 0.223210
O O1 0.500000 0.818232 0.683211
O O2 0.295231 0.750000 0.689410
O O3 0.270425 0.820045 0.613071
O O4 0.226633 0.840492 0.715692
O O5 0.500000 0.684997 0.858391
O O6 0.301604 0.750000 0.895272
O O7 0.281812 0.657990 0.924949
O O8 0.229253 0.684121 0.820721
O O9 0.211690 0.934779 0.105565
O O10 0.246800 0.908735 0.210410
O O11 0.000000 0.950847 0.180187
O O12 0.250000 0.000000 0.184124
O O13 0.846607 0.250000 0.544881
O O14 0.750000 0.168145 0.500000
O O15 0.000000 0.168628 0.548842
O O16 0.500000 0.101206 0.041980
O O17 0.250000 0.086599 0.000000
O O18 0.000000 0.137400 0.220489
#
# Coordination Sequence:
#
# PCOD8280887 Si02
#       6
#    16  16  16  16  16  16
#     4   9  17  29  44  63  92 131 166 194 230 273
#     4   9  18  33  49  64  89 126 159 187 226 271
#     4  10  21  38  56  72  91 116 145 180 228 280
#     4   8  14  24  38  57  84 121 162 198 231 266
#     4   9  19  33  49  70  94 119 148 182 220 267
#     4  11  21  31  46  70  95 118 151 193 232 272
#
# _framework density 16.311396999999999
#
# number of rings (size 3 to 8) (size 9 to 14) (size 15 to 20)
#    0.000    2.667    0.000    4.500    0.000    7.333 
#    0.000    3.333    0.000    0.000    0.000    0.000 
#    0.000    0.667    0.000    7.000    0.000    4.167 
#
# Total GULP energy -595041.389233 kJ/mol
# GULP energy per Si atom -12396.695609 kJ/mol
# Density = 1.627427 g / cm^3
# Si number density = 16.311397 Si / 1000 Ang^3
#
#
#
# Elastic Constant Matrix: (Units=GPa)
#
#
# Indices 1 2 3 4 5 6 
#
# 1 85.0452 36.0171 51.3628 0.0000 0.0000 0.0000
# 2 36.0171 71.6898 28.0928 0.0000 0.0000 0.0000
# 3 51.3628 28.0928 109.0341 0.0000 0.0000 0.0000
# 4 0.0000 0.0000 0.0000 12.5934 0.0000 0.0000
# 5 0.0000 0.0000 0.0000 0.0000 30.1540 0.0000
# 6 0.0000 0.0000 0.0000 0.0000 0.0000 22.9941
#
#
#
# Elastic Compliance Matrix: (Units=1/GPa)
#
#
# Indices 1 2 3 4 5 6 
#
# 1 0.018941 -0.006696 -0.007197 0.000000 0.000000 0.000000
# 2 -0.006696 0.017882 -0.001453 0.000000 0.000000 0.000000
# 3 -0.007197 -0.001453 0.012936 0.000000 0.000000 0.000000
# 4 0.000000 0.000000 0.000000 0.079407 0.000000 0.000000
# 5 0.000000 0.000000 0.000000 0.000000 0.033163 0.000000
# 6 0.000000 0.000000 0.000000 0.000000 0.000000 0.043489
#
#
# Mechanical properties :
#
#
# Convention : Reuss Voigt Hill
#
# Bulk Modulus (GPa) = 52.44639 55.19050 53.81845
# Shear Modulus (GPa) = 20.58740 23.16807 21.87774
#
# Velocity S-wave (km/s) = 3.55653 3.77286 3.66629
# Velocity P-wave (km/s) = 7.00630 7.27243 7.14060
#
# Compressibility (1/GPa) = 0.01906709
#
# Stress axis : x y z
#
# Youngs Moduli (GPa) = 52.79577 55.92110 77.30132
#
# Poissons Ratio (x) = 0.37442 0.55637
# Poissons Ratio (y) = 0.35350 0.11234
# Poissons Ratio (z) = 0.37999 0.08127
#
# Static dielectric constant tensor:
#      x y z
#    x 3.137750 0.000000 0.000000 
#    y 0.000000 2.863160 0.000000 
#    z 0.000000 0.000000 3.111760 
# 
# 
# High freq. dielectric constant tensor:
#      x y z
#    x 1.628430 0.000000 0.000000 
#    y 0.000000 1.596100 0.000000 
#    z 0.000000 0.000000 1.623410 
# 
# From -- ./inp_files/40917.got.cif
#   From: 2010.03.12/outbox.cif.g09.slc.cpg/sg67_21_cif.got.tgz:40917.got - 2010.04.10 22:41:39.
