data_PCOD8280118
_publ_section_title
;
Structure prediction by ZEFSAII (Michael W. Deem and Ramdas Pophale) SiO2 
 PCOD8280118
Probable space group: C M M A
;
_chemical_formula_sum "Si O2"
_cell_formula_units_Z 96
_cell_length_a 9.288144
_cell_length_b 18.639363
_cell_length_c 30.362998
_cell_angle_alpha 90.000000
_cell_angle_beta 90.000000
_cell_angle_gamma 90.000000
_cell_volume 5256.596689
_symmetry_space_group_name_H-M "C M M A"
_symmetry_group_IT_number 67
_symmetry_cell_setting 'orthorhombic'
loop_
_space_group_symop_operation_xyz
x,y,z
-x,1/2-y,z
x,-y,-z
-x,1/2+y,-z
-x,-y,-z
x,1/2+y,-z
-x,y,z
x,1/2-y,z
1/2+x,1/2+y,z
1/2-x,-y,z
1/2+x,1/2-y,-z
1/2-x,y,-z
1/2-x,1/2-y,-z
1/2+x,y,-z
1/2-x,1/2+y,z
1/2+x,-y,z
loop_
_atom_site_type_symbol
_atom_site_label
_atom_site_fract_x
_atom_site_fract_y
_atom_site_fract_z
Si Si1 0.833453 0.070189 0.120853
Si Si2 0.831506 0.074584 0.626423
Si Si3 0.831401 0.832139 0.456343
Si Si4 0.666414 0.833462 0.711705
Si Si5 0.167795 0.167940 0.041816
Si Si6 0.669573 0.926758 0.221346
O O1 0.784199 0.132099 0.087557
O O2 0.797332 0.093218 0.170710
O O3 0.000000 0.052264 0.115978
O O4 0.750000 0.000000 0.106452
O O5 0.779520 0.117035 0.583170
O O6 0.792407 0.124189 0.667684
O O7 0.000000 0.058197 0.624358
O O8 0.750000 0.000000 0.630598
O O9 0.791623 0.750000 0.444497
O O10 0.750000 0.857985 0.500000
O O11 0.000000 0.840103 0.464942
O O12 0.500000 0.845934 0.724541
O O13 0.698584 0.750000 0.703615
O O14 0.767778 0.861202 0.750767
O O15 0.213470 0.250000 0.047031
O O16 0.000000 0.157938 0.032910
O O17 0.250000 0.133410 0.000000
O O18 0.500000 0.936270 0.230426
O O19 0.750000 0.000000 0.235058
#
# Coordination Sequence:
#
# PCOD8280118 Si02
#       6
#    16  16  16  16  16  16
#     4   9  19  34  52  74 101 133 166 204 250 300
#     4  10  21  36  54  76 104 138 173 210 255 306
#     4   9  18  34  55  77 102 134 171 210 253 301
#     4  10  21  37  56  78 105 137 173 214 260 309
#     4   9  18  33  51  71  97 130 167 206 249 296
#     4  10  20  35  55  78 105 137 172 211 257 308
#
# _framework density 18.262767
#
# number of rings (size 3 to 8) (size 9 to 14) (size 15 to 20)
#    0.000    2.500    0.000    1.500    0.000    7.667 
#    0.000    5.000    0.000    5.000    0.000    0.000 
#    0.000    0.000    0.000    0.000    0.000    0.000 
#
# Total GULP energy -595296.019268 kJ/mol
# GULP energy per Si atom -12402.000401 kJ/mol
# Density = 1.822120 g / cm^3
# Si number density = 18.262767 Si / 1000 Ang^3
#
#
#
# Elastic Constant Matrix: (Units=GPa)
#
#
# Indices 1 2 3 4 5 6 
#
# 1 58.5032 54.7444 58.5642 0.0000 0.0000 0.0000
# 2 54.7444 124.3978 83.8642 0.0000 0.0000 0.0000
# 3 58.5642 83.8642 136.3939 0.0000 0.0000 0.0000
# 4 0.0000 0.0000 0.0000 35.3533 0.0000 0.0000
# 5 0.0000 0.0000 0.0000 0.0000 32.3335 0.0000
# 6 0.0000 0.0000 0.0000 0.0000 0.0000 31.2410
#
#
#
# Elastic Compliance Matrix: (Units=1/GPa)
#
#
# Indices 1 2 3 4 5 6 
#
# 1 0.035041 -0.009014 -0.009503 0.000000 0.000000 0.000000
# 2 -0.009014 0.016049 -0.005998 0.000000 0.000000 0.000000
# 3 -0.009503 -0.005998 0.015100 0.000000 0.000000 0.000000
# 4 0.000000 0.000000 0.000000 0.028286 0.000000 0.000000
# 5 0.000000 0.000000 0.000000 0.000000 0.030928 0.000000
# 6 0.000000 0.000000 0.000000 0.000000 0.000000 0.032009
#
#
# Mechanical properties :
#
#
# Convention : Reuss Voigt Hill
#
# Bulk Modulus (GPa) = 58.27458 79.29339 68.78399
# Shear Modulus (GPa) = 23.56682 27.92704 25.74693
#
# Velocity S-wave (km/s) = 3.59615 3.91471 3.75881
# Velocity P-wave (km/s) = 7.01579 7.99660 7.52220
#
# Compressibility (1/GPa) = 0.01716014
#
# Stress axis : x y z
#
# Youngs Moduli (GPa) = 28.53786 62.30972 66.22522
#
# Poissons Ratio (x) = 0.56165 0.62937
# Poissons Ratio (y) = 0.25724 0.39719
# Poissons Ratio (z) = 0.27121 0.37371
#
# Static dielectric constant tensor:
#      x y z
#    x 3.325400 0.000000 0.000000 
#    y 0.000000 3.359100 0.000000 
#    z 0.000000 0.000000 3.577770 
# 
# 
# High freq. dielectric constant tensor:
#      x y z
#    x 1.703350 0.000000 0.000000 
#    y 0.000000 1.704740 0.000000 
#    z 0.000000 0.000000 1.719200 
# 
# From -- ./inp_files/43423.got.cif
#   From: 2010.03.12/outbox.cif.g09.slc.cpg/sg67_22_cif.got.tgz:43423.got - 2010.04.10 22:41:39.
