data_PCOD8280715
_publ_section_title
;
Structure prediction by ZEFSAII (Michael W. Deem and Ramdas Pophale) SiO2 
 PCOD8280715
Probable space group: C M M A
;
_chemical_formula_sum "Si O2"
_cell_formula_units_Z 96
_cell_length_a 18.038466
_cell_length_b 9.180628
_cell_length_c 30.806564
_cell_angle_alpha 90.000000
_cell_angle_beta 90.000000
_cell_angle_gamma 90.000000
_cell_volume 5101.703966
_symmetry_space_group_name_H-M "C M M A"
_symmetry_group_IT_number 67
_symmetry_cell_setting 'orthorhombic'
loop_
_space_group_symop_operation_xyz
x,y,z
-x,1/2-y,z
x,-y,-z
-x,1/2+y,-z
-x,-y,-z
x,1/2+y,-z
-x,y,z
x,1/2-y,z
1/2+x,1/2+y,z
1/2-x,-y,z
1/2+x,1/2-y,-z
1/2-x,y,-z
1/2-x,1/2-y,-z
1/2+x,y,-z
1/2-x,1/2+y,z
1/2+x,-y,z
loop_
_atom_site_type_symbol
_atom_site_label
_atom_site_fract_x
_atom_site_fract_y
_atom_site_fract_z
Si Si1 0.826736 0.420166 0.873045
Si Si2 0.585070 0.921141 0.956973
Si Si3 0.411699 0.414300 0.458461
Si Si4 0.913202 0.916835 0.213534
Si Si5 0.671936 0.921793 0.287312
Si Si6 0.414826 0.580683 0.373633
O O1 0.810751 0.250000 0.876350
O O2 0.750000 0.500000 0.865972
O O3 0.866655 0.477078 0.916534
O O4 0.879389 0.457342 0.832853
O O5 0.500000 0.964380 0.947940
O O6 0.593555 0.750000 0.963828
O O7 0.615264 0.000000 0.000000
O O8 0.379383 0.500000 0.500000
O O9 0.500000 0.416740 0.459927
O O10 0.381094 0.250000 0.459458
O O11 0.383801 0.491253 0.414596
O O12 0.894853 0.750000 0.226263
O O13 0.000000 0.943714 0.210268
O O14 0.880918 0.024794 0.249175
O O15 0.683319 0.750000 0.282815
O O16 0.634266 0.964322 0.332695
O O17 0.750000 0.000000 0.283544
O O18 0.500000 0.540031 0.363292
O O19 0.407503 0.750000 0.385069
#
# Coordination Sequence:
#
# PCOD8280715 Si02
#       6
#    16  16  16  16  16  16
#     4  10  21  36  54  78 109 143 177 216 264 317
#     4   9  18  34  55  77 103 137 178 222 266 313
#     4   9  16  26  44  72 104 136 171 213 260 309
#     4  10  21  38  60  83 107 138 177 220 267 320
#     4  11  23  38  56  79 109 143 178 219 268 319
#     4   9  18  33  52  74 102 136 174 216 262 312
#
# _framework density 18.817240999999999
#
# number of rings (size 3 to 8) (size 9 to 14) (size 15 to 20)
#    0.000    2.333    0.000    2.500    0.000    9.333 
#    0.000    3.333    0.000    3.500    0.000    3.500 
#    0.000    0.000    0.000    0.000    0.000    0.000 
#
# Total GULP energy -595349.918353 kJ/mol
# GULP energy per Si atom -12403.123299 kJ/mol
# Density = 1.877441 g / cm^3
# Si number density = 18.817241 Si / 1000 Ang^3
#
#
#
# Elastic Constant Matrix: (Units=GPa)
#
#
# Indices 1 2 3 4 5 6 
#
# 1 93.3859 42.4645 63.8248 0.0000 0.0000 0.0000
# 2 42.4645 79.6202 74.6527 0.0000 0.0000 0.0000
# 3 63.8248 74.6527 165.6631 0.0000 0.0000 0.0000
# 4 0.0000 0.0000 0.0000 38.2242 0.0000 0.0000
# 5 0.0000 0.0000 0.0000 0.0000 -29.1490 0.0000
# 6 0.0000 0.0000 0.0000 0.0000 0.0000 21.0563
#
#
#
# Elastic Compliance Matrix: (Units=1/GPa)
#
#
# Indices 1 2 3 4 5 6 
#
# 1 0.015453 -0.004605 -0.003878 0.000000 0.000000 0.000000
# 2 -0.004605 0.023121 -0.008645 0.000000 0.000000 0.000000
# 3 -0.003878 -0.008645 0.011426 0.000000 0.000000 0.000000
# 4 0.000000 0.000000 0.000000 0.026161 0.000000 0.000000
# 5 0.000000 0.000000 0.000000 0.000000 -0.034306 0.000000
# 6 0.000000 0.000000 0.000000 0.000000 0.000000 0.047492
#
#
# Mechanical properties :
#
#
# Convention : Reuss Voigt Hill
#
# Bulk Modulus (GPa) = 63.51819 77.83925 70.67872
# Shear Modulus (GPa) = 38.80419 16.54145 27.67282
#
# Velocity S-wave (km/s) = 4.54603 2.96811 3.83901
# Velocity P-wave (km/s) = 7.83478 7.29397 7.56920
#
# Compressibility (1/GPa) = 0.01574352
#
# Stress axis : x y z
#
# Youngs Moduli (GPa) = 64.71235 43.25004 87.51875
#
# Poissons Ratio (x) = 0.19918 0.33942
# Poissons Ratio (y) = 0.29803 0.75659
# Poissons Ratio (z) = 0.25097 0.37389
#
# Static dielectric constant tensor:
#      x y z
#    x 3.289360 0.000000 0.000000 
#    y 0.000000 3.456230 0.000000 
#    z 0.000000 0.000000 3.652100 
# 
# 
# High freq. dielectric constant tensor:
#      x y z
#    x 1.714250 0.000000 0.000000 
#    y 0.000000 1.729660 0.000000 
#    z 0.000000 0.000000 1.747090 
# 
# From -- ./inp_files/43469.got.cif
#   From: 2010.03.12/outbox.cif.g09.slc.cpg/sg67_22_cif.got.tgz:43469.got - 2010.04.10 22:41:39.
