data_PCOD8280411
_publ_section_title
;
Structure prediction by ZEFSAII (Michael W. Deem and Ramdas Pophale) SiO2 
 PCOD8280411
Probable space group: C M M A
;
_chemical_formula_sum "Si O2"
_cell_formula_units_Z 52
_cell_length_a 19.090613
_cell_length_b 19.606065
_cell_length_c 6.996412
_cell_angle_alpha 90.000000
_cell_angle_beta 90.000000
_cell_angle_gamma 90.000000
_cell_volume 2618.699637
_symmetry_space_group_name_H-M "C M M A"
_symmetry_group_IT_number 67
_symmetry_cell_setting 'orthorhombic'
loop_
_space_group_symop_operation_xyz
x,y,z
-x,1/2-y,z
x,-y,-z
-x,1/2+y,-z
-x,-y,-z
x,1/2+y,-z
-x,y,z
x,1/2-y,z
1/2+x,1/2+y,z
1/2-x,-y,z
1/2+x,1/2-y,-z
1/2-x,y,-z
1/2-x,1/2-y,-z
1/2+x,y,-z
1/2-x,1/2+y,z
1/2+x,-y,z
loop_
_atom_site_type_symbol
_atom_site_label
_atom_site_fract_x
_atom_site_fract_y
_atom_site_fract_z
Si Si1 0.418187 0.175055 0.478823
Si Si2 0.368407 0.559969 0.255084
Si Si3 0.418958 0.920776 0.849085
Si Si4 0.750000 0.000000 0.500000
O O1 0.500000 0.184450 0.461041
O O2 0.382967 0.250000 0.505331
O O3 0.403977 0.126430 0.656859
O O4 0.391732 0.141258 0.281262
O O5 0.412787 0.489874 0.278673
O O6 0.293938 0.548892 0.358324
O O7 0.365745 0.575734 0.027926
O O8 0.500000 0.912883 0.915483
#
# Coordination Sequence:
#
# PCOD8280411 Si02
#       4
#    16  16  16   4
#     4  10  20  36  60  90 123 152 186 242 304 355
#     4  11  21  38  57  86 117 153 202 238 288 338
#     4  10  20  36  62  90 115 147 193 254 304 343
#     4  12  24  38  60  84 114 168 198 244 272 340
#
# _framework density 19.857184
#
# number of rings (size 3 to 8) (size 9 to 14) (size 15 to 20)
#    0.000    1.538    3.077    3.692    0.000    6.154 
#    0.000    3.846    0.000    1.846    0.000    0.000 
#    0.000    0.000    0.000    0.000    0.000    0.000 
#
# Total GULP energy -322183.010220 kJ/mol
# GULP energy per Si atom -12391.654239 kJ/mol
# Density = 1.981199 g / cm^3
# Si number density = 19.857184 Si / 1000 Ang^3
#
#
#
# Elastic Constant Matrix: (Units=GPa)
#
#
# Indices 1 2 3 4 5 6 
#
# 1 39.6084 14.2314 44.2861 0.0000 0.0000 0.0000
# 2 14.2314 178.9199 82.1373 0.0000 0.0000 0.0000
# 3 44.2861 82.1373 128.0929 0.0000 0.0000 0.0000
# 4 0.0000 0.0000 0.0000 -2.9241 0.0000 0.0000
# 5 0.0000 0.0000 0.0000 0.0000 31.5662 0.0000
# 6 0.0000 0.0000 0.0000 0.0000 0.0000 10.6933
#
#
#
# Elastic Compliance Matrix: (Units=1/GPa)
#
#
# Indices 1 2 3 4 5 6 
#
# 1 0.044038 0.004941 -0.018394 0.000000 0.000000 0.000000
# 2 0.004941 0.008475 -0.007143 0.000000 0.000000 0.000000
# 3 -0.018394 -0.007143 0.018747 0.000000 0.000000 0.000000
# 4 0.000000 0.000000 0.000000 -0.341989 0.000000 0.000000
# 5 0.000000 0.000000 0.000000 0.000000 0.031679 0.000000
# 6 0.000000 0.000000 0.000000 0.000000 0.000000 0.093517
#
#
# Mechanical properties :
#
#
# Convention : Reuss Voigt Hill
#
# Bulk Modulus (GPa) = 33.25726 69.77009 51.51368
# Shear Modulus (GPa) = -53.01199 21.59816 -15.70691
#
# Velocity S-wave (km/s) = -5.17248 3.30157 -2.81551
# Velocity P-wave (km/s) = 4.34606 7.05309 3.92797
#
# Compressibility (1/GPa) = 0.03006862
#
# Stress axis : x y z
#
# Youngs Moduli (GPa) = 22.70758 117.99135 53.34296
#
# Poissons Ratio (x) = -0.58304 0.98120
# Poissons Ratio (y) = -0.11221 0.38103
# Poissons Ratio (z) = 0.41769 0.84281
#
# Static dielectric constant tensor:
#      x y z
#    x 3.310320 0.000000 0.000000 
#    y 0.000000 4.571920 0.000000 
#    z 0.000000 0.000000 3.695340 
# 
# 
# High freq. dielectric constant tensor:
#      x y z
#    x 1.732800 0.000000 0.000000 
#    y 0.000000 1.773250 0.000000 
#    z 0.000000 0.000000 1.787050 
# 
# From -- ./inp_files/8995.got.cif
#   From: 2010.03.12/outbox.cif.g09.slc.cpg/sg67_5_cif.got.tgz:8995.got - 2010.04.10 22:41:39.
