data_PCOD8280520
_publ_section_title
;
Structure prediction by ZEFSAII (Michael W. Deem and Ramdas Pophale) SiO2 
 PCOD8280520
Probable space group: C M M A
;
_chemical_formula_sum "Si O2"
_cell_formula_units_Z 112
_cell_length_a 17.456517
_cell_length_b 28.253132
_cell_length_c 10.949741
_cell_angle_alpha 90.000000
_cell_angle_beta 90.000000
_cell_angle_gamma 90.000000
_cell_volume 5400.426267
_symmetry_space_group_name_H-M "C M M A"
_symmetry_group_IT_number 67
_symmetry_cell_setting 'orthorhombic'
loop_
_space_group_symop_operation_xyz
x,y,z
-x,1/2-y,z
x,-y,-z
-x,1/2+y,-z
-x,-y,-z
x,1/2+y,-z
-x,y,z
x,1/2-y,z
1/2+x,1/2+y,z
1/2-x,-y,z
1/2+x,1/2-y,-z
1/2-x,y,-z
1/2-x,1/2-y,-z
1/2+x,y,-z
1/2-x,1/2+y,z
1/2+x,-y,z
loop_
_atom_site_type_symbol
_atom_site_label
_atom_site_fract_x
_atom_site_fract_y
_atom_site_fract_z
Si Si1 0.333986 0.520738 0.329626
Si Si2 0.293958 0.695966 0.873535
Si Si3 0.703912 0.805246 0.374571
Si Si4 0.415779 0.458081 0.906870
Si Si5 0.911498 0.884966 0.579433
Si Si6 0.909778 0.382913 0.900486
Si Si7 0.414835 0.070115 0.335831
O O1 0.250000 0.500000 0.352580
O O2 0.350833 0.526190 0.186500
O O3 0.355684 0.571762 0.383282
O O4 0.382887 0.478764 0.390695
O O5 0.317545 0.750000 0.857656
O O6 0.248884 0.680315 0.749753
O O7 0.372516 0.668242 0.891767
O O8 0.250000 0.687173 0.000000
O O9 0.680971 0.750000 0.370458
O O10 0.750000 0.816533 0.500000
O O11 0.625650 0.835884 0.375816
O O12 0.500000 0.449616 0.845241
O O13 0.425737 0.500000 0.000000
O O14 0.389573 0.409664 0.973657
O O15 0.911816 0.887075 0.432738
O O16 0.000000 0.888897 0.628167
O O17 0.873474 0.413406 0.788562
O O18 0.000000 0.375608 0.885179
O O19 0.500000 0.057401 0.297142
#
# Coordination Sequence:
#
# PCOD8280520 Si02
#       7
#    16  16  16  16  16  16  16
#     4  12  26  37  57  89 125 168 210 258 304 378
#     4  10  23  42  63  91 129 166 204 265 334 385
#     4  10  23  44  70  95 127 170 215 270 330 390
#     4  10  20  38  59  81 118 162 205 252 307 367
#     4  11  25  41  65  94 126 166 212 264 321 385
#     4  10  21  37  64  91 119 164 211 258 313 382
#     4  10  21  41  60  85 125 164 202 253 313 368
#
# _framework density 20.739103
#
# number of rings (size 3 to 8) (size 9 to 14) (size 15 to 20)
#    0.000    1.571    1.429    2.571    6.000    2.571 
#    0.000    0.000    0.000    7.714    0.000    0.000 
#    0.000    0.000    0.000    0.000    0.000    0.000 
#
# Total GULP energy -693823.304352 kJ/mol
# GULP energy per Si atom -12389.701863 kJ/mol
# Density = 2.069190 g / cm^3
# Si number density = 20.739103 Si / 1000 Ang^3
#
#
#
# Elastic Constant Matrix: (Units=GPa)
#
#
# Indices 1 2 3 4 5 6 
#
# 1 99.9592 65.8035 32.0061 0.0000 0.0000 0.0000
# 2 65.8035 112.9453 27.4760 0.0000 0.0000 0.0000
# 3 32.0061 27.4760 90.0765 0.0000 0.0000 0.0000
# 4 0.0000 0.0000 0.0000 27.8681 0.0000 0.0000
# 5 0.0000 0.0000 0.0000 0.0000 13.6407 0.0000
# 6 0.0000 0.0000 0.0000 0.0000 0.0000 38.3360
#
#
#
# Elastic Compliance Matrix: (Units=1/GPa)
#
#
# Indices 1 2 3 4 5 6 
#
# 1 0.017079 -0.009153 -0.003276 0.000000 0.000000 0.000000
# 2 -0.009153 0.014469 -0.001161 0.000000 0.000000 0.000000
# 3 -0.003276 -0.001161 0.012620 0.000000 0.000000 0.000000
# 4 0.000000 0.000000 0.000000 0.035883 0.000000 0.000000
# 5 0.000000 0.000000 0.000000 0.000000 0.073310 0.000000
# 6 0.000000 0.000000 0.000000 0.000000 0.000000 0.026085
#
#
# Mechanical properties :
#
#
# Convention : Reuss Voigt Hill
#
# Bulk Modulus (GPa) = 58.87121 61.50578 60.18850
# Shear Modulus (GPa) = 23.55264 27.81532 25.68398
#
# Velocity S-wave (km/s) = 3.37362 3.66622 3.52295
# Velocity P-wave (km/s) = 6.60479 6.90238 6.75522
#
# Compressibility (1/GPa) = 0.01698623
#
# Stress axis : x y z
#
# Youngs Moduli (GPa) = 58.55201 69.11255 79.23892
#
# Poissons Ratio (x) = 0.63261 0.25962
# Poissons Ratio (y) = 0.53594 0.09201
# Poissons Ratio (z) = 0.19184 0.08025
#
# Static dielectric constant tensor:
#      x y z
#    x 3.668290 0.000000 0.000000 
#    y 0.000000 3.861210 0.000000 
#    z 0.000000 0.000000 4.145670 
# 
# 
# High freq. dielectric constant tensor:
#      x y z
#    x 1.795120 0.000000 0.000000 
#    y 0.000000 1.809920 0.000000 
#    z 0.000000 0.000000 1.828720 
# 
# From -- ./inp_files/18560.got.cif
#   From: 2010.03.12/outbox.cif.g09.slc.cpg/sg67_10_cif.got.tgz:18560.got - 2010.04.10 22:41:39.
