data_PCOD8280761
_publ_section_title
;
Structure prediction by ZEFSAII (Michael W. Deem and Ramdas Pophale) SiO2 
 PCOD8280761
Probable space group: C M M A
;
_chemical_formula_sum "Si O2"
_cell_formula_units_Z 64
_cell_length_a 5.269548
_cell_length_b 18.176903
_cell_length_c 34.280641
_cell_angle_alpha 90.000000
_cell_angle_beta 90.000000
_cell_angle_gamma 90.000000
_cell_volume 3283.539072
_symmetry_space_group_name_H-M "C M M A"
_symmetry_group_IT_number 67
_symmetry_cell_setting 'orthorhombic'
loop_
_space_group_symop_operation_xyz
x,y,z
-x,1/2-y,z
x,-y,-z
-x,1/2+y,-z
-x,-y,-z
x,1/2+y,-z
-x,y,z
x,1/2-y,z
1/2+x,1/2+y,z
1/2-x,-y,z
1/2+x,1/2-y,-z
1/2-x,y,-z
1/2-x,1/2-y,-z
1/2+x,y,-z
1/2-x,1/2+y,z
1/2+x,-y,z
loop_
_atom_site_type_symbol
_atom_site_label
_atom_site_fract_x
_atom_site_fract_y
_atom_site_fract_z
Si Si1 0.000000 0.166152 0.645216
Si Si2 0.000000 0.164368 0.404417
Si Si3 0.000000 0.666711 0.912169
Si Si4 0.000000 0.415577 0.483372
Si Si5 0.500000 0.954390 0.708884
Si Si6 0.500000 0.165523 0.136971
Si Si7 0.500000 0.545628 0.799227
Si Si8 0.500000 0.469749 0.956109
O O1 0.750329 0.148266 0.620377
O O2 0.000000 0.120024 0.684571
O O3 0.000000 0.250000 0.659008
O O4 0.000000 0.100488 0.437378
O O5 0.000000 0.250000 0.419606
O O6 0.249063 0.647080 0.887591
O O7 0.000000 0.618478 0.951968
O O8 0.000000 0.750000 0.926729
O O9 0.000000 0.500000 0.500000
O O10 0.750000 0.375693 0.500000
O O11 0.500000 0.931770 0.754052
O O12 0.750000 0.000000 0.697941
O O13 0.500000 0.250000 0.149807
O O14 0.500000 0.120379 0.176659
O O15 0.250000 0.500000 0.810165
O O16 0.250000 0.500000 0.934272
O O17 0.500000 0.500000 0.000000
#
# Coordination Sequence:
#
# PCOD8280761 Si02
#       8
#     8   8   8   8   8   8   8   8
#     4  10  21  39  60  85 113 147 190 232 276 327
#     4  10  21  38  59  82 110 144 186 231 276 331
#     4  10  21  37  56  80 114 147 184 238 290 337
#     4  10  21  38  53  78 112 140 177 226 276 334
#     4  10  21  39  56  86 118 151 189 230 277 329
#     4  10  21  36  56  85 114 148 192 231 281 342
#     4  10  21  36  57  82 119 152 187 229 277 333
#     4  10  21  37  55  80 108 141 187 237 281 339
#
# _framework density 19.491161999999999
#
# number of rings (size 3 to 8) (size 9 to 14) (size 15 to 20)
#    0.000    2.000    0.000    3.000    0.000    4.000 
#   13.500    2.500    0.000    9.000    0.000    0.000 
#    0.000    0.000    0.000    0.000    0.000    0.000 
#
# Total GULP energy -396591.262272 kJ/mol
# GULP energy per Si atom -12393.476946 kJ/mol
# Density = 1.944680 g / cm^3
# Si number density = 19.491162 Si / 1000 Ang^3
#
#
#
# Elastic Constant Matrix: (Units=GPa)
#
#
# Indices 1 2 3 4 5 6 
#
# 1 204.5151 54.2508 50.5667 0.0000 0.0000 0.0000
# 2 54.2508 132.2500 92.3220 0.0000 0.0000 0.0000
# 3 50.5667 92.3220 105.1451 0.0000 0.0000 0.0000
# 4 0.0000 0.0000 0.0000 46.0145 0.0000 0.0000
# 5 0.0000 0.0000 0.0000 0.0000 -63.2954 0.0000
# 6 0.0000 0.0000 0.0000 0.0000 0.0000 6.2287
#
#
#
# Elastic Compliance Matrix: (Units=1/GPa)
#
#
# Indices 1 2 3 4 5 6 
#
# 1 0.005609 -0.001079 -0.001750 0.000000 0.000000 0.000000
# 2 -0.001079 0.019744 -0.016817 0.000000 0.000000 0.000000
# 3 -0.001750 -0.016817 0.025118 0.000000 0.000000 0.000000
# 4 0.000000 0.000000 0.000000 0.021732 0.000000 0.000000
# 5 0.000000 0.000000 0.000000 0.000000 -0.015799 0.000000
# 6 0.000000 0.000000 0.000000 0.000000 0.000000 0.160546
#
#
# Mechanical properties :
#
#
# Convention : Reuss Voigt Hill
#
# Bulk Modulus (GPa) = 89.45482 92.90991 91.18237
# Shear Modulus (GPa) = 19.23317 14.10761 16.67039
#
# Velocity S-wave (km/s) = 3.14469 2.69326 2.92769
# Velocity P-wave (km/s) = 7.69286 7.57910 7.63619
#
# Compressibility (1/GPa) = 0.01117883
#
# Stress axis : x y z
#
# Youngs Moduli (GPa) = 178.30054 50.64873 39.81207
#
# Poissons Ratio (x) = 0.05467 0.06965
# Poissons Ratio (y) = 0.19245 0.66951
# Poissons Ratio (z) = 0.31194 0.85175
#
# Static dielectric constant tensor:
#      x y z
#    x 4.095280 0.000000 0.000000 
#    y 0.000000 3.467020 0.000000 
#    z 0.000000 0.000000 3.223720 
# 
# 
# High freq. dielectric constant tensor:
#      x y z
#    x 1.798700 0.000000 0.000000 
#    y 0.000000 1.752170 0.000000 
#    z 0.000000 0.000000 1.741030 
# 
# From -- ./inp_files/45139.got.cif
#   From: 2010.03.12/outbox.cif.g09.slc.cpg/sg67_23_cif.got.tgz:45139.got - 2010.04.10 22:41:39.
