data_PCOD8280479
_publ_section_title
;
Structure prediction by ZEFSAII (Michael W. Deem and Ramdas Pophale) SiO2 
 PCOD8280479
Probable space group: C M M A
;
_chemical_formula_sum "Si O2"
_cell_formula_units_Z 72
_cell_length_a 16.011353
_cell_length_b 9.256196
_cell_length_c 24.309274
_cell_angle_alpha 90.000000
_cell_angle_beta 90.000000
_cell_angle_gamma 90.000000
_cell_volume 3602.737031
_symmetry_space_group_name_H-M "C M M A"
_symmetry_group_IT_number 67
_symmetry_cell_setting 'orthorhombic'
loop_
_space_group_symop_operation_xyz
x,y,z
-x,1/2-y,z
x,-y,-z
-x,1/2+y,-z
-x,-y,-z
x,1/2+y,-z
-x,y,z
x,1/2-y,z
1/2+x,1/2+y,z
1/2-x,-y,z
1/2+x,1/2-y,-z
1/2-x,y,-z
1/2-x,1/2-y,-z
1/2+x,y,-z
1/2-x,1/2+y,z
1/2+x,-y,z
loop_
_atom_site_type_symbol
_atom_site_label
_atom_site_fract_x
_atom_site_fract_y
_atom_site_fract_z
Si Si1 0.906007 0.411908 0.763778
Si Si2 0.596784 0.582289 0.447384
Si Si3 0.000000 0.078591 0.942334
Si Si4 0.333436 0.080643 0.121741
Si Si5 0.665923 0.078823 0.669180
O O1 0.883519 0.250000 0.743035
O O2 0.845967 0.456890 0.813842
O O3 0.901292 0.523937 0.713255
O O4 0.000000 0.414687 0.786886
O O5 0.635297 0.500000 0.500000
O O6 0.500000 0.543846 0.440513
O O7 0.611469 0.750000 0.457618
O O8 0.641613 0.528951 0.392145
O O9 0.915866 0.028442 0.910794
O O10 0.000000 0.250000 0.950266
O O11 0.000000 0.000000 0.000000
O O12 0.319571 0.250000 0.112966
O O13 0.250000 0.000000 0.100405
O O14 0.673968 0.250000 0.672984
O O15 0.750000 0.000000 0.686565
#
# Coordination Sequence:
#
# PCOD8280479 Si02
#       5
#    16  16   8  16  16
#     4  10  20  37  61  86 115 153 193 236 293 355
#     4   9  19  36  56  76 101 136 180 230 284 342
#     4  10  22  42  64  88 124 164 203 248 297 348
#     4  10  21  39  62  89 123 161 200 248 299 351
#     4  11  23  37  53  79 114 148 186 236 289 344
#
# _framework density 19.984805999999999
#
# number of rings (size 3 to 8) (size 9 to 14) (size 15 to 20)
#    0.000    2.000    1.111    2.000    0.000    7.556 
#    0.000    6.667    0.000    0.000    0.000    0.000 
#    0.000    0.000    0.000    0.000    0.000    0.000 
#
# Total GULP energy -446430.342478 kJ/mol
# GULP energy per Si atom -12400.842847 kJ/mol
# Density = 1.993932 g / cm^3
# Si number density = 19.984806 Si / 1000 Ang^3
#
#
#
# Elastic Constant Matrix: (Units=GPa)
#
#
# Indices 1 2 3 4 5 6 
#
# 1 113.8559 41.5736 50.4164 0.0000 0.0000 0.0000
# 2 41.5736 65.6405 55.9400 0.0000 0.0000 0.0000
# 3 50.4164 55.9400 120.2717 0.0000 0.0000 0.0000
# 4 0.0000 0.0000 0.0000 38.0219 0.0000 0.0000
# 5 0.0000 0.0000 0.0000 0.0000 24.8597 0.0000
# 6 0.0000 0.0000 0.0000 0.0000 0.0000 30.5156
#
#
#
# Elastic Compliance Matrix: (Units=1/GPa)
#
#
# Indices 1 2 3 4 5 6 
#
# 1 0.011844 -0.005418 -0.002445 0.000000 0.000000 0.000000
# 2 -0.005418 0.027717 -0.010620 0.000000 0.000000 0.000000
# 3 -0.002445 -0.010620 0.014279 0.000000 0.000000 0.000000
# 4 0.000000 0.000000 0.000000 0.026301 0.000000 0.000000
# 5 0.000000 0.000000 0.000000 0.000000 0.040226 0.000000
# 6 0.000000 0.000000 0.000000 0.000000 0.000000 0.032770
#
#
# Mechanical properties :
#
#
# Convention : Reuss Voigt Hill
#
# Bulk Modulus (GPa) = 59.26426 66.18090 62.72258
# Shear Modulus (GPa) = 25.54579 28.80198 27.17388
#
# Velocity S-wave (km/s) = 3.57916 3.80042 3.69145
# Velocity P-wave (km/s) = 6.84102 7.24190 7.04431
#
# Compressibility (1/GPa) = 0.01687358
#
# Stress axis : x y z
#
# Youngs Moduli (GPa) = 84.43143 36.07929 70.03248
#
# Poissons Ratio (x) = 0.19547 0.17123
# Poissons Ratio (y) = 0.45743 0.74377
# Poissons Ratio (z) = 0.20643 0.38318
#
# Static dielectric constant tensor:
#      x y z
#    x 3.625780 0.000000 0.000000 
#    y 0.000000 3.509460 0.000000 
#    z 0.000000 0.000000 3.600300 
# 
# 
# High freq. dielectric constant tensor:
#      x y z
#    x 1.784050 0.000000 0.000000 
#    y 0.000000 1.768880 0.000000 
#    z 0.000000 0.000000 1.782180 
# 
# From -- ./inp_files/40502.got.cif
#   From: 2010.03.12/outbox.cif.g09.slc.cpg/sg67_21_cif.got.tgz:40502.got - 2010.04.10 22:41:39.
