data_PCOD8280263
_publ_section_title
;
Structure prediction by ZEFSAII (Michael W. Deem and Ramdas Pophale) SiO2 
 PCOD8280263
Probable space group: C M M A
;
_chemical_formula_sum "Si O2"
_cell_formula_units_Z 84
_cell_length_a 14.745633
_cell_length_b 15.905970
_cell_length_c 19.066646
_cell_angle_alpha 90.000000
_cell_angle_beta 90.000000
_cell_angle_gamma 90.000000
_cell_volume 4471.959719
_symmetry_space_group_name_H-M "C M M A"
_symmetry_group_IT_number 67
_symmetry_cell_setting 'orthorhombic'
loop_
_space_group_symop_operation_xyz
x,y,z
-x,1/2-y,z
x,-y,-z
-x,1/2+y,-z
-x,-y,-z
x,1/2+y,-z
-x,y,z
x,1/2-y,z
1/2+x,1/2+y,z
1/2-x,-y,z
1/2+x,1/2-y,-z
1/2-x,y,-z
1/2-x,1/2-y,-z
1/2+x,y,-z
1/2-x,1/2+y,z
1/2+x,-y,z
loop_
_atom_site_type_symbol
_atom_site_label
_atom_site_fract_x
_atom_site_fract_y
_atom_site_fract_z
Si Si1 0.694830 0.081120 0.847996
Si Si2 0.000000 0.424733 0.323341
Si Si3 0.313200 0.651502 0.305767
Si Si4 0.191366 0.150623 0.564959
Si Si5 0.301482 0.750000 0.072771
Si Si6 0.500000 0.437269 0.436168
Si Si7 0.500000 0.425168 0.833160
Si Si8 0.500000 0.750000 0.114048
O O1 0.701040 0.098060 0.764923
O O2 0.728855 0.165280 0.886859
O O3 0.593323 0.051798 0.872255
O O4 0.750000 0.000000 0.871146
O O5 0.911465 0.368432 0.339234
O O6 0.000000 0.510213 0.365706
O O7 0.000000 0.460743 0.244742
O O8 0.306000 0.750000 0.288426
O O9 0.237463 0.622481 0.361769
O O10 0.190347 0.250000 0.559813
O O11 0.250000 0.113423 0.500000
O O12 0.088751 0.119977 0.561051
O O13 0.411105 0.750000 0.064136
O O14 0.250000 0.750000 0.000000
O O15 0.500000 0.500000 0.500000
O O16 0.500000 0.323811 0.829125
#
# Coordination Sequence:
#
# PCOD8280263 Si02
#       8
#    16   8  16  16   8   8   8   4
#     4  10  20  35  59  87 118 154 192 243 287 339
#     4  10  21  29  54  85 109 140 183 239 280 339
#     4  10  20  36  58  83 113 149 192 236 287 338
#     4  10  23  41  59  76 106 153 195 237 290 352
#     4  10  20  38  62  90 121 153 199 236 290 352
#     4  12  25  38  53  81 113 145 185 240 303 345
#     4   8  18  32  54  84 113 149 190 233 281 330
#     4   8  16  36  62  84 116 154 184 242 290 320
#
# _framework density 18.783709999999999
#
# number of rings (size 3 to 8) (size 9 to 14) (size 15 to 20)
#    0.000    2.095    0.952    1.714    9.333    2.286 
#    0.000    4.762    0.000    3.429    0.000    0.000 
#    0.000    0.000    0.000    0.000    0.000    0.000 
#
# Total GULP energy -520558.522302 kJ/mol
# GULP energy per Si atom -12394.250531 kJ/mol
# Density = 1.874096 g / cm^3
# Si number density = 18.783710 Si / 1000 Ang^3
#
#
#
# Elastic Constant Matrix: (Units=GPa)
#
#
# Indices 1 2 3 4 5 6 
#
# 1 137.3364 52.2234 48.6766 0.0000 0.0000 0.0000
# 2 52.2234 83.1143 37.1592 0.0000 0.0000 0.0000
# 3 48.6766 37.1592 93.9024 0.0000 0.0000 0.0000
# 4 0.0000 0.0000 0.0000 19.8875 0.0000 0.0000
# 5 0.0000 0.0000 0.0000 0.0000 25.3543 0.0000
# 6 0.0000 0.0000 0.0000 0.0000 0.0000 31.8572
#
#
#
# Elastic Compliance Matrix: (Units=1/GPa)
#
#
# Indices 1 2 3 4 5 6 
#
# 1 0.010393 -0.005007 -0.003406 0.000000 0.000000 0.000000
# 2 -0.005007 0.017030 -0.004144 0.000000 0.000000 0.000000
# 3 -0.003406 -0.004144 0.014055 0.000000 0.000000 0.000000
# 4 0.000000 0.000000 0.000000 0.050283 0.000000 0.000000
# 5 0.000000 0.000000 0.000000 0.000000 0.039441 0.000000
# 6 0.000000 0.000000 0.000000 0.000000 0.000000 0.031390
#
#
# Mechanical properties :
#
#
# Convention : Reuss Voigt Hill
#
# Bulk Modulus (GPa) = 61.10924 65.60794 63.35859
# Shear Modulus (GPa) = 25.88529 27.17271 26.52900
#
# Velocity S-wave (km/s) = 3.71627 3.80756 3.76219
# Velocity P-wave (km/s) = 7.14268 7.37116 7.25782
#
# Compressibility (1/GPa) = 0.01636414
#
# Stress axis : x y z
#
# Youngs Moduli (GPa) = 96.22242 58.71834 71.15150
#
# Poissons Ratio (x) = 0.29402 0.24232
# Poissons Ratio (y) = 0.48182 0.29483
# Poissons Ratio (z) = 0.32771 0.24331
#
# Static dielectric constant tensor:
#      x y z
#    x 3.664440 0.000000 0.000000 
#    y 0.000000 3.235490 0.000000 
#    z 0.000000 0.000000 3.214250 
# 
# 
# High freq. dielectric constant tensor:
#      x y z
#    x 1.739170 0.000000 0.000000 
#    y 0.000000 1.724720 0.000000 
#    z 0.000000 0.000000 1.711210 
# 
# From -- ./inp_files/38355.got.cif
#   From: 2010.03.12/outbox.cif.g09.slc.cpg/sg67_20_cif.got.tgz:38355.got - 2010.04.10 22:41:39.
