data_PCOD8280278
_publ_section_title
;
Structure prediction by ZEFSAII (Michael W. Deem and Ramdas Pophale) SiO2 
 PCOD8280278
Probable space group: C M M A
;
_chemical_formula_sum "Si O2"
_cell_formula_units_Z 96
_cell_length_a 15.476458
_cell_length_b 14.896036
_cell_length_c 20.918018
_cell_angle_alpha 90.000000
_cell_angle_beta 90.000000
_cell_angle_gamma 90.000000
_cell_volume 4822.395430
_symmetry_space_group_name_H-M "C M M A"
_symmetry_group_IT_number 67
_symmetry_cell_setting 'orthorhombic'
loop_
_space_group_symop_operation_xyz
x,y,z
-x,1/2-y,z
x,-y,-z
-x,1/2+y,-z
-x,-y,-z
x,1/2+y,-z
-x,y,z
x,1/2-y,z
1/2+x,1/2+y,z
1/2-x,-y,z
1/2+x,1/2-y,-z
1/2-x,y,-z
1/2-x,1/2-y,-z
1/2+x,y,-z
1/2-x,1/2+y,z
1/2+x,-y,z
loop_
_atom_site_type_symbol
_atom_site_label
_atom_site_fract_x
_atom_site_fract_y
_atom_site_fract_z
Si Si1 0.401803 0.350703 0.835868
Si Si2 0.649836 0.649298 0.500000
Si Si3 0.600842 0.000000 0.401927
Si Si4 0.250000 0.394181 0.072466
Si Si5 0.101951 1.000000 0.260753
Si Si6 0.401802 0.649297 0.835868
O O1 0.500000 0.377916 0.856893
O O2 0.400765 0.250000 0.809191
O O3 0.337570 0.357872 0.895608
O O4 0.367320 0.412675 0.778321
O O5 0.606208 0.750000 0.500000
O O6 0.750000 0.664979 0.500000
O O7 0.625932 0.591608 0.562288
O O8 0.625932 0.591607 0.437712
O O9 0.500000 1.000000 0.394720
O O10 0.644504 0.000000 0.331440
O O11 0.250000 0.500000 0.076502
O O12 0.337570 0.357872 0.104392
O O13 0.250000 0.359197 0.000000
O O14 0.132681 0.912675 0.221679
O O15 0.000000 0.999999 0.268062
O O16 0.500000 0.622084 0.856893
O O17 0.400765 0.750000 0.809191
#
# Coordination Sequence:
#
# PCOD8280278 Si02
#       6
#    16  16  16  16  16  16
#     4  10  21  39  61  84 116 155 192 239 294 344
#     4  10  21  38  55  79 118 154 187 229 278 337
#     4  10  20  35  60  86 109 146 189 237 287 327
#     4  11  23  39  61  88 117 153 196 240 289 347
#     4   9  19  37  58  84 116 146 186 236 285 342
#     4  10  21  39  61  84 116 155 192 239 294 344
#
# _framework density 19.907119000000002
#
# number of rings (size 3 to 8) (size 9 to 14) (size 15 to 20)
#    0.000    2.000    1.667    2.500    0.000    4.667 
#    6.000    6.667    0.000    0.000    0.000    0.000 
#    0.000    0.000    0.000    0.000    0.000    0.000 
#
# Total GULP energy -594980.320059 kJ/mol
# GULP energy per Si atom -12395.423335 kJ/mol
# Density = 1.986181 g / cm^3
# Si number density = 19.907119 Si / 1000 Ang^3
#
#
#
# Elastic Constant Matrix: (Units=GPa)
#
#
# Indices 1 2 3 4 5 6 
#
# 1 86.1074 28.8215 51.2415 0.0000 0.0000 0.0000
# 2 28.8215 165.6512 77.7316 0.0000 0.0000 0.0000
# 3 51.2415 77.7316 181.5223 0.0000 0.0000 0.0000
# 4 0.0000 0.0000 0.0000 0.6941 0.0000 0.0000
# 5 0.0000 0.0000 0.0000 0.0000 15.4812 0.0000
# 6 0.0000 0.0000 0.0000 0.0000 0.0000 22.6298
#
#
#
# Elastic Compliance Matrix: (Units=1/GPa)
#
#
# Indices 1 2 3 4 5 6 
#
# 1 0.014028 -0.000729 -0.003648 0.000000 0.000000 0.000000
# 2 -0.000729 0.007593 -0.003046 0.000000 0.000000 0.000000
# 3 -0.003648 -0.003046 0.007843 0.000000 0.000000 0.000000
# 4 0.000000 0.000000 0.000000 1.440690 0.000000 0.000000
# 5 0.000000 0.000000 0.000000 0.000000 0.064595 0.000000
# 6 0.000000 0.000000 0.000000 0.000000 0.000000 0.044190
#
#
# Mechanical properties :
#
#
# Convention : Reuss Voigt Hill
#
# Bulk Modulus (GPa) = 68.40409 83.20778 75.80593
# Shear Modulus (GPa) = 3.12763 26.12677 14.62720
#
# Velocity S-wave (km/s) = 1.25480 3.62668 2.71361
# Velocity P-wave (km/s) = 6.04447 7.70882 6.92681
#
# Compressibility (1/GPa) = 0.01461901
#
# Stress axis : x y z
#
# Youngs Moduli (GPa) = 71.28504 131.70439 127.50430
#
# Poissons Ratio (x) = 0.09602 0.46511
# Poissons Ratio (y) = 0.05197 0.38832
# Poissons Ratio (z) = 0.26003 0.40112
#
# Static dielectric constant tensor:
#      x y z
#    x 3.659090 0.000000 0.000000 
#    y 0.000000 3.022500 0.000000 
#    z 0.000000 0.000000 7.643130 
# 
# 
# High freq. dielectric constant tensor:
#      x y z
#    x 1.776980 0.000000 0.000000 
#    y 0.000000 1.791350 0.000000 
#    z 0.000000 0.000000 1.765730 
# 
# From -- ./inp_files/38432.got.cif
#   From: 2010.03.12/outbox.cif.g09.slc.cpg/sg67_20_cif.got.tgz:38432.got - 2010.04.10 22:41:39.
