data_PCOD8280402
_publ_section_title
;
Structure prediction by ZEFSAII (Michael W. Deem and Ramdas Pophale) SiO2 
 PCOD8280402
Probable space group: C M M A
;
_chemical_formula_sum "Si O2"
_cell_formula_units_Z 72
_cell_length_a 14.694408
_cell_length_b 8.780159
_cell_length_c 28.557869
_cell_angle_alpha 90.000000
_cell_angle_beta 90.000000
_cell_angle_gamma 90.000000
_cell_volume 3684.514516
_symmetry_space_group_name_H-M "C M M A"
_symmetry_group_IT_number 67
_symmetry_cell_setting 'orthorhombic'
loop_
_space_group_symop_operation_xyz
x,y,z
-x,1/2-y,z
x,-y,-z
-x,1/2+y,-z
-x,-y,-z
x,1/2+y,-z
-x,y,z
x,1/2-y,z
1/2+x,1/2+y,z
1/2-x,-y,z
1/2+x,1/2-y,-z
1/2-x,y,-z
1/2-x,1/2-y,-z
1/2+x,y,-z
1/2-x,1/2+y,z
1/2+x,-y,z
loop_
_atom_site_type_symbol
_atom_site_label
_atom_site_fract_x
_atom_site_fract_y
_atom_site_fract_z
Si Si1 0.843548 0.430187 0.143223
Si Si2 0.607770 0.921042 0.953254
Si Si3 0.500000 0.568841 0.448973
Si Si4 0.650419 0.072192 0.622344
Si Si5 0.500000 0.573006 0.302451
Si Si6 0.500000 0.929000 0.796645
O O1 0.843689 0.250000 0.146419
O O2 0.750000 0.500000 0.160750
O O3 0.862158 0.477576 0.090083
O O4 0.913747 0.497229 0.179487
O O5 0.500000 0.913752 0.955386
O O6 0.647761 0.750000 0.948507
O O7 0.646928 0.000000 0.000000
O O8 0.500000 0.750000 0.450992
O O9 0.500000 0.500000 0.500000
O O10 0.408710 0.512692 0.422022
O O11 0.665837 0.250000 0.617508
O O12 0.591449 0.034897 0.668540
O O13 0.750000 0.000000 0.624599
O O14 0.500000 0.750000 0.287432
O O15 0.500000 0.463477 0.258126
O O16 0.500000 0.750000 0.805880
#
# Coordination Sequence:
#
# PCOD8280402 Si02
#       6
#    16  16   8  16   8   8
#     4  12  25  42  64  89 119 155 195 239 291 348
#     4  10  20  36  60  88 120 154 193 236 284 343
#     4   9  19  35  53  80 118 161 200 241 289 344
#     4   9  19  36  58  83 115 152 196 244 294 345
#     4   9  20  40  61  82 112 152 191 237 295 352
#     4  12  25  43  64  90 121 153 192 240 296 358
#
# _framework density 19.541245
#
# number of rings (size 3 to 8) (size 9 to 14) (size 15 to 20)
#    0.000    1.778    1.111    5.000    0.000    4.444 
#    0.000    8.889    0.000    0.000    0.000    0.000 
#    0.000    0.000    0.000    0.000    0.000    0.000 
#
# Total GULP energy -446395.985386 kJ/mol
# GULP energy per Si atom -12399.888483 kJ/mol
# Density = 1.949677 g / cm^3
# Si number density = 19.541245 Si / 1000 Ang^3
#
#
#
# Elastic Constant Matrix: (Units=GPa)
#
#
# Indices 1 2 3 4 5 6 
#
# 1 141.1957 59.4857 72.1685 0.0000 0.0000 0.0000
# 2 59.4857 147.4892 62.3484 0.0000 0.0000 0.0000
# 3 72.1685 62.3484 135.5777 0.0000 0.0000 0.0000
# 4 0.0000 0.0000 0.0000 48.9129 0.0000 0.0000
# 5 0.0000 0.0000 0.0000 0.0000 23.8243 0.0000
# 6 0.0000 0.0000 0.0000 0.0000 0.0000 34.4313
#
#
#
# Elastic Compliance Matrix: (Units=1/GPa)
#
#
# Indices 1 2 3 4 5 6 
#
# 1 0.010314 -0.002283 -0.004440 0.000000 0.000000 0.000000
# 2 -0.002283 0.008922 -0.002888 0.000000 0.000000 0.000000
# 3 -0.004440 -0.002888 0.011067 0.000000 0.000000 0.000000
# 4 0.000000 0.000000 0.000000 0.020445 0.000000 0.000000
# 5 0.000000 0.000000 0.000000 0.000000 0.041974 0.000000
# 6 0.000000 0.000000 0.000000 0.000000 0.000000 0.029043
#
#
# Mechanical properties :
#
#
# Convention : Reuss Voigt Hill
#
# Bulk Modulus (GPa) = 90.24211 90.25199 90.24705
# Shear Modulus (GPa) = 34.55925 36.78437 35.67181
#
# Velocity S-wave (km/s) = 4.20995 4.34337 4.27718
# Velocity P-wave (km/s) = 8.36135 8.45214 8.40687
#
# Compressibility (1/GPa) = 0.01108130
#
# Stress axis : x y z
#
# Youngs Moduli (GPa) = 96.95989 112.08842 90.35591
#
# Poissons Ratio (x) = 0.25586 0.40120
# Poissons Ratio (y) = 0.22133 0.26092
# Poissons Ratio (z) = 0.43052 0.32368
#
# Static dielectric constant tensor:
#      x y z
#    x 3.882010 0.000000 0.000000 
#    y 0.000000 3.664730 0.000000 
#    z 0.000000 0.000000 4.063670 
# 
# 
# High freq. dielectric constant tensor:
#      x y z
#    x 1.771300 0.000000 0.000000 
#    y 0.000000 1.766280 0.000000 
#    z 0.000000 0.000000 1.761580 
# 
# From -- ./inp_files/44262.got.cif
#   From: 2010.03.12/outbox.cif.g09.slc.cpg/sg67_23_cif.got.tgz:44262.got - 2010.04.10 22:41:39.
