data_PCOD8280228
_publ_section_title
;
Structure prediction by ZEFSAII (Michael W. Deem and Ramdas Pophale) SiO2 
 PCOD8280228
Probable space group: C M M A
;
_chemical_formula_sum "Si O2"
_cell_formula_units_Z 96
_cell_length_a 8.741886
_cell_length_b 28.834892
_cell_length_c 20.408994
_cell_angle_alpha 90.000000
_cell_angle_beta 90.000000
_cell_angle_gamma 90.000000
_cell_volume 5144.522439
_symmetry_space_group_name_H-M "C M M A"
_symmetry_group_IT_number 67
_symmetry_cell_setting 'orthorhombic'
loop_
_space_group_symop_operation_xyz
x,y,z
-x,1/2-y,z
x,-y,-z
-x,1/2+y,-z
-x,-y,-z
x,1/2+y,-z
-x,y,z
x,1/2-y,z
1/2+x,1/2+y,z
1/2-x,-y,z
1/2+x,1/2-y,-z
1/2-x,y,-z
1/2-x,1/2-y,-z
1/2+x,y,-z
1/2-x,1/2+y,z
1/2+x,-y,z
loop_
_atom_site_type_symbol
_atom_site_label
_atom_site_fract_x
_atom_site_fract_y
_atom_site_fract_z
Si Si1 0.679510 0.950367 0.311469
Si Si2 0.674192 0.301283 0.760172
Si Si3 0.817977 0.103975 0.568410
Si Si4 0.179820 0.800547 0.376785
Si Si5 0.824689 0.604882 0.819721
Si Si6 0.179372 0.048995 0.931547
O O1 0.500000 0.954811 0.324620
O O2 0.758935 0.929863 0.375485
O O3 0.715845 0.917623 0.249984
O O4 0.750000 0.000000 0.295058
O O5 0.500000 0.306606 0.734973
O O6 0.702211 0.250000 0.790586
O O7 0.782556 0.309931 0.698677
O O8 0.707511 0.339950 0.815141
O O9 0.750000 0.086251 0.500000
O O10 0.756215 0.156704 0.580378
O O11 0.000000 0.101754 0.566878
O O12 0.248315 0.750000 0.398917
O O13 0.000000 0.799136 0.384078
O O14 0.714035 0.586298 0.875809
O O15 0.000000 0.594197 0.838950
O O16 0.000000 0.042969 0.940359
O O17 0.250000 0.000000 0.909844
O O18 0.250000 0.066211 0.000000
#
# Coordination Sequence:
#
# PCOD8280228 Si02
#       6
#    16  16  16  16  16  16
#     4  11  23  39  58  81 108 140 180 228 276 327
#     4   9  17  31  54  83 113 145 180 220 268 321
#     4  11  23  38  56  77 106 142 182 227 277 332
#     4   9  18  33  53  78 108 140 176 221 272 326
#     4  10  20  35  57  86 117 147 182 225 270 321
#     4  11  22  37  58  84 117 153 188 227 272 324
#
# _framework density 18.660623999999999
#
# number of rings (size 3 to 8) (size 9 to 14) (size 15 to 20)
#    0.000    1.833    1.667    3.500    0.000    4.667 
#    0.000    1.667    0.000    0.500    0.000    0.000 
#    0.000    0.000    0.000    0.000    0.000    0.000 
#
# Total GULP energy -595193.496909 kJ/mol
# GULP energy per Si atom -12399.864519 kJ/mol
# Density = 1.861815 g / cm^3
# Si number density = 18.660624 Si / 1000 Ang^3
#
#
#
# Elastic Constant Matrix: (Units=GPa)
#
#
# Indices 1 2 3 4 5 6 
#
# 1 76.5587 38.1312 35.0597 0.0000 0.0000 0.0000
# 2 38.1312 110.8210 46.0163 0.0000 0.0000 0.0000
# 3 35.0597 46.0163 93.9485 0.0000 0.0000 0.0000
# 4 0.0000 0.0000 0.0000 29.5416 0.0000 0.0000
# 5 0.0000 0.0000 0.0000 0.0000 29.1206 0.0000
# 6 0.0000 0.0000 0.0000 0.0000 0.0000 22.1480
#
#
#
# Elastic Compliance Matrix: (Units=1/GPa)
#
#
# Indices 1 2 3 4 5 6 
#
# 1 0.017094 -0.004058 -0.004391 0.000000 0.000000 0.000000
# 2 -0.004058 0.012291 -0.004506 0.000000 0.000000 0.000000
# 3 -0.004391 -0.004506 0.014490 0.000000 0.000000 0.000000
# 4 0.000000 0.000000 0.000000 0.033851 0.000000 0.000000
# 5 0.000000 0.000000 0.000000 0.000000 0.034340 0.000000
# 6 0.000000 0.000000 0.000000 0.000000 0.000000 0.045151
#
#
# Mechanical properties :
#
#
# Convention : Reuss Voigt Hill
#
# Bulk Modulus (GPa) = 55.66657 57.74919 56.70788
# Shear Modulus (GPa) = 26.43897 26.97012 26.70454
#
# Velocity S-wave (km/s) = 3.76817 3.80583 3.78704
# Velocity P-wave (km/s) = 6.98770 7.09413 7.04112
#
# Compressibility (1/GPa) = 0.01796410
#
# Stress axis : x y z
#
# Youngs Moduli (GPa) = 58.49936 81.36168 69.01412
#
# Poissons Ratio (x) = 0.33019 0.30307
# Poissons Ratio (y) = 0.23741 0.31095
# Poissons Ratio (z) = 0.25690 0.36658
#
# Static dielectric constant tensor:
#      x y z
#    x 3.424530 0.000000 0.000000 
#    y 0.000000 3.799910 0.000000 
#    z 0.000000 0.000000 3.201910 
# 
# 
# High freq. dielectric constant tensor:
#      x y z
#    x 1.726600 0.000000 0.000000 
#    y 0.000000 1.735180 0.000000 
#    z 0.000000 0.000000 1.702060 
# 
# From -- ./inp_files/37146.got.cif
#   From: 2010.03.12/outbox.cif.g09.slc.cpg/sg67_19_cif.got.tgz:37146.got - 2010.04.10 22:41:39.
