data_PCOD8280121
_publ_section_title
;
Structure prediction by ZEFSAII (Michael W. Deem and Ramdas Pophale) SiO2 
 PCOD8280121
Probable space group: C M M A
;
_chemical_formula_sum "Si O2"
_cell_formula_units_Z 56
_cell_length_a 14.427339
_cell_length_b 8.767418
_cell_length_c 23.572368
_cell_angle_alpha 90.000000
_cell_angle_beta 90.000000
_cell_angle_gamma 90.000000
_cell_volume 2981.680889
_symmetry_space_group_name_H-M "C M M A"
_symmetry_group_IT_number 67
_symmetry_cell_setting 'orthorhombic'
loop_
_space_group_symop_operation_xyz
x,y,z
-x,1/2-y,z
x,-y,-z
-x,1/2+y,-z
-x,-y,-z
x,1/2+y,-z
-x,y,z
x,1/2-y,z
1/2+x,1/2+y,z
1/2-x,-y,z
1/2+x,1/2-y,-z
1/2-x,y,-z
1/2-x,1/2-y,-z
1/2+x,y,-z
1/2-x,1/2+y,z
1/2+x,-y,z
loop_
_atom_site_type_symbol
_atom_site_label
_atom_site_fract_x
_atom_site_fract_y
_atom_site_fract_z
Si Si1 0.500000 0.072158 0.061171
Si Si2 0.348366 0.071720 0.442582
Si Si3 0.648198 0.569130 0.847694
Si Si4 0.500000 0.426118 0.351308
Si Si5 0.500000 0.429257 0.768300
O O1 0.500000 0.250000 0.052125
O O2 0.408048 0.022409 0.095567
O O3 0.500000 0.000000 0.000000
O O4 0.338602 0.250000 0.453251
O O5 0.410935 0.035086 0.388730
O O6 0.391135 0.000000 0.500000
O O7 0.250000 0.000000 0.428543
O O8 0.654252 0.750000 0.840509
O O9 0.750000 0.500000 0.851516
O O10 0.593220 0.502183 0.794111
O O11 0.500000 0.250000 0.331378
O O12 0.500000 0.537974 0.298198
O O13 0.500000 0.250000 0.779997
#
# Coordination Sequence:
#
# PCOD8280121 Si02
#       5
#     8  16  16   8   8
#     4   9  20  36  56  84 118 151 185 229 273 320
#     4  10  20  35  55  78 106 139 175 218 270 325
#     4  10  21  39  60  83 113 150 189 230 277 328
#     4  10  22  38  55  77 108 144 179 223 274 326
#     4  11  23  38  58  83 110 145 186 232 281 330
#
# _framework density 18.781351999999998
#
# number of rings (size 3 to 8) (size 9 to 14) (size 15 to 20)
#    0.000    2.000    0.000    5.143    0.000    7.429 
#    0.000    5.714    0.000    0.000    0.000    0.000 
#    0.000    0.000    0.000    0.000    0.000    0.000 
#
# Total GULP energy -347234.566264 kJ/mol
# GULP energy per Si atom -12401.234509 kJ/mol
# Density = 1.873860 g / cm^3
# Si number density = 18.781352 Si / 1000 Ang^3
#
#
#
# Elastic Constant Matrix: (Units=GPa)
#
#
# Indices 1 2 3 4 5 6 
#
# 1 153.3246 66.2886 73.7884 0.0000 0.0000 0.0000
# 2 66.2886 113.7010 64.7704 0.0000 0.0000 0.0000
# 3 73.7884 64.7704 146.2717 0.0000 0.0000 0.0000
# 4 0.0000 0.0000 0.0000 37.2530 0.0000 0.0000
# 5 0.0000 0.0000 0.0000 0.0000 20.5306 0.0000
# 6 0.0000 0.0000 0.0000 0.0000 0.0000 30.7755
#
#
#
# Elastic Compliance Matrix: (Units=1/GPa)
#
#
# Indices 1 2 3 4 5 6 
#
# 1 0.009727 -0.003846 -0.003204 0.000000 0.000000 0.000000
# 2 -0.003846 0.013282 -0.003942 0.000000 0.000000 0.000000
# 3 -0.003204 -0.003942 0.010198 0.000000 0.000000 0.000000
# 4 0.000000 0.000000 0.000000 0.026844 0.000000 0.000000
# 5 0.000000 0.000000 0.000000 0.000000 0.048708 0.000000
# 6 0.000000 0.000000 0.000000 0.000000 0.000000 0.032493
#
#
# Mechanical properties :
#
#
# Convention : Reuss Voigt Hill
#
# Bulk Modulus (GPa) = 89.08616 91.44357 90.26487
# Shear Modulus (GPa) = 29.94451 31.60847 30.77649
#
# Velocity S-wave (km/s) = 3.99729 4.10685 4.05244
# Velocity P-wave (km/s) = 8.29703 8.44290 8.37028
#
# Compressibility (1/GPa) = 0.01122509
#
# Stress axis : x y z
#
# Youngs Moduli (GPa) = 102.81113 75.28783 98.05684
#
# Poissons Ratio (x) = 0.28953 0.31416
# Poissons Ratio (y) = 0.39537 0.38650
# Poissons Ratio (z) = 0.32939 0.29675
#
# Static dielectric constant tensor:
#      x y z
#    x 3.222770 0.000000 0.000000 
#    y 0.000000 3.521540 0.000000 
#    z 0.000000 0.000000 2.632460 
# 
# 
# High freq. dielectric constant tensor:
#      x y z
#    x 1.737410 0.000000 0.000000 
#    y 0.000000 1.740540 0.000000 
#    z 0.000000 0.000000 1.730540 
# 
# From -- ./inp_files/41703.got.cif
#   From: 2010.03.12/outbox.cif.g09.slc.cpg/sg67_21_cif.got.tgz:41703.got - 2010.04.10 22:41:39.
