data_PCOD8280420
_publ_section_title
;
Structure prediction by ZEFSAII (Michael W. Deem and Ramdas Pophale) SiO2 
 PCOD8280420
Probable space group: C M M A
;
_chemical_formula_sum "Si O2"
_cell_formula_units_Z 64
_cell_length_a 17.287482
_cell_length_b 14.074225
_cell_length_c 11.377425
_cell_angle_alpha 90.000000
_cell_angle_beta 90.000000
_cell_angle_gamma 90.000000
_cell_volume 2768.217513
_symmetry_space_group_name_H-M "C M M A"
_symmetry_group_IT_number 67
_symmetry_cell_setting 'orthorhombic'
loop_
_space_group_symop_operation_xyz
x,y,z
-x,1/2-y,z
x,-y,-z
-x,1/2+y,-z
-x,-y,-z
x,1/2+y,-z
-x,y,z
x,1/2-y,z
1/2+x,1/2+y,z
1/2-x,-y,z
1/2+x,1/2-y,-z
1/2-x,y,-z
1/2-x,1/2-y,-z
1/2+x,y,-z
1/2-x,1/2+y,z
1/2+x,-y,z
loop_
_atom_site_type_symbol
_atom_site_label
_atom_site_fract_x
_atom_site_fract_y
_atom_site_fract_z
Si Si1 0.835469 0.857314 0.528817
Si Si2 0.125472 0.147914 0.731205
Si Si3 0.231579 0.890705 0.873843
Si Si4 0.912997 0.059424 0.249720
O O1 0.832290 0.750000 0.580295
O O2 0.750000 0.896288 0.500000
O O3 0.883337 0.858463 0.408550
O O4 0.877716 0.927531 0.619997
O O5 0.087750 0.250000 0.770985
O O6 0.215691 0.153519 0.771176
O O7 0.085459 0.053483 0.784231
O O8 0.140708 0.880577 0.840558
O O9 0.250000 0.000000 0.882188
O O10 0.250000 0.841804 0.000000
O O11 0.000000 0.099590 0.241647
#
# Coordination Sequence:
#
# PCOD8280420 Si02
#       4
#    16  16  16  16
#     4  10  20  36  61  91 124 163 204 246 298 367
#     4  10  21  37  60  88 123 169 212 244 292 371
#     4   9  19  38  61  87 116 160 216 257 301 366
#     4  11  23  38  62  94 127 159 198 259 318 361
#
# _framework density 23.11957
#
# number of rings (size 3 to 8) (size 9 to 14) (size 15 to 20)
#    0.000    2.000    2.500    0.750    0.000    4.500 
#    0.000   12.500    0.000    0.000    0.000    0.000 
#    0.000    0.000    0.000    0.000    0.000    0.000 
#
# Total GULP energy -396478.252589 kJ/mol
# GULP energy per Si atom -12389.945393 kJ/mol
# Density = 2.306695 g / cm^3
# Si number density = 23.119570 Si / 1000 Ang^3
#
#
#
# Elastic Constant Matrix: (Units=GPa)
#
#
# Indices 1 2 3 4 5 6 
#
# 1 158.6228 9.4232 51.0374 0.0000 0.0000 0.0000
# 2 9.4232 98.0331 17.8495 0.0000 0.0000 0.0000
# 3 51.0374 17.8495 121.3462 0.0000 0.0000 0.0000
# 4 0.0000 0.0000 0.0000 -71.6709 0.0000 0.0000
# 5 0.0000 0.0000 0.0000 0.0000 20.3894 0.0000
# 6 0.0000 0.0000 0.0000 0.0000 0.0000 -0.9262
#
#
#
# Elastic Compliance Matrix: (Units=1/GPa)
#
#
# Indices 1 2 3 4 5 6 
#
# 1 0.007293 -0.000146 -0.003046 0.000000 0.000000 0.000000
# 2 -0.000146 0.010484 -0.001481 0.000000 0.000000 0.000000
# 3 -0.003046 -0.001481 0.009740 0.000000 0.000000 0.000000
# 4 0.000000 0.000000 0.000000 -0.013953 0.000000 0.000000
# 5 0.000000 0.000000 0.000000 0.000000 0.049045 0.000000
# 6 0.000000 0.000000 0.000000 0.000000 0.000000 -1.079648
#
#
# Mechanical properties :
#
#
# Convention : Reuss Voigt Hill
#
# Bulk Modulus (GPa) = 55.03201 59.40247 57.21724
# Shear Modulus (GPa) = -4.99183 9.53793 2.27305
#
# Velocity S-wave (km/s) = -1.47099 2.03333 0.99263
# Velocity P-wave (km/s) = 4.57928 5.59124 5.11037
#
# Compressibility (1/GPa) = 0.01817124
#
# Stress axis : x y z
#
# Youngs Moduli (GPa) = 137.11837 95.38078 102.67223
#
# Poissons Ratio (x) = 0.01397 0.31272
# Poissons Ratio (y) = 0.02008 0.15202
# Poissons Ratio (z) = 0.41764 0.14122
#
# Static dielectric constant tensor:
#      x y z
#    x 3.854560 0.000000 0.000000 
#    y 0.000000 4.327700 0.000000 
#    z 0.000000 0.000000 4.358030 
# 
# 
# High freq. dielectric constant tensor:
#      x y z
#    x 1.877750 0.000000 0.000000 
#    y 0.000000 1.921240 0.000000 
#    z 0.000000 0.000000 1.892350 
# 
# From -- ./inp_files/17497.got.cif
#   From: 2010.03.12/outbox.cif.g09.slc.cpg/sg67_9_cif.got.tgz:17497.got - 2010.04.10 22:41:39.
