data_PCOD8280319
_publ_section_title
;
Structure prediction by ZEFSAII (Michael W. Deem and Ramdas Pophale) SiO2 
 PCOD8280319
Probable space group: C M M A
;
_chemical_formula_sum "Si O2"
_cell_formula_units_Z 80
_cell_length_a 7.804533
_cell_length_b 18.524939
_cell_length_c 28.998951
_cell_angle_alpha 90.000000
_cell_angle_beta 90.000000
_cell_angle_gamma 90.000000
_cell_volume 4192.624772
_symmetry_space_group_name_H-M "C M M A"
_symmetry_group_IT_number 67
_symmetry_cell_setting 'orthorhombic'
loop_
_space_group_symop_operation_xyz
x,y,z
-x,1/2-y,z
x,-y,-z
-x,1/2+y,-z
-x,-y,-z
x,1/2+y,-z
-x,y,z
x,1/2-y,z
1/2+x,1/2+y,z
1/2-x,-y,z
1/2+x,1/2-y,-z
1/2-x,y,-z
1/2-x,1/2-y,-z
1/2+x,y,-z
1/2-x,1/2+y,z
1/2+x,-y,z
loop_
_atom_site_type_symbol
_atom_site_label
_atom_site_fract_x
_atom_site_fract_y
_atom_site_fract_z
Si Si1 0.692304 0.835926 0.950089
Si Si2 0.299662 0.167428 0.449501
Si Si3 0.190532 0.667093 0.278863
Si Si4 0.000000 0.836185 0.887037
Si Si5 0.500000 0.664308 0.216292
Si Si6 0.807304 0.918551 0.636754
O O1 0.500000 0.863927 0.938348
O O2 0.693582 0.750000 0.950738
O O3 0.828334 0.864867 0.912445
O O4 0.750000 0.865327 0.000000
O O5 0.500000 0.159619 0.440843
O O6 0.238182 0.250000 0.444224
O O7 0.250000 0.138408 0.500000
O O8 0.201242 0.119536 0.412583
O O9 0.232849 0.750000 0.291405
O O10 0.329051 0.636882 0.242410
O O11 0.191077 0.622002 0.325942
O O12 0.000000 0.660187 0.257126
O O13 0.000000 0.750000 0.887074
O O14 0.000000 0.867881 0.835258
O O15 0.500000 0.750000 0.213422
O O16 0.000000 0.915278 0.655309
O O17 0.750000 0.000000 0.630585
#
# Coordination Sequence:
#
# PCOD8280319 Si02
#       6
#    16  16  16   8   8  16
#     4   9  14  20  31  48  75 115 160 205 250 298
#     4  10  21  38  59  84 113 145 180 216 261 318
#     4  10  20  36  57  78 103 136 177 223 270 325
#     4   9  16  24  36  56  84 116 162 215 254 298
#     4   9  18  32  48  70  96 129 173 221 268 311
#     4  12  24  38  57  82 110 139 178 224 270 323
#
# _framework density 19.081126999999999
#
# number of rings (size 3 to 8) (size 9 to 14) (size 15 to 20)
#    0.000    2.000    2.000    3.000    0.000    4.800 
#    0.000    6.000    0.000    0.000    0.000    0.000 
#    0.000    0.000    0.000    0.000    0.000    3.000 
#
# Total GULP energy -496012.897628 kJ/mol
# GULP energy per Si atom -12400.322441 kJ/mol
# Density = 1.903770 g / cm^3
# Si number density = 19.081127 Si / 1000 Ang^3
#
#
#
# Elastic Constant Matrix: (Units=GPa)
#
#
# Indices 1 2 3 4 5 6 
#
# 1 148.0832 22.6050 61.9803 0.0000 0.0000 0.0000
# 2 22.6050 46.8600 35.0426 0.0000 0.0000 0.0000
# 3 61.9803 35.0426 151.0149 0.0000 0.0000 0.0000
# 4 0.0000 0.0000 0.0000 -2.3120 0.0000 0.0000
# 5 0.0000 0.0000 0.0000 0.0000 29.4993 0.0000
# 6 0.0000 0.0000 0.0000 0.0000 0.0000 10.7308
#
#
#
# Elastic Compliance Matrix: (Units=1/GPa)
#
#
# Indices 1 2 3 4 5 6 
#
# 1 0.008271 -0.001756 -0.002987 0.000000 0.000000 0.000000
# 2 -0.001756 0.026194 -0.005357 0.000000 0.000000 0.000000
# 3 -0.002987 -0.005357 0.009091 0.000000 0.000000 0.000000
# 4 0.000000 0.000000 0.000000 -0.432532 0.000000 0.000000
# 5 0.000000 0.000000 0.000000 0.000000 0.033899 0.000000
# 6 0.000000 0.000000 0.000000 0.000000 0.000000 0.093189
#
#
# Mechanical properties :
#
#
# Convention : Reuss Voigt Hill
#
# Bulk Modulus (GPa) = 42.81831 65.02377 53.92104
# Shear Modulus (GPa) = -21.37658 22.67231 0.64787
#
# Velocity S-wave (km/s) = -3.35072 3.45078 0.58333
# Velocity P-wave (km/s) = 2.74210 7.07309 5.36413
#
# Compressibility (1/GPa) = 0.02335450
#
# Stress axis : x y z
#
# Youngs Moduli (GPa) = 120.89905 38.17714 109.99789
#
# Poissons Ratio (x) = 0.06704 0.32859
# Poissons Ratio (y) = 0.21232 0.58930
# Poissons Ratio (z) = 0.36116 0.20453
#
# Static dielectric constant tensor:
#      x y z
#    x 3.752910 0.000000 0.000000 
#    y 0.000000 2.968780 0.000000 
#    z 0.000000 0.000000 3.539220 
# 
# 
# High freq. dielectric constant tensor:
#      x y z
#    x 1.764040 0.000000 0.000000 
#    y 0.000000 1.681870 0.000000 
#    z 0.000000 0.000000 1.738430 
# 
# From -- ./inp_files/43401.got.cif
#   From: 2010.03.12/outbox.cif.g09.slc.cpg/sg67_22_cif.got.tgz:43401.got - 2010.04.10 22:41:39.
