data_PCOD8280472
_publ_section_title
;
Structure prediction by ZEFSAII (Michael W. Deem and Ramdas Pophale) SiO2 
 PCOD8280472
Probable space group: C M M A
;
_chemical_formula_sum "Si O2"
_cell_formula_units_Z 104
_cell_length_a 19.710742
_cell_length_b 8.969515
_cell_length_c 29.582446
_cell_angle_alpha 90.000000
_cell_angle_beta 90.000000
_cell_angle_gamma 90.000000
_cell_volume 5230.052089
_symmetry_space_group_name_H-M "C M M A"
_symmetry_group_IT_number 67
_symmetry_cell_setting 'orthorhombic'
loop_
_space_group_symop_operation_xyz
x,y,z
-x,1/2-y,z
x,-y,-z
-x,1/2+y,-z
-x,-y,-z
x,1/2+y,-z
-x,y,z
x,1/2-y,z
1/2+x,1/2+y,z
1/2-x,-y,z
1/2+x,1/2-y,-z
1/2-x,y,-z
1/2-x,1/2-y,-z
1/2+x,y,-z
1/2-x,1/2+y,z
1/2+x,-y,z
loop_
_atom_site_type_symbol
_atom_site_label
_atom_site_fract_x
_atom_site_fract_y
_atom_site_fract_z
Si Si1 0.680857 0.074190 0.379415
Si Si2 0.921123 0.424998 0.800171
Si Si3 0.422969 0.925634 0.545666
Si Si4 0.315995 0.072879 0.863016
Si Si5 0.181046 0.923940 0.277344
Si Si6 0.500000 0.916284 0.954572
Si Si7 0.853238 0.574462 0.049286
O O1 0.689786 0.250000 0.382354
O O2 0.620736 0.017987 0.411811
O O3 0.663656 0.023190 0.328260
O O4 0.750000 0.000000 0.396456
O O5 0.914819 0.250000 0.811116
O O6 0.885023 0.516427 0.839971
O O7 0.883502 0.466906 0.753379
O O8 0.000000 0.472638 0.796720
O O9 0.500000 0.976726 0.554851
O O10 0.417430 0.750000 0.539597
O O11 0.394689 0.000000 0.500000
O O12 0.312071 0.250000 0.861005
O O13 0.250000 0.000000 0.838126
O O14 0.309100 0.015274 0.914735
O O15 0.195375 0.750000 0.275535
O O16 0.250000 0.000000 0.259554
O O17 0.500000 0.750000 0.971880
O O18 0.429420 0.948945 0.929337
O O19 0.500000 0.000000 0.000000
O O20 0.833921 0.750000 0.046820
O O21 0.843811 0.500000 0.000000
#
# Coordination Sequence:
#
# PCOD8280472 Si02
#       7
#    16  16  16  16  16   8  16
#     4   9  18  32  51  77 107 140 181 227 276 329
#     4  10  22  40  62  88 117 148 184 229 280 335
#     4   9  18  32  49  70 100 140 184 230 278 329
#     4  12  26  43  62  86 116 154 194 234 281 334
#     4   9  18  34  57  83 111 145 182 224 276 335
#     4   8  16  30  52  80 112 146 178 216 264 314
#     4  10  20  37  60  89 120 154 191 232 279 329
#
# _framework density 19.885079000000001
#
# number of rings (size 3 to 8) (size 9 to 14) (size 15 to 20)
#    0.000    2.308    0.000    2.308    1.077    4.615 
#    0.000    6.154    0.000    0.000    0.000    6.462 
#    0.000    0.000    0.000    0.000    0.000    0.000 
#
# Total GULP energy -644496.173355 kJ/mol
# GULP energy per Si atom -12394.157180 kJ/mol
# Density = 1.983982 g / cm^3
# Si number density = 19.885079 Si / 1000 Ang^3
#
#
#
# Elastic Constant Matrix: (Units=GPa)
#
#
# Indices 1 2 3 4 5 6 
#
# 1 142.1809 52.2624 69.6769 0.0000 0.0000 0.0000
# 2 52.2624 74.9991 48.1823 0.0000 0.0000 0.0000
# 3 69.6769 48.1823 118.2964 0.0000 0.0000 0.0000
# 4 0.0000 0.0000 0.0000 28.9224 0.0000 0.0000
# 5 0.0000 0.0000 0.0000 0.0000 30.6670 0.0000
# 6 0.0000 0.0000 0.0000 0.0000 0.0000 29.5764
#
#
#
# Elastic Compliance Matrix: (Units=1/GPa)
#
#
# Indices 1 2 3 4 5 6 
#
# 1 0.011008 -0.004748 -0.004550 0.000000 0.000000 0.000000
# 2 -0.004748 0.020107 -0.005393 0.000000 0.000000 0.000000
# 3 -0.004550 -0.005393 0.013330 0.000000 0.000000 0.000000
# 4 0.000000 0.000000 0.000000 0.034575 0.000000 0.000000
# 5 0.000000 0.000000 0.000000 0.000000 0.032608 0.000000
# 6 0.000000 0.000000 0.000000 0.000000 0.000000 0.033811
#
#
# Mechanical properties :
#
#
# Convention : Reuss Voigt Hill
#
# Bulk Modulus (GPa) = 66.38783 75.07996 70.73389
# Shear Modulus (GPa) = 27.80218 28.85684 28.32951
#
# Velocity S-wave (km/s) = 3.74323 3.81357 3.77856
# Velocity P-wave (km/s) = 7.22084 7.56505 7.39495
#
# Compressibility (1/GPa) = 0.01506300
#
# Stress axis : x y z
#
# Youngs Moduli (GPa) = 90.84039 49.73484 75.01911
#
# Poissons Ratio (x) = 0.23613 0.34135
# Poissons Ratio (y) = 0.43130 0.40458
# Poissons Ratio (z) = 0.41333 0.26822
#
# Static dielectric constant tensor:
#      x y z
#    x 4.008300 0.000000 0.000000 
#    y 0.000000 3.479880 0.000000 
#    z 0.000000 0.000000 3.688450 
# 
# 
# High freq. dielectric constant tensor:
#      x y z
#    x 1.785290 0.000000 0.000000 
#    y 0.000000 1.766120 0.000000 
#    z 0.000000 0.000000 1.772850 
# 
# From -- ./inp_files/44661.got.cif
#   From: 2010.03.12/outbox.cif.g09.slc.cpg/sg67_23_cif.got.tgz:44661.got - 2010.04.10 22:41:39.
