data_PCOD8280646
_publ_section_title
;
Structure prediction by ZEFSAII (Michael W. Deem and Ramdas Pophale) SiO2 
 PCOD8280646
Probable space group: C M M A
;
_chemical_formula_sum "Si O2"
_cell_formula_units_Z 96
_cell_length_a 30.077642
_cell_length_b 9.056102
_cell_length_c 18.589063
_cell_angle_alpha 90.000000
_cell_angle_beta 90.000000
_cell_angle_gamma 90.000000
_cell_volume 5063.404118
_symmetry_space_group_name_H-M "C M M A"
_symmetry_group_IT_number 67
_symmetry_cell_setting 'orthorhombic'
loop_
_space_group_symop_operation_xyz
x,y,z
-x,1/2-y,z
x,-y,-z
-x,1/2+y,-z
-x,-y,-z
x,1/2+y,-z
-x,y,z
x,1/2-y,z
1/2+x,1/2+y,z
1/2-x,-y,z
1/2+x,1/2-y,-z
1/2-x,y,-z
1/2-x,1/2-y,-z
1/2+x,y,-z
1/2-x,1/2+y,z
1/2+x,-y,z
loop_
_atom_site_type_symbol
_atom_site_label
_atom_site_fract_x
_atom_site_fract_y
_atom_site_fract_z
Si Si1 0.948768 0.580728 0.802117
Si Si2 0.882089 0.423922 0.074907
Si Si3 0.794557 0.577327 0.680514
Si Si4 0.051563 0.077858 0.655834
Si Si5 0.794549 0.076362 0.155416
Si Si6 0.127223 0.425123 0.426030
O O1 0.937169 0.750000 0.781605
O O2 0.920373 0.527151 0.869925
O O3 0.935840 0.479853 0.734847
O O4 0.000000 0.562682 0.823573
O O5 0.882279 0.250000 0.063299
O O6 0.834931 0.478599 0.105951
O O7 0.892474 0.500000 0.000000
O O8 0.786271 0.750000 0.674514
O O9 0.750000 0.500000 0.651342
O O10 0.804553 0.528730 0.762454
O O11 0.836384 0.528182 0.633042
O O12 0.063125 0.250000 0.651347
O O13 0.000000 0.046880 0.639122
O O14 0.079495 0.989050 0.596854
O O15 0.788005 0.250000 0.149831
O O16 0.750000 0.000000 0.126242
O O17 0.142223 0.500000 0.500000
O O18 0.123569 0.250000 0.435441
#
# Coordination Sequence:
#
# PCOD8280646 Si02
#       6
#    16  16  16  16  16  16
#     4   9  18  35  58  80 104 138 177 217 265 319
#     4  10  21  35  51  75 108 142 176 216 263 315
#     4   9  19  36  58  81 105 137 178 223 269 318
#     4  10  21  37  58  84 110 138 178 226 272 320
#     4   9  18  34  54  75 100 132 173 218 262 310
#     4  11  23  38  56  80 112 148 183 220 266 320
#
# _framework density 18.959575999999998
#
# number of rings (size 3 to 8) (size 9 to 14) (size 15 to 20)
#    0.000    2.333    0.000    2.000    0.000    7.667 
#    0.000    6.667    0.000    0.000    0.000    0.000 
#    0.000    0.000    0.000    0.000    0.000    0.000 
#
# Total GULP energy -595395.438725 kJ/mol
# GULP energy per Si atom -12404.071640 kJ/mol
# Density = 1.891642 g / cm^3
# Si number density = 18.959576 Si / 1000 Ang^3
#
#
#
# Elastic Constant Matrix: (Units=GPa)
#
#
# Indices 1 2 3 4 5 6 
#
# 1 72.8930 28.2254 21.8191 0.0000 0.0000 0.0000
# 2 28.2254 53.7028 23.5235 0.0000 0.0000 0.0000
# 3 21.8191 23.5235 59.0688 0.0000 0.0000 0.0000
# 4 0.0000 0.0000 0.0000 35.4722 0.0000 0.0000
# 5 0.0000 0.0000 0.0000 0.0000 18.5714 0.0000
# 6 0.0000 0.0000 0.0000 0.0000 0.0000 30.4144
#
#
#
# Elastic Compliance Matrix: (Units=1/GPa)
#
#
# Indices 1 2 3 4 5 6 
#
# 1 0.017786 -0.007837 -0.003449 0.000000 0.000000 0.000000
# 2 -0.007837 0.026009 -0.007463 0.000000 0.000000 0.000000
# 3 -0.003449 -0.007463 0.021175 0.000000 0.000000 0.000000
# 4 0.000000 0.000000 0.000000 0.028191 0.000000 0.000000
# 5 0.000000 0.000000 0.000000 0.000000 0.053846 0.000000
# 6 0.000000 0.000000 0.000000 0.000000 0.000000 0.032879
#
#
# Mechanical properties :
#
#
# Convention : Reuss Voigt Hill
#
# Bulk Modulus (GPa) = 36.40001 36.97784 36.68893
# Shear Modulus (GPa) = 22.07095 24.36470 23.21783
#
# Velocity S-wave (km/s) = 3.41560 3.58870 3.50322
# Velocity P-wave (km/s) = 5.89877 6.05950 5.97968
#
# Compressibility (1/GPa) = 0.02747252
#
# Stress axis : x y z
#
# Youngs Moduli (GPa) = 56.22471 38.44793 47.22485
#
# Poissons Ratio (x) = 0.30133 0.16286
# Poissons Ratio (y) = 0.44065 0.35243
# Poissons Ratio (z) = 0.19390 0.28693
#
# Static dielectric constant tensor:
#      x y z
#    x 3.601350 0.000000 0.000000 
#    y 0.000000 3.401710 0.000000 
#    z 0.000000 0.000000 3.443030 
# 
# 
# High freq. dielectric constant tensor:
#      x y z
#    x 1.746710 0.000000 0.000000 
#    y 0.000000 1.732070 0.000000 
#    z 0.000000 0.000000 1.732440 
# 
# From -- ./inp_files/39870.got.cif
#   From: 2010.03.12/outbox.cif.g09.slc.cpg/sg67_20_cif.got.tgz:39870.got - 2010.04.10 22:41:39.
