data_PCOD8280213
_publ_section_title
;
Structure prediction by ZEFSAII (Michael W. Deem and Ramdas Pophale) SiO2 
 PCOD8280213
Probable space group: C M M A
;
_chemical_formula_sum "Si O2"
_cell_formula_units_Z 64
_cell_length_a 8.735054
_cell_length_b 18.354009
_cell_length_c 20.336596
_cell_angle_alpha 90.000000
_cell_angle_beta 90.000000
_cell_angle_gamma 90.000000
_cell_volume 3260.429363
_symmetry_space_group_name_H-M "C M M A"
_symmetry_group_IT_number 67
_symmetry_cell_setting 'orthorhombic'
loop_
_space_group_symop_operation_xyz
x,y,z
-x,1/2-y,z
x,-y,-z
-x,1/2+y,-z
-x,-y,-z
x,1/2+y,-z
-x,y,z
x,1/2-y,z
1/2+x,1/2+y,z
1/2-x,-y,z
1/2+x,1/2-y,-z
1/2-x,y,-z
1/2-x,1/2-y,-z
1/2+x,y,-z
1/2-x,1/2+y,z
1/2+x,-y,z
loop_
_atom_site_type_symbol
_atom_site_label
_atom_site_fract_x
_atom_site_fract_y
_atom_site_fract_z
Si Si1 0.820889 0.422836 0.567989
Si Si2 0.180093 0.166571 0.930294
Si Si3 0.176536 0.165077 0.696073
Si Si4 0.679701 0.078663 0.811825
O O1 0.750000 0.500000 0.588608
O O2 0.750000 0.393491 0.500000
O O3 0.782287 0.364853 0.624206
O O4 0.000000 0.433550 0.557961
O O5 0.221978 0.250000 0.912522
O O6 0.250044 0.113700 0.876663
O O7 0.000000 0.154903 0.933113
O O8 0.250000 0.144292 0.000000
O O9 0.211570 0.250000 0.695931
O O10 0.285071 0.128363 0.749286
O O11 0.000000 0.148678 0.714280
O O12 0.500000 0.071418 0.821274
O O13 0.750000 0.000000 0.799193
#
# Coordination Sequence:
#
# PCOD8280213 Si02
#       4
#    16  16  16  16
#     4  10  20  35  57  83 113 150 190 234 284 339
#     4  10  21  39  63  90 121 155 191 234 284 339
#     4  10  22  40  60  84 116 152 190 236 290 344
#     4  12  25  40  60  86 116 152 195 240 288 342
#
# _framework density 19.629314999999998
#
# number of rings (size 3 to 8) (size 9 to 14) (size 15 to 20)
#    0.000    1.500    0.000    6.000    0.000   10.000 
#    0.000    2.500    0.000    0.000    0.000    0.000 
#    0.000    0.000    0.000    0.000    0.000    0.000 
#
# Total GULP energy -396983.840314 kJ/mol
# GULP energy per Si atom -12405.745010 kJ/mol
# Density = 1.958464 g / cm^3
# Si number density = 19.629315 Si / 1000 Ang^3
#
#
#
# Elastic Constant Matrix: (Units=GPa)
#
#
# Indices 1 2 3 4 5 6 
#
# 1 98.1261 38.3560 55.9098 0.0000 0.0000 0.0000
# 2 38.3560 108.8021 70.1890 0.0000 0.0000 0.0000
# 3 55.9098 70.1890 129.3254 0.0000 0.0000 0.0000
# 4 0.0000 0.0000 0.0000 45.4634 0.0000 0.0000
# 5 0.0000 0.0000 0.0000 0.0000 40.3940 0.0000
# 6 0.0000 0.0000 0.0000 0.0000 0.0000 25.7842
#
#
#
# Elastic Compliance Matrix: (Units=1/GPa)
#
#
# Indices 1 2 3 4 5 6 
#
# 1 0.013690 -0.001551 -0.005076 0.000000 0.000000 0.000000
# 2 -0.001551 0.014318 -0.007100 0.000000 0.000000 0.000000
# 3 -0.005076 -0.007100 0.013781 0.000000 0.000000 0.000000
# 4 0.000000 0.000000 0.000000 0.021996 0.000000 0.000000
# 5 0.000000 0.000000 0.000000 0.000000 0.024756 0.000000
# 6 0.000000 0.000000 0.000000 0.000000 0.000000 0.038783
#
#
# Mechanical properties :
#
#
# Convention : Reuss Voigt Hill
#
# Bulk Modulus (GPa) = 69.77062 73.90704 71.83883
# Shear Modulus (GPa) = 31.33661 33.78157 32.55909
#
# Velocity S-wave (km/s) = 3.99986 4.15296 4.07713
# Velocity P-wave (km/s) = 7.54672 7.79290 7.67080
#
# Compressibility (1/GPa) = 0.01433268
#
# Stress axis : x y z
#
# Youngs Moduli (GPa) = 73.04740 69.84027 72.56521
#
# Poissons Ratio (x) = 0.10834 0.36837
# Poissons Ratio (y) = 0.11331 0.51524
# Poissons Ratio (z) = 0.37082 0.49590
#
# Static dielectric constant tensor:
#      x y z
#    x 3.665820 0.000000 0.000000 
#    y 0.000000 3.629990 0.000000 
#    z 0.000000 0.000000 3.628620 
# 
# 
# High freq. dielectric constant tensor:
#      x y z
#    x 1.775770 0.000000 0.000000 
#    y 0.000000 1.767740 0.000000 
#    z 0.000000 0.000000 1.780540 
# 
# From -- ./inp_files/36566.got.cif
#   From: 2010.03.12/outbox.cif.g09.slc.cpg/sg67_19_cif.got.tgz:36566.got - 2010.04.10 22:41:39.
