data_PCOD8280404
_publ_section_title
;
Structure prediction by ZEFSAII (Michael W. Deem and Ramdas Pophale) SiO2 
 PCOD8280404
Probable space group: C M M A
;
_chemical_formula_sum "Si O2"
_cell_formula_units_Z 112
_cell_length_a 24.742962
_cell_length_b 19.079010
_cell_length_c 12.063279
_cell_angle_alpha 90.000000
_cell_angle_beta 90.000000
_cell_angle_gamma 90.000000
_cell_volume 5694.726828
_symmetry_space_group_name_H-M "C M M A"
_symmetry_group_IT_number 67
_symmetry_cell_setting 'orthorhombic'
loop_
_space_group_symop_operation_xyz
x,y,z
-x,1/2-y,z
x,-y,-z
-x,1/2+y,-z
-x,-y,-z
x,1/2+y,-z
-x,y,z
x,1/2-y,z
1/2+x,1/2+y,z
1/2-x,-y,z
1/2+x,1/2-y,-z
1/2-x,y,-z
1/2-x,1/2-y,-z
1/2+x,y,-z
1/2-x,1/2+y,z
1/2+x,-y,z
loop_
_atom_site_type_symbol
_atom_site_label
_atom_site_fract_x
_atom_site_fract_y
_atom_site_fract_z
Si Si1 0.059737 0.886943 0.698516
Si Si2 0.643575 0.329161 0.855398
Si Si3 0.301516 0.829027 0.576102
Si Si4 0.098692 0.079290 0.530422
Si Si5 0.438939 0.545431 0.764668
Si Si6 0.351795 0.924471 0.950263
Si Si7 0.732133 0.668342 0.823660
O O1 0.105478 0.836263 0.747690
O O2 0.061292 0.887259 0.564859
O O3 0.000000 0.860821 0.733436
O O4 0.071064 0.963802 0.746268
O O5 0.640998 0.250000 0.898157
O O6 0.704697 0.350327 0.825370
O O7 0.621224 0.379272 0.951840
O O8 0.323820 0.750000 0.569532
O O9 0.250000 0.838306 0.500000
O O10 0.345072 0.881283 0.528889
O O11 0.288258 0.849042 0.701625
O O12 0.069404 0.086658 0.648952
O O13 0.112090 0.000000 0.500000
O O14 0.500000 0.560113 0.806220
O O15 0.396582 0.572056 0.854915
O O16 0.298646 0.882988 0.908502
O O17 0.335155 0.000000 0.000000
O O18 0.722033 0.750000 0.855991
#
# Coordination Sequence:
#
# PCOD8280404 Si02
#       7
#    16  16  16  16  16  16  16
#     4  10  21  39  62  89 122 160 201 250 306 363
#     4  11  24  41  61  89 124 163 206 247 303 366
#     4  10  20  36  60  88 122 163 201 243 303 370
#     4  10  20  37  62  91 120 155 203 250 307 367
#     4  10  21  40  63  89 121 157 202 255 310 361
#     4  12  23  40  63  94 119 161 206 257 303 363
#     4  10  22  41  63  87 123 164 201 248 306 366
#
# _framework density 19.667317000000001
#
# number of rings (size 3 to 8) (size 9 to 14) (size 15 to 20)
#    0.000    1.571    2.857    2.143    0.000    7.143 
#    0.000    1.429    0.000    4.286    0.000    0.000 
#    0.000    0.000    0.000    0.000    0.000    0.000 
#
# Total GULP energy -694470.512446 kJ/mol
# GULP energy per Si atom -12401.259151 kJ/mol
# Density = 1.962255 g / cm^3
# Si number density = 19.667317 Si / 1000 Ang^3
#
#
#
# Elastic Constant Matrix: (Units=GPa)
#
#
# Indices 1 2 3 4 5 6 
#
# 1 116.4782 43.9474 54.6511 0.0000 0.0000 0.0000
# 2 43.9474 75.5145 46.9285 0.0000 0.0000 0.0000
# 3 54.6511 46.9285 94.9639 0.0000 0.0000 0.0000
# 4 0.0000 0.0000 0.0000 25.1600 0.0000 0.0000
# 5 0.0000 0.0000 0.0000 0.0000 28.6294 0.0000
# 6 0.0000 0.0000 0.0000 0.0000 0.0000 12.8406
#
#
#
# Elastic Compliance Matrix: (Units=1/GPa)
#
#
# Indices 1 2 3 4 5 6 
#
# 1 0.012572 -0.004070 -0.005224 0.000000 0.000000 0.000000
# 2 -0.004070 0.020430 -0.007753 0.000000 0.000000 0.000000
# 3 -0.005224 -0.007753 0.017368 0.000000 0.000000 0.000000
# 4 0.000000 0.000000 0.000000 0.039746 0.000000 0.000000
# 5 0.000000 0.000000 0.000000 0.000000 0.034929 0.000000
# 6 0.000000 0.000000 0.000000 0.000000 0.000000 0.077878
#
#
# Mechanical properties :
#
#
# Convention : Reuss Voigt Hill
#
# Bulk Modulus (GPa) = 61.44395 64.22341 62.83368
# Shear Modulus (GPa) = 20.62351 22.75464 21.68907
#
# Velocity S-wave (km/s) = 3.24175 3.40513 3.32444
# Velocity P-wave (km/s) = 6.73212 6.94159 6.83765
#
# Compressibility (1/GPa) = 0.01627500
#
# Stress axis : x y z
#
# Youngs Moduli (GPa) = 79.54221 48.94862 57.57730
#
# Poissons Ratio (x) = 0.19924 0.30076
# Poissons Ratio (y) = 0.32376 0.44641
# Poissons Ratio (z) = 0.41550 0.37951
#
# Static dielectric constant tensor:
#      x y z
#    x 3.493840 0.000000 0.000000 
#    y 0.000000 3.536520 0.000000 
#    z 0.000000 0.000000 3.835410 
# 
# 
# High freq. dielectric constant tensor:
#      x y z
#    x 1.765310 0.000000 0.000000 
#    y 0.000000 1.756640 0.000000 
#    z 0.000000 0.000000 1.781690 
# 
# From -- ./inp_files/22140.got.cif
#   From: 2010.03.12/outbox.cif.g09.slc.cpg/sg67_12_cif.got.tgz:22140.got - 2010.04.10 22:41:39.
