data_PCOD8280783
_publ_section_title
;
Structure prediction by ZEFSAII (Michael W. Deem and Ramdas Pophale) SiO2 
 PCOD8280783
Probable space group: C M M A
;
_chemical_formula_sum "Si O2"
_cell_formula_units_Z 52
_cell_length_a 31.888527
_cell_length_b 13.349048
_cell_length_c 5.251142
_cell_angle_alpha 90.000000
_cell_angle_beta 90.000000
_cell_angle_gamma 90.000000
_cell_volume 2235.313886
_symmetry_space_group_name_H-M "C M M A"
_symmetry_group_IT_number 67
_symmetry_cell_setting 'orthorhombic'
loop_
_space_group_symop_operation_xyz
x,y,z
-x,1/2-y,z
x,-y,-z
-x,1/2+y,-z
-x,-y,-z
x,1/2+y,-z
-x,y,z
x,1/2-y,z
1/2+x,1/2+y,z
1/2-x,-y,z
1/2+x,1/2-y,-z
1/2-x,y,-z
1/2-x,1/2-y,-z
1/2+x,y,-z
1/2-x,1/2+y,z
1/2+x,-y,z
loop_
_atom_site_type_symbol
_atom_site_label
_atom_site_fract_x
_atom_site_fract_y
_atom_site_fract_z
Si Si1 0.045580 0.565179 0.248940
Si Si2 0.866021 0.862354 0.333382
Si Si3 0.321592 0.629402 0.167267
Si Si4 0.750000 0.000000 0.000000
O O1 0.043417 0.500000 0.500000
O O2 0.083882 0.640757 0.290302
O O3 0.000000 0.619957 0.215930
O O4 0.054925 0.500000 0.000000
O O5 0.849867 0.750000 0.346118
O O6 0.851749 0.910651 0.603175
O O7 0.842592 0.911706 0.093805
O O8 0.316114 0.750000 0.171565
O O9 0.276914 0.573610 0.183726
#
# Coordination Sequence:
#
# PCOD8280783 Si02
#       4
#    16  16  16   4
#     4  10  21  36  59  92 126 159 202 251 293 355
#     4  10  22  41  62  88 124 163 200 253 309 362
#     4  10  24  42  62  92 125 157 208 262 308 375
#     4  12  26  42  68  92 118 170 206 258 336 376
#
# _framework density 23.26295
#
# number of rings (size 3 to 8) (size 9 to 14) (size 15 to 20)
#    0.000    1.846    0.000    2.308    6.462    3.077 
#    0.000    4.615    0.000   11.077    0.000    0.000 
#    0.000    0.000    0.000    0.000    0.000    0.000 
#
# Total GULP energy -322214.562995 kJ/mol
# GULP energy per Si atom -12392.867807 kJ/mol
# Density = 2.321000 g / cm^3
# Si number density = 23.262950 Si / 1000 Ang^3
#
#
#
# Elastic Constant Matrix: (Units=GPa)
#
#
# Indices 1 2 3 4 5 6 
#
# 1 186.1870 36.5509 72.8269 0.0000 0.0000 0.0000
# 2 36.5509 30.8498 39.2311 0.0000 0.0000 0.0000
# 3 72.8269 39.2311 206.4704 0.0000 0.0000 0.0000
# 4 0.0000 0.0000 0.0000 23.9223 0.0000 0.0000
# 5 0.0000 0.0000 0.0000 0.0000 37.0742 0.0000
# 6 0.0000 0.0000 0.0000 0.0000 0.0000 40.3520
#
#
#
# Elastic Compliance Matrix: (Units=1/GPa)
#
#
# Indices 1 2 3 4 5 6 
#
# 1 0.007223 -0.007012 -0.001215 0.000000 0.000000 0.000000
# 2 -0.007012 0.049551 -0.006942 0.000000 0.000000 0.000000
# 3 -0.001215 -0.006942 0.006591 0.000000 0.000000 0.000000
# 4 0.000000 0.000000 0.000000 0.041802 0.000000 0.000000
# 5 0.000000 0.000000 0.000000 0.000000 0.026973 0.000000
# 6 0.000000 0.000000 0.000000 0.000000 0.000000 0.024782
#
#
# Mechanical properties :
#
#
# Convention : Reuss Voigt Hill
#
# Bulk Modulus (GPa) = 30.27896 80.08055 55.17976
# Shear Modulus (GPa) = 25.21831 38.59625 31.90728
#
# Velocity S-wave (km/s) = 3.29607 4.07766 3.70752
# Velocity P-wave (km/s) = 5.24687 7.52785 6.48838
#
# Compressibility (1/GPa) = 0.03302623
#
# Stress axis : x y z
#
# Youngs Moduli (GPa) = 138.44852 20.18130 151.72310
#
# Poissons Ratio (x) = 0.14152 0.18439
# Poissons Ratio (y) = 0.97083 1.05321
# Poissons Ratio (z) = 0.16826 0.14009
#
# Static dielectric constant tensor:
#      x y z
#    x 4.609390 0.000000 0.000000 
#    y 0.000000 3.787240 0.000000 
#    z 0.000000 0.000000 4.530490 
# 
# 
# High freq. dielectric constant tensor:
#      x y z
#    x 1.926760 0.000000 0.000000 
#    y 0.000000 1.909780 0.000000 
#    z 0.000000 0.000000 1.936380 
# 
# From -- ./inp_files/1378.got.cif
#   From: 2010.03.12/outbox.cif.g09.slc.cpg/sg67_1_cif.got.tgz:1378.got - 2010.04.10 22:41:39.
