data_PCOD8280762
_publ_section_title
;
Structure prediction by ZEFSAII (Michael W. Deem and Ramdas Pophale) SiO2 
 PCOD8280762
Probable space group: C M M A
;
_chemical_formula_sum "Si O2"
_cell_formula_units_Z 72
_cell_length_a 15.776762
_cell_length_b 8.753911
_cell_length_c 24.745155
_cell_angle_alpha 90.000000
_cell_angle_beta 90.000000
_cell_angle_gamma 90.000000
_cell_volume 3417.513033
_symmetry_space_group_name_H-M "C M M A"
_symmetry_group_IT_number 67
_symmetry_cell_setting 'orthorhombic'
loop_
_space_group_symop_operation_xyz
x,y,z
-x,1/2-y,z
x,-y,-z
-x,1/2+y,-z
-x,-y,-z
x,1/2+y,-z
-x,y,z
x,1/2-y,z
1/2+x,1/2+y,z
1/2-x,-y,z
1/2+x,1/2-y,-z
1/2-x,y,-z
1/2-x,1/2-y,-z
1/2+x,y,-z
1/2-x,1/2+y,z
1/2+x,-y,z
loop_
_atom_site_type_symbol
_atom_site_label
_atom_site_fract_x
_atom_site_fract_y
_atom_site_fract_z
Si Si1 0.097961 0.917141 0.158023
Si Si2 0.839221 0.569447 0.619686
Si Si3 0.000000 0.432147 0.559265
Si Si4 0.597319 0.426750 0.735882
Si Si5 0.842052 0.429570 0.053831
O O1 0.138532 0.750000 0.145916
O O2 0.000000 0.899809 0.170270
O O3 0.138488 0.985135 0.212855
O O4 0.106674 0.029035 0.107288
O O5 0.842176 0.750000 0.608295
O O6 0.750000 0.500000 0.599437
O O7 0.915628 0.489822 0.588559
O O8 0.848526 0.532280 0.683145
O O9 0.000000 0.500000 0.500000
O O10 0.000000 0.250000 0.557714
O O11 0.500000 0.474095 0.724631
O O12 0.602717 0.250000 0.750414
O O13 0.837282 0.250000 0.046641
O O14 0.750000 0.500000 0.060491
O O15 0.886064 0.500000 0.000000
#
# Coordination Sequence:
#
# PCOD8280762 Si02
#       5
#    16  16   8  16  16
#     4  10  21  36  56  85 118 153 196 245 297 360
#     4  11  23  42  67 100 136 175 221 271 323 386
#     4  12  26  46  72 100 134 178 221 270 327 382
#     4   9  18  36  60  85 121 166 205 252 312 371
#     4  11  22  38  58  78 106 145 190 243 302 366
#
# _framework density 21.067951000000001
#
# number of rings (size 3 to 8) (size 9 to 14) (size 15 to 20)
#    0.000    1.556    1.111    5.000    0.000    4.889 
#    0.000    4.444    0.000    0.000    0.000    0.000 
#    0.000    0.000    0.000    0.000    0.000    0.000 
#
# Total GULP energy -446384.849360 kJ/mol
# GULP energy per Si atom -12399.579149 kJ/mol
# Density = 2.102000 g / cm^3
# Si number density = 21.067951 Si / 1000 Ang^3
#
#
#
# Elastic Constant Matrix: (Units=GPa)
#
#
# Indices 1 2 3 4 5 6 
#
# 1 95.6295 51.3167 48.8715 0.0000 0.0000 0.0000
# 2 51.3167 175.0863 78.6562 0.0000 0.0000 0.0000
# 3 48.8715 78.6562 143.3512 0.0000 0.0000 0.0000
# 4 0.0000 0.0000 0.0000 33.1178 0.0000 0.0000
# 5 0.0000 0.0000 0.0000 0.0000 -2.0182 0.0000
# 6 0.0000 0.0000 0.0000 0.0000 0.0000 30.9861
#
#
#
# Elastic Compliance Matrix: (Units=1/GPa)
#
#
# Indices 1 2 3 4 5 6 
#
# 1 0.013438 -0.002496 -0.003212 0.000000 0.000000 0.000000
# 2 -0.002496 0.008043 -0.003563 0.000000 0.000000 0.000000
# 3 -0.003212 -0.003563 0.010026 0.000000 0.000000 0.000000
# 4 0.000000 0.000000 0.000000 0.030195 0.000000 0.000000
# 5 0.000000 0.000000 0.000000 0.000000 -0.495482 0.000000
# 6 0.000000 0.000000 0.000000 0.000000 0.000000 0.032273
#
#
# Mechanical properties :
#
#
# Convention : Reuss Voigt Hill
#
# Bulk Modulus (GPa) = 77.12114 85.75064 81.43589
# Shear Modulus (GPa) = -13.20496 28.09862 7.44683
#
# Velocity S-wave (km/s) = -2.50627 3.65597 1.88211
# Velocity P-wave (km/s) = 5.32073 7.65583 6.59249
#
# Compressibility (1/GPa) = 0.01296661
#
# Stress axis : x y z
#
# Youngs Moduli (GPa) = 74.41790 124.32611 99.74436
#
# Poissons Ratio (x) = 0.31027 0.32036
# Poissons Ratio (y) = 0.18572 0.35535
# Poissons Ratio (z) = 0.23902 0.44292
#
# Static dielectric constant tensor:
#      x y z
#    x 3.605540 0.000000 0.000000 
#    y 0.000000 4.080290 0.000000 
#    z 0.000000 0.000000 4.848980 
# 
# 
# High freq. dielectric constant tensor:
#      x y z
#    x 1.809480 0.000000 0.000000 
#    y 0.000000 1.837330 0.000000 
#    z 0.000000 0.000000 1.836000 
# 
# From -- ./inp_files/42118.got.cif
#   From: 2010.03.12/outbox.cif.g09.slc.cpg/sg67_22_cif.got.tgz:42118.got - 2010.04.10 22:41:39.
