data_PCOD8280894
_publ_section_title
;
Structure prediction by ZEFSAII (Michael W. Deem and Ramdas Pophale) SiO2 
 PCOD8280894
Probable space group: C M M A
;
_chemical_formula_sum "Si O2"
_cell_formula_units_Z 64
_cell_length_a 8.754126
_cell_length_b 18.627875
_cell_length_c 21.184730
_cell_angle_alpha 90.000000
_cell_angle_beta 90.000000
_cell_angle_gamma 90.000000
_cell_volume 3454.610125
_symmetry_space_group_name_H-M "C M M A"
_symmetry_group_IT_number 67
_symmetry_cell_setting 'orthorhombic'
loop_
_space_group_symop_operation_xyz
x,y,z
-x,1/2-y,z
x,-y,-z
-x,1/2+y,-z
-x,-y,-z
x,1/2+y,-z
-x,y,z
x,1/2-y,z
1/2+x,1/2+y,z
1/2-x,-y,z
1/2+x,1/2-y,-z
1/2-x,y,-z
1/2-x,1/2-y,-z
1/2+x,y,-z
1/2-x,1/2+y,z
1/2+x,-y,z
loop_
_atom_site_type_symbol
_atom_site_label
_atom_site_fract_x
_atom_site_fract_y
_atom_site_fract_z
Si Si1 0.679202 0.921757 0.302779
Si Si2 0.178073 0.078454 0.439416
Si Si3 0.324220 0.165409 0.934496
Si Si4 0.319582 0.421019 0.177859
O O1 0.500000 0.927096 0.288963
O O2 0.709670 0.883229 0.371110
O O3 0.759901 0.883285 0.243107
O O4 0.750000 0.000000 0.306933
O O5 0.250000 0.120956 0.500000
O O6 0.000000 0.071011 0.451080
O O7 0.250000 0.000000 0.437325
O O8 0.500000 0.140833 0.933066
O O9 0.307821 0.250000 0.925667
O O10 0.231169 0.128457 0.879183
O O11 0.250000 0.140109 0.000000
O O12 0.500000 0.426868 0.179371
O O13 0.250000 0.500000 0.169782
#
# Coordination Sequence:
#
# PCOD8280894 Si02
#       4
#    16  16  16  16
#     4   9  16  26  39  58  86 120 157 196 240 285
#     4   9  15  21  32  50  76 112 152 192 232 279
#     4  10  21  38  58  78 101 128 159 197 241 289
#     4  11  21  33  51  74 101 132 166 203 244 290
#
# _framework density 18.525969
#
# number of rings (size 3 to 8) (size 9 to 14) (size 15 to 20)
#    0.000    2.250    0.000    6.750    0.000    5.000 
#    0.000    2.500    0.000    0.000    0.000    0.000 
#    0.000    1.000    0.000    3.250    0.000   12.250 
#
# Total GULP energy -396434.813194 kJ/mol
# GULP energy per Si atom -12388.587912 kJ/mol
# Density = 1.848380 g / cm^3
# Si number density = 18.525969 Si / 1000 Ang^3
#
#
#
# Elastic Constant Matrix: (Units=GPa)
#
#
# Indices 1 2 3 4 5 6 
#
# 1 162.0218 20.2600 89.7836 0.0000 0.0000 0.0000
# 2 20.2600 12.7049 28.9471 0.0000 0.0000 0.0000
# 3 89.7836 28.9471 215.1499 0.0000 0.0000 0.0000
# 4 0.0000 0.0000 0.0000 -7.3184 0.0000 0.0000
# 5 0.0000 0.0000 0.0000 0.0000 34.3305 0.0000
# 6 0.0000 0.0000 0.0000 0.0000 0.0000 16.6667
#
#
#
# Elastic Compliance Matrix: (Units=1/GPa)
#
#
# Indices 1 2 3 4 5 6 
#
# 1 0.008550 -0.007939 -0.002500 0.000000 0.000000 0.000000
# 2 -0.007939 0.120876 -0.012950 0.000000 0.000000 0.000000
# 3 -0.002500 -0.012950 0.007434 0.000000 0.000000 0.000000
# 4 0.000000 0.000000 0.000000 -0.136642 0.000000 0.000000
# 5 0.000000 0.000000 0.000000 0.000000 0.029129 0.000000
# 6 0.000000 0.000000 0.000000 0.000000 0.000000 0.060000
#
#
# Mechanical properties :
#
#
# Convention : Reuss Voigt Hill
#
# Bulk Modulus (GPa) = 11.10103 74.20644 42.65374
# Shear Modulus (GPa) = 30.09327 25.46149 27.77738
#
# Velocity S-wave (km/s) = 4.03474 3.71127 3.87638
# Velocity P-wave (km/s) = 5.26409 7.64899 6.56573
#
# Compressibility (1/GPa) = 0.09008175
#
# Stress axis : x y z
#
# Youngs Moduli (GPa) = 116.95932 8.27297 134.52574
#
# Poissons Ratio (x) = 0.06568 0.33630
# Poissons Ratio (y) = 0.92849 1.74214
# Poissons Ratio (z) = 0.29239 0.10714
#
# Static dielectric constant tensor:
#      x y z
#    x 3.657450 0.000000 0.000000 
#    y 0.000000 2.713910 0.000000 
#    z 0.000000 0.000000 4.846770 
# 
# 
# High freq. dielectric constant tensor:
#      x y z
#    x 1.741920 0.000000 0.000000 
#    y 0.000000 1.630940 0.000000 
#    z 0.000000 0.000000 1.759730 
# 
# From -- ./inp_files/34638.got.cif
#   From: 2010.03.12/outbox.cif.g09.slc.cpg/sg67_18_cif.got.tgz:34638.got - 2010.04.10 22:41:39.
