data_PCOD8280634
_publ_section_title
;
Structure prediction by ZEFSAII (Michael W. Deem and Ramdas Pophale) SiO2 
 PCOD8280634
Probable space group: C M M A
;
_chemical_formula_sum "Si O2"
_cell_formula_units_Z 80
_cell_length_a 9.918960
_cell_length_b 17.983675
_cell_length_c 25.603576
_cell_angle_alpha 90.000000
_cell_angle_beta 90.000000
_cell_angle_gamma 90.000000
_cell_volume 4567.149321
_symmetry_space_group_name_H-M "C M M A"
_symmetry_group_IT_number 67
_symmetry_cell_setting 'orthorhombic'
loop_
_space_group_symop_operation_xyz
x,y,z
-x,1/2-y,z
x,-y,-z
-x,1/2+y,-z
-x,-y,-z
x,1/2+y,-z
-x,y,z
x,1/2-y,z
1/2+x,1/2+y,z
1/2-x,-y,z
1/2+x,1/2-y,-z
1/2-x,y,-z
1/2-x,1/2-y,-z
1/2+x,y,-z
1/2-x,1/2+y,z
1/2+x,-y,z
loop_
_atom_site_type_symbol
_atom_site_label
_atom_site_fract_x
_atom_site_fract_y
_atom_site_fract_z
Si Si1 0.651188 0.161622 0.159422
Si Si2 0.154477 0.663549 0.750995
Si Si3 0.156129 0.929019 0.648738
Si Si4 0.348854 0.161483 0.043544
Si Si5 0.654466 0.663974 0.453512
O O1 0.500000 0.134188 0.172989
O O2 0.656172 0.250000 0.159878
O O3 0.754504 0.129873 0.202338
O O4 0.693206 0.133436 0.101504
O O5 0.185322 0.750000 0.741154
O O6 0.191508 0.621300 0.698277
O O7 0.000000 0.651120 0.767318
O O8 0.191420 0.881977 0.597647
O O9 0.000000 0.953522 0.649118
O O10 0.250000 0.000000 0.649943
O O11 0.500000 0.134799 0.030536
O O12 0.341532 0.250000 0.042087
O O13 0.250000 0.126475 0.000000
O O14 0.500000 0.651192 0.470606
O O15 0.682211 0.750000 0.440739
O O16 0.750000 0.635462 0.500000
#
# Coordination Sequence:
#
# PCOD8280634 Si02
#       5
#    16  16  16  16  16
#     4   8  14  24  37  56  83 113 146 186 230 272
#     4   9  17  30  48  67  87 116 155 194 230 271
#     4  10  21  35  50  70  97 126 155 190 232 275
#     4   8  13  20  30  47  75 110 144 178 219 267
#     4   9  18  34  55  76  98 125 157 192 228 268
#
# _framework density 17.516396
#
# number of rings (size 3 to 8) (size 9 to 14) (size 15 to 20)
#    0.000    3.200    0.000    1.800    0.000    5.200 
#    0.000    6.000    0.000    6.000    0.000    0.000 
#    0.000    0.800    0.000    8.800    0.000   14.400 
#
# Total GULP energy -495859.558970 kJ/mol
# GULP energy per Si atom -12396.488974 kJ/mol
# Density = 1.747653 g / cm^3
# Si number density = 17.516396 Si / 1000 Ang^3
#
#
#
# Elastic Constant Matrix: (Units=GPa)
#
#
# Indices 1 2 3 4 5 6 
#
# 1 114.2888 44.0036 111.8478 0.0000 0.0000 0.0000
# 2 44.0036 43.6267 48.2940 0.0000 0.0000 0.0000
# 3 111.8478 48.2940 182.9830 0.0000 0.0000 0.0000
# 4 0.0000 0.0000 0.0000 -1.1881 0.0000 0.0000
# 5 0.0000 0.0000 0.0000 0.0000 40.1644 0.0000
# 6 0.0000 0.0000 0.0000 0.0000 0.0000 21.6642
#
#
#
# Elastic Compliance Matrix: (Units=1/GPa)
#
#
# Indices 1 2 3 4 5 6 
#
# 1 0.025557 -0.011987 -0.012458 0.000000 0.000000 0.000000
# 2 -0.011987 0.038005 -0.002704 0.000000 0.000000 0.000000
# 3 -0.012458 -0.002704 0.013793 0.000000 0.000000 0.000000
# 4 0.000000 0.000000 0.000000 -0.841714 0.000000 0.000000
# 5 0.000000 0.000000 0.000000 0.000000 0.024898 0.000000
# 6 0.000000 0.000000 0.000000 0.000000 0.000000 0.046159
#
#
# Mechanical properties :
#
#
# Convention : Reuss Voigt Hill
#
# Bulk Modulus (GPa) = 43.36795 83.24326 63.30560
# Shear Modulus (GPa) = -7.91992 21.24498 6.66253
#
# Velocity S-wave (km/s) = -2.12867 3.48640 1.95240
# Velocity P-wave (km/s) = 4.33250 7.98954 6.42664
#
# Compressibility (1/GPa) = 0.02305850
#
# Stress axis : x y z
#
# Youngs Moduli (GPa) = 39.12863 26.31231 72.49879
#
# Poissons Ratio (x) = 0.31540 0.90318
# Poissons Ratio (y) = 0.46903 0.19600
# Poissons Ratio (z) = 0.48746 0.07114
#
# Static dielectric constant tensor:
#      x y z
#    x 3.422410 0.000000 0.000000 
#    y 0.000000 2.794010 0.000000 
#    z 0.000000 0.000000 3.563930 
# 
# 
# High freq. dielectric constant tensor:
#      x y z
#    x 1.679420 0.000000 0.000000 
#    y 0.000000 1.627010 0.000000 
#    z 0.000000 0.000000 1.690130 
# 
# From -- ./inp_files/41773.got.cif
#   From: 2010.03.12/outbox.cif.g09.slc.cpg/sg67_21_cif.got.tgz:41773.got - 2010.04.10 22:41:39.
