data_PCOD8280473
_publ_section_title
;
Structure prediction by ZEFSAII (Michael W. Deem and Ramdas Pophale) SiO2 
 PCOD8280473
Probable space group: C M M A
;
_chemical_formula_sum "Si O2"
_cell_formula_units_Z 104
_cell_length_a 19.010097
_cell_length_b 9.007267
_cell_length_c 29.978376
_cell_angle_alpha 90.000000
_cell_angle_beta 90.000000
_cell_angle_gamma 90.000000
_cell_volume 5133.167925
_symmetry_space_group_name_H-M "C M M A"
_symmetry_group_IT_number 67
_symmetry_cell_setting 'orthorhombic'
loop_
_space_group_symop_operation_xyz
x,y,z
-x,1/2-y,z
x,-y,-z
-x,1/2+y,-z
-x,-y,-z
x,1/2+y,-z
-x,y,z
x,1/2-y,z
1/2+x,1/2+y,z
1/2-x,-y,z
1/2+x,1/2-y,-z
1/2-x,y,-z
1/2-x,1/2-y,-z
1/2+x,y,-z
1/2-x,1/2+y,z
1/2+x,-y,z
loop_
_atom_site_type_symbol
_atom_site_label
_atom_site_fract_x
_atom_site_fract_y
_atom_site_fract_z
Si Si1 0.151791 0.575575 0.048505
Si Si2 0.000000 0.086068 0.955772
Si Si3 0.081617 0.076369 0.800461
Si Si4 0.583673 0.416730 0.543274
Si Si5 0.817101 0.073918 0.135676
Si Si6 0.674259 0.924654 0.715632
Si Si7 0.919481 0.075007 0.632796
O O1 0.173299 0.750000 0.046214
O O2 0.072775 0.555717 0.069463
O O3 0.193993 0.482196 0.084745
O O4 0.162394 0.500000 0.000000
O O5 0.000000 0.250000 0.974438
O O6 0.000000 0.000000 0.000000
O O7 0.089989 0.250000 0.811246
O O8 0.125780 0.029048 0.757193
O O9 0.000000 0.035281 0.792963
O O10 0.111097 0.983173 0.842107
O O11 0.614884 0.500000 0.500000
O O12 0.500000 0.417238 0.540961
O O13 0.613464 0.250000 0.543723
O O14 0.608900 0.498972 0.587896
O O15 0.812999 0.250000 0.137857
O O16 0.750000 0.000000 0.161511
O O17 0.686417 0.750000 0.714520
O O18 0.631712 0.978888 0.672157
O O19 0.750000 0.000000 0.718327
O O20 0.915624 0.250000 0.625851
O O21 0.000000 0.027492 0.643790
#
# Coordination Sequence:
#
# PCOD8280473 Si02
#       7
#    16   8  16  16  16  16  16
#     4  10  20  37  60  89 121 158 197 239 287 338
#     4   8  16  30  52  80 112 146 182 224 274 324
#     4  10  22  42  67  92 119 152 191 237 290 348
#     4   9  16  26  43  71 107 146 188 235 288 340
#     4  12  26  43  62  88 121 159 199 241 289 344
#     4  10  21  37  59  86 116 152 190 232 285 346
#     4   9  17  31  52  78 109 146 191 239 285 338
#
# _framework density 20.260394000000002
#
# number of rings (size 3 to 8) (size 9 to 14) (size 15 to 20)
#    0.000    2.154    0.000    3.231    1.077    7.385 
#    0.000    1.538    0.000    3.231    0.000    3.231 
#    0.000    0.000    0.000    0.000    0.000    0.000 
#
# Total GULP energy -644424.687203 kJ/mol
# GULP energy per Si atom -12392.782446 kJ/mol
# Density = 2.021428 g / cm^3
# Si number density = 20.260394 Si / 1000 Ang^3
#
#
#
# Elastic Constant Matrix: (Units=GPa)
#
#
# Indices 1 2 3 4 5 6 
#
# 1 123.7259 52.1847 57.5301 0.0000 0.0000 0.0000
# 2 52.1847 104.0385 62.8168 0.0000 0.0000 0.0000
# 3 57.5301 62.8168 144.3234 0.0000 0.0000 0.0000
# 4 0.0000 0.0000 0.0000 32.9175 0.0000 0.0000
# 5 0.0000 0.0000 0.0000 0.0000 16.8611 0.0000
# 6 0.0000 0.0000 0.0000 0.0000 0.0000 27.9686
#
#
#
# Elastic Compliance Matrix: (Units=1/GPa)
#
#
# Indices 1 2 3 4 5 6 
#
# 1 0.010967 -0.003881 -0.002682 0.000000 0.000000 0.000000
# 2 -0.003881 0.014412 -0.004726 0.000000 0.000000 0.000000
# 3 -0.002682 -0.004726 0.010055 0.000000 0.000000 0.000000
# 4 0.000000 0.000000 0.000000 0.030379 0.000000 0.000000
# 5 0.000000 0.000000 0.000000 0.000000 0.059308 0.000000
# 6 0.000000 0.000000 0.000000 0.000000 0.000000 0.035754
#
#
# Mechanical properties :
#
#
# Convention : Reuss Voigt Hill
#
# Bulk Modulus (GPa) = 77.78951 79.68346 78.73649
# Shear Modulus (GPa) = 26.63286 28.85318 27.74302
#
# Velocity S-wave (km/s) = 3.62958 3.77784 3.70445
# Velocity P-wave (km/s) = 7.48621 7.64490 7.56597
#
# Compressibility (1/GPa) = 0.01285520
#
# Stress axis : x y z
#
# Youngs Moduli (GPa) = 91.18619 69.38708 99.45423
#
# Poissons Ratio (x) = 0.26931 0.26675
# Poissons Ratio (y) = 0.35392 0.46998
# Poissons Ratio (z) = 0.24458 0.32790
#
# Static dielectric constant tensor:
#      x y z
#    x 3.917400 0.000000 0.000000 
#    y 0.000000 3.597180 0.000000 
#    z 0.000000 0.000000 3.677750 
# 
# 
# High freq. dielectric constant tensor:
#      x y z
#    x 1.787690 0.000000 0.000000 
#    y 0.000000 1.786930 0.000000 
#    z 0.000000 0.000000 1.791480 
# 
# From -- ./inp_files/44671.got.cif
#   From: 2010.03.12/outbox.cif.g09.slc.cpg/sg67_23_cif.got.tgz:44671.got - 2010.04.10 22:41:39.
