data_PCOD8280101
_publ_section_title
;
Structure prediction by ZEFSAII (Michael W. Deem and Ramdas Pophale) SiO2 
 PCOD8280101
Probable space group: C M M A
;
_chemical_formula_sum "Si O2"
_cell_formula_units_Z 88
_cell_length_a 16.353391
_cell_length_b 23.229620
_cell_length_c 13.577179
_cell_angle_alpha 90.000000
_cell_angle_beta 90.000000
_cell_angle_gamma 90.000000
_cell_volume 5157.740286
_symmetry_space_group_name_H-M "C M M A"
_symmetry_group_IT_number 67
_symmetry_cell_setting 'orthorhombic'
loop_
_space_group_symop_operation_xyz
x,y,z
-x,1/2-y,z
x,-y,-z
-x,1/2+y,-z
-x,-y,-z
x,1/2+y,-z
-x,y,z
x,1/2-y,z
1/2+x,1/2+y,z
1/2-x,-y,z
1/2+x,1/2-y,-z
1/2-x,y,-z
1/2-x,1/2-y,-z
1/2+x,y,-z
1/2-x,1/2+y,z
1/2+x,-y,z
loop_
_atom_site_type_symbol
_atom_site_label
_atom_site_fract_x
_atom_site_fract_y
_atom_site_fract_z
Si Si1 0.091529 0.750000 0.852987
Si Si2 0.593650 0.553726 0.938206
Si Si3 0.723052 0.844625 0.609058
Si Si4 0.725582 0.935587 0.775973
Si Si5 0.675759 0.363207 0.927681
Si Si6 0.406166 0.750000 0.570495
Si Si7 0.851862 0.250000 0.354113
O O1 0.142250 0.804653 0.885643
O O2 0.084733 0.750000 0.735088
O O3 0.000000 0.750000 0.896991
O O4 0.500000 0.543800 0.909391
O O5 0.642067 0.562383 0.837408
O O6 0.629842 0.500000 0.000000
O O7 0.603009 0.608441 0.009408
O O8 0.750000 0.864527 0.500000
O O9 0.709154 0.900489 0.675989
O O10 0.639540 0.807319 0.608708
O O11 0.795090 0.806107 0.653685
O O12 0.796721 0.905736 0.840045
O O13 0.750000 0.000000 0.745609
O O14 0.750000 0.349140 0.000000
O O15 0.500000 0.750000 0.607988
O O16 0.404815 0.750000 0.452646
#
# Coordination Sequence:
#
# PCOD8280101 Si02
#       7
#     8  16  16  16  16   8   8
#     4  12  21  32  53  81 111 142 174 224 284 320
#     4  10  20  35  54  79 108 140 183 232 268 312
#     4   9  19  35  56  78 110 140 180 220 269 325
#     4  11  20  34  57  80 105 146 189 219 261 326
#     4  10  21  35  54  76 110 143 185 219 271 327
#     4   9  18  34  57  81 106 134 175 230 279 321
#     4   9  17  34  53  80 100 140 178 224 263 327
#
# _framework density 17.061734999999999
#
# number of rings (size 3 to 8) (size 9 to 14) (size 15 to 20)
#    0.000    2.000    3.636    2.182    0.000    1.091 
#    0.000    0.000    0.000    4.364    0.000    3.818 
#    0.000    0.000    0.000    0.000    0.000    0.000 
#
# Total GULP energy -545564.772033 kJ/mol
# GULP energy per Si atom -12399.199364 kJ/mol
# Density = 1.702290 g / cm^3
# Si number density = 17.061735 Si / 1000 Ang^3
#
#
#
# Elastic Constant Matrix: (Units=GPa)
#
#
# Indices 1 2 3 4 5 6 
#
# 1 82.1980 43.5333 33.1191 0.0000 0.0000 0.0000
# 2 43.5333 133.2118 66.9966 0.0000 0.0000 0.0000
# 3 33.1191 66.9966 103.9256 0.0000 0.0000 0.0000
# 4 0.0000 0.0000 0.0000 50.3634 0.0000 0.0000
# 5 0.0000 0.0000 0.0000 0.0000 12.2399 0.0000
# 6 0.0000 0.0000 0.0000 0.0000 0.0000 19.6063
#
#
#
# Elastic Compliance Matrix: (Units=1/GPa)
#
#
# Indices 1 2 3 4 5 6 
#
# 1 0.015111 -0.003724 -0.002415 0.000000 0.000000 0.000000
# 2 -0.003724 0.012026 -0.006566 0.000000 0.000000 0.000000
# 3 -0.002415 -0.006566 0.014625 0.000000 0.000000 0.000000
# 4 0.000000 0.000000 0.000000 0.019856 0.000000 0.000000
# 5 0.000000 0.000000 0.000000 0.000000 0.081700 0.000000
# 6 0.000000 0.000000 0.000000 0.000000 0.000000 0.051004
#
#
# Mechanical properties :
#
#
# Convention : Reuss Voigt Hill
#
# Bulk Modulus (GPa) = 61.15377 67.40368 64.27872
# Shear Modulus (GPa) = 22.20433 28.15437 25.17935
#
# Velocity S-wave (km/s) = 3.61142 4.06661 3.84575
# Velocity P-wave (km/s) = 7.30139 7.85119 7.58128
#
# Compressibility (1/GPa) = 0.01635222
#
# Stress axis : x y z
#
# Youngs Moduli (GPa) = 66.17743 83.15354 68.37719
#
# Poissons Ratio (x) = 0.30963 0.16514
# Poissons Ratio (y) = 0.24642 0.44897
# Poissons Ratio (z) = 0.15983 0.54599
#
# Static dielectric constant tensor:
#      x y z
#    x 3.008050 0.000000 0.000000 
#    y 0.000000 3.223770 0.000000 
#    z 0.000000 0.000000 3.121000 
# 
# 
# High freq. dielectric constant tensor:
#      x y z
#    x 1.652360 0.000000 0.000000 
#    y 0.000000 1.659240 0.000000 
#    z 0.000000 0.000000 1.654680 
# 
# From -- ./inp_files/18170.got.cif
#   From: 2010.03.12/outbox.cif.g09.slc.cpg/sg67_10_cif.got.tgz:18170.got - 2010.04.10 22:41:39.
