data_PCOD8280848
_publ_section_title
;
Structure prediction by ZEFSAII (Michael W. Deem and Ramdas Pophale) SiO2 
 PCOD8280848
Probable space group: C M M A
;
_chemical_formula_sum "Si O2"
_cell_formula_units_Z 112
_cell_length_a 28.110880
_cell_length_b 18.036415
_cell_length_c 11.422147
_cell_angle_alpha 90.000000
_cell_angle_beta 90.000000
_cell_angle_gamma 90.000000
_cell_volume 5791.251235
_symmetry_space_group_name_H-M "C M M A"
_symmetry_group_IT_number 67
_symmetry_cell_setting 'orthorhombic'
loop_
_space_group_symop_operation_xyz
x,y,z
-x,1/2-y,z
x,-y,-z
-x,1/2+y,-z
-x,-y,-z
x,1/2+y,-z
-x,y,z
x,1/2-y,z
1/2+x,1/2+y,z
1/2-x,-y,z
1/2+x,1/2-y,-z
1/2-x,y,-z
1/2-x,1/2-y,-z
1/2+x,y,-z
1/2-x,1/2+y,z
1/2+x,-y,z
loop_
_atom_site_type_symbol
_atom_site_label
_atom_site_fract_x
_atom_site_fract_y
_atom_site_fract_z
Si Si1 0.729533 0.577907 0.175716
Si Si2 0.324509 0.335210 0.180458
Si Si3 0.945099 0.417796 0.471295
Si Si4 0.054505 0.835697 0.768447
Si Si5 0.642874 0.835435 0.069234
Si Si6 0.632025 0.336919 0.416578
Si Si7 0.796700 0.921426 0.557510
O O1 0.750000 0.500000 0.127013
O O2 0.771981 0.635035 0.157740
O O3 0.683785 0.607715 0.107453
O O4 0.711502 0.567698 0.306692
O O5 0.316995 0.250000 0.207617
O O6 0.347636 0.372405 0.296174
O O7 0.360303 0.346794 0.071023
O O8 0.925137 0.500000 0.500000
O O9 0.934144 0.390954 0.338941
O O10 0.921924 0.362524 0.565616
O O11 0.000000 0.414060 0.499486
O O12 0.060777 0.750000 0.727631
O O13 0.091750 0.854617 0.872642
O O14 0.000000 0.848232 0.812700
O O15 0.657052 0.750000 0.098807
O O16 0.634800 0.250000 0.413599
O O17 0.660066 0.366357 0.531060
O O18 0.750000 0.885012 0.500000
O O19 0.808046 0.000000 0.500000
#
# Coordination Sequence:
#
# PCOD8280848 Si02
#       7
#    16  16  16  16  16  16  16
#     4  12  22  35  55  80 109 146 190 230 271 322
#     4  10  22  38  52  74 112 150 184 224 272 326
#     4  10  21  37  58  84 113 144 177 219 279 338
#     4   9  18  36  62  88 110 136 181 235 276 321
#     4  10  22  39  57  79 109 148 189 228 277 326
#     4  11  22  35  56  83 111 146 183 226 275 327
#     4  11  20  37  54  77 112 147 180 221 277 329
#
# _framework density 19.339516
#
# number of rings (size 3 to 8) (size 9 to 14) (size 15 to 20)
#    0.000    1.571    2.857    2.571    0.000    6.857 
#    0.000    0.714    0.000    2.571    0.000    5.000 
#    0.000    0.000    0.000    0.000    0.000    0.000 
#
# Total GULP energy -694195.343926 kJ/mol
# GULP energy per Si atom -12396.345427 kJ/mol
# Density = 1.929550 g / cm^3
# Si number density = 19.339516 Si / 1000 Ang^3
#
#
#
# Elastic Constant Matrix: (Units=GPa)
#
#
# Indices 1 2 3 4 5 6 
#
# 1 112.9605 45.8578 55.1588 0.0000 0.0000 0.0000
# 2 45.8578 78.9820 43.9402 0.0000 0.0000 0.0000
# 3 55.1588 43.9402 84.0326 0.0000 0.0000 0.0000
# 4 0.0000 0.0000 0.0000 22.9995 0.0000 0.0000
# 5 0.0000 0.0000 0.0000 0.0000 15.5875 0.0000
# 6 0.0000 0.0000 0.0000 0.0000 0.0000-1047.9233
#
#
#
# Elastic Compliance Matrix: (Units=1/GPa)
#
#
# Indices 1 2 3 4 5 6 
#
# 1 0.013969 -0.004244 -0.006950 0.000000 0.000000 0.000000
# 2 -0.004244 0.019145 -0.007225 0.000000 0.000000 0.000000
# 3 -0.006950 -0.007225 0.020240 0.000000 0.000000 0.000000
# 4 0.000000 0.000000 0.000000 0.043479 0.000000 0.000000
# 5 0.000000 0.000000 0.000000 0.000000 0.064154 0.000000
# 6 0.000000 0.000000 0.000000 0.000000 0.000000 -0.000954
#
#
# Mechanical properties :
#
#
# Convention : Reuss Voigt Hill
#
# Bulk Modulus (GPa) = 60.54813 62.87651 61.71232
# Shear Modulus (GPa) = 24.70640 -193.13270 -84.21315
#
# Velocity S-wave (km/s) = 3.57810 -10.00405 -6.60599
# Velocity P-wave (km/s) = 6.96034 10.04285 5.11921
#
# Compressibility (1/GPa) = 0.01651579
#
# Stress axis : x y z
#
# Youngs Moduli (GPa) = 71.58476 52.23371 49.40689
#
# Poissons Ratio (x) = 0.22169 0.34339
# Poissons Ratio (y) = 0.30382 0.35696
# Poissons Ratio (z) = 0.49753 0.37738
#
# Static dielectric constant tensor:
#      x y z
#    x 3.640180 0.000000 0.000000 
#    y 0.000000 3.606230 0.000000 
#    z 0.000000 0.000000 3.775600 
# 
# 
# High freq. dielectric constant tensor:
#      x y z
#    x 1.753930 0.000000 0.000000 
#    y 0.000000 1.751020 0.000000 
#    z 0.000000 0.000000 1.751000 
# 
# From -- ./inp_files/23776.got.cif
#   From: 2010.03.12/outbox.cif.g09.slc.cpg/sg67_12_cif.got.tgz:23776.got - 2010.04.10 22:41:39.
