data_PCOD8280554
_publ_section_title
;
Structure prediction by ZEFSAII (Michael W. Deem and Ramdas Pophale) SiO2 
 PCOD8280554
Probable space group: C M M A
;
_chemical_formula_sum "Si O2"
_cell_formula_units_Z 52
_cell_length_a 30.331519
_cell_length_b 16.999348
_cell_length_c 5.021014
_cell_angle_alpha 90.000000
_cell_angle_beta 90.000000
_cell_angle_gamma 90.000000
_cell_volume 2588.915390
_symmetry_space_group_name_H-M "C M M A"
_symmetry_group_IT_number 67
_symmetry_cell_setting 'orthorhombic'
loop_
_space_group_symop_operation_xyz
x,y,z
-x,1/2-y,z
x,-y,-z
-x,1/2+y,-z
-x,-y,-z
x,1/2+y,-z
-x,y,z
x,1/2-y,z
1/2+x,1/2+y,z
1/2-x,-y,z
1/2+x,1/2-y,-z
1/2-x,y,-z
1/2-x,1/2-y,-z
1/2+x,y,-z
1/2-x,1/2+y,z
1/2+x,-y,z
loop_
_atom_site_type_symbol
_atom_site_label
_atom_site_fract_x
_atom_site_fract_y
_atom_site_fract_z
Si Si1 0.092352 0.840865 0.620354
Si Si2 0.665695 0.049010 0.737367
Si Si3 0.449088 0.085513 0.102442
Si Si4 0.250000 0.000000 0.500000
O O1 0.094775 0.750000 0.543420
O O2 0.140491 0.867582 0.735054
O O3 0.078711 0.888881 0.358463
O O4 0.057443 0.854159 0.857890
O O5 0.718667 0.056615 0.681501
O O6 0.643316 0.000000 0.500000
O O7 0.656850 0.000000 0.000000
O O8 0.500000 0.083587 0.187047
O O9 0.432793 0.000000 0.000000
#
# Coordination Sequence:
#
# PCOD8280554 Si02
#       4
#    16  16  16   4
#     4  12  24  38  61  94 128 164 198 251 316 358
#     4  10  20  38  63  88 116 153 208 247 297 365
#     4  11  24  42  63  88 121 167 217 253 289 353
#     4   8  22  36  68  92 104 160 208 248 298 360
#
# _framework density 20.085629999999998
#
# number of rings (size 3 to 8) (size 9 to 14) (size 15 to 20)
#    0.923    0.308    0.000    7.846    0.000    6.154 
#    0.000    0.769    0.000    1.846    0.000    0.000 
#    0.000    0.000    0.000    0.000    0.000    0.000 
#
# Total GULP energy -322193.883400 kJ/mol
# GULP energy per Si atom -12392.072438 kJ/mol
# Density = 2.003991 g / cm^3
# Si number density = 20.085630 Si / 1000 Ang^3
#
#
#
# Elastic Constant Matrix: (Units=GPa)
#
#
# Indices 1 2 3 4 5 6 
#
# 1 121.0577 63.7809 44.5472 0.0000 0.0000 0.0000
# 2 63.7809 109.7506 44.1797 0.0000 0.0000 0.0000
# 3 44.5472 44.1797 152.6230 0.0000 0.0000 0.0000
# 4 0.0000 0.0000 0.0000 27.1518 0.0000 0.0000
# 5 0.0000 0.0000 0.0000 0.0000 34.5098 0.0000
# 6 0.0000 0.0000 0.0000 0.0000 0.0000 17.4750
#
#
#
# Elastic Compliance Matrix: (Units=1/GPa)
#
#
# Indices 1 2 3 4 5 6 
#
# 1 0.012293 -0.006451 -0.001720 0.000000 0.000000 0.000000
# 2 -0.006451 0.013699 -0.002082 0.000000 0.000000 0.000000
# 3 -0.001720 -0.002082 0.007657 0.000000 0.000000 0.000000
# 4 0.000000 0.000000 0.000000 0.036830 0.000000 0.000000
# 5 0.000000 0.000000 0.000000 0.000000 0.028977 0.000000
# 6 0.000000 0.000000 0.000000 0.000000 0.000000 0.057225
#
#
# Mechanical properties :
#
#
# Convention : Reuss Voigt Hill
#
# Bulk Modulus (GPa) = 76.10192 76.49409 76.29800
# Shear Modulus (GPa) = 27.53779 31.22222 29.38000
#
# Velocity S-wave (km/s) = 3.70674 3.94694 3.82872
# Velocity P-wave (km/s) = 7.50273 7.67709 7.59041
#
# Compressibility (1/GPa) = 0.01314027
#
# Stress axis : x y z
#
# Youngs Moduli (GPa) = 81.35039 72.99855 130.59811
#
# Poissons Ratio (x) = 0.47092 0.22469
# Poissons Ratio (y) = 0.52480 0.27197
# Poissons Ratio (z) = 0.13996 0.15202
#
# Static dielectric constant tensor:
#      x y z
#    x 3.646460 0.000000 0.000000 
#    y 0.000000 3.292540 0.000000 
#    z 0.000000 0.000000 3.723100 
# 
# 
# High freq. dielectric constant tensor:
#      x y z
#    x 1.789020 0.000000 0.000000 
#    y 0.000000 1.748380 0.000000 
#    z 0.000000 0.000000 1.804300 
# 
# From -- ./inp_files/3891.got.cif
#   From: 2010.03.12/outbox.cif.g09.slc.cpg/sg67_2_cif.got.tgz:3891.got - 2010.04.10 22:41:39.
