data_PCOD8280401
_publ_section_title
;
Structure prediction by ZEFSAII (Michael W. Deem and Ramdas Pophale) SiO2 
 PCOD8280401
Probable space group: C M M A
;
_chemical_formula_sum "Si O2"
_cell_formula_units_Z 88
_cell_length_a 15.937128
_cell_length_b 9.225458
_cell_length_c 29.582026
_cell_angle_alpha 90.000000
_cell_angle_beta 90.000000
_cell_angle_gamma 90.000000
_cell_volume 4349.365559
_symmetry_space_group_name_H-M "C M M A"
_symmetry_group_IT_number 67
_symmetry_cell_setting 'orthorhombic'
loop_
_space_group_symop_operation_xyz
x,y,z
-x,1/2-y,z
x,-y,-z
-x,1/2+y,-z
-x,-y,-z
x,1/2+y,-z
-x,y,z
x,1/2-y,z
1/2+x,1/2+y,z
1/2-x,-y,z
1/2+x,1/2-y,-z
1/2-x,y,-z
1/2-x,1/2-y,-z
1/2+x,y,-z
1/2-x,1/2+y,z
1/2+x,-y,z
loop_
_atom_site_type_symbol
_atom_site_label
_atom_site_fract_x
_atom_site_fract_y
_atom_site_fract_z
Si Si1 0.166978 0.078547 0.601738
Si Si2 0.399844 0.913468 0.956673
Si Si3 0.000000 0.420221 0.547170
Si Si4 0.095240 0.415613 0.318504
Si Si5 0.333510 0.918378 0.224224
Si Si6 0.599289 0.086122 0.870746
O O1 0.181371 0.250000 0.601751
O O2 0.084499 0.033302 0.573495
O O3 0.250000 0.000000 0.581280
O O4 0.154309 0.022705 0.652989
O O5 0.500000 0.916057 0.956589
O O6 0.365731 0.750000 0.958876
O O7 0.364363 0.987900 0.911189
O O8 0.365088 0.000000 0.000000
O O9 0.000000 0.500000 0.500000
O O10 0.000000 0.250000 0.538551
O O11 0.122002 0.250000 0.328992
O O12 0.102150 0.447649 0.265059
O O13 0.000000 0.444220 0.332985
O O14 0.313989 0.750000 0.218841
O O15 0.370204 0.978834 0.177083
O O16 0.250000 0.000000 0.237474
O O17 0.500000 0.082628 0.870835
O O18 0.631353 0.250000 0.878136
#
# Coordination Sequence:
#
# PCOD8280401 Si02
#       6
#    16  16   8  16  16  16
#     4  11  23  41  63  93 128 165 207 256 308 364
#     4   9  16  26  43  69  98 126 161 207 260 320
#     4  10  24  44  66  92 128 166 210 260 311 364
#     4  10  20  36  60  88 117 154 198 243 293 352
#     4  10  21  35  51  75 107 143 183 226 274 332
#     4   9  17  31  50  70  96 131 170 215 265 318
#
# _framework density 20.232835000000001
#
# number of rings (size 3 to 8) (size 9 to 14) (size 15 to 20)
#    0.000    2.182    0.909    2.182    0.000    9.091 
#    0.000    1.818    0.000    3.818    0.000    3.818 
#    0.000    0.000    0.000    0.000    0.000    0.000 
#
# Total GULP energy -545608.919373 kJ/mol
# GULP energy per Si atom -12400.202713 kJ/mol
# Density = 2.018678 g / cm^3
# Si number density = 20.232835 Si / 1000 Ang^3
#
#
#
# Elastic Constant Matrix: (Units=GPa)
#
#
# Indices 1 2 3 4 5 6 
#
# 1 83.9069 44.4643 44.2880 0.0000 0.0000 0.0000
# 2 44.4643 95.6524 61.9377 0.0000 0.0000 0.0000
# 3 44.2880 61.9377 138.0369 0.0000 0.0000 0.0000
# 4 0.0000 0.0000 0.0000 35.5963 0.0000 0.0000
# 5 0.0000 0.0000 0.0000 0.0000 16.5079 0.0000
# 6 0.0000 0.0000 0.0000 0.0000 0.0000 27.4632
#
#
#
# Elastic Compliance Matrix: (Units=1/GPa)
#
#
# Indices 1 2 3 4 5 6 
#
# 1 0.016451 -0.005962 -0.002603 0.000000 0.000000 0.000000
# 2 -0.005962 0.016897 -0.005669 0.000000 0.000000 0.000000
# 3 -0.002603 -0.005669 0.010623 0.000000 0.000000 0.000000
# 4 0.000000 0.000000 0.000000 0.028093 0.000000 0.000000
# 5 0.000000 0.000000 0.000000 0.000000 0.060577 0.000000
# 6 0.000000 0.000000 0.000000 0.000000 0.000000 0.036412
#
#
# Mechanical properties :
#
#
# Convention : Reuss Voigt Hill
#
# Bulk Modulus (GPa) = 64.50102 68.77511 66.63807
# Shear Modulus (GPa) = 24.66836 27.04056 25.85446
#
# Velocity S-wave (km/s) = 3.49553 3.65974 3.57858
# Velocity P-wave (km/s) = 6.94552 7.20582 7.07687
#
# Compressibility (1/GPa) = 0.01550363
#
# Stress axis : x y z
#
# Youngs Moduli (GPa) = 60.78552 59.18360 94.13326
#
# Poissons Ratio (x) = 0.35284 0.24504
# Poissons Ratio (y) = 0.36239 0.53362
# Poissons Ratio (z) = 0.15824 0.33550
#
# Static dielectric constant tensor:
#      x y z
#    x 3.549520 0.000000 0.000000 
#    y 0.000000 3.674600 0.000000 
#    z 0.000000 0.000000 3.752530 
# 
# 
# High freq. dielectric constant tensor:
#      x y z
#    x 1.775390 0.000000 0.000000 
#    y 0.000000 1.784390 0.000000 
#    z 0.000000 0.000000 1.796190 
# 
# From -- ./inp_files/45244.got.cif
#   From: 2010.03.12/outbox.cif.g09.slc.cpg/sg67_23_cif.got.tgz:45244.got - 2010.04.10 22:41:39.
