data_PCOD8280150
_publ_section_title
;
Structure prediction by ZEFSAII (Michael W. Deem and Ramdas Pophale) SiO2 
 PCOD8280150
Probable space group: C M M A
;
_chemical_formula_sum "Si O2"
_cell_formula_units_Z 96
_cell_length_a 14.890331
_cell_length_b 17.304513
_cell_length_c 19.067668
_cell_angle_alpha 90.000000
_cell_angle_beta 90.000000
_cell_angle_gamma 90.000000
_cell_volume 4913.164609
_symmetry_space_group_name_H-M "C M M A"
_symmetry_group_IT_number 67
_symmetry_cell_setting 'orthorhombic'
loop_
_space_group_symop_operation_xyz
x,y,z
-x,1/2-y,z
x,-y,-z
-x,1/2+y,-z
-x,-y,-z
x,1/2+y,-z
-x,y,z
x,1/2-y,z
1/2+x,1/2+y,z
1/2-x,-y,z
1/2+x,1/2-y,-z
1/2-x,y,-z
1/2-x,1/2-y,-z
1/2+x,y,-z
1/2-x,1/2+y,z
1/2+x,-y,z
loop_
_atom_site_type_symbol
_atom_site_label
_atom_site_fract_x
_atom_site_fract_y
_atom_site_fract_z
Si Si1 0.254366 0.091684 0.759491
Si Si2 0.754650 0.907659 0.601604
Si Si3 0.598770 0.925469 0.135125
Si Si4 0.149075 0.838492 0.998514
Si Si5 0.105753 0.341956 0.505015
Si Si6 0.400091 0.100687 0.143772
O O1 0.264867 0.123401 0.680978
O O2 0.336766 0.117160 0.809310
O O3 0.165553 0.129008 0.794390
O O4 0.250000 0.000000 0.754705
O O5 0.844022 0.878039 0.562328
O O6 0.661080 0.872876 0.572235
O O7 0.750000 0.000000 0.595360
O O8 0.500000 0.921610 0.168435
O O9 0.595602 0.885794 0.059536
O O10 0.628069 0.013869 0.122495
O O11 0.145794 0.750000 0.975394
O O12 0.250000 0.870424 0.000000
O O13 0.105447 0.847019 0.074776
O O14 0.113115 0.250000 0.501774
O O15 0.000000 0.367316 0.507790
O O16 0.500000 0.105736 0.174645
#
# Coordination Sequence:
#
# PCOD8280150 Si02
#       6
#    16  16  16  16  16  16
#     4   9  19  35  54  80 112 139 170 219 270 318
#     4  10  20  35  59  89 115 143 180 228 278 318
#     4  10  20  35  56  78 101 137 180 219 267 324
#     4  11  22  35  52  75 103 138 179 226 275 315
#     4  10  21  38  59  83 114 152 187 219 262 321
#     4  10  20  35  56  78 101 137 180 219 267 324
#
# _framework density 19.539342000000001
#
# number of rings (size 3 to 8) (size 9 to 14) (size 15 to 20)
#    0.000    2.000    1.667    3.000    0.000    6.000 
#    0.000    6.667    0.000    0.000    0.000    0.000 
#    0.000    0.000    0.000    0.000    0.000    0.000 
#
# Total GULP energy -595091.346035 kJ/mol
# GULP energy per Si atom -12397.736376 kJ/mol
# Density = 1.949487 g / cm^3
# Si number density = 19.539342 Si / 1000 Ang^3
#
#
#
# Elastic Constant Matrix: (Units=GPa)
#
#
# Indices 1 2 3 4 5 6 
#
# 1 141.6610 25.4373 45.5603 0.0000 0.0000 0.0000
# 2 25.4373 55.1361 15.5588 0.0000 0.0000 0.0000
# 3 45.5603 15.5588 134.8058 0.0000 0.0000 0.0000
# 4 0.0000 0.0000 0.0000 1.3271 0.0000 0.0000
# 5 0.0000 0.0000 0.0000 0.0000 11.7810 0.0000
# 6 0.0000 0.0000 0.0000 0.0000 0.0000 23.5283
#
#
#
# Elastic Compliance Matrix: (Units=1/GPa)
#
#
# Indices 1 2 3 4 5 6 
#
# 1 0.008430 -0.003189 -0.002481 0.000000 0.000000 0.000000
# 2 -0.003189 0.019954 -0.001225 0.000000 0.000000 0.000000
# 3 -0.002481 -0.001225 0.008398 0.000000 0.000000 0.000000
# 4 0.000000 0.000000 0.000000 0.753538 0.000000 0.000000
# 5 0.000000 0.000000 0.000000 0.000000 0.084883 0.000000
# 6 0.000000 0.000000 0.000000 0.000000 0.000000 0.042502
#
#
# Mechanical properties :
#
#
# Convention : Reuss Voigt Hill
#
# Bulk Modulus (GPa) = 43.49471 56.07953 49.78712
# Shear Modulus (GPa) = 5.32391 23.66369 14.49380
#
# Velocity S-wave (km/s) = 1.65246 3.48383 2.72651
# Velocity P-wave (km/s) = 5.09404 6.70417 5.95379
#
# Compressibility (1/GPa) = 0.02299130
#
# Stress axis : x y z
#
# Youngs Moduli (GPa) = 118.62923 50.11546 119.07654
#
# Poissons Ratio (x) = 0.15982 0.29542
# Poissons Ratio (y) = 0.37830 0.14590
# Poissons Ratio (z) = 0.29431 0.06140
#
# Static dielectric constant tensor:
#      x y z
#    x 3.676830 0.000000 0.000000 
#    y 0.000000 3.358750 0.000000 
#    z 0.000000 0.000000 3.626810 
# 
# 
# High freq. dielectric constant tensor:
#      x y z
#    x 1.774030 0.000000 0.000000 
#    y 0.000000 1.742630 0.000000 
#    z 0.000000 0.000000 1.754120 
# 
# From -- ./inp_files/38499.got.cif
#   From: 2010.03.12/outbox.cif.g09.slc.cpg/sg67_20_cif.got.tgz:38499.got - 2010.04.10 22:41:39.
