data_PCOD8280119
_publ_section_title
;
Structure prediction by ZEFSAII (Michael W. Deem and Ramdas Pophale) SiO2 
 PCOD8280119
Probable space group: C M M A
;
_chemical_formula_sum "Si O2"
_cell_formula_units_Z 96
_cell_length_a 19.820476
_cell_length_b 8.696749
_cell_length_c 29.981478
_cell_angle_alpha 90.000000
_cell_angle_beta 90.000000
_cell_angle_gamma 90.000000
_cell_volume 5168.018439
_symmetry_space_group_name_H-M "C M M A"
_symmetry_group_IT_number 67
_symmetry_cell_setting 'orthorhombic'
loop_
_space_group_symop_operation_xyz
x,y,z
-x,1/2-y,z
x,-y,-z
-x,1/2+y,-z
-x,-y,-z
x,1/2+y,-z
-x,y,z
x,1/2-y,z
1/2+x,1/2+y,z
1/2-x,-y,z
1/2+x,1/2-y,-z
1/2-x,y,-z
1/2-x,1/2-y,-z
1/2+x,y,-z
1/2-x,1/2+y,z
1/2+x,-y,z
loop_
_atom_site_type_symbol
_atom_site_label
_atom_site_fract_x
_atom_site_fract_y
_atom_site_fract_z
Si Si1 0.578221 0.071740 0.210190
Si Si2 0.921439 0.928559 0.883280
Si Si3 0.680046 0.068886 0.618928
Si Si4 0.678871 0.932097 0.279434
Si Si5 0.179238 0.931374 0.047867
Si Si6 0.923812 0.932032 0.546147
O O1 0.500000 0.045132 0.221131
O O2 0.594964 0.250000 0.202679
O O3 0.599865 0.979764 0.166105
O O4 0.619022 0.005654 0.251507
O O5 0.904232 0.750000 0.889382
O O6 0.000000 0.963101 0.891654
O O7 0.880014 0.028010 0.918326
O O8 0.685607 0.250000 0.615782
O O9 0.665250 0.017567 0.669575
O O10 0.620807 0.005612 0.587180
O O11 0.750000 0.000000 0.601555
O O12 0.679473 0.750000 0.273236
O O13 0.750000 0.000000 0.262753
O O14 0.186590 0.750000 0.043554
O O15 0.250000 0.000000 0.065337
O O16 0.160059 0.000000 0.000000
O O17 0.920606 0.750000 0.543146
O O18 0.000000 0.990239 0.554405
O O19 0.895242 0.000000 0.500000
#
# Coordination Sequence:
#
# PCOD8280119 Si02
#       6
#    16  16  16  16  16  16
#     4  10  21  37  56  80 110 141 175 218 266 315
#     4  10  21  38  59  83 111 143 181 223 267 317
#     4   9  19  34  52  74 101 133 168 210 256 305
#     4  10  20  35  55  78 105 138 176 217 263 314
#     4  11  22  38  59  83 113 146 183 225 270 319
#     4   9  18  33  51  72  99 131 168 209 253 302
#
# _framework density 18.575786000000001
#
# number of rings (size 3 to 8) (size 9 to 14) (size 15 to 20)
#    0.000    2.167    0.000    3.500    0.000    5.333 
#    0.000    6.667    0.000    2.000    0.000    0.000 
#    0.000    0.000    0.000    0.000    0.000    0.000 
#
# Total GULP energy -595371.294602 kJ/mol
# GULP energy per Si atom -12403.568638 kJ/mol
# Density = 1.853351 g / cm^3
# Si number density = 18.575786 Si / 1000 Ang^3
#
#
#
# Elastic Constant Matrix: (Units=GPa)
#
#
# Indices 1 2 3 4 5 6 
#
# 1 99.8856 42.5047 76.8856 0.0000 0.0000 0.0000
# 2 42.5047 82.3496 39.1790 0.0000 0.0000 0.0000
# 3 76.8856 39.1790 110.7487 0.0000 0.0000 0.0000
# 4 0.0000 0.0000 0.0000 32.8185 0.0000 0.0000
# 5 0.0000 0.0000 0.0000 0.0000 37.2837 0.0000
# 6 0.0000 0.0000 0.0000 0.0000 0.0000 32.3731
#
#
#
# Elastic Compliance Matrix: (Units=1/GPa)
#
#
# Indices 1 2 3 4 5 6 
#
# 1 0.023208 -0.005186 -0.014277 0.000000 0.000000 0.000000
# 2 -0.005186 0.015760 -0.001975 0.000000 0.000000 0.000000
# 3 -0.014277 -0.001975 0.019640 0.000000 0.000000 0.000000
# 4 0.000000 0.000000 0.000000 0.030471 0.000000 0.000000
# 5 0.000000 0.000000 0.000000 0.000000 0.026821 0.000000
# 6 0.000000 0.000000 0.000000 0.000000 0.000000 0.030890
#
#
# Mechanical properties :
#
#
# Convention : Reuss Voigt Hill
#
# Bulk Modulus (GPa) = 63.56779 67.79138 65.67959
# Shear Modulus (GPa) = 25.65297 29.45604 27.55450
#
# Velocity S-wave (km/s) = 3.72020 3.98643 3.85561
# Velocity P-wave (km/s) = 7.26280 7.60017 7.43340
#
# Compressibility (1/GPa) = 0.01573124
#
# Stress axis : x y z
#
# Youngs Moduli (GPa) = 43.08862 63.45278 50.91727
#
# Poissons Ratio (x) = 0.32908 0.72695
# Poissons Ratio (y) = 0.22347 0.10055
# Poissons Ratio (z) = 0.61518 0.12530
#
# Static dielectric constant tensor:
#      x y z
#    x 3.515040 0.000000 0.000000 
#    y 0.000000 3.449280 0.000000 
#    z 0.000000 0.000000 3.510090 
# 
# 
# High freq. dielectric constant tensor:
#      x y z
#    x 1.722070 0.000000 0.000000 
#    y 0.000000 1.729280 0.000000 
#    z 0.000000 0.000000 1.724070 
# 
# From -- ./inp_files/43493.got.cif
#   From: 2010.03.12/outbox.cif.g09.slc.cpg/sg67_22_cif.got.tgz:43493.got - 2010.04.10 22:41:39.
