data_PCOD8280283
_publ_section_title
;
Structure prediction by ZEFSAII (Michael W. Deem and Ramdas Pophale) SiO2 
 PCOD8280283
Probable space group: C M M A
;
_chemical_formula_sum "Si O2"
_cell_formula_units_Z 88
_cell_length_a 24.380648
_cell_length_b 14.620015
_cell_length_c 11.781439
_cell_angle_alpha 90.000000
_cell_angle_beta 90.000000
_cell_angle_gamma 90.000000
_cell_volume 4199.440202
_symmetry_space_group_name_H-M "C M M A"
_symmetry_group_IT_number 67
_symmetry_cell_setting 'orthorhombic'
loop_
_space_group_symop_operation_xyz
x,y,z
-x,1/2-y,z
x,-y,-z
-x,1/2+y,-z
-x,-y,-z
x,1/2+y,-z
-x,y,z
x,1/2-y,z
1/2+x,1/2+y,z
1/2-x,-y,z
1/2+x,1/2-y,-z
1/2-x,y,-z
1/2-x,1/2-y,-z
1/2+x,y,-z
1/2-x,1/2+y,z
1/2+x,-y,z
loop_
_atom_site_type_symbol
_atom_site_label
_atom_site_fract_x
_atom_site_fract_y
_atom_site_fract_z
Si Si1 0.060174 0.645641 0.258834
Si Si2 0.250000 0.500000 0.280436
Si Si3 0.369459 0.506622 0.369081
Si Si4 0.600412 0.144865 0.022016
Si Si5 0.713264 0.852060 0.890876
Si Si6 0.563081 0.641592 0.220906
O O1 0.074259 0.750000 0.290910
O O2 0.108366 0.584914 0.310007
O O3 0.056148 0.634314 0.122142
O O4 0.000000 0.618135 0.306533
O O5 0.303870 0.513850 0.357140
O O6 0.256443 0.410359 0.204168
O O7 0.385272 0.500000 0.500000
O O8 0.398775 0.595001 0.315025
O O9 0.613285 0.250000 0.994084
O O10 0.656565 0.099817 0.069360
O O11 0.579152 0.101268 0.903947
O O12 0.702799 0.750000 0.840948
O O13 0.750000 0.845995 0.000000
O O14 0.500000 0.615217 0.244111
O O15 0.571575 0.750000 0.228472
#
# Coordination Sequence:
#
# PCOD8280283 Si02
#       6
#    16   8  16  16  16  16
#     4  10  21  40  67  95 123 158 201 255 317 377
#     4  12  24  42  64  84 122 167 215 262 314 358
#     4  12  27  44  62  87 121 168 224 269 306 358
#     4   9  17  35  62  95 129 155 191 245 308 382
#     4  10  20  35  60  93 127 161 197 243 307 381
#     4  10  22  41  66  97 132 166 201 250 315 382
#
# _framework density 20.955175000000001
#
# number of rings (size 3 to 8) (size 9 to 14) (size 15 to 20)
#    0.000    1.636    1.818    2.727    0.000    7.273 
#    0.000    3.636    0.000    3.273    0.000    0.000 
#    0.000    0.000    0.000    0.000    0.000    0.000 
#
# Total GULP energy -545521.344803 kJ/mol
# GULP energy per Si atom -12398.212382 kJ/mol
# Density = 2.090748 g / cm^3
# Si number density = 20.955175 Si / 1000 Ang^3
#
#
#
# Elastic Constant Matrix: (Units=GPa)
#
#
# Indices 1 2 3 4 5 6 
#
# 1 147.1886 40.5958 40.8154 0.0000 0.0000 0.0000
# 2 40.5958 80.1369 35.9986 0.0000 0.0000 0.0000
# 3 40.8154 35.9986 121.2587 0.0000 0.0000 0.0000
# 4 0.0000 0.0000 0.0000 20.4970 0.0000 0.0000
# 5 0.0000 0.0000 0.0000 0.0000 22.6855 0.0000
# 6 0.0000 0.0000 0.0000 0.0000 0.0000 31.1927
#
#
#
# Elastic Compliance Matrix: (Units=1/GPa)
#
#
# Indices 1 2 3 4 5 6 
#
# 1 0.008212 -0.003367 -0.001764 0.000000 0.000000 0.000000
# 2 -0.003367 0.015780 -0.003551 0.000000 0.000000 0.000000
# 3 -0.001764 -0.003551 0.009895 0.000000 0.000000 0.000000
# 4 0.000000 0.000000 0.000000 0.048788 0.000000 0.000000
# 5 0.000000 0.000000 0.000000 0.000000 0.044081 0.000000
# 6 0.000000 0.000000 0.000000 0.000000 0.000000 0.032059
#
#
# Mechanical properties :
#
#
# Convention : Reuss Voigt Hill
#
# Bulk Modulus (GPa) = 60.53004 64.82266 62.67635
# Shear Modulus (GPa) = 27.51980 30.28665 28.90323
#
# Velocity S-wave (km/s) = 3.62784 3.80584 3.71791
# Velocity P-wave (km/s) = 6.81883 7.09322 6.95738
#
# Compressibility (1/GPa) = 0.01652072
#
# Stress axis : x y z
#
# Youngs Moduli (GPa) = 121.77223 63.37238 101.06131
#
# Poissons Ratio (x) = 0.21340 0.17832
# Poissons Ratio (y) = 0.41006 0.35888
# Poissons Ratio (z) = 0.21486 0.22504
#
# Static dielectric constant tensor:
#      x y z
#    x 3.976290 0.000000 0.000000 
#    y 0.000000 3.785550 0.000000 
#    z 0.000000 0.000000 3.597960 
# 
# 
# High freq. dielectric constant tensor:
#      x y z
#    x 1.837580 0.000000 0.000000 
#    y 0.000000 1.816680 0.000000 
#    z 0.000000 0.000000 1.797700 
# 
# From -- ./inp_files/18077.got.cif
#   From: 2010.03.12/outbox.cif.g09.slc.cpg/sg67_10_cif.got.tgz:18077.got - 2010.04.10 22:41:39.
