data_PCOD8280363
_publ_section_title
;
Structure prediction by ZEFSAII (Michael W. Deem and Ramdas Pophale) SiO2 
 PCOD8280363
Probable space group: C M M A
;
_chemical_formula_sum "Si O2"
_cell_formula_units_Z 104
_cell_length_a 9.118299
_cell_length_b 19.059153
_cell_length_c 29.764612
_cell_angle_alpha 90.000000
_cell_angle_beta 90.000000
_cell_angle_gamma 90.000000
_cell_volume 5172.704285
_symmetry_space_group_name_H-M "C M M A"
_symmetry_group_IT_number 67
_symmetry_cell_setting 'orthorhombic'
loop_
_space_group_symop_operation_xyz
x,y,z
-x,1/2-y,z
x,-y,-z
-x,1/2+y,-z
-x,-y,-z
x,1/2+y,-z
-x,y,z
x,1/2-y,z
1/2+x,1/2+y,z
1/2-x,-y,z
1/2+x,1/2-y,-z
1/2-x,y,-z
1/2-x,1/2-y,-z
1/2+x,y,-z
1/2-x,1/2+y,z
1/2+x,-y,z
loop_
_atom_site_type_symbol
_atom_site_label
_atom_site_fract_x
_atom_site_fract_y
_atom_site_fract_z
Si Si1 0.673189 0.075535 0.217014
Si Si2 0.330705 0.436802 0.634734
Si Si3 0.169492 0.168955 0.289870
Si Si4 0.338293 0.750000 0.544020
Si Si5 0.335389 0.166583 0.957002
Si Si6 0.671437 0.598934 0.548226
Si Si7 0.670703 0.830183 0.868013
O O1 0.500000 0.064432 0.222689
O O2 0.729976 0.124523 0.256831
O O3 0.712641 0.117164 0.171719
O O4 0.750000 0.000000 0.216768
O O5 0.500000 0.455340 0.629246
O O6 0.250000 0.500000 0.662523
O O7 0.309178 0.363166 0.660323
O O8 0.256500 0.443507 0.585775
O O9 0.220522 0.250000 0.290860
O O10 0.000000 0.162671 0.274794
O O11 0.500000 0.750000 0.524623
O O12 0.250000 0.750000 0.500000
O O13 0.308742 0.822503 0.569540
O O14 0.500000 0.136502 0.957291
O O15 0.335956 0.250000 0.959675
O O16 0.256964 0.142194 0.911451
O O17 0.250000 0.135321 0.000000
O O18 0.500000 0.578025 0.543792
O O19 0.750000 0.588147 0.500000
O O20 0.500000 0.833013 0.879678
O O21 0.715780 0.750000 0.855094
#
# Coordination Sequence:
#
# PCOD8280363 Si02
#       7
#    16  16  16   8  16  16  16
#     4  11  23  39  61  88 119 156 195 239 292 351
#     4  11  24  41  61  86 119 156 193 234 283 338
#     4  10  23  43  66  92 120 150 188 237 291 347
#     4   8  16  30  50  78 110 142 178 222 270 320
#     4   9  16  26  44  73 109 149 192 239 292 345
#     4  10  20  36  58  86 118 153 193 235 281 333
#     4   9  18  33  53  79 112 149 193 243 292 345
#
# _framework density 20.105537999999999
#
# number of rings (size 3 to 8) (size 9 to 14) (size 15 to 20)
#    0.000    2.154    0.000    2.769    1.077    7.385 
#    0.000    3.077    0.000    0.462    0.000    3.231 
#    0.000    0.000    0.000    0.000    0.000    0.000 
#
# Total GULP energy -644364.256627 kJ/mol
# GULP energy per Si atom -12391.620320 kJ/mol
# Density = 2.005978 g / cm^3
# Si number density = 20.105538 Si / 1000 Ang^3
#
#
#
# Elastic Constant Matrix: (Units=GPa)
#
#
# Indices 1 2 3 4 5 6 
#
# 1 126.1217 58.2233 74.3224 0.0000 0.0000 0.0000
# 2 58.2233 129.6931 53.8021 0.0000 0.0000 0.0000
# 3 74.3224 53.8021 123.6142 0.0000 0.0000 0.0000
# 4 0.0000 0.0000 0.0000 14.7388 0.0000 0.0000
# 5 0.0000 0.0000 0.0000 0.0000 33.7756 0.0000
# 6 0.0000 0.0000 0.0000 0.0000 0.0000 26.5000
#
#
#
# Elastic Compliance Matrix: (Units=1/GPa)
#
#
# Indices 1 2 3 4 5 6 
#
# 1 0.013309 -0.003240 -0.006592 0.000000 0.000000 0.000000
# 2 -0.003240 0.010198 -0.002490 0.000000 0.000000 0.000000
# 3 -0.006592 -0.002490 0.013137 0.000000 0.000000 0.000000
# 4 0.000000 0.000000 0.000000 0.067848 0.000000 0.000000
# 5 0.000000 0.000000 0.000000 0.000000 0.029607 0.000000
# 6 0.000000 0.000000 0.000000 0.000000 0.000000 0.037736
#
#
# Mechanical properties :
#
#
# Convention : Reuss Voigt Hill
#
# Bulk Modulus (GPa) = 83.33858 83.56938 83.45398
# Shear Modulus (GPa) = 24.94005 27.87496 26.40750
#
# Velocity S-wave (km/s) = 3.52583 3.72752 3.62808
# Velocity P-wave (km/s) = 7.62338 7.75767 7.69082
#
# Compressibility (1/GPa) = 0.01199924
#
# Stress axis : x y z
#
# Youngs Moduli (GPa) = 75.13594 98.05468 76.12149
#
# Poissons Ratio (x) = 0.31774 0.50177
# Poissons Ratio (y) = 0.24347 0.18958
# Poissons Ratio (z) = 0.49528 0.24420
#
# Static dielectric constant tensor:
#      x y z
#    x 3.766120 0.000000 0.000000 
#    y 0.000000 3.967840 0.000000 
#    z 0.000000 0.000000 3.547370 
# 
# 
# High freq. dielectric constant tensor:
#      x y z
#    x 1.794030 0.000000 0.000000 
#    y 0.000000 1.783060 0.000000 
#    z 0.000000 0.000000 1.777510 
# 
# From -- ./inp_files/43589.got.cif
#   From: 2010.03.12/outbox.cif.g09.slc.cpg/sg67_22_cif.got.tgz:43589.got - 2010.04.10 22:41:39.
