data_PCOD8280432
_publ_section_title
;
Structure prediction by ZEFSAII (Michael W. Deem and Ramdas Pophale) SiO2 
 PCOD8280432
Probable space group: C M M A
;
_chemical_formula_sum "Si O2"
_cell_formula_units_Z 96
_cell_length_a 14.435976
_cell_length_b 15.001291
_cell_length_c 19.854868
_cell_angle_alpha 90.000000
_cell_angle_beta 90.000000
_cell_angle_gamma 90.000000
_cell_volume 4299.736001
_symmetry_space_group_name_H-M "C M M A"
_symmetry_group_IT_number 67
_symmetry_cell_setting 'orthorhombic'
loop_
_space_group_symop_operation_xyz
x,y,z
-x,1/2-y,z
x,-y,-z
-x,1/2+y,-z
-x,-y,-z
x,1/2+y,-z
-x,y,z
x,1/2-y,z
1/2+x,1/2+y,z
1/2-x,-y,z
1/2+x,1/2-y,-z
1/2-x,y,-z
1/2-x,1/2-y,-z
1/2+x,y,-z
1/2-x,1/2+y,z
1/2+x,-y,z
loop_
_atom_site_type_symbol
_atom_site_label
_atom_site_fract_x
_atom_site_fract_y
_atom_site_fract_z
Si Si1 0.605123 0.346440 0.097257
Si Si2 0.105951 0.648427 0.482906
Si Si3 0.771234 0.902042 0.602953
Si Si4 0.151504 0.977350 0.832395
Si Si5 0.392700 0.853256 0.050595
Si Si6 0.399515 0.152434 0.718990
O O1 0.500000 0.327771 0.078510
O O2 0.646029 0.250000 0.124057
O O3 0.608080 0.426281 0.150820
O O4 0.649128 0.371086 0.024339
O O5 0.103380 0.750000 0.507813
O O6 0.154701 0.591381 0.541676
O O7 0.173013 0.643024 0.417499
O O8 0.000000 0.615326 0.467832
O O9 0.817061 0.851714 0.665272
O O10 0.750000 0.000000 0.628478
O O11 0.164834 0.915132 0.898080
O O12 0.096816 0.924205 0.775353
O O13 0.250000 0.000000 0.801020
O O14 0.500000 0.883021 0.057900
O O15 0.379992 0.750000 0.070186
O O16 0.500000 0.145326 0.682110
O O17 0.390068 0.250000 0.753820
#
# Coordination Sequence:
#
# PCOD8280432 Si02
#       6
#    16  16  16  16  16  16
#     4   9  19  36  58  83 112 149 192 241 300 363
#     4  10  20  36  62  94 128 166 203 244 296 350
#     4  11  22  37  59  92 129 161 198 248 301 360
#     4  12  24  36  53  83 118 153 193 242 302 370
#     4   9  18  35  59  84 110 145 194 249 300 355
#     4  11  24  43  66  86 110 154 210 265 315 362
#
# _framework density 22.326951999999999
#
# number of rings (size 3 to 8) (size 9 to 14) (size 15 to 20)
#    0.000    1.667    0.000    7.500    0.000    8.667 
#    0.000    1.667    0.000    0.000    0.000    4.667 
#    0.000    0.000    0.000    0.000    0.000    0.000 
#
# Total GULP energy -594796.478151 kJ/mol
# GULP energy per Si atom -12391.593295 kJ/mol
# Density = 2.227613 g / cm^3
# Si number density = 22.326952 Si / 1000 Ang^3
#
#
#
# Elastic Constant Matrix: (Units=GPa)
#
#
# Indices 1 2 3 4 5 6 
#
# 1 120.4820 32.2148 36.4545 0.0000 0.0000 0.0000
# 2 32.2148 132.3886 49.6669 0.0000 0.0000 0.0000
# 3 36.4545 49.6669 91.0897 0.0000 0.0000 0.0000
# 4 0.0000 0.0000 0.0000 62.4486 0.0000 0.0000
# 5 0.0000 0.0000 0.0000 0.0000 34.6309 0.0000
# 6 0.0000 0.0000 0.0000 0.0000 0.0000 31.1572
#
#
#
# Elastic Compliance Matrix: (Units=1/GPa)
#
#
# Indices 1 2 3 4 5 6 
#
# 1 0.009574 -0.001122 -0.003220 0.000000 0.000000 0.000000
# 2 -0.001122 0.009627 -0.004800 0.000000 0.000000 0.000000
# 3 -0.003220 -0.004800 0.014884 0.000000 0.000000 0.000000
# 4 0.000000 0.000000 0.000000 0.016013 0.000000 0.000000
# 5 0.000000 0.000000 0.000000 0.000000 0.028876 0.000000
# 6 0.000000 0.000000 0.000000 0.000000 0.000000 0.032095
#
#
# Mechanical properties :
#
#
# Convention : Reuss Voigt Hill
#
# Bulk Modulus (GPa) = 63.28493 64.51475 63.89984
# Shear Modulus (GPa) = 37.14104 40.68895 38.91500
#
# Velocity S-wave (km/s) = 4.08304 4.27361 4.17941
# Velocity P-wave (km/s) = 7.11579 7.30136 7.20917
#
# Compressibility (1/GPa) = 0.01580155
#
# Stress axis : x y z
#
# Youngs Moduli (GPa) = 104.44723 103.87009 67.18476
#
# Poissons Ratio (x) = 0.11651 0.21634
# Poissons Ratio (y) = 0.11716 0.32252
# Poissons Ratio (z) = 0.33632 0.49862
#
# Static dielectric constant tensor:
#      x y z
#    x 4.133460 0.000000 0.000000 
#    y 0.000000 4.121700 0.000000 
#    z 0.000000 0.000000 3.600610 
# 
# 
# High freq. dielectric constant tensor:
#      x y z
#    x 1.882240 0.000000 0.000000 
#    y 0.000000 1.893890 0.000000 
#    z 0.000000 0.000000 1.840700 
# 
# From -- ./inp_files/38407.got.cif
#   From: 2010.03.12/outbox.cif.g09.slc.cpg/sg67_20_cif.got.tgz:38407.got - 2010.04.10 22:41:39.
