data_PCOD8280139
_publ_section_title
;
Structure prediction by ZEFSAII (Michael W. Deem and Ramdas Pophale) SiO2 
 PCOD8280139
Probable space group: C M M A
;
_chemical_formula_sum "Si O2"
_cell_formula_units_Z 72
_cell_length_a 22.353039
_cell_length_b 25.694643
_cell_length_c 6.014395
_cell_angle_alpha 90.000000
_cell_angle_beta 90.000000
_cell_angle_gamma 90.000000
_cell_volume 3454.387959
_symmetry_space_group_name_H-M "C M M A"
_symmetry_group_IT_number 67
_symmetry_cell_setting 'orthorhombic'
loop_
_space_group_symop_operation_xyz
x,y,z
-x,1/2-y,z
x,-y,-z
-x,1/2+y,-z
-x,-y,-z
x,1/2+y,-z
-x,y,z
x,1/2-y,z
1/2+x,1/2+y,z
1/2-x,-y,z
1/2+x,1/2-y,-z
1/2-x,y,-z
1/2-x,1/2-y,-z
1/2+x,y,-z
1/2-x,1/2+y,z
1/2+x,-y,z
loop_
_atom_site_type_symbol
_atom_site_label
_atom_site_fract_x
_atom_site_fract_y
_atom_site_fract_z
Si Si1 0.171777 0.552157 0.634296
Si Si2 0.931697 0.405857 0.114066
Si Si3 0.432150 0.691880 0.423533
Si Si4 0.250000 0.602269 0.000000
Si Si5 0.356835 0.369146 0.264025
O O1 0.185193 0.500000 0.500000
O O2 0.107132 0.550480 0.757076
O O3 0.172233 0.598597 0.460967
O O4 0.223896 0.563484 0.812453
O O5 0.921920 0.349139 0.225812
O O6 0.000000 0.424424 0.118679
O O7 0.909018 0.401612 0.860782
O O8 0.500000 0.686849 0.513603
O O9 0.419976 0.750000 0.331358
O O10 0.387089 0.682174 0.630864
O O11 0.197757 0.640757 0.091401
#
# Coordination Sequence:
#
# PCOD8280139 Si02
#       5
#    16  16  16   8  16
#     4  10  22  38  57  82 110 146 190 232 275 326
#     4   9  19  35  55  82 116 148 181 226 279 335
#     4   9  18  34  57  83 110 143 184 229 278 333
#     4  10  22  37  55  78 110 148 189 236 278 321
#     4  10  20  35  55  80 111 146 188 232 277 326
#
# _framework density 20.843053999999999
#
# number of rings (size 3 to 8) (size 9 to 14) (size 15 to 20)
#    0.000    2.444    0.000    1.333    0.000    8.444 
#    0.000    3.889    0.000   17.333    0.000    0.000 
#    0.000    0.000    0.000    0.000    0.000    0.000 
#
# Total GULP energy -446182.643789 kJ/mol
# GULP energy per Si atom -12393.962327 kJ/mol
# Density = 2.079561 g / cm^3
# Si number density = 20.843054 Si / 1000 Ang^3
#
#
#
# Elastic Constant Matrix: (Units=GPa)
#
#
# Indices 1 2 3 4 5 6 
#
# 1 137.9614 24.5634 49.7639 0.0000 0.0000 0.0000
# 2 24.5634 69.5712 27.6610 0.0000 0.0000 0.0000
# 3 49.7639 27.6610 102.7093 0.0000 0.0000 0.0000
# 4 0.0000 0.0000 0.0000 20.0034 0.0000 0.0000
# 5 0.0000 0.0000 0.0000 0.0000 40.1403 0.0000
# 6 0.0000 0.0000 0.0000 0.0000 0.0000 17.8798
#
#
#
# Elastic Compliance Matrix: (Units=1/GPa)
#
#
# Indices 1 2 3 4 5 6 
#
# 1 0.008941 -0.001606 -0.003899 0.000000 0.000000 0.000000
# 2 -0.001606 0.016386 -0.003635 0.000000 0.000000 0.000000
# 3 -0.003899 -0.003635 0.012604 0.000000 0.000000 0.000000
# 4 0.000000 0.000000 0.000000 0.049992 0.000000 0.000000
# 5 0.000000 0.000000 0.000000 0.000000 0.024913 0.000000
# 6 0.000000 0.000000 0.000000 0.000000 0.000000 0.055929
#
#
# Mechanical properties :
#
#
# Convention : Reuss Voigt Hill
#
# Bulk Modulus (GPa) = 50.88931 57.13539 54.01235
# Shear Modulus (GPa) = 25.82704 29.48828 27.65766
#
# Velocity S-wave (km/s) = 3.52393 3.76543 3.64668
# Velocity P-wave (km/s) = 6.40515 6.81002 6.61068
#
# Compressibility (1/GPa) = 0.01965049
#
# Stress axis : x y z
#
# Youngs Moduli (GPa) = 111.84487 61.02755 79.33748
#
# Poissons Ratio (x) = 0.09803 0.30937
# Poissons Ratio (y) = 0.17967 0.28836
# Poissons Ratio (z) = 0.43613 0.22181
#
# Static dielectric constant tensor:
#      x y z
#    x 4.146060 0.000000 0.000000 
#    y 0.000000 3.454380 0.000000 
#    z 0.000000 0.000000 4.051070 
# 
# 
# High freq. dielectric constant tensor:
#      x y z
#    x 1.835280 0.000000 0.000000 
#    y 0.000000 1.768850 0.000000 
#    z 0.000000 0.000000 1.827320 
# 
# From -- ./inp_files/3457.got.cif
#   From: 2010.03.12/outbox.cif.g09.slc.cpg/sg67_2_cif.got.tgz:3457.got - 2010.04.10 22:41:39.
