data_PCOD8280507
_publ_section_title
;
Structure prediction by ZEFSAII (Michael W. Deem and Ramdas Pophale) SiO2 
 PCOD8280507
Probable space group: C M M A
;
_chemical_formula_sum "Si O2"
_cell_formula_units_Z 96
_cell_length_a 21.663100
_cell_length_b 15.113339
_cell_length_c 14.323085
_cell_angle_alpha 90.000000
_cell_angle_beta 90.000000
_cell_angle_gamma 90.000000
_cell_volume 4689.403439
_symmetry_space_group_name_H-M "C M M A"
_symmetry_group_IT_number 67
_symmetry_cell_setting 'orthorhombic'
loop_
_space_group_symop_operation_xyz
x,y,z
-x,1/2-y,z
x,-y,-z
-x,1/2+y,-z
-x,-y,-z
x,1/2+y,-z
-x,y,z
x,1/2-y,z
1/2+x,1/2+y,z
1/2-x,-y,z
1/2+x,1/2-y,-z
1/2-x,y,-z
1/2-x,1/2-y,-z
1/2+x,y,-z
1/2-x,1/2+y,z
1/2+x,-y,z
loop_
_atom_site_type_symbol
_atom_site_label
_atom_site_fract_x
_atom_site_fract_y
_atom_site_fract_z
Si Si1 0.926998 0.937379 0.411660
Si Si2 0.743377 0.146118 0.109015
Si Si3 0.628204 0.927665 0.778766
Si Si4 0.072424 0.750000 0.973899
Si Si5 0.928940 0.750000 0.175442
Si Si6 0.572147 0.750000 0.508667
Si Si7 0.121400 0.613086 0.837267
Si Si8 0.926895 0.250000 0.303392
O O1 0.878296 0.962568 0.328611
O O2 0.908403 0.837001 0.435898
O O3 0.000000 0.945839 0.382866
O O4 0.913564 0.000000 0.500000
O O5 0.728701 0.250000 0.112254
O O6 0.693318 0.095114 0.172936
O O7 0.805226 0.122796 0.163777
O O8 0.750000 0.114639 0.000000
O O9 0.586600 0.840054 0.772107
O O10 0.601419 0.009960 0.838963
O O11 0.104496 0.750000 0.074889
O O12 0.000000 0.750000 0.972106
O O13 0.095471 0.659608 0.928996
O O14 0.000000 0.750000 0.155188
O O15 0.500000 0.750000 0.491214
O O16 0.602668 0.750000 0.406102
O O17 0.095233 0.660987 0.746365
O O18 0.000000 0.250000 0.302122
#
# Coordination Sequence:
#
# PCOD8280507 Si02
#       8
#    16  16  16   8   8   8  16   8
#     4  10  21  38  61  92 128 163 205 259 319 385
#     4  11  23  42  65  88 119 163 213 267 320 377
#     4  12  24  38  63  91 121 164 209 261 320 381
#     4  10  22  39  57  83 122 164 202 252 316 378
#     4  11  24  38  54  86 130 165 200 248 311 385
#     4   9  18  34  57  83 116 156 195 242 300 365
#     4  11  22  38  61  88 118 154 206 263 307 377
#     4  10  20  37  63  92 121 157 203 256 317 385
#
# _framework density 20.471686999999999
#
# number of rings (size 3 to 8) (size 9 to 14) (size 15 to 20)
#    0.000    1.333    2.500    4.500    0.000    8.000 
#    0.000    1.667    0.000    8.000    0.000    0.000 
#    0.000    0.000    0.000    0.000    0.000    0.000 
#
# Total GULP energy -594698.743260 kJ/mol
# GULP energy per Si atom -12389.557151 kJ/mol
# Density = 2.042509 g / cm^3
# Si number density = 20.471687 Si / 1000 Ang^3
#
#
#
# Elastic Constant Matrix: (Units=GPa)
#
#
# Indices 1 2 3 4 5 6 
#
# 1 79.9898 34.3488 48.2375 0.0000 0.0000 0.0000
# 2 34.3488 148.6409 27.4648 0.0000 0.0000 0.0000
# 3 48.2375 27.4648 124.7424 0.0000 0.0000 0.0000
# 4 0.0000 0.0000 0.0000 21.0180 0.0000 0.0000
# 5 0.0000 0.0000 0.0000 0.0000 7.9703 0.0000
# 6 0.0000 0.0000 0.0000 0.0000 0.0000 -18.7759
#
#
#
# Elastic Compliance Matrix: (Units=1/GPa)
#
#
# Indices 1 2 3 4 5 6 
#
# 1 0.017425 -0.002900 -0.006100 0.000000 0.000000 0.000000
# 2 -0.002900 0.007495 -0.000529 0.000000 0.000000 0.000000
# 3 -0.006100 -0.000529 0.010492 0.000000 0.000000 0.000000
# 4 0.000000 0.000000 0.000000 0.047578 0.000000 0.000000
# 5 0.000000 0.000000 0.000000 0.000000 0.125465 0.000000
# 6 0.000000 0.000000 0.000000 0.000000 0.000000 -0.053260
#
#
# Mechanical properties :
#
#
# Convention : Reuss Voigt Hill
#
# Bulk Modulus (GPa) = 61.14170 63.71947 62.43059
# Shear Modulus (GPa) = 27.82335 18.26395 23.04365
#
# Velocity S-wave (km/s) = 3.69062 2.99014 3.35869
# Velocity P-wave (km/s) = 6.93485 6.56616 6.75302
#
# Compressibility (1/GPa) = 0.01635545
#
# Stress axis : x y z
#
# Youngs Moduli (GPa) = 57.38799 133.41461 95.31253
#
# Poissons Ratio (x) = 0.38685 0.58139
# Poissons Ratio (y) = 0.16640 0.05042
# Poissons Ratio (z) = 0.35006 0.07058
#
# Static dielectric constant tensor:
#      x y z
#    x 0.445040 0.000000 0.000000 
#    y 0.000000 4.539460 0.000000 
#    z 0.000000 0.000000 3.983430 
# 
# 
# High freq. dielectric constant tensor:
#      x y z
#    x 1.776660 0.000000 0.000000 
#    y 0.000000 1.818960 0.000000 
#    z 0.000000 0.000000 1.806810 
# 
# From -- ./inp_files/29401.got.cif
#   From: 2010.03.12/outbox.cif.g09.slc.cpg/sg67_15_cif.got.tgz:29401.got - 2010.04.10 22:41:39.
