data_PCOD8280416
_publ_section_title
;
Structure prediction by ZEFSAII (Michael W. Deem and Ramdas Pophale) SiO2 
 PCOD8280416
Probable space group: C M M A
;
_chemical_formula_sum "Si O2"
_cell_formula_units_Z 64
_cell_length_a 18.212471
_cell_length_b 7.564451
_cell_length_c 23.677892
_cell_angle_alpha 90.000000
_cell_angle_beta 90.000000
_cell_angle_gamma 90.000000
_cell_volume 3262.040303
_symmetry_space_group_name_H-M "C M M A"
_symmetry_group_IT_number 67
_symmetry_cell_setting 'orthorhombic'
loop_
_space_group_symop_operation_xyz
x,y,z
-x,1/2-y,z
x,-y,-z
-x,1/2+y,-z
-x,-y,-z
x,1/2+y,-z
-x,y,z
x,1/2-y,z
1/2+x,1/2+y,z
1/2-x,-y,z
1/2+x,1/2-y,-z
1/2-x,y,-z
1/2-x,1/2-y,-z
1/2+x,y,-z
1/2-x,1/2+y,z
1/2+x,-y,z
loop_
_atom_site_type_symbol
_atom_site_label
_atom_site_fract_x
_atom_site_fract_y
_atom_site_fract_z
Si Si1 0.416515 0.956296 0.562295
Si Si2 0.085485 0.750000 0.131788
Si Si3 0.834167 0.053249 0.329769
Si Si4 0.085884 0.250000 0.736498
Si Si5 0.334675 0.454960 0.936567
O O1 0.500000 0.026428 0.567834
O O2 0.412416 0.750000 0.575336
O O3 0.386305 0.000000 0.500000
O O4 0.365507 0.054979 0.606866
O O5 0.103170 0.750000 0.197638
O O6 0.118673 0.571785 0.106121
O O7 0.000000 0.750000 0.118798
O O8 0.841351 0.250000 0.304538
O O9 0.750000 0.000000 0.331851
O O10 0.879767 0.925349 0.289665
O O11 0.000000 0.250000 0.722758
O O12 0.349621 0.250000 0.923338
O O13 0.250000 0.500000 0.927906
O O14 0.359432 0.500000 0.000000
#
# Coordination Sequence:
#
# PCOD8280416 Si02
#       5
#    16   8  16   8  16
#     4  10  20  36  60  93 129 166 210 256 314 391
#     4  11  26  43  63  99 133 166 217 269 317 377
#     4  12  24  43  67  94 127 166 214 269 326 377
#     4  11  26  48  67  90 131 173 215 264 319 391
#     4  11  20  40  68  97 132 174 217 258 317 385
#
# _framework density 19.619623000000001
#
# number of rings (size 3 to 8) (size 9 to 14) (size 15 to 20)
#    0.000    1.000    5.000    2.250    0.000    6.500 
#    0.000    5.000    0.000    0.000    0.000    0.000 
#    0.000    0.000    0.000    0.000    0.000    0.000 
#
# Total GULP energy -396962.699782 kJ/mol
# GULP energy per Si atom -12405.084368 kJ/mol
# Density = 1.957497 g / cm^3
# Si number density = 19.619623 Si / 1000 Ang^3
#
#
#
# Elastic Constant Matrix: (Units=GPa)
#
#
# Indices 1 2 3 4 5 6 
#
# 1 116.8891 65.3020 90.0108 0.0000 0.0000 0.0000
# 2 65.3020 187.6985 66.7502 0.0000 0.0000 0.0000
# 3 90.0108 66.7502 127.8197 0.0000 0.0000 0.0000
# 4 0.0000 0.0000 0.0000 26.1918 0.0000 0.0000
# 5 0.0000 0.0000 0.0000 0.0000 7.5893 0.0000
# 6 0.0000 0.0000 0.0000 0.0000 0.0000 30.7207
#
#
#
# Elastic Compliance Matrix: (Units=1/GPa)
#
#
# Indices 1 2 3 4 5 6 
#
# 1 0.019488 -0.002333 -0.012505 0.000000 0.000000 0.000000
# 2 -0.002333 0.006822 -0.001920 0.000000 0.000000 0.000000
# 3 -0.012505 -0.001920 0.017632 0.000000 0.000000 0.000000
# 4 0.000000 0.000000 0.000000 0.038180 0.000000 0.000000
# 5 0.000000 0.000000 0.000000 0.000000 0.131764 0.000000
# 6 0.000000 0.000000 0.000000 0.000000 0.000000 0.032551
#
#
# Mechanical properties :
#
#
# Convention : Reuss Voigt Hill
#
# Bulk Modulus (GPa) = 95.90896 97.39260 96.65078
# Shear Modulus (GPa) = 17.64109 26.92331 22.28220
#
# Velocity S-wave (km/s) = 3.00185 3.70843 3.37369
# Velocity P-wave (km/s) = 7.81058 8.25135 8.03399
#
# Compressibility (1/GPa) = 0.01042655
#
# Stress axis : x y z
#
# Youngs Moduli (GPa) = 51.31315 146.58328 56.71404
#
# Poissons Ratio (x) = 0.34197 0.70923
# Poissons Ratio (y) = 0.11971 0.10888
# Poissons Ratio (z) = 0.64169 0.28141
#
# Static dielectric constant tensor:
#      x y z
#    x 3.616510 0.000000 0.000000 
#    y 0.000000 3.726290 0.000000 
#    z 0.000000 0.000000 3.597010 
# 
# 
# High freq. dielectric constant tensor:
#      x y z
#    x 1.765060 0.000000 0.000000 
#    y 0.000000 1.783460 0.000000 
#    z 0.000000 0.000000 1.763420 
# 
# From -- ./inp_files/40413.got.cif
#   From: 2010.03.12/outbox.cif.g09.slc.cpg/sg67_21_cif.got.tgz:40413.got - 2010.04.10 22:41:39.
