data_PCOD8280527
_publ_section_title
;
Structure prediction by ZEFSAII (Michael W. Deem and Ramdas Pophale) SiO2 
 PCOD8280527
Probable space group: C M M A
;
_chemical_formula_sum "Si O2"
_cell_formula_units_Z 104
_cell_length_a 26.063445
_cell_length_b 20.899044
_cell_length_c 9.959499
_cell_angle_alpha 90.000000
_cell_angle_beta 90.000000
_cell_angle_gamma 90.000000
_cell_volume 5424.949900
_symmetry_space_group_name_H-M "C M M A"
_symmetry_group_IT_number 67
_symmetry_cell_setting 'orthorhombic'
loop_
_space_group_symop_operation_xyz
x,y,z
-x,1/2-y,z
x,-y,-z
-x,1/2+y,-z
-x,-y,-z
x,1/2+y,-z
-x,y,z
x,1/2-y,z
1/2+x,1/2+y,z
1/2-x,-y,z
1/2+x,1/2-y,-z
1/2-x,y,-z
1/2-x,1/2-y,-z
1/2+x,y,-z
1/2-x,1/2+y,z
1/2+x,-y,z
loop_
_atom_site_type_symbol
_atom_site_label
_atom_site_fract_x
_atom_site_fract_y
_atom_site_fract_z
Si Si1 0.866359 0.000000 0.500000
Si Si2 0.058872 0.891134 0.600087
Si Si3 0.811123 0.996868 0.231539
Si Si4 0.941465 0.321731 0.666004
Si Si5 0.304708 0.250000 0.150802
Si Si6 0.369190 0.373125 0.834121
Si Si7 0.635108 0.125633 0.140830
Si Si8 0.307587 0.750000 0.167160
O O1 0.903677 0.944744 0.545929
O O2 0.828213 0.021126 0.618308
O O3 0.063559 0.833508 0.493717
O O4 0.078383 0.871984 0.748197
O O5 0.000000 0.915026 0.612090
O O6 0.835520 0.063345 0.184225
O O7 0.750000 0.000000 0.218233
O O8 0.832350 0.939664 0.138799
O O9 0.920968 0.250000 0.695982
O O10 0.912648 0.375382 0.755958
O O11 0.000000 0.327930 0.710652
O O12 0.331763 0.315183 0.196185
O O13 0.249858 0.250000 0.225325
O O14 0.301812 0.250000 0.991553
O O15 0.336022 0.313382 0.781560
O O16 0.384990 0.363823 0.989297
#
# Coordination Sequence:
#
# PCOD8280527 Si02
#       8
#     8  16  16  16   8  16  16   8
#     4  10  20  38  60  84 114 152 194 242 288 346
#     4  10  21  39  61  83 112 151 192 237 294 354
#     4  11  22  37  59  87 119 155 196 240 289 345
#     4  10  21  38  61  86 113 152 198 240 292 352
#     4   9  18  32  58  79 108 154 191 225 286 347
#     4  10  23  36  57  86 117 151 190 242 293 344
#     4  11  20  37  59  86 119 151 192 244 291 345
#     4   9  18  36  52  79 114 150 189 231 281 350
#
# _framework density 19.170684000000001
#
# number of rings (size 3 to 8) (size 9 to 14) (size 15 to 20)
#    0.000    1.846    2.308    1.846    1.077    3.077 
#    0.000    0.000    0.000    3.692    0.000    0.000 
#    0.000    0.000    0.000    0.000    0.000    0.000 
#
# Total GULP energy -644666.586201 kJ/mol
# GULP energy per Si atom -12397.434350 kJ/mol
# Density = 1.912705 g / cm^3
# Si number density = 19.170684 Si / 1000 Ang^3
#
#
#
# Elastic Constant Matrix: (Units=GPa)
#
#
# Indices 1 2 3 4 5 6 
#
# 1 104.2767 41.3407 44.6067 0.0000 0.0000 0.0000
# 2 41.3407 117.6588 18.6402 0.0000 0.0000 0.0000
# 3 44.6067 18.6402 93.1707 0.0000 0.0000 0.0000
# 4 0.0000 0.0000 0.0000 25.2614 0.0000 0.0000
# 5 0.0000 0.0000 0.0000 0.0000 6.8523 0.0000
# 6 0.0000 0.0000 0.0000 0.0000 0.0000 2.1945
#
#
#
# Elastic Compliance Matrix: (Units=1/GPa)
#
#
# Indices 1 2 3 4 5 6 
#
# 1 0.013569 -0.003861 -0.005724 0.000000 0.000000 0.000000
# 2 -0.003861 0.009876 -0.000127 0.000000 0.000000 0.000000
# 3 -0.005724 -0.000127 0.013499 0.000000 0.000000 0.000000
# 4 0.000000 0.000000 0.000000 0.039586 0.000000 0.000000
# 5 0.000000 0.000000 0.000000 0.000000 0.145936 0.000000
# 6 0.000000 0.000000 0.000000 0.000000 0.000000 0.455676
#
#
# Mechanical properties :
#
#
# Convention : Reuss Voigt Hill
#
# Bulk Modulus (GPa) = 57.07929 58.25349 57.66639
# Shear Modulus (GPa) = 7.10827 20.89623 14.00225
#
# Velocity S-wave (km/s) = 1.92768 3.30511 2.70552
# Velocity P-wave (km/s) = 5.89860 6.70953 6.31709
#
# Compressibility (1/GPa) = 0.01751949
#
# Stress axis : x y z
#
# Youngs Moduli (GPa) = 73.69714 101.25693 74.08009
#
# Poissons Ratio (x) = 0.39093 0.42403
# Poissons Ratio (y) = 0.28453 0.00944
# Poissons Ratio (z) = 0.42184 0.01290
#
# Static dielectric constant tensor:
#      x y z
#    x 3.581400 0.000000 0.000000 
#    y 0.000000 3.637470 0.000000 
#    z 0.000000 0.000000 3.533670 
# 
# 
# High freq. dielectric constant tensor:
#      x y z
#    x 1.746290 0.000000 0.000000 
#    y 0.000000 1.751320 0.000000 
#    z 0.000000 0.000000 1.738830 
# 
# From -- ./inp_files/13829.got.cif
#   From: 2010.03.12/outbox.cif.g09.slc.cpg/sg67_7_cif.got.tgz:13829.got - 2010.04.10 22:41:39.
