data_PCOD8280665
_publ_section_title
;
Structure prediction by ZEFSAII (Michael W. Deem and Ramdas Pophale) SiO2 
 PCOD8280665
Probable space group: C M M A
;
_chemical_formula_sum "Si O2"
_cell_formula_units_Z 96
_cell_length_a 15.163514
_cell_length_b 14.009267
_cell_length_c 22.858553
_cell_angle_alpha 90.000000
_cell_angle_beta 90.000000
_cell_angle_gamma 90.000000
_cell_volume 4855.835928
_symmetry_space_group_name_H-M "C M M A"
_symmetry_group_IT_number 67
_symmetry_cell_setting 'orthorhombic'
loop_
_space_group_symop_operation_xyz
x,y,z
-x,1/2-y,z
x,-y,-z
-x,1/2+y,-z
-x,-y,-z
x,1/2+y,-z
-x,y,z
x,1/2-y,z
1/2+x,1/2+y,z
1/2-x,-y,z
1/2+x,1/2-y,-z
1/2-x,y,-z
1/2-x,1/2-y,-z
1/2+x,y,-z
1/2-x,1/2+y,z
1/2+x,-y,z
loop_
_atom_site_type_symbol
_atom_site_label
_atom_site_fract_x
_atom_site_fract_y
_atom_site_fract_z
Si Si1 0.596920 0.991294 0.251323
Si Si2 0.674488 0.354194 0.658742
Si Si3 0.597833 0.511133 0.436283
Si Si4 0.749282 0.359509 0.930799
Si Si5 0.878458 0.854126 0.344440
Si Si6 0.107433 0.502111 0.116681
O O1 0.500000 0.945427 0.252419
O O2 0.594269 0.091424 0.285404
O O3 0.627176 0.007765 0.185430
O O4 0.659078 0.914852 0.282721
O O5 0.627624 0.250000 0.662023
O O6 0.648305 0.410218 0.600803
O O7 0.776172 0.338655 0.653970
O O8 0.643839 0.500000 0.500000
O O9 0.500000 0.551433 0.446146
O O10 0.592244 0.411362 0.401955
O O11 0.747562 0.250000 0.909583
O O12 0.841758 0.406194 0.909570
O O13 0.658788 0.408959 0.907738
O O14 0.750000 0.368027 0.000000
O O15 0.924489 0.750000 0.344704
O O16 0.000000 0.501337 0.102979
#
# Coordination Sequence:
#
# PCOD8280665 Si02
#       6
#    16  16  16  16  16  16
#     4  10  21  36  55  81 112 144 181 226 277 333
#     4  10  21  35  54  79 106 140 178 221 277 334
#     4  10  21  36  54  75 101 137 180 226 274 327
#     4  10  23  41  62  91 125 162 203 249 300 352
#     4  10  21  35  54  79 106 140 178 221 277 334
#     4  10  22  39  62  91 122 161 206 250 299 356
#
# _framework density 19.770026000000001
#
# number of rings (size 3 to 8) (size 9 to 14) (size 15 to 20)
#    0.000    2.000    0.000    5.000    4.667    8.000 
#    0.000    8.333    0.000    0.000    0.000    0.000 
#    0.000    0.000    0.000    0.000    0.000    0.000 
#
# Total GULP energy -594798.453762 kJ/mol
# GULP energy per Si atom -12391.634453 kJ/mol
# Density = 1.972503 g / cm^3
# Si number density = 19.770026 Si / 1000 Ang^3
#
#
#
# Elastic Constant Matrix: (Units=GPa)
#
#
# Indices 1 2 3 4 5 6 
#
# 1 117.6806 44.9559 37.0508 0.0000 0.0000 0.0000
# 2 44.9559 163.3605 61.1517 0.0000 0.0000 0.0000
# 3 37.0508 61.1517 146.2863 0.0000 0.0000 0.0000
# 4 0.0000 0.0000 0.0000 25.8287 0.0000 0.0000
# 5 0.0000 0.0000 0.0000 0.0000 32.8011 0.0000
# 6 0.0000 0.0000 0.0000 0.0000 0.0000 30.1664
#
#
#
# Elastic Compliance Matrix: (Units=1/GPa)
#
#
# Indices 1 2 3 4 5 6 
#
# 1 0.009804 -0.002097 -0.001607 0.000000 0.000000 0.000000
# 2 -0.002097 0.007705 -0.002690 0.000000 0.000000 0.000000
# 3 -0.001607 -0.002690 0.008367 0.000000 0.000000 0.000000
# 4 0.000000 0.000000 0.000000 0.038717 0.000000 0.000000
# 5 0.000000 0.000000 0.000000 0.000000 0.030487 0.000000
# 6 0.000000 0.000000 0.000000 0.000000 0.000000 0.033149
#
#
# Mechanical properties :
#
#
# Convention : Reuss Voigt Hill
#
# Bulk Modulus (GPa) = 76.39256 79.29379 77.84317
# Shear Modulus (GPa) = 34.39257 36.70386 35.54821
#
# Velocity S-wave (km/s) = 4.17541 4.31343 4.24498
# Velocity P-wave (km/s) = 7.87210 8.06243 7.96783
#
# Compressibility (1/GPa) = 0.01309028
#
# Stress axis : x y z
#
# Youngs Moduli (GPa) = 101.99493 129.77924 119.51179
#
# Poissons Ratio (x) = 0.27210 0.19203
# Poissons Ratio (y) = 0.21385 0.32149
# Poissons Ratio (z) = 0.16388 0.34911
#
# Static dielectric constant tensor:
#      x y z
#    x 3.834220 0.000000 0.000000 
#    y 0.000000 3.754680 0.000000 
#    z 0.000000 0.000000 3.845320 
# 
# 
# High freq. dielectric constant tensor:
#      x y z
#    x 1.785860 0.000000 0.000000 
#    y 0.000000 1.770300 0.000000 
#    z 0.000000 0.000000 1.773820 
# 
# From -- ./inp_files/38509.got.cif
#   From: 2010.03.12/outbox.cif.g09.slc.cpg/sg67_20_cif.got.tgz:38509.got - 2010.04.10 22:41:39.
