data_PCOD8280299
_publ_section_title
;
Structure prediction by ZEFSAII (Michael W. Deem and Ramdas Pophale) SiO2 
 PCOD8280299
Probable space group: C M M A
;
_chemical_formula_sum "Si O2"
_cell_formula_units_Z 64
_cell_length_a 8.643188
_cell_length_b 38.986288
_cell_length_c 10.241721
_cell_angle_alpha 90.000000
_cell_angle_beta 90.000000
_cell_angle_gamma 90.000000
_cell_volume 3451.109880
_symmetry_space_group_name_H-M "C M M A"
_symmetry_group_IT_number 67
_symmetry_cell_setting 'orthorhombic'
loop_
_space_group_symop_operation_xyz
x,y,z
-x,1/2-y,z
x,-y,-z
-x,1/2+y,-z
-x,-y,-z
x,1/2+y,-z
-x,y,z
x,1/2-y,z
1/2+x,1/2+y,z
1/2-x,-y,z
1/2+x,1/2-y,-z
1/2-x,y,-z
1/2-x,1/2-y,-z
1/2+x,y,-z
1/2-x,1/2+y,z
1/2+x,-y,z
loop_
_atom_site_type_symbol
_atom_site_label
_atom_site_fract_x
_atom_site_fract_y
_atom_site_fract_z
Si Si1 0.181672 0.336953 0.135506
Si Si2 0.316901 0.288864 0.636374
Si Si3 0.316437 0.963029 0.639061
Si Si4 0.683028 0.415766 0.861665
O O1 0.250267 0.313427 0.250850
O O2 0.228776 0.376225 0.161065
O O3 0.000000 0.332753 0.127282
O O4 0.250000 0.323381 0.000000
O O5 0.500000 0.291146 0.629595
O O6 0.261331 0.250000 0.664260
O O7 0.250000 0.302347 0.500000
O O8 0.500000 0.965157 0.630165
O O9 0.250000 0.950746 0.500000
O O10 0.265770 0.936284 0.747703
O O11 0.250000 0.000000 0.677699
O O12 0.500000 0.421917 0.858240
O O13 0.750000 0.428599 0.000000
#
# Coordination Sequence:
#
# PCOD8280299 Si02
#       4
#    16  16  16  16
#     4   9  19  34  52  75 104 136 171 213 258 306
#     4   9  18  33  51  73 102 135 172 214 258 305
#     4  11  22  38  58  81 108 139 174 214 260 309
#     4  10  20  36  55  78 107 139 176 217 262 311
#
# _framework density 18.544758999999999
#
# number of rings (size 3 to 8) (size 9 to 14) (size 15 to 20)
#    0.000    2.250    0.000    3.750    0.000    4.000 
#    0.000    5.000    0.000    0.000    0.000    0.000 
#    0.000    0.000    0.000    0.000    0.000    0.000 
#
# Total GULP energy -396877.314605 kJ/mol
# GULP energy per Si atom -12402.416081 kJ/mol
# Density = 1.850255 g / cm^3
# Si number density = 18.544759 Si / 1000 Ang^3
#
#
#
# Elastic Constant Matrix: (Units=GPa)
#
#
# Indices 1 2 3 4 5 6 
#
# 1 80.2948 38.2484 52.0615 0.0000 0.0000 0.0000
# 2 38.2484 91.6975 100.1844 0.0000 0.0000 0.0000
# 3 52.0615 100.1844 187.1731 0.0000 0.0000 0.0000
# 4 0.0000 0.0000 0.0000 38.2317 0.0000 0.0000
# 5 0.0000 0.0000 0.0000 0.0000 37.1625 0.0000
# 6 0.0000 0.0000 0.0000 0.0000 0.0000 22.3472
#
#
#
# Elastic Compliance Matrix: (Units=1/GPa)
#
#
# Indices 1 2 3 4 5 6 
#
# 1 0.015877 -0.004330 -0.002099 0.000000 0.000000 0.000000
# 2 -0.004330 0.027445 -0.013486 0.000000 0.000000 0.000000
# 3 -0.002099 -0.013486 0.013145 0.000000 0.000000 0.000000
# 4 0.000000 0.000000 0.000000 0.026156 0.000000 0.000000
# 5 0.000000 0.000000 0.000000 0.000000 0.026909 0.000000
# 6 0.000000 0.000000 0.000000 0.000000 0.000000 0.044748
#
#
# Mechanical properties :
#
#
# Convention : Reuss Voigt Hill
#
# Bulk Modulus (GPa) = 60.10022 82.23934 71.16978
# Shear Modulus (GPa) = 25.04307 30.79302 27.91804
#
# Velocity S-wave (km/s) = 3.67878 4.07931 3.88421
# Velocity P-wave (km/s) = 7.10796 8.16274 7.65354
#
# Compressibility (1/GPa) = 0.01663888
#
# Stress axis : x y z
#
# Youngs Moduli (GPa) = 62.98284 36.43588 76.07594
#
# Poissons Ratio (x) = 0.15775 0.15967
# Poissons Ratio (y) = 0.27269 1.02595
# Poissons Ratio (z) = 0.13219 0.49137
#
# Static dielectric constant tensor:
#      x y z
#    x 3.386870 0.000000 0.000000 
#    y 0.000000 3.524280 0.000000 
#    z 0.000000 0.000000 3.659010 
# 
# 
# High freq. dielectric constant tensor:
#      x y z
#    x 1.723020 0.000000 0.000000 
#    y 0.000000 1.716200 0.000000 
#    z 0.000000 0.000000 1.730680 
# 
# From -- ./inp_files/15793.got.cif
#   From: 2010.03.12/outbox.cif.g09.slc.cpg/sg67_8_cif.got.tgz:15793.got - 2010.04.10 22:41:39.
