data_PCOD8280867
_publ_section_title
;
Structure prediction by ZEFSAII (Michael W. Deem and Ramdas Pophale) SiO2 
 PCOD8280867
Probable space group: C M M A
;
_chemical_formula_sum "Si O2"
_cell_formula_units_Z 64
_cell_length_a 17.897092
_cell_length_b 14.658713
_cell_length_c 11.078475
_cell_angle_alpha 90.000000
_cell_angle_beta 90.000000
_cell_angle_gamma 90.000000
_cell_volume 2906.419472
_symmetry_space_group_name_H-M "C M M A"
_symmetry_group_IT_number 67
_symmetry_cell_setting 'orthorhombic'
loop_
_space_group_symop_operation_xyz
x,y,z
-x,1/2-y,z
x,-y,-z
-x,1/2+y,-z
-x,-y,-z
x,1/2+y,-z
-x,y,z
x,1/2-y,z
1/2+x,1/2+y,z
1/2-x,-y,z
1/2+x,1/2-y,-z
1/2-x,y,-z
1/2-x,1/2-y,-z
1/2+x,y,-z
1/2-x,1/2+y,z
1/2+x,-y,z
loop_
_atom_site_type_symbol
_atom_site_label
_atom_site_fract_x
_atom_site_fract_y
_atom_site_fract_z
Si Si1 0.148252 0.647385 0.717437
Si Si2 0.084258 0.536458 0.228694
Si Si3 0.288075 0.145759 0.124233
Si Si4 0.584905 0.852023 0.536572
O O1 0.123030 0.750000 0.756424
O O2 0.094023 0.572682 0.777173
O O3 0.232742 0.629236 0.762227
O O4 0.143317 0.636792 0.572838
O O5 0.139033 0.583582 0.134105
O O6 0.103977 0.573748 0.362256
O O7 0.000000 0.561924 0.192644
O O8 0.314297 0.250000 0.118399
O O9 0.250000 0.115945 0.000000
O O10 0.500000 0.866893 0.488026
O O11 0.592759 0.750000 0.592195
#
# Coordination Sequence:
#
# PCOD8280867 Si02
#       4
#    16  16  16  16
#     4  10  21  37  59  87 122 163 199 237 292 354
#     4  11  22  37  62  92 121 155 197 246 299 356
#     4  10  23  44  65  85 115 155 200 251 300 349
#     4   9  18  34  57  88 125 158 193 243 300 357
#
# _framework density 22.020220999999999
#
# number of rings (size 3 to 8) (size 9 to 14) (size 15 to 20)
#    0.000    2.000    0.000    3.000    0.000    8.000 
#    0.000   10.000    0.000    9.000    0.000    0.000 
#    0.000    0.000    0.000    0.000    0.000    0.000 
#
# Total GULP energy -396801.514861 kJ/mol
# GULP energy per Si atom -12400.047339 kJ/mol
# Density = 2.197010 g / cm^3
# Si number density = 22.020221 Si / 1000 Ang^3
#
#
#
# Elastic Constant Matrix: (Units=GPa)
#
#
# Indices 1 2 3 4 5 6 
#
# 1 126.7674 74.9350 67.6500 0.0000 0.0000 0.0000
# 2 74.9350 146.9324 50.2659 0.0000 0.0000 0.0000
# 3 67.6500 50.2659 83.5929 0.0000 0.0000 0.0000
# 4 0.0000 0.0000 0.0000 21.6802 0.0000 0.0000
# 5 0.0000 0.0000 0.0000 0.0000 31.3381 0.0000
# 6 0.0000 0.0000 0.0000 0.0000 0.0000 25.2214
#
#
#
# Elastic Compliance Matrix: (Units=1/GPa)
#
#
# Indices 1 2 3 4 5 6 
#
# 1 0.016138 -0.004737 -0.010212 0.000000 0.000000 0.000000
# 2 -0.004737 0.009959 -0.002155 0.000000 0.000000 0.000000
# 3 -0.010212 -0.002155 0.021523 0.000000 0.000000 0.000000
# 4 0.000000 0.000000 0.000000 0.046125 0.000000 0.000000
# 5 0.000000 0.000000 0.000000 0.000000 0.031910 0.000000
# 6 0.000000 0.000000 0.000000 0.000000 0.000000 0.039649
#
#
# Mechanical properties :
#
#
# Convention : Reuss Voigt Hill
#
# Bulk Modulus (GPa) = 74.55824 82.55495 78.55660
# Shear Modulus (GPa) = 24.51194 26.61072 25.56133
#
# Velocity S-wave (km/s) = 3.34002 3.48007 3.41077
# Velocity P-wave (km/s) = 6.98619 7.32938 7.15984
#
# Compressibility (1/GPa) = 0.01341233
#
# Stress axis : x y z
#
# Youngs Moduli (GPa) = 61.96490 100.41294 46.46223
#
# Poissons Ratio (x) = 0.47565 0.47447
# Poissons Ratio (y) = 0.29352 0.10013
# Poissons Ratio (z) = 0.63278 0.21639
#
# Static dielectric constant tensor:
#      x y z
#    x 3.805850 0.000000 0.000000 
#    y 0.000000 4.277840 0.000000 
#    z 0.000000 0.000000 3.737080 
# 
# 
# High freq. dielectric constant tensor:
#      x y z
#    x 1.849280 0.000000 0.000000 
#    y 0.000000 1.887130 0.000000 
#    z 0.000000 0.000000 1.842510 
# 
# From -- ./inp_files/17491.got.cif
#   From: 2010.03.12/outbox.cif.g09.slc.cpg/sg67_9_cif.got.tgz:17491.got - 2010.04.10 22:41:39.
