data_PCOD8280450
_publ_section_title
;
Structure prediction by ZEFSAII (Michael W. Deem and Ramdas Pophale) SiO2 
 PCOD8280450
Probable space group: C M M A
;
_chemical_formula_sum "Si O2"
_cell_formula_units_Z 88
_cell_length_a 20.866704
_cell_length_b 13.988345
_cell_length_c 14.681464
_cell_angle_alpha 90.000000
_cell_angle_beta 90.000000
_cell_angle_gamma 90.000000
_cell_volume 4285.382137
_symmetry_space_group_name_H-M "C M M A"
_symmetry_group_IT_number 67
_symmetry_cell_setting 'orthorhombic'
loop_
_space_group_symop_operation_xyz
x,y,z
-x,1/2-y,z
x,-y,-z
-x,1/2+y,-z
-x,-y,-z
x,1/2+y,-z
-x,y,z
x,1/2-y,z
1/2+x,1/2+y,z
1/2-x,-y,z
1/2+x,1/2-y,-z
1/2-x,y,-z
1/2-x,1/2-y,-z
1/2+x,y,-z
1/2-x,1/2+y,z
1/2+x,-y,z
loop_
_atom_site_type_symbol
_atom_site_label
_atom_site_fract_x
_atom_site_fract_y
_atom_site_fract_z
Si Si1 0.646319 0.536965 0.645154
Si Si2 0.177256 0.860681 0.528631
Si Si3 0.071892 0.109609 0.982492
Si Si4 0.750000 0.000000 0.777699
Si Si5 0.798965 0.856142 0.921207
Si Si6 0.074107 0.145450 0.781907
O O1 0.653248 0.426287 0.612901
O O2 0.637850 0.608569 0.560308
O O3 0.705770 0.563777 0.710844
O O4 0.586094 0.560153 0.709563
O O5 0.165936 0.750000 0.554063
O O6 0.250000 0.883656 0.500000
O O7 0.102605 0.125397 0.882149
O O8 0.000000 0.156630 0.995863
O O9 0.126326 0.149631 0.049751
O O10 0.063294 0.000000 0.000000
O O11 0.792951 0.928344 0.836953
O O12 0.778422 0.750000 0.889764
O O13 0.750000 0.891578 0.000000
O O14 0.099080 0.250000 0.747276
O O15 0.000000 0.148303 0.798830
#
# Coordination Sequence:
#
# PCOD8280450 Si02
#       6
#    16  16  16   8  16  16
#     4  11  20  37  58  84 116 148 187 238 292 348
#     4  10  20  37  59  85 117 152 187 225 283 361
#     4  10  20  37  59  81 112 160 206 245 291 348
#     4  12  23  35  54  84 116 144 188 243 297 350
#     4  11  23  36  52  79 115 153 191 240 298 345
#     4  10  21  36  58  86 114 151 200 245 286 341
#
# _framework density 20.534925000000001
#
# number of rings (size 3 to 8) (size 9 to 14) (size 15 to 20)
#    0.000    1.455    1.818    5.182    0.000    4.727 
#    0.000    1.818    0.000    1.636    0.000    0.000 
#    0.000    0.000    0.000    0.000    0.000    0.000 
#
# Total GULP energy -545138.178978 kJ/mol
# GULP energy per Si atom -12389.504068 kJ/mol
# Density = 2.048819 g / cm^3
# Si number density = 20.534925 Si / 1000 Ang^3
#
#
#
# Elastic Constant Matrix: (Units=GPa)
#
#
# Indices 1 2 3 4 5 6 
#
# 1 61.4207 20.9086 33.8610 0.0000 0.0000 0.0000
# 2 20.9086 135.5700 54.8549 0.0000 0.0000 0.0000
# 3 33.8610 54.8549 115.8919 0.0000 0.0000 0.0000
# 4 0.0000 0.0000 0.0000 25.1191 0.0000 0.0000
# 5 0.0000 0.0000 0.0000 0.0000 34.2267 0.0000
# 6 0.0000 0.0000 0.0000 0.0000 0.0000 19.5267
#
#
#
# Elastic Compliance Matrix: (Units=1/GPa)
#
#
# Indices 1 2 3 4 5 6 
#
# 1 0.019489 -0.000868 -0.005284 0.000000 0.000000 0.000000
# 2 -0.000868 0.009162 -0.004083 0.000000 0.000000 0.000000
# 3 -0.005284 -0.004083 0.012105 0.000000 0.000000 0.000000
# 4 0.000000 0.000000 0.000000 0.039810 0.000000 0.000000
# 5 0.000000 0.000000 0.000000 0.000000 0.029217 0.000000
# 6 0.000000 0.000000 0.000000 0.000000 0.000000 0.051212
#
#
# Mechanical properties :
#
#
# Convention : Reuss Voigt Hill
#
# Bulk Modulus (GPa) = 49.29140 59.12573 54.20857
# Shear Modulus (GPa) = 26.56356 29.32505 27.94430
#
# Velocity S-wave (km/s) = 3.60054 3.78306 3.69293
# Velocity P-wave (km/s) = 6.42969 6.92368 6.68126
#
# Compressibility (1/GPa) = 0.02028751
#
# Stress axis : x y z
#
# Youngs Moduli (GPa) = 51.30990 109.14330 82.60962
#
# Poissons Ratio (x) = 0.09473 0.43647
# Poissons Ratio (y) = 0.04453 0.33731
# Poissons Ratio (z) = 0.27110 0.44565
#
# Static dielectric constant tensor:
#      x y z
#    x 3.759720 0.000000 0.000000 
#    y 0.000000 3.874070 0.000000 
#    z 0.000000 0.000000 3.815330 
# 
# 
# High freq. dielectric constant tensor:
#      x y z
#    x 1.783220 0.000000 0.000000 
#    y 0.000000 1.806430 0.000000 
#    z 0.000000 0.000000 1.800890 
# 
# From -- ./inp_files/29152.got.cif
#   From: 2010.03.12/outbox.cif.g09.slc.cpg/sg67_15_cif.got.tgz:29152.got - 2010.04.10 22:41:39.
