data_PCOD8280437
_publ_section_title
;
Structure prediction by ZEFSAII (Michael W. Deem and Ramdas Pophale) SiO2 
 PCOD8280437
Probable space group: C M M A
;
_chemical_formula_sum "Si O2"
_cell_formula_units_Z 96
_cell_length_a 26.514128
_cell_length_b 15.741242
_cell_length_c 10.177225
_cell_angle_alpha 90.000000
_cell_angle_beta 90.000000
_cell_angle_gamma 90.000000
_cell_volume 4247.620619
_symmetry_space_group_name_H-M "C M M A"
_symmetry_group_IT_number 67
_symmetry_cell_setting 'orthorhombic'
loop_
_space_group_symop_operation_xyz
x,y,z
-x,1/2-y,z
x,-y,-z
-x,1/2+y,-z
-x,-y,-z
x,1/2+y,-z
-x,y,z
x,1/2-y,z
1/2+x,1/2+y,z
1/2-x,-y,z
1/2+x,1/2-y,-z
1/2-x,y,-z
1/2-x,1/2-y,-z
1/2+x,y,-z
1/2-x,1/2+y,z
1/2+x,-y,z
loop_
_atom_site_type_symbol
_atom_site_label
_atom_site_fract_x
_atom_site_fract_y
_atom_site_fract_z
Si Si1 0.892187 0.351310 0.323000
Si Si2 0.378951 0.846264 0.831117
Si Si3 0.270864 0.406205 0.137243
Si Si4 0.057958 0.406541 0.058566
Si Si5 0.718350 0.654184 0.382372
Si Si6 0.444075 0.149263 0.409308
O O1 0.892809 0.250000 0.297418
O O2 0.913381 0.399971 0.196801
O O3 0.836056 0.387259 0.353395
O O4 0.926077 0.378186 0.446684
O O5 0.360583 0.750000 0.804135
O O6 0.331420 0.905914 0.864522
O O7 0.406715 0.885792 0.703208
O O8 0.416920 0.843275 0.954022
O O9 0.250000 0.500000 0.163403
O O10 0.251759 0.345281 0.251825
O O11 0.250000 0.370129 0.000000
O O12 0.000000 0.379889 0.078998
O O13 0.063487 0.500000 0.000000
O O14 0.707459 0.750000 0.428568
O O15 0.750000 0.608040 0.500000
O O16 0.500000 0.111428 0.385873
O O17 0.445457 0.250000 0.397374
#
# Coordination Sequence:
#
# PCOD8280437 Si02
#       6
#    16  16  16  16  16  16
#     4  10  20  36  64  94 125 169 213 263 320 382
#     4  11  23  40  66  94 124 166 214 265 321 384
#     4  11  25  40  61  90 125 169 208 262 318 381
#     4  11  25  41  61  91 131 175 218 270 328 385
#     4  10  21  39  63  93 128 164 212 266 315 377
#     4   9  18  35  61  94 127 158 202 261 317 373
#
# _framework density 22.600888000000001
#
# number of rings (size 3 to 8) (size 9 to 14) (size 15 to 20)
#    0.000    1.667    0.000    4.000    4.667    8.333 
#    0.000    0.833    0.000    3.000    0.000    0.000 
#    0.000    0.000    0.000    0.000    0.000    0.000 
#
# Total GULP energy -595315.701896 kJ/mol
# GULP energy per Si atom -12402.410456 kJ/mol
# Density = 2.254945 g / cm^3
# Si number density = 22.600888 Si / 1000 Ang^3
#
#
#
# Elastic Constant Matrix: (Units=GPa)
#
#
# Indices 1 2 3 4 5 6 
#
# 1 201.5633 31.9931 97.8949 0.0000 0.0000 0.0000
# 2 31.9931 39.2807 21.9729 0.0000 0.0000 0.0000
# 3 97.8949 21.9729 199.8307 0.0000 0.0000 0.0000
# 4 0.0000 0.0000 0.0000 20.0662 0.0000 0.0000
# 5 0.0000 0.0000 0.0000 0.0000 50.7860 0.0000
# 6 0.0000 0.0000 0.0000 0.0000 0.0000 23.6374
#
#
#
# Elastic Compliance Matrix: (Units=1/GPa)
#
#
# Indices 1 2 3 4 5 6 
#
# 1 0.007073 -0.004073 -0.003017 0.000000 0.000000 0.000000
# 2 -0.004073 0.029472 -0.001245 0.000000 0.000000 0.000000
# 3 -0.003017 -0.001245 0.006619 0.000000 0.000000 0.000000
# 4 0.000000 0.000000 0.000000 0.049835 0.000000 0.000000
# 5 0.000000 0.000000 0.000000 0.000000 0.019690 0.000000
# 6 0.000000 0.000000 0.000000 0.000000 0.000000 0.042306
#
#
# Mechanical properties :
#
#
# Convention : Reuss Voigt Hill
#
# Bulk Modulus (GPa) = 37.74570 82.71073 60.22821
# Shear Modulus (GPa) = 27.70117 38.15216 32.92666
#
# Velocity S-wave (km/s) = 3.50475 4.11309 3.82104
# Velocity P-wave (km/s) = 5.75456 7.69625 6.79512
#
# Compressibility (1/GPa) = 0.02649309
#
# Stress axis : x y z
#
# Youngs Moduli (GPa) = 141.38071 33.93067 151.07476
#
# Poissons Ratio (x) = 0.13820 0.45582
# Poissons Ratio (y) = 0.57586 0.18813
# Poissons Ratio (z) = 0.42657 0.04225
#
# Static dielectric constant tensor:
#      x y z
#    x 4.329460 0.000000 0.000000 
#    y 0.000000 3.578260 0.000000 
#    z 0.000000 0.000000 4.190070 
# 
# 
# High freq. dielectric constant tensor:
#      x y z
#    x 1.908560 0.000000 0.000000 
#    y 0.000000 1.855670 0.000000 
#    z 0.000000 0.000000 1.906200 
# 
# From -- ./inp_files/13732.got.cif
#   From: 2010.03.12/outbox.cif.g09.slc.cpg/sg67_7_cif.got.tgz:13732.got - 2010.04.10 22:41:39.
