data_PCOD8280880
_publ_section_title
;
Structure prediction by ZEFSAII (Michael W. Deem and Ramdas Pophale) SiO2 
 PCOD8280880
Probable space group: C M M A
;
_chemical_formula_sum "Si O2"
_cell_formula_units_Z 64
_cell_length_a 14.095660
_cell_length_b 24.806757
_cell_length_c 9.296408
_cell_angle_alpha 90.000000
_cell_angle_beta 90.000000
_cell_angle_gamma 90.000000
_cell_volume 3250.652789
_symmetry_space_group_name_H-M "C M M A"
_symmetry_group_IT_number 67
_symmetry_cell_setting 'orthorhombic'
loop_
_space_group_symop_operation_xyz
x,y,z
-x,1/2-y,z
x,-y,-z
-x,1/2+y,-z
-x,-y,-z
x,1/2+y,-z
-x,y,z
x,1/2-y,z
1/2+x,1/2+y,z
1/2-x,-y,z
1/2+x,1/2-y,-z
1/2-x,y,-z
1/2-x,1/2-y,-z
1/2+x,y,-z
1/2-x,1/2+y,z
1/2+x,-y,z
loop_
_atom_site_type_symbol
_atom_site_label
_atom_site_fract_x
_atom_site_fract_y
_atom_site_fract_z
Si Si1 0.651965 0.250000 0.417190
Si Si2 0.148639 0.250000 0.926142
Si Si3 0.000000 0.092910 0.283271
Si Si4 0.000000 0.337523 0.017134
Si Si5 0.640055 0.502205 0.329990
Si Si6 0.500000 0.582354 0.784721
Si Si7 0.000000 0.336230 0.549590
O O1 0.750000 0.250000 0.500000
O O2 0.662352 0.250000 0.245246
O O3 0.595117 0.197996 0.470811
O O4 0.250000 0.250000 0.000000
O O5 0.093163 0.303388 0.977142
O O6 0.000000 0.113137 0.445719
O O7 0.000000 0.146625 0.185529
O O8 0.094034 0.056238 0.263186
O O9 0.000000 0.398049 0.949565
O O10 0.620221 0.500000 0.500000
O O11 0.750000 0.500000 0.292354
O O12 0.594132 0.450673 0.253429
O O13 0.500000 0.640500 0.709360
#
# Coordination Sequence:
#
# PCOD8280880 Si02
#       7
#     8   8   8   8  16   8   8
#     4  11  25  40  65  97 117 158 212 260 300 360
#     4  11  25  44  61  89 129 162 200 256 316 364
#     4  11  23  39  61  95 117 165 210 243 302 372
#     4  11  25  43  63  84 130 170 198 243 320 375
#     4  10  21  37  61  93 124 152 201 264 307 348
#     4  11  19  41  63  82 119 169 193 244 307 371
#     4  11  21  41  65  87 128 158 208 253 299 363
#
# _framework density 19.688354
#
# number of rings (size 3 to 8) (size 9 to 14) (size 15 to 20)
#    0.000    1.250    5.000    1.500    3.500    7.000 
#    0.000    1.250    0.000    0.000    0.000    0.000 
#    0.000    0.000    0.000    0.000    0.000    0.000 
#
# Total GULP energy -396820.591060 kJ/mol
# GULP energy per Si atom -12400.643471 kJ/mol
# Density = 1.964354 g / cm^3
# Si number density = 19.688354 Si / 1000 Ang^3
#
#
#
# Elastic Constant Matrix: (Units=GPa)
#
#
# Indices 1 2 3 4 5 6 
#
# 1 186.5461 63.4159 41.5275 0.0000 0.0000 0.0000
# 2 63.4159 111.7940 27.7329 0.0000 0.0000 0.0000
# 3 41.5275 27.7329 65.4866 0.0000 0.0000 0.0000
# 4 0.0000 0.0000 0.0000 38.7339 0.0000 0.0000
# 5 0.0000 0.0000 0.0000 0.0000 20.3300 0.0000
# 6 0.0000 0.0000 0.0000 0.0000 0.0000 8.4080
#
#
#
# Elastic Compliance Matrix: (Units=1/GPa)
#
#
# Indices 1 2 3 4 5 6 
#
# 1 0.007183 -0.003290 -0.003162 0.000000 0.000000 0.000000
# 2 -0.003290 0.011502 -0.002785 0.000000 0.000000 0.000000
# 3 -0.003162 -0.002785 0.018454 0.000000 0.000000 0.000000
# 4 0.000000 0.000000 0.000000 0.025817 0.000000 0.000000
# 5 0.000000 0.000000 0.000000 0.000000 0.049188 0.000000
# 6 0.000000 0.000000 0.000000 0.000000 0.000000 0.118934
#
#
# Mechanical properties :
#
#
# Convention : Reuss Voigt Hill
#
# Bulk Modulus (GPa) = 53.57133 69.90881 61.74007
# Shear Modulus (GPa) = 19.54849 28.90441 24.22645
#
# Velocity S-wave (km/s) = 3.15444 3.83573 3.51165
# Velocity P-wave (km/s) = 6.36680 7.42980 6.91874
#
# Compressibility (1/GPa) = 0.01866670
#
# Stress axis : x y z
#
# Youngs Moduli (GPa) = 139.21908 86.93967 54.18760
#
# Poissons Ratio (x) = 0.28605 0.17132
# Poissons Ratio (y) = 0.45807 0.15089
# Poissons Ratio (z) = 0.44015 0.24209
#
# Static dielectric constant tensor:
#      x y z
#    x 3.423920 0.000000 0.000000 
#    y 0.000000 3.572320 0.000000 
#    z 0.000000 0.000000 3.466500 
# 
# 
# High freq. dielectric constant tensor:
#      x y z
#    x 1.767070 0.000000 0.000000 
#    y 0.000000 1.780070 0.000000 
#    z 0.000000 0.000000 1.765880 
# 
# From -- ./inp_files/8103.got.cif
#   From: 2010.03.12/outbox.cif.g09.slc.cpg/sg67_5_cif.got.tgz:8103.got - 2010.04.10 22:41:39.
