data_PCOD8280569
_publ_section_title
;
Structure prediction by ZEFSAII (Michael W. Deem and Ramdas Pophale) SiO2 
 PCOD8280569
Probable space group: C M M A
;
_chemical_formula_sum "Si O2"
_cell_formula_units_Z 112
_cell_length_a 14.685471
_cell_length_b 24.381701
_cell_length_c 14.001127
_cell_angle_alpha 90.000000
_cell_angle_beta 90.000000
_cell_angle_gamma 90.000000
_cell_volume 5013.198211
_symmetry_space_group_name_H-M "C M M A"
_symmetry_group_IT_number 67
_symmetry_cell_setting 'orthorhombic'
loop_
_space_group_symop_operation_xyz
x,y,z
-x,1/2-y,z
x,-y,-z
-x,1/2+y,-z
-x,-y,-z
x,1/2+y,-z
-x,y,z
x,1/2-y,z
1/2+x,1/2+y,z
1/2-x,-y,z
1/2+x,1/2-y,-z
1/2-x,y,-z
1/2-x,1/2-y,-z
1/2+x,y,-z
1/2-x,1/2+y,z
1/2+x,-y,z
loop_
_atom_site_type_symbol
_atom_site_label
_atom_site_fract_x
_atom_site_fract_y
_atom_site_fract_z
Si Si1 0.641262 0.897049 0.099883
Si Si2 0.643900 0.887206 0.886938
Si Si3 0.604096 0.685986 0.720309
Si Si4 0.357500 0.502881 0.788050
Si Si5 0.397413 0.039172 0.587749
Si Si6 0.733719 0.857017 0.394645
Si Si7 0.901276 0.690664 0.747336
O O1 0.748621 0.890785 0.104563
O O2 0.610343 0.956474 0.137247
O O3 0.598720 0.852657 0.168829
O O4 0.602487 0.887345 0.993544
O O5 0.613529 0.832283 0.831200
O O6 0.606949 0.939672 0.829207
O O7 0.500000 0.678788 0.685702
O O8 0.633489 0.750000 0.711118
O O9 0.668027 0.644322 0.658581
O O10 0.250000 0.500000 0.775757
O O11 0.402558 0.495501 0.684715
O O12 0.500000 0.063802 0.570319
O O13 0.317350 0.084282 0.600110
O O14 0.369644 0.000000 0.500000
O O15 0.750000 0.833644 0.500000
O O16 0.670937 0.816278 0.336173
O O17 0.883506 0.750000 0.794286
O O18 0.000000 0.687711 0.697609
#
# Coordination Sequence:
#
# PCOD8280569 Si02
#       7
#    16  16  16  16  16  16  16
#     4  10  20  38  66 101 141 183 231 291 344 415
#     4  10  21  38  66 101 136 186 238 283 349 416
#     4  11  26  48  71 101 141 184 236 296 357 425
#     4  10  20  38  65  96 140 185 229 281 343 413
#     4  11  26  43  68 106 145 185 232 287 352 422
#     4  12  26  46  74  99 133 180 231 286 356 421
#     4  11  24  43  69 102 137 178 230 285 346 414
#
# _framework density 22.341028000000001
#
# number of rings (size 3 to 8) (size 9 to 14) (size 15 to 20)
#    0.000    1.286    2.857    2.143    4.000    5.714 
#    0.000    4.286    0.000    3.000    0.000    0.000 
#    0.000    0.000    0.000    0.000    0.000    0.000 
#
# Total GULP energy -694192.896458 kJ/mol
# GULP energy per Si atom -12396.301722 kJ/mol
# Density = 2.229018 g / cm^3
# Si number density = 22.341028 Si / 1000 Ang^3
#
#
#
# Elastic Constant Matrix: (Units=GPa)
#
#
# Indices 1 2 3 4 5 6 
#
# 1 111.4647 53.3975 54.9995 0.0000 0.0000 0.0000
# 2 53.3975 117.9826 41.4342 0.0000 0.0000 0.0000
# 3 54.9995 41.4342 147.4018 0.0000 0.0000 0.0000
# 4 0.0000 0.0000 0.0000 -24.5654 0.0000 0.0000
# 5 0.0000 0.0000 0.0000 0.0000 -9.6016 0.0000
# 6 0.0000 0.0000 0.0000 0.0000 0.0000 35.8594
#
#
#
# Elastic Compliance Matrix: (Units=1/GPa)
#
#
# Indices 1 2 3 4 5 6 
#
# 1 0.012919 -0.004609 -0.003525 0.000000 0.000000 0.000000
# 2 -0.004609 0.011049 -0.001386 0.000000 0.000000 0.000000
# 3 -0.003525 -0.001386 0.008489 0.000000 0.000000 0.000000
# 4 0.000000 0.000000 0.000000 -0.040708 0.000000 0.000000
# 5 0.000000 0.000000 0.000000 0.000000 -0.104149 0.000000
# 6 0.000000 0.000000 0.000000 0.000000 0.000000 0.027887
#
#
# Mechanical properties :
#
#
# Convention : Reuss Voigt Hill
#
# Bulk Modulus (GPa) = 74.53367 75.16794 74.85081
# Shear Modulus (GPa) = -81.96417 15.47299 -33.24559
#
# Velocity S-wave (km/s) = -6.06361 2.63455 -3.86177
# Velocity P-wave (km/s) = 3.94829 6.55540 3.70029
#
# Compressibility (1/GPa) = 0.01341675
#
# Stress axis : x y z
#
# Youngs Moduli (GPa) = 77.40796 90.50978 117.80048
#
# Poissons Ratio (x) = 0.41716 0.41521
# Poissons Ratio (y) = 0.35677 0.16327
# Poissons Ratio (z) = 0.27284 0.12544
#
# Static dielectric constant tensor:
#      x y z
#    x 4.231330 0.000000 0.000000 
#    y 0.000000 4.010590 0.000000 
#    z 0.000000 0.000000 4.377540 
# 
# 
# High freq. dielectric constant tensor:
#      x y z
#    x 1.891340 0.000000 0.000000 
#    y 0.000000 1.873060 0.000000 
#    z 0.000000 0.000000 1.880480 
# 
# From -- ./inp_files/27511.got.cif
#   From: 2010.03.12/outbox.cif.g09.slc.cpg/sg67_14_cif.got.tgz:27511.got - 2010.04.10 22:41:39.
