data_PCOD8280918
_publ_section_title
;
Structure prediction by ZEFSAII (Michael W. Deem and Ramdas Pophale) SiO2 
 PCOD8280918
Probable space group: C M M A
;
_chemical_formula_sum "Si O2"
_cell_formula_units_Z 96
_cell_length_a 19.660597
_cell_length_b 8.681592
_cell_length_c 29.874845
_cell_angle_alpha 90.000000
_cell_angle_beta 90.000000
_cell_angle_gamma 90.000000
_cell_volume 5099.196332
_symmetry_space_group_name_H-M "C M M A"
_symmetry_group_IT_number 67
_symmetry_cell_setting 'orthorhombic'
loop_
_space_group_symop_operation_xyz
x,y,z
-x,1/2-y,z
x,-y,-z
-x,1/2+y,-z
-x,-y,-z
x,1/2+y,-z
-x,y,z
x,1/2-y,z
1/2+x,1/2+y,z
1/2-x,-y,z
1/2+x,1/2-y,-z
1/2-x,y,-z
1/2-x,1/2-y,-z
1/2+x,y,-z
1/2-x,1/2+y,z
1/2+x,-y,z
loop_
_atom_site_type_symbol
_atom_site_label
_atom_site_fract_x
_atom_site_fract_y
_atom_site_fract_z
Si Si1 0.677636 0.067871 0.380760
Si Si2 0.078570 0.926791 0.115158
Si Si3 0.079430 0.570989 0.547193
Si Si4 0.921256 0.573515 0.218079
Si Si5 0.678220 0.570191 0.046955
Si Si6 0.679099 0.569797 0.285417
O O1 0.683109 0.250000 0.379947
O O2 0.750000 0.000000 0.396225
O O3 0.619217 0.016667 0.414286
O O4 0.657073 0.008331 0.331789
O O5 0.096003 0.750000 0.103977
O O6 0.095611 0.963040 0.166618
O O7 0.000000 0.960970 0.105169
O O8 0.122742 0.038472 0.084707
O O9 0.101885 0.500000 0.500000
O O10 0.098505 0.750000 0.547565
O O11 0.000000 0.543487 0.555963
O O12 0.902706 0.750000 0.229253
O O13 0.878058 0.459369 0.248514
O O14 0.000000 0.542117 0.228072
O O15 0.687688 0.750000 0.040483
O O16 0.750000 0.500000 0.062193
O O17 0.653248 0.500000 0.000000
O O18 0.688046 0.750000 0.293620
O O19 0.750000 0.500000 0.267930
#
# Coordination Sequence:
#
# PCOD8280918 Si02
#       6
#    16  16  16  16  16  16
#     4  11  22  38  59  82 111 145 184 228 275 326
#     4   9  19  37  59  82 110 143 180 223 270 321
#     4  10  21  38  59  84 114 146 183 226 272 323
#     4   9  19  37  59  82 110 144 181 223 271 322
#     4  11  22  37  57  80 109 143 181 225 271 322
#     4  11  22  37  57  81 111 145 183 227 273 323
#
# _framework density 18.826497
#
# number of rings (size 3 to 8) (size 9 to 14) (size 15 to 20)
#    0.000    1.833    0.000    7.500    0.000    4.333 
#    0.000    3.333    0.000    0.000    0.000    0.000 
#    0.000    0.000    0.000    0.000    0.000    0.000 
#
# Total GULP energy -595419.617410 kJ/mol
# GULP energy per Si atom -12404.575363 kJ/mol
# Density = 1.878365 g / cm^3
# Si number density = 18.826497 Si / 1000 Ang^3
#
#
#
# Elastic Constant Matrix: (Units=GPa)
#
#
# Indices 1 2 3 4 5 6 
#
# 1 85.0732 54.5437 70.4323 0.0000 0.0000 0.0000
# 2 54.5437 156.4616 58.6767 0.0000 0.0000 0.0000
# 3 70.4323 58.6767 105.1895 0.0000 0.0000 0.0000
# 4 0.0000 0.0000 0.0000 33.9655 0.0000 0.0000
# 5 0.0000 0.0000 0.0000 0.0000 80.3577 0.0000
# 6 0.0000 0.0000 0.0000 0.0000 0.0000 32.0527
#
#
#
# Elastic Compliance Matrix: (Units=1/GPa)
#
#
# Indices 1 2 3 4 5 6 
#
# 1 0.027753 -0.003422 -0.016674 0.000000 0.000000 0.000000
# 2 -0.003422 0.008504 -0.002453 0.000000 0.000000 0.000000
# 3 -0.016674 -0.002453 0.022039 0.000000 0.000000 0.000000
# 4 0.000000 0.000000 0.000000 0.029442 0.000000 0.000000
# 5 0.000000 0.000000 0.000000 0.000000 0.012444 0.000000
# 6 0.000000 0.000000 0.000000 0.000000 0.000000 0.031199
#
#
# Mechanical properties :
#
#
# Convention : Reuss Voigt Hill
#
# Bulk Modulus (GPa) = 75.76021 79.33664 77.54842
# Shear Modulus (GPa) = 27.64318 40.14660 33.89489
#
# Velocity S-wave (km/s) = 3.83601 4.62286 4.24769
# Velocity P-wave (km/s) = 7.74265 8.40993 8.08318
#
# Compressibility (1/GPa) = 0.01319954
#
# Stress axis : x y z
#
# Youngs Moduli (GPa) = 36.03256 117.59235 45.37387
#
# Poissons Ratio (x) = 0.40237 0.75656
# Poissons Ratio (y) = 0.12329 0.11128
# Poissons Ratio (z) = 0.60080 0.28840
#
# Static dielectric constant tensor:
#      x y z
#    x 3.381250 0.000000 0.000000 
#    y 0.000000 3.494100 0.000000 
#    z 0.000000 0.000000 3.403940 
# 
# 
# High freq. dielectric constant tensor:
#      x y z
#    x 1.731740 0.000000 0.000000 
#    y 0.000000 1.742690 0.000000 
#    z 0.000000 0.000000 1.735170 
# 
# From -- ./inp_files/43450.got.cif
#   From: 2010.03.12/outbox.cif.g09.slc.cpg/sg67_22_cif.got.tgz:43450.got - 2010.04.10 22:41:39.
