data_PCOD8280643
_publ_section_title
;
Structure prediction by ZEFSAII (Michael W. Deem and Ramdas Pophale) SiO2 
 PCOD8280643
Probable space group: C M M A
;
_chemical_formula_sum "Si O2"
_cell_formula_units_Z 72
_cell_length_a 8.564563
_cell_length_b 15.454924
_cell_length_c 28.024844
_cell_angle_alpha 90.000000
_cell_angle_beta 90.000000
_cell_angle_gamma 90.000000
_cell_volume 3709.499235
_symmetry_space_group_name_H-M "C M M A"
_symmetry_group_IT_number 67
_symmetry_cell_setting 'orthorhombic'
loop_
_space_group_symop_operation_xyz
x,y,z
-x,1/2-y,z
x,-y,-z
-x,1/2+y,-z
-x,-y,-z
x,1/2+y,-z
-x,y,z
x,1/2-y,z
1/2+x,1/2+y,z
1/2-x,-y,z
1/2+x,1/2-y,-z
1/2-x,y,-z
1/2-x,1/2-y,-z
1/2+x,y,-z
1/2-x,1/2+y,z
1/2+x,-y,z
loop_
_atom_site_type_symbol
_atom_site_label
_atom_site_fract_x
_atom_site_fract_y
_atom_site_fract_z
Si Si1 0.816555 0.250000 0.389489
Si Si2 0.815880 0.410141 0.778122
Si Si3 0.685408 0.250000 0.052734
Si Si4 0.185387 0.250000 0.714335
Si Si5 0.314653 0.907069 0.551758
Si Si6 0.185054 0.590289 0.114294
O O1 0.783150 0.250000 0.333720
O O2 0.739327 0.335555 0.410998
O O3 0.000000 0.250000 0.399946
O O4 0.750000 0.500000 0.757485
O O5 0.760067 0.333375 0.744073
O O6 0.752907 0.393652 0.831818
O O7 0.000000 0.415278 0.778891
O O8 0.500000 0.250000 0.051560
O O9 0.749529 0.166028 0.080503
O O10 0.750000 0.250000 0.000000
O O11 0.000000 0.250000 0.704175
O O12 0.500000 0.911101 0.549599
O O13 0.250000 0.881553 0.500000
O O14 0.250000 0.000000 0.568444
O O15 0.250000 0.500000 0.094115
O O16 0.000000 0.588267 0.113564
#
# Coordination Sequence:
#
# PCOD8280643 Si02
#       6
#     8  16   8   8  16  16
#     4  12  25  40  57  83 118 156 193 232 278 331
#     4   9  18  34  57  80 104 135 176 221 269 321
#     4  10  21  35  51  73 105 140 175 212 261 317
#     4  10  21  37  55  78 109 146 181 220 273 332
#     4  11  22  40  64  90 117 149 190 236 283 333
#     4   9  18  34  55  78 102 134 174 219 265 317
#
# _framework density 19.409627
#
# number of rings (size 3 to 8) (size 9 to 14) (size 15 to 20)
#    0.000    2.000    0.000    4.667    0.000    5.778 
#    0.000    4.444    0.000    6.667    0.000    0.000 
#    0.000    0.000    0.000    0.000    0.000    0.000 
#
# Total GULP energy -446495.591414 kJ/mol
# GULP energy per Si atom -12402.655317 kJ/mol
# Density = 1.936545 g / cm^3
# Si number density = 19.409627 Si / 1000 Ang^3
#
#
#
# Elastic Constant Matrix: (Units=GPa)
#
#
# Indices 1 2 3 4 5 6 
#
# 1 80.2615 42.9207 35.0901 0.0000 0.0000 0.0000
# 2 42.9207 188.1465 99.5637 0.0000 0.0000 0.0000
# 3 35.0901 99.5637 123.8230 0.0000 0.0000 0.0000
# 4 0.0000 0.0000 0.0000 21.5609 0.0000 0.0000
# 5 0.0000 0.0000 0.0000 0.0000 31.0950 0.0000
# 6 0.0000 0.0000 0.0000 0.0000 0.0000 32.7049
#
#
#
# Elastic Compliance Matrix: (Units=1/GPa)
#
#
# Indices 1 2 3 4 5 6 
#
# 1 0.014638 -0.001991 -0.002547 0.000000 0.000000 0.000000
# 2 -0.001991 0.009523 -0.007093 0.000000 0.000000 0.000000
# 3 -0.002547 -0.007093 0.014501 0.000000 0.000000 0.000000
# 4 0.000000 0.000000 0.000000 0.046380 0.000000 0.000000
# 5 0.000000 0.000000 0.000000 0.000000 0.032160 0.000000
# 6 0.000000 0.000000 0.000000 0.000000 0.000000 0.030577
#
#
# Mechanical properties :
#
#
# Convention : Reuss Voigt Hill
#
# Bulk Modulus (GPa) = 64.93808 83.04223 73.99016
# Shear Modulus (GPa) = 28.38134 31.38259 29.88196
#
# Velocity S-wave (km/s) = 3.82806 4.02538 3.92796
# Velocity P-wave (km/s) = 7.28478 8.03006 7.66648
#
# Compressibility (1/GPa) = 0.01539928
#
# Stress axis : x y z
#
# Youngs Moduli (GPa) = 68.31672 105.01400 68.96184
#
# Poissons Ratio (x) = 0.20913 0.17564
# Poissons Ratio (y) = 0.13605 0.48911
# Poissons Ratio (z) = 0.17400 0.74482
#
# Static dielectric constant tensor:
#      x y z
#    x 3.438000 0.000000 0.000000 
#    y 0.000000 3.744040 0.000000 
#    z 0.000000 0.000000 3.610060 
# 
# 
# High freq. dielectric constant tensor:
#      x y z
#    x 1.749460 0.000000 0.000000 
#    y 0.000000 1.772880 0.000000 
#    z 0.000000 0.000000 1.751210 
# 
# From -- ./inp_files/43151.got.cif
#   From: 2010.03.12/outbox.cif.g09.slc.cpg/sg67_22_cif.got.tgz:43151.got - 2010.04.10 22:41:39.
