data_PCOD8280810
_publ_section_title
;
Structure prediction by ZEFSAII (Michael W. Deem and Ramdas Pophale) SiO2 
 PCOD8280810
Probable space group: C M M A
;
_chemical_formula_sum "Si O2"
_cell_formula_units_Z 52
_cell_length_a 32.532573
_cell_length_b 13.789506
_cell_length_c 6.556340
_cell_angle_alpha 90.000000
_cell_angle_beta 90.000000
_cell_angle_gamma 90.000000
_cell_volume 2941.227300
_symmetry_space_group_name_H-M "C M M A"
_symmetry_group_IT_number 67
_symmetry_cell_setting 'orthorhombic'
loop_
_space_group_symop_operation_xyz
x,y,z
-x,1/2-y,z
x,-y,-z
-x,1/2+y,-z
-x,-y,-z
x,1/2+y,-z
-x,y,z
x,1/2-y,z
1/2+x,1/2+y,z
1/2-x,-y,z
1/2+x,1/2-y,-z
1/2-x,y,-z
1/2-x,1/2-y,-z
1/2+x,y,-z
1/2-x,1/2+y,z
1/2+x,-y,z
loop_
_atom_site_type_symbol
_atom_site_label
_atom_site_fract_x
_atom_site_fract_y
_atom_site_fract_z
Si Si1 0.000000 0.250000 0.614397
Si Si2 0.205214 0.750000 0.397789
Si Si3 0.295495 0.887179 0.957514
Si Si4 0.000000 0.384697 0.992794
Si Si5 0.443964 0.250000 0.766607
Si Si6 0.653062 0.250000 0.782717
O O1 0.040218 0.250000 0.468103
O O2 0.000000 0.345662 0.758998
O O3 0.250000 0.750000 0.500000
O O4 0.168532 0.750000 0.554692
O O5 0.197070 0.849462 0.271734
O O6 0.329932 0.844711 0.105242
O O7 0.250000 0.846322 0.000000
O O8 0.297583 0.000000 0.000000
O O9 0.039883 0.345100 0.113586
O O10 0.000000 0.500000 0.000000
O O11 0.395515 0.250000 0.775974
#
# Coordination Sequence:
#
# PCOD8280810 Si02
#       6
#     4   8  16   8   8   8
#     4   8  18  38  56  82 114 142 176 220 276 338
#     4  11  19  36  57  76 105 152 190 234 290 329
#     4  10  21  37  55  78 110 148 194 239 280 330
#     4   9  19  39  64  82 108 149 179 219 286 350
#     4   9  21  35  56  88 114 144 183 226 279 339
#     4  11  21  37  55  82 116 146 188 236 278 330
#
# _framework density 17.679694000000001
#
# number of rings (size 3 to 8) (size 9 to 14) (size 15 to 20)
#    0.000    2.462    3.077    0.923    0.000    9.846 
#    0.000    3.077    0.000    0.000    0.000    0.000 
#    0.000    0.000    0.000    0.000    0.000    0.000 
#
# Total GULP energy -322168.551316 kJ/mol
# GULP energy per Si atom -12391.098128 kJ/mol
# Density = 1.763945 g / cm^3
# Si number density = 17.679694 Si / 1000 Ang^3
#
#
#
# Elastic Constant Matrix: (Units=GPa)
#
#
# Indices 1 2 3 4 5 6 
#
# 1 182.5801 52.2781 71.4489 0.0000 0.0000 0.0000
# 2 52.2781 157.0626 65.2622 0.0000 0.0000 0.0000
# 3 71.4489 65.2622 154.4093 0.0000 0.0000 0.0000
# 4 0.0000 0.0000 0.0000 -3.9233 0.0000 0.0000
# 5 0.0000 0.0000 0.0000 0.0000 20.5805 0.0000
# 6 0.0000 0.0000 0.0000 0.0000 0.0000 19.1238
#
#
#
# Elastic Compliance Matrix: (Units=1/GPa)
#
#
# Indices 1 2 3 4 5 6 
#
# 1 0.006861 -0.001170 -0.002680 0.000000 0.000000 0.000000
# 2 -0.001170 0.007923 -0.002807 0.000000 0.000000 0.000000
# 3 -0.002680 -0.002807 0.008903 0.000000 0.000000 0.000000
# 4 0.000000 0.000000 0.000000 -0.254888 0.000000 0.000000
# 5 0.000000 0.000000 0.000000 0.000000 0.048590 0.000000
# 6 0.000000 0.000000 0.000000 0.000000 0.000000 0.052291
#
#
# Mechanical properties :
#
#
# Convention : Reuss Voigt Hill
#
# Bulk Modulus (GPa) = 96.41511 96.89227 96.65369
# Shear Modulus (GPa) = -44.03386 27.49372 -8.27007
#
# Velocity S-wave (km/s) = -4.99605 3.94776 -2.16515
# Velocity P-wave (km/s) = 4.62299 8.70074 6.96689
#
# Compressibility (1/GPa) = 0.01037182
#
# Stress axis : x y z
#
# Youngs Moduli (GPa) = 145.75373 126.21855 112.32174
#
# Poissons Ratio (x) = 0.14767 0.30105
# Poissons Ratio (y) = 0.17053 0.31531
# Poissons Ratio (z) = 0.39065 0.35433
#
# Static dielectric constant tensor:
#      x y z
#    x 3.179710 0.000000 0.000000 
#    y 0.000000 3.044580 0.000000 
#    z 0.000000 0.000000 3.409340 
# 
# 
# High freq. dielectric constant tensor:
#      x y z
#    x 1.673270 0.000000 0.000000 
#    y 0.000000 1.679660 0.000000 
#    z 0.000000 0.000000 1.698440 
# 
# From -- ./inp_files/4494.got.cif
#   From: 2010.03.12/outbox.cif.g09.slc.cpg/sg67_3_cif.got.tgz:4494.got - 2010.04.10 22:41:39.
