data_PCOD8280018
_publ_section_title
;
Structure prediction by ZEFSAII (Michael W. Deem and Ramdas Pophale) SiO2 
 PCOD8280018
Probable space group: C M M A
;
_chemical_formula_sum "Si O2"
_cell_formula_units_Z 80
_cell_length_a 17.872701
_cell_length_b 17.228323
_cell_length_c 13.210829
_cell_angle_alpha 90.000000
_cell_angle_beta 90.000000
_cell_angle_gamma 90.000000
_cell_volume 4067.834417
_symmetry_space_group_name_H-M "C M M A"
_symmetry_group_IT_number 67
_symmetry_cell_setting 'orthorhombic'
loop_
_space_group_symop_operation_xyz
x,y,z
-x,1/2-y,z
x,-y,-z
-x,1/2+y,-z
-x,-y,-z
x,1/2+y,-z
-x,y,z
x,1/2-y,z
1/2+x,1/2+y,z
1/2-x,-y,z
1/2+x,1/2-y,-z
1/2-x,y,-z
1/2-x,1/2-y,-z
1/2+x,y,-z
1/2-x,1/2+y,z
1/2+x,-y,z
loop_
_atom_site_type_symbol
_atom_site_label
_atom_site_fract_x
_atom_site_fract_y
_atom_site_fract_z
Si Si1 0.913168 0.933986 0.073779
Si Si2 0.325537 0.837916 0.058610
Si Si3 0.193247 0.929914 0.745008
Si Si4 0.910957 0.449466 0.693788
Si Si5 0.793042 0.840565 0.398437
O O1 0.885799 0.932596 0.189874
O O2 0.000000 0.947283 0.076947
O O3 0.891630 0.851928 0.022961
O O4 0.876560 0.000000 0.000000
O O5 0.327939 0.750000 0.097244
O O6 0.338976 0.895482 0.151781
O O7 0.250000 0.858274 0.000000
O O8 0.234459 0.859150 0.689865
O O9 0.250000 0.000000 0.765597
O O10 0.123725 0.963977 0.677069
O O11 0.870560 0.388055 0.618752
O O12 0.000000 0.447263 0.674079
O O13 0.813738 0.750000 0.398589
O O14 0.750000 0.866232 0.500000
#
# Coordination Sequence:
#
# PCOD8280018 Si02
#       5
#    16  16  16  16  16
#     4  10  20  35  55  80 115 156 193 230 283 343
#     4  11  22  32  49  81 116 153 199 244 286 341
#     4  10  20  34  56  82 112 151 193 240 294 350
#     4  10  21  37  62  90 115 150 197 246 291 348
#     4  10  22  41  62  84 115 154 194 245 306 355
#
# _framework density 19.666485000000002
#
# number of rings (size 3 to 8) (size 9 to 14) (size 15 to 20)
#    0.000    1.800    2.000    3.000    0.000    6.800 
#    0.000    4.000    0.000    3.000    0.000    0.000 
#    0.000    0.000    0.000    0.000    0.000    0.000 
#
# Total GULP energy -495687.428780 kJ/mol
# GULP energy per Si atom -12392.185719 kJ/mol
# Density = 1.962172 g / cm^3
# Si number density = 19.666485 Si / 1000 Ang^3
#
#
#
# Elastic Constant Matrix: (Units=GPa)
#
#
# Indices 1 2 3 4 5 6 
#
# 1 91.4222 40.4096 34.2021 0.0000 0.0000 0.0000
# 2 40.4096 81.7144 26.6835 0.0000 0.0000 0.0000
# 3 34.2021 26.6835 54.8968 0.0000 0.0000 0.0000
# 4 0.0000 0.0000 0.0000 36.2568 0.0000 0.0000
# 5 0.0000 0.0000 0.0000 0.0000 33.1099 0.0000
# 6 0.0000 0.0000 0.0000 0.0000 0.0000 18.7085
#
#
#
# Elastic Compliance Matrix: (Units=1/GPa)
#
#
# Indices 1 2 3 4 5 6 
#
# 1 0.016159 -0.005591 -0.007350 0.000000 0.000000 0.000000
# 2 -0.005591 0.016481 -0.004528 0.000000 0.000000 0.000000
# 3 -0.007350 -0.004528 0.024996 0.000000 0.000000 0.000000
# 4 0.000000 0.000000 0.000000 0.027581 0.000000 0.000000
# 5 0.000000 0.000000 0.000000 0.000000 0.030202 0.000000
# 6 0.000000 0.000000 0.000000 0.000000 0.000000 0.053452
#
#
# Mechanical properties :
#
#
# Convention : Reuss Voigt Hill
#
# Bulk Modulus (GPa) = 44.05464 47.84710 45.95087
# Shear Modulus (GPa) = 23.65463 26.06425 24.85944
#
# Velocity S-wave (km/s) = 3.47189 3.64443 3.55921
# Velocity P-wave (km/s) = 6.20657 6.48778 6.34873
#
# Compressibility (1/GPa) = 0.02269909
#
# Stress axis : x y z
#
# Youngs Moduli (GPa) = 61.88397 60.67566 40.00650
#
# Poissons Ratio (x) = 0.33924 0.29405
# Poissons Ratio (y) = 0.34599 0.18113
# Poissons Ratio (z) = 0.45485 0.27471
#
# Static dielectric constant tensor:
#      x y z
#    x 3.678710 0.000000 0.000000 
#    y 0.000000 3.493170 0.000000 
#    z 0.000000 0.000000 3.503970 
# 
# 
# High freq. dielectric constant tensor:
#      x y z
#    x 1.762320 0.000000 0.000000 
#    y 0.000000 1.760360 0.000000 
#    z 0.000000 0.000000 1.761490 
# 
# From -- ./inp_files/28387.got.cif
#   From: 2010.03.12/outbox.cif.g09.slc.cpg/sg67_15_cif.got.tgz:28387.got - 2010.04.10 22:41:39.
