data_PCOD8280149
_publ_section_title
;
Structure prediction by ZEFSAII (Michael W. Deem and Ramdas Pophale) SiO2 
 PCOD8280149
Probable space group: C M M A
;
_chemical_formula_sum "Si O2"
_cell_formula_units_Z 112
_cell_length_a 27.105340
_cell_length_b 17.094066
_cell_length_c 12.351689
_cell_angle_alpha 90.000000
_cell_angle_beta 90.000000
_cell_angle_gamma 90.000000
_cell_volume 5723.037398
_symmetry_space_group_name_H-M "C M M A"
_symmetry_group_IT_number 67
_symmetry_cell_setting 'orthorhombic'
loop_
_space_group_symop_operation_xyz
x,y,z
-x,1/2-y,z
x,-y,-z
-x,1/2+y,-z
-x,-y,-z
x,1/2+y,-z
-x,y,z
x,1/2-y,z
1/2+x,1/2+y,z
1/2-x,-y,z
1/2+x,1/2-y,-z
1/2-x,y,-z
1/2-x,1/2-y,-z
1/2+x,y,-z
1/2-x,1/2+y,z
1/2+x,-y,z
loop_
_atom_site_type_symbol
_atom_site_label
_atom_site_fract_x
_atom_site_fract_y
_atom_site_fract_z
Si Si1 0.055111 0.842913 0.672913
Si Si2 0.307418 0.162447 0.984710
Si Si3 0.558095 0.159724 0.228993
Si Si4 0.848557 0.095180 0.231817
Si Si5 0.375510 0.049643 0.103463
Si Si6 0.800735 0.841025 0.555966
Si Si7 0.098207 0.159860 0.547366
O O1 0.058454 0.750000 0.670816
O O2 0.095461 0.873222 0.757424
O O3 0.068871 0.877369 0.554252
O O4 0.000000 0.871024 0.705708
O O5 0.325208 0.250000 0.010380
O O6 0.330514 0.104957 0.072032
O O7 0.250000 0.153158 0.000000
O O8 0.321936 0.142333 0.862552
O O9 0.500000 0.152036 0.232045
O O10 0.574167 0.250000 0.209566
O O11 0.578534 0.104074 0.135262
O O12 0.580446 0.123341 0.339882
O O13 0.815276 0.106900 0.339528
O O14 0.854441 0.004126 0.200623
O O15 0.393498 0.000000 0.000000
O O16 0.797074 0.750000 0.592058
O O17 0.750000 0.869771 0.500000
O O18 0.843160 0.851983 0.466091
O O19 0.083340 0.250000 0.552193
#
# Coordination Sequence:
#
# PCOD8280149 Si02
#       7
#    16  16  16  16  16  16  16
#     4   9  16  29  52  80 110 145 184 226 269 316
#     4  10  21  39  63  84 102 135 185 233 273 320
#     4  10  20  36  59  83 108 143 186 229 273 326
#     4  10  20  35  55  83 117 146 177 222 276 334
#     4  10  23  39  56  78 109 145 181 228 281 328
#     4   9  17  31  54  85 118 150 185 225 268 319
#     4   8  15  29  51  80 110 138 177 225 267 314
#
# _framework density 19.570028000000001
#
# number of rings (size 3 to 8) (size 9 to 14) (size 15 to 20)
#    0.000    2.571    0.000    3.000    0.000    6.286 
#    0.000    7.857    0.000   12.857    0.000    0.000 
#    0.000    0.571    0.000    0.000    0.000    0.000 
#
# Total GULP energy -694225.507165 kJ/mol
# GULP energy per Si atom -12396.884057 kJ/mol
# Density = 1.952549 g / cm^3
# Si number density = 19.570028 Si / 1000 Ang^3
#
#
#
# Elastic Constant Matrix: (Units=GPa)
#
#
# Indices 1 2 3 4 5 6 
#
# 1 114.7382 59.7724 59.0432 0.0000 0.0000 0.0000
# 2 59.7724 92.9983 61.0826 0.0000 0.0000 0.0000
# 3 59.0432 61.0826 99.0148 0.0000 0.0000 0.0000
# 4 0.0000 0.0000 0.0000 28.7619 0.0000 0.0000
# 5 0.0000 0.0000 0.0000 0.0000 31.1723 0.0000
# 6 0.0000 0.0000 0.0000 0.0000 0.0000 14.3330
#
#
#
# Elastic Compliance Matrix: (Units=1/GPa)
#
#
# Indices 1 2 3 4 5 6 
#
# 1 0.014352 -0.006058 -0.004821 0.000000 0.000000 0.000000
# 2 -0.006058 0.020635 -0.009117 0.000000 0.000000 0.000000
# 3 -0.004821 -0.009117 0.018599 0.000000 0.000000 0.000000
# 4 0.000000 0.000000 0.000000 0.034768 0.000000 0.000000
# 5 0.000000 0.000000 0.000000 0.000000 0.032080 0.000000
# 6 0.000000 0.000000 0.000000 0.000000 0.000000 0.069769
#
#
# Mechanical properties :
#
#
# Convention : Reuss Voigt Hill
#
# Bulk Modulus (GPa) = 73.56657 74.06087 73.81372
# Shear Modulus (GPa) = 21.30133 23.31033 22.30583
#
# Velocity S-wave (km/s) = 3.30277 3.45501 3.37975
# Velocity P-wave (km/s) = 7.22616 7.33773 7.28216
#
# Compressibility (1/GPa) = 0.01359313
#
# Stress axis : x y z
#
# Youngs Moduli (GPa) = 69.67524 48.46154 53.76656
#
# Poissons Ratio (x) = 0.29358 0.25922
# Poissons Ratio (y) = 0.42209 0.49021
# Poissons Ratio (z) = 0.33592 0.44184
#
# Static dielectric constant tensor:
#      x y z
#    x 3.579490 0.000000 0.000000 
#    y 0.000000 3.490680 0.000000 
#    z 0.000000 0.000000 3.659950 
# 
# 
# High freq. dielectric constant tensor:
#      x y z
#    x 1.766270 0.000000 0.000000 
#    y 0.000000 1.746170 0.000000 
#    z 0.000000 0.000000 1.758360 
# 
# From -- ./inp_files/23827.got.cif
#   From: 2010.03.12/outbox.cif.g09.slc.cpg/sg67_12_cif.got.tgz:23827.got - 2010.04.10 22:41:39.
