data_PCOD8280172
_publ_section_title
;
Structure prediction by ZEFSAII (Michael W. Deem and Ramdas Pophale) SiO2 
 PCOD8280172
Probable space group: C M M A
;
_chemical_formula_sum "Si O2"
_cell_formula_units_Z 80
_cell_length_a 18.327988
_cell_length_b 8.987761
_cell_length_c 25.626811
_cell_angle_alpha 90.000000
_cell_angle_beta 90.000000
_cell_angle_gamma 90.000000
_cell_volume 4221.442450
_symmetry_space_group_name_H-M "C M M A"
_symmetry_group_IT_number 67
_symmetry_cell_setting 'orthorhombic'
loop_
_space_group_symop_operation_xyz
x,y,z
-x,1/2-y,z
x,-y,-z
-x,1/2+y,-z
-x,-y,-z
x,1/2+y,-z
-x,y,z
x,1/2-y,z
1/2+x,1/2+y,z
1/2-x,-y,z
1/2+x,1/2-y,-z
1/2-x,y,-z
1/2-x,1/2-y,-z
1/2+x,y,-z
1/2-x,1/2+y,z
1/2+x,-y,z
loop_
_atom_site_type_symbol
_atom_site_label
_atom_site_fract_x
_atom_site_fract_y
_atom_site_fract_z
Si Si1 0.828073 0.574448 0.255818
Si Si2 0.825384 0.924317 0.553172
Si Si3 0.415358 0.578896 0.345468
Si Si4 0.416527 0.424744 0.154783
Si Si5 0.086921 0.417610 0.050887
O O1 0.818156 0.750000 0.256864
O O2 0.750000 0.500000 0.258486
O O3 0.875366 0.527509 0.305159
O O4 0.868909 0.521127 0.203547
O O5 0.811894 0.750000 0.543742
O O6 0.885845 0.953453 0.596821
O O7 0.853759 0.000000 0.500000
O O8 0.750000 0.000000 0.571365
O O9 0.500000 0.538347 0.345074
O O10 0.401321 0.750000 0.329623
O O11 0.500000 0.472802 0.165478
O O12 0.410910 0.250000 0.145635
O O13 0.384598 0.503096 0.103227
O O14 0.116384 0.250000 0.050498
O O15 0.000000 0.423311 0.049565
O O16 0.118965 0.500000 0.000000
#
# Coordination Sequence:
#
# PCOD8280172 Si02
#       5
#    16  16  16  16  16
#     4  11  23  38  57  80 107 142 182 223 270 324
#     4  10  20  35  56  81 110 145 183 222 265 315
#     4  10  22  39  58  82 112 143 178 224 274 322
#     4   9  18  33  52  75 104 136 173 218 264 313
#     4   9  16  26  44  72 104 137 172 211 258 311
#
# _framework density 18.950868
#
# number of rings (size 3 to 8) (size 9 to 14) (size 15 to 20)
#    0.000    2.200    0.000    3.600    0.000    8.800 
#    0.000    2.000    0.000    0.600    0.000    4.200 
#    0.000    0.000    0.000    0.000    0.000    0.000 
#
# Total GULP energy -496107.933024 kJ/mol
# GULP energy per Si atom -12402.698326 kJ/mol
# Density = 1.890774 g / cm^3
# Si number density = 18.950868 Si / 1000 Ang^3
#
#
#
# Elastic Constant Matrix: (Units=GPa)
#
#
# Indices 1 2 3 4 5 6 
#
# 1 98.0515 42.8196 69.9325 0.0000 0.0000 0.0000
# 2 42.8196 90.0755 66.2931 0.0000 0.0000 0.0000
# 3 69.9325 66.2931 152.0645 0.0000 0.0000 0.0000
# 4 0.0000 0.0000 0.0000 34.3294 0.0000 0.0000
# 5 0.0000 0.0000 0.0000 0.0000 7.6849 0.0000
# 6 0.0000 0.0000 0.0000 0.0000 0.0000 3.1055
#
#
#
# Elastic Compliance Matrix: (Units=1/GPa)
#
#
# Indices 1 2 3 4 5 6 
#
# 1 0.015772 -0.003179 -0.005867 0.000000 0.000000 0.000000
# 2 -0.003179 0.016988 -0.005944 0.000000 0.000000 0.000000
# 3 -0.005867 -0.005944 0.011866 0.000000 0.000000 0.000000
# 4 0.000000 0.000000 0.000000 0.029130 0.000000 0.000000
# 5 0.000000 0.000000 0.000000 0.000000 0.130125 0.000000
# 6 0.000000 0.000000 0.000000 0.000000 0.000000 0.322009
#
#
# Mechanical properties :
#
#
# Convention : Reuss Voigt Hill
#
# Bulk Modulus (GPa) = 68.28519 77.58689 72.93604
# Shear Modulus (GPa) = 8.91663 19.76706 14.34184
#
# Velocity S-wave (km/s) = 2.17148 3.23316 2.75397
# Velocity P-wave (km/s) = 6.51138 7.41402 6.97731
#
# Compressibility (1/GPa) = 0.01464446
#
# Stress axis : x y z
#
# Youngs Moduli (GPa) = 63.40438 58.86661 84.27782
#
# Poissons Ratio (x) = 0.18716 0.49447
# Poissons Ratio (y) = 0.20159 0.50091
# Poissons Ratio (z) = 0.37200 0.34988
#
# Static dielectric constant tensor:
#      x y z
#    x 3.264850 0.000000 0.000000 
#    y 0.000000 3.602570 0.000000 
#    z 0.000000 0.000000 3.649770 
# 
# 
# High freq. dielectric constant tensor:
#      x y z
#    x 1.711570 0.000000 0.000000 
#    y 0.000000 1.743730 0.000000 
#    z 0.000000 0.000000 1.752620 
# 
# From -- ./inp_files/43301.got.cif
#   From: 2010.03.12/outbox.cif.g09.slc.cpg/sg67_22_cif.got.tgz:43301.got - 2010.04.10 22:41:39.
