data_PCOD8280510
_publ_section_title
;
Structure prediction by ZEFSAII (Michael W. Deem and Ramdas Pophale) SiO2 
 PCOD8280510
Probable space group: C M M A
;
_chemical_formula_sum "Si O2"
_cell_formula_units_Z 72
_cell_length_a 27.178993
_cell_length_b 15.354326
_cell_length_c 8.481765
_cell_angle_alpha 90.000000
_cell_angle_beta 90.000000
_cell_angle_gamma 90.000000
_cell_volume 3539.568769
_symmetry_space_group_name_H-M "C M M A"
_symmetry_group_IT_number 67
_symmetry_cell_setting 'orthorhombic'
loop_
_space_group_symop_operation_xyz
x,y,z
-x,1/2-y,z
x,-y,-z
-x,1/2+y,-z
-x,-y,-z
x,1/2+y,-z
-x,y,z
x,1/2-y,z
1/2+x,1/2+y,z
1/2-x,-y,z
1/2+x,1/2-y,-z
1/2-x,y,-z
1/2-x,1/2-y,-z
1/2+x,y,-z
1/2-x,1/2+y,z
1/2+x,-y,z
loop_
_atom_site_type_symbol
_atom_site_label
_atom_site_fract_x
_atom_site_fract_y
_atom_site_fract_z
Si Si1 0.054822 0.250000 0.814570
Si Si2 0.841918 0.413810 0.103853
Si Si3 0.804066 0.750000 0.067457
Si Si4 0.650641 0.750000 0.609861
Si Si5 0.195255 0.592977 0.559526
Si Si6 0.052534 0.096914 0.060549
O O1 0.095522 0.250000 0.677433
O O2 0.000000 0.250000 0.738614
O O3 0.061783 0.163174 0.917313
O O4 0.804642 0.410317 0.250248
O O5 0.898353 0.402840 0.168851
O O6 0.834103 0.500000 0.000000
O O7 0.832320 0.334878 0.987723
O O8 0.806731 0.750000 0.256817
O O9 0.750000 0.750000 0.000000
O O10 0.657637 0.834549 0.501162
O O11 0.176296 0.500000 0.500000
O O12 0.250000 0.613587 0.500000
O O13 0.000000 0.121934 0.145816
O O14 0.046661 0.000000 0.000000
#
# Coordination Sequence:
#
# PCOD8280510 Si02
#       6
#     8  16   8   8  16  16
#     4  10  20  37  63  96 129 166 208 260 320 380
#     4  11  22  40  64  90 121 164 218 259 304 377
#     4  12  23  36  60  91 115 157 221 264 296 366
#     4  12  22  41  64  89 128 169 203 260 334 381
#     4  11  25  42  60  89 132 173 206 262 329 376
#     4   9  18  34  61  93 123 155 208 266 311 360
#
# _framework density 20.341460000000001
#
# number of rings (size 3 to 8) (size 9 to 14) (size 15 to 20)
#    0.000    1.333    2.222    3.667    3.111    2.222 
#    0.000    1.111    0.000    1.333    0.000    0.000 
#    0.000    0.000    0.000    0.000    0.000    0.000 
#
# Total GULP energy -446132.821972 kJ/mol
# GULP energy per Si atom -12392.578388 kJ/mol
# Density = 2.029516 g / cm^3
# Si number density = 20.341460 Si / 1000 Ang^3
#
#
#
# Elastic Constant Matrix: (Units=GPa)
#
#
# Indices 1 2 3 4 5 6 
#
# 1 145.9443 26.5140 33.7675 0.0000 0.0000 0.0000
# 2 26.5140 169.1846 38.7643 0.0000 0.0000 0.0000
# 3 33.7675 38.7643 101.0031 0.0000 0.0000 0.0000
# 4 0.0000 0.0000 0.0000 28.3758 0.0000 0.0000
# 5 0.0000 0.0000 0.0000 0.0000 31.5130 0.0000
# 6 0.0000 0.0000 0.0000 0.0000 0.0000 8.3445
#
#
#
# Elastic Compliance Matrix: (Units=1/GPa)
#
#
# Indices 1 2 3 4 5 6 
#
# 1 0.007493 -0.000658 -0.002252 0.000000 0.000000 0.000000
# 2 -0.000658 0.006538 -0.002289 0.000000 0.000000 0.000000
# 3 -0.002252 -0.002289 0.011532 0.000000 0.000000 0.000000
# 4 0.000000 0.000000 0.000000 0.035241 0.000000 0.000000
# 5 0.000000 0.000000 0.000000 0.000000 0.031733 0.000000
# 6 0.000000 0.000000 0.000000 0.000000 0.000000 0.119839
#
#
# Mechanical properties :
#
#
# Convention : Reuss Voigt Hill
#
# Bulk Modulus (GPa) = 65.94721 68.24706 67.09713
# Shear Modulus (GPa) = 21.94612 34.78574 28.36593
#
# Velocity S-wave (km/s) = 3.28820 4.13981 3.73834
# Velocity P-wave (km/s) = 6.84886 7.51494 7.18961
#
# Compressibility (1/GPa) = 0.01516364
#
# Stress axis : x y z
#
# Youngs Moduli (GPa) = 133.46447 152.94279 86.71267
#
# Poissons Ratio (x) = 0.10066 0.19531
# Poissons Ratio (y) = 0.08784 0.19852
# Poissons Ratio (z) = 0.30061 0.35014
#
# Static dielectric constant tensor:
#      x y z
#    x 4.378850 0.000000 0.000000 
#    y 0.000000 3.976270 0.000000 
#    z 0.000000 0.000000 3.341630 
# 
# 
# High freq. dielectric constant tensor:
#      x y z
#    x 1.813640 0.000000 0.000000 
#    y 0.000000 1.823530 0.000000 
#    z 0.000000 0.000000 1.750410 
# 
# From -- ./inp_files/8523.got.cif
#   From: 2010.03.12/outbox.cif.g09.slc.cpg/sg67_5_cif.got.tgz:8523.got - 2010.04.10 22:41:39.
