data_PCOD8280178
_publ_section_title
;
Structure prediction by ZEFSAII (Michael W. Deem and Ramdas Pophale) SiO2 
 PCOD8280178
Probable space group: C M M A
;
_chemical_formula_sum "Si O2"
_cell_formula_units_Z 72
_cell_length_a 15.341078
_cell_length_b 8.757670
_cell_length_c 25.379946
_cell_angle_alpha 90.000000
_cell_angle_beta 90.000000
_cell_angle_gamma 90.000000
_cell_volume 3409.849007
_symmetry_space_group_name_H-M "C M M A"
_symmetry_group_IT_number 67
_symmetry_cell_setting 'orthorhombic'
loop_
_space_group_symop_operation_xyz
x,y,z
-x,1/2-y,z
x,-y,-z
-x,1/2+y,-z
-x,-y,-z
x,1/2+y,-z
-x,y,z
x,1/2-y,z
1/2+x,1/2+y,z
1/2-x,-y,z
1/2+x,1/2-y,-z
1/2-x,y,-z
1/2-x,1/2-y,-z
1/2+x,y,-z
1/2-x,1/2+y,z
1/2+x,-y,z
loop_
_atom_site_type_symbol
_atom_site_label
_atom_site_fract_x
_atom_site_fract_y
_atom_site_fract_z
Si Si1 0.400078 0.584087 0.153167
Si Si2 0.652727 0.566838 0.627109
Si Si3 0.000000 0.433701 0.442010
Si Si4 0.344410 0.067416 0.735024
Si Si5 0.395803 0.918453 0.947970
O O1 0.500000 0.601474 0.138036
O O2 0.354212 0.750000 0.153941
O O3 0.393675 0.513703 0.211862
O O4 0.356304 0.487666 0.106244
O O5 0.655363 0.750000 0.623641
O O6 0.750000 0.500000 0.618295
O O7 0.587864 0.497934 0.584206
O O8 0.614088 0.512537 0.683662
O O9 0.000000 0.500000 0.500000
O O10 0.000000 0.250000 0.441197
O O11 0.345691 0.250000 0.726894
O O12 0.250000 0.000000 0.742092
O O13 0.500000 0.921648 0.947491
O O14 0.358537 0.750000 0.950685
O O15 0.359162 0.000000 0.000000
#
# Coordination Sequence:
#
# PCOD8280178 Si02
#       5
#    16  16   8  16  16
#     4   9  18  31  48  73 102 136 179 226 280 340
#     4  11  23  42  66  96 130 171 215 260 312 370
#     4  12  26  46  70 100 134 170 213 262 311 366
#     4  10  20  35  56  81 112 152 191 236 291 349
#     4   9  16  26  42  65  95 131 170 218 274 334
#
# _framework density 21.115304999999999
#
# number of rings (size 3 to 8) (size 9 to 14) (size 15 to 20)
#    0.000    2.000    0.000    5.667    1.556    4.889 
#    0.000    2.222    0.000    0.667    0.000    4.667 
#    0.000    0.000    0.000    0.000    0.000    0.000 
#
# Total GULP energy -446097.335067 kJ/mol
# GULP energy per Si atom -12391.592641 kJ/mol
# Density = 2.106725 g / cm^3
# Si number density = 21.115305 Si / 1000 Ang^3
#
#
#
# Elastic Constant Matrix: (Units=GPa)
#
#
# Indices 1 2 3 4 5 6 
#
# 1 48.9315 37.0066 50.7961 0.0000 0.0000 0.0000
# 2 37.0066 174.4774 101.9549 0.0000 0.0000 0.0000
# 3 50.7961 101.9549 219.0356 0.0000 0.0000 0.0000
# 4 0.0000 0.0000 0.0000 43.2847 0.0000 0.0000
# 5 0.0000 0.0000 0.0000 0.0000 -32.0120 0.0000
# 6 0.0000 0.0000 0.0000 0.0000 0.0000 23.6577
#
#
#
# Elastic Compliance Matrix: (Units=1/GPa)
#
#
# Indices 1 2 3 4 5 6 
#
# 1 0.027975 -0.002943 -0.005118 0.000000 0.000000 0.000000
# 2 -0.002943 0.008182 -0.003126 0.000000 0.000000 0.000000
# 3 -0.005118 -0.003126 0.007207 0.000000 0.000000 0.000000
# 4 0.000000 0.000000 0.000000 0.023103 0.000000 0.000000
# 5 0.000000 0.000000 0.000000 0.000000 -0.031238 0.000000
# 6 0.000000 0.000000 0.000000 0.000000 0.000000 0.042269
#
#
# Mechanical properties :
#
#
# Convention : Reuss Voigt Hill
#
# Bulk Modulus (GPa) = 47.63897 91.32885 69.48391
# Shear Modulus (GPa) = 46.78576 23.83189 35.30883
#
# Velocity S-wave (km/s) = 4.71226 3.36319 4.09368
# Velocity P-wave (km/s) = 7.22617 7.64380 7.43792
#
# Compressibility (1/GPa) = 0.02099122
#
# Stress axis : x y z
#
# Youngs Moduli (GPa) = 35.74582 122.21411 138.74504
#
# Poissons Ratio (x) = 0.35967 0.71007
# Poissons Ratio (y) = 0.10520 0.43374
# Poissons Ratio (z) = 0.18294 0.38206
#
# Static dielectric constant tensor:
#      x y z
#    x 3.458250 0.000000 0.000000 
#    y 0.000000 4.121810 0.000000 
#    z 0.000000 0.000000 4.492850 
# 
# 
# High freq. dielectric constant tensor:
#      x y z
#    x 1.798500 0.000000 0.000000 
#    y 0.000000 1.836190 0.000000 
#    z 0.000000 0.000000 1.845940 
# 
# From -- ./inp_files/44254.got.cif
#   From: 2010.03.12/outbox.cif.g09.slc.cpg/sg67_23_cif.got.tgz:44254.got - 2010.04.10 22:41:39.
