data_PCOD8280138
_publ_section_title
;
Structure prediction by ZEFSAII (Michael W. Deem and Ramdas Pophale) SiO2 
 PCOD8280138
Probable space group: C M M A
;
_chemical_formula_sum "Si O2"
_cell_formula_units_Z 88
_cell_length_a 8.921077
_cell_length_b 15.802340
_cell_length_c 30.080955
_cell_angle_alpha 90.000000
_cell_angle_beta 90.000000
_cell_angle_gamma 90.000000
_cell_volume 4240.629299
_symmetry_space_group_name_H-M "C M M A"
_symmetry_group_IT_number 67
_symmetry_cell_setting 'orthorhombic'
loop_
_space_group_symop_operation_xyz
x,y,z
-x,1/2-y,z
x,-y,-z
-x,1/2+y,-z
-x,-y,-z
x,1/2+y,-z
-x,y,z
x,1/2-y,z
1/2+x,1/2+y,z
1/2-x,-y,z
1/2+x,1/2-y,-z
1/2-x,y,-z
1/2-x,1/2-y,-z
1/2+x,y,-z
1/2-x,1/2+y,z
1/2+x,-y,z
loop_
_atom_site_type_symbol
_atom_site_label
_atom_site_fract_x
_atom_site_fract_y
_atom_site_fract_z
Si Si1 0.176966 0.413290 0.102557
Si Si2 0.664978 0.347614 0.629052
Si Si3 0.325538 0.652157 0.197087
Si Si4 0.668440 0.351109 0.285493
Si Si5 0.678562 0.908409 0.544326
Si Si6 0.678164 0.750000 0.047959
O O1 0.250000 0.500000 0.084688
O O2 0.225852 0.399058 0.153623
O O3 0.234465 0.333925 0.073594
O O4 0.000000 0.421254 0.098405
O O5 0.500000 0.388763 0.620244
O O6 0.642960 0.250000 0.639277
O O7 0.739574 0.389533 0.672732
O O8 0.775198 0.355202 0.587174
O O9 0.500000 0.640960 0.206833
O O10 0.286214 0.750000 0.188627
O O11 0.237897 0.615072 0.239492
O O12 0.500000 0.385203 0.289214
O O13 0.673316 0.250000 0.286323
O O14 0.500000 0.912531 0.539671
O O15 0.750000 0.865991 0.500000
O O16 0.750000 0.000000 0.550351
O O17 0.500000 0.750000 0.044423
O O18 0.750000 0.750000 0.000000
#
# Coordination Sequence:
#
# PCOD8280138 Si02
#       6
#    16  16  16  16  16   8
#     4  10  21  38  60  87 120 156 198 247 298 353
#     4  10  20  35  55  80 110 144 184 228 277 334
#     4   9  16  31  55  78 105 147 191 230 278 341
#     4   9  17  29  48  78 112 144 181 228 279 332
#     4  11  22  38  58  78 103 136 177 224 277 339
#     4  10  22  42  64  88 120 160 202 246 299 358
#
# _framework density 20.751636999999999
#
# number of rings (size 3 to 8) (size 9 to 14) (size 15 to 20)
#    0.000    2.182    0.909    3.273    0.000    5.455 
#    0.000    2.727    0.000    2.182    0.000    0.000 
#    0.000    0.000    0.000    0.000    0.000    0.000 
#
# Total GULP energy -545565.038496 kJ/mol
# GULP energy per Si atom -12399.205420 kJ/mol
# Density = 2.070441 g / cm^3
# Si number density = 20.751637 Si / 1000 Ang^3
#
#
#
# Elastic Constant Matrix: (Units=GPa)
#
#
# Indices 1 2 3 4 5 6 
#
# 1 128.4698 32.9002 68.1736 0.0000 0.0000 0.0000
# 2 32.9002 73.6280 48.2924 0.0000 0.0000 0.0000
# 3 68.1736 48.2924 167.2569 0.0000 0.0000 0.0000
# 4 0.0000 0.0000 0.0000 8.5739 0.0000 0.0000
# 5 0.0000 0.0000 0.0000 0.0000 38.1603 0.0000
# 6 0.0000 0.0000 0.0000 0.0000 0.0000 25.8419
#
#
#
# Elastic Compliance Matrix: (Units=1/GPa)
#
#
# Indices 1 2 3 4 5 6 
#
# 1 0.010230 -0.002265 -0.003516 0.000000 0.000000 0.000000
# 2 -0.002265 0.017256 -0.004059 0.000000 0.000000 0.000000
# 3 -0.003516 -0.004059 0.008584 0.000000 0.000000 0.000000
# 4 0.000000 0.000000 0.000000 0.116633 0.000000 0.000000
# 5 0.000000 0.000000 0.000000 0.000000 0.026205 0.000000
# 6 0.000000 0.000000 0.000000 0.000000 0.000000 0.038697
#
#
# Mechanical properties :
#
#
# Convention : Reuss Voigt Hill
#
# Bulk Modulus (GPa) = 61.01311 74.23190 67.62251
# Shear Modulus (GPa) = 20.59748 29.18112 24.88930
#
# Velocity S-wave (km/s) = 3.15393 3.75401 3.46698
# Velocity P-wave (km/s) = 6.53670 7.39185 6.97739
#
# Compressibility (1/GPa) = 0.01638992
#
# Stress axis : x y z
#
# Youngs Moduli (GPa) = 97.75575 57.94957 116.49904
#
# Poissons Ratio (x) = 0.13127 0.40955
# Poissons Ratio (y) = 0.22144 0.47289
# Poissons Ratio (z) = 0.34366 0.23523
#
# Static dielectric constant tensor:
#      x y z
#    x 3.817020 0.000000 0.000000 
#    y 0.000000 3.464040 0.000000 
#    z 0.000000 0.000000 3.961520 
# 
# 
# High freq. dielectric constant tensor:
#      x y z
#    x 1.812490 0.000000 0.000000 
#    y 0.000000 1.783290 0.000000 
#    z 0.000000 0.000000 1.821840 
# 
# From -- ./inp_files/45189.got.cif
#   From: 2010.03.12/outbox.cif.g09.slc.cpg/sg67_23_cif.got.tgz:45189.got - 2010.04.10 22:41:39.
