data_PCOD8280999
_publ_section_title
;
Structure prediction by ZEFSAII (Michael W. Deem and Ramdas Pophale) SiO2 
 PCOD8280999
Probable space group: C M M A
;
_chemical_formula_sum "Si O2"
_cell_formula_units_Z 96
_cell_length_a 24.536048
_cell_length_b 17.700849
_cell_length_c 11.481275
_cell_angle_alpha 90.000000
_cell_angle_beta 90.000000
_cell_angle_gamma 90.000000
_cell_volume 4986.419694
_symmetry_space_group_name_H-M "C M M A"
_symmetry_group_IT_number 67
_symmetry_cell_setting 'orthorhombic'
loop_
_space_group_symop_operation_xyz
x,y,z
-x,1/2-y,z
x,-y,-z
-x,1/2+y,-z
-x,-y,-z
x,1/2+y,-z
-x,y,z
x,1/2-y,z
1/2+x,1/2+y,z
1/2-x,-y,z
1/2+x,1/2-y,-z
1/2-x,y,-z
1/2-x,1/2-y,-z
1/2+x,y,-z
1/2-x,1/2+y,z
1/2+x,-y,z
loop_
_atom_site_type_symbol
_atom_site_label
_atom_site_fract_x
_atom_site_fract_y
_atom_site_fract_z
Si Si1 0.744713 0.665071 0.863501
Si Si2 0.844347 0.101873 0.274358
Si Si3 0.562406 0.164635 0.867765
Si Si4 0.062444 0.568579 0.081908
Si Si5 0.844197 0.428327 0.738945
Si Si6 0.186956 0.161645 0.515057
O O1 0.728351 0.750000 0.824218
O O2 0.801945 0.645183 0.806524
O O3 0.699574 0.605390 0.827101
O O4 0.750000 0.659498 0.000000
O O5 0.903542 0.109667 0.215997
O O6 0.846089 0.141197 0.399664
O O7 0.828607 0.014522 0.288010
O O8 0.500000 0.154942 0.828957
O O9 0.583094 0.250000 0.852606
O O10 0.568993 0.143729 0.003936
O O11 0.096914 0.577004 0.199898
O O12 0.000000 0.554684 0.119981
O O13 0.083249 0.500000 0.000000
O O14 0.842662 0.382215 0.619290
O O15 0.183260 0.250000 0.542212
O O16 0.250000 0.136315 0.500000
#
# Coordination Sequence:
#
# PCOD8280999 Si02
#       6
#    16  16  16  16  16  16
#     4  11  24  38  56  86 126 165 204 256 319 383
#     4  12  23  39  62  89 123 163 209 260 316 375
#     4  10  21  38  64  94 124 163 208 251 306 378
#     4  10  21  41  65  93 129 165 201 252 318 376
#     4  12  24  37  63  93 120 159 211 262 311 376
#     4  11  24  43  63  84 120 171 215 257 314 377
#
# _framework density 19.252289999999999
#
# number of rings (size 3 to 8) (size 9 to 14) (size 15 to 20)
#    0.000    1.000    3.333    4.000    0.000    4.000 
#    0.000    0.833    0.000    3.000    0.000    0.000 
#    0.000    0.000    0.000    0.000    0.000    0.000 
#
# Total GULP energy -595423.433896 kJ/mol
# GULP energy per Si atom -12404.654873 kJ/mol
# Density = 1.920847 g / cm^3
# Si number density = 19.252290 Si / 1000 Ang^3
#
#
#
# Elastic Constant Matrix: (Units=GPa)
#
#
# Indices 1 2 3 4 5 6 
#
# 1 87.4772 32.2691 55.1087 0.0000 0.0000 0.0000
# 2 32.2691 115.6721 49.1778 0.0000 0.0000 0.0000
# 3 55.1087 49.1778 128.9295 0.0000 0.0000 0.0000
# 4 0.0000 0.0000 0.0000 77.3580 0.0000 0.0000
# 5 0.0000 0.0000 0.0000 0.0000 13.3097 0.0000
# 6 0.0000 0.0000 0.0000 0.0000 0.0000 19.9976
#
#
#
# Elastic Compliance Matrix: (Units=1/GPa)
#
#
# Indices 1 2 3 4 5 6 
#
# 1 0.015970 -0.001854 -0.006119 0.000000 0.000000 0.000000
# 2 -0.001854 0.010534 -0.003226 0.000000 0.000000 0.000000
# 3 -0.006119 -0.003226 0.011602 0.000000 0.000000 0.000000
# 4 0.000000 0.000000 0.000000 0.012927 0.000000 0.000000
# 5 0.000000 0.000000 0.000000 0.000000 0.075133 0.000000
# 6 0.000000 0.000000 0.000000 0.000000 0.000000 0.050006
#
#
# Mechanical properties :
#
#
# Convention : Reuss Voigt Hill
#
# Bulk Modulus (GPa) = 63.65718 67.24334 65.45026
# Shear Modulus (GPa) = 24.53322 35.16793 29.85058
#
# Velocity S-wave (km/s) = 3.57361 4.27861 3.94190
# Velocity P-wave (km/s) = 7.08266 7.70792 7.40189
#
# Compressibility (1/GPa) = 0.01570915
#
# Stress axis : x y z
#
# Youngs Moduli (GPa) = 62.61630 94.93459 86.19185
#
# Poissons Ratio (x) = 0.17598 0.52742
# Poissons Ratio (y) = 0.11607 0.27801
# Poissons Ratio (z) = 0.38316 0.30621
#
# Static dielectric constant tensor:
#      x y z
#    x 3.465320 0.000000 0.000000 
#    y 0.000000 3.776430 0.000000 
#    z 0.000000 0.000000 3.505500 
# 
# 
# High freq. dielectric constant tensor:
#      x y z
#    x 1.740510 0.000000 0.000000 
#    y 0.000000 1.768470 0.000000 
#    z 0.000000 0.000000 1.746750 
# 
# From -- ./inp_files/19675.got.cif
#   From: 2010.03.12/outbox.cif.g09.slc.cpg/sg67_10_cif.got.tgz:19675.got - 2010.04.10 22:41:39.
