data_PCOD8280664
_publ_section_title
;
Structure prediction by ZEFSAII (Michael W. Deem and Ramdas Pophale) SiO2 
 PCOD8280664
Probable space group: C M M A
;
_chemical_formula_sum "Si O2"
_cell_formula_units_Z 96
_cell_length_a 17.837343
_cell_length_b 15.566085
_cell_length_c 18.268553
_cell_angle_alpha 90.000000
_cell_angle_beta 90.000000
_cell_angle_gamma 90.000000
_cell_volume 5072.402532
_symmetry_space_group_name_H-M "C M M A"
_symmetry_group_IT_number 67
_symmetry_cell_setting 'orthorhombic'
loop_
_space_group_symop_operation_xyz
x,y,z
-x,1/2-y,z
x,-y,-z
-x,1/2+y,-z
-x,-y,-z
x,1/2+y,-z
-x,y,z
x,1/2-y,z
1/2+x,1/2+y,z
1/2-x,-y,z
1/2+x,1/2-y,-z
1/2-x,y,-z
1/2-x,1/2-y,-z
1/2+x,y,-z
1/2-x,1/2+y,z
1/2+x,-y,z
loop_
_atom_site_type_symbol
_atom_site_label
_atom_site_fract_x
_atom_site_fract_y
_atom_site_fract_z
Si Si1 0.161073 0.000923 0.916853
Si Si2 0.913754 0.151585 0.167268
Si Si3 0.346975 0.149410 0.192302
Si Si4 0.083319 0.849757 0.346112
Si Si5 0.231030 0.404564 0.576484
Si Si6 0.793801 0.653157 0.721522
O O1 0.127967 0.912483 0.886373
O O2 0.250000 0.000000 0.913432
O O3 0.130091 0.086063 0.874514
O O4 0.132343 0.000000 0.000000
O O5 0.902806 0.250000 0.139443
O O6 0.877658 0.141515 0.248183
O O7 0.000000 0.126526 0.174454
O O8 0.346787 0.250000 0.166202
O O9 0.403919 0.135139 0.259570
O O10 0.265972 0.114367 0.220607
O O11 0.089587 0.750000 0.364131
O O12 0.145245 0.894886 0.396977
O O13 0.000000 0.884642 0.365428
O O14 0.250000 0.500000 0.556920
O O15 0.250000 0.353320 0.500000
O O16 0.289814 0.382794 0.640316
O O17 0.766257 0.750000 0.714523
#
# Coordination Sequence:
#
# PCOD8280664 Si02
#       6
#    16  16  16  16  16  16
#     4  11  23  36  57  88 118 153 193 233 287 350
#     4  10  22  40  59  82 115 153 194 240 287 339
#     4   9  18  34  57  84 113 145 188 241 287 334
#     4   9  19  36  59  85 109 142 191 241 285 326
#     4  10  21  35  53  83 120 154 185 223 280 343
#     4   9  18  34  57  80 104 143 195 234 271 331
#
# _framework density 18.925941999999999
#
# number of rings (size 3 to 8) (size 9 to 14) (size 15 to 20)
#    0.000    2.333    1.667    1.500    4.667    3.000 
#    0.000    4.167    0.000    4.000    0.000    0.000 
#    0.000    0.000    0.000    0.000    0.000    0.000 
#
# Total GULP energy -594715.206956 kJ/mol
# GULP energy per Si atom -12389.900145 kJ/mol
# Density = 1.888287 g / cm^3
# Si number density = 18.925942 Si / 1000 Ang^3
#
#
#
# Elastic Constant Matrix: (Units=GPa)
#
#
# Indices 1 2 3 4 5 6 
#
# 1 125.8907 44.4475 52.2987 0.0000 0.0000 0.0000
# 2 44.4475 79.1042 62.6826 0.0000 0.0000 0.0000
# 3 52.2987 62.6826 150.9398 0.0000 0.0000 0.0000
# 4 0.0000 0.0000 0.0000 -1.5291 0.0000 0.0000
# 5 0.0000 0.0000 0.0000 0.0000 18.3056 0.0000
# 6 0.0000 0.0000 0.0000 0.0000 0.0000 25.3152
#
#
#
# Elastic Compliance Matrix: (Units=1/GPa)
#
#
# Indices 1 2 3 4 5 6 
#
# 1 0.010200 -0.004368 -0.001720 0.000000 0.000000 0.000000
# 2 -0.004368 0.020713 -0.007088 0.000000 0.000000 0.000000
# 3 -0.001720 -0.007088 0.010165 0.000000 0.000000 0.000000
# 4 0.000000 0.000000 0.000000 -0.653958 0.000000 0.000000
# 5 0.000000 0.000000 0.000000 0.000000 0.054628 0.000000
# 6 0.000000 0.000000 0.000000 0.000000 0.000000 0.039502
#
#
# Mechanical properties :
#
#
# Convention : Reuss Voigt Hill
#
# Bulk Modulus (GPa) = 67.91359 74.97694 71.44526
# Shear Modulus (GPa) = -10.25663 21.51871 5.63104
#
# Velocity S-wave (km/s) = -2.33048 3.37559 1.72678
# Velocity P-wave (km/s) = 5.35913 7.40910 6.46588
#
# Compressibility (1/GPa) = 0.01472459
#
# Stress axis : x y z
#
# Youngs Moduli (GPa) = 98.03621 48.27977 98.37959
#
# Poissons Ratio (x) = 0.21090 0.16923
# Poissons Ratio (y) = 0.42825 0.69732
# Poissons Ratio (z) = 0.16864 0.34221
#
# Static dielectric constant tensor:
#      x y z
#    x 3.586470 0.000000 0.000000 
#    y 0.000000 3.331680 0.000000 
#    z 0.000000 0.000000 3.963390 
# 
# 
# High freq. dielectric constant tensor:
#      x y z
#    x 1.725040 0.000000 0.000000 
#    y 0.000000 1.734520 0.000000 
#    z 0.000000 0.000000 1.728400 
# 
# From -- ./inp_files/34218.got.cif
#   From: 2010.03.12/outbox.cif.g09.slc.cpg/sg67_18_cif.got.tgz:34218.got - 2010.04.10 22:41:39.
