data_PCOD8280633
_publ_section_title
;
Structure prediction by ZEFSAII (Michael W. Deem and Ramdas Pophale) SiO2 
 PCOD8280633
Probable space group: C M M A
;
_chemical_formula_sum "Si O2"
_cell_formula_units_Z 80
_cell_length_a 9.114405
_cell_length_b 27.218018
_cell_length_c 18.599342
_cell_angle_alpha 90.000000
_cell_angle_beta 90.000000
_cell_angle_gamma 90.000000
_cell_volume 4614.051098
_symmetry_space_group_name_H-M "C M M A"
_symmetry_group_IT_number 67
_symmetry_cell_setting 'orthorhombic'
loop_
_space_group_symop_operation_xyz
x,y,z
-x,1/2-y,z
x,-y,-z
-x,1/2+y,-z
-x,-y,-z
x,1/2+y,-z
-x,y,z
x,1/2-y,z
1/2+x,1/2+y,z
1/2-x,-y,z
1/2+x,1/2-y,-z
1/2-x,y,-z
1/2-x,1/2-y,-z
1/2+x,y,-z
1/2-x,1/2+y,z
1/2+x,-y,z
loop_
_atom_site_type_symbol
_atom_site_label
_atom_site_fract_x
_atom_site_fract_y
_atom_site_fract_z
Si Si1 0.329976 0.862697 0.712680
Si Si2 0.669395 0.193790 0.143768
Si Si3 0.672540 0.693952 0.571469
Si Si4 0.671698 0.891788 0.071227
Si Si5 0.172104 0.051338 0.214816
O O1 0.500000 0.878175 0.709753
O O2 0.302944 0.822443 0.774386
O O3 0.276107 0.839032 0.638278
O O4 0.233393 0.910892 0.726266
O O5 0.500000 0.186405 0.122530
O O6 0.718597 0.250000 0.136130
O O7 0.767270 0.162192 0.089410
O O8 0.500000 0.690410 0.560254
O O9 0.721271 0.750000 0.586349
O O10 0.750000 0.673369 0.500000
O O11 0.500000 0.887697 0.057220
O O12 0.709684 0.929301 0.135140
O O13 0.750000 0.912480 0.000000
O O14 0.000000 0.045186 0.226568
O O15 0.250000 0.000000 0.227022
#
# Coordination Sequence:
#
# PCOD8280633 Si02
#       5
#    16  16  16  16  16
#     4   9  17  31  51  73  99 130 164 202 241 283
#     4   9  17  30  49  71  95 127 165 201 238 282
#     4   9  17  29  47  74 107 140 170 198 232 277
#     4  10  21  35  50  70  96 125 158 197 241 290
#     4  10  21  36  54  75  96 121 157 200 247 295
#
# _framework density 17.338341
#
# number of rings (size 3 to 8) (size 9 to 14) (size 15 to 20)
#    0.000    2.600    0.000    1.800    0.000    6.800 
#    0.000    2.000    0.000    4.200    0.000    4.200 
#    0.000    0.000    0.000    0.000    0.000    0.000 
#
# Total GULP energy -496114.369796 kJ/mol
# GULP energy per Si atom -12402.859245 kJ/mol
# Density = 1.729888 g / cm^3
# Si number density = 17.338341 Si / 1000 Ang^3
#
#
#
# Elastic Constant Matrix: (Units=GPa)
#
#
# Indices 1 2 3 4 5 6 
#
# 1 67.6543 46.0368 47.0567 0.0000 0.0000 0.0000
# 2 46.0368 105.5557 45.0036 0.0000 0.0000 0.0000
# 3 47.0567 45.0036 116.0537 0.0000 0.0000 0.0000
# 4 0.0000 0.0000 0.0000 15.9705 0.0000 0.0000
# 5 0.0000 0.0000 0.0000 0.0000 30.9343 0.0000
# 6 0.0000 0.0000 0.0000 0.0000 0.0000 27.2170
#
#
#
# Elastic Compliance Matrix: (Units=1/GPa)
#
#
# Indices 1 2 3 4 5 6 
#
# 1 0.025120 -0.007923 -0.007113 0.000000 0.000000 0.000000
# 2 -0.007923 0.013849 -0.002158 0.000000 0.000000 0.000000
# 3 -0.007113 -0.002158 0.012338 0.000000 0.000000 0.000000
# 4 0.000000 0.000000 0.000000 0.062615 0.000000 0.000000
# 5 0.000000 0.000000 0.000000 0.000000 0.032327 0.000000
# 6 0.000000 0.000000 0.000000 0.000000 0.000000 0.036742
#
#
# Mechanical properties :
#
#
# Convention : Reuss Voigt Hill
#
# Bulk Modulus (GPa) = 59.10595 62.82866 60.96730
# Shear Modulus (GPa) = 22.41969 24.90212 23.66091
#
# Velocity S-wave (km/s) = 3.59983 3.79390 3.69814
# Velocity P-wave (km/s) = 7.17232 7.45030 7.31263
#
# Compressibility (1/GPa) = 0.01691877
#
# Stress axis : x y z
#
# Youngs Moduli (GPa) = 39.80898 72.20607 81.05276
#
# Poissons Ratio (x) = 0.57210 0.57653
# Poissons Ratio (y) = 0.31541 0.17490
# Poissons Ratio (z) = 0.28316 0.15581
#
# Static dielectric constant tensor:
#      x y z
#    x 3.206970 0.000000 0.000000 
#    y 0.000000 3.127780 0.000000 
#    z 0.000000 0.000000 3.246480 
# 
# 
# High freq. dielectric constant tensor:
#      x y z
#    x 1.671380 0.000000 0.000000 
#    y 0.000000 1.659360 0.000000 
#    z 0.000000 0.000000 1.664140 
# 
# From -- ./inp_files/32109.got.cif
#   From: 2010.03.12/outbox.cif.g09.slc.cpg/sg67_17_cif.got.tgz:32109.got - 2010.04.10 22:41:39.
