data_PCOD8280085
_publ_section_title
;
Structure prediction by ZEFSAII (Michael W. Deem and Ramdas Pophale) SiO2 
 PCOD8280085
Probable space group: C M M A
;
_chemical_formula_sum "Si O2"
_cell_formula_units_Z 80
_cell_length_a 19.465277
_cell_length_b 8.740366
_cell_length_c 25.624835
_cell_angle_alpha 90.000000
_cell_angle_beta 90.000000
_cell_angle_gamma 90.000000
_cell_volume 4359.646588
_symmetry_space_group_name_H-M "C M M A"
_symmetry_group_IT_number 67
_symmetry_cell_setting 'orthorhombic'
loop_
_space_group_symop_operation_xyz
x,y,z
-x,1/2-y,z
x,-y,-z
-x,1/2+y,-z
-x,-y,-z
x,1/2+y,-z
-x,y,z
x,1/2-y,z
1/2+x,1/2+y,z
1/2-x,-y,z
1/2+x,1/2-y,-z
1/2-x,y,-z
1/2-x,1/2-y,-z
1/2+x,y,-z
1/2-x,1/2+y,z
1/2+x,-y,z
loop_
_atom_site_type_symbol
_atom_site_label
_atom_site_fract_x
_atom_site_fract_y
_atom_site_fract_z
Si Si1 0.077489 0.569674 0.157519
Si Si2 0.580487 0.427189 0.445054
Si Si3 0.581781 0.577720 0.051948
Si Si4 0.177230 0.067955 0.750836
Si Si5 0.823268 0.931643 0.640114
O O1 0.078438 0.750000 0.152167
O O2 0.109521 0.503617 0.104126
O O3 0.122233 0.514490 0.206367
O O4 0.000000 0.509011 0.166438
O O5 0.601753 0.500000 0.500000
O O6 0.500000 0.446912 0.434530
O O7 0.602423 0.250000 0.444356
O O8 0.619372 0.520489 0.400831
O O9 0.500000 0.566114 0.050750
O O10 0.608292 0.750000 0.052760
O O11 0.612678 0.500000 0.000000
O O12 0.182180 0.250000 0.745757
O O13 0.250000 0.000000 0.768232
O O14 0.153766 0.998276 0.695828
O O15 0.817316 0.750000 0.643408
O O16 0.750000 0.000000 0.622913
#
# Coordination Sequence:
#
# PCOD8280085 Si02
#       5
#    16  16  16  16  16
#     4   9  18  32  50  73 100 130 167 209 252 301
#     4  10  21  38  59  83 112 143 175 213 260 312
#     4   9  16  26  43  68  98 130 163 202 249 299
#     4  10  20  35  54  75 102 137 173 211 259 309
#     4  11  22  37  57  80 107 139 179 221 261 308
#
# _framework density 18.350111999999999
#
# number of rings (size 3 to 8) (size 9 to 14) (size 15 to 20)
#    0.000    2.200    0.000    4.800    0.000    6.400 
#    0.000    4.000    0.000    0.600    0.000    4.200 
#    0.000    0.000    0.000    0.000    0.000    0.000 
#
# Total GULP energy -496058.615309 kJ/mol
# GULP energy per Si atom -12401.465383 kJ/mol
# Density = 1.830835 g / cm^3
# Si number density = 18.350112 Si / 1000 Ang^3
#
#
#
# Elastic Constant Matrix: (Units=GPa)
#
#
# Indices 1 2 3 4 5 6 
#
# 1 62.7533 36.9877 74.4310 0.0000 0.0000 0.0000
# 2 36.9877 95.9872 62.5605 0.0000 0.0000 0.0000
# 3 74.4310 62.5605 160.8393 0.0000 0.0000 0.0000
# 4 0.0000 0.0000 0.0000 37.3681 0.0000 0.0000
# 5 0.0000 0.0000 0.0000 0.0000 1.9238 0.0000
# 6 0.0000 0.0000 0.0000 0.0000 0.0000 24.7788
#
#
#
# Elastic Compliance Matrix: (Units=1/GPa)
#
#
# Indices 1 2 3 4 5 6 
#
# 1 0.036486 -0.004092 -0.015293 0.000000 0.000000 0.000000
# 2 -0.004092 0.014415 -0.003713 0.000000 0.000000 0.000000
# 3 -0.015293 -0.003713 0.014739 0.000000 0.000000 0.000000
# 4 0.000000 0.000000 0.000000 0.026761 0.000000 0.000000
# 5 0.000000 0.000000 0.000000 0.000000 0.519804 0.000000
# 6 0.000000 0.000000 0.000000 0.000000 0.000000 0.040357
#
#
# Mechanical properties :
#
#
# Convention : Reuss Voigt Hill
#
# Bulk Modulus (GPa) = 51.43155 74.17088 62.80122
# Shear Modulus (GPa) = 7.08979 22.52085 14.80532
#
# Velocity S-wave (km/s) = 1.96774 3.50707 2.84355
# Velocity P-wave (km/s) = 5.76641 7.54367 6.71410
#
# Compressibility (1/GPa) = 0.01944332
#
# Stress axis : x y z
#
# Youngs Moduli (GPa) = 27.40771 69.37189 67.84901
#
# Poissons Ratio (x) = 0.28389 1.03760
# Poissons Ratio (y) = 0.11216 0.25193
# Poissons Ratio (z) = 0.41914 0.25759
#
# Static dielectric constant tensor:
#      x y z
#    x 3.184160 0.000000 0.000000 
#    y 0.000000 3.487550 0.000000 
#    z 0.000000 0.000000 3.552200 
# 
# 
# High freq. dielectric constant tensor:
#      x y z
#    x 1.681950 0.000000 0.000000 
#    y 0.000000 1.725580 0.000000 
#    z 0.000000 0.000000 1.725500 
# 
# From -- ./inp_files/43328.got.cif
#   From: 2010.03.12/outbox.cif.g09.slc.cpg/sg67_22_cif.got.tgz:43328.got - 2010.04.10 22:41:39.
