data_PCOD8280644
_publ_section_title
;
Structure prediction by ZEFSAII (Michael W. Deem and Ramdas Pophale) SiO2 
 PCOD8280644
Probable space group: C M M A
;
_chemical_formula_sum "Si O2"
_cell_formula_units_Z 96
_cell_length_a 18.558565
_cell_length_b 8.918474
_cell_length_c 30.911476
_cell_angle_alpha 90.000000
_cell_angle_beta 90.000000
_cell_angle_gamma 90.000000
_cell_volume 5116.284494
_symmetry_space_group_name_H-M "C M M A"
_symmetry_group_IT_number 67
_symmetry_cell_setting 'orthorhombic'
loop_
_space_group_symop_operation_xyz
x,y,z
-x,1/2-y,z
x,-y,-z
-x,1/2+y,-z
-x,-y,-z
x,1/2+y,-z
-x,y,z
x,1/2-y,z
1/2+x,1/2+y,z
1/2-x,-y,z
1/2+x,1/2-y,-z
1/2-x,y,-z
1/2-x,1/2-y,-z
1/2+x,y,-z
1/2-x,1/2+y,z
1/2+x,-y,z
loop_
_atom_site_type_symbol
_atom_site_label
_atom_site_fract_x
_atom_site_fract_y
_atom_site_fract_z
Si Si1 0.417809 0.926703 0.456132
Si Si2 0.172393 0.428021 0.374073
Si Si3 0.916241 0.075431 0.045277
Si Si4 0.918010 0.926972 0.707760
Si Si5 0.417932 0.073961 0.204595
Si Si6 0.172049 0.071729 0.878392
O O1 0.500000 0.977319 0.447719
O O2 0.412174 0.750000 0.461105
O O3 0.370362 0.984871 0.416223
O O4 0.387517 0.000000 0.500000
O O5 0.178941 0.250000 0.373927
O O6 0.250000 0.500000 0.374258
O O7 0.129943 0.485761 0.331880
O O8 0.895354 0.250000 0.043648
O O9 0.000000 0.052602 0.056188
O O10 0.870544 0.990915 0.080969
O O11 0.896158 0.000000 0.000000
O O12 0.913485 0.750000 0.711825
O O13 0.000000 0.979855 0.699586
O O14 0.887662 0.996919 0.752063
O O15 0.500000 0.022725 0.195525
O O16 0.412976 0.250000 0.211361
O O17 0.369635 0.020464 0.164672
O O18 0.177458 0.250000 0.882184
O O19 0.250000 0.000000 0.876809
#
# Coordination Sequence:
#
# PCOD8280644 Si02
#       6
#    16  16  16  16  16  16
#     4   9  18  34  55  76  99 130 170 214 257 303
#     4  10  21  35  51  74 105 138 170 208 257 310
#     4  10  21  38  61  87 113 143 182 226 271 321
#     4   9  18  34  56  78 100 132 175 218 258 305
#     4   9  19  36  57  80 106 138 176 220 269 317
#     4  11  23  38  56  80 113 149 184 223 270 322
#
# _framework density 18.763615000000001
#
# number of rings (size 3 to 8) (size 9 to 14) (size 15 to 20)
#    0.000    2.333    0.000    2.000    0.000    7.667 
#    0.000    8.333    0.000    5.000    0.000    0.000 
#    0.000    0.000    0.000    0.000    0.000    0.000 
#
# Total GULP energy -595335.693880 kJ/mol
# GULP energy per Si atom -12402.826956 kJ/mol
# Density = 1.872091 g / cm^3
# Si number density = 18.763615 Si / 1000 Ang^3
#
#
#
# Elastic Constant Matrix: (Units=GPa)
#
#
# Indices 1 2 3 4 5 6 
#
# 1 115.5561 44.3006 107.6859 0.0000 0.0000 0.0000
# 2 44.3006 52.5802 58.8409 0.0000 0.0000 0.0000
# 3 107.6859 58.8409 200.0781 0.0000 0.0000 0.0000
# 4 0.0000 0.0000 0.0000 36.6625 0.0000 0.0000
# 5 0.0000 0.0000 0.0000 0.0000 5.8177 0.0000
# 6 0.0000 0.0000 0.0000 0.0000 0.0000 33.7954
#
#
#
# Elastic Compliance Matrix: (Units=1/GPa)
#
#
# Indices 1 2 3 4 5 6 
#
# 1 0.018841 -0.006747 -0.008157 0.000000 0.000000 0.000000
# 2 -0.006747 0.030764 -0.005416 0.000000 0.000000 0.000000
# 3 -0.008157 -0.005416 0.010981 0.000000 0.000000 0.000000
# 4 0.000000 0.000000 0.000000 0.027276 0.000000 0.000000
# 5 0.000000 0.000000 0.000000 0.000000 0.171889 0.000000
# 6 0.000000 0.000000 0.000000 0.000000 0.000000 0.029590
#
#
# Mechanical properties :
#
#
# Convention : Reuss Voigt Hill
#
# Bulk Modulus (GPa) = 50.13209 87.76326 68.94767
# Shear Modulus (GPa) = 14.85316 25.74760 20.30038
#
# Velocity S-wave (km/s) = 2.81658 3.70835 3.29280
# Velocity P-wave (km/s) = 6.11173 8.07530 7.16113
#
# Compressibility (1/GPa) = 0.01994730
#
# Stress axis : x y z
#
# Youngs Moduli (GPa) = 53.07459 32.50559 91.06650
#
# Poissons Ratio (x) = 0.21930 0.74280
# Poissons Ratio (y) = 0.35807 0.49323
# Poissons Ratio (z) = 0.43291 0.17606
#
# Static dielectric constant tensor:
#      x y z
#    x 3.485540 0.000000 0.000000 
#    y 0.000000 3.374400 0.000000 
#    z 0.000000 0.000000 3.688700 
# 
# 
# High freq. dielectric constant tensor:
#      x y z
#    x 1.725380 0.000000 0.000000 
#    y 0.000000 1.724060 0.000000 
#    z 0.000000 0.000000 1.745140 
# 
# From -- ./inp_files/44622.got.cif
#   From: 2010.03.12/outbox.cif.g09.slc.cpg/sg67_23_cif.got.tgz:44622.got - 2010.04.10 22:41:39.
