data_PCOD8280345
_publ_section_title
;
Structure prediction by ZEFSAII (Michael W. Deem and Ramdas Pophale) SiO2 
 PCOD8280345
Probable space group: C M M A
;
_chemical_formula_sum "Si O2"
_cell_formula_units_Z 96
_cell_length_a 26.788868
_cell_length_b 21.041781
_cell_length_c 8.994249
_cell_angle_alpha 90.000000
_cell_angle_beta 90.000000
_cell_angle_gamma 90.000000
_cell_volume 5069.927688
_symmetry_space_group_name_H-M "C M M A"
_symmetry_group_IT_number 67
_symmetry_cell_setting 'orthorhombic'
loop_
_space_group_symop_operation_xyz
x,y,z
-x,1/2-y,z
x,-y,-z
-x,1/2+y,-z
-x,-y,-z
x,1/2+y,-z
-x,y,z
x,1/2-y,z
1/2+x,1/2+y,z
1/2-x,-y,z
1/2+x,1/2-y,-z
1/2-x,y,-z
1/2-x,1/2-y,-z
1/2+x,y,-z
1/2-x,1/2+y,z
1/2+x,-y,z
loop_
_atom_site_type_symbol
_atom_site_label
_atom_site_fract_x
_atom_site_fract_y
_atom_site_fract_z
Si Si1 0.057226 0.564348 0.409585
Si Si2 0.700785 0.105068 0.090177
Si Si3 0.142375 0.630440 0.808075
Si Si4 0.258024 0.175358 0.664303
Si Si5 0.942836 0.322118 0.374442
Si Si6 0.622578 0.989921 0.836031
O O1 0.066103 0.500000 0.500000
O O2 0.074479 0.627273 0.499871
O O3 0.088226 0.557913 0.257874
O O4 0.000000 0.572063 0.363502
O O5 0.715001 0.150871 0.225196
O O6 0.677704 0.040287 0.152838
O O7 0.750000 0.086524 0.000000
O O8 0.659143 0.137392 0.980992
O O9 0.186648 0.655499 0.706743
O O10 0.092376 0.670506 0.771137
O O11 0.130299 0.558119 0.760581
O O12 0.252907 0.250000 0.666991
O O13 0.250000 0.147471 0.500000
O O14 0.937838 0.250000 0.436239
O O15 0.000000 0.336461 0.326515
O O16 0.598538 0.000000 0.000000
#
# Coordination Sequence:
#
# PCOD8280345 Si02
#       6
#    16  16  16  16  16  16
#     4  10  20  36  59  87 119 151 192 243 293 350
#     4   9  21  38  56  80 116 156 195 245 301 352
#     4  10  20  36  58  82 113 152 193 243 292 352
#     4  10  22  37  54  81 114 152 197 241 291 353
#     4  10  21  37  60  89 120 156 197 244 298 356
#     4  10  21  36  58  86 115 152 195 243 298 355
#
# _framework density 18.935182000000001
#
# number of rings (size 3 to 8) (size 9 to 14) (size 15 to 20)
#    0.000    2.167    1.667    0.500    2.333   11.667 
#    0.000    3.333    0.000    2.000    0.000    9.333 
#    0.000    0.000    0.000    0.000    0.000    0.000 
#
# Total GULP energy -595026.900570 kJ/mol
# GULP energy per Si atom -12396.393762 kJ/mol
# Density = 1.889209 g / cm^3
# Si number density = 18.935182 Si / 1000 Ang^3
#
#
#
# Elastic Constant Matrix: (Units=GPa)
#
#
# Indices 1 2 3 4 5 6 
#
# 1 93.0263 40.4871 67.8571 0.0000 0.0000 0.0000
# 2 40.4871 101.0019 46.7623 0.0000 0.0000 0.0000
# 3 67.8571 46.7623 106.8318 0.0000 0.0000 0.0000
# 4 0.0000 0.0000 0.0000 30.4537 0.0000 0.0000
# 5 0.0000 0.0000 0.0000 0.0000 32.1620 0.0000
# 6 0.0000 0.0000 0.0000 0.0000 0.0000 4.3383
#
#
#
# Elastic Compliance Matrix: (Units=1/GPa)
#
#
# Indices 1 2 3 4 5 6 
#
# 1 0.020627 -0.002762 -0.011893 0.000000 0.000000 0.000000
# 2 -0.002762 0.012787 -0.003843 0.000000 0.000000 0.000000
# 3 -0.011893 -0.003843 0.018596 0.000000 0.000000 0.000000
# 4 0.000000 0.000000 0.000000 0.032837 0.000000 0.000000
# 5 0.000000 0.000000 0.000000 0.000000 0.031093 0.000000
# 6 0.000000 0.000000 0.000000 0.000000 0.000000 0.230502
#
#
# Mechanical properties :
#
#
# Convention : Reuss Voigt Hill
#
# Bulk Modulus (GPa) = 66.59846 67.89701 67.24773
# Shear Modulus (GPa) = 12.87193 23.10769 17.98981
#
# Velocity S-wave (km/s) = 2.61010 3.49715 3.08567
# Velocity P-wave (km/s) = 6.65820 7.22788 6.94888
#
# Compressibility (1/GPa) = 0.01501536
#
# Stress axis : x y z
#
# Youngs Moduli (GPa) = 48.48071 78.20341 53.77388
#
# Poissons Ratio (x) = 0.21602 0.63951
# Poissons Ratio (y) = 0.13392 0.20663
# Poissons Ratio (z) = 0.57656 0.30051
#
# Static dielectric constant tensor:
#      x y z
#    x 3.522680 0.000000 0.000000 
#    y 0.000000 3.513570 0.000000 
#    z 0.000000 0.000000 3.544340 
# 
# 
# High freq. dielectric constant tensor:
#      x y z
#    x 1.737280 0.000000 0.000000 
#    y 0.000000 1.738250 0.000000 
#    z 0.000000 0.000000 1.724040 
# 
# From -- ./inp_files/11463.got.cif
#   From: 2010.03.12/outbox.cif.g09.slc.cpg/sg67_6_cif.got.tgz:11463.got - 2010.04.10 22:41:39.
