data_PCOD8280739
_publ_section_title
;
Structure prediction by ZEFSAII (Michael W. Deem and Ramdas Pophale) SiO2 
 PCOD8280739
Probable space group: C M M A
;
_chemical_formula_sum "Si O2"
_cell_formula_units_Z 104
_cell_length_a 26.521944
_cell_length_b 8.548682
_cell_length_c 22.573718
_cell_angle_alpha 90.000000
_cell_angle_beta 90.000000
_cell_angle_gamma 90.000000
_cell_volume 5118.086379
_symmetry_space_group_name_H-M "C M M A"
_symmetry_group_IT_number 67
_symmetry_cell_setting 'orthorhombic'
loop_
_space_group_symop_operation_xyz
x,y,z
-x,1/2-y,z
x,-y,-z
-x,1/2+y,-z
-x,-y,-z
x,1/2+y,-z
-x,y,z
x,1/2-y,z
1/2+x,1/2+y,z
1/2-x,-y,z
1/2+x,1/2-y,-z
1/2-x,y,-z
1/2-x,1/2-y,-z
1/2+x,y,-z
1/2-x,1/2+y,z
1/2+x,-y,z
loop_
_atom_site_type_symbol
_atom_site_label
_atom_site_fract_x
_atom_site_fract_y
_atom_site_fract_z
Si Si1 0.104500 0.432993 0.245847
Si Si2 0.500000 0.564394 0.434779
Si Si3 0.304361 0.936036 0.434807
Si Si4 0.057021 0.567818 0.876532
Si Si5 0.098216 0.433572 0.628766
Si Si6 0.147959 0.068264 0.938175
Si Si7 0.303805 0.935887 0.817649
O O1 0.100162 0.250000 0.260603
O O2 0.068896 0.482440 0.190931
O O3 0.087946 0.532215 0.302401
O O4 0.161187 0.478740 0.229646
O O5 0.500000 0.750000 0.433640
O O6 0.500000 0.500000 0.500000
O O7 0.449196 0.503937 0.404970
O O8 0.301908 0.750000 0.436635
O O9 0.316661 0.000000 0.500000
O O10 0.250000 0.000000 0.412443
O O11 0.349037 0.989004 0.391199
O O12 0.068494 0.750000 0.884191
O O13 0.090316 0.476894 0.924494
O O14 0.000000 0.523645 0.891062
O O15 0.101299 0.250000 0.616746
O O16 0.152513 0.250000 0.944544
O O17 0.182575 0.007463 0.884211
O O18 0.167464 0.000000 0.000000
O O19 0.308254 0.750000 0.811077
O O20 0.250000 0.000000 0.800826
#
# Coordination Sequence:
#
# PCOD8280739 Si02
#       7
#    16   8  16  16  16  16  16
#     4  10  21  38  60  87 117 152 193 241 292 348
#     4  12  26  46  68  94 128 168 211 258 311 368
#     4  11  22  40  64  92 123 160 201 250 304 362
#     4   9  19  36  58  82 110 147 187 233 288 346
#     4  12  25  42  63  93 127 164 207 254 306 366
#     4  10  21  36  55  81 113 148 190 240 289 348
#     4  10  21  38  59  84 115 153 195 242 297 356
#
# _framework density 20.320095999999999
#
# number of rings (size 3 to 8) (size 9 to 14) (size 15 to 20)
#    0.000    1.538    0.000    5.769    1.077    4.000 
#    0.000    4.615    0.000    0.000    0.000    0.000 
#    0.000    0.000    0.000    0.000    0.000    0.000 
#
# Total GULP energy -644937.703497 kJ/mol
# GULP energy per Si atom -12402.648144 kJ/mol
# Density = 2.027385 g / cm^3
# Si number density = 20.320096 Si / 1000 Ang^3
#
#
#
# Elastic Constant Matrix: (Units=GPa)
#
#
# Indices 1 2 3 4 5 6 
#
# 1 79.7826 24.9236 12.2406 0.0000 0.0000 0.0000
# 2 24.9236 108.8400 24.8015 0.0000 0.0000 0.0000
# 3 12.2406 24.8015 89.0314 0.0000 0.0000 0.0000
# 4 0.0000 0.0000 0.0000 38.1624 0.0000 0.0000
# 5 0.0000 0.0000 0.0000 0.0000 14.9738 0.0000
# 6 0.0000 0.0000 0.0000 0.0000 0.0000 33.1898
#
#
#
# Elastic Compliance Matrix: (Units=1/GPa)
#
#
# Indices 1 2 3 4 5 6 
#
# 1 0.013595 -0.002869 -0.001070 0.000000 0.000000 0.000000
# 2 -0.002869 0.010416 -0.002507 0.000000 0.000000 0.000000
# 3 -0.001070 -0.002507 0.012077 0.000000 0.000000 0.000000
# 4 0.000000 0.000000 0.000000 0.026204 0.000000 0.000000
# 5 0.000000 0.000000 0.000000 0.000000 0.066783 0.000000
# 6 0.000000 0.000000 0.000000 0.000000 0.000000 0.030130
#
#
# Mechanical properties :
#
#
# Convention : Reuss Voigt Hill
#
# Bulk Modulus (GPa) = 43.11126 44.62058 43.86592
# Shear Modulus (GPa) = 27.80414 31.64441 29.72427
#
# Velocity S-wave (km/s) = 3.70308 3.95054 3.82881
# Velocity P-wave (km/s) = 6.28855 6.54336 6.41722
#
# Compressibility (1/GPa) = 0.02319580
#
# Stress axis : x y z
#
# Youngs Moduli (GPa) = 73.55894 96.00476 82.79864
#
# Poissons Ratio (x) = 0.27546 0.08858
# Poissons Ratio (y) = 0.21106 0.20759
# Poissons Ratio (z) = 0.07869 0.24070
#
# Static dielectric constant tensor:
#      x y z
#    x 3.684740 0.000000 0.000000 
#    y 0.000000 3.774590 0.000000 
#    z 0.000000 0.000000 4.181440 
# 
# 
# High freq. dielectric constant tensor:
#      x y z
#    x 1.799490 0.000000 0.000000 
#    y 0.000000 1.804970 0.000000 
#    z 0.000000 0.000000 1.796850 
# 
# From -- ./inp_files/39986.got.cif
#   From: 2010.03.12/outbox.cif.g09.slc.cpg/sg67_20_cif.got.tgz:39986.got - 2010.04.10 22:41:39.
