data_PCOD8280284
_publ_section_title
;
Structure prediction by ZEFSAII (Michael W. Deem and Ramdas Pophale) SiO2 
 PCOD8280284
Probable space group: C M M A
;
_chemical_formula_sum "Si O2"
_cell_formula_units_Z 52
_cell_length_a 14.438123
_cell_length_b 21.636884
_cell_length_c 7.597946
_cell_angle_alpha 90.000000
_cell_angle_beta 90.000000
_cell_angle_gamma 90.000000
_cell_volume 2373.567882
_symmetry_space_group_name_H-M "C M M A"
_symmetry_group_IT_number 67
_symmetry_cell_setting 'orthorhombic'
loop_
_space_group_symop_operation_xyz
x,y,z
-x,1/2-y,z
x,-y,-z
-x,1/2+y,-z
-x,-y,-z
x,1/2+y,-z
-x,y,z
x,1/2-y,z
1/2+x,1/2+y,z
1/2-x,-y,z
1/2+x,1/2-y,-z
1/2-x,y,-z
1/2-x,1/2-y,-z
1/2+x,y,-z
1/2-x,1/2+y,z
1/2+x,-y,z
loop_
_atom_site_type_symbol
_atom_site_label
_atom_site_fract_x
_atom_site_fract_y
_atom_site_fract_z
Si Si1 0.750000 0.000000 0.000000
Si Si2 0.392280 0.406954 0.869759
Si Si3 0.897552 0.317029 0.838723
Si Si4 0.356531 0.679994 0.456661
O O1 0.819804 0.036487 0.132337
O O2 0.500000 0.428478 0.895732
O O3 0.386765 0.367311 0.692655
O O4 0.351184 0.367034 0.033921
O O5 0.845140 0.250000 0.845240
O O6 0.905827 0.340031 0.637770
O O7 0.000000 0.308205 0.915534
O O8 0.384663 0.750000 0.400366
O O9 0.250000 0.675260 0.500000
#
# Coordination Sequence:
#
# PCOD8280284 Si02
#       4
#     4  16  16  16
#     4  12  26  44  60  82 120 162 218 270 290 338
#     4  11  23  41  64  87 119 165 207 250 307 361
#     4   9  18  34  59  91 120 145 183 238 300 368
#     4  10  20  35  60  94 126 154 189 241 307 373
#
# _framework density 21.907947
#
# number of rings (size 3 to 8) (size 9 to 14) (size 15 to 20)
#    0.000    1.846    0.000    4.154    0.000    3.077 
#    0.000   13.077    0.000   11.077    0.000    0.000 
#    0.000    0.000    0.000    0.000    0.000    0.000 
#
# Total GULP energy -322143.573499 kJ/mol
# GULP energy per Si atom -12390.137442 kJ/mol
# Density = 2.185808 g / cm^3
# Si number density = 21.907947 Si / 1000 Ang^3
#
#
#
# Elastic Constant Matrix: (Units=GPa)
#
#
# Indices 1 2 3 4 5 6 
#
# 1 108.1167 46.5559 26.7512 0.0000 0.0000 0.0000
# 2 46.5559 104.3907 67.2924 0.0000 0.0000 0.0000
# 3 26.7512 67.2924 125.2501 0.0000 0.0000 0.0000
# 4 0.0000 0.0000 0.0000 14.4097 0.0000 0.0000
# 5 0.0000 0.0000 0.0000 0.0000 20.2662 0.0000
# 6 0.0000 0.0000 0.0000 0.0000 0.0000 -7.7675
#
#
#
# Elastic Compliance Matrix: (Units=1/GPa)
#
#
# Indices 1 2 3 4 5 6 
#
# 1 0.011465 -0.005407 0.000456 0.000000 0.000000 0.000000
# 2 -0.005407 0.017205 -0.008089 0.000000 0.000000 0.000000
# 3 0.000456 -0.008089 0.012232 0.000000 0.000000 0.000000
# 4 0.000000 0.000000 0.000000 0.069398 0.000000 0.000000
# 5 0.000000 0.000000 0.000000 0.000000 0.049343 0.000000
# 6 0.000000 0.000000 0.000000 0.000000 0.000000 -0.128742
#
#
# Mechanical properties :
#
#
# Convention : Reuss Voigt Hill
#
# Bulk Modulus (GPa) = 67.46266 68.77295 68.11781
# Shear Modulus (GPa) = 80.74798 18.52557 49.63678
#
# Velocity S-wave (km/s) = 6.07765 2.91109 4.76510
# Velocity P-wave (km/s) = 8.95048 6.53905 7.83806
#
# Compressibility (1/GPa) = 0.01482301
#
# Stress axis : x y z
#
# Youngs Moduli (GPa) = 87.22408 58.12223 81.75038
#
# Poissons Ratio (x) = 0.31428 -0.03732
# Poissons Ratio (y) = 0.47164 0.66126
# Poissons Ratio (z) = -0.03981 0.47014
#
# Static dielectric constant tensor:
#      x y z
#    x 3.970120 0.000000 0.000000 
#    y 0.000000 3.987970 0.000000 
#    z 0.000000 0.000000 4.384020 
# 
# 
# High freq. dielectric constant tensor:
#      x y z
#    x 1.874510 0.000000 0.000000 
#    y 0.000000 1.836730 0.000000 
#    z 0.000000 0.000000 1.857100 
# 
# From -- ./inp_files/7549.got.cif
#   From: 2010.03.12/outbox.cif.g09.slc.cpg/sg67_4_cif.got.tgz:7549.got - 2010.04.10 22:41:39.
