data_PCOD8280943
_publ_section_title
;
Structure prediction by ZEFSAII (Michael W. Deem and Ramdas Pophale) SiO2 
 PCOD8280943
Probable space group: C M M A
;
_chemical_formula_sum "Si O2"
_cell_formula_units_Z 80
_cell_length_a 18.959016
_cell_length_b 8.704354
_cell_length_c 25.500634
_cell_angle_alpha 90.000000
_cell_angle_beta 90.000000
_cell_angle_gamma 90.000000
_cell_volume 4208.267289
_symmetry_space_group_name_H-M "C M M A"
_symmetry_group_IT_number 67
_symmetry_cell_setting 'orthorhombic'
loop_
_space_group_symop_operation_xyz
x,y,z
-x,1/2-y,z
x,-y,-z
-x,1/2+y,-z
-x,-y,-z
x,1/2+y,-z
-x,y,z
x,1/2-y,z
1/2+x,1/2+y,z
1/2-x,-y,z
1/2+x,1/2-y,-z
1/2-x,y,-z
1/2-x,1/2-y,-z
1/2+x,y,-z
1/2-x,1/2+y,z
1/2+x,-y,z
loop_
_atom_site_type_symbol
_atom_site_label
_atom_site_fract_x
_atom_site_fract_y
_atom_site_fract_z
Si Si1 0.418537 0.570524 0.555997
Si Si2 0.421756 0.932400 0.257621
Si Si3 0.327393 0.567829 0.352225
Si Si4 0.916883 0.575543 0.859325
Si Si5 0.175204 0.070427 0.945456
O O1 0.399596 0.500000 0.500000
O O2 0.500000 0.539765 0.570201
O O3 0.400704 0.750000 0.555517
O O4 0.370473 0.484680 0.597502
O O5 0.500000 0.999598 0.269548
O O6 0.426097 0.750000 0.260241
O O7 0.366748 0.996355 0.300292
O O8 0.396887 0.980994 0.199357
O O9 0.322836 0.750000 0.351698
O O10 0.250000 0.500000 0.353822
O O11 0.890701 0.750000 0.868579
O O12 0.880462 0.462452 0.900037
O O13 0.000000 0.565298 0.867548
O O14 0.184166 0.250000 0.953232
O O15 0.250000 0.000000 0.929189
O O16 0.147388 0.000000 0.000000
#
# Coordination Sequence:
#
# PCOD8280943 Si02
#       5
#    16  16  16  16  16
#     4  10  21  38  60  85 111 141 180 224 271 324
#     4   8  16  33  57  81 106 141 182 222 267 320
#     4  11  22  36  55  81 114 148 184 224 269 320
#     4   9  18  35  58  83 111 142 178 221 269 320
#     4  11  22  37  56  78 107 142 182 224 270 324
#
# _framework density 19.010200000000001
#
# number of rings (size 3 to 8) (size 9 to 14) (size 15 to 20)
#    0.000    2.200    0.000    5.400    0.000    4.000 
#    0.000    6.000    0.000    2.400    0.000    0.000 
#    0.000    0.000    0.000    0.000    0.000    0.000 
#
# Total GULP energy -496046.839500 kJ/mol
# GULP energy per Si atom -12401.170987 kJ/mol
# Density = 1.896693 g / cm^3
# Si number density = 19.010200 Si / 1000 Ang^3
#
#
#
# Elastic Constant Matrix: (Units=GPa)
#
#
# Indices 1 2 3 4 5 6 
#
# 1 95.7354 41.7654 84.3811 0.0000 0.0000 0.0000
# 2 41.7654 96.4918 49.1662 0.0000 0.0000 0.0000
# 3 84.3811 49.1662 150.0253 0.0000 0.0000 0.0000
# 4 0.0000 0.0000 0.0000 24.5508 0.0000 0.0000
# 5 0.0000 0.0000 0.0000 0.0000 -6.5784 0.0000
# 6 0.0000 0.0000 0.0000 0.0000 0.0000 15.0389
#
#
#
# Elastic Compliance Matrix: (Units=1/GPa)
#
#
# Indices 1 2 3 4 5 6 
#
# 1 0.021835 -0.003834 -0.011025 0.000000 0.000000 0.000000
# 2 -0.003834 0.013114 -0.002142 0.000000 0.000000 0.000000
# 3 -0.011025 -0.002142 0.013568 0.000000 0.000000 0.000000
# 4 0.000000 0.000000 0.000000 0.040732 0.000000 0.000000
# 5 0.000000 0.000000 0.000000 0.000000 -0.152013 0.000000
# 6 0.000000 0.000000 0.000000 0.000000 0.000000 0.066494
#
#
# Mechanical properties :
#
#
# Convention : Reuss Voigt Hill
#
# Bulk Modulus (GPa) = 68.88165 76.98643 72.93404
# Shear Modulus (GPa) = 117.45446 17.73157 67.59302
#
# Velocity S-wave (km/s) = 7.86887 3.05739 5.96937
# Velocity P-wave (km/s) = 10.90282 7.28347 9.27147
#
# Compressibility (1/GPa) = 0.01451766
#
# Stress axis : x y z
#
# Youngs Moduli (GPa) = 45.79793 76.25379 73.70189
#
# Poissons Ratio (x) = 0.29232 0.81254
# Poissons Ratio (y) = 0.17557 0.15784
# Poissons Ratio (z) = 0.50491 0.16330
#
# Static dielectric constant tensor:
#      x y z
#    x 3.482430 0.000000 0.000000 
#    y 0.000000 3.373330 0.000000 
#    z 0.000000 0.000000 3.773180 
# 
# 
# High freq. dielectric constant tensor:
#      x y z
#    x 1.735830 0.000000 0.000000 
#    y 0.000000 1.728110 0.000000 
#    z 0.000000 0.000000 1.753010 
# 
# From -- ./inp_files/44431.got.cif
#   From: 2010.03.12/outbox.cif.g09.slc.cpg/sg67_23_cif.got.tgz:44431.got - 2010.04.10 22:41:39.
