data_PCOD8280973
_publ_section_title
;
Structure prediction by ZEFSAII (Michael W. Deem and Ramdas Pophale) SiO2 
 PCOD8280973
Probable space group: C M M A
;
_chemical_formula_sum "Si O2"
_cell_formula_units_Z 104
_cell_length_a 19.708489
_cell_length_b 9.026651
_cell_length_c 29.980292
_cell_angle_alpha 90.000000
_cell_angle_beta 90.000000
_cell_angle_gamma 90.000000
_cell_volume 5333.543472
_symmetry_space_group_name_H-M "C M M A"
_symmetry_group_IT_number 67
_symmetry_cell_setting 'orthorhombic'
loop_
_space_group_symop_operation_xyz
x,y,z
-x,1/2-y,z
x,-y,-z
-x,1/2+y,-z
-x,-y,-z
x,1/2+y,-z
-x,y,z
x,1/2-y,z
1/2+x,1/2+y,z
1/2-x,-y,z
1/2+x,1/2-y,-z
1/2-x,y,-z
1/2-x,1/2-y,-z
1/2+x,y,-z
1/2-x,1/2+y,z
1/2+x,-y,z
loop_
_atom_site_type_symbol
_atom_site_label
_atom_site_fract_x
_atom_site_fract_y
_atom_site_fract_z
Si Si1 0.500000 0.416538 0.955258
Si Si2 0.423399 0.075999 0.789322
Si Si3 0.814558 0.925366 0.858843
Si Si4 0.175418 0.927098 0.381923
Si Si5 0.422839 0.923521 0.698732
Si Si6 0.646330 0.078396 0.952871
Si Si7 0.922981 0.424503 0.452333
O O1 0.500000 0.250000 0.970846
O O2 0.429038 0.451965 0.931476
O O3 0.500000 0.500000 0.000000
O O4 0.500000 0.029127 0.800425
O O5 0.416020 0.250000 0.782197
O O6 0.379672 0.019860 0.831293
O O7 0.398103 0.000407 0.744024
O O8 0.809589 0.750000 0.857075
O O9 0.811622 0.980187 0.910704
O O10 0.750000 0.000000 0.835243
O O11 0.182377 0.750000 0.387731
O O12 0.131415 0.969962 0.338555
O O13 0.250000 0.000000 0.378778
O O14 0.133455 0.995479 0.422630
O O15 0.500000 0.974512 0.685863
O O16 0.421788 0.750000 0.706766
O O17 0.659153 0.250000 0.962646
O O18 0.662950 0.000000 0.000000
O O19 0.916728 0.500000 0.500000
O O20 0.906710 0.250000 0.455713
O O21 0.000000 0.449057 0.433800
#
# Coordination Sequence:
#
# PCOD8280973 Si02
#       7
#     8  16  16  16  16  16  16
#     4   8  14  26  46  70  94 120 154 200 248 292
#     4   9  19  36  59  83 105 135 178 224 268 319
#     4  10  22  37  53  76 106 140 174 212 262 317
#     4  11  23  38  57  84 119 157 196 239 289 344
#     4   9  19  37  60  84 111 144 182 227 281 336
#     4   9  18  32  51  74 100 132 169 211 257 308
#     4  10  21  38  61  88 118 155 200 248 295 345
#
# _framework density 19.499233
#
# number of rings (size 3 to 8) (size 9 to 14) (size 15 to 20)
#    0.000    2.462    0.000    1.385    1.077    5.231 
#    0.000    7.692    0.000    0.000    0.000    0.000 
#    0.000    0.000    0.000    0.000    0.000    0.000 
#
# Total GULP energy -644181.080142 kJ/mol
# GULP energy per Si atom -12388.097695 kJ/mol
# Density = 1.945485 g / cm^3
# Si number density = 19.499233 Si / 1000 Ang^3
#
#
#
# Elastic Constant Matrix: (Units=GPa)
#
#
# Indices 1 2 3 4 5 6 
#
# 1 136.8772 50.9593 77.2304 0.0000 0.0000 0.0000
# 2 50.9593 57.5860 49.8500 0.0000 0.0000 0.0000
# 3 77.2304 49.8500 130.6126 0.0000 0.0000 0.0000
# 4 0.0000 0.0000 0.0000 31.5043 0.0000 0.0000
# 5 0.0000 0.0000 0.0000 0.0000 10.9472 0.0000
# 6 0.0000 0.0000 0.0000 0.0000 0.0000 30.9599
#
#
#
# Elastic Compliance Matrix: (Units=1/GPa)
#
#
# Indices 1 2 3 4 5 6 
#
# 1 0.012620 -0.007031 -0.004778 0.000000 0.000000 0.000000
# 2 -0.007031 0.029851 -0.007236 0.000000 0.000000 0.000000
# 3 -0.004778 -0.007236 0.013243 0.000000 0.000000 0.000000
# 4 0.000000 0.000000 0.000000 0.031742 0.000000 0.000000
# 5 0.000000 0.000000 0.000000 0.000000 0.091347 0.000000
# 6 0.000000 0.000000 0.000000 0.000000 0.000000 0.032300
#
#
# Mechanical properties :
#
#
# Convention : Reuss Voigt Hill
#
# Bulk Modulus (GPa) = 56.74180 75.68392 66.21286
# Shear Modulus (GPa) = 19.60272 24.48470 22.04371
#
# Velocity S-wave (km/s) = 3.17410 3.54739 3.36593
# Velocity P-wave (km/s) = 6.52655 7.46168 7.00973
#
# Compressibility (1/GPa) = 0.01762369
#
# Stress axis : x y z
#
# Youngs Moduli (GPa) = 79.24223 33.50008 75.51009
#
# Poissons Ratio (x) = 0.23553 0.36082
# Poissons Ratio (y) = 0.55714 0.54636
# Poissons Ratio (z) = 0.37865 0.24239
#
# Static dielectric constant tensor:
#      x y z
#    x 3.855310 0.000000 0.000000 
#    y 0.000000 3.486460 0.000000 
#    z 0.000000 0.000000 3.543460 
# 
# 
# High freq. dielectric constant tensor:
#      x y z
#    x 1.771760 0.000000 0.000000 
#    y 0.000000 1.754070 0.000000 
#    z 0.000000 0.000000 1.754970 
# 
# From -- ./inp_files/45872.got.cif
#   From: 2010.03.12/outbox.cif.g09.slc.cpg/sg67_23_cif.got.tgz:45872.got - 2010.04.10 22:41:39.
